=
 OpenBabel11052416383D

 43 48  0  0  1  0  0  0  0  0999 V2000
  186.7710  178.1150  145.7270 N   0  0  0  0  0  2  0  0  0  0  0  0
  180.5000  178.9620  141.6910 C   0  0  0  0  0  0  0  0  0  0  0  0
  184.9670  178.5390  144.0200 C   0  0  0  0  0  0  0  0  0  0  0  0
  185.6130  178.1670  141.6240 C   0  0  0  0  0  2  0  0  0  0  0  0
  182.2630  178.8620  143.3490 C   0  0  0  0  0  0  0  0  0  0  0  0
  181.4360  178.7400  140.6770 C   0  0  0  0  0  3  0  0  0  0  0  0
  179.1590  179.1200  141.3730 O   0  0  0  0  0  1  0  0  0  0  0  0
  183.2180  178.6390  142.3280 C   0  0  0  0  0  0  0  0  0  0  0  0
  180.9120  179.0220  143.0240 C   0  0  0  0  0  3  0  0  0  0  0  0
  182.7880  178.5800  140.9920 C   0  0  0  0  0  3  0  0  0  0  0  0
  186.9680  178.7590  142.0350 C   0  0  1  0  0  3  0  0  0  0  0  0
  184.5750  178.4830  142.6670 C   0  0  0  0  0  0  0  0  0  0  0  0
  184.0100  178.7520  145.0190 C   0  0  0  0  0  3  0  0  0  0  0  0
  186.3970  178.3740  144.3650 C   0  0  0  0  0  0  0  0  0  0  0  0
  187.2950  178.4300  143.4250 N   0  0  0  0  0  0  0  0  0  0  0  0
  182.6650  178.9140  144.6850 C   0  0  0  0  0  3  0  0  0  0  0  0
  189.6010  177.6950  148.1530 C   0  0  0  0  0  3  0  0  0  0  0  0
  190.4680  176.7580  147.3530 C   0  0  1  0  0  3  0  0  0  0  0  0
  188.9990  177.3240  145.4110 C   0  0  0  0  0  3  0  0  0  0  0  0
  188.4690  178.1750  147.6310 C   0  0  0  0  0  3  0  0  0  0  0  0
  188.0890  177.8610  146.2330 C   0  0  0  0  0  0  0  0  0  0  0  0
  190.4200  177.1170  145.8630 C   0  0  0  0  0  2  0  0  0  0  0  0
  192.3800  175.6440  147.3450 C   0  0  0  0  0  1  0  0  0  0  0  0
  191.7830  176.8150  147.8160 O   0  0  0  0  0  0  0  0  0  0  0  0
  188.1120  178.3540  141.1030 C   0  0  1  0  0  3  0  0  0  0  0  0
  188.8410  177.1180  141.6050 C   0  0  0  0  0  1  0  0  0  0  0  0
  187.6230  178.1190  139.6800 C   0  0  0  0  0  2  0  0  0  0  0  0
  190.2800  177.9590  139.2570 O   0  0  0  0  0  0  0  0  0  0  0  0
  188.9820  178.1210  138.5180 S   0  0  0  0  0  0  0  0  0  0  0  0
  188.9780  179.4350  137.7890 O   0  0  0  0  0  0  0  0  0  0  0  0
  188.7960  176.8130  137.3810 N   0  0  0  0  0  0  0  0  0  0  0  0
  187.5510  176.6260  136.6820 C   0  0  0  0  0  0  0  0  0  0  0  0
  187.2600  175.4990  136.1980 O   0  0  0  0  0  0  0  0  0  0  0  0
  190.4570  175.8220  135.8820 C   0  0  0  0  0  2  0  0  0  0  0  0
  189.8500  175.8020  137.2760 C   0  0  0  0  0  3  0  0  0  0  0  0
  191.1950  176.4640  137.0300 C   0  0  0  0  0  2  0  0  0  0  0  0
  186.6090  177.7670  136.4600 C   0  0  0  0  0  2  0  0  0  0  0  0
  185.1970  177.3010  136.5570 C   0  0  0  0  0  0  0  0  0  0  0  0
  183.1130  176.6840  135.4830 C   0  0  0  0  0  3  0  0  0  0  0  0
  183.2790  176.6740  137.8990 C   0  0  0  0  0  3  0  0  0  0  0  0
  182.5300  176.4700  136.7360 C   0  0  0  0  0  3  0  0  0  0  0  0
  184.6110  177.0900  137.8090 C   0  0  0  0  0  3  0  0  0  0  0  0
  184.4440  177.1010  135.3930 C   0  0  0  0  0  3  0  0  0  0  0  0
  1 21  1  0  0  0  0
  2  9  1  0  0  0  0
  3 14  1  0  0  0  0
  3 13  1  0  0  0  0
  4 11  1  0  0  0  0
  4 12  1  0  0  0  0
  5 16  1  0  0  0  0
  6 10  1  0  0  0  0
  6  2  2  0  0  0  0
  7  2  1  0  0  0  0
  8 12  1  0  0  0  0
  8  5  1  0  0  0  0
  9  5  2  0  0  0  0
 10  8  2  0  0  0  0
 11 25  1  6  0  0  0
 11 15  1  0  0  0  0
 12  3  2  0  0  0  0
 14  1  1  0  0  0  0
 15 14  2  0  0  0  0
 16 13  2  0  0  0  0
 18 24  1  1  0  0  0
 18 17  1  0  0  0  0
 19 22  1  0  0  0  0
 19 21  2  0  0  0  0
 20 17  2  0  0  0  0
 21 20  1  0  0  0  0
 22 18  1  0  0  0  0
 23 24  1  0  0  0  0
 25 26  1  1  0  0  0
 27 25  1  0  0  0  0
 29 28  2  0  0  0  0
 29 27  1  0  0  0  0
 30 29  2  0  0  0  0
 31 29  1  0  0  0  0
 32 31  1  0  0  0  0
 33 32  2  0  0  0  0
 34 36  1  0  0  0  0
 34 35  1  0  0  0  0
 35 31  1  0  0  0  0
 36 35  1  0  0  0  0
 37 38  1  0  0  0  0
 37 32  1  0  0  0  0
 38 42  1  0  0  0  0
 39 41  2  0  0  0  0
 41 40  1  0  0  0  0
 42 40  2  0  0  0  0
 43 39  1  0  0  0  0
 43 38  2  0  0  0  0
M  END
>  <MODEL>
1

>  <REMARK>
 VINA RESULT:      -9.9      0.000      0.000
  Name = 
  9 active torsions:
  status: ('A' for Active; 'I' for Inactive)
    1  A    between atoms: N_1  and  C_35
    2  A    between atoms: C_2  and  C_6
    3  A    between atoms: C_2  and  C_27
    4  A    between atoms: N_4  and  S_12
    5  A    between atoms: N_4  and  C_15
    6  A    between atoms: C_6  and  S_12
    7  A    between atoms: C_11  and  C_14
    8  A    between atoms: C_14  and  C_22
    9  A    between atoms: C_19  and  O_37
                            x       y       z     vdW  Elec       q    Type
                         _______ _______ _______ _____ _____    ______ ____

>  <TORSDO>
F 9

$$$$
=
 OpenBabel11052416383D

 43 48  0  0  1  0  0  0  0  0999 V2000
  187.1010  177.6300  145.0490 N   0  0  0  0  0  2  0  0  0  0  0  0
  180.7110  179.2720  141.4700 C   0  0  0  0  0  0  0  0  0  0  0  0
  185.2480  178.3390  143.4960 C   0  0  0  0  0  0  0  0  0  0  0  0
  185.7520  178.1840  141.0430 C   0  0  0  0  0  2  0  0  0  0  0  0
  182.5410  178.8920  143.0110 C   0  0  0  0  0  0  0  0  0  0  0  0
  181.5810  179.1030  140.3890 C   0  0  0  0  0  3  0  0  0  0  0  0
  179.3690  179.5420  141.2440 O   0  0  0  0  0  1  0  0  0  0  0  0
  183.4290  178.7220  141.9210 C   0  0  0  0  0  0  0  0  0  0  0  0
  181.1900  179.1660  142.7780 C   0  0  0  0  0  3  0  0  0  0  0  0
  182.9330  178.8290  140.6120 C   0  0  0  0  0  3  0  0  0  0  0  0
  187.1610  178.6480  141.4370 C   0  0  1  0  0  3  0  0  0  0  0  0
  184.7880  178.4500  142.1680 C   0  0  0  0  0  0  0  0  0  0  0  0
  184.3560  178.5020  144.5620 C   0  0  0  0  0  3  0  0  0  0  0  0
  186.6790  178.0530  143.7430 C   0  0  0  0  0  0  0  0  0  0  0  0
  187.5330  178.1540  142.7660 N   0  0  0  0  0  0  0  0  0  0  0  0
  183.0100  178.7790  144.3210 C   0  0  0  0  0  3  0  0  0  0  0  0
  190.7380  176.7380  144.8380 C   0  0  0  0  0  3  0  0  0  0  0  0
  191.1620  177.1230  146.2310 C   0  0  1  0  0  3  0  0  0  0  0  0
  188.7220  177.2570  146.7580 C   0  0  0  0  0  3  0  0  0  0  0  0
  189.4570  176.8370  144.4740 C   0  0  0  0  0  3  0  0  0  0  0  0
  188.4220  177.2450  145.4540 C   0  0  0  0  0  0  0  0  0  0  0  0
  190.0650  176.7800  147.2450 C   0  0  0  0  0  2  0  0  0  0  0  0
  192.0320  175.7230  147.7080 C   0  0  0  0  0  1  0  0  0  0  0  0
  192.3460  176.4650  146.5670 O   0  0  0  0  0  0  0  0  0  0  0  0
  188.2300  178.2750  140.4070 C   0  0  1  0  0  3  0  0  0  0  0  0
  189.3380  177.4340  141.0200 C   0  0  0  0  0  1  0  0  0  0  0  0
  187.6310  177.5450  139.2130 C   0  0  0  0  0  2  0  0  0  0  0  0
  188.9550  179.5000  137.9130 O   0  0  0  0  0  0  0  0  0  0  0  0
  187.9010  178.4520  137.6960 S   0  0  0  0  0  0  0  0  0  0  0  0
  186.6080  179.1090  137.3030 O   0  0  0  0  0  0  0  0  0  0  0  0
  188.4180  177.3640  136.4350 N   0  0  0  0  0  0  0  0  0  0  0  0
  189.7960  176.9600  136.3410 C   0  0  0  0  0  0  0  0  0  0  0  0
  190.2580  176.5360  135.2470 O   0  0  0  0  0  0  0  0  0  0  0  0
  187.2240  175.5090  135.3770 C   0  0  0  0  0  2  0  0  0  0  0  0
  187.4800  177.0080  135.3690 C   0  0  0  0  0  3  0  0  0  0  0  0
  186.1960  176.4470  135.9600 C   0  0  0  0  0  2  0  0  0  0  0  0
  190.6910  176.9760  137.5400 C   0  0  0  0  0  2  0  0  0  0  0  0
  191.7670  175.9530  137.3990 C   0  0  0  0  0  0  0  0  0  0  0  0
  192.4420  173.6350  137.1900 C   0  0  0  0  0  3  0  0  0  0  0  0
  194.1180  175.3800  137.2850 C   0  0  0  0  0  3  0  0  0  0  0  0
  193.7850  174.0270  137.1820 C   0  0  0  0  0  3  0  0  0  0  0  0
  193.1100  176.3420  137.3950 C   0  0  0  0  0  3  0  0  0  0  0  0
  191.4340  174.5960  137.3010 C   0  0  0  0  0  3  0  0  0  0  0  0
  1 21  1  0  0  0  0
  2  9  1  0  0  0  0
  3 14  1  0  0  0  0
  3 13  1  0  0  0  0
  4 11  1  0  0  0  0
  4 12  1  0  0  0  0
  5 16  1  0  0  0  0
  6 10  1  0  0  0  0
  6  2  2  0  0  0  0
  7  2  1  0  0  0  0
  8 12  1  0  0  0  0
  8  5  1  0  0  0  0
  9  5  2  0  0  0  0
 10  8  2  0  0  0  0
 11 25  1  6  0  0  0
 11 15  1  0  0  0  0
 12  3  2  0  0  0  0
 14  1  1  0  0  0  0
 15 14  2  0  0  0  0
 16 13  2  0  0  0  0
 17 18  1  0  0  0  0
 18 24  1  1  0  0  0
 18 22  1  0  0  0  0
 19 22  1  0  0  0  0
 20 17  2  0  0  0  0
 20 21  1  0  0  0  0
 21 19  2  0  0  0  0
 24 23  1  0  0  0  0
 25 26  1  1  0  0  0
 27 25  1  0  0  0  0
 29 28  2  0  0  0  0
 29 27  1  0  0  0  0
 30 29  2  0  0  0  0
 31 29  1  0  0  0  0
 32 31  1  0  0  0  0
 32 37  1  0  0  0  0
 33 32  2  0  0  0  0
 34 36  1  0  0  0  0
 35 34  1  0  0  0  0
 35 36  1  0  0  0  0
 35 31  1  0  0  0  0
 38 37  1  0  0  0  0
 39 43  1  0  0  0  0
 40 42  2  0  0  0  0
 41 39  2  0  0  0  0
 41 40  1  0  0  0  0
 42 38  1  0  0  0  0
 43 38  2  0  0  0  0
M  END
>  <MODEL>
2

>  <REMARK>
 VINA RESULT:      -9.9      1.467      3.945
  Name = 
  9 active torsions:
  status: ('A' for Active; 'I' for Inactive)
    1  A    between atoms: N_1  and  C_35
    2  A    between atoms: C_2  and  C_6
    3  A    between atoms: C_2  and  C_27
    4  A    between atoms: N_4  and  S_12
    5  A    between atoms: N_4  and  C_15
    6  A    between atoms: C_6  and  S_12
    7  A    between atoms: C_11  and  C_14
    8  A    between atoms: C_14  and  C_22
    9  A    between atoms: C_19  and  O_37
                            x       y       z     vdW  Elec       q    Type
                         _______ _______ _______ _____ _____    ______ ____

>  <TORSDO>
F 9

$$$$
=
 OpenBabel11052416383D

 43 48  0  0  1  0  0  0  0  0999 V2000
  186.6530  177.4670  137.3370 N   0  0  0  0  0  2  0  0  0  0  0  0
  193.5830  175.1490  135.6240 C   0  0  0  0  0  0  0  0  0  0  0  0
  189.1090  176.9350  137.1580 C   0  0  0  0  0  0  0  0  0  0  0  0
  190.3620  176.7910  139.3270 C   0  0  0  0  0  2  0  0  0  0  0  0
  191.2970  175.9470  135.7080 C   0  0  0  0  0  0  0  0  0  0  0  0
  193.7030  175.3350  137.0040 C   0  0  0  0  0  3  0  0  0  0  0  0
  194.6560  174.6570  134.8950 O   0  0  0  0  0  1  0  0  0  0  0  0
  191.4120  176.1410  137.1060 C   0  0  0  0  0  0  0  0  0  0  0  0
  192.3820  175.4530  134.9770 C   0  0  0  0  0  3  0  0  0  0  0  0
  192.6240  175.8290  137.7420 C   0  0  0  0  0  3  0  0  0  0  0  0
  189.4690  177.9580  139.7690 C   0  0  1  0  0  3  0  0  0  0  0  0
  190.3130  176.6420  137.8300 C   0  0  0  0  0  0  0  0  0  0  0  0
  189.0090  176.7290  135.7760 C   0  0  0  0  0  3  0  0  0  0  0  0
  187.9610  177.4610  137.9290 C   0  0  0  0  0  0  0  0  0  0  0  0
  188.1440  177.8800  139.1480 N   0  0  0  0  0  0  0  0  0  0  0  0
  190.0980  176.2390  135.0550 C   0  0  0  0  0  3  0  0  0  0  0  0
  184.2610  179.2460  139.6140 C   0  0  0  0  0  3  0  0  0  0  0  0
  183.0200  179.1760  138.7630 C   0  0  1  0  0  3  0  0  0  0  0  0
  184.2690  177.5160  137.3730 C   0  0  0  0  0  3  0  0  0  0  0  0
  185.3910  178.6620  139.2050 C   0  0  0  0  0  3  0  0  0  0  0  0
  185.4220  177.8700  137.9520 C   0  0  0  0  0  0  0  0  0  0  0  0
  182.9480  177.8370  138.0210 C   0  0  0  0  0  2  0  0  0  0  0  0
  182.0370  178.4170  140.5940 C   0  0  0  0  0  1  0  0  0  0  0  0
  181.8870  179.3430  139.5600 O   0  0  0  0  0  0  0  0  0  0  0  0
  189.3440  178.0810  141.2890 C   0  0  1  0  0  3  0  0  0  0  0  0
  188.2470  179.0540  141.6900 C   0  0  0  0  0  1  0  0  0  0  0  0
  189.0980  176.7300  141.9460 C   0  0  0  0  0  2  0  0  0  0  0  0
  191.7100  176.8720  142.5940 O   0  0  0  0  0  0  0  0  0  0  0  0
  190.4050  176.3180  143.0930 S   0  0  0  0  0  0  0  0  0  0  0  0
  190.4960  174.8210  143.1870 O   0  0  0  0  0  0  0  0  0  0  0  0
  190.0540  176.9890  144.6630 N   0  0  0  0  0  0  0  0  0  0  0  0
  188.7100  177.3720  145.0080 C   0  0  0  0  0  0  0  0  0  0  0  0
  188.5060  178.2080  145.9290 O   0  0  0  0  0  0  0  0  0  0  0  0
  190.9690  176.6470  146.9060 C   0  0  0  0  0  2  0  0  0  0  0  0
  191.1610  177.3270  145.5600 C   0  0  0  0  0  3  0  0  0  0  0  0
  191.9540  176.0790  145.9140 C   0  0  0  0  0  2  0  0  0  0  0  0
  187.5300  176.7480  144.3320 C   0  0  0  0  0  2  0  0  0  0  0  0
  186.3050  177.5660  144.5640 C   0  0  0  0  0  0  0  0  0  0  0  0
  184.7040  178.5610  146.0880 C   0  0  0  0  0  3  0  0  0  0  0  0
  184.4180  178.8140  143.6970 C   0  0  0  0  0  3  0  0  0  0  0  0
  183.9810  179.0630  145.0000 C   0  0  0  0  0  3  0  0  0  0  0  0
  185.5780  178.0650  143.4780 C   0  0  0  0  0  3  0  0  0  0  0  0
  185.8640  177.8120  145.8700 C   0  0  0  0  0  3  0  0  0  0  0  0
  1 14  1  0  0  0  0
  1 21  1  0  0  0  0
  2  6  1  0  0  0  0
  3 12  1  0  0  0  0
  3 14  1  0  0  0  0
  4 11  1  0  0  0  0
  5  8  1  0  0  0  0
  6 10  2  0  0  0  0
  7  2  1  0  0  0  0
  8 10  1  0  0  0  0
  8 12  2  0  0  0  0
  9  2  2  0  0  0  0
  9  5  1  0  0  0  0
 11 25  1  1  0  0  0
 12  4  1  0  0  0  0
 13  3  2  0  0  0  0
 14 15  2  0  0  0  0
 15 11  1  0  0  0  0
 16  5  2  0  0  0  0
 16 13  1  0  0  0  0
 18 24  1  1  0  0  0
 18 17  1  0  0  0  0
 19 21  2  0  0  0  0
 19 22  1  0  0  0  0
 20 17  2  0  0  0  0
 21 20  1  0  0  0  0
 22 18  1  0  0  0  0
 24 23  1  0  0  0  0
 25 26  1  6  0  0  0
 25 27  1  0  0  0  0
 27 29  1  0  0  0  0
 28 29  2  0  0  0  0
 29 30  2  0  0  0  0
 29 31  1  0  0  0  0
 31 32  1  0  0  0  0
 31 35  1  0  0  0  0
 32 33  2  0  0  0  0
 35 36  1  0  0  0  0
 35 34  1  0  0  0  0
 36 34  1  0  0  0  0
 37 38  1  0  0  0  0
 37 32  1  0  0  0  0
 38 43  1  0  0  0  0
 40 41  2  0  0  0  0
 41 39  1  0  0  0  0
 42 40  1  0  0  0  0
 42 38  2  0  0  0  0
 43 39  2  0  0  0  0
M  END
>  <MODEL>
3

>  <REMARK>
 VINA RESULT:      -9.6      2.491      9.526
  Name = 
  9 active torsions:
  status: ('A' for Active; 'I' for Inactive)
    1  A    between atoms: N_1  and  C_35
    2  A    between atoms: C_2  and  C_6
    3  A    between atoms: C_2  and  C_27
    4  A    between atoms: N_4  and  S_12
    5  A    between atoms: N_4  and  C_15
    6  A    between atoms: C_6  and  S_12
    7  A    between atoms: C_11  and  C_14
    8  A    between atoms: C_14  and  C_22
    9  A    between atoms: C_19  and  O_37
                            x       y       z     vdW  Elec       q    Type
                         _______ _______ _______ _____ _____    ______ ____

>  <TORSDO>
F 9

$$$$
=
 OpenBabel11052416383D

 43 48  0  0  1  0  0  0  0  0999 V2000
  188.9030  177.8790  140.2100 N   0  0  0  0  0  2  0  0  0  0  0  0
  188.4700  177.8910  147.7030 C   0  0  0  0  0  0  0  0  0  0  0  0
  188.3170  178.0680  142.6530 C   0  0  0  0  0  0  0  0  0  0  0  0
  185.8850  177.8170  143.2210 C   0  0  0  0  0  2  0  0  0  0  0  0
  189.0600  178.0180  145.3570 C   0  0  0  0  0  0  0  0  0  0  0  0
  187.1170  177.8140  147.3630 C   0  0  0  0  0  3  0  0  0  0  0  0
  188.8520  177.8640  149.0370 O   0  0  0  0  0  1  0  0  0  0  0  0
  187.6910  177.9430  145.0040 C   0  0  0  0  0  0  0  0  0  0  0  0
  189.4400  177.9920  146.7020 C   0  0  0  0  0  3  0  0  0  0  0  0
  186.7280  177.8400  146.0210 C   0  0  0  0  0  3  0  0  0  0  0  0
  185.6370  178.5880  141.9170 C   0  0  1  0  0  3  0  0  0  0  0  0
  187.3210  177.9730  143.6460 C   0  0  0  0  0  0  0  0  0  0  0  0
  189.6670  178.1320  143.0180 C   0  0  0  0  0  3  0  0  0  0  0  0
  187.9160  178.0990  141.2290 C   0  0  0  0  0  0  0  0  0  0  0  0
  186.6670  178.2910  140.9170 N   0  0  0  0  0  0  0  0  0  0  0  0
  190.0370  178.1100  144.3630 C   0  0  0  0  0  3  0  0  0  0  0  0
  188.9820  178.8010  136.5750 C   0  0  0  0  0  3  0  0  0  0  0  0
  188.8760  177.4240  135.9740 C   0  0  1  0  0  3  0  0  0  0  0  0
  188.2570  176.6520  138.2700 C   0  0  0  0  0  3  0  0  0  0  0  0
  188.9330  178.9620  137.9000 C   0  0  0  0  0  3  0  0  0  0  0  0
  188.6900  177.8050  138.7940 C   0  0  0  0  0  0  0  0  0  0  0  0
  187.9330  176.5440  136.8030 C   0  0  0  0  0  2  0  0  0  0  0  0
  187.0510  177.7930  134.7780 C   0  0  0  0  0  1  0  0  0  0  0  0
  188.4140  177.5120  134.6600 O   0  0  0  0  0  0  0  0  0  0  0  0
  184.2400  178.3570  141.3350 C   0  0  1  0  0  3  0  0  0  0  0  0
  183.1500  178.8770  142.2590 C   0  0  0  0  0  1  0  0  0  0  0  0
  184.0920  178.9900  139.9580 C   0  0  0  0  0  2  0  0  0  0  0  0
  183.0670  176.5970  139.2630 O   0  0  0  0  0  0  0  0  0  0  0  0
  182.9600  178.0590  138.9350 S   0  0  0  0  0  0  0  0  0  0  0  0
  183.3310  178.2820  137.4960 O   0  0  0  0  0  0  0  0  0  0  0  0
  181.3250  178.5960  139.2140 N   0  0  0  0  0  0  0  0  0  0  0  0
  181.0340  179.9980  139.3680 C   0  0  0  0  0  0  0  0  0  0  0  0
  179.9840  180.3650  139.9610 O   0  0  0  0  0  0  0  0  0  0  0  0
  179.2220  177.6640  138.3780 C   0  0  0  0  0  2  0  0  0  0  0  0
  180.2790  177.6030  139.4690 C   0  0  0  0  0  3  0  0  0  0  0  0
  180.2550  176.5650  138.3590 C   0  0  0  0  0  2  0  0  0  0  0  0
  181.9280  181.0430  138.7800 C   0  0  0  0  0  2  0  0  0  0  0  0
  181.2720  181.6910  137.6090 C   0  0  0  0  0  0  0  0  0  0  0  0
  180.3570  183.6670  136.5450 C   0  0  0  0  0  3  0  0  0  0  0  0
  180.2740  181.5320  135.4070 C   0  0  0  0  0  3  0  0  0  0  0  0
  179.9990  182.9020  135.4310 C   0  0  0  0  0  3  0  0  0  0  0  0
  180.9090  180.9270  136.4960 C   0  0  0  0  0  3  0  0  0  0  0  0
  180.9910  183.0630  137.6350 C   0  0  0  0  0  3  0  0  0  0  0  0
  1 14  1  0  0  0  0
  2  7  1  0  0  0  0
  3 13  2  0  0  0  0
  3 12  1  0  0  0  0
  4 12  1  0  0  0  0
  5  9  1  0  0  0  0
  6  2  1  0  0  0  0
  8  5  1  0  0  0  0
  8 10  1  0  0  0  0
  9  2  2  0  0  0  0
 10  6  2  0  0  0  0
 11 25  1  6  0  0  0
 11  4  1  0  0  0  0
 12  8  2  0  0  0  0
 13 16  1  0  0  0  0
 14  3  1  0  0  0  0
 15 14  2  0  0  0  0
 15 11  1  0  0  0  0
 16  5  2  0  0  0  0
 17 20  2  0  0  0  0
 18 24  1  6  0  0  0
 18 17  1  0  0  0  0
 18 22  1  0  0  0  0
 19 21  2  0  0  0  0
 20 21  1  0  0  0  0
 21  1  1  0  0  0  0
 22 19  1  0  0  0  0
 24 23  1  0  0  0  0
 25 26  1  1  0  0  0
 27 25  1  0  0  0  0
 29 31  1  0  0  0  0
 29 28  2  0  0  0  0
 29 27  1  0  0  0  0
 30 29  2  0  0  0  0
 31 32  1  0  0  0  0
 31 35  1  0  0  0  0
 32 33  2  0  0  0  0
 34 35  1  0  0  0  0
 36 34  1  0  0  0  0
 36 35  1  0  0  0  0
 37 32  1  0  0  0  0
 38 43  1  0  0  0  0
 38 37  1  0  0  0  0
 39 43  2  0  0  0  0
 40 41  2  0  0  0  0
 40 42  1  0  0  0  0
 41 39  1  0  0  0  0
 42 38  2  0  0  0  0
M  END
>  <MODEL>
4

>  <REMARK>
 VINA RESULT:      -9.5      3.251      7.938
  Name = 
  9 active torsions:
  status: ('A' for Active; 'I' for Inactive)
    1  A    between atoms: N_1  and  C_35
    2  A    between atoms: C_2  and  C_6
    3  A    between atoms: C_2  and  C_27
    4  A    between atoms: N_4  and  S_12
    5  A    between atoms: N_4  and  C_15
    6  A    between atoms: C_6  and  S_12
    7  A    between atoms: C_11  and  C_14
    8  A    between atoms: C_14  and  C_22
    9  A    between atoms: C_19  and  O_37
                            x       y       z     vdW  Elec       q    Type
                         _______ _______ _______ _____ _____    ______ ____

>  <TORSDO>
F 9

$$$$
=
 OpenBabel11052416383D

 43 48  0  0  1  0  0  0  0  0999 V2000
  184.6170  178.3460  143.8370 N   0  0  0  0  0  2  0  0  0  0  0  0
  191.3060  176.8380  146.8890 C   0  0  0  0  0  0  0  0  0  0  0  0
  186.9930  177.7320  144.4080 C   0  0  0  0  0  0  0  0  0  0  0  0
  188.7000  178.1720  142.6220 C   0  0  0  0  0  2  0  0  0  0  0  0
  188.9750  177.1240  146.2980 C   0  0  0  0  0  0  0  0  0  0  0  0
  191.6810  177.1580  145.5810 C   0  0  0  0  0  3  0  0  0  0  0  0
  192.2770  176.5390  147.8340 O   0  0  0  0  0  1  0  0  0  0  0  0
  189.3460  177.4480  144.9700 C   0  0  0  0  0  0  0  0  0  0  0  0
  189.9560  176.8220  147.2470 C   0  0  0  0  0  3  0  0  0  0  0  0
  190.7080  177.4620  144.6260 C   0  0  0  0  0  3  0  0  0  0  0  0
  187.6010  177.7270  141.6470 C   0  0  1  0  0  3  0  0  0  0  0  0
  188.3490  177.7470  144.0230 C   0  0  0  0  0  0  0  0  0  0  0  0
  186.6430  177.4200  145.7270 C   0  0  0  0  0  3  0  0  0  0  0  0
  185.9530  178.0490  143.4040 C   0  0  0  0  0  0  0  0  0  0  0  0
  186.2700  178.0890  142.1420 N   0  0  0  0  0  0  0  0  0  0  0  0
  187.6280  177.1150  146.6660 C   0  0  0  0  0  3  0  0  0  0  0  0
  182.5210  178.9690  140.7890 C   0  0  0  0  0  3  0  0  0  0  0  0
  181.1540  178.8820  141.4150 C   0  0  1  0  0  3  0  0  0  0  0  0
  182.3350  179.0010  143.6150 C   0  0  0  0  0  3  0  0  0  0  0  0
  183.6160  178.8620  141.5480 C   0  0  0  0  0  3  0  0  0  0  0  0
  183.5050  178.7390  143.0210 C   0  0  0  0  0  0  0  0  0  0  0  0
  181.1600  179.5010  142.8170 C   0  0  0  0  0  2  0  0  0  0  0  0
  179.6750  180.5280  141.4230 C   0  0  0  0  0  1  0  0  0  0  0  0
  180.2190  179.5330  140.6080 O   0  0  0  0  0  0  0  0  0  0  0  0
  187.8070  178.2510  140.2240 C   0  0  1  0  0  3  0  0  0  0  0  0
  189.2790  178.3060  139.8490 C   0  0  0  0  0  1  0  0  0  0  0  0
  187.0460  177.4190  139.2010 C   0  0  0  0  0  2  0  0  0  0  0  0
  187.3020  179.2630  137.2530 O   0  0  0  0  0  0  0  0  0  0  0  0
  186.2600  178.4560  137.9760 S   0  0  0  0  0  0  0  0  0  0  0  0
  185.3060  179.3790  138.6790 O   0  0  0  0  0  0  0  0  0  0  0  0
  185.3930  177.4710  136.8290 N   0  0  0  0  0  0  0  0  0  0  0  0
  185.9940  177.1180  135.5690 C   0  0  0  0  0  0  0  0  0  0  0  0
  185.2690  176.7810  134.5940 O   0  0  0  0  0  0  0  0  0  0  0  0
  183.8160  175.6640  137.3150 C   0  0  0  0  0  2  0  0  0  0  0  0
  183.9840  177.1560  137.0770 C   0  0  0  0  0  3  0  0  0  0  0  0
  183.8050  176.6140  138.4860 C   0  0  0  0  0  2  0  0  0  0  0  0
  187.4800  177.0820  135.4040 C   0  0  0  0  0  2  0  0  0  0  0  0
  188.0310  175.7970  135.9200 C   0  0  0  0  0  0  0  0  0  0  0  0
  189.7080  174.5920  137.1890 C   0  0  0  0  0  3  0  0  0  0  0  0
  187.9500  173.3780  136.0490 C   0  0  0  0  0  3  0  0  0  0  0  0
  189.0930  173.3810  136.8530 C   0  0  0  0  0  3  0  0  0  0  0  0
  187.4200  174.5850  135.5810 C   0  0  0  0  0  3  0  0  0  0  0  0
  189.1790  175.7980  136.7220 C   0  0  0  0  0  3  0  0  0  0  0  0
  2  9  1  0  0  0  0
  2  7  1  0  0  0  0
  3 13  1  0  0  0  0
  4 12  1  0  0  0  0
  5 16  1  0  0  0  0
  5  9  2  0  0  0  0
  6  2  2  0  0  0  0
  8  5  1  0  0  0  0
 10  8  2  0  0  0  0
 10  6  1  0  0  0  0
 11 25  1  6  0  0  0
 11 15  1  0  0  0  0
 11  4  1  0  0  0  0
 12  3  2  0  0  0  0
 12  8  1  0  0  0  0
 13 16  2  0  0  0  0
 14  1  1  0  0  0  0
 14  3  1  0  0  0  0
 15 14  2  0  0  0  0
 17 18  1  0  0  0  0
 17 20  2  0  0  0  0
 18 24  1  6  0  0  0
 18 22  1  0  0  0  0
 20 21  1  0  0  0  0
 21 19  2  0  0  0  0
 21  1  1  0  0  0  0
 22 19  1  0  0  0  0
 24 23  1  0  0  0  0
 25 26  1  6  0  0  0
 27 25  1  0  0  0  0
 28 29  2  0  0  0  0
 29 30  2  0  0  0  0
 29 27  1  0  0  0  0
 31 35  1  0  0  0  0
 31 29  1  0  0  0  0
 32 31  1  0  0  0  0
 33 32  2  0  0  0  0
 34 36  1  0  0  0  0
 35 34  1  0  0  0  0
 35 36  1  0  0  0  0
 37 32  1  0  0  0  0
 37 38  1  0  0  0  0
 38 43  1  0  0  0  0
 40 41  2  0  0  0  0
 41 39  1  0  0  0  0
 42 38  2  0  0  0  0
 42 40  1  0  0  0  0
 43 39  2  0  0  0  0
M  END
>  <MODEL>
5

>  <REMARK>
 VINA RESULT:      -9.4      1.659      7.098
  Name = 
  9 active torsions:
  status: ('A' for Active; 'I' for Inactive)
    1  A    between atoms: N_1  and  C_35
    2  A    between atoms: C_2  and  C_6
    3  A    between atoms: C_2  and  C_27
    4  A    between atoms: N_4  and  S_12
    5  A    between atoms: N_4  and  C_15
    6  A    between atoms: C_6  and  S_12
    7  A    between atoms: C_11  and  C_14
    8  A    between atoms: C_14  and  C_22
    9  A    between atoms: C_19  and  O_37
                            x       y       z     vdW  Elec       q    Type
                         _______ _______ _______ _____ _____    ______ ____

>  <TORSDO>
F 9

$$$$
=
 OpenBabel11052416383D

 43 48  0  0  1  0  0  0  0  0999 V2000
  185.3110  178.3420  142.8670 N   0  0  0  0  0  2  0  0  0  0  0  0
  191.2460  176.7840  147.1880 C   0  0  0  0  0  0  0  0  0  0  0  0
  187.5050  177.6690  143.9040 C   0  0  0  0  0  0  0  0  0  0  0  0
  189.5270  177.8800  142.4320 C   0  0  0  0  0  2  0  0  0  0  0  0
  189.0790  177.1280  146.1630 C   0  0  0  0  0  0  0  0  0  0  0  0
  191.8670  176.9780  145.9510 C   0  0  0  0  0  3  0  0  0  0  0  0
  192.0130  176.5200  148.3140 O   0  0  0  0  0  1  0  0  0  0  0  0
  189.7000  177.3230  144.9050 C   0  0  0  0  0  0  0  0  0  0  0  0
  189.8550  176.8600  147.2940 C   0  0  0  0  0  3  0  0  0  0  0  0
  191.0990  177.2460  144.8150 C   0  0  0  0  0  3  0  0  0  0  0  0
  188.5940  177.4070  141.3080 C   0  0  1  0  0  3  0  0  0  0  0  0
  188.9070  177.5890  143.7730 C   0  0  0  0  0  0  0  0  0  0  0  0
  186.9080  177.4820  145.1570 C   0  0  0  0  0  3  0  0  0  0  0  0
  186.6830  177.9490  142.7070 C   0  0  0  0  0  0  0  0  0  0  0  0
  187.2210  177.8700  141.5240 N   0  0  0  0  0  0  0  0  0  0  0  0
  187.6900  177.2110  146.2790 C   0  0  0  0  0  3  0  0  0  0  0  0
  184.0010  179.3810  139.5090 C   0  0  0  0  0  3  0  0  0  0  0  0
  182.6020  178.8330  139.6150 C   0  0  1  0  0  3  0  0  0  0  0  0
  183.0790  178.5460  142.0520 C   0  0  0  0  0  3  0  0  0  0  0  0
  184.8410  179.2860  140.5430 C   0  0  0  0  0  3  0  0  0  0  0  0
  184.3880  178.7170  141.8350 C   0  0  0  0  0  0  0  0  0  0  0  0
  182.0620  179.0020  141.0390 C   0  0  0  0  0  2  0  0  0  0  0  0
  182.2080  180.8080  138.6980 C   0  0  0  0  0  1  0  0  0  0  0  0
  181.7660  179.4830  138.7060 O   0  0  0  0  0  0  0  0  0  0  0  0
  189.0820  177.8030  139.9130 C   0  0  1  0  0  3  0  0  0  0  0  0
  190.5560  177.4870  139.7180 C   0  0  0  0  0  1  0  0  0  0  0  0
  188.2640  177.1300  138.8190 C   0  0  0  0  0  2  0  0  0  0  0  0
  189.0260  179.3350  137.4700 O   0  0  0  0  0  0  0  0  0  0  0  0
  188.0130  178.2270  137.4290 S   0  0  0  0  0  0  0  0  0  0  0  0
  186.6290  178.8030  137.5260 O   0  0  0  0  0  0  0  0  0  0  0  0
  188.1820  177.3440  135.9350 N   0  0  0  0  0  0  0  0  0  0  0  0
  187.1900  176.3770  135.5440 C   0  0  0  0  0  0  0  0  0  0  0  0
  187.4830  175.4650  134.7240 O   0  0  0  0  0  0  0  0  0  0  0  0
  190.5570  176.7540  135.9030 C   0  0  0  0  0  2  0  0  0  0  0  0
  189.4260  177.4610  135.1720 C   0  0  0  0  0  3  0  0  0  0  0  0
  189.8990  176.0890  134.7190 C   0  0  0  0  0  2  0  0  0  0  0  0
  185.7840  176.4640  136.0470 C   0  0  0  0  0  2  0  0  0  0  0  0
  185.2880  175.1140  136.4410 C   0  0  0  0  0  0  0  0  0  0  0  0
  183.5270  173.4490  136.4610 C   0  0  0  0  0  3  0  0  0  0  0  0
  185.6220  173.0080  137.5930 C   0  0  0  0  0  3  0  0  0  0  0  0
  184.3390  172.6000  137.2210 C   0  0  0  0  0  3  0  0  0  0  0  0
  186.0960  174.2650  137.2050 C   0  0  0  0  0  3  0  0  0  0  0  0
  184.0000  174.7060  136.0730 C   0  0  0  0  0  3  0  0  0  0  0  0
  2  9  1  0  0  0  0
  2  7  1  0  0  0  0
  3 13  1  0  0  0  0
  4 12  1  0  0  0  0
  5 16  1  0  0  0  0
  5  9  2  0  0  0  0
  6  2  2  0  0  0  0
  8  5  1  0  0  0  0
 10  8  2  0  0  0  0
 10  6  1  0  0  0  0
 11 25  1  6  0  0  0
 11 15  1  0  0  0  0
 11  4  1  0  0  0  0
 12  3  2  0  0  0  0
 12  8  1  0  0  0  0
 13 16  2  0  0  0  0
 14  1  1  0  0  0  0
 14  3  1  0  0  0  0
 15 14  2  0  0  0  0
 17 18  1  0  0  0  0
 17 20  2  0  0  0  0
 18 24  1  6  0  0  0
 18 22  1  0  0  0  0
 20 21  1  0  0  0  0
 21 19  2  0  0  0  0
 21  1  1  0  0  0  0
 22 19  1  0  0  0  0
 23 24  1  0  0  0  0
 25 26  1  1  0  0  0
 27 25  1  0  0  0  0
 29 28  2  0  0  0  0
 29 30  2  0  0  0  0
 29 27  1  0  0  0  0
 31 29  1  0  0  0  0
 32 31  1  0  0  0  0
 32 37  1  0  0  0  0
 33 32  2  0  0  0  0
 35 34  1  0  0  0  0
 35 31  1  0  0  0  0
 36 35  1  0  0  0  0
 36 34  1  0  0  0  0
 37 38  1  0  0  0  0
 38 42  1  0  0  0  0
 39 41  2  0  0  0  0
 41 40  1  0  0  0  0
 42 40  2  0  0  0  0
 43 38  2  0  0  0  0
 43 39  1  0  0  0  0
M  END
>  <MODEL>
6

>  <REMARK>
 VINA RESULT:      -9.4      1.906      6.662
  Name = 
  9 active torsions:
  status: ('A' for Active; 'I' for Inactive)
    1  A    between atoms: N_1  and  C_35
    2  A    between atoms: C_2  and  C_6
    3  A    between atoms: C_2  and  C_27
    4  A    between atoms: N_4  and  S_12
    5  A    between atoms: N_4  and  C_15
    6  A    between atoms: C_6  and  S_12
    7  A    between atoms: C_11  and  C_14
    8  A    between atoms: C_14  and  C_22
    9  A    between atoms: C_19  and  O_37
                            x       y       z     vdW  Elec       q    Type
                         _______ _______ _______ _____ _____    ______ ____

>  <TORSDO>
F 9

$$$$
=
 OpenBabel11052416383D

 43 48  0  0  1  0  0  0  0  0999 V2000
  184.6770  178.3440  143.7630 N   0  0  0  0  0  2  0  0  0  0  0  0
  191.2650  176.8410  147.0290 C   0  0  0  0  0  0  0  0  0  0  0  0
  187.0330  177.7300  144.4110 C   0  0  0  0  0  0  0  0  0  0  0  0
  188.7950  178.1590  142.6770 C   0  0  0  0  0  2  0  0  0  0  0  0
  188.9540  177.1280  146.3640 C   0  0  0  0  0  0  0  0  0  0  0  0
  191.6810  177.1550  145.7320 C   0  0  0  0  0  3  0  0  0  0  0  0
  192.2050  176.5450  148.0060 O   0  0  0  0  0  1  0  0  0  0  0  0
  189.3670  177.4450  145.0470 C   0  0  0  0  0  0  0  0  0  0  0  0
  189.9040  176.8290  147.3450 C   0  0  0  0  0  3  0  0  0  0  0  0
  190.7380  177.4550  144.7460 C   0  0  0  0  0  3  0  0  0  0  0  0
  187.7270  177.7110  141.6700 C   0  0  1  0  0  3  0  0  0  0  0  0
  188.4000  177.7410  144.0680 C   0  0  0  0  0  0  0  0  0  0  0  0
  186.6410  177.4240  145.7190 C   0  0  0  0  0  3  0  0  0  0  0  0
  186.0260  178.0430  143.3730 C   0  0  0  0  0  0  0  0  0  0  0  0
  186.3820  178.0770  142.1210 N   0  0  0  0  0  0  0  0  0  0  0  0
  187.5960  177.1220  146.6900 C   0  0  0  0  0  3  0  0  0  0  0  0
  182.6980  179.0060  140.6450 C   0  0  0  0  0  3  0  0  0  0  0  0
  181.3080  178.8700  141.2080 C   0  0  1  0  0  3  0  0  0  0  0  0
  182.3910  178.9540  143.4590 C   0  0  0  0  0  3  0  0  0  0  0  0
  183.7620  178.9020  141.4470 C   0  0  0  0  0  3  0  0  0  0  0  0
  183.5920  178.7340  142.9100 C   0  0  0  0  0  0  0  0  0  0  0  0
  181.2400  179.4490  142.6260 C   0  0  0  0  0  2  0  0  0  0  0  0
  179.7560  180.4470  141.2100 C   0  0  0  0  0  1  0  0  0  0  0  0
  180.3940  179.5230  140.3800 O   0  0  0  0  0  0  0  0  0  0  0  0
  187.9780  178.2280  140.2520 C   0  0  1  0  0  3  0  0  0  0  0  0
  189.4310  178.6280  140.0440 C   0  0  0  0  0  1  0  0  0  0  0  0
  187.5710  177.2070  139.1990 C   0  0  0  0  0  2  0  0  0  0  0  0
  187.5320  179.0050  137.1920 O   0  0  0  0  0  0  0  0  0  0  0  0
  186.6660  177.9770  137.8630 S   0  0  0  0  0  0  0  0  0  0  0  0
  185.4480  178.6420  138.4400 O   0  0  0  0  0  0  0  0  0  0  0  0
  186.1850  176.7740  136.6970 N   0  0  0  0  0  0  0  0  0  0  0  0
  184.7920  176.4900  136.4740 C   0  0  0  0  0  0  0  0  0  0  0  0
  184.4420  175.3870  135.9740 O   0  0  0  0  0  0  0  0  0  0  0  0
  187.4270  176.3470  134.6320 C   0  0  0  0  0  2  0  0  0  0  0  0
  187.2090  175.9290  136.0780 C   0  0  0  0  0  3  0  0  0  0  0  0
  188.4190  176.7640  135.6890 C   0  0  0  0  0  2  0  0  0  0  0  0
  183.7370  177.5080  136.7710 C   0  0  0  0  0  2  0  0  0  0  0  0
  182.6560  176.9100  137.6050 C   0  0  0  0  0  0  0  0  0  0  0  0
  180.3000  176.6230  138.0940 C   0  0  0  0  0  3  0  0  0  0  0  0
  181.9650  175.5740  139.5040 C   0  0  0  0  0  3  0  0  0  0  0  0
  180.6260  175.8260  139.1970 C   0  0  0  0  0  3  0  0  0  0  0  0
  182.9800  176.1160  138.7100 C   0  0  0  0  0  3  0  0  0  0  0  0
  181.3140  177.1670  137.3000 C   0  0  0  0  0  3  0  0  0  0  0  0
  2  9  1  0  0  0  0
  2  7  1  0  0  0  0
  3 13  1  0  0  0  0
  4 12  1  0  0  0  0
  5 16  1  0  0  0  0
  5  9  2  0  0  0  0
  6  2  2  0  0  0  0
  8  5  1  0  0  0  0
 10  8  2  0  0  0  0
 10  6  1  0  0  0  0
 11 25  1  6  0  0  0
 11 15  1  0  0  0  0
 11  4  1  0  0  0  0
 12  3  2  0  0  0  0
 12  8  1  0  0  0  0
 13 16  2  0  0  0  0
 14  1  1  0  0  0  0
 14  3  1  0  0  0  0
 15 14  2  0  0  0  0
 17 18  1  0  0  0  0
 17 20  2  0  0  0  0
 18 24  1  6  0  0  0
 18 22  1  0  0  0  0
 20 21  1  0  0  0  0
 21 19  2  0  0  0  0
 21  1  1  0  0  0  0
 22 19  1  0  0  0  0
 24 23  1  0  0  0  0
 25 26  1  1  0  0  0
 27 25  1  0  0  0  0
 28 29  2  0  0  0  0
 29 30  2  0  0  0  0
 29 27  1  0  0  0  0
 31 29  1  0  0  0  0
 32 31  1  0  0  0  0
 32 37  1  0  0  0  0
 33 32  2  0  0  0  0
 34 36  1  0  0  0  0
 34 35  1  0  0  0  0
 35 31  1  0  0  0  0
 36 35  1  0  0  0  0
 37 38  1  0  0  0  0
 38 42  1  0  0  0  0
 39 41  2  0  0  0  0
 41 40  1  0  0  0  0
 42 40  2  0  0  0  0
 43 38  2  0  0  0  0
 43 39  1  0  0  0  0
M  END
>  <MODEL>
7

>  <REMARK>
 VINA RESULT:      -9.3      1.633      6.683
  Name = 
  9 active torsions:
  status: ('A' for Active; 'I' for Inactive)
    1  A    between atoms: N_1  and  C_35
    2  A    between atoms: C_2  and  C_6
    3  A    between atoms: C_2  and  C_27
    4  A    between atoms: N_4  and  S_12
    5  A    between atoms: N_4  and  C_15
    6  A    between atoms: C_6  and  S_12
    7  A    between atoms: C_11  and  C_14
    8  A    between atoms: C_14  and  C_22
    9  A    between atoms: C_19  and  O_37
                            x       y       z     vdW  Elec       q    Type
                         _______ _______ _______ _____ _____    ______ ____

>  <TORSDO>
F 9

$$$$
=
 OpenBabel11052416383D

 43 48  0  0  1  0  0  0  0  0999 V2000
  190.7850  175.9990  136.4000 N   0  0  0  0  0  2  0  0  0  0  0  0
  184.5540  178.9250  139.3920 C   0  0  0  0  0  0  0  0  0  0  0  0
  188.8950  176.8580  137.8270 C   0  0  0  0  0  0  0  0  0  0  0  0
  189.5320  177.7020  140.1030 C   0  0  0  0  0  2  0  0  0  0  0  0
  186.2710  177.8150  138.0930 C   0  0  0  0  0  0  0  0  0  0  0  0
  185.4540  179.0870  140.4490 C   0  0  0  0  0  3  0  0  0  0  0  0
  183.2550  179.3970  139.5090 O   0  0  0  0  0  1  0  0  0  0  0  0
  187.1880  177.9740  139.1610 C   0  0  0  0  0  0  0  0  0  0  0  0
  184.9630  178.2920  138.2160 C   0  0  0  0  0  3  0  0  0  0  0  0
  186.7640  178.6150  140.3360 C   0  0  0  0  0  3  0  0  0  0  0  0
  190.5390  176.5430  140.1060 C   0  0  1  0  0  3  0  0  0  0  0  0
  188.5020  177.4880  139.0260 C   0  0  0  0  0  0  0  0  0  0  0  0
  187.9790  176.7170  136.7780 C   0  0  0  0  0  3  0  0  0  0  0  0
  190.2780  176.3510  137.6970 C   0  0  0  0  0  0  0  0  0  0  0  0
  191.0330  176.2620  138.7550 N   0  0  0  0  0  0  0  0  0  0  0  0
  186.6740  177.1910  136.9110 C   0  0  0  0  0  3  0  0  0  0  0  0
  194.5320  175.8540  136.3040 C   0  0  0  0  0  3  0  0  0  0  0  0
  194.7090  174.3880  136.0070 C   0  0  1  0  0  3  0  0  0  0  0  0
  192.2650  174.3690  135.4840 C   0  0  0  0  0  3  0  0  0  0  0  0
  193.3070  176.3830  136.3710 C   0  0  0  0  0  3  0  0  0  0  0  0
  192.1110  175.5600  136.0750 C   0  0  0  0  0  0  0  0  0  0  0  0
  193.6240  173.8960  135.0420 C   0  0  0  0  0  2  0  0  0  0  0  0
  196.7510  175.2360  135.9000 C   0  0  0  0  0  1  0  0  0  0  0  0
  195.9730  174.1620  135.4600 O   0  0  0  0  0  0  0  0  0  0  0  0
  191.7070  176.7600  141.0710 C   0  0  1  0  0  3  0  0  0  0  0  0
  192.8030  177.6120  140.4510 C   0  0  0  0  0  1  0  0  0  0  0  0
  191.2470  177.3880  142.3790 C   0  0  0  0  0  2  0  0  0  0  0  0
  192.0560  175.2630  143.8260 O   0  0  0  0  0  0  0  0  0  0  0  0
  190.8560  176.1390  143.5970 S   0  0  0  0  0  0  0  0  0  0  0  0
  189.7180  175.3090  143.0730 O   0  0  0  0  0  0  0  0  0  0  0  0
  190.3950  176.8930  145.0990 N   0  0  0  0  0  0  0  0  0  0  0  0
  189.0740  177.4400  145.2650 C   0  0  0  0  0  0  0  0  0  0  0  0
  188.8580  178.3220  146.1400 O   0  0  0  0  0  0  0  0  0  0  0  0
  191.0120  176.4520  147.4260 C   0  0  0  0  0  2  0  0  0  0  0  0
  191.4140  177.1280  146.1240 C   0  0  0  0  0  3  0  0  0  0  0  0
  192.0550  175.8140  146.5420 C   0  0  0  0  0  2  0  0  0  0  0  0
  187.9210  176.9380  144.4550 C   0  0  0  0  0  2  0  0  0  0  0  0
  186.6620  177.6270  144.8570 C   0  0  0  0  0  0  0  0  0  0  0  0
  185.0700  178.2530  146.5740 C   0  0  0  0  0  3  0  0  0  0  0  0
  184.6740  178.8810  144.2690 C   0  0  0  0  0  3  0  0  0  0  0  0
  184.2760  178.8820  145.6090 C   0  0  0  0  0  3  0  0  0  0  0  0
  185.8650  178.2530  143.8930 C   0  0  0  0  0  3  0  0  0  0  0  0
  186.2610  177.6240  146.1990 C   0  0  0  0  0  3  0  0  0  0  0  0
  1 14  1  0  0  0  0
  2  7  1  0  0  0  0
  2  6  1  0  0  0  0
  3 12  1  0  0  0  0
  4 11  1  0  0  0  0
  5  9  1  0  0  0  0
  5  8  1  0  0  0  0
  8 10  1  0  0  0  0
  9  2  2  0  0  0  0
 10  6  2  0  0  0  0
 11 25  1  1  0  0  0
 12  8  2  0  0  0  0
 12  4  1  0  0  0  0
 13 16  1  0  0  0  0
 13  3  2  0  0  0  0
 14  3  1  0  0  0  0
 14 15  2  0  0  0  0
 15 11  1  0  0  0  0
 16  5  2  0  0  0  0
 17 20  2  0  0  0  0
 18 24  1  6  0  0  0
 18 17  1  0  0  0  0
 19 21  2  0  0  0  0
 21 20  1  0  0  0  0
 21  1  1  0  0  0  0
 22 19  1  0  0  0  0
 22 18  1  0  0  0  0
 24 23  1  0  0  0  0
 25 26  1  6  0  0  0
 25 27  1  0  0  0  0
 27 29  1  0  0  0  0
 29 28  2  0  0  0  0
 29 31  1  0  0  0  0
 30 29  2  0  0  0  0
 31 32  1  0  0  0  0
 31 35  1  0  0  0  0
 32 33  2  0  0  0  0
 35 36  1  0  0  0  0
 35 34  1  0  0  0  0
 36 34  1  0  0  0  0
 37 38  1  0  0  0  0
 37 32  1  0  0  0  0
 38 43  1  0  0  0  0
 40 41  2  0  0  0  0
 41 39  1  0  0  0  0
 42 40  1  0  0  0  0
 42 38  2  0  0  0  0
 43 39  2  0  0  0  0
M  END
>  <MODEL>
8

>  <REMARK>
 VINA RESULT:      -9.3      2.893      8.564
  Name = 
  9 active torsions:
  status: ('A' for Active; 'I' for Inactive)
    1  A    between atoms: N_1  and  C_35
    2  A    between atoms: C_2  and  C_6
    3  A    between atoms: C_2  and  C_27
    4  A    between atoms: N_4  and  S_12
    5  A    between atoms: N_4  and  C_15
    6  A    between atoms: C_6  and  S_12
    7  A    between atoms: C_11  and  C_14
    8  A    between atoms: C_14  and  C_22
    9  A    between atoms: C_19  and  O_37
                            x       y       z     vdW  Elec       q    Type
                         _______ _______ _______ _____ _____    ______ ____

>  <TORSDO>
F 9

$$$$
=
 OpenBabel11052416383D

 43 48  0  0  1  0  0  0  0  0999 V2000
  188.8110  177.8590  140.1720 N   0  0  0  0  0  2  0  0  0  0  0  0
  188.9300  177.7610  147.6760 C   0  0  0  0  0  0  0  0  0  0  0  0
  188.4140  178.0310  142.6540 C   0  0  0  0  0  0  0  0  0  0  0  0
  186.0220  177.8750  143.3970 C   0  0  0  0  0  2  0  0  0  0  0  0
  189.3510  177.9030  145.2950 C   0  0  0  0  0  0  0  0  0  0  0  0
  187.5530  177.7480  147.4360 C   0  0  0  0  0  3  0  0  0  0  0  0
  189.4070  177.6950  148.9780 O   0  0  0  0  0  1  0  0  0  0  0  0
  187.9570  177.8920  145.0430 C   0  0  0  0  0  0  0  0  0  0  0  0
  189.8270  177.8380  146.6080 C   0  0  0  0  0  3  0  0  0  0  0  0
  187.0680  177.8130  146.1270 C   0  0  0  0  0  3  0  0  0  0  0  0
  185.7130  178.6770  142.1260 C   0  0  1  0  0  3  0  0  0  0  0  0
  187.4900  177.9620  143.7170 C   0  0  0  0  0  0  0  0  0  0  0  0
  189.7880  178.0320  142.9200 C   0  0  0  0  0  3  0  0  0  0  0  0
  187.9110  178.1040  141.2650 C   0  0  0  0  0  0  0  0  0  0  0  0
  186.6520  178.3540  141.0490 N   0  0  0  0  0  0  0  0  0  0  0  0
  190.2540  177.9710  144.2330 C   0  0  0  0  0  3  0  0  0  0  0  0
  187.1670  176.8510  136.9540 C   0  0  0  0  0  3  0  0  0  0  0  0
  187.3600  178.1260  136.1750 C   0  0  1  0  0  3  0  0  0  0  0  0
  188.9530  178.7930  137.9820 C   0  0  0  0  0  3  0  0  0  0  0  0
  187.6690  176.7340  138.1870 C   0  0  0  0  0  3  0  0  0  0  0  0
  188.4910  177.8190  138.7750 C   0  0  0  0  0  0  0  0  0  0  0  0
  188.7210  178.7540  136.4950 C   0  0  0  0  0  2  0  0  0  0  0  0
  186.0620  177.1690  134.6590 C   0  0  0  0  0  1  0  0  0  0  0  0
  187.2630  177.8660  134.8080 O   0  0  0  0  0  0  0  0  0  0  0  0
  184.2680  178.5160  141.6460 C   0  0  1  0  0  3  0  0  0  0  0  0
  183.2680  178.9370  142.7120 C   0  0  0  0  0  1  0  0  0  0  0  0
  184.0100  179.2960  140.3640 C   0  0  0  0  0  2  0  0  0  0  0  0
  182.9540  176.9080  139.6960 O   0  0  0  0  0  0  0  0  0  0  0  0
  183.1190  178.3060  139.1710 S   0  0  0  0  0  0  0  0  0  0  0  0
  183.9130  178.2750  137.8960 O   0  0  0  0  0  0  0  0  0  0  0  0
  181.5490  179.0010  138.8730 N   0  0  0  0  0  0  0  0  0  0  0  0
  180.3610  178.3640  139.3790 C   0  0  0  0  0  0  0  0  0  0  0  0
  179.2420  178.5980  138.8490 O   0  0  0  0  0  0  0  0  0  0  0  0
  180.8110  181.3260  138.6720 C   0  0  0  0  0  2  0  0  0  0  0  0
  181.4320  180.1370  137.9560 C   0  0  0  0  0  3  0  0  0  0  0  0
  182.3000  181.2910  138.4300 C   0  0  0  0  0  2  0  0  0  0  0  0
  180.4140  177.4640  140.5730 C   0  0  0  0  0  2  0  0  0  0  0  0
  180.0290  178.2100  141.8040 C   0  0  0  0  0  0  0  0  0  0  0  0
  179.6710  178.2600  144.2010 C   0  0  0  0  0  3  0  0  0  0  0  0
  179.2350  180.2360  142.8710 C   0  0  0  0  0  3  0  0  0  0  0  0
  179.2630  179.5950  144.1120 C   0  0  0  0  0  3  0  0  0  0  0  0
  179.6170  179.5440  141.7170 C   0  0  0  0  0  3  0  0  0  0  0  0
  180.0520  177.5670  143.0480 C   0  0  0  0  0  3  0  0  0  0  0  0
  1 14  1  0  0  0  0
  2  7  1  0  0  0  0
  3 13  2  0  0  0  0
  3 12  1  0  0  0  0
  4 12  1  0  0  0  0
  5  9  1  0  0  0  0
  6  2  1  0  0  0  0
  8  5  1  0  0  0  0
  8 10  1  0  0  0  0
  9  2  2  0  0  0  0
 10  6  2  0  0  0  0
 11 25  1  6  0  0  0
 11  4  1  0  0  0  0
 12  8  2  0  0  0  0
 13 16  1  0  0  0  0
 14  3  1  0  0  0  0
 15 14  2  0  0  0  0
 15 11  1  0  0  0  0
 16  5  2  0  0  0  0
 17 20  2  0  0  0  0
 18 24  1  6  0  0  0
 18 22  1  0  0  0  0
 18 17  1  0  0  0  0
 19 21  2  0  0  0  0
 20 21  1  0  0  0  0
 21  1  1  0  0  0  0
 22 19  1  0  0  0  0
 23 24  1  0  0  0  0
 25 26  1  1  0  0  0
 27 25  1  0  0  0  0
 29 28  2  0  0  0  0
 29 27  1  0  0  0  0
 30 29  2  0  0  0  0
 31 29  1  0  0  0  0
 31 32  1  0  0  0  0
 32 37  1  0  0  0  0
 33 32  2  0  0  0  0
 35 36  1  0  0  0  0
 35 34  1  0  0  0  0
 35 31  1  0  0  0  0
 36 34  1  0  0  0  0
 37 38  1  0  0  0  0
 38 43  1  0  0  0  0
 40 41  2  0  0  0  0
 41 39  1  0  0  0  0
 42 38  2  0  0  0  0
 42 40  1  0  0  0  0
 43 39  2  0  0  0  0
M  END
>  <MODEL>
9

>  <REMARK>
 VINA RESULT:      -9.2      2.504      8.192
  Name = 
  9 active torsions:
  status: ('A' for Active; 'I' for Inactive)
    1  A    between atoms: N_1  and  C_35
    2  A    between atoms: C_2  and  C_6
    3  A    between atoms: C_2  and  C_27
    4  A    between atoms: N_4  and  S_12
    5  A    between atoms: N_4  and  C_15
    6  A    between atoms: C_6  and  S_12
    7  A    between atoms: C_11  and  C_14
    8  A    between atoms: C_14  and  C_22
    9  A    between atoms: C_19  and  O_37
                            x       y       z     vdW  Elec       q    Type
                         _______ _______ _______ _____ _____    ______ ____

>  <TORSDO>
F 9

$$$$
