=
 OpenBabel11052414313D

 32 36  0  0  1  0  0  0  0  0999 V2000
  184.2830  172.4930  136.8070 C   0  0  1  0  0  3  0  0  0  0  0  0
  182.6960  177.2820  139.8450 C   0  0  0  0  0  3  0  0  0  0  0  0
  184.3380  173.5030  137.7980 O   0  0  0  0  0  0  0  0  0  0  0  0
  182.2450  173.7470  135.9610 N   0  0  0  0  0  0  0  0  0  0  0  0
  183.6760  177.1800  134.7740 C   0  0  0  0  0  2  0  0  0  0  0  0
  184.9760  174.6460  137.2860 C   0  0  0  0  0  2  0  0  0  0  0  0
  182.2130  177.2870  136.7900 C   0  0  0  0  0  2  0  0  0  0  0  0
  182.9800  176.1590  137.5360 C   0  0  1  0  0  0  0  0  0  0  0  0
  181.5540  173.8340  137.2530 C   0  0  2  0  0  3  0  0  0  0  0  0
  183.0170  179.6110  139.0840 C   0  0  0  0  0  2  0  0  0  0  0  0
  184.6690  177.8680  138.4220 C   0  0  0  0  0  0  0  0  0  0  0  0
  180.6420  175.0420  137.3560 C   0  0  0  0  0  2  0  0  0  0  0  0
  183.0490  172.5090  135.8840 C   0  0  2  0  0  3  0  0  0  0  0  0
  182.4000  178.5800  139.9950 C   0  0  0  0  0  0  0  0  0  0  0  0
  184.3580  179.1710  138.5520 C   0  0  0  0  0  3  0  0  0  0  0  0
  183.6630  176.7980  138.7820 C   0  0  1  0  0  3  0  0  0  0  0  0
  181.9790  175.0690  138.0860 C   0  0  2  0  0  3  0  0  0  0  0  0
  185.7260  177.4310  136.2240 C   0  0  0  0  0  2  0  0  0  0  0  0
  181.2710  173.7180  134.8740 C   0  0  0  0  0  1  0  0  0  0  0  0
  185.9240  177.4270  137.7360 C   0  0  1  0  0  3  0  0  0  0  0  0
  184.0090  175.5410  136.6400 N   0  0  1  0  0  0  0  0  0  0  0  0
  182.2280  171.2360  136.1120 C   0  0  0  0  0  1  0  0  0  0  0  0
  182.2410  177.0880  135.2830 C   0  0  0  0  0  2  0  0  0  0  0  0
  184.6750  176.4430  135.6720 C   0  0  1  0  0  3  0  0  0  0  0  0
  181.5120  178.6200  142.2030 O   0  0  0  0  0  1  0  0  0  0  0  0
  180.3640  179.8360  140.6400 O   0  0  0  0  0  0  0  0  0  0  0  0
  181.4180  179.0070  141.0050 C   0  0  0  0  0  0  0  0  0  0  0  0
  185.6010  172.1660  136.0970 C   0  0  0  0  0  2  0  0  0  0  0  0
  185.4090  172.2470  134.5940 C   0  0  0  0  0  1  0  0  0  0  0  0
  187.1380  178.2510  138.1380 C   0  0  0  0  0  2  0  0  0  0  0  0
  187.5870  178.9940  137.0480 O   0  0  0  0  0  0  0  0  0  0  0  0
  188.9770  178.9910  137.1720 C   0  0  0  0  0  1  0  0  0  0  0  0
  1 28  1  6  0  0  0
  1  3  1  0  0  0  0
  2 14  2  0  0  0  0
  4  9  1  0  0  0  0
  5 23  1  0  0  0  0
  6  3  1  0  0  0  0
  8  7  1  6  0  0  0
  8 17  1  0  0  0  0
  8 16  1  0  0  0  0
  9 12  1  6  0  0  0
  9 17  1  0  0  0  0
 10 14  1  0  0  0  0
 11 15  2  0  0  0  0
 11 16  1  0  0  0  0
 13  4  1  0  0  0  0
 13 22  1  1  0  0  0
 13  1  1  0  0  0  0
 14 27  1  0  0  0  0
 15 10  1  0  0  0  0
 16  2  1  1  0  0  0
 17 12  1  6  0  0  0
 18 20  1  0  0  0  0
 19  4  1  0  0  0  0
 20 30  1  6  0  0  0
 20 11  1  0  0  0  0
 21  6  1  1  0  0  0
 21  8  1  0  0  0  0
 23  7  1  0  0  0  0
 24  5  1  1  0  0  0
 24 18  1  0  0  0  0
 24 21  1  0  0  0  0
 26 27  2  0  0  0  0
 27 25  1  0  0  0  0
 29 28  1  0  0  0  0
 31 32  1  0  0  0  0
 31 30  1  0  0  0  0
M  END
>  <MODEL>
1

>  <REMARK>
 VINA RESULT:      -5.3      0.000      0.000
  Name = 
  4 active torsions:
  status: ('A' for Active; 'I' for Inactive)
    1  A    between atoms: C_1  and  O_4
    2  A    between atoms: C_1  and  C_27
    3  A    between atoms: C_2  and  C_14
    4  A    between atoms: C_19  and  C_26
                            x       y       z     vdW  Elec       q    Type
                         _______ _______ _______ _____ _____    ______ ____

>  <TORSDO>
F 4

$$$$
=
 OpenBabel11052414313D

 32 36  0  0  1  0  0  0  0  0999 V2000
  191.7790  176.3740  139.3420 C   0  0  1  0  0  3  0  0  0  0  0  0
  187.0250  173.8610  136.9400 C   0  0  0  0  0  3  0  0  0  0  0  0
  190.4680  175.8470  139.2580 O   0  0  0  0  0  0  0  0  0  0  0  0
  191.9110  175.8390  136.8650 N   0  0  0  0  0  0  0  0  0  0  0  0
  189.2570  178.2010  135.2470 C   0  0  0  0  0  2  0  0  0  0  0  0
  189.5840  176.8260  138.7720 C   0  0  0  0  0  2  0  0  0  0  0  0
  188.6930  175.7740  135.1730 C   0  0  0  0  0  2  0  0  0  0  0  0
  188.9560  175.5590  136.6890 C   0  0  1  0  0  0  0  0  0  0  0  0
  191.4490  174.4490  136.9690 C   0  0  2  0  0  3  0  0  0  0  0  0
  185.4310  175.0000  135.4350 C   0  0  0  0  0  2  0  0  0  0  0  0
  186.5670  176.3040  137.2290 C   0  0  0  0  0  0  0  0  0  0  0  0
  190.7550  173.9610  135.7110 C   0  0  0  0  0  2  0  0  0  0  0  0
  192.6530  176.2320  138.0800 C   0  0  2  0  0  3  0  0  0  0  0  0
  186.0200  173.7610  136.0590 C   0  0  0  0  0  0  0  0  0  0  0  0
  185.5730  176.2100  136.3250 C   0  0  0  0  0  3  0  0  0  0  0  0
  187.5940  175.2030  137.3580 C   0  0  1  0  0  3  0  0  0  0  0  0
  189.9060  174.3190  136.9240 C   0  0  2  0  0  3  0  0  0  0  0  0
  187.6240  178.5420  137.1420 C   0  0  0  0  0  2  0  0  0  0  0  0
  192.8110  175.9820  135.7230 C   0  0  0  0  0  1  0  0  0  0  0  0
  186.8150  177.5670  137.9900 C   0  0  1  0  0  3  0  0  0  0  0  0
  189.5280  176.7980  137.3060 N   0  0  1  0  0  0  0  0  0  0  0  0
  193.8440  175.3180  138.3870 C   0  0  0  0  0  1  0  0  0  0  0  0
  189.5830  176.8630  134.5940 C   0  0  0  0  0  2  0  0  0  0  0  0
  189.0520  178.0910  136.7620 C   0  0  1  0  0  3  0  0  0  0  0  0
  186.1630  171.7520  134.7920 O   0  0  0  0  0  0  0  0  0  0  0  0
  184.3430  171.9400  136.1670 O   0  0  0  0  0  1  0  0  0  0  0  0
  185.5280  172.4390  135.6400 C   0  0  0  0  0  0  0  0  0  0  0  0
  191.9270  177.7160  140.0670 C   0  0  0  0  0  2  0  0  0  0  0  0
  191.7830  177.5110  141.5630 C   0  0  0  0  0  1  0  0  0  0  0  0
  185.5350  178.2110  138.5020 C   0  0  0  0  0  2  0  0  0  0  0  0
  185.8080  178.9660  139.6420 O   0  0  0  0  0  0  0  0  0  0  0  0
  184.6130  178.9560  140.3620 C   0  0  0  0  0  1  0  0  0  0  0  0
  1 28  1  6  0  0  0
  3  1  1  0  0  0  0
  4  9  1  0  0  0  0
  4 13  1  0  0  0  0
  6  3  1  0  0  0  0
  8  7  1  6  0  0  0
  8 17  1  0  0  0  0
  8 21  1  0  0  0  0
  8 16  1  0  0  0  0
  9 12  1  6  0  0  0
 10 14  1  0  0  0  0
 10 15  1  0  0  0  0
 11 16  1  0  0  0  0
 11 20  1  0  0  0  0
 13 22  1  1  0  0  0
 13  1  1  0  0  0  0
 14  2  2  0  0  0  0
 15 11  2  0  0  0  0
 16  2  1  6  0  0  0
 17 12  1  6  0  0  0
 17  9  1  0  0  0  0
 18 20  1  0  0  0  0
 19  4  1  0  0  0  0
 20 30  1  6  0  0  0
 21  6  1  1  0  0  0
 23  7  1  0  0  0  0
 23  5  1  0  0  0  0
 24  5  1  6  0  0  0
 24 18  1  0  0  0  0
 24 21  1  0  0  0  0
 25 27  2  0  0  0  0
 27 14  1  0  0  0  0
 27 26  1  0  0  0  0
 28 29  1  0  0  0  0
 30 31  1  0  0  0  0
 31 32  1  0  0  0  0
M  END
>  <MODEL>
2

>  <REMARK>
 VINA RESULT:      -5.2      3.785      7.682
  Name = 
  4 active torsions:
  status: ('A' for Active; 'I' for Inactive)
    1  A    between atoms: C_1  and  O_4
    2  A    between atoms: C_1  and  C_27
    3  A    between atoms: C_2  and  C_14
    4  A    between atoms: C_19  and  C_26
                            x       y       z     vdW  Elec       q    Type
                         _______ _______ _______ _____ _____    ______ ____

>  <TORSDO>
F 4

$$$$
=
 OpenBabel11052414313D

 32 36  0  0  1  0  0  0  0  0999 V2000
  183.8040  178.8510  142.4500 C   0  0  1  0  0  3  0  0  0  0  0  0
  181.4070  180.0840  137.2140 C   0  0  0  0  0  3  0  0  0  0  0  0
  183.7360  179.2500  141.0930 O   0  0  0  0  0  0  0  0  0  0  0  0
  181.3100  178.4440  142.2230 N   0  0  0  0  0  0  0  0  0  0  0  0
  181.0610  175.5330  139.6330 C   0  0  0  0  0  2  0  0  0  0  0  0
  183.7700  178.1210  140.2560 C   0  0  0  0  0  2  0  0  0  0  0  0
  180.2100  177.7340  138.8300 C   0  0  0  0  0  2  0  0  0  0  0  0
  181.4920  178.5040  139.2560 C   0  0  1  0  0  0  0  0  0  0  0  0
  180.9790  179.7520  141.6430 C   0  0  2  0  0  3  0  0  0  0  0  0
  180.6670  178.4000  135.5650 C   0  0  0  0  0  2  0  0  0  0  0  0
  182.6150  177.9000  137.0350 C   0  0  0  0  0  0  0  0  0  0  0  0
  179.7490  179.7110  140.7560 C   0  0  0  0  0  2  0  0  0  0  0  0
  182.4590  178.5600  143.1440 C   0  0  2  0  0  3  0  0  0  0  0  0
  180.7110  179.8070  136.1030 C   0  0  0  0  0  0  0  0  0  0  0  0
  181.8970  177.6100  135.9330 C   0  0  0  0  0  3  0  0  0  0  0  0
  182.1860  179.0180  137.9580 C   0  0  1  0  0  3  0  0  0  0  0  0
  181.1230  179.7860  140.1010 C   0  0  2  0  0  3  0  0  0  0  0  0
  183.1750  175.8370  138.2880 C   0  0  0  0  0  2  0  0  0  0  0  0
  180.1730  177.9330  142.9850 C   0  0  0  0  0  1  0  0  0  0  0  0
  183.7300  177.0170  137.4980 C   0  0  1  0  0  3  0  0  0  0  0  0
  182.4170  177.6060  140.0180 N   0  0  1  0  0  0  0  0  0  0  0  0
  182.2370  179.5770  144.2680 C   0  0  0  0  0  1  0  0  0  0  0  0
  179.9320  176.5520  139.7440 C   0  0  0  0  0  2  0  0  0  0  0  0
  182.4490  176.1830  139.6070 C   0  0  1  0  0  3  0  0  0  0  0  0
  179.0290  180.5620  134.5980 O   0  0  0  0  0  0  0  0  0  0  0  0
  180.1770  182.1960  135.7160 O   0  0  0  0  0  1  0  0  0  0  0  0
  179.9250  180.8580  135.4360 C   0  0  0  0  0  0  0  0  0  0  0  0
  184.9290  177.8780  142.8160 C   0  0  0  0  0  2  0  0  0  0  0  0
  185.6180  178.3410  144.0860 C   0  0  0  0  0  1  0  0  0  0  0  0
  184.6250  176.5490  136.3590 C   0  0  0  0  0  2  0  0  0  0  0  0
  185.6190  177.4960  136.1180 O   0  0  0  0  0  0  0  0  0  0  0  0
  186.3710  177.5200  137.2920 C   0  0  0  0  0  1  0  0  0  0  0  0
  1 28  1  6  0  0  0
  1 13  1  0  0  0  0
  3  1  1  0  0  0  0
  4 19  1  0  0  0  0
  4 13  1  0  0  0  0
  5 23  1  0  0  0  0
  6  3  1  0  0  0  0
  7 23  1  0  0  0  0
  8  7  1  6  0  0  0
  8 21  1  0  0  0  0
  8 17  1  0  0  0  0
  9 12  1  6  0  0  0
  9  4  1  0  0  0  0
 10 15  1  0  0  0  0
 10 14  1  0  0  0  0
 11 20  1  0  0  0  0
 11 16  1  0  0  0  0
 13 22  1  1  0  0  0
 14  2  2  0  0  0  0
 15 11  2  0  0  0  0
 16  2  1  6  0  0  0
 16  8  1  0  0  0  0
 17 12  1  6  0  0  0
 17  9  1  0  0  0  0
 20 30  1  6  0  0  0
 20 18  1  0  0  0  0
 21  6  1  6  0  0  0
 24 18  1  6  0  0  0
 24  5  1  0  0  0  0
 24 21  1  0  0  0  0
 25 27  2  0  0  0  0
 27 26  1  0  0  0  0
 27 14  1  0  0  0  0
 28 29  1  0  0  0  0
 31 30  1  0  0  0  0
 31 32  1  0  0  0  0
M  END
>  <MODEL>
3

>  <REMARK>
 VINA RESULT:      -4.9      3.040      6.162
  Name = 
  4 active torsions:
  status: ('A' for Active; 'I' for Inactive)
    1  A    between atoms: C_1  and  O_4
    2  A    between atoms: C_1  and  C_27
    3  A    between atoms: C_2  and  C_14
    4  A    between atoms: C_19  and  C_26
                            x       y       z     vdW  Elec       q    Type
                         _______ _______ _______ _____ _____    ______ ____

>  <TORSDO>
F 4

$$$$
=
 OpenBabel11052414313D

 32 36  0  0  1  0  0  0  0  0999 V2000
  180.1900  175.7710  140.3150 C   0  0  1  0  0  3  0  0  0  0  0  0
  185.1150  177.0080  137.3310 C   0  0  0  0  0  3  0  0  0  0  0  0
  181.5010  175.6010  139.8070 O   0  0  0  0  0  0  0  0  0  0  0  0
  180.1800  177.9100  138.9500 N   0  0  0  0  0  0  0  0  0  0  0  0
  180.3970  176.6730  135.2540 C   0  0  0  0  0  2  0  0  0  0  0  0
  181.4510  175.0430  138.5180 C   0  0  0  0  0  2  0  0  0  0  0  0
  182.4190  177.8720  136.0850 C   0  0  0  0  0  2  0  0  0  0  0  0
  182.5320  177.0060  137.3720 C   0  0  1  0  0  0  0  0  0  0  0  0
  181.4570  178.4350  139.4510 C   0  0  2  0  0  3  0  0  0  0  0  0
  185.3740  176.8070  134.8830 C   0  0  0  0  0  2  0  0  0  0  0  0
  183.8620  175.2360  136.0870 C   0  0  0  0  0  0  0  0  0  0  0  0
  182.1570  179.3370  138.4540 C   0  0  0  0  0  2  0  0  0  0  0  0
  179.5020  177.1110  139.9920 C   0  0  2  0  0  3  0  0  0  0  0  0
  185.8290  177.2950  136.2340 C   0  0  0  0  0  0  0  0  0  0  0  0
  184.5620  175.5400  134.9770 C   0  0  0  0  0  3  0  0  0  0  0  0
  183.8480  176.1780  137.2690 C   0  0  1  0  0  3  0  0  0  0  0  0
  182.6800  177.9200  138.6520 C   0  0  2  0  0  3  0  0  0  0  0  0
  181.5830  174.4590  135.5040 C   0  0  0  0  0  2  0  0  0  0  0  0
  179.2960  179.0140  138.5840 C   0  0  0  0  0  1  0  0  0  0  0  0
  182.9210  174.0730  136.1250 C   0  0  1  0  0  3  0  0  0  0  0  0
  181.3520  176.0920  137.4970 N   0  0  1  0  0  0  0  0  0  0  0  0
  179.2620  177.8850  141.2920 C   0  0  0  0  0  1  0  0  0  0  0  0
  180.9750  178.0320  135.6370 C   0  0  0  0  0  2  0  0  0  0  0  0
  180.7860  175.5620  136.2350 C   0  0  1  0  0  3  0  0  0  0  0  0
  187.0910  179.0810  137.1740 O   0  0  0  0  0  1  0  0  0  0  0  0
  188.0970  177.9340  135.4670 O   0  0  0  0  0  0  0  0  0  0  0  0
  187.0260  178.1460  136.3270 C   0  0  0  0  0  0  0  0  0  0  0  0
  179.2680  174.5500  140.2350 C   0  0  0  0  0  2  0  0  0  0  0  0
  179.3390  173.7650  141.5310 C   0  0  0  0  0  1  0  0  0  0  0  0
  183.4960  172.8260  135.4700 C   0  0  0  0  0  2  0  0  0  0  0  0
  184.1510  172.0490  136.4240 O   0  0  0  0  0  0  0  0  0  0  0  0
  183.1720  171.1720  136.8920 C   0  0  0  0  0  1  0  0  0  0  0  0
  1 28  1  6  0  0  0
  3  1  1  0  0  0  0
  4  9  1  0  0  0  0
  4 13  1  0  0  0  0
  5 23  1  0  0  0  0
  6  3  1  0  0  0  0
  8  7  1  6  0  0  0
  8 21  1  0  0  0  0
  8 17  1  0  0  0  0
  9 12  1  6  0  0  0
 10 15  1  0  0  0  0
 10 14  1  0  0  0  0
 11 20  1  0  0  0  0
 11 16  1  0  0  0  0
 13  1  1  0  0  0  0
 13 22  1  1  0  0  0
 14 27  1  0  0  0  0
 14  2  2  0  0  0  0
 15 11  2  0  0  0  0
 16  2  1  6  0  0  0
 16  8  1  0  0  0  0
 17 12  1  6  0  0  0
 17  9  1  0  0  0  0
 18 20  1  0  0  0  0
 18 24  1  0  0  0  0
 19  4  1  0  0  0  0
 20 30  1  6  0  0  0
 21  6  1  1  0  0  0
 23  7  1  0  0  0  0
 24  5  1  6  0  0  0
 24 21  1  0  0  0  0
 26 27  2  0  0  0  0
 27 25  1  0  0  0  0
 28 29  1  0  0  0  0
 30 31  1  0  0  0  0
 31 32  1  0  0  0  0
M  END
>  <MODEL>
4

>  <REMARK>
 VINA RESULT:      -4.7      2.160      5.842
  Name = 
  4 active torsions:
  status: ('A' for Active; 'I' for Inactive)
    1  A    between atoms: C_1  and  O_4
    2  A    between atoms: C_1  and  C_27
    3  A    between atoms: C_2  and  C_14
    4  A    between atoms: C_19  and  C_26
                            x       y       z     vdW  Elec       q    Type
                         _______ _______ _______ _____ _____    ______ ____

>  <TORSDO>
F 4

$$$$
=
 OpenBabel11052414313D

 32 36  0  0  1  0  0  0  0  0999 V2000
  186.1200  173.9470  135.7210 C   0  0  1  0  0  3  0  0  0  0  0  0
  189.6860  176.3540  139.7440 C   0  0  0  0  0  3  0  0  0  0  0  0
  187.0610  174.0120  136.7780 O   0  0  0  0  0  0  0  0  0  0  0  0
  186.2660  176.4800  135.7340 N   0  0  0  0  0  0  0  0  0  0  0  0
  189.9440  177.2200  134.6570 C   0  0  0  0  0  2  0  0  0  0  0  0
  188.3580  174.1640  136.2600 C   0  0  0  0  0  2  0  0  0  0  0  0
  189.4020  177.7950  137.0220 C   0  0  0  0  0  2  0  0  0  0  0  0
  188.7750  176.4060  137.3260 C   0  0  1  0  0  0  0  0  0  0  0  0
  186.0480  176.6530  137.1760 C   0  0  2  0  0  3  0  0  0  0  0  0
  191.8810  177.3790  139.2560 C   0  0  0  0  0  2  0  0  0  0  0  0
  191.0910  175.4610  137.8760 C   0  0  0  0  0  0  0  0  0  0  0  0
  186.6960  177.9100  137.7250 C   0  0  0  0  0  2  0  0  0  0  0  0
  185.5420  175.2910  135.2390 C   0  0  2  0  0  3  0  0  0  0  0  0
  190.7010  177.1240  140.1590 C   0  0  0  0  0  0  0  0  0  0  0  0
  192.1030  176.2530  138.2780 C   0  0  0  0  0  3  0  0  0  0  0  0
  189.6850  175.6990  138.3760 C   0  0  1  0  0  3  0  0  0  0  0  0
  187.3560  176.5650  138.0010 C   0  0  2  0  0  3  0  0  0  0  0  0
  191.1500  175.1380  135.4200 C   0  0  0  0  0  2  0  0  0  0  0  0
  185.7640  177.6460  135.0100 C   0  0  0  0  0  1  0  0  0  0  0  0
  191.2690  174.4580  136.7800 C   0  0  1  0  0  3  0  0  0  0  0  0
  188.6870  175.5820  136.0780 N   0  0  1  0  0  0  0  0  0  0  0  0
  184.0380  175.3310  135.5290 C   0  0  0  0  0  1  0  0  0  0  0  0
  189.2070  178.1960  135.5680 C   0  0  0  0  0  2  0  0  0  0  0  0
  189.7750  175.7590  135.0880 C   0  0  1  0  0  3  0  0  0  0  0  0
  191.6850  177.9180  142.1760 O   0  0  0  0  0  1  0  0  0  0  0  0
  189.4310  178.2570  141.9600 O   0  0  0  0  0  0  0  0  0  0  0  0
  190.6440  177.7840  141.4730 C   0  0  0  0  0  0  0  0  0  0  0  0
  186.4280  172.9510  134.5990 C   0  0  0  0  0  2  0  0  0  0  0  0
  185.7060  171.6420  134.8590 C   0  0  0  0  0  1  0  0  0  0  0  0
  192.5720  173.6800  136.8970 C   0  0  0  0  0  2  0  0  0  0  0  0
  193.4780  174.1260  135.9360 O   0  0  0  0  0  0  0  0  0  0  0  0
  194.6340  173.3820  136.1740 C   0  0  0  0  0  1  0  0  0  0  0  0
  1 28  1  6  0  0  0
  1  3  1  0  0  0  0
  2 14  2  0  0  0  0
  4  9  1  0  0  0  0
  5 23  1  0  0  0  0
  6  3  1  0  0  0  0
  8  7  1  6  0  0  0
  8 17  1  0  0  0  0
  8 16  1  0  0  0  0
  9 12  1  6  0  0  0
  9 17  1  0  0  0  0
 10 14  1  0  0  0  0
 11 15  2  0  0  0  0
 11 16  1  0  0  0  0
 13 22  1  1  0  0  0
 13  1  1  0  0  0  0
 13  4  1  0  0  0  0
 14 27  1  0  0  0  0
 15 10  1  0  0  0  0
 16  2  1  1  0  0  0
 17 12  1  6  0  0  0
 18 20  1  0  0  0  0
 19  4  1  0  0  0  0
 20 30  1  1  0  0  0
 20 11  1  0  0  0  0
 21  6  1  1  0  0  0
 21  8  1  0  0  0  0
 23  7  1  0  0  0  0
 24  5  1  1  0  0  0
 24 18  1  0  0  0  0
 24 21  1  0  0  0  0
 27 26  2  0  0  0  0
 27 25  1  0  0  0  0
 28 29  1  0  0  0  0
 31 32  1  0  0  0  0
 31 30  1  0  0  0  0
M  END
>  <MODEL>
5

>  <REMARK>
 VINA RESULT:      -4.2      3.965      6.469
  Name = 
  4 active torsions:
  status: ('A' for Active; 'I' for Inactive)
    1  A    between atoms: C_1  and  O_4
    2  A    between atoms: C_1  and  C_27
    3  A    between atoms: C_2  and  C_14
    4  A    between atoms: C_19  and  C_26
                            x       y       z     vdW  Elec       q    Type
                         _______ _______ _______ _____ _____    ______ ____

>  <TORSDO>
F 4

$$$$
=
 OpenBabel11052414313D

 32 36  0  0  1  0  0  0  0  0999 V2000
  191.4770  176.5580  139.7940 C   0  0  1  0  0  3  0  0  0  0  0  0
  188.4650  172.6830  136.5390 C   0  0  0  0  0  3  0  0  0  0  0  0
  190.4510  175.6480  139.4430 O   0  0  0  0  0  0  0  0  0  0  0  0
  192.3810  176.0870  137.4700 N   0  0  0  0  0  0  0  0  0  0  0  0
  189.6340  177.4990  135.0830 C   0  0  0  0  0  2  0  0  0  0  0  0
  189.4650  176.3010  138.6840 C   0  0  0  0  0  2  0  0  0  0  0  0
  189.8660  175.0170  135.0720 C   0  0  0  0  0  2  0  0  0  0  0  0
  189.7920  174.8980  136.6200 C   0  0  1  0  0  0  0  0  0  0  0  0
  192.3490  174.6220  137.5720 C   0  0  2  0  0  3  0  0  0  0  0  0
  187.0330  173.2650  134.6120 C   0  0  0  0  0  2  0  0  0  0  0  0
  187.2340  174.8610  136.5140 C   0  0  0  0  0  0  0  0  0  0  0  0
  192.1740  173.9400  136.2290 C   0  0  0  0  0  2  0  0  0  0  0  0
  192.6410  176.6940  138.7920 C   0  0  2  0  0  3  0  0  0  0  0  0
  187.7920  172.2720  135.4550 C   0  0  0  0  0  0  0  0  0  0  0  0
  186.5750  174.4600  135.4100 C   0  0  0  0  0  3  0  0  0  0  0  0
  188.4790  174.1360  136.9720 C   0  0  1  0  0  3  0  0  0  0  0  0
  190.9800  174.0160  137.1720 C   0  0  2  0  0  3  0  0  0  0  0  0
  187.5540  177.3170  136.5020 C   0  0  0  0  0  2  0  0  0  0  0  0
  193.4520  176.5010  136.5680 C   0  0  0  0  0  1  0  0  0  0  0  0
  186.8900  176.1410  137.2090 C   0  0  1  0  0  3  0  0  0  0  0  0
  189.7900  176.2550  137.2530 N   0  0  1  0  0  0  0  0  0  0  0  0
  193.9340  176.1970  139.4450 C   0  0  0  0  0  1  0  0  0  0  0  0
  190.5010  176.3280  134.6360 C   0  0  0  0  0  2  0  0  0  0  0  0
  189.0980  177.3340  136.5100 C   0  0  1  0  0  3  0  0  0  0  0  0
  188.9300  170.2190  135.0640 O   0  0  0  0  0  1  0  0  0  0  0  0
  186.6890  170.2270  134.5950 O   0  0  0  0  0  0  0  0  0  0  0  0
  187.8430  170.8620  135.0380 C   0  0  0  0  0  0  0  0  0  0  0  0
  191.0260  177.8800  140.4230 C   0  0  0  0  0  2  0  0  0  0  0  0
  190.5630  177.6410  141.8480 C   0  0  0  0  0  1  0  0  0  0  0  0
  185.3900  176.3530  137.3480 C   0  0  0  0  0  2  0  0  0  0  0  0
  185.1150  177.7130  137.4810 O   0  0  0  0  0  0  0  0  0  0  0  0
  183.7500  177.7680  137.7640 C   0  0  0  0  0  1  0  0  0  0  0  0
  1 28  1  6  0  0  0
  3  1  1  0  0  0  0
  4  9  1  0  0  0  0
  4 13  1  0  0  0  0
  6  3  1  0  0  0  0
  8  7  1  6  0  0  0
  8 16  1  0  0  0  0
  8 17  1  0  0  0  0
  8 21  1  0  0  0  0
  9 12  1  6  0  0  0
 10 15  1  0  0  0  0
 10 14  1  0  0  0  0
 11 16  1  0  0  0  0
 11 20  1  0  0  0  0
 13 22  1  1  0  0  0
 13  1  1  0  0  0  0
 14  2  2  0  0  0  0
 15 11  2  0  0  0  0
 16  2  1  6  0  0  0
 17 12  1  6  0  0  0
 17  9  1  0  0  0  0
 18 24  1  0  0  0  0
 18 20  1  0  0  0  0
 19  4  1  0  0  0  0
 20 30  1  6  0  0  0
 21  6  1  1  0  0  0
 23  7  1  0  0  0  0
 23  5  1  0  0  0  0
 24  5  1  6  0  0  0
 24 21  1  0  0  0  0
 26 27  2  0  0  0  0
 27 25  1  0  0  0  0
 27 14  1  0  0  0  0
 28 29  1  0  0  0  0
 30 31  1  0  0  0  0
 31 32  1  0  0  0  0
M  END
>  <MODEL>
6

>  <REMARK>
 VINA RESULT:      -3.9      4.257      8.602
  Name = 
  4 active torsions:
  status: ('A' for Active; 'I' for Inactive)
    1  A    between atoms: C_1  and  O_4
    2  A    between atoms: C_1  and  C_27
    3  A    between atoms: C_2  and  C_14
    4  A    between atoms: C_19  and  C_26
                            x       y       z     vdW  Elec       q    Type
                         _______ _______ _______ _____ _____    ______ ____

>  <TORSDO>
F 4

$$$$
=
 OpenBabel11052414313D

 32 36  0  0  1  0  0  0  0  0999 V2000
  196.5920  173.6600  138.7020 C   0  0  1  0  0  3  0  0  0  0  0  0
  191.2440  172.9150  136.3500 C   0  0  0  0  0  3  0  0  0  0  0  0
  195.1940  173.4400  138.6500 O   0  0  0  0  0  0  0  0  0  0  0  0
  196.4280  173.8600  136.1770 N   0  0  0  0  0  0  0  0  0  0  0  0
  194.2510  177.0530  135.6230 C   0  0  0  0  0  2  0  0  0  0  0  0
  194.5160  174.6690  138.5680 C   0  0  0  0  0  2  0  0  0  0  0  0
  193.1630  174.9080  134.9660 C   0  0  0  0  0  2  0  0  0  0  0  0
  193.4790  174.2120  136.3200 C   0  0  1  0  0  0  0  0  0  0  0  0
  195.6790  172.6150  135.9590 C   0  0  2  0  0  3  0  0  0  0  0  0
  189.8370  174.7280  135.4330 C   0  0  0  0  0  2  0  0  0  0  0  0
  191.3560  175.2070  137.3490 C   0  0  0  0  0  0  0  0  0  0  0  0
  194.8090  172.6590  134.7180 C   0  0  0  0  0  2  0  0  0  0  0  0
  197.3220  173.7300  137.3460 C   0  0  2  0  0  3  0  0  0  0  0  0
  190.1820  173.2710  135.6140 C   0  0  0  0  0  0  0  0  0  0  0  0
  190.3050  175.5730  136.5910 C   0  0  0  0  0  3  0  0  0  0  0  0
  192.1220  173.9420  137.0390 C   0  0  1  0  0  3  0  0  0  0  0  0
  194.1460  172.8000  136.0830 C   0  0  2  0  0  3  0  0  0  0  0  0
  192.8710  177.1280  137.7350 C   0  0  0  0  0  2  0  0  0  0  0  0
  197.2540  174.1570  135.0100 C   0  0  0  0  0  1  0  0  0  0  0  0
  191.9290  176.1210  138.3850 C   0  0  1  0  0  3  0  0  0  0  0  0
  194.3520  175.0830  137.1700 N   0  0  1  0  0  0  0  0  0  0  0  0
  198.3010  172.5570  137.2350 C   0  0  0  0  0  1  0  0  0  0  0  0
  194.2280  175.9270  134.5940 C   0  0  0  0  0  2  0  0  0  0  0  0
  194.1340  176.5450  137.0640 C   0  0  1  0  0  3  0  0  0  0  0  0
  189.8900  171.1380  134.6000 O   0  0  0  0  0  1  0  0  0  0  0  0
  188.0570  172.5090  134.5950 O   0  0  0  0  0  0  0  0  0  0  0  0
  189.3830  172.2500  134.9190 C   0  0  0  0  0  0  0  0  0  0  0  0
  197.0820  174.6770  139.7380 C   0  0  0  0  0  2  0  0  0  0  0  0
  198.3760  175.3130  139.2640 C   0  0  0  0  0  1  0  0  0  0  0  0
  190.8610  176.8180  139.2160 C   0  0  0  0  0  2  0  0  0  0  0  0
  191.4580  177.5160  140.2640 O   0  0  0  0  0  0  0  0  0  0  0  0
  190.5480  177.4120  141.3160 C   0  0  0  0  0  1  0  0  0  0  0  0
  1 28  1  6  0  0  0
  3  1  1  0  0  0  0
  4 13  1  0  0  0  0
  6  3  1  0  0  0  0
  8  7  1  6  0  0  0
  8 16  1  0  0  0  0
  8 21  1  0  0  0  0
  9 12  1  6  0  0  0
  9 17  1  0  0  0  0
  9  4  1  0  0  0  0
 10 14  1  0  0  0  0
 10 15  1  0  0  0  0
 11 20  1  0  0  0  0
 13 22  1  6  0  0  0
 13  1  1  0  0  0  0
 14  2  2  0  0  0  0
 15 11  2  0  0  0  0
 16  2  1  6  0  0  0
 16 11  1  0  0  0  0
 17 12  1  6  0  0  0
 17  8  1  0  0  0  0
 18 20  1  0  0  0  0
 19  4  1  0  0  0  0
 20 30  1  6  0  0  0
 21  6  1  1  0  0  0
 23  7  1  0  0  0  0
 23  5  1  0  0  0  0
 24  5  1  6  0  0  0
 24 21  1  0  0  0  0
 24 18  1  0  0  0  0
 25 27  1  0  0  0  0
 26 27  2  0  0  0  0
 27 14  1  0  0  0  0
 29 28  1  0  0  0  0
 30 31  1  0  0  0  0
 31 32  1  0  0  0  0
M  END
>  <MODEL>
7

>  <REMARK>
 VINA RESULT:      -3.5      7.458     11.237
  Name = 
  4 active torsions:
  status: ('A' for Active; 'I' for Inactive)
    1  A    between atoms: C_1  and  O_4
    2  A    between atoms: C_1  and  C_27
    3  A    between atoms: C_2  and  C_14
    4  A    between atoms: C_19  and  C_26
                            x       y       z     vdW  Elec       q    Type
                         _______ _______ _______ _____ _____    ______ ____

>  <TORSDO>
F 4

$$$$
=
 OpenBabel11052414313D

 32 36  0  0  1  0  0  0  0  0999 V2000
  190.6380  176.7840  139.7230 C   0  0  1  0  0  3  0  0  0  0  0  0
  187.1300  173.1740  136.6650 C   0  0  0  0  0  3  0  0  0  0  0  0
  189.5060  175.9880  139.4230 O   0  0  0  0  0  0  0  0  0  0  0  0
  191.4340  176.1280  137.4040 N   0  0  0  0  0  0  0  0  0  0  0  0
  188.8210  177.7670  135.0110 C   0  0  0  0  0  2  0  0  0  0  0  0
  188.5880  176.7250  138.6560 C   0  0  0  0  0  2  0  0  0  0  0  0
  188.7630  175.2760  135.0880 C   0  0  0  0  0  2  0  0  0  0  0  0
  188.7070  175.2200  136.6410 C   0  0  1  0  0  0  0  0  0  0  0  0
  191.2340  174.6820  137.5610 C   0  0  2  0  0  3  0  0  0  0  0  0
  185.7360  173.8510  134.7410 C   0  0  0  0  0  2  0  0  0  0  0  0
  186.1610  175.4790  136.5780 C   0  0  0  0  0  0  0  0  0  0  0  0
  190.9530  173.9770  136.2480 C   0  0  0  0  0  2  0  0  0  0  0  0
  191.7890  176.7470  138.6980 C   0  0  2  0  0  3  0  0  0  0  0  0
  186.3920  172.8070  135.6090 C   0  0  0  0  0  0  0  0  0  0  0  0
  185.4370  175.1180  135.5010 C   0  0  0  0  0  3  0  0  0  0  0  0
  187.3220  174.6300  137.0420 C   0  0  1  0  0  3  0  0  0  0  0  0
  189.7960  174.2260  137.2070 C   0  0  2  0  0  3  0  0  0  0  0  0
  186.7630  177.8790  136.4690 C   0  0  0  0  0  2  0  0  0  0  0  0
  192.5270  176.3820  136.4700 C   0  0  0  0  0  1  0  0  0  0  0  0
  185.9820  176.8140  137.2300 C   0  0  1  0  0  3  0  0  0  0  0  0
  188.8760  176.5900  137.2230 N   0  0  1  0  0  0  0  0  0  0  0  0
  193.0290  176.1270  139.3490 C   0  0  0  0  0  1  0  0  0  0  0  0
  189.5370  176.4870  134.5940 C   0  0  0  0  0  2  0  0  0  0  0  0
  188.2990  177.7150  136.4510 C   0  0  1  0  0  3  0  0  0  0  0  0
  187.2900  170.7110  134.9250 O   0  0  0  0  0  0  0  0  0  0  0  0
  185.0220  170.7770  135.2330 O   0  0  0  0  0  1  0  0  0  0  0  0
  186.2710  171.3870  135.2430 C   0  0  0  0  0  0  0  0  0  0  0  0
  190.3570  178.1710  140.3090 C   0  0  0  0  0  2  0  0  0  0  0  0
  189.8990  178.0380  141.7500 C   0  0  0  0  0  1  0  0  0  0  0  0
  184.5200  177.2050  137.3860 C   0  0  0  0  0  2  0  0  0  0  0  0
  183.9020  176.3660  138.3110 O   0  0  0  0  0  0  0  0  0  0  0  0
  182.9530  177.1750  138.9370 C   0  0  0  0  0  1  0  0  0  0  0  0
  1 28  1  6  0  0  0
  3  1  1  0  0  0  0
  4  9  1  0  0  0  0
  4 13  1  0  0  0  0
  6  3  1  0  0  0  0
  8  7  1  6  0  0  0
  8 16  1  0  0  0  0
  8 17  1  0  0  0  0
  8 21  1  0  0  0  0
  9 12  1  6  0  0  0
 10 15  1  0  0  0  0
 10 14  1  0  0  0  0
 11 16  1  0  0  0  0
 11 20  1  0  0  0  0
 13 22  1  1  0  0  0
 13  1  1  0  0  0  0
 14  2  2  0  0  0  0
 15 11  2  0  0  0  0
 16  2  1  6  0  0  0
 17 12  1  6  0  0  0
 17  9  1  0  0  0  0
 18 20  1  0  0  0  0
 19  4  1  0  0  0  0
 20 30  1  6  0  0  0
 21  6  1  1  0  0  0
 23  5  1  0  0  0  0
 23  7  1  0  0  0  0
 24  5  1  6  0  0  0
 24 18  1  0  0  0  0
 24 21  1  0  0  0  0
 25 27  2  0  0  0  0
 26 27  1  0  0  0  0
 27 14  1  0  0  0  0
 28 29  1  0  0  0  0
 30 31  1  0  0  0  0
 31 32  1  0  0  0  0
M  END
>  <MODEL>
8

>  <REMARK>
 VINA RESULT:      -3.5      3.605      7.832
  Name = 
  4 active torsions:
  status: ('A' for Active; 'I' for Inactive)
    1  A    between atoms: C_1  and  O_4
    2  A    between atoms: C_1  and  C_27
    3  A    between atoms: C_2  and  C_14
    4  A    between atoms: C_19  and  C_26
                            x       y       z     vdW  Elec       q    Type
                         _______ _______ _______ _____ _____    ______ ____

>  <TORSDO>
F 4

$$$$
=
 OpenBabel11052414313D

 32 36  0  0  1  0  0  0  0  0999 V2000
  185.3420  177.9260  139.1180 C   0  0  1  0  0  3  0  0  0  0  0  0
  182.1740  173.3750  137.1330 C   0  0  0  0  0  3  0  0  0  0  0  0
  184.4380  176.8360  139.1490 O   0  0  0  0  0  0  0  0  0  0  0  0
  185.5020  177.4330  136.6340 N   0  0  0  0  0  0  0  0  0  0  0  0
  181.9170  178.1930  135.2880 C   0  0  0  0  0  2  0  0  0  0  0  0
  183.1580  177.2610  138.7540 C   0  0  0  0  0  2  0  0  0  0  0  0
  182.5730  175.7890  135.2410 C   0  0  0  0  0  2  0  0  0  0  0  0
  183.0340  175.7770  136.7250 C   0  0  1  0  0  0  0  0  0  0  0  0
  185.7680  175.9940  136.7660 C   0  0  2  0  0  3  0  0  0  0  0  0
  180.1080  173.5680  135.7910 C   0  0  0  0  0  2  0  0  0  0  0  0
  180.6340  175.3150  137.4870 C   0  0  0  0  0  0  0  0  0  0  0  0
  185.2870  175.1930  135.5710 C   0  0  0  0  0  2  0  0  0  0  0  0
  186.0680  178.1730  137.7810 C   0  0  2  0  0  3  0  0  0  0  0  0
  181.2670  172.7800  136.3460 C   0  0  0  0  0  0  0  0  0  0  0  0
  179.7320  174.7290  136.6760 C   0  0  0  0  0  3  0  0  0  0  0  0
  182.0680  174.8400  137.5110 C   0  0  1  0  0  3  0  0  0  0  0  0
  184.4760  175.1450  136.8600 C   0  0  2  0  0  3  0  0  0  0  0  0
  180.4870  177.7830  137.3270 C   0  0  0  0  0  2  0  0  0  0  0  0
  186.1250  177.9460  135.4170 C   0  0  0  0  0  1  0  0  0  0  0  0
  180.3140  176.5710  138.2350 C   0  0  1  0  0  3  0  0  0  0  0  0
  182.9980  177.1590  137.3000 N   0  0  1  0  0  0  0  0  0  0  0  0
  187.5710  177.9450  137.9690 C   0  0  0  0  0  1  0  0  0  0  0  0
  182.7850  177.1490  134.5940 C   0  0  0  0  0  2  0  0  0  0  0  0
  181.9190  178.0510  136.8140 C   0  0  1  0  0  3  0  0  0  0  0  0
  180.4240  170.6380  135.7410 O   0  0  0  0  0  0  0  0  0  0  0  0
  182.7030  170.8240  135.8450 O   0  0  0  0  0  1  0  0  0  0  0  0
  181.4300  171.3690  135.9600 C   0  0  0  0  0  0  0  0  0  0  0  0
  184.8940  179.2010  139.8400 C   0  0  0  0  0  2  0  0  0  0  0  0
  185.2050  179.0900  141.3210 C   0  0  0  0  0  1  0  0  0  0  0  0
  178.9310  176.5460  138.8680 C   0  0  0  0  0  2  0  0  0  0  0  0
  179.0250  176.1330  140.1960 O   0  0  0  0  0  0  0  0  0  0  0  0
  179.7980  177.1170  140.8130 C   0  0  0  0  0  1  0  0  0  0  0  0
  1  3  1  0  0  0  0
  1 28  1  6  0  0  0
  4  9  1  0  0  0  0
  4 13  1  0  0  0  0
  6  3  1  0  0  0  0
  8  7  1  6  0  0  0
  8 17  1  0  0  0  0
  8 21  1  0  0  0  0
  8 16  1  0  0  0  0
  9 12  1  6  0  0  0
  9 17  1  0  0  0  0
 10 14  1  0  0  0  0
 10 15  1  0  0  0  0
 11 16  1  0  0  0  0
 11 20  1  0  0  0  0
 13 22  1  1  0  0  0
 13  1  1  0  0  0  0
 14  2  2  0  0  0  0
 15 11  2  0  0  0  0
 16  2  1  6  0  0  0
 17 12  1  6  0  0  0
 18 20  1  0  0  0  0
 19  4  1  0  0  0  0
 20 30  1  6  0  0  0
 21  6  1  1  0  0  0
 23  7  1  0  0  0  0
 23  5  1  0  0  0  0
 24  5  1  6  0  0  0
 24 21  1  0  0  0  0
 24 18  1  0  0  0  0
 25 27  2  0  0  0  0
 26 27  1  0  0  0  0
 27 14  1  0  0  0  0
 28 29  1  0  0  0  0
 30 31  1  0  0  0  0
 31 32  1  0  0  0  0
M  END
>  <MODEL>
9

>  <REMARK>
 VINA RESULT:      -3.3      2.123      6.410
  Name = 
  4 active torsions:
  status: ('A' for Active; 'I' for Inactive)
    1  A    between atoms: C_1  and  O_4
    2  A    between atoms: C_1  and  C_27
    3  A    between atoms: C_2  and  C_14
    4  A    between atoms: C_19  and  C_26
                            x       y       z     vdW  Elec       q    Type
                         _______ _______ _______ _____ _____    ______ ____

>  <TORSDO>
F 4

$$$$
