=
 OpenBabel11052414023D

 34 37  0  0  1  0  0  0  0  0999 V2000
  182.3810  178.4360  141.0980 C   0  0  0  0  0  0  0  0  0  0  0  0
  182.7650  178.0390  138.6230 C   0  0  2  0  0  3  0  0  0  0  0  0
  185.0110  177.2960  136.7990 O   0  0  0  0  0  0  0  0  0  0  0  0
  181.5870  178.2610  142.0630 O   0  0  0  0  0  0  0  0  0  0  0  0
  184.6860  178.8550  140.2130 C   0  0  0  0  0  2  0  0  0  0  0  0
  181.8330  178.6080  139.7150 C   0  0  2  0  0  3  0  0  0  0  0  0
  185.2070  177.8710  138.0660 C   0  0  0  0  0  3  0  0  0  0  0  0
  182.4770  176.5590  138.3180 C   0  0  2  0  0  3  0  0  0  0  0  0
  183.8020  178.5040  141.3180 N   0  0  0  0  0  0  0  0  0  0  0  0
  183.7510  177.1730  136.1470 C   0  0  0  0  0  2  0  0  0  0  0  0
  182.8310  176.1850  136.8690 C   0  0  1  0  0  3  0  0  0  0  0  0
  184.2430  178.2250  138.9270 C   0  0  0  0  0  0  0  0  0  0  0  0
  181.1360  176.2390  138.5500 O   0  0  0  0  0  1  0  0  0  0  0  0
  183.2620  172.6010  135.6650 C   0  0  0  0  0  0  0  0  0  0  0  0
  184.1720  172.1090  136.6120 C   0  0  0  0  0  3  0  0  0  0  0  0
  183.3140  174.7730  136.7430 C   0  0  0  0  0  0  0  0  0  0  0  0
  184.6470  172.9430  137.6250 C   0  0  0  0  0  3  0  0  0  0  0  0
  182.8320  173.9300  135.7330 C   0  0  0  0  0  3  0  0  0  0  0  0
  184.2170  174.2730  137.6910 C   0  0  0  0  0  3  0  0  0  0  0  0
  182.7490  171.7090  134.5940 C   0  0  0  0  0  1  0  0  0  0  0  0
  185.7030  178.9800  142.6160 O   0  0  0  0  0  0  0  0  0  0  0  0
  186.5230  178.2190  143.4860 C   0  0  1  0  0  3  0  0  0  0  0  0
  184.3760  178.5060  142.6630 C   0  0  1  0  0  3  0  0  0  0  0  0
  183.7580  179.0000  145.0670 C   0  0  0  0  0  2  0  0  0  0  0  0
  185.2240  179.1040  145.4750 C   0  0  0  0  0  2  0  0  0  0  0  0
  186.0040  177.9250  144.9090 C   0  0  0  0  0  2  0  0  0  0  0  0
  183.5370  179.3730  143.6020 C   0  0  0  0  0  2  0  0  0  0  0  0
  187.1630  177.1350  142.8480 O   0  0  0  0  0  0  0  0  0  0  0  0
  187.9740  176.4810  143.7860 C   0  0  0  0  0  2  0  0  0  0  0  0
  188.8510  175.6290  143.1310 F   0  0  0  0  0  0  0  0  0  0  0  0
  181.3680  180.0470  139.4530 C   0  0  2  0  0  3  0  0  0  0  0  0
  179.9180  180.2170  139.8820 C   0  0  0  0  0  1  0  0  0  0  0  0
  181.0850  181.9230  137.8290 C   0  0  0  0  0  1  0  0  0  0  0  0
  181.5580  180.4920  138.0060 C   0  0  0  0  0  2  0  0  0  0  0  0
  1  9  1  0  0  0  0
  1  4  2  0  0  0  0
  2 12  1  1  0  0  0
  2  6  1  0  0  0  0
  3  7  1  0  0  0  0
  5  9  1  0  0  0  0
  6 31  1  6  0  0  0
  6  1  1  0  0  0  0
  7 12  2  0  0  0  0
  8 13  1  6  0  0  0
  8  2  1  0  0  0  0
 10  3  1  0  0  0  0
 10 11  1  0  0  0  0
 11 16  1  1  0  0  0
 11  8  1  0  0  0  0
 12  5  1  0  0  0  0
 14 18  2  0  0  0  0
 14 15  1  0  0  0  0
 15 17  2  0  0  0  0
 16 19  2  0  0  0  0
 17 19  1  0  0  0  0
 18 16  1  0  0  0  0
 20 14  1  0  0  0  0
 21 23  1  0  0  0  0
 21 22  1  0  0  0  0
 22 28  1  6  0  0  0
 22 26  1  0  0  0  0
 23  9  1  6  0  0  0
 23 27  1  0  0  0  0
 24 25  1  0  0  0  0
 26 25  1  0  0  0  0
 27 24  1  0  0  0  0
 28 29  1  0  0  0  0
 30 29  1  0  0  0  0
 31 32  1  6  0  0  0
 33 34  1  0  0  0  0
 34 31  1  0  0  0  0
M  END
>  <MODEL>
1

>  <REMARK>
 VINA RESULT:      -7.4      0.000      0.000
  Name = 
  6 active torsions:
  status: ('A' for Active; 'I' for Inactive)
    1  A    between atoms: C_1  and  C_15
    2  A    between atoms: C_1  and  C_19
    3  A    between atoms: O_3  and  C_13
    4  A    between atoms: O_3  and  C_17
    5  A    between atoms: C_12  and  C_28
    6  A    between atoms: C_14  and  N_25
                            x       y       z     vdW  Elec       q    Type
                         _______ _______ _______ _____ _____    ______ ____

>  <TORSDO>
F 6

$$$$
=
 OpenBabel11052414023D

 34 37  0  0  1  0  0  0  0  0999 V2000
  183.1510  177.6890  139.1740 C   0  0  0  0  0  0  0  0  0  0  0  0
  181.0080  178.7690  138.3520 C   0  0  2  0  0  3  0  0  0  0  0  0
  179.2270  181.0510  139.0910 O   0  0  0  0  0  0  0  0  0  0  0  0
  184.2400  177.1560  138.8250 O   0  0  0  0  0  0  0  0  0  0  0  0
  181.7450  178.8820  140.8670 C   0  0  0  0  0  2  0  0  0  0  0  0
  181.9460  177.5430  138.2960 C   0  0  2  0  0  3  0  0  0  0  0  0
  180.1020  180.4310  140.0010 C   0  0  0  0  0  3  0  0  0  0  0  0
  181.3730  179.8360  137.3040 C   0  0  2  0  0  3  0  0  0  0  0  0
  183.0460  178.4060  140.4180 N   0  0  0  0  0  0  0  0  0  0  0  0
  178.9330  180.5650  137.7850 C   0  0  0  0  0  2  0  0  0  0  0  0
  180.1490  180.6540  136.8590 C   0  0  1  0  0  3  0  0  0  0  0  0
  180.9220  179.4070  139.7290 C   0  0  0  0  0  0  0  0  0  0  0  0
  181.9660  179.2640  136.1750 O   0  0  0  0  0  1  0  0  0  0  0  0
  181.4790  184.2100  137.1150 C   0  0  0  0  0  0  0  0  0  0  0  0
  181.0390  184.7480  135.8970 C   0  0  0  0  0  3  0  0  0  0  0  0
  180.4980  182.0720  136.5250 C   0  0  0  0  0  0  0  0  0  0  0  0
  180.3260  183.9530  134.9980 C   0  0  0  0  0  3  0  0  0  0  0  0
  181.2060  182.8750  137.4300 C   0  0  0  0  0  3  0  0  0  0  0  0
  180.0540  182.6170  135.3120 C   0  0  0  0  0  3  0  0  0  0  0  0
  182.2280  185.0600  138.0750 C   0  0  0  0  0  1  0  0  0  0  0  0
  185.0480  179.4640  141.0480 O   0  0  0  0  0  0  0  0  0  0  0  0
  186.3810  179.0250  141.2440 C   0  0  1  0  0  3  0  0  0  0  0  0
  184.1430  178.4370  141.3840 C   0  0  1  0  0  3  0  0  0  0  0  0
  184.5960  178.1680  143.8590 C   0  0  0  0  0  2  0  0  0  0  0  0
  185.9510  178.8580  143.7380 C   0  0  0  0  0  2  0  0  0  0  0  0
  186.7190  178.2830  142.5550 C   0  0  0  0  0  2  0  0  0  0  0  0
  183.6060  178.6460  142.7990 C   0  0  0  0  0  2  0  0  0  0  0  0
  186.9690  178.4830  140.0820 O   0  0  0  0  0  0  0  0  0  0  0  0
  188.3590  178.4420  140.2640 C   0  0  0  0  0  2  0  0  0  0  0  0
  188.9950  178.8260  139.0920 F   0  0  0  0  0  0  0  0  0  0  0  0
  181.2340  176.2010  138.5100 C   0  0  2  0  0  3  0  0  0  0  0  0
  181.3360  175.3450  137.2560 C   0  0  0  0  0  1  0  0  0  0  0  0
  179.6610  176.1880  140.4500 C   0  0  0  0  0  1  0  0  0  0  0  0
  179.7790  176.3490  138.9450 C   0  0  0  0  0  2  0  0  0  0  0  0
  1  9  1  0  0  0  0
  2 12  1  1  0  0  0
  3  7  1  0  0  0  0
  4  1  2  0  0  0  0
  6  2  1  0  0  0  0
  6 31  1  1  0  0  0
  6  1  1  0  0  0  0
  8 13  1  6  0  0  0
  8  2  1  0  0  0  0
  9  5  1  0  0  0  0
 10  3  1  0  0  0  0
 11 16  1  1  0  0  0
 11  8  1  0  0  0  0
 11 10  1  0  0  0  0
 12  7  2  0  0  0  0
 12  5  1  0  0  0  0
 14 18  1  0  0  0  0
 14 20  1  0  0  0  0
 15 14  2  0  0  0  0
 16 18  2  0  0  0  0
 17 19  2  0  0  0  0
 17 15  1  0  0  0  0
 19 16  1  0  0  0  0
 21 22  1  0  0  0  0
 21 23  1  0  0  0  0
 22 28  1  6  0  0  0
 22 26  1  0  0  0  0
 23  9  1  6  0  0  0
 23 27  1  0  0  0  0
 25 24  1  0  0  0  0
 26 25  1  0  0  0  0
 27 24  1  0  0  0  0
 28 29  1  0  0  0  0
 30 29  1  0  0  0  0
 31 32  1  6  0  0  0
 31 34  1  0  0  0  0
 34 33  1  0  0  0  0
M  END
>  <MODEL>
2

>  <REMARK>
 VINA RESULT:      -7.0      2.469      6.210
  Name = 
  6 active torsions:
  status: ('A' for Active; 'I' for Inactive)
    1  A    between atoms: C_1  and  C_15
    2  A    between atoms: C_1  and  C_19
    3  A    between atoms: O_3  and  C_13
    4  A    between atoms: O_3  and  C_17
    5  A    between atoms: C_12  and  C_28
    6  A    between atoms: C_14  and  N_25
                            x       y       z     vdW  Elec       q    Type
                         _______ _______ _______ _____ _____    ______ ____

>  <TORSDO>
F 6

$$$$
=
 OpenBabel11052414023D

 34 37  0  0  1  0  0  0  0  0999 V2000
  183.1040  176.8410  139.3580 C   0  0  0  0  0  0  0  0  0  0  0  0
  184.4700  176.8980  137.2220 C   0  0  2  0  0  3  0  0  0  0  0  0
  187.0820  177.9870  136.2660 O   0  0  0  0  0  0  0  0  0  0  0  0
  182.3600  176.1330  140.0910 O   0  0  0  0  0  0  0  0  0  0  0  0
  184.6620  178.7750  139.0450 C   0  0  0  0  0  2  0  0  0  0  0  0
  183.0980  176.6230  137.8760 C   0  0  2  0  0  3  0  0  0  0  0  0
  186.3980  178.4980  137.3830 C   0  0  0  0  0  3  0  0  0  0  0  0
  185.3640  175.6460  137.1840 C   0  0  2  0  0  3  0  0  0  0  0  0
  183.9290  177.8750  139.9250 N   0  0  0  0  0  0  0  0  0  0  0  0
  186.5480  177.0390  135.3470 C   0  0  0  0  0  2  0  0  0  0  0  0
  186.3450  175.6690  135.9990 C   0  0  1  0  0  3  0  0  0  0  0  0
  185.2260  178.0530  137.8580 C   0  0  0  0  0  0  0  0  0  0  0  0
  184.6050  174.4750  137.1170 O   0  0  0  0  0  1  0  0  0  0  0  0
  189.8210  174.9950  137.3910 C   0  0  0  0  0  0  0  0  0  0  0  0
  190.1070  173.7530  136.8040 C   0  0  0  0  0  3  0  0  0  0  0  0
  187.6450  175.0000  136.3190 C   0  0  0  0  0  0  0  0  0  0  0  0
  189.1690  173.1390  135.9740 C   0  0  0  0  0  3  0  0  0  0  0  0
  188.5940  175.6190  137.1450 C   0  0  0  0  0  3  0  0  0  0  0  0
  187.9400  173.7620  135.7300 C   0  0  0  0  0  3  0  0  0  0  0  0
  190.8250  175.6520  138.2650 C   0  0  0  0  0  1  0  0  0  0  0  0
  184.9020  179.1140  141.6690 O   0  0  0  0  0  0  0  0  0  0  0  0
  185.4300  178.7840  142.9430 C   0  0  1  0  0  3  0  0  0  0  0  0
  183.8480  178.2370  141.3390 C   0  0  1  0  0  3  0  0  0  0  0  0
  182.1560  178.7970  143.1350 C   0  0  0  0  0  2  0  0  0  0  0  0
  183.2260  179.4320  144.0170 C   0  0  0  0  0  2  0  0  0  0  0  0
  184.4410  178.5160  144.0970 C   0  0  0  0  0  2  0  0  0  0  0  0
  182.5010  178.8880  141.6500 C   0  0  0  0  0  2  0  0  0  0  0  0
  186.5300  177.9020  142.8820 O   0  0  0  0  0  0  0  0  0  0  0  0
  186.8160  177.4560  144.1800 C   0  0  0  0  0  2  0  0  0  0  0  0
  187.6510  176.3500  144.1210 F   0  0  0  0  0  0  0  0  0  0  0  0
  181.9240  177.3350  137.1910 C   0  0  2  0  0  3  0  0  0  0  0  0
  182.2810  177.6740  135.7520 C   0  0  0  0  0  1  0  0  0  0  0  0
  181.2290  179.7230  136.9640 C   0  0  0  0  0  1  0  0  0  0  0  0
  181.4520  178.5790  137.9370 C   0  0  0  0  0  2  0  0  0  0  0  0
  1  9  1  0  0  0  0
  1  4  2  0  0  0  0
  2 12  1  1  0  0  0
  2  6  1  0  0  0  0
  3  7  1  0  0  0  0
  5  9  1  0  0  0  0
  6 31  1  6  0  0  0
  6  1  1  0  0  0  0
  7 12  2  0  0  0  0
  8 13  1  6  0  0  0
  8  2  1  0  0  0  0
 10 11  1  0  0  0  0
 10  3  1  0  0  0  0
 11 16  1  1  0  0  0
 11  8  1  0  0  0  0
 12  5  1  0  0  0  0
 14 20  1  0  0  0  0
 15 14  2  0  0  0  0
 16 18  2  0  0  0  0
 17 15  1  0  0  0  0
 18 14  1  0  0  0  0
 19 17  2  0  0  0  0
 19 16  1  0  0  0  0
 21 22  1  0  0  0  0
 22 28  1  6  0  0  0
 22 26  1  0  0  0  0
 23  9  1  6  0  0  0
 23 27  1  0  0  0  0
 23 21  1  0  0  0  0
 24 25  1  0  0  0  0
 25 26  1  0  0  0  0
 27 24  1  0  0  0  0
 28 29  1  0  0  0  0
 30 29  1  0  0  0  0
 31 32  1  6  0  0  0
 31 34  1  0  0  0  0
 33 34  1  0  0  0  0
M  END
>  <MODEL>
3

>  <REMARK>
 VINA RESULT:      -6.7      2.649      3.675
  Name = 
  6 active torsions:
  status: ('A' for Active; 'I' for Inactive)
    1  A    between atoms: C_1  and  C_15
    2  A    between atoms: C_1  and  C_19
    3  A    between atoms: O_3  and  C_13
    4  A    between atoms: O_3  and  C_17
    5  A    between atoms: C_12  and  C_28
    6  A    between atoms: C_14  and  N_25
                            x       y       z     vdW  Elec       q    Type
                         _______ _______ _______ _____ _____    ______ ____

>  <TORSDO>
F 6

$$$$
=
 OpenBabel11052414023D

 34 37  0  0  1  0  0  0  0  0999 V2000
  189.6350  174.4820  137.2180 C   0  0  0  0  0  0  0  0  0  0  0  0
  189.4420  176.7530  138.3320 C   0  0  2  0  0  3  0  0  0  0  0  0
  187.2970  178.6300  139.2260 O   0  0  0  0  0  0  0  0  0  0  0  0
  190.2630  173.3880  137.2030 O   0  0  0  0  0  0  0  0  0  0  0  0
  187.5900  175.8360  136.7150 C   0  0  0  0  0  2  0  0  0  0  0  0
  190.3540  175.7370  137.6090 C   0  0  2  0  0  3  0  0  0  0  0  0
  187.0980  177.6460  138.2410 C   0  0  0  0  0  3  0  0  0  0  0  0
  189.4260  176.5450  139.8560 C   0  0  2  0  0  3  0  0  0  0  0  0
  188.2500  174.5420  136.8330 N   0  0  0  0  0  0  0  0  0  0  0  0
  188.5610  178.9870  139.7750 C   0  0  0  0  0  2  0  0  0  0  0  0
  189.1560  177.8550  140.6170 C   0  0  1  0  0  3  0  0  0  0  0  0
  188.0190  176.7780  137.8000 C   0  0  0  0  0  0  0  0  0  0  0  0
  190.6290  176.0010  140.3130 O   0  0  0  0  0  1  0  0  0  0  0  0
  186.4190  177.9770  143.2580 C   0  0  0  0  0  0  0  0  0  0  0  0
  187.0310  177.2800  144.3090 C   0  0  0  0  0  3  0  0  0  0  0  0
  188.3880  177.6330  141.8830 C   0  0  0  0  0  0  0  0  0  0  0  0
  188.3190  176.7650  144.1520 C   0  0  0  0  0  3  0  0  0  0  0  0
  187.0970  178.1570  142.0490 C   0  0  0  0  0  3  0  0  0  0  0  0
  188.9970  176.9440  142.9410 C   0  0  0  0  0  3  0  0  0  0  0  0
  185.0530  178.5330  143.4310 C   0  0  0  0  0  1  0  0  0  0  0  0
  186.2260  173.7320  135.9540 O   0  0  0  0  0  0  0  0  0  0  0  0
  185.3380  172.6880  136.3150 C   0  0  1  0  0  3  0  0  0  0  0  0
  187.5500  173.3800  136.2880 C   0  0  1  0  0  3  0  0  0  0  0  0
  187.9270  171.3820  134.7810 C   0  0  0  0  0  2  0  0  0  0  0  0
  186.4270  171.1760  134.5940 C   0  0  0  0  0  2  0  0  0  0  0  0
  185.7240  171.2400  135.9430 C   0  0  0  0  0  2  0  0  0  0  0  0
  188.2810  172.8420  135.0580 C   0  0  0  0  0  2  0  0  0  0  0  0
  184.7800  172.8460  137.6010 O   0  0  0  0  0  0  0  0  0  0  0  0
  184.0880  174.0650  137.6410 C   0  0  0  0  0  2  0  0  0  0  0  0
  183.1360  174.0950  136.6330 F   0  0  0  0  0  0  0  0  0  0  0  0
  191.1520  176.3330  136.4420 C   0  0  2  0  0  3  0  0  0  0  0  0
  190.5480  175.9000  135.1150 C   0  0  0  0  0  1  0  0  0  0  0  0
  193.1630  176.1330  137.9100 C   0  0  0  0  0  1  0  0  0  0  0  0
  192.6400  175.9990  136.4910 C   0  0  0  0  0  2  0  0  0  0  0  0
  1  6  1  0  0  0  0
  2 12  1  6  0  0  0
  2  8  1  0  0  0  0
  3 10  1  0  0  0  0
  4  1  2  0  0  0  0
  5  9  1  0  0  0  0
  5 12  1  0  0  0  0
  6 31  1  6  0  0  0
  6  2  1  0  0  0  0
  7  3  1  0  0  0  0
  8 13  1  1  0  0  0
  8 11  1  0  0  0  0
  9  1  1  0  0  0  0
 10 11  1  0  0  0  0
 11 16  1  1  0  0  0
 12  7  2  0  0  0  0
 14 20  1  0  0  0  0
 14 15  1  0  0  0  0
 16 18  1  0  0  0  0
 16 19  2  0  0  0  0
 17 15  2  0  0  0  0
 18 14  2  0  0  0  0
 19 17  1  0  0  0  0
 21 23  1  0  0  0  0
 21 22  1  0  0  0  0
 22 28  1  1  0  0  0
 23 27  1  6  0  0  0
 23  9  1  0  0  0  0
 24 27  1  0  0  0  0
 25 24  1  0  0  0  0
 25 26  1  0  0  0  0
 26 22  1  0  0  0  0
 28 29  1  0  0  0  0
 30 29  1  0  0  0  0
 31 32  1  6  0  0  0
 31 34  1  0  0  0  0
 34 33  1  0  0  0  0
M  END
>  <MODEL>
4

>  <REMARK>
 VINA RESULT:      -6.4      4.449      9.280
  Name = 
  6 active torsions:
  status: ('A' for Active; 'I' for Inactive)
    1  A    between atoms: C_1  and  C_15
    2  A    between atoms: C_1  and  C_19
    3  A    between atoms: O_3  and  C_13
    4  A    between atoms: O_3  and  C_17
    5  A    between atoms: C_12  and  C_28
    6  A    between atoms: C_14  and  N_25
                            x       y       z     vdW  Elec       q    Type
                         _______ _______ _______ _____ _____    ______ ____

>  <TORSDO>
F 6

$$$$
=
 OpenBabel11052414023D

 34 37  0  0  1  0  0  0  0  0999 V2000
  182.6900  177.5850  140.1620 C   0  0  0  0  0  0  0  0  0  0  0  0
  183.6570  177.4410  137.8210 C   0  0  2  0  0  3  0  0  0  0  0  0
  186.3260  177.5990  136.4910 O   0  0  0  0  0  0  0  0  0  0  0  0
  181.8370  177.1070  140.9600 O   0  0  0  0  0  0  0  0  0  0  0  0
  184.8250  178.8160  139.7250 C   0  0  0  0  0  2  0  0  0  0  0  0
  182.3930  177.6060  138.6940 C   0  0  2  0  0  3  0  0  0  0  0  0
  186.0610  178.1590  137.7530 C   0  0  0  0  0  3  0  0  0  0  0  0
  183.9700  175.9650  137.5150 C   0  0  2  0  0  3  0  0  0  0  0  0
  183.9260  178.1370  140.6490 N   0  0  0  0  0  0  0  0  0  0  0  0
  185.3400  177.0680  135.6120 C   0  0  0  0  0  2  0  0  0  0  0  0
  184.7040  175.7930  136.1750 C   0  0  1  0  0  3  0  0  0  0  0  0
  184.8870  178.1200  138.3990 C   0  0  0  0  0  0  0  0  0  0  0  0
  182.8090  175.1880  137.4940 O   0  0  0  0  0  1  0  0  0  0  0  0
  187.8870  173.7450  136.5680 C   0  0  0  0  0  0  0  0  0  0  0  0
  187.4560  172.4920  136.1080 C   0  0  0  0  0  3  0  0  0  0  0  0
  185.6660  174.6460  136.1920 C   0  0  0  0  0  0  0  0  0  0  0  0
  186.1370  172.3170  135.6860 C   0  0  0  0  0  3  0  0  0  0  0  0
  186.9940  174.8210  136.6060 C   0  0  0  0  0  3  0  0  0  0  0  0
  185.2440  173.3930  135.7260 C   0  0  0  0  0  3  0  0  0  0  0  0
  189.2930  173.9320  137.0060 C   0  0  0  0  0  1  0  0  0  0  0  0
  185.4270  178.9430  142.2680 O   0  0  0  0  0  0  0  0  0  0  0  0
  186.1310  178.3510  143.3460 C   0  0  1  0  0  3  0  0  0  0  0  0
  184.1920  178.2900  142.0790 C   0  0  1  0  0  3  0  0  0  0  0  0
  183.0140  178.8150  144.2560 C   0  0  0  0  0  2  0  0  0  0  0  0
  184.3330  179.1460  144.9480 C   0  0  0  0  0  2  0  0  0  0  0  0
  185.3600  178.0600  144.6510 C   0  0  0  0  0  2  0  0  0  0  0  0
  183.0680  179.0770  142.7520 C   0  0  0  0  0  2  0  0  0  0  0  0
  187.0250  177.3370  142.9430 O   0  0  0  0  0  0  0  0  0  0  0  0
  188.1050  177.9330  142.2740 C   0  0  0  0  0  2  0  0  0  0  0  0
  187.9050  177.8550  140.9040 F   0  0  0  0  0  0  0  0  0  0  0  0
  181.5120  178.7990  138.2990 C   0  0  2  0  0  3  0  0  0  0  0  0
  181.5870  179.0350  136.7980 C   0  0  0  0  0  1  0  0  0  0  0  0
  181.5360  181.2950  138.2120 C   0  0  0  0  0  1  0  0  0  0  0  0
  181.8450  180.0770  139.0630 C   0  0  0  0  0  2  0  0  0  0  0  0
  1  9  1  0  0  0  0
  1  4  2  0  0  0  0
  2 12  1  1  0  0  0
  2  6  1  0  0  0  0
  3  7  1  0  0  0  0
  5  9  1  0  0  0  0
  6 31  1  6  0  0  0
  6  1  1  0  0  0  0
  7 12  2  0  0  0  0
  8 13  1  6  0  0  0
  8  2  1  0  0  0  0
 10 11  1  0  0  0  0
 10  3  1  0  0  0  0
 11 16  1  1  0  0  0
 11  8  1  0  0  0  0
 12  5  1  0  0  0  0
 14 18  1  0  0  0  0
 14 20  1  0  0  0  0
 15 14  2  0  0  0  0
 16 18  2  0  0  0  0
 17 19  2  0  0  0  0
 17 15  1  0  0  0  0
 19 16  1  0  0  0  0
 21 22  1  0  0  0  0
 22 28  1  6  0  0  0
 22 26  1  0  0  0  0
 23  9  1  6  0  0  0
 23 21  1  0  0  0  0
 23 27  1  0  0  0  0
 24 25  1  0  0  0  0
 26 25  1  0  0  0  0
 27 24  1  0  0  0  0
 29 28  1  0  0  0  0
 30 29  1  0  0  0  0
 31 32  1  6  0  0  0
 31 34  1  0  0  0  0
 33 34  1  0  0  0  0
M  END
>  <MODEL>
5

>  <REMARK>
 VINA RESULT:      -6.4      1.846      2.375
  Name = 
  6 active torsions:
  status: ('A' for Active; 'I' for Inactive)
    1  A    between atoms: C_1  and  C_15
    2  A    between atoms: C_1  and  C_19
    3  A    between atoms: O_3  and  C_13
    4  A    between atoms: O_3  and  C_17
    5  A    between atoms: C_12  and  C_28
    6  A    between atoms: C_14  and  N_25
                            x       y       z     vdW  Elec       q    Type
                         _______ _______ _______ _____ _____    ______ ____

>  <TORSDO>
F 6

$$$$
=
 OpenBabel11052414023D

 34 37  0  0  1  0  0  0  0  0999 V2000
  189.8170  176.7030  139.5250 C   0  0  0  0  0  0  0  0  0  0  0  0
  191.4560  176.3700  137.6180 C   0  0  2  0  0  3  0  0  0  0  0  0
  194.3980  176.0230  137.2320 O   0  0  0  0  0  0  0  0  0  0  0  0
  188.6800  176.3960  139.9760 O   0  0  0  0  0  0  0  0  0  0  0  0
  192.1600  177.5130  139.8720 C   0  0  0  0  0  2  0  0  0  0  0  0
  190.0270  176.7720  138.0430 C   0  0  2  0  0  3  0  0  0  0  0  0
  193.8370  176.6270  138.3710 C   0  0  0  0  0  3  0  0  0  0  0  0
  191.5850  174.8610  137.3460 C   0  0  2  0  0  3  0  0  0  0  0  0
  190.9030  177.0170  140.4160 N   0  0  0  0  0  0  0  0  0  0  0  0
  193.6760  175.6800  136.0530 C   0  0  0  0  0  2  0  0  0  0  0  0
  192.6750  174.5500  136.3070 C   0  0  1  0  0  3  0  0  0  0  0  0
  192.5290  176.8110  138.5990 C   0  0  0  0  0  0  0  0  0  0  0  0
  190.3760  174.3140  136.9070 O   0  0  0  0  0  1  0  0  0  0  0  0
  193.6000  170.8610  136.1820 C   0  0  0  0  0  0  0  0  0  0  0  0
  194.5980  170.8020  137.1660 C   0  0  0  0  0  3  0  0  0  0  0  0
  193.3590  173.2430  136.5680 C   0  0  0  0  0  0  0  0  0  0  0  0
  194.9720  171.9580  137.8530 C   0  0  0  0  0  3  0  0  0  0  0  0
  192.9790  172.0780  135.8870 C   0  0  0  0  0  3  0  0  0  0  0  0
  194.3520  173.1770  137.5560 C   0  0  0  0  0  3  0  0  0  0  0  0
  193.1960  169.6280  135.4590 C   0  0  0  0  0  1  0  0  0  0  0  0
  190.2870  175.8830  142.3800 O   0  0  0  0  0  0  0  0  0  0  0  0
  189.2860  176.0790  143.3640 C   0  0  1  0  0  3  0  0  0  0  0  0
  190.7080  177.1240  141.8610 C   0  0  1  0  0  3  0  0  0  0  0  0
  191.7280  178.1990  143.9120 C   0  0  0  0  0  2  0  0  0  0  0  0
  190.9800  177.2510  144.8440 C   0  0  0  0  0  2  0  0  0  0  0  0
  189.5150  177.1690  144.4320 C   0  0  0  0  0  2  0  0  0  0  0  0
  191.9980  177.5740  142.5450 C   0  0  0  0  0  2  0  0  0  0  0  0
  187.9740  176.0130  142.8500 O   0  0  0  0  0  0  0  0  0  0  0  0
  187.2710  177.1510  143.2730 C   0  0  0  0  0  2  0  0  0  0  0  0
  186.9530  177.9380  142.1770 F   0  0  0  0  0  0  0  0  0  0  0  0
  189.5510  178.1070  137.4550 C   0  0  2  0  0  3  0  0  0  0  0  0
  189.0120  179.0060  138.5570 C   0  0  0  0  0  1  0  0  0  0  0  0
  187.7570  176.6460  136.5130 C   0  0  0  0  0  1  0  0  0  0  0  0
  188.5220  177.9460  136.3390 C   0  0  0  0  0  2  0  0  0  0  0  0
  1  4  2  0  0  0  0
  1  9  1  0  0  0  0
  2  6  1  0  0  0  0
  2 12  1  1  0  0  0
  3  7  1  0  0  0  0
  5  9  1  0  0  0  0
  6 31  1  1  0  0  0
  6  1  1  0  0  0  0
  7 12  2  0  0  0  0
  8 13  1  6  0  0  0
  8  2  1  0  0  0  0
 10 11  1  0  0  0  0
 10  3  1  0  0  0  0
 11 16  1  1  0  0  0
 11  8  1  0  0  0  0
 12  5  1  0  0  0  0
 14 15  1  0  0  0  0
 15 17  2  0  0  0  0
 16 19  2  0  0  0  0
 18 14  2  0  0  0  0
 18 16  1  0  0  0  0
 19 17  1  0  0  0  0
 20 14  1  0  0  0  0
 21 22  1  0  0  0  0
 22 28  1  6  0  0  0
 22 26  1  0  0  0  0
 23  9  1  6  0  0  0
 23 21  1  0  0  0  0
 23 27  1  0  0  0  0
 24 25  1  0  0  0  0
 26 25  1  0  0  0  0
 27 24  1  0  0  0  0
 28 29  1  0  0  0  0
 30 29  1  0  0  0  0
 31 32  1  1  0  0  0
 34 33  1  0  0  0  0
 34 31  1  0  0  0  0
M  END
>  <MODEL>
6

>  <REMARK>
 VINA RESULT:      -6.4      6.399      8.292
  Name = 
  6 active torsions:
  status: ('A' for Active; 'I' for Inactive)
    1  A    between atoms: C_1  and  C_15
    2  A    between atoms: C_1  and  C_19
    3  A    between atoms: O_3  and  C_13
    4  A    between atoms: O_3  and  C_17
    5  A    between atoms: C_12  and  C_28
    6  A    between atoms: C_14  and  N_25
                            x       y       z     vdW  Elec       q    Type
                         _______ _______ _______ _____ _____    ______ ____

>  <TORSDO>
F 6

$$$$
=
 OpenBabel11052414023D

 34 37  0  0  1  0  0  0  0  0999 V2000
  189.1200  176.5000  138.3060 C   0  0  0  0  0  0  0  0  0  0  0  0
  191.2620  176.2990  136.9630 C   0  0  2  0  0  3  0  0  0  0  0  0
  194.2070  176.1960  137.4520 O   0  0  0  0  0  0  0  0  0  0  0  0
  187.9280  176.1010  138.4180 O   0  0  0  0  0  0  0  0  0  0  0  0
  191.1910  177.5030  139.2930 C   0  0  0  0  0  2  0  0  0  0  0  0
  189.7440  176.5820  136.9470 C   0  0  2  0  0  3  0  0  0  0  0  0
  193.2950  176.7550  138.3640 C   0  0  0  0  0  3  0  0  0  0  0  0
  191.5820  174.8050  136.7810 C   0  0  2  0  0  3  0  0  0  0  0  0
  189.8720  176.9060  139.4640 N   0  0  0  0  0  0  0  0  0  0  0  0
  193.8870  175.7910  136.1240 C   0  0  0  0  0  2  0  0  0  0  0  0
  192.9480  174.5820  136.1090 C   0  0  1  0  0  3  0  0  0  0  0  0
  191.9660  176.8300  138.2000 C   0  0  0  0  0  0  0  0  0  0  0  0
  190.6000  174.1580  136.0260 O   0  0  0  0  0  1  0  0  0  0  0  0
  193.9870  170.9420  136.4870 C   0  0  0  0  0  0  0  0  0  0  0  0
  194.8430  171.0220  137.5950 C   0  0  0  0  0  3  0  0  0  0  0  0
  193.6270  173.3380  136.5910 C   0  0  0  0  0  0  0  0  0  0  0  0
  195.0860  172.2540  138.2040 C   0  0  0  0  0  3  0  0  0  0  0  0
  193.3780  172.0970  135.9880 C   0  0  0  0  0  3  0  0  0  0  0  0
  194.4770  173.4100  137.7040 C   0  0  0  0  0  3  0  0  0  0  0  0
  193.7220  169.6280  135.8470 C   0  0  0  0  0  1  0  0  0  0  0  0
  190.2530  177.2410  141.7590 O   0  0  0  0  0  0  0  0  0  0  0  0
  189.9870  176.4850  142.9270 C   0  0  1  0  0  3  0  0  0  0  0  0
  189.2590  177.0010  140.7880 C   0  0  1  0  0  3  0  0  0  0  0  0
  187.2030  177.9140  141.9460 C   0  0  0  0  0  2  0  0  0  0  0  0
  187.8750  177.8340  143.3130 C   0  0  0  0  0  2  0  0  0  0  0  0
  188.5460  176.4770  143.4810 C   0  0  0  0  0  2  0  0  0  0  0  0
  188.2110  178.1120  140.8160 C   0  0  0  0  0  2  0  0  0  0  0  0
  190.6400  175.2340  142.9460 O   0  0  0  0  0  0  0  0  0  0  0  0
  191.6280  175.2610  143.9410 C   0  0  0  0  0  2  0  0  0  0  0  0
  191.7780  176.5560  144.4150 F   0  0  0  0  0  0  0  0  0  0  0  0
  189.3550  177.8710  136.2110 C   0  0  2  0  0  3  0  0  0  0  0  0
  189.0030  178.9630  137.2100 C   0  0  0  0  0  1  0  0  0  0  0  0
  188.1290  176.2180  134.7950 C   0  0  0  0  0  1  0  0  0  0  0  0
  188.2260  177.6770  135.2040 C   0  0  0  0  0  2  0  0  0  0  0  0
  1  4  2  0  0  0  0
  1  9  1  0  0  0  0
  2 12  1  1  0  0  0
  3  7  1  0  0  0  0
  5  9  1  0  0  0  0
  6 31  1  1  0  0  0
  6  2  1  0  0  0  0
  6  1  1  0  0  0  0
  8 13  1  6  0  0  0
  8  2  1  0  0  0  0
 10  3  1  0  0  0  0
 11 10  1  0  0  0  0
 11 16  1  1  0  0  0
 11  8  1  0  0  0  0
 12  7  2  0  0  0  0
 12  5  1  0  0  0  0
 14 15  1  0  0  0  0
 15 17  2  0  0  0  0
 16 19  2  0  0  0  0
 18 14  2  0  0  0  0
 18 16  1  0  0  0  0
 19 17  1  0  0  0  0
 20 14  1  0  0  0  0
 21 22  1  0  0  0  0
 22 28  1  6  0  0  0
 22 26  1  0  0  0  0
 23  9  1  6  0  0  0
 23 27  1  0  0  0  0
 23 21  1  0  0  0  0
 24 25  1  0  0  0  0
 25 26  1  0  0  0  0
 27 24  1  0  0  0  0
 28 29  1  0  0  0  0
 29 30  1  0  0  0  0
 31 32  1  1  0  0  0
 33 34  1  0  0  0  0
 34 31  1  0  0  0  0
M  END
>  <MODEL>
7

>  <REMARK>
 VINA RESULT:      -6.4      6.438      8.188
  Name = 
  6 active torsions:
  status: ('A' for Active; 'I' for Inactive)
    1  A    between atoms: C_1  and  C_15
    2  A    between atoms: C_1  and  C_19
    3  A    between atoms: O_3  and  C_13
    4  A    between atoms: O_3  and  C_17
    5  A    between atoms: C_12  and  C_28
    6  A    between atoms: C_14  and  N_25
                            x       y       z     vdW  Elec       q    Type
                         _______ _______ _______ _____ _____    ______ ____

>  <TORSDO>
F 6

$$$$
=
 OpenBabel11052414023D

 34 37  0  0  1  0  0  0  0  0999 V2000
  189.5350  174.2180  137.0080 C   0  0  0  0  0  0  0  0  0  0  0  0
  189.5370  176.6210  137.8210 C   0  0  2  0  0  3  0  0  0  0  0  0
  187.5680  178.8050  138.3480 O   0  0  0  0  0  0  0  0  0  0  0  0
  190.0400  173.0730  137.1660 O   0  0  0  0  0  0  0  0  0  0  0  0
  187.6730  175.6960  136.2220 C   0  0  0  0  0  2  0  0  0  0  0  0
  190.3660  175.4330  137.2840 C   0  0  2  0  0  3  0  0  0  0  0  0
  187.3100  177.7280  137.4820 C   0  0  0  0  0  3  0  0  0  0  0  0
  189.4290  176.6140  139.3560 C   0  0  2  0  0  3  0  0  0  0  0  0
  188.1830  174.3680  136.5380 N   0  0  0  0  0  0  0  0  0  0  0  0
  188.8370  179.1000  138.9240 C   0  0  0  0  0  2  0  0  0  0  0  0
  189.2670  178.0310  139.9320 C   0  0  1  0  0  3  0  0  0  0  0  0
  188.1500  176.7210  137.2060 C   0  0  0  0  0  0  0  0  0  0  0  0
  190.5440  176.0130  139.9460 O   0  0  0  0  0  1  0  0  0  0  0  0
  188.0920  177.5650  143.5210 C   0  0  0  0  0  0  0  0  0  0  0  0
  186.7690  178.0210  143.4300 C   0  0  0  0  0  3  0  0  0  0  0  0
  188.4220  178.0530  141.1680 C   0  0  0  0  0  0  0  0  0  0  0  0
  186.2710  178.4860  142.2120 C   0  0  0  0  0  3  0  0  0  0  0  0
  188.9160  177.5780  142.3920 C   0  0  0  0  0  3  0  0  0  0  0  0
  187.0960  178.5000  141.0820 C   0  0  0  0  0  3  0  0  0  0  0  0
  188.6160  177.0610  144.8160 C   0  0  0  0  0  1  0  0  0  0  0  0
  186.0580  173.6260  135.8620 O   0  0  0  0  0  0  0  0  0  0  0  0
  185.1560  172.6410  136.3360 C   0  0  1  0  0  3  0  0  0  0  0  0
  187.3870  173.2220  136.0990 C   0  0  1  0  0  3  0  0  0  0  0  0
  187.5440  171.1540  134.6490 C   0  0  0  0  0  2  0  0  0  0  0  0
  186.0260  171.0160  134.5940 C   0  0  0  0  0  2  0  0  0  0  0  0
  185.4420  171.1630  135.9930 C   0  0  0  0  0  2  0  0  0  0  0  0
  187.9870  172.6040  134.8370 C   0  0  0  0  0  2  0  0  0  0  0  0
  184.7150  172.8720  137.6560 O   0  0  0  0  0  0  0  0  0  0  0  0
  184.1590  174.1580  137.7220 C   0  0  0  0  0  2  0  0  0  0  0  0
  182.7920  174.0870  137.5000 F   0  0  0  0  0  0  0  0  0  0  0  0
  191.2770  175.7900  136.1010 C   0  0  2  0  0  3  0  0  0  0  0  0
  191.1200  174.7650  134.9880 C   0  0  0  0  0  1  0  0  0  0  0  0
  193.0860  175.0030  137.6330 C   0  0  0  0  0  1  0  0  0  0  0  0
  192.7440  175.9420  136.4910 C   0  0  0  0  0  2  0  0  0  0  0  0
  1  4  2  0  0  0  0
  1  6  1  0  0  0  0
  2 12  1  6  0  0  0
  2  8  1  0  0  0  0
  3 10  1  0  0  0  0
  5  9  1  0  0  0  0
  5 12  1  0  0  0  0
  6 31  1  6  0  0  0
  6  2  1  0  0  0  0
  7  3  1  0  0  0  0
  8 11  1  0  0  0  0
  8 13  1  1  0  0  0
  9  1  1  0  0  0  0
 10 11  1  0  0  0  0
 11 16  1  1  0  0  0
 12  7  2  0  0  0  0
 14 20  1  0  0  0  0
 15 14  1  0  0  0  0
 16 18  1  0  0  0  0
 17 15  2  0  0  0  0
 18 14  2  0  0  0  0
 19 16  2  0  0  0  0
 19 17  1  0  0  0  0
 21 23  1  0  0  0  0
 21 22  1  0  0  0  0
 22 28  1  1  0  0  0
 23 27  1  6  0  0  0
 23  9  1  0  0  0  0
 24 27  1  0  0  0  0
 25 24  1  0  0  0  0
 25 26  1  0  0  0  0
 26 22  1  0  0  0  0
 28 29  1  0  0  0  0
 30 29  1  0  0  0  0
 31 32  1  6  0  0  0
 31 34  1  0  0  0  0
 34 33  1  0  0  0  0
M  END
>  <MODEL>
8

>  <REMARK>
 VINA RESULT:      -6.2      4.581      9.419
  Name = 
  6 active torsions:
  status: ('A' for Active; 'I' for Inactive)
    1  A    between atoms: C_1  and  C_15
    2  A    between atoms: C_1  and  C_19
    3  A    between atoms: O_3  and  C_13
    4  A    between atoms: O_3  and  C_17
    5  A    between atoms: C_12  and  C_28
    6  A    between atoms: C_14  and  N_25
                            x       y       z     vdW  Elec       q    Type
                         _______ _______ _______ _____ _____    ______ ____

>  <TORSDO>
F 6

$$$$
=
 OpenBabel11052414023D

 34 37  0  0  1  0  0  0  0  0999 V2000
  184.2490  177.0090  136.9960 C   0  0  0  0  0  0  0  0  0  0  0  0
  182.0550  178.0600  137.7160 C   0  0  2  0  0  3  0  0  0  0  0  0
  181.1140  180.4480  139.2440 O   0  0  0  0  0  0  0  0  0  0  0  0
  184.8540  176.4170  136.0610 O   0  0  0  0  0  0  0  0  0  0  0  0
  184.2710  178.3980  139.0790 C   0  0  0  0  0  2  0  0  0  0  0  0
  182.7740  176.8100  137.1600 C   0  0  2  0  0  3  0  0  0  0  0  0
  182.3990  179.8970  139.3910 C   0  0  0  0  0  3  0  0  0  0  0  0
  181.5830  179.0090  136.6010 C   0  0  2  0  0  3  0  0  0  0  0  0
  184.9650  177.8460  137.9230 N   0  0  0  0  0  0  0  0  0  0  0  0
  180.0490  179.8450  138.5150 C   0  0  0  0  0  2  0  0  0  0  0  0
  180.3370  179.8120  137.0110 C   0  0  1  0  0  3  0  0  0  0  0  0
  182.8770  178.8300  138.7360 C   0  0  0  0  0  0  0  0  0  0  0  0
  181.3020  178.3150  135.4210 O   0  0  0  0  0  1  0  0  0  0  0  0
  180.7660  183.5600  136.5170 C   0  0  0  0  0  0  0  0  0  0  0  0
  180.1470  183.7380  135.2710 C   0  0  0  0  0  3  0  0  0  0  0  0
  180.3110  181.1800  136.4040 C   0  0  0  0  0  0  0  0  0  0  0  0
  179.6070  182.6420  134.5950 C   0  0  0  0  0  3  0  0  0  0  0  0
  180.8440  182.2850  137.0840 C   0  0  0  0  0  3  0  0  0  0  0  0
  179.6880  181.3650  135.1620 C   0  0  0  0  0  3  0  0  0  0  0  0
  181.3300  184.7290  137.2390 C   0  0  0  0  0  1  0  0  0  0  0  0
  186.8300  178.8870  136.9410 O   0  0  0  0  0  0  0  0  0  0  0  0
  187.9760  178.4180  136.2510 C   0  0  1  0  0  3  0  0  0  0  0  0
  186.4240  177.9430  137.9060 C   0  0  1  0  0  3  0  0  0  0  0  0
  188.4160  177.9410  139.4670 C   0  0  0  0  0  2  0  0  0  0  0  0
  189.3160  178.5560  138.4000 C   0  0  0  0  0  2  0  0  0  0  0  0
  189.1320  177.8190  137.0800 C   0  0  0  0  0  2  0  0  0  0  0  0
  186.9520  178.3350  139.2860 C   0  0  0  0  0  2  0  0  0  0  0  0
  187.6700  177.7220  135.0630 O   0  0  0  0  0  0  0  0  0  0  0  0
  188.4040  176.5280  135.0430 C   0  0  0  0  0  2  0  0  0  0  0  0
  187.7330  175.5550  135.7700 F   0  0  0  0  0  0  0  0  0  0  0  0
  182.4460  175.5140  137.9130 C   0  0  2  0  0  3  0  0  0  0  0  0
  182.5080  174.3250  136.9660 C   0  0  0  0  0  1  0  0  0  0  0  0
  180.0050  175.0120  137.7450 C   0  0  0  0  0  1  0  0  0  0  0  0
  181.1050  175.5570  138.6390 C   0  0  0  0  0  2  0  0  0  0  0  0
  1  6  1  0  0  0  0
  1  9  1  0  0  0  0
  2 12  1  1  0  0  0
  3  7  1  0  0  0  0
  4  1  2  0  0  0  0
  6  2  1  0  0  0  0
  6 31  1  1  0  0  0
  8 13  1  6  0  0  0
  8 11  1  0  0  0  0
  8  2  1  0  0  0  0
  9  5  1  0  0  0  0
 10  3  1  0  0  0  0
 11 16  1  1  0  0  0
 11 10  1  0  0  0  0
 12  5  1  0  0  0  0
 12  7  2  0  0  0  0
 14 18  1  0  0  0  0
 14 20  1  0  0  0  0
 15 14  2  0  0  0  0
 16 18  2  0  0  0  0
 17 19  2  0  0  0  0
 17 15  1  0  0  0  0
 19 16  1  0  0  0  0
 21 23  1  0  0  0  0
 22 28  1  6  0  0  0
 22 21  1  0  0  0  0
 22 26  1  0  0  0  0
 23  9  1  1  0  0  0
 23 27  1  0  0  0  0
 25 24  1  0  0  0  0
 26 25  1  0  0  0  0
 27 24  1  0  0  0  0
 29 28  1  0  0  0  0
 29 30  1  0  0  0  0
 31 32  1  6  0  0  0
 31 34  1  0  0  0  0
 33 34  1  0  0  0  0
M  END
>  <MODEL>
9

>  <REMARK>
 VINA RESULT:      -5.9      3.466      7.043
  Name = 
  6 active torsions:
  status: ('A' for Active; 'I' for Inactive)
    1  A    between atoms: C_1  and  C_15
    2  A    between atoms: C_1  and  C_19
    3  A    between atoms: O_3  and  C_13
    4  A    between atoms: O_3  and  C_17
    5  A    between atoms: C_12  and  C_28
    6  A    between atoms: C_14  and  N_25
                            x       y       z     vdW  Elec       q    Type
                         _______ _______ _______ _____ _____    ______ ____

>  <TORSDO>
F 6

$$$$
