=
 OpenBabel11052413323D

 28 32  0  0  1  0  0  0  0  0999 V2000
  188.9200  177.1230  138.9480 N   0  0  0  0  0  0  0  0  0  0  0  0
  184.6980  179.1110  138.7230 C   0  0  0  0  0  3  0  0  0  0  0  0
  187.4470  176.9950  134.5950 C   0  0  0  0  0  1  0  0  0  0  0  0
  184.2670  176.7730  138.2290 C   0  0  0  0  0  0  0  0  0  0  0  0
  186.3140  177.8730  137.2070 C   0  0  1  0  0  3  0  0  0  0  0  0
  182.7350  178.0230  139.6350 C   0  0  0  0  0  0  0  0  0  0  0  0
  185.0930  177.9120  138.1060 C   0  0  0  0  0  0  0  0  0  0  0  0
  185.6410  175.6830  136.4640 C   0  0  0  0  0  2  0  0  0  0  0  0
  183.1050  176.8310  139.0060 C   0  0  0  0  0  3  0  0  0  0  0  0
  189.0650  177.2820  136.4650 C   0  0  2  0  0  3  0  0  0  0  0  0
  187.4630  178.7410  137.7650 C   0  0  0  0  0  2  0  0  0  0  0  0
  184.6460  175.4670  137.5960 C   0  0  0  0  0  2  0  0  0  0  0  0
  190.2330  175.6220  137.5420 C   0  0  0  0  0  2  0  0  0  0  0  0
  187.8610  176.4660  135.9670 C   0  0  1  0  0  3  0  0  0  0  0  0
  190.2660  176.5330  136.4670 O   0  0  0  0  0  0  0  0  0  0  0  0
  181.2800  178.0850  140.6040 Cl  0  0  0  0  0  0  0  0  0  0  0  0
  183.5290  179.1630  139.4880 C   0  0  0  0  0  3  0  0  0  0  0  0
  186.7610  176.4880  136.9530 N   0  0  1  0  0  0  0  0  0  0  0  0
  190.1750  176.3770  138.8640 C   0  0  0  0  0  2  0  0  0  0  0  0
  188.8280  178.0320  137.7970 C   0  0  1  0  0  3  0  0  0  0  0  0
  189.0150  177.9490  140.1470 C   0  0  0  0  0  2  0  0  0  0  0  0
  188.0100  177.5210  141.2150 C   0  0  2  0  0  3  0  0  0  0  0  0
  186.6930  177.5320  143.7590 C   0  0  0  0  0  0  0  0  0  0  0  0
  187.0070  178.6310  141.5410 C   0  0  0  0  0  2  0  0  0  0  0  0
  188.6850  176.9950  142.4550 C   0  0  0  0  0  3  0  0  0  0  0  0
  188.0530  176.9800  143.6310 C   0  0  0  0  0  3  0  0  0  0  0  0
  186.1080  177.4930  144.8720 O   0  0  0  0  0  0  0  0  0  0  0  0
  185.9930  178.1190  142.5650 C   0  0  0  0  0  2  0  0  0  0  0  0
  1 21  1  0  0  0  0
  2 17  1  0  0  0  0
  4  9  2  0  0  0  0
  5 11  1  1  0  0  0
  5  7  1  0  0  0  0
  6 16  1  0  0  0  0
  7  4  1  0  0  0  0
  7  2  2  0  0  0  0
  8 12  1  0  0  0  0
  9  6  1  0  0  0  0
 10 15  1  1  0  0  0
 10 20  1  0  0  0  0
 12  4  1  0  0  0  0
 13 19  1  0  0  0  0
 14  3  1  6  0  0  0
 14 10  1  0  0  0  0
 14 18  1  0  0  0  0
 15 13  1  0  0  0  0
 17  6  2  0  0  0  0
 18  8  1  6  0  0  0
 18  5  1  0  0  0  0
 19  1  1  0  0  0  0
 20 11  1  6  0  0  0
 20  1  1  0  0  0  0
 22 21  1  6  0  0  0
 22 24  1  0  0  0  0
 22 25  1  0  0  0  0
 23 27  2  0  0  0  0
 24 28  1  0  0  0  0
 25 26  2  0  0  0  0
 26 23  1  0  0  0  0
 28 23  1  0  0  0  0
M  END
>  <MODEL>
1

>  <REMARK>
 VINA RESULT:      -6.5      0.000      0.000
  Name = 
  2 active torsions:
  status: ('A' for Active; 'I' for Inactive)
    1  A    between atoms: N_1  and  C_2
    2  A    between atoms: C_2  and  C_3
                            x       y       z     vdW  Elec       q    Type
                         _______ _______ _______ _____ _____    ______ ____

>  <TORSDO>
F 2

$$$$
=
 OpenBabel11052413323D

 28 32  0  0  1  0  0  0  0  0999 V2000
  188.8460  177.2440  139.5180 N   0  0  0  0  0  0  0  0  0  0  0  0
  184.5650  177.9390  137.7800 C   0  0  0  0  0  3  0  0  0  0  0  0
  188.9510  176.5260  134.9780 C   0  0  0  0  0  1  0  0  0  0  0  0
  184.9330  175.5570  137.4860 C   0  0  0  0  0  0  0  0  0  0  0  0
  186.8470  177.1510  136.9930 C   0  0  1  0  0  3  0  0  0  0  0  0
  182.7620  176.3760  138.1930 C   0  0  0  0  0  0  0  0  0  0  0  0
  185.4330  176.8780  137.4710 C   0  0  0  0  0  0  0  0  0  0  0  0
  187.0360  174.8320  136.3710 C   0  0  0  0  0  2  0  0  0  0  0  0
  183.6090  175.3140  137.8640 C   0  0  0  0  0  3  0  0  0  0  0  0
  189.7440  177.3370  137.1940 C   0  0  2  0  0  3  0  0  0  0  0  0
  187.4890  178.3320  137.7530 C   0  0  0  0  0  2  0  0  0  0  0  0
  185.8180  174.3880  137.1700 C   0  0  0  0  0  2  0  0  0  0  0  0
  190.8840  176.1230  138.7770 C   0  0  0  0  0  2  0  0  0  0  0  0
  189.0180  176.1930  136.4670 C   0  0  1  0  0  3  0  0  0  0  0  0
  191.0280  176.9610  137.6540 O   0  0  0  0  0  0  0  0  0  0  0  0
  181.1060  176.0600  138.6640 Cl  0  0  0  0  0  0  0  0  0  0  0  0
  183.2390  177.6880  138.1450 C   0  0  0  0  0  3  0  0  0  0  0  0
  187.6910  175.9410  137.0650 N   0  0  1  0  0  0  0  0  0  0  0  0
  190.2080  176.8840  139.9120 C   0  0  0  0  0  2  0  0  0  0  0  0
  188.9030  178.0430  138.2840 C   0  0  1  0  0  3  0  0  0  0  0  0
  188.3330  178.1120  140.5720 C   0  0  0  0  0  2  0  0  0  0  0  0
  188.5050  177.4890  141.9560 C   0  0  2  0  0  3  0  0  0  0  0  0
  188.5670  177.3860  144.8190 C   0  0  0  0  0  0  0  0  0  0  0  0
  187.1900  177.4490  142.7400 C   0  0  0  0  0  2  0  0  0  0  0  0
  189.6060  178.1480  142.7450 C   0  0  0  0  0  3  0  0  0  0  0  0
  189.6400  178.0720  144.0790 C   0  0  0  0  0  3  0  0  0  0  0  0
  188.6270  177.3110  146.0740 O   0  0  0  0  0  0  0  0  0  0  0  0
  187.4160  176.7580  144.0850 C   0  0  0  0  0  2  0  0  0  0  0  0
  1 19  1  0  0  0  0
  1 21  1  0  0  0  0
  2 17  1  0  0  0  0
  4  9  2  0  0  0  0
  5 18  1  0  0  0  0
  5  7  1  0  0  0  0
  5 11  1  1  0  0  0
  6 16  1  0  0  0  0
  7  4  1  0  0  0  0
  7  2  2  0  0  0  0
  8 12  1  0  0  0  0
  9  6  1  0  0  0  0
 10 15  1  1  0  0  0
 10 20  1  0  0  0  0
 12  4  1  0  0  0  0
 13 19  1  0  0  0  0
 14  3  1  6  0  0  0
 14 18  1  0  0  0  0
 14 10  1  0  0  0  0
 15 13  1  0  0  0  0
 17  6  2  0  0  0  0
 18  8  1  6  0  0  0
 20 11  1  6  0  0  0
 20  1  1  0  0  0  0
 22 21  1  6  0  0  0
 22 24  1  0  0  0  0
 22 25  1  0  0  0  0
 23 27  2  0  0  0  0
 24 28  1  0  0  0  0
 25 26  2  0  0  0  0
 26 23  1  0  0  0  0
 28 23  1  0  0  0  0
M  END
>  <MODEL>
2

>  <REMARK>
 VINA RESULT:      -6.4      1.350      1.640
  Name = 
  2 active torsions:
  status: ('A' for Active; 'I' for Inactive)
    1  A    between atoms: N_1  and  C_2
    2  A    between atoms: C_2  and  C_3
                            x       y       z     vdW  Elec       q    Type
                         _______ _______ _______ _____ _____    ______ ____

>  <TORSDO>
F 2

$$$$
=
 OpenBabel11052413323D

 28 32  0  0  1  0  0  0  0  0999 V2000
  188.5630  176.7120  142.1960 N   0  0  0  0  0  0  0  0  0  0  0  0
  187.6830  178.4910  137.9660 C   0  0  0  0  0  3  0  0  0  0  0  0
  192.5450  177.8780  140.2170 C   0  0  0  0  0  1  0  0  0  0  0  0
  188.8330  176.4060  137.4930 C   0  0  0  0  0  0  0  0  0  0  0  0
  189.6810  177.8540  139.3980 C   0  0  1  0  0  3  0  0  0  0  0  0
  186.9460  177.0910  136.1320 C   0  0  0  0  0  0  0  0  0  0  0  0
  188.6850  177.5600  138.2920 C   0  0  0  0  0  0  0  0  0  0  0  0
  190.9920  175.9760  138.6530 C   0  0  0  0  0  2  0  0  0  0  0  0
  187.9530  176.1700  136.4310 C   0  0  0  0  0  3  0  0  0  0  0  0
  190.8720  177.6400  142.0440 C   0  0  2  0  0  3  0  0  0  0  0  0
  189.0100  178.5540  140.6000 C   0  0  0  0  0  2  0  0  0  0  0  0
  189.8820  175.3780  137.8000 C   0  0  0  0  0  2  0  0  0  0  0  0
  190.5050  175.7790  143.3410 C   0  0  0  0  0  2  0  0  0  0  0  0
  191.4630  176.9680  140.7940 C   0  0  1  0  0  3  0  0  0  0  0  0
  191.2370  176.9780  143.2410 O   0  0  0  0  0  0  0  0  0  0  0  0
  185.8500  176.7880  134.8020 Cl  0  0  0  0  0  0  0  0  0  0  0  0
  186.8150  178.2530  136.8960 C   0  0  0  0  0  3  0  0  0  0  0  0
  190.4040  176.6370  139.8180 N   0  0  1  0  0  0  0  0  0  0  0  0
  189.0150  176.0830  143.4360 C   0  0  0  0  0  2  0  0  0  0  0  0
  189.3540  177.9290  141.9630 C   0  0  1  0  0  3  0  0  0  0  0  0
  187.1840  177.1290  142.4290 C   0  0  0  0  0  2  0  0  0  0  0  0
  187.0340  177.8850  143.7480 C   0  0  2  0  0  3  0  0  0  0  0  0
  185.8410  178.6330  146.2440 C   0  0  0  0  0  0  0  0  0  0  0  0
  187.1800  176.9630  144.9620 C   0  0  0  0  0  2  0  0  0  0  0  0
  185.7580  178.6850  143.8040 C   0  0  0  0  0  3  0  0  0  0  0  0
  185.2250  179.0510  144.9730 C   0  0  0  0  0  3  0  0  0  0  0  0
  185.3330  179.0030  147.3330 O   0  0  0  0  0  0  0  0  0  0  0  0
  187.0850  177.7880  146.2460 C   0  0  0  0  0  2  0  0  0  0  0  0
  1 21  1  0  0  0  0
  1 19  1  0  0  0  0
  2  7  1  0  0  0  0
  4 12  1  0  0  0  0
  4  7  2  0  0  0  0
  5 18  1  0  0  0  0
  5 11  1  1  0  0  0
  6  9  2  0  0  0  0
  6 17  1  0  0  0  0
  7  5  1  0  0  0  0
  9  4  1  0  0  0  0
 10 15  1  1  0  0  0
 12  8  1  0  0  0  0
 13 19  1  0  0  0  0
 14  3  1  6  0  0  0
 14 10  1  0  0  0  0
 15 13  1  0  0  0  0
 16  6  1  0  0  0  0
 17  2  2  0  0  0  0
 18  8  1  6  0  0  0
 18 14  1  0  0  0  0
 20 11  1  6  0  0  0
 20 10  1  0  0  0  0
 20  1  1  0  0  0  0
 22 21  1  6  0  0  0
 22 25  1  0  0  0  0
 22 24  1  0  0  0  0
 23 28  1  0  0  0  0
 23 27  2  0  0  0  0
 24 28  1  0  0  0  0
 25 26  2  0  0  0  0
 26 23  1  0  0  0  0
M  END
>  <MODEL>
3

>  <REMARK>
 VINA RESULT:      -6.1      3.022      4.785
  Name = 
  2 active torsions:
  status: ('A' for Active; 'I' for Inactive)
    1  A    between atoms: N_1  and  C_2
    2  A    between atoms: C_2  and  C_3
                            x       y       z     vdW  Elec       q    Type
                         _______ _______ _______ _____ _____    ______ ____

>  <TORSDO>
F 2

$$$$
=
 OpenBabel11052413323D

 28 32  0  0  1  0  0  0  0  0999 V2000
  189.2110  177.2810  139.0210 N   0  0  0  0  0  0  0  0  0  0  0  0
  184.9280  177.6500  137.1920 C   0  0  0  0  0  3  0  0  0  0  0  0
  189.3070  175.7450  134.6890 C   0  0  0  0  0  1  0  0  0  0  0  0
  185.2940  175.2540  137.3380 C   0  0  0  0  0  0  0  0  0  0  0  0
  187.2070  176.7300  136.5580 C   0  0  1  0  0  3  0  0  0  0  0  0
  183.1240  176.1900  137.8870 C   0  0  0  0  0  0  0  0  0  0  0  0
  185.7940  176.5500  137.0810 C   0  0  0  0  0  0  0  0  0  0  0  0
  187.3940  174.3360  136.3710 C   0  0  0  0  0  2  0  0  0  0  0  0
  183.9690  175.0850  137.7560 C   0  0  0  0  0  3  0  0  0  0  0  0
  190.1050  176.9470  136.7180 C   0  0  2  0  0  3  0  0  0  0  0  0
  187.8510  178.0300  137.0890 C   0  0  0  0  0  2  0  0  0  0  0  0
  186.1770  174.0470  137.2400 C   0  0  0  0  0  2  0  0  0  0  0  0
  191.2460  176.0420  138.4950 C   0  0  0  0  0  2  0  0  0  0  0  0
  189.3770  175.6900  136.2140 C   0  0  1  0  0  3  0  0  0  0  0  0
  191.3890  176.6610  137.2370 O   0  0  0  0  0  0  0  0  0  0  0  0
  181.4690  175.9680  138.4100 Cl  0  0  0  0  0  0  0  0  0  0  0  0
  183.6020  177.4710  137.5990 C   0  0  0  0  0  3  0  0  0  0  0  0
  188.0510  175.5530  136.8500 N   0  0  1  0  0  0  0  0  0  0  0  0
  190.5730  176.9980  139.4720 C   0  0  0  0  0  2  0  0  0  0  0  0
  189.2660  177.8410  137.6620 C   0  0  1  0  0  3  0  0  0  0  0  0
  188.7000  178.3270  139.9000 C   0  0  0  0  0  2  0  0  0  0  0  0
  187.8480  177.7540  141.0320 C   0  0  2  0  0  3  0  0  0  0  0  0
  186.7990  177.5110  143.6870 C   0  0  0  0  0  0  0  0  0  0  0  0
  186.7910  178.7490  141.5200 C   0  0  0  0  0  2  0  0  0  0  0  0
  188.6870  177.2270  142.1660 C   0  0  0  0  0  3  0  0  0  0  0  0
  188.1810  177.0930  143.3950 C   0  0  0  0  0  3  0  0  0  0  0  0
  186.3350  177.3610  144.8460 O   0  0  0  0  0  0  0  0  0  0  0  0
  185.9340  178.0940  142.6040 C   0  0  0  0  0  2  0  0  0  0  0  0
  1 19  1  0  0  0  0
  1 21  1  0  0  0  0
  2 17  1  0  0  0  0
  4  9  2  0  0  0  0
  5 18  1  0  0  0  0
  5  7  1  0  0  0  0
  5 11  1  1  0  0  0
  6 16  1  0  0  0  0
  7  2  2  0  0  0  0
  7  4  1  0  0  0  0
  8 12  1  0  0  0  0
  9  6  1  0  0  0  0
 10 15  1  1  0  0  0
 10 20  1  0  0  0  0
 12  4  1  0  0  0  0
 13 19  1  0  0  0  0
 14  3  1  6  0  0  0
 14 10  1  0  0  0  0
 14 18  1  0  0  0  0
 15 13  1  0  0  0  0
 17  6  2  0  0  0  0
 18  8  1  6  0  0  0
 20 11  1  6  0  0  0
 20  1  1  0  0  0  0
 22 21  1  6  0  0  0
 22 24  1  0  0  0  0
 22 25  1  0  0  0  0
 23 27  2  0  0  0  0
 24 28  1  0  0  0  0
 25 26  2  0  0  0  0
 26 23  1  0  0  0  0
 28 23  1  0  0  0  0
M  END
>  <MODEL>
4

>  <REMARK>
 VINA RESULT:      -6.1      1.320      1.588
  Name = 
  2 active torsions:
  status: ('A' for Active; 'I' for Inactive)
    1  A    between atoms: N_1  and  C_2
    2  A    between atoms: C_2  and  C_3
                            x       y       z     vdW  Elec       q    Type
                         _______ _______ _______ _____ _____    ______ ____

>  <TORSDO>
F 2

$$$$
=
 OpenBabel11052413323D

 28 32  0  0  1  0  0  0  0  0999 V2000
  188.7650  177.4000  139.0430 N   0  0  0  0  0  0  0  0  0  0  0  0
  184.3080  177.9890  137.7710 C   0  0  0  0  0  3  0  0  0  0  0  0
  188.3000  176.1650  134.6380 C   0  0  0  0  0  1  0  0  0  0  0  0
  184.6160  175.5810  137.7140 C   0  0  0  0  0  0  0  0  0  0  0  0
  186.4680  177.0650  136.8080 C   0  0  1  0  0  3  0  0  0  0  0  0
  182.5560  176.5250  138.5800 C   0  0  0  0  0  0  0  0  0  0  0  0
  185.1220  176.8800  137.4840 C   0  0  0  0  0  0  0  0  0  0  0  0
  186.5590  174.6860  136.4420 C   0  0  0  0  0  2  0  0  0  0  0  0
  183.3470  175.4130  138.2760 C   0  0  0  0  0  3  0  0  0  0  0  0
  189.3690  177.2070  136.6310 C   0  0  2  0  0  3  0  0  0  0  0  0
  187.2090  178.3100  137.3420 C   0  0  0  0  0  2  0  0  0  0  0  0
  185.4450  174.3640  137.4300 C   0  0  0  0  0  2  0  0  0  0  0  0
  190.6850  176.1560  138.1940 C   0  0  0  0  0  2  0  0  0  0  0  0
  188.5490  176.0040  136.1370 C   0  0  1  0  0  3  0  0  0  0  0  0
  190.6970  176.8560  136.9720 O   0  0  0  0  0  0  0  0  0  0  0  0
  180.9690  176.3040  139.2830 Cl  0  0  0  0  0  0  0  0  0  0  0  0
  183.0350  177.8120  138.3220 C   0  0  0  0  0  3  0  0  0  0  0  0
  187.3040  175.8520  136.9180 N   0  0  1  0  0  0  0  0  0  0  0  0
  190.1620  177.0560  139.3060 C   0  0  0  0  0  2  0  0  0  0  0  0
  188.6760  178.0510  137.7270 C   0  0  1  0  0  3  0  0  0  0  0  0
  188.3940  178.3940  140.0440 C   0  0  0  0  0  2  0  0  0  0  0  0
  187.2150  177.9290  140.8980 C   0  0  2  0  0  3  0  0  0  0  0  0
  185.3170  177.9960  143.0430 C   0  0  0  0  0  0  0  0  0  0  0  0
  186.0350  178.9020  140.8320 C   0  0  0  0  0  2  0  0  0  0  0  0
  187.6210  177.6370  142.3190 C   0  0  0  0  0  3  0  0  0  0  0  0
  186.7230  177.6450  143.3080 C   0  0  0  0  0  3  0  0  0  0  0  0
  184.4840  177.9810  143.9850 O   0  0  0  0  0  0  0  0  0  0  0  0
  184.8690  178.3480  141.6520 C   0  0  0  0  0  2  0  0  0  0  0  0
  1 19  1  0  0  0  0
  1 21  1  0  0  0  0
  2 17  1  0  0  0  0
  4  9  2  0  0  0  0
  5 18  1  0  0  0  0
  5 11  1  1  0  0  0
  5  7  1  0  0  0  0
  6 16  1  0  0  0  0
  7  4  1  0  0  0  0
  7  2  2  0  0  0  0
  8 12  1  0  0  0  0
  9  6  1  0  0  0  0
 10 15  1  1  0  0  0
 10 20  1  0  0  0  0
 12  4  1  0  0  0  0
 13 19  1  0  0  0  0
 14  3  1  6  0  0  0
 14 10  1  0  0  0  0
 14 18  1  0  0  0  0
 15 13  1  0  0  0  0
 17  6  2  0  0  0  0
 18  8  1  6  0  0  0
 20 11  1  6  0  0  0
 20  1  1  0  0  0  0
 22 21  1  6  0  0  0
 22 25  1  0  0  0  0
 23 26  1  0  0  0  0
 23 27  2  0  0  0  0
 24 22  1  0  0  0  0
 24 28  1  0  0  0  0
 25 26  2  0  0  0  0
 28 23  1  0  0  0  0
M  END
>  <MODEL>
5

>  <REMARK>
 VINA RESULT:      -6.0      1.110      1.275
  Name = 
  2 active torsions:
  status: ('A' for Active; 'I' for Inactive)
    1  A    between atoms: N_1  and  C_2
    2  A    between atoms: C_2  and  C_3
                            x       y       z     vdW  Elec       q    Type
                         _______ _______ _______ _____ _____    ______ ____

>  <TORSDO>
F 2

$$$$
=
 OpenBabel11052413323D

 28 32  0  0  1  0  0  0  0  0999 V2000
  188.5810  177.7340  140.6980 N   0  0  0  0  0  0  0  0  0  0  0  0
  186.9800  178.2200  136.3360 C   0  0  0  0  0  3  0  0  0  0  0  0
  191.8260  176.3310  137.7590 C   0  0  0  0  0  1  0  0  0  0  0  0
  187.1540  175.8160  136.6280 C   0  0  0  0  0  0  0  0  0  0  0  0
  189.0130  177.2880  137.5360 C   0  0  1  0  0  3  0  0  0  0  0  0
  185.2570  176.7650  135.4500 C   0  0  0  0  0  0  0  0  0  0  0  0
  187.6680  177.1110  136.8570 C   0  0  0  0  0  0  0  0  0  0  0  0
  189.3080  174.8980  137.4700 C   0  0  0  0  0  2  0  0  0  0  0  0
  185.9450  175.6530  135.9430 C   0  0  0  0  0  3  0  0  0  0  0  0
  190.8760  177.4590  139.7650 C   0  0  2  0  0  3  0  0  0  0  0  0
  189.0500  178.5610  138.4100 C   0  0  0  0  0  2  0  0  0  0  0  0
  187.8460  174.5990  137.1670 C   0  0  0  0  0  2  0  0  0  0  0  0
  190.3730  176.4830  141.7840 C   0  0  0  0  0  2  0  0  0  0  0  0
  190.7620  176.2280  138.8510 C   0  0  1  0  0  3  0  0  0  0  0  0
  191.3800  177.1380  141.0480 O   0  0  0  0  0  0  0  0  0  0  0  0
  183.7470  176.5510  134.5940 Cl  0  0  0  0  0  0  0  0  0  0  0  0
  185.7780  178.0470  135.6420 C   0  0  0  0  0  3  0  0  0  0  0  0
  189.3920  176.0900  138.3140 N   0  0  1  0  0  0  0  0  0  0  0  0
  189.1870  177.4180  141.9910 C   0  0  0  0  0  2  0  0  0  0  0  0
  189.6020  178.3340  139.8270 C   0  0  1  0  0  3  0  0  0  0  0  0
  187.5770  178.7600  140.9590 C   0  0  0  0  0  2  0  0  0  0  0  0
  186.1570  178.2040  140.8640 C   0  0  2  0  0  3  0  0  0  0  0  0
  183.2920  178.2550  140.8830 C   0  0  0  0  0  0  0  0  0  0  0  0
  185.4030  178.7510  139.6490 C   0  0  0  0  0  2  0  0  0  0  0  0
  185.3800  178.4010  142.1390 C   0  0  0  0  0  3  0  0  0  0  0  0
  184.0450  178.3980  142.1420 C   0  0  0  0  0  3  0  0  0  0  0  0
  182.0340  178.2360  140.9090 O   0  0  0  0  0  0  0  0  0  0  0  0
  184.0170  178.1090  139.5740 C   0  0  0  0  0  2  0  0  0  0  0  0
  1 21  1  0  0  0  0
  1 19  1  0  0  0  0
  2  7  1  0  0  0  0
  4  7  2  0  0  0  0
  4 12  1  0  0  0  0
  5 18  1  0  0  0  0
  5 11  1  1  0  0  0
  6 17  1  0  0  0  0
  6  9  2  0  0  0  0
  7  5  1  0  0  0  0
  9  4  1  0  0  0  0
 10 20  1  0  0  0  0
 10 15  1  1  0  0  0
 12  8  1  0  0  0  0
 13 19  1  0  0  0  0
 14  3  1  6  0  0  0
 14 10  1  0  0  0  0
 15 13  1  0  0  0  0
 16  6  1  0  0  0  0
 17  2  2  0  0  0  0
 18  8  1  6  0  0  0
 18 14  1  0  0  0  0
 20 11  1  6  0  0  0
 20  1  1  0  0  0  0
 22 21  1  1  0  0  0
 22 25  1  0  0  0  0
 23 27  2  0  0  0  0
 23 26  1  0  0  0  0
 24 22  1  0  0  0  0
 25 26  2  0  0  0  0
 28 24  1  0  0  0  0
 28 23  1  0  0  0  0
M  END
>  <MODEL>
6

>  <REMARK>
 VINA RESULT:      -5.9      2.365      3.888
  Name = 
  2 active torsions:
  status: ('A' for Active; 'I' for Inactive)
    1  A    between atoms: N_1  and  C_2
    2  A    between atoms: C_2  and  C_3
                            x       y       z     vdW  Elec       q    Type
                         _______ _______ _______ _____ _____    ______ ____

>  <TORSDO>
F 2

$$$$
=
 OpenBabel11052413323D

 28 32  0  0  1  0  0  0  0  0999 V2000
  184.8470  177.4440  137.5730 N   0  0  0  0  0  0  0  0  0  0  0  0
  182.6830  174.0650  135.1800 C   0  0  0  0  0  3  0  0  0  0  0  0
  188.0050  174.9050  135.4000 C   0  0  0  0  0  1  0  0  0  0  0  0
  183.8910  172.8680  136.9140 C   0  0  0  0  0  0  0  0  0  0  0  0
  185.0470  174.8010  135.7410 C   0  0  1  0  0  3  0  0  0  0  0  0
  181.6450  172.1850  136.3010 C   0  0  0  0  0  0  0  0  0  0  0  0
  183.8320  173.9230  135.9770 C   0  0  0  0  0  0  0  0  0  0  0  0
  186.3140  173.3570  137.1940 C   0  0  0  0  0  2  0  0  0  0  0  0
  182.7920  172.0190  137.0820 C   0  0  0  0  0  3  0  0  0  0  0  0
  186.9140  176.9700  136.2620 C   0  0  2  0  0  3  0  0  0  0  0  0
  184.6460  176.2540  135.4080 C   0  0  0  0  0  2  0  0  0  0  0  0
  185.0910  172.6760  137.7930 C   0  0  0  0  0  2  0  0  0  0  0  0
  187.1160  177.8540  138.3740 C   0  0  0  0  0  2  0  0  0  0  0  0
  187.2230  175.4960  136.5710 C   0  0  1  0  0  3  0  0  0  0  0  0
  187.6560  177.8620  137.0720 O   0  0  0  0  0  0  0  0  0  0  0  0
  180.2760  171.1170  136.5200 Cl  0  0  0  0  0  0  0  0  0  0  0  0
  181.5940  173.2040  135.3470 C   0  0  0  0  0  3  0  0  0  0  0  0
  185.9870  174.7480  136.8790 N   0  0  1  0  0  0  0  0  0  0  0  0
  185.6800  178.3650  138.3450 C   0  0  0  0  0  2  0  0  0  0  0  0
  185.4070  177.3170  136.2190 C   0  0  1  0  0  3  0  0  0  0  0  0
  183.5430  178.0840  137.4440 C   0  0  0  0  0  2  0  0  0  0  0  0
  182.4390  177.2670  138.1130 C   0  0  2  0  0  3  0  0  0  0  0  0
  180.6820  175.0430  138.5330 C   0  0  0  0  0  0  0  0  0  0  0  0
  182.9790  175.9900  138.7630 C   0  0  0  0  0  2  0  0  0  0  0  0
  181.2950  176.9780  137.1760 C   0  0  0  0  0  3  0  0  0  0  0  0
  180.4660  175.9540  137.3950 C   0  0  0  0  0  3  0  0  0  0  0  0
  179.8800  174.0940  138.7310 O   0  0  0  0  0  0  0  0  0  0  0  0
  181.8400  175.2530  139.4680 C   0  0  0  0  0  2  0  0  0  0  0  0
  1 19  1  0  0  0  0
  2 17  2  0  0  0  0
  2  7  1  0  0  0  0
  4  9  1  0  0  0  0
  4 12  1  0  0  0  0
  5 11  1  1  0  0  0
  5  7  1  0  0  0  0
  5 18  1  0  0  0  0
  6 16  1  0  0  0  0
  6  9  2  0  0  0  0
  7  4  2  0  0  0  0
  8 12  1  0  0  0  0
 10 14  1  0  0  0  0
 10 15  1  1  0  0  0
 14  3  1  6  0  0  0
 14 18  1  0  0  0  0
 15 13  1  0  0  0  0
 17  6  1  0  0  0  0
 18  8  1  6  0  0  0
 19 13  1  0  0  0  0
 20 11  1  6  0  0  0
 20 10  1  0  0  0  0
 20  1  1  0  0  0  0
 21  1  1  0  0  0  0
 22 21  1  6  0  0  0
 22 24  1  0  0  0  0
 23 27  2  0  0  0  0
 23 28  1  0  0  0  0
 24 28  1  0  0  0  0
 25 26  2  0  0  0  0
 25 22  1  0  0  0  0
 26 23  1  0  0  0  0
M  END
>  <MODEL>
7

>  <REMARK>
 VINA RESULT:      -5.4      3.487      5.681
  Name = 
  2 active torsions:
  status: ('A' for Active; 'I' for Inactive)
    1  A    between atoms: N_1  and  C_2
    2  A    between atoms: C_2  and  C_3
                            x       y       z     vdW  Elec       q    Type
                         _______ _______ _______ _____ _____    ______ ____

>  <TORSDO>
F 2

$$$$
=
 OpenBabel11052413323D

 28 32  0  0  1  0  0  0  0  0999 V2000
  181.4910  176.5250  139.6920 N   0  0  0  0  0  0  0  0  0  0  0  0
  184.5250  178.9700  142.2700 C   0  0  0  0  0  3  0  0  0  0  0  0
  179.9920  180.8570  140.0410 C   0  0  0  0  0  1  0  0  0  0  0  0
  182.5290  178.8790  143.6500 C   0  0  0  0  0  0  0  0  0  0  0  0
  182.2650  179.2880  141.1580 C   0  0  1  0  0  3  0  0  0  0  0  0
  184.7210  178.6280  144.6600 C   0  0  0  0  0  0  0  0  0  0  0  0
  183.1240  178.9970  142.3740 C   0  0  0  0  0  0  0  0  0  0  0  0
  180.3680  179.5540  142.6180 C   0  0  0  0  0  2  0  0  0  0  0  0
  183.3290  178.6770  144.7800 C   0  0  0  0  0  3  0  0  0  0  0  0
  180.4800  178.6770  138.9430 C   0  0  2  0  0  3  0  0  0  0  0  0
  182.8220  178.6060  139.8890 C   0  0  0  0  0  2  0  0  0  0  0  0
  181.0390  178.8960  143.8160 C   0  0  0  0  0  2  0  0  0  0  0  0
  179.1700  176.7890  138.9870 C   0  0  0  0  0  2  0  0  0  0  0  0
  180.0120  179.3430  140.2470 C   0  0  1  0  0  3  0  0  0  0  0  0
  179.4380  177.9810  138.2850 O   0  0  0  0  0  0  0  0  0  0  0  0
  185.7120  178.3750  146.0800 Cl  0  0  0  0  0  0  0  0  0  0  0  0
  185.3180  178.7790  143.4060 C   0  0  0  0  0  3  0  0  0  0  0  0
  180.8520  178.9250  141.3880 N   0  0  1  0  0  0  0  0  0  0  0  0
  180.3960  175.8840  138.9660 C   0  0  0  0  0  2  0  0  0  0  0  0
  181.7690  177.8320  139.0780 C   0  0  1  0  0  3  0  0  0  0  0  0
  182.6670  175.6880  139.4780 C   0  0  0  0  0  2  0  0  0  0  0  0
  182.9590  175.4840  137.9920 C   0  0  2  0  0  3  0  0  0  0  0  0
  184.3860  174.5770  135.6790 C   0  0  0  0  0  0  0  0  0  0  0  0
  182.8770  174.0110  137.5840 C   0  0  0  0  0  2  0  0  0  0  0  0
  184.2660  176.1080  137.5770 C   0  0  0  0  0  3  0  0  0  0  0  0
  184.9100  175.6950  136.4820 C   0  0  0  0  0  3  0  0  0  0  0  0
  184.9990  174.2140  134.6420 O   0  0  0  0  0  0  0  0  0  0  0  0
  183.1130  173.8820  136.0790 C   0  0  0  0  0  2  0  0  0  0  0  0
  2  7  2  0  0  0  0
  2 17  1  0  0  0  0
  4 12  1  0  0  0  0
  4  9  2  0  0  0  0
  5 11  1  6  0  0  0
  5 18  1  0  0  0  0
  5  7  1  0  0  0  0
  6  9  1  0  0  0  0
  6 16  1  0  0  0  0
  7  4  1  0  0  0  0
  8 12  1  0  0  0  0
 10 15  1  1  0  0  0
 10 20  1  0  0  0  0
 10 14  1  0  0  0  0
 14  3  1  6  0  0  0
 14 18  1  0  0  0  0
 15 13  1  0  0  0  0
 17  6  2  0  0  0  0
 18  8  1  1  0  0  0
 19 13  1  0  0  0  0
 19  1  1  0  0  0  0
 20  1  1  0  0  0  0
 20 11  1  1  0  0  0
 21  1  1  0  0  0  0
 22 21  1  1  0  0  0
 23 28  1  0  0  0  0
 23 26  1  0  0  0  0
 24 22  1  0  0  0  0
 25 22  1  0  0  0  0
 26 25  2  0  0  0  0
 27 23  2  0  0  0  0
 28 24  1  0  0  0  0
M  END
>  <MODEL>
8

>  <REMARK>
 VINA RESULT:      -5.3      4.258      7.804
  Name = 
  2 active torsions:
  status: ('A' for Active; 'I' for Inactive)
    1  A    between atoms: N_1  and  C_2
    2  A    between atoms: C_2  and  C_3
                            x       y       z     vdW  Elec       q    Type
                         _______ _______ _______ _____ _____    ______ ____

>  <TORSDO>
F 2

$$$$
=
 OpenBabel11052413323D

 28 32  0  0  1  0  0  0  0  0999 V2000
  182.9300  176.2600  137.9160 N   0  0  0  0  0  0  0  0  0  0  0  0
  185.3900  178.8270  140.9460 C   0  0  0  0  0  3  0  0  0  0  0  0
  181.2470  180.5380  137.9480 C   0  0  0  0  0  1  0  0  0  0  0  0
  183.1900  178.6750  141.9630 C   0  0  0  0  0  0  0  0  0  0  0  0
  183.3460  179.0580  139.4580 C   0  0  1  0  0  3  0  0  0  0  0  0
  185.1820  178.5080  143.3380 C   0  0  0  0  0  0  0  0  0  0  0  0
  183.9920  178.8060  140.8080 C   0  0  0  0  0  0  0  0  0  0  0  0
  181.2180  179.2660  140.5670 C   0  0  0  0  0  2  0  0  0  0  0  0
  183.7900  178.5090  143.2160 C   0  0  0  0  0  3  0  0  0  0  0  0
  181.9900  178.3690  136.9770 C   0  0  2  0  0  3  0  0  0  0  0  0
  184.1360  178.3880  138.3130 C   0  0  0  0  0  2  0  0  0  0  0  0
  181.6940  178.6400  141.8710 C   0  0  0  0  0  2  0  0  0  0  0  0
  180.7570  176.4370  136.8190 C   0  0  0  0  0  2  0  0  0  0  0  0
  181.2830  179.0270  138.1730 C   0  0  1  0  0  3  0  0  0  0  0  0
  181.1020  177.6330  136.1590 O   0  0  0  0  0  0  0  0  0  0  0  0
  185.9220  178.2990  144.9100 Cl  0  0  0  0  0  0  0  0  0  0  0  0
  185.9810  178.6720  142.2040 C   0  0  0  0  0  3  0  0  0  0  0  0
  181.9270  178.6470  139.4470 N   0  0  1  0  0  0  0  0  0  0  0  0
  181.9980  175.5760  137.0200 C   0  0  0  0  0  2  0  0  0  0  0  0
  183.2640  177.5720  137.3430 C   0  0  1  0  0  3  0  0  0  0  0  0
  184.1520  175.4630  137.9180 C   0  0  0  0  0  2  0  0  0  0  0  0
  184.0820  174.3100  136.9180 C   0  0  2  0  0  3  0  0  0  0  0  0
  185.0440  172.1300  135.3260 C   0  0  0  0  0  0  0  0  0  0  0  0
  184.3580  172.9560  137.5790 C   0  0  0  0  0  2  0  0  0  0  0  0
  184.9660  174.5380  135.7200 C   0  0  0  0  0  3  0  0  0  0  0  0
  185.3880  173.5170  134.9690 C   0  0  0  0  0  3  0  0  0  0  0  0
  185.4360  171.1840  134.5960 O   0  0  0  0  0  0  0  0  0  0  0  0
  184.2090  171.8410  136.5430 C   0  0  0  0  0  2  0  0  0  0  0  0
  1 21  1  0  0  0  0
  2 17  1  0  0  0  0
  4  9  2  0  0  0  0
  5 11  1  6  0  0  0
  5  7  1  0  0  0  0
  6 16  1  0  0  0  0
  7  2  2  0  0  0  0
  7  4  1  0  0  0  0
  8 12  1  0  0  0  0
  9  6  1  0  0  0  0
 10 15  1  1  0  0  0
 10 20  1  0  0  0  0
 10 14  1  0  0  0  0
 12  4  1  0  0  0  0
 13 19  1  0  0  0  0
 14  3  1  6  0  0  0
 14 18  1  0  0  0  0
 15 13  1  0  0  0  0
 17  6  2  0  0  0  0
 18  5  1  0  0  0  0
 18  8  1  1  0  0  0
 19  1  1  0  0  0  0
 20  1  1  0  0  0  0
 20 11  1  1  0  0  0
 22 24  1  0  0  0  0
 22 21  1  1  0  0  0
 23 28  1  0  0  0  0
 25 22  1  0  0  0  0
 26 23  1  0  0  0  0
 26 25  2  0  0  0  0
 27 23  2  0  0  0  0
 28 24  1  0  0  0  0
M  END
>  <MODEL>
9

>  <REMARK>
 VINA RESULT:      -5.2      4.065      7.024
  Name = 
  2 active torsions:
  status: ('A' for Active; 'I' for Inactive)
    1  A    between atoms: N_1  and  C_2
    2  A    between atoms: C_2  and  C_3
                            x       y       z     vdW  Elec       q    Type
                         _______ _______ _______ _____ _____    ______ ____

>  <TORSDO>
F 2

$$$$
