=
 OpenBabel11052412333D

 30 30  0  0  1  0  0  0  0  0999 V2000
  186.9650  178.2000  145.2320 C   0  0  0  0  0  2  0  0  0  0  0  0
  187.3350  176.9610  144.4320 C   0  0  0  0  0  2  0  0  0  0  0  0
  187.4130  177.2920  142.9520 C   0  0  0  0  0  2  0  0  0  0  0  0
  188.6700  176.9450  142.4490 O   0  0  0  0  0  0  0  0  0  0  0  0
  189.4130  178.1280  142.5060 C   0  0  0  0  0  2  0  0  0  0  0  0
  190.9190  177.8450  142.4790 C   0  0  2  0  0  3  0  0  0  0  0  0
  191.3310  177.1620  141.2120 C   0  0  0  0  0  3  0  0  0  0  0  0
  192.2580  177.6000  140.5480 O   0  0  0  0  0  0  0  0  0  0  0  0
  191.4330  177.0840  143.7080 C   0  0  2  0  0  3  0  0  0  0  0  0
  191.0160  175.7500  143.6870 O   0  0  0  0  0  1  0  0  0  0  0  0
  190.9890  177.7590  145.0000 C   0  0  0  0  0  2  0  0  0  0  0  0
  190.7540  176.7390  146.1120 C   0  0  2  0  0  3  0  0  0  0  0  0
  189.9290  177.3050  147.2670 C   0  0  0  0  0  2  0  0  0  0  0  0
  188.8710  176.4520  147.5930 O   0  0  0  0  0  1  0  0  0  0  0  0
  192.0530  176.1670  146.5930 C   0  0  0  0  0  3  0  0  0  0  0  0
  192.1960  175.8110  147.7520 O   0  0  0  0  0  0  0  0  0  0  0  0
  185.9380  177.8500  146.2950 C   0  0  0  0  0  2  0  0  0  0  0  0
  184.6120  178.5300  146.0100 C   0  0  0  0  0  2  0  0  0  0  0  0
  184.7510  179.3830  144.7640 C   0  0  0  0  0  2  0  0  0  0  0  0
  183.4990  179.2970  143.9000 C   0  0  0  0  0  2  0  0  0  0  0  0
  183.6980  178.3870  142.6870 C   0  0  0  0  0  2  0  0  0  0  0  0
  184.6150  179.0100  141.6420 C   0  0  0  0  0  2  0  0  0  0  0  0
  183.9810  178.9740  140.2640 C   0  0  2  0  0  3  0  0  0  0  0  0
  185.0140  178.6480  139.2610 C   0  0  2  0  0  3  0  0  0  0  0  0
  184.5660  179.9660  139.4560 O   0  0  0  0  0  0  0  0  0  0  0  0
  184.3620  178.0760  138.0170 C   0  0  0  0  0  2  0  0  0  0  0  0
  185.3490  176.6930  137.3730 S   0  0  0  0  0  0  0  0  0  0  0  0
  187.8980  176.5690  138.0180 O   0  0  0  0  0  1  0  0  0  0  0  0
  186.9280  177.5240  137.7200 C   0  0  1  0  0  3  0  0  0  0  0  0
  187.4470  178.4740  136.2640 S   0  0  0  0  0  1  0  0  0  0  0  0
  1 17  1  0  0  0  0
  2  1  1  0  0  0  0
  3  2  1  0  0  0  0
  4  5  1  0  0  0  0
  4  3  1  0  0  0  0
  6  7  1  6  0  0  0
  6  5  1  0  0  0  0
  6  9  1  0  0  0  0
  8  7  2  0  0  0  0
  9 10  1  1  0  0  0
  9 11  1  0  0  0  0
 12 11  1  6  0  0  0
 12 15  1  0  0  0  0
 12 13  1  0  0  0  0
 13 14  1  0  0  0  0
 15 16  2  0  0  0  0
 18 17  1  0  0  0  0
 19 18  1  0  0  0  0
 20 19  1  0  0  0  0
 21 20  1  0  0  0  0
 22 21  1  0  0  0  0
 23 22  1  1  0  0  0
 24 26  1  6  0  0  0
 24 25  1  0  0  0  0
 24 23  1  0  0  0  0
 25 23  1  0  0  0  0
 27 29  1  0  0  0  0
 27 26  1  0  0  0  0
 29 30  1  6  0  0  0
 29 28  1  0  0  0  0
M  END
>  <MODEL>
1

>  <REMARK>
 VINA RESULT:      -5.9      0.000      0.000
  Name = 
  21 active torsions:
  status: ('A' for Active; 'I' for Inactive)
    1  A    between atoms: C_1  and  C_4
    2  A    between atoms: C_1  and  C_8
    3  A    between atoms: C_2  and  C_18
    4  A    between atoms: C_3  and  C_11
    5  A    between atoms: C_3  and  C_19
    6  A    between atoms: C_3  and  C_25
    7  A    between atoms: C_4  and  C_13
    8  A    between atoms: C_5  and  S_9
    9  A    between atoms: C_5  and  C_12
   10  A    between atoms: C_7  and  C_16
   11  A    between atoms: C_7  and  C_26
   12  A    between atoms: S_9  and  C_17
   13  A    between atoms: O_10  and  C_15
   14  A    between atoms: O_10  and  C_25
   15  A    between atoms: C_13  and  C_27
   16  A    between atoms: C_15  and  C_26
   17  A    between atoms: C_16  and  C_30
   18  A    between atoms: C_18  and  C_20
   19  A    between atoms: C_18  and  C_22
   20  A    between atoms: C_19  and  C_20
   21  A    between atoms: C_27  and  C_30
                            x       y       z     vdW  Elec       q    Type
                         _______ _______ _______ _____ _____    ______ ____

>  <TORSDO>
F 21

$$$$
=
 OpenBabel11052412333D

 30 30  0  0  1  0  0  0  0  0999 V2000
  183.6580  178.8430  144.7420 C   0  0  0  0  0  2  0  0  0  0  0  0
  184.9900  179.2200  145.3710 C   0  0  0  0  0  2  0  0  0  0  0  0
  185.3240  178.2710  146.5090 C   0  0  0  0  0  2  0  0  0  0  0  0
  186.2040  177.2810  146.0640 O   0  0  0  0  0  0  0  0  0  0  0  0
  187.4640  177.8840  146.1000 C   0  0  0  0  0  2  0  0  0  0  0  0
  188.4510  177.0690  146.9430 C   0  0  2  0  0  3  0  0  0  0  0  0
  188.6820  177.6930  148.2840 C   0  0  0  0  0  3  0  0  0  0  0  0
  188.0390  178.6730  148.6280 O   0  0  0  0  0  0  0  0  0  0  0  0
  189.7800  176.7750  146.2360 C   0  0  2  0  0  3  0  0  0  0  0  0
  190.8680  177.1720  147.0180 O   0  0  0  0  0  1  0  0  0  0  0  0
  189.8370  177.4440  144.8680 C   0  0  0  0  0  2  0  0  0  0  0  0
  190.8900  176.7960  143.9720 C   0  0  2  0  0  3  0  0  0  0  0  0
  191.7890  177.8200  143.2800 C   0  0  0  0  0  2  0  0  0  0  0  0
  191.7080  177.7010  141.8910 O   0  0  0  0  0  1  0  0  0  0  0  0
  190.2500  175.8700  142.9830 C   0  0  0  0  0  3  0  0  0  0  0  0
  189.0530  175.6290  143.0240 O   0  0  0  0  0  0  0  0  0  0  0  0
  183.6710  179.1570  143.2570 C   0  0  0  0  0  2  0  0  0  0  0  0
  184.5110  178.1470  142.4980 C   0  0  0  0  0  2  0  0  0  0  0  0
  185.7060  178.8550  141.8880 C   0  0  0  0  0  2  0  0  0  0  0  0
  187.0120  178.2350  142.3690 C   0  0  0  0  0  2  0  0  0  0  0  0
  188.1940  178.6220  141.4810 C   0  0  0  0  0  2  0  0  0  0  0  0
  187.9580  178.2670  140.0180 C   0  0  0  0  0  2  0  0  0  0  0  0
  189.2710  178.0860  139.2780 C   0  0  2  0  0  3  0  0  0  0  0  0
  189.0930  177.0860  138.2070 C   0  0  2  0  0  3  0  0  0  0  0  0
  189.7110  176.7590  139.4270 O   0  0  0  0  0  0  0  0  0  0  0  0
  190.1540  177.2760  137.1430 C   0  0  0  0  0  2  0  0  0  0  0  0
  189.6880  176.3890  135.6270 S   0  0  0  0  0  0  0  0  0  0  0  0
  192.0940  175.7410  136.4730 O   0  0  0  0  0  1  0  0  0  0  0  0
  191.0090  175.1560  135.8200 C   0  0  1  0  0  3  0  0  0  0  0  0
  190.3980  173.7590  136.8030 S   0  0  0  0  0  1  0  0  0  0  0  0
  1  2  1  0  0  0  0
  2  3  1  0  0  0  0
  4  5  1  0  0  0  0
  4  3  1  0  0  0  0
  6  5  1  6  0  0  0
  6  7  1  0  0  0  0
  7  8  2  0  0  0  0
  9  6  1  0  0  0  0
  9 10  1  1  0  0  0
 11  9  1  0  0  0  0
 12 15  1  6  0  0  0
 12 11  1  0  0  0  0
 13 12  1  0  0  0  0
 14 13  1  0  0  0  0
 15 16  2  0  0  0  0
 17  1  1  0  0  0  0
 18 17  1  0  0  0  0
 19 20  1  0  0  0  0
 19 18  1  0  0  0  0
 21 20  1  0  0  0  0
 22 21  1  0  0  0  0
 23 25  1  0  0  0  0
 23 22  1  1  0  0  0
 24 26  1  6  0  0  0
 24 23  1  0  0  0  0
 24 25  1  0  0  0  0
 27 29  1  0  0  0  0
 27 26  1  0  0  0  0
 29 28  1  1  0  0  0
 29 30  1  0  0  0  0
M  END
>  <MODEL>
2

>  <REMARK>
 VINA RESULT:      -5.7      2.385      4.814
  Name = 
  21 active torsions:
  status: ('A' for Active; 'I' for Inactive)
    1  A    between atoms: C_1  and  C_4
    2  A    between atoms: C_1  and  C_8
    3  A    between atoms: C_2  and  C_18
    4  A    between atoms: C_3  and  C_11
    5  A    between atoms: C_3  and  C_19
    6  A    between atoms: C_3  and  C_25
    7  A    between atoms: C_4  and  C_13
    8  A    between atoms: C_5  and  S_9
    9  A    between atoms: C_5  and  C_12
   10  A    between atoms: C_7  and  C_16
   11  A    between atoms: C_7  and  C_26
   12  A    between atoms: S_9  and  C_17
   13  A    between atoms: O_10  and  C_15
   14  A    between atoms: O_10  and  C_25
   15  A    between atoms: C_13  and  C_27
   16  A    between atoms: C_15  and  C_26
   17  A    between atoms: C_16  and  C_30
   18  A    between atoms: C_18  and  C_20
   19  A    between atoms: C_18  and  C_22
   20  A    between atoms: C_19  and  C_20
   21  A    between atoms: C_27  and  C_30
                            x       y       z     vdW  Elec       q    Type
                         _______ _______ _______ _____ _____    ______ ____

>  <TORSDO>
F 21

$$$$
=
 OpenBabel11052412333D

 30 30  0  0  1  0  0  0  0  0999 V2000
  185.8850  178.8710  146.6550 C   0  0  0  0  0  2  0  0  0  0  0  0
  187.1910  178.1170  146.4640 C   0  0  0  0  0  2  0  0  0  0  0  0
  187.7100  177.6140  147.7990 C   0  0  0  0  0  2  0  0  0  0  0  0
  188.8930  176.8950  147.6120 O   0  0  0  0  0  0  0  0  0  0  0  0
  189.6440  177.6710  146.7250 C   0  0  0  0  0  2  0  0  0  0  0  0
  190.6940  176.8280  145.9940 C   0  0  2  0  0  3  0  0  0  0  0  0
  191.7870  176.3830  146.9150 C   0  0  0  0  0  3  0  0  0  0  0  0
  192.3520  175.3160  146.7330 O   0  0  0  0  0  0  0  0  0  0  0  0
  191.2690  177.4980  144.7390 C   0  0  2  0  0  3  0  0  0  0  0  0
  190.6680  178.7390  144.5080 O   0  0  0  0  0  1  0  0  0  0  0  0
  191.1200  176.6000  143.5170 C   0  0  0  0  0  2  0  0  0  0  0  0
  190.3880  177.3150  142.3840 C   0  0  2  0  0  3  0  0  0  0  0  0
  188.8930  176.9950  142.3520 C   0  0  0  0  0  2  0  0  0  0  0  0
  188.5900  175.9290  143.2010 O   0  0  0  0  0  1  0  0  0  0  0  0
  191.0390  177.0280  141.0640 C   0  0  0  0  0  3  0  0  0  0  0  0
  191.8880  177.7750  140.6030 O   0  0  0  0  0  0  0  0  0  0  0  0
  184.7240  178.0560  146.1120 C   0  0  0  0  0  2  0  0  0  0  0  0
  183.6670  178.9590  145.5040 C   0  0  0  0  0  2  0  0  0  0  0  0
  183.6300  178.7380  144.0040 C   0  0  0  0  0  2  0  0  0  0  0  0
  184.8190  179.4040  143.3240 C   0  0  0  0  0  2  0  0  0  0  0  0
  185.6250  178.4190  142.4780 C   0  0  0  0  0  2  0  0  0  0  0  0
  185.8260  178.9120  141.0510 C   0  0  0  0  0  2  0  0  0  0  0  0
  184.4980  179.0850  140.3380 C   0  0  2  0  0  3  0  0  0  0  0  0
  184.5980  178.5190  138.9780 C   0  0  2  0  0  3  0  0  0  0  0  0
  184.6790  179.9040  139.2080 O   0  0  0  0  0  0  0  0  0  0  0  0
  183.2150  178.1780  138.4590 C   0  0  0  0  0  2  0  0  0  0  0  0
  183.0200  176.3750  138.3340 S   0  0  0  0  0  0  0  0  0  0  0  0
  181.4130  177.4050  140.1470 O   0  0  0  0  0  1  0  0  0  0  0  0
  181.4180  176.3880  139.1930 C   0  0  1  0  0  3  0  0  0  0  0  0
  180.0890  176.6840  137.9940 S   0  0  0  0  0  1  0  0  0  0  0  0
  2  1  1  0  0  0  0
  2  3  1  0  0  0  0
  4  3  1  0  0  0  0
  5  4  1  0  0  0  0
  6  5  1  1  0  0  0
  6  7  1  0  0  0  0
  8  7  2  0  0  0  0
  9 10  1  6  0  0  0
  9  6  1  0  0  0  0
 11  9  1  0  0  0  0
 12 15  1  6  0  0  0
 12 11  1  0  0  0  0
 13 12  1  0  0  0  0
 13 14  1  0  0  0  0
 16 15  2  0  0  0  0
 17  1  1  0  0  0  0
 18 17  1  0  0  0  0
 19 18  1  0  0  0  0
 20 19  1  0  0  0  0
 21 20  1  0  0  0  0
 22 21  1  0  0  0  0
 23 22  1  1  0  0  0
 24 26  1  6  0  0  0
 24 25  1  0  0  0  0
 24 23  1  0  0  0  0
 25 23  1  0  0  0  0
 27 26  1  0  0  0  0
 27 29  1  0  0  0  0
 29 30  1  6  0  0  0
 29 28  1  0  0  0  0
M  END
>  <MODEL>
3

>  <REMARK>
 VINA RESULT:      -5.7      1.818      4.050
  Name = 
  21 active torsions:
  status: ('A' for Active; 'I' for Inactive)
    1  A    between atoms: C_1  and  C_4
    2  A    between atoms: C_1  and  C_8
    3  A    between atoms: C_2  and  C_18
    4  A    between atoms: C_3  and  C_11
    5  A    between atoms: C_3  and  C_19
    6  A    between atoms: C_3  and  C_25
    7  A    between atoms: C_4  and  C_13
    8  A    between atoms: C_5  and  S_9
    9  A    between atoms: C_5  and  C_12
   10  A    between atoms: C_7  and  C_16
   11  A    between atoms: C_7  and  C_26
   12  A    between atoms: S_9  and  C_17
   13  A    between atoms: O_10  and  C_15
   14  A    between atoms: O_10  and  C_25
   15  A    between atoms: C_13  and  C_27
   16  A    between atoms: C_15  and  C_26
   17  A    between atoms: C_16  and  C_30
   18  A    between atoms: C_18  and  C_20
   19  A    between atoms: C_18  and  C_22
   20  A    between atoms: C_19  and  C_20
   21  A    between atoms: C_27  and  C_30
                            x       y       z     vdW  Elec       q    Type
                         _______ _______ _______ _____ _____    ______ ____

>  <TORSDO>
F 21

$$$$
=
 OpenBabel11052412333D

 30 30  0  0  1  0  0  0  0  0999 V2000
  186.0630  178.8520  146.8640 C   0  0  0  0  0  2  0  0  0  0  0  0
  187.3770  178.1260  146.6270 C   0  0  0  0  0  2  0  0  0  0  0  0
  187.8950  177.5320  147.9250 C   0  0  0  0  0  2  0  0  0  0  0  0
  188.8220  176.5230  147.6530 O   0  0  0  0  0  0  0  0  0  0  0  0
  190.0090  177.2010  147.3620 C   0  0  0  0  0  2  0  0  0  0  0  0
  190.8250  176.4670  146.2920 C   0  0  2  0  0  3  0  0  0  0  0  0
  192.1080  175.9300  146.8460 C   0  0  0  0  0  3  0  0  0  0  0  0
  192.4760  176.2430  147.9670 O   0  0  0  0  0  0  0  0  0  0  0  0
  191.0750  177.2920  145.0230 C   0  0  2  0  0  3  0  0  0  0  0  0
  190.4130  178.5210  145.0800 O   0  0  0  0  0  1  0  0  0  0  0  0
  190.6620  176.5230  143.7750 C   0  0  0  0  0  2  0  0  0  0  0  0
  189.9160  177.4180  142.7880 C   0  0  2  0  0  3  0  0  0  0  0  0
  188.5100  176.9080  142.4740 C   0  0  0  0  0  2  0  0  0  0  0  0
  188.1770  175.8220  143.2870 O   0  0  0  0  0  1  0  0  0  0  0  0
  190.7190  177.6170  141.5380 C   0  0  0  0  0  3  0  0  0  0  0  0
  191.8960  177.2930  141.4840 O   0  0  0  0  0  0  0  0  0  0  0  0
  185.3170  179.0290  145.5540 C   0  0  0  0  0  2  0  0  0  0  0  0
  183.8330  178.7670  145.7370 C   0  0  0  0  0  2  0  0  0  0  0  0
  183.1590  178.7680  144.3780 C   0  0  0  0  0  2  0  0  0  0  0  0
  184.1180  179.2370  143.2920 C   0  0  0  0  0  2  0  0  0  0  0  0
  183.7350  178.6990  141.9130 C   0  0  0  0  0  2  0  0  0  0  0  0
  184.9200  178.6650  140.9570 C   0  0  0  0  0  2  0  0  0  0  0  0
  184.4640  178.4610  139.5240 C   0  0  2  0  0  3  0  0  0  0  0  0
  185.6460  178.3020  138.6540 C   0  0  2  0  0  3  0  0  0  0  0  0
  184.9430  179.5170  138.7280 O   0  0  0  0  0  0  0  0  0  0  0  0
  185.2570  177.5740  137.3830 C   0  0  0  0  0  2  0  0  0  0  0  0
  186.6150  177.6460  136.1780 S   0  0  0  0  0  0  0  0  0  0  0  0
  187.6670  175.5660  137.3990 O   0  0  0  0  0  1  0  0  0  0  0  0
  187.8220  176.9500  137.3440 C   0  0  1  0  0  3  0  0  0  0  0  0
  189.5030  177.3450  136.7860 S   0  0  0  0  0  1  0  0  0  0  0  0
  2  1  1  0  0  0  0
  2  3  1  0  0  0  0
  4  3  1  0  0  0  0
  5  4  1  0  0  0  0
  6  7  1  1  0  0  0
  6  5  1  0  0  0  0
  7  8  2  0  0  0  0
  9 10  1  1  0  0  0
  9  6  1  0  0  0  0
 11  9  1  0  0  0  0
 12 15  1  6  0  0  0
 12 11  1  0  0  0  0
 13 12  1  0  0  0  0
 13 14  1  0  0  0  0
 16 15  2  0  0  0  0
 17 18  1  0  0  0  0
 17  1  1  0  0  0  0
 19 18  1  0  0  0  0
 20 19  1  0  0  0  0
 21 20  1  0  0  0  0
 22 21  1  0  0  0  0
 23 22  1  1  0  0  0
 24 26  1  6  0  0  0
 24 25  1  0  0  0  0
 24 23  1  0  0  0  0
 25 23  1  0  0  0  0
 27 29  1  0  0  0  0
 27 26  1  0  0  0  0
 29 30  1  6  0  0  0
 29 28  1  0  0  0  0
M  END
>  <MODEL>
4

>  <REMARK>
 VINA RESULT:      -5.7      1.213      3.475
  Name = 
  21 active torsions:
  status: ('A' for Active; 'I' for Inactive)
    1  A    between atoms: C_1  and  C_4
    2  A    between atoms: C_1  and  C_8
    3  A    between atoms: C_2  and  C_18
    4  A    between atoms: C_3  and  C_11
    5  A    between atoms: C_3  and  C_19
    6  A    between atoms: C_3  and  C_25
    7  A    between atoms: C_4  and  C_13
    8  A    between atoms: C_5  and  S_9
    9  A    between atoms: C_5  and  C_12
   10  A    between atoms: C_7  and  C_16
   11  A    between atoms: C_7  and  C_26
   12  A    between atoms: S_9  and  C_17
   13  A    between atoms: O_10  and  C_15
   14  A    between atoms: O_10  and  C_25
   15  A    between atoms: C_13  and  C_27
   16  A    between atoms: C_15  and  C_26
   17  A    between atoms: C_16  and  C_30
   18  A    between atoms: C_18  and  C_20
   19  A    between atoms: C_18  and  C_22
   20  A    between atoms: C_19  and  C_20
   21  A    between atoms: C_27  and  C_30
                            x       y       z     vdW  Elec       q    Type
                         _______ _______ _______ _____ _____    ______ ____

>  <TORSDO>
F 21

$$$$
=
 OpenBabel11052412333D

 30 30  0  0  1  0  0  0  0  0999 V2000
  186.7650  178.0610  146.7250 C   0  0  0  0  0  2  0  0  0  0  0  0
  185.7360  179.1640  146.5420 C   0  0  0  0  0  2  0  0  0  0  0  0
  184.5760  178.6680  145.6960 C   0  0  0  0  0  2  0  0  0  0  0  0
  184.5260  179.3760  144.4920 O   0  0  0  0  0  0  0  0  0  0  0  0
  183.5470  178.7220  143.7370 C   0  0  0  0  0  2  0  0  0  0  0  0
  184.0960  178.2660  142.3810 C   0  0  2  0  0  3  0  0  0  0  0  0
  185.5000  178.7370  142.1650 C   0  0  0  0  0  3  0  0  0  0  0  0
  185.7280  179.6830  141.4270 O   0  0  0  0  0  0  0  0  0  0  0  0
  183.2020  178.6340  141.1910 C   0  0  2  0  0  3  0  0  0  0  0  0
  181.8980  178.9200  141.6060 O   0  0  0  0  0  1  0  0  0  0  0  0
  183.1940  177.5270  140.1440 C   0  0  0  0  0  2  0  0  0  0  0  0
  183.5420  178.0650  138.7580 C   0  0  2  0  0  3  0  0  0  0  0  0
  182.7490  177.3830  137.6430 C   0  0  0  0  0  2  0  0  0  0  0  0
  182.0930  178.3240  136.8460 O   0  0  0  0  0  1  0  0  0  0  0  0
  185.0180  177.9840  138.5110 C   0  0  0  0  0  3  0  0  0  0  0  0
  185.6470  178.9540  138.1170 O   0  0  0  0  0  0  0  0  0  0  0  0
  187.5210  178.2590  148.0270 C   0  0  0  0  0  2  0  0  0  0  0  0
  188.5590  177.1700  148.2210 C   0  0  0  0  0  2  0  0  0  0  0  0
  189.3230  176.9770  146.9250 C   0  0  0  0  0  2  0  0  0  0  0  0
  190.7940  176.6880  147.1960 C   0  0  0  0  0  2  0  0  0  0  0  0
  191.6120  176.6050  145.9070 C   0  0  0  0  0  2  0  0  0  0  0  0
  191.1190  177.5820  144.8470 C   0  0  0  0  0  2  0  0  0  0  0  0
  191.5210  177.1300  143.4550 C   0  0  2  0  0  3  0  0  0  0  0  0
  190.3090  176.9610  142.6280 C   0  0  2  0  0  3  0  0  0  0  0  0
  190.9720  175.8600  143.2000 O   0  0  0  0  0  0  0  0  0  0  0  0
  190.6700  177.0550  141.1600 C   0  0  0  0  0  2  0  0  0  0  0  0
  189.2140  177.5470  140.1880 S   0  0  0  0  0  0  0  0  0  0  0  0
  190.6960  175.7510  138.9600 O   0  0  0  0  0  1  0  0  0  0  0  0
  189.8740  176.8330  138.6520 C   0  0  1  0  0  3  0  0  0  0  0  0
  188.5020  176.2670  137.6080 S   0  0  0  0  0  1  0  0  0  0  0  0
  1 17  1  0  0  0  0
  2  1  1  0  0  0  0
  3  2  1  0  0  0  0
  4  3  1  0  0  0  0
  5  4  1  0  0  0  0
  6  7  1  6  0  0  0
  6  5  1  0  0  0  0
  8  7  2  0  0  0  0
  9 10  1  1  0  0  0
  9  6  1  0  0  0  0
 11  9  1  0  0  0  0
 12 13  1  6  0  0  0
 12 11  1  0  0  0  0
 14 13  1  0  0  0  0
 15 12  1  0  0  0  0
 16 15  2  0  0  0  0
 17 18  1  0  0  0  0
 19 20  1  0  0  0  0
 19 18  1  0  0  0  0
 21 20  1  0  0  0  0
 22 21  1  0  0  0  0
 23 22  1  1  0  0  0
 24 26  1  6  0  0  0
 24 25  1  0  0  0  0
 24 23  1  0  0  0  0
 25 23  1  0  0  0  0
 27 26  1  0  0  0  0
 29 30  1  6  0  0  0
 29 28  1  0  0  0  0
 29 27  1  0  0  0  0
M  END
>  <MODEL>
5

>  <REMARK>
 VINA RESULT:      -5.7      2.120      7.557
  Name = 
  21 active torsions:
  status: ('A' for Active; 'I' for Inactive)
    1  A    between atoms: C_1  and  C_4
    2  A    between atoms: C_1  and  C_8
    3  A    between atoms: C_2  and  C_18
    4  A    between atoms: C_3  and  C_11
    5  A    between atoms: C_3  and  C_19
    6  A    between atoms: C_3  and  C_25
    7  A    between atoms: C_4  and  C_13
    8  A    between atoms: C_5  and  S_9
    9  A    between atoms: C_5  and  C_12
   10  A    between atoms: C_7  and  C_16
   11  A    between atoms: C_7  and  C_26
   12  A    between atoms: S_9  and  C_17
   13  A    between atoms: O_10  and  C_15
   14  A    between atoms: O_10  and  C_25
   15  A    between atoms: C_13  and  C_27
   16  A    between atoms: C_15  and  C_26
   17  A    between atoms: C_16  and  C_30
   18  A    between atoms: C_18  and  C_20
   19  A    between atoms: C_18  and  C_22
   20  A    between atoms: C_19  and  C_20
   21  A    between atoms: C_27  and  C_30
                            x       y       z     vdW  Elec       q    Type
                         _______ _______ _______ _____ _____    ______ ____

>  <TORSDO>
F 21

$$$$
=
 OpenBabel11052412333D

 30 30  0  0  1  0  0  0  0  0999 V2000
  185.6280  178.2290  146.6070 C   0  0  0  0  0  2  0  0  0  0  0  0
  187.0830  177.8470  146.3860 C   0  0  0  0  0  2  0  0  0  0  0  0
  187.8100  177.7440  147.7160 C   0  0  0  0  0  2  0  0  0  0  0  0
  189.1700  178.0100  147.5400 O   0  0  0  0  0  0  0  0  0  0  0  0
  189.4090  177.7540  146.1870 C   0  0  0  0  0  2  0  0  0  0  0  0
  190.5410  176.7380  146.0010 C   0  0  2  0  0  3  0  0  0  0  0  0
  191.3970  176.6310  147.2240 C   0  0  0  0  0  3  0  0  0  0  0  0
  192.4970  176.1070  147.1640 O   0  0  0  0  0  0  0  0  0  0  0  0
  191.3950  176.9790  144.7500 C   0  0  2  0  0  3  0  0  0  0  0  0
  191.5120  178.3440  144.4720 O   0  0  0  0  0  1  0  0  0  0  0  0
  190.8300  176.2380  143.5440 C   0  0  0  0  0  2  0  0  0  0  0  0
  190.1870  177.1990  142.5480 C   0  0  2  0  0  3  0  0  0  0  0  0
  188.6800  176.9860  142.4090 C   0  0  0  0  0  2  0  0  0  0  0  0
  188.2280  176.0050  143.2950 O   0  0  0  0  0  1  0  0  0  0  0  0
  190.8750  177.1280  141.2180 C   0  0  0  0  0  3  0  0  0  0  0  0
  190.2710  176.7980  140.2100 O   0  0  0  0  0  0  0  0  0  0  0  0
  185.1570  179.1600  145.5040 C   0  0  0  0  0  2  0  0  0  0  0  0
  183.7390  178.8240  145.0830 C   0  0  0  0  0  2  0  0  0  0  0  0
  183.5740  179.1330  143.6070 C   0  0  0  0  0  2  0  0  0  0  0  0
  184.9250  179.3720  142.9450 C   0  0  0  0  0  2  0  0  0  0  0  0
  185.1020  178.5340  141.6780 C   0  0  0  0  0  2  0  0  0  0  0  0
  183.7690  178.1370  141.0570 C   0  0  0  0  0  2  0  0  0  0  0  0
  183.4150  179.0410  139.8920 C   0  0  2  0  0  3  0  0  0  0  0  0
  181.9990  178.8360  139.5270 C   0  0  2  0  0  3  0  0  0  0  0  0
  183.0440  178.2540  138.7870 O   0  0  0  0  0  0  0  0  0  0  0  0
  181.4760  180.0500  138.7870 C   0  0  0  0  0  2  0  0  0  0  0  0
  180.6490  179.5390  137.2510 S   0  0  0  0  0  0  0  0  0  0  0  0
  181.1460  182.1160  137.4460 O   0  0  0  0  0  1  0  0  0  0  0  0
  180.3050  181.2510  136.7470 C   0  0  1  0  0  3  0  0  0  0  0  0
  180.6050  181.4310  134.9670 S   0  0  0  0  0  1  0  0  0  0  0  0
  2  1  1  0  0  0  0
  2  3  1  0  0  0  0
  4  3  1  0  0  0  0
  5  4  1  0  0  0  0
  6  5  1  1  0  0  0
  6  7  1  0  0  0  0
  8  7  2  0  0  0  0
  9 10  1  6  0  0  0
  9  6  1  0  0  0  0
 11  9  1  0  0  0  0
 12 15  1  6  0  0  0
 12 11  1  0  0  0  0
 13 12  1  0  0  0  0
 13 14  1  0  0  0  0
 16 15  2  0  0  0  0
 17  1  1  0  0  0  0
 18 17  1  0  0  0  0
 19 18  1  0  0  0  0
 20 19  1  0  0  0  0
 21 20  1  0  0  0  0
 22 21  1  0  0  0  0
 23 22  1  1  0  0  0
 24 26  1  6  0  0  0
 24 23  1  0  0  0  0
 25 24  1  0  0  0  0
 25 23  1  0  0  0  0
 27 26  1  0  0  0  0
 29 30  1  6  0  0  0
 29 27  1  0  0  0  0
 29 28  1  0  0  0  0
M  END
>  <MODEL>
6

>  <REMARK>
 VINA RESULT:      -5.6      2.498      4.466
  Name = 
  21 active torsions:
  status: ('A' for Active; 'I' for Inactive)
    1  A    between atoms: C_1  and  C_4
    2  A    between atoms: C_1  and  C_8
    3  A    between atoms: C_2  and  C_18
    4  A    between atoms: C_3  and  C_11
    5  A    between atoms: C_3  and  C_19
    6  A    between atoms: C_3  and  C_25
    7  A    between atoms: C_4  and  C_13
    8  A    between atoms: C_5  and  S_9
    9  A    between atoms: C_5  and  C_12
   10  A    between atoms: C_7  and  C_16
   11  A    between atoms: C_7  and  C_26
   12  A    between atoms: S_9  and  C_17
   13  A    between atoms: O_10  and  C_15
   14  A    between atoms: O_10  and  C_25
   15  A    between atoms: C_13  and  C_27
   16  A    between atoms: C_15  and  C_26
   17  A    between atoms: C_16  and  C_30
   18  A    between atoms: C_18  and  C_20
   19  A    between atoms: C_18  and  C_22
   20  A    between atoms: C_19  and  C_20
   21  A    between atoms: C_27  and  C_30
                            x       y       z     vdW  Elec       q    Type
                         _______ _______ _______ _____ _____    ______ ____

>  <TORSDO>
F 21

$$$$
=
 OpenBabel11052412333D

 30 30  0  0  1  0  0  0  0  0999 V2000
  190.2510  178.2500  145.0350 C   0  0  0  0  0  2  0  0  0  0  0  0
  190.4370  177.8140  143.5910 C   0  0  0  0  0  2  0  0  0  0  0  0
  190.4190  176.2990  143.4900 C   0  0  0  0  0  2  0  0  0  0  0  0
  190.3670  175.9080  142.1500 O   0  0  0  0  0  0  0  0  0  0  0  0
  189.5420  176.8560  141.5370 C   0  0  0  0  0  2  0  0  0  0  0  0
  189.9820  177.1320  140.0950 C   0  0  2  0  0  3  0  0  0  0  0  0
  191.4730  177.1870  139.9710 C   0  0  0  0  0  3  0  0  0  0  0  0
  192.0250  176.7760  138.9630 O   0  0  0  0  0  0  0  0  0  0  0  0
  189.3310  178.3730  139.4710 C   0  0  2  0  0  3  0  0  0  0  0  0
  188.1040  178.6580  140.0750 O   0  0  0  0  0  1  0  0  0  0  0  0
  189.1570  178.2070  137.9660 C   0  0  0  0  0  2  0  0  0  0  0  0
  187.9170  177.3800  137.6350 C   0  0  2  0  0  3  0  0  0  0  0  0
  188.2360  176.1550  136.7790 C   0  0  0  0  0  2  0  0  0  0  0  0
  189.6010  176.0840  136.4920 O   0  0  0  0  0  1  0  0  0  0  0  0
  186.8620  178.2340  136.9980 C   0  0  0  0  0  3  0  0  0  0  0  0
  187.1200  179.3540  136.5850 O   0  0  0  0  0  0  0  0  0  0  0  0
  189.7940  177.0760  145.8830 C   0  0  0  0  0  2  0  0  0  0  0  0
  188.5160  177.4130  146.6280 C   0  0  0  0  0  2  0  0  0  0  0  0
  187.3680  177.4780  145.6390 C   0  0  0  0  0  2  0  0  0  0  0  0
  186.0770  177.9020  146.3270 C   0  0  0  0  0  2  0  0  0  0  0  0
  185.5110  179.1960  145.7420 C   0  0  0  0  0  2  0  0  0  0  0  0
  184.3570  178.9400  144.7820 C   0  0  0  0  0  2  0  0  0  0  0  0
  184.6890  179.4240  143.3830 C   0  0  2  0  0  3  0  0  0  0  0  0
  184.5340  178.3070  142.4300 C   0  0  2  0  0  3  0  0  0  0  0  0
  185.7980  178.7110  142.8940 O   0  0  0  0  0  0  0  0  0  0  0  0
  184.3160  178.8490  141.0310 C   0  0  0  0  0  2  0  0  0  0  0  0
  182.5690  178.6770  140.5580 S   0  0  0  0  0  0  0  0  0  0  0  0
  184.0590  180.1490  138.9650 O   0  0  0  0  0  1  0  0  0  0  0  0
  182.8110  179.5280  138.9710 C   0  0  1  0  0  3  0  0  0  0  0  0
  182.7350  178.3220  137.6180 S   0  0  0  0  0  1  0  0  0  0  0  0
  1 17  1  0  0  0  0
  2  1  1  0  0  0  0
  3  2  1  0  0  0  0
  4  3  1  0  0  0  0
  5  4  1  0  0  0  0
  6  7  1  1  0  0  0
  6  5  1  0  0  0  0
  8  7  2  0  0  0  0
  9 10  1  1  0  0  0
  9  6  1  0  0  0  0
 11  9  1  0  0  0  0
 12 13  1  6  0  0  0
 12 11  1  0  0  0  0
 14 13  1  0  0  0  0
 15 12  1  0  0  0  0
 16 15  2  0  0  0  0
 17 18  1  0  0  0  0
 19 20  1  0  0  0  0
 19 18  1  0  0  0  0
 21 20  1  0  0  0  0
 22 21  1  0  0  0  0
 23 22  1  1  0  0  0
 24 26  1  6  0  0  0
 24 25  1  0  0  0  0
 24 23  1  0  0  0  0
 25 23  1  0  0  0  0
 27 26  1  0  0  0  0
 28 29  1  0  0  0  0
 29 30  1  6  0  0  0
 29 27  1  0  0  0  0
M  END
>  <MODEL>
7

>  <REMARK>
 VINA RESULT:      -5.5      2.299      5.733
  Name = 
  21 active torsions:
  status: ('A' for Active; 'I' for Inactive)
    1  A    between atoms: C_1  and  C_4
    2  A    between atoms: C_1  and  C_8
    3  A    between atoms: C_2  and  C_18
    4  A    between atoms: C_3  and  C_11
    5  A    between atoms: C_3  and  C_19
    6  A    between atoms: C_3  and  C_25
    7  A    between atoms: C_4  and  C_13
    8  A    between atoms: C_5  and  S_9
    9  A    between atoms: C_5  and  C_12
   10  A    between atoms: C_7  and  C_16
   11  A    between atoms: C_7  and  C_26
   12  A    between atoms: S_9  and  C_17
   13  A    between atoms: O_10  and  C_15
   14  A    between atoms: O_10  and  C_25
   15  A    between atoms: C_13  and  C_27
   16  A    between atoms: C_15  and  C_26
   17  A    between atoms: C_16  and  C_30
   18  A    between atoms: C_18  and  C_20
   19  A    between atoms: C_18  and  C_22
   20  A    between atoms: C_19  and  C_20
   21  A    between atoms: C_27  and  C_30
                            x       y       z     vdW  Elec       q    Type
                         _______ _______ _______ _____ _____    ______ ____

>  <TORSDO>
F 21

$$$$
=
 OpenBabel11052412333D

 30 30  0  0  1  0  0  0  0  0999 V2000
  186.1380  178.1810  144.8360 C   0  0  0  0  0  2  0  0  0  0  0  0
  184.8400  178.3890  144.0740 C   0  0  0  0  0  2  0  0  0  0  0  0
  183.8230  179.1020  144.9480 C   0  0  0  0  0  2  0  0  0  0  0  0
  182.8680  179.7370  144.1510 O   0  0  0  0  0  0  0  0  0  0  0  0
  182.1350  178.6950  143.5770 C   0  0  0  0  0  2  0  0  0  0  0  0
  180.9670  179.2260  142.7380 C   0  0  2  0  0  3  0  0  0  0  0  0
  179.6460  178.7890  143.2880 C   0  0  0  0  0  3  0  0  0  0  0  0
  179.5880  177.9000  144.1230 O   0  0  0  0  0  0  0  0  0  0  0  0
  181.0760  178.9040  141.2430 C   0  0  2  0  0  3  0  0  0  0  0  0
  180.6840  177.5880  140.9790 O   0  0  0  0  0  1  0  0  0  0  0  0
  182.4890  179.1500  140.7260 C   0  0  0  0  0  2  0  0  0  0  0  0
  182.5990  178.8500  139.2330 C   0  0  2  0  0  3  0  0  0  0  0  0
  184.0470  178.7690  138.7520 C   0  0  0  0  0  2  0  0  0  0  0  0
  184.8380  179.7380  139.3750 O   0  0  0  0  0  1  0  0  0  0  0  0
  181.8080  179.8400  138.4320 C   0  0  0  0  0  3  0  0  0  0  0  0
  181.9110  181.0410  138.6310 O   0  0  0  0  0  0  0  0  0  0  0  0
  185.8800  178.2090  146.3320 C   0  0  0  0  0  2  0  0  0  0  0  0
  187.1710  178.0240  147.1070 C   0  0  0  0  0  2  0  0  0  0  0  0
  188.0760  177.0760  146.3440 C   0  0  0  0  0  2  0  0  0  0  0  0
  189.5400  177.4500  146.5290 C   0  0  0  0  0  2  0  0  0  0  0  0
  190.2290  177.7590  145.2000 C   0  0  0  0  0  2  0  0  0  0  0  0
  189.5150  177.1170  144.0170 C   0  0  0  0  0  2  0  0  0  0  0  0
  189.4320  178.0730  142.8410 C   0  0  2  0  0  3  0  0  0  0  0  0
  189.0290  177.3260  141.6330 C   0  0  2  0  0  3  0  0  0  0  0  0
  190.3670  177.6900  141.8630 O   0  0  0  0  0  0  0  0  0  0  0  0
  188.4170  178.2740  140.6210 C   0  0  0  0  0  2  0  0  0  0  0  0
  189.2300  178.0760  139.0070 S   0  0  0  0  0  0  0  0  0  0  0  0
  187.4690  179.0260  137.2980 O   0  0  0  0  0  1  0  0  0  0  0  0
  187.6530  177.9150  138.1200 C   0  0  1  0  0  3  0  0  0  0  0  0
  187.6810  176.4130  137.1010 S   0  0  0  0  0  1  0  0  0  0  0  0
  1 17  1  0  0  0  0
  2  1  1  0  0  0  0
  2  3  1  0  0  0  0
  4  3  1  0  0  0  0
  5  4  1  0  0  0  0
  6  7  1  1  0  0  0
  6  5  1  0  0  0  0
  7  8  2  0  0  0  0
  9 10  1  1  0  0  0
  9  6  1  0  0  0  0
 11  9  1  0  0  0  0
 12 15  1  6  0  0  0
 12 11  1  0  0  0  0
 13 12  1  0  0  0  0
 13 14  1  0  0  0  0
 15 16  2  0  0  0  0
 17 18  1  0  0  0  0
 19 20  1  0  0  0  0
 19 18  1  0  0  0  0
 21 20  1  0  0  0  0
 22 21  1  0  0  0  0
 23 22  1  1  0  0  0
 24 26  1  6  0  0  0
 24 25  1  0  0  0  0
 24 23  1  0  0  0  0
 25 23  1  0  0  0  0
 27 26  1  0  0  0  0
 28 29  1  0  0  0  0
 29 30  1  6  0  0  0
 29 27  1  0  0  0  0
M  END
>  <MODEL>
8

>  <REMARK>
 VINA RESULT:      -5.5      2.617      7.986
  Name = 
  21 active torsions:
  status: ('A' for Active; 'I' for Inactive)
    1  A    between atoms: C_1  and  C_4
    2  A    between atoms: C_1  and  C_8
    3  A    between atoms: C_2  and  C_18
    4  A    between atoms: C_3  and  C_11
    5  A    between atoms: C_3  and  C_19
    6  A    between atoms: C_3  and  C_25
    7  A    between atoms: C_4  and  C_13
    8  A    between atoms: C_5  and  S_9
    9  A    between atoms: C_5  and  C_12
   10  A    between atoms: C_7  and  C_16
   11  A    between atoms: C_7  and  C_26
   12  A    between atoms: S_9  and  C_17
   13  A    between atoms: O_10  and  C_15
   14  A    between atoms: O_10  and  C_25
   15  A    between atoms: C_13  and  C_27
   16  A    between atoms: C_15  and  C_26
   17  A    between atoms: C_16  and  C_30
   18  A    between atoms: C_18  and  C_20
   19  A    between atoms: C_18  and  C_22
   20  A    between atoms: C_19  and  C_20
   21  A    between atoms: C_27  and  C_30
                            x       y       z     vdW  Elec       q    Type
                         _______ _______ _______ _____ _____    ______ ____

>  <TORSDO>
F 21

$$$$
=
 OpenBabel11052412333D

 30 30  0  0  1  0  0  0  0  0999 V2000
  185.5030  178.6050  146.4040 C   0  0  0  0  0  2  0  0  0  0  0  0
  184.6160  178.8380  145.1920 C   0  0  0  0  0  2  0  0  0  0  0  0
  185.1870  178.1300  143.9750 C   0  0  0  0  0  2  0  0  0  0  0  0
  185.5610  179.0660  143.0080 O   0  0  0  0  0  0  0  0  0  0  0  0
  184.3710  179.3920  142.3520 C   0  0  0  0  0  2  0  0  0  0  0  0
  183.9390  178.2800  141.3890 C   0  0  2  0  0  3  0  0  0  0  0  0
  184.6010  178.4160  140.0540 C   0  0  0  0  0  3  0  0  0  0  0  0
  185.1580  179.4570  139.7430 O   0  0  0  0  0  0  0  0  0  0  0  0
  182.4190  178.1400  141.2400 C   0  0  2  0  0  3  0  0  0  0  0  0
  182.0120  178.4120  139.9310 O   0  0  0  0  0  1  0  0  0  0  0  0
  181.6820  179.0420  142.2230 C   0  0  0  0  0  2  0  0  0  0  0  0
  180.2410  178.5820  142.4320 C   0  0  2  0  0  3  0  0  0  0  0  0
  179.2180  179.6260  141.9840 C   0  0  0  0  0  2  0  0  0  0  0  0
  179.5890  180.9050  142.4050 O   0  0  0  0  0  1  0  0  0  0  0  0
  180.0160  178.1670  143.8540 C   0  0  0  0  0  3  0  0  0  0  0  0
  179.0990  178.6350  144.5120 O   0  0  0  0  0  0  0  0  0  0  0  0
  186.6620  177.6930  146.0390 C   0  0  0  0  0  2  0  0  0  0  0  0
  187.6780  177.6330  147.1640 C   0  0  0  0  0  2  0  0  0  0  0  0
  189.0720  177.7500  146.5800 C   0  0  0  0  0  2  0  0  0  0  0  0
  189.0800  177.3760  145.1030 C   0  0  0  0  0  2  0  0  0  0  0  0
  190.4510  176.8860  144.6400 C   0  0  0  0  0  2  0  0  0  0  0  0
  190.4600  176.5020  143.1650 C   0  0  0  0  0  2  0  0  0  0  0  0
  189.9780  177.6500  142.2970 C   0  0  2  0  0  3  0  0  0  0  0  0
  189.4360  177.1110  141.0340 C   0  0  2  0  0  3  0  0  0  0  0  0
  190.7220  177.6740  141.1030 O   0  0  0  0  0  0  0  0  0  0  0  0
  188.4830  178.1120  140.4130 C   0  0  0  0  0  2  0  0  0  0  0  0
  188.9780  178.4720  138.7020 S   0  0  0  0  0  0  0  0  0  0  0  0
  186.8800  178.4310  137.1130 O   0  0  0  0  0  1  0  0  0  0  0  0
  187.5540  177.5890  137.9970 C   0  0  1  0  0  3  0  0  0  0  0  0
  188.1330  176.1190  137.1040 S   0  0  0  0  0  1  0  0  0  0  0  0
  2  1  1  0  0  0  0
  3  2  1  0  0  0  0
  4  3  1  0  0  0  0
  5  4  1  0  0  0  0
  6  7  1  6  0  0  0
  6  5  1  0  0  0  0
  8  7  2  0  0  0  0
  9 10  1  6  0  0  0
  9  6  1  0  0  0  0
  9 11  1  0  0  0  0
 11 12  1  0  0  0  0
 12 13  1  1  0  0  0
 12 15  1  0  0  0  0
 13 14  1  0  0  0  0
 15 16  2  0  0  0  0
 17  1  1  0  0  0  0
 17 18  1  0  0  0  0
 19 18  1  0  0  0  0
 20 19  1  0  0  0  0
 21 20  1  0  0  0  0
 22 21  1  0  0  0  0
 23 22  1  1  0  0  0
 24 26  1  6  0  0  0
 24 25  1  0  0  0  0
 24 23  1  0  0  0  0
 25 23  1  0  0  0  0
 27 26  1  0  0  0  0
 28 29  1  0  0  0  0
 29 30  1  6  0  0  0
 29 27  1  0  0  0  0
M  END
>  <MODEL>
9

>  <REMARK>
 VINA RESULT:      -5.4      2.725      7.283
  Name = 
  21 active torsions:
  status: ('A' for Active; 'I' for Inactive)
    1  A    between atoms: C_1  and  C_4
    2  A    between atoms: C_1  and  C_8
    3  A    between atoms: C_2  and  C_18
    4  A    between atoms: C_3  and  C_11
    5  A    between atoms: C_3  and  C_19
    6  A    between atoms: C_3  and  C_25
    7  A    between atoms: C_4  and  C_13
    8  A    between atoms: C_5  and  S_9
    9  A    between atoms: C_5  and  C_12
   10  A    between atoms: C_7  and  C_16
   11  A    between atoms: C_7  and  C_26
   12  A    between atoms: S_9  and  C_17
   13  A    between atoms: O_10  and  C_15
   14  A    between atoms: O_10  and  C_25
   15  A    between atoms: C_13  and  C_27
   16  A    between atoms: C_15  and  C_26
   17  A    between atoms: C_16  and  C_30
   18  A    between atoms: C_18  and  C_20
   19  A    between atoms: C_18  and  C_22
   20  A    between atoms: C_19  and  C_20
   21  A    between atoms: C_27  and  C_30
                            x       y       z     vdW  Elec       q    Type
                         _______ _______ _______ _____ _____    ______ ____

>  <TORSDO>
F 21

$$$$
