=
 OpenBabel11052415563D

 34 40  0  0  1  0  0  0  0  0999 V2000
  185.8460  178.1320  143.5460 C   0  0  0  0  0  0  0  0  0  0  0  0
  182.3420  179.1090  144.1840 C   0  0  0  0  0  3  0  0  0  0  0  0
  184.2110  178.8960  145.6570 N   0  0  0  0  0  0  0  0  0  0  0  0
  188.8030  177.0230  143.8930 S   0  0  0  0  0  0  0  0  0  0  0  0
  186.7300  177.9330  142.4370 N   0  0  0  0  0  2  0  0  0  0  0  0
  187.7290  177.6980  145.1680 C   0  0  0  0  0  0  0  0  0  0  0  0
  187.2270  177.8920  147.5970 C   0  0  0  0  0  2  0  0  0  0  0  0
  188.1500  177.6430  146.4340 C   0  0  0  0  0  3  0  0  0  0  0  0
  188.1700  178.1110  142.5820 C   0  0  2  0  0  3  0  0  0  0  0  0
  185.5080  178.5770  145.9060 C   0  0  0  0  0  0  0  0  0  0  0  0
  186.3410  178.1290  144.8640 C   0  0  0  0  0  0  0  0  0  0  0  0
  186.0970  178.8650  147.2550 C   0  0  0  0  0  2  0  0  0  0  0  0
  181.8210  179.0620  142.8860 C   0  0  0  0  0  0  0  0  0  0  0  0
  182.6610  178.6720  141.8330 C   0  0  0  0  0  3  0  0  0  0  0  0
  183.6820  178.7980  144.4090 C   0  0  0  0  0  0  0  0  0  0  0  0
  183.9670  178.3750  142.0670 N   0  0  0  0  0  0  0  0  0  0  0  0
  184.4960  178.4230  143.3210 C   0  0  0  0  0  0  0  0  0  0  0  0
  188.8640  177.2230  138.8790 C   0  0  0  0  0  2  0  0  0  0  0  0
  190.3050  177.8160  141.2680 N   0  0  0  0  0  2  0  0  0  0  0  0
  192.3420  175.8850  138.1190 N   0  0  0  0  0  0  0  0  0  0  0  0
  191.0170  176.4430  137.8270 C   0  0  0  0  0  2  0  0  0  0  0  0
  190.2520  176.6440  139.1290 C   0  0  1  0  0  3  0  0  0  0  0  0
  192.4300  177.0860  140.2720 C   0  0  0  0  0  2  0  0  0  0  0  0
  191.0270  177.6170  140.0160 C   0  0  2  0  0  3  0  0  0  0  0  0
  193.1160  176.8430  138.9270 C   0  0  0  0  0  2  0  0  0  0  0  0
  188.8690  177.8450  141.2880 C   0  0  0  0  0  0  0  0  0  0  0  0
  188.1740  177.5180  140.1850 C   0  0  0  0  0  3  0  0  0  0  0  0
  193.0130  175.6270  136.8410 C   0  0  1  0  0  3  0  0  0  0  0  0
  194.2300  176.3130  136.7440 O   0  0  0  0  0  1  0  0  0  0  0  0
  193.2330  174.1380  136.6390 C   0  0  0  0  0  1  0  0  0  0  0  0
  179.4170  178.2980  143.1620 N   0  0  0  0  0  0  0  0  0  0  0  0
  179.6120  179.5530  143.9010 C   0  0  0  0  0  2  0  0  0  0  0  0
  180.0410  177.2610  143.9800 C   0  0  0  0  0  1  0  0  0  0  0  0
  180.3540  179.3440  142.6580 C   0  0  1  0  0  3  0  0  0  0  0  0
  1 11  1  0  0  0  0
  2 15  1  0  0  0  0
  3 10  1  0  0  0  0
  4  6  1  0  0  0  0
  5  9  1  0  0  0  0
  5  1  1  0  0  0  0
  6  8  2  0  0  0  0
  8  7  1  0  0  0  0
  9 26  1  6  0  0  0
  9  4  1  0  0  0  0
 10 12  1  0  0  0  0
 11  6  1  0  0  0  0
 11 10  2  0  0  0  0
 12  7  1  0  0  0  0
 13  2  2  0  0  0  0
 14 16  2  0  0  0  0
 14 13  1  0  0  0  0
 15  3  2  0  0  0  0
 16 17  1  0  0  0  0
 17  1  2  0  0  0  0
 17 15  1  0  0  0  0
 18 22  1  0  0  0  0
 18 27  1  0  0  0  0
 19 26  1  0  0  0  0
 20 25  1  0  0  0  0
 21 20  1  0  0  0  0
 22 21  1  6  0  0  0
 22 24  1  0  0  0  0
 24 23  1  1  0  0  0
 24 19  1  0  0  0  0
 25 23  1  0  0  0  0
 27 26  2  0  0  0  0
 28 30  1  1  0  0  0
 28 20  1  0  0  0  0
 29 28  1  0  0  0  0
 31 32  1  0  0  0  0
 31 33  1  0  0  0  0
 34 13  1  1  0  0  0
 34 31  1  0  0  0  0
 34 32  1  0  0  0  0
M  END
>  <MODEL>
1

>  <REMARK>
 VINA RESULT:     -10.1      0.000      0.000
  Name = 
  3 active torsions:
  status: ('A' for Active; 'I' for Inactive)
    1  A    between atoms: N_7  and  C_11
    2  A    between atoms: C_18  and  C_30
    3  A    between atoms: C_23  and  C_25
                            x       y       z     vdW  Elec       q    Type
                         _______ _______ _______ _____ _____    ______ ____

>  <TORSDO>
F 3

$$$$
=
 OpenBabel11052415563D

 34 40  0  0  1  0  0  0  0  0999 V2000
  185.4240  178.2620  143.1920 C   0  0  0  0  0  0  0  0  0  0  0  0
  182.0180  179.2660  144.2090 C   0  0  0  0  0  3  0  0  0  0  0  0
  184.0010  178.8990  145.4900 N   0  0  0  0  0  0  0  0  0  0  0  0
  188.3660  177.0640  143.1910 S   0  0  0  0  0  0  0  0  0  0  0  0
  186.2020  178.1300  141.9970 N   0  0  0  0  0  2  0  0  0  0  0  0
  187.4260  177.6630  144.6030 C   0  0  0  0  0  0  0  0  0  0  0  0
  187.1430  177.6810  147.0740 C   0  0  0  0  0  2  0  0  0  0  0  0
  187.9550  177.5010  145.8190 C   0  0  0  0  0  3  0  0  0  0  0  0
  187.6530  178.2640  142.0260 C   0  0  2  0  0  3  0  0  0  0  0  0
  185.3050  178.5320  145.5990 C   0  0  0  0  0  0  0  0  0  0  0  0
  186.0300  178.1470  144.4560 C   0  0  0  0  0  0  0  0  0  0  0  0
  186.0170  178.7020  146.9080 C   0  0  0  0  0  2  0  0  0  0  0  0
  181.3850  179.3300  142.9620 C   0  0  0  0  0  0  0  0  0  0  0  0
  182.1180  179.0040  141.8130 C   0  0  0  0  0  3  0  0  0  0  0  0
  183.3630  178.9080  144.2900 C   0  0  0  0  0  0  0  0  0  0  0  0
  183.4310  178.6600  141.9070 N   0  0  0  0  0  0  0  0  0  0  0  0
  184.0680  178.6000  143.1090 C   0  0  0  0  0  0  0  0  0  0  0  0
  188.0280  178.0550  138.1780 C   0  0  0  0  0  2  0  0  0  0  0  0
  189.5730  177.5910  140.5310 N   0  0  0  0  0  2  0  0  0  0  0  0
  190.8620  175.8620  136.9060 N   0  0  0  0  0  0  0  0  0  0  0  0
  189.8020  176.8730  136.8340 C   0  0  0  0  0  2  0  0  0  0  0  0
  189.1420  177.0140  138.2000 C   0  0  1  0  0  3  0  0  0  0  0  0
  191.3370  176.4510  139.2540 C   0  0  0  0  0  2  0  0  0  0  0  0
  190.1930  177.4540  139.2170 C   0  0  2  0  0  3  0  0  0  0  0  0
  191.9080  176.3060  137.8430 C   0  0  0  0  0  2  0  0  0  0  0  0
  188.2290  178.0820  140.6590 C   0  0  0  0  0  0  0  0  0  0  0  0
  187.4700  178.2570  139.5630 C   0  0  0  0  0  3  0  0  0  0  0  0
  191.4140  175.6930  135.5580 C   0  0  1  0  0  3  0  0  0  0  0  0
  190.7740  176.5180  134.6260 O   0  0  0  0  0  1  0  0  0  0  0  0
  192.9100  175.9550  135.5510 C   0  0  0  0  0  1  0  0  0  0  0  0
  179.0230  178.5290  142.4950 N   0  0  0  0  0  0  0  0  0  0  0  0
  179.1170  178.9620  143.8960 C   0  0  0  0  0  2  0  0  0  0  0  0
  179.6790  177.2250  142.4440 C   0  0  0  0  0  1  0  0  0  0  0  0
  179.9130  179.6610  142.8870 C   0  0  1  0  0  3  0  0  0  0  0  0
  1 11  1  0  0  0  0
  2 15  1  0  0  0  0
  3 10  1  0  0  0  0
  4  6  1  0  0  0  0
  5  9  1  0  0  0  0
  5  1  1  0  0  0  0
  6  8  2  0  0  0  0
  8  7  1  0  0  0  0
  9 26  1  6  0  0  0
  9  4  1  0  0  0  0
 10 12  1  0  0  0  0
 11  6  1  0  0  0  0
 11 10  2  0  0  0  0
 12  7  1  0  0  0  0
 13  2  2  0  0  0  0
 14 16  2  0  0  0  0
 14 13  1  0  0  0  0
 15  3  2  0  0  0  0
 16 17  1  0  0  0  0
 17  1  2  0  0  0  0
 17 15  1  0  0  0  0
 18 22  1  0  0  0  0
 18 27  1  0  0  0  0
 19 26  1  0  0  0  0
 20 25  1  0  0  0  0
 21 20  1  0  0  0  0
 22 21  1  6  0  0  0
 22 24  1  0  0  0  0
 24 23  1  1  0  0  0
 24 19  1  0  0  0  0
 25 23  1  0  0  0  0
 27 26  2  0  0  0  0
 28 30  1  1  0  0  0
 28 20  1  0  0  0  0
 29 28  1  0  0  0  0
 31 34  1  0  0  0  0
 31 32  1  0  0  0  0
 33 31  1  0  0  0  0
 34 13  1  1  0  0  0
 34 32  1  0  0  0  0
M  END
>  <MODEL>
2

>  <REMARK>
 VINA RESULT:      -9.9      1.183      1.279
  Name = 
  3 active torsions:
  status: ('A' for Active; 'I' for Inactive)
    1  A    between atoms: N_7  and  C_11
    2  A    between atoms: C_18  and  C_30
    3  A    between atoms: C_23  and  C_25
                            x       y       z     vdW  Elec       q    Type
                         _______ _______ _______ _____ _____    ______ ____

>  <TORSDO>
F 3

$$$$
=
 OpenBabel11052415563D

 34 40  0  0  1  0  0  0  0  0999 V2000
  189.5980  176.9710  138.2210 C   0  0  0  0  0  0  0  0  0  0  0  0
  187.2120  176.5700  135.4300 C   0  0  0  0  0  3  0  0  0  0  0  0
  189.5340  176.0370  135.6070 N   0  0  0  0  0  0  0  0  0  0  0  0
  192.2590  177.3570  139.9120 S   0  0  0  0  0  0  0  0  0  0  0  0
  189.5850  177.2640  139.6220 N   0  0  0  0  0  2  0  0  0  0  0  0
  192.0930  176.6070  138.2860 C   0  0  0  0  0  0  0  0  0  0  0  0
  193.2120  175.9120  136.1760 C   0  0  0  0  0  2  0  0  0  0  0  0
  193.2090  176.2600  137.6400 C   0  0  0  0  0  3  0  0  0  0  0  0
  190.6410  176.7780  140.5020 C   0  0  2  0  0  3  0  0  0  0  0  0
  190.7110  176.0230  136.2860 C   0  0  0  0  0  0  0  0  0  0  0  0
  190.7820  176.5470  137.5900 C   0  0  0  0  0  0  0  0  0  0  0  0
  191.8910  175.2960  135.7120 C   0  0  0  0  0  2  0  0  0  0  0  0
  186.0370  177.0420  136.0260 C   0  0  0  0  0  0  0  0  0  0  0  0
  186.0880  177.5120  137.3450 C   0  0  0  0  0  3  0  0  0  0  0  0
  188.4010  176.5470  136.1570 C   0  0  0  0  0  0  0  0  0  0  0  0
  187.2550  177.4790  138.0440 N   0  0  0  0  0  0  0  0  0  0  0  0
  188.4070  177.0150  137.4860 C   0  0  0  0  0  0  0  0  0  0  0  0
  191.2080  177.9330  144.1540 C   0  0  0  0  0  2  0  0  0  0  0  0
  189.0600  177.2000  142.4250 N   0  0  0  0  0  0  0  0  0  0  0  0
  188.3870  177.1720  146.5890 N   0  0  0  0  0  0  0  0  0  0  0  0
  189.6200  177.8050  146.1060 C   0  0  0  0  0  2  0  0  0  0  0  0
  189.9310  177.3050  144.7010 C   0  0  1  0  0  3  0  0  0  0  0  0
  187.4740  177.0850  144.2990 C   0  0  0  0  0  2  0  0  0  0  0  0
  188.7750  177.6750  143.7740 C   0  0  2  0  0  3  0  0  0  0  0  0
  187.2580  177.5720  145.7330 C   0  0  0  0  0  2  0  0  0  0  0  0
  190.4010  177.2180  141.9100 C   0  0  0  0  0  0  0  0  0  0  0  0
  191.4290  177.5100  142.7250 C   0  0  0  0  0  2  0  0  0  0  0  0
  188.1680  177.6110  147.9710 C   0  0  1  0  0  3  0  0  0  0  0  0
  189.3200  178.1810  148.5250 O   0  0  0  0  0  1  0  0  0  0  0  0
  187.0090  178.5880  148.0500 C   0  0  0  0  0  1  0  0  0  0  0  0
  183.9210  175.8880  135.2300 N   0  0  0  0  0  0  0  0  0  0  0  0
  183.5570  177.0610  136.0360 C   0  0  0  0  0  2  0  0  0  0  0  0
  184.3440  174.8700  136.1880 C   0  0  0  0  0  1  0  0  0  0  0  0
  184.7650  177.1190  135.2130 C   0  0  1  0  0  3  0  0  0  0  0  0
  1  5  1  0  0  0  0
  2 13  2  0  0  0  0
  2 15  1  0  0  0  0
  3 15  2  0  0  0  0
  3 10  1  0  0  0  0
  4  9  1  0  0  0  0
  5  9  1  0  0  0  0
  6  4  1  0  0  0  0
  7  8  1  0  0  0  0
  8  6  2  0  0  0  0
  9 26  1  1  0  0  0
 10 11  2  0  0  0  0
 11  1  1  0  0  0  0
 11  6  1  0  0  0  0
 12  7  1  0  0  0  0
 12 10  1  0  0  0  0
 13 14  1  0  0  0  0
 14 16  2  0  0  0  0
 15 17  1  0  0  0  0
 17 16  1  0  0  0  0
 17  1  2  0  0  0  0
 19 24  1  0  0  0  0
 20 28  1  0  0  0  0
 21 20  1  0  0  0  0
 22 18  1  6  0  0  0
 22 21  1  0  0  0  0
 23 25  1  0  0  0  0
 24 23  1  1  0  0  0
 24 22  1  0  0  0  0
 25 20  1  0  0  0  0
 26 19  2  0  0  0  0
 26 27  1  0  0  0  0
 27 18  1  0  0  0  0
 28 30  1  6  0  0  0
 28 29  1  0  0  0  0
 31 32  1  0  0  0  0
 31 33  1  0  0  0  0
 34 31  1  0  0  0  0
 34 13  1  1  0  0  0
 34 32  1  0  0  0  0
M  END
>  <MODEL>
3

>  <REMARK>
 VINA RESULT:      -9.4      4.525      8.711
  Name = 
  3 active torsions:
  status: ('A' for Active; 'I' for Inactive)
    1  A    between atoms: N_7  and  C_11
    2  A    between atoms: C_18  and  C_30
    3  A    between atoms: C_23  and  C_25
                            x       y       z     vdW  Elec       q    Type
                         _______ _______ _______ _____ _____    ______ ____

>  <TORSDO>
F 3

$$$$
=
 OpenBabel11052415563D

 34 40  0  0  1  0  0  0  0  0999 V2000
  182.6060  178.4880  140.8540 C   0  0  0  0  0  0  0  0  0  0  0  0
  182.1660  178.2660  137.1930 C   0  0  0  0  0  3  0  0  0  0  0  0
  180.8800  179.3820  138.8700 N   0  0  0  0  0  0  0  0  0  0  0  0
  182.0560  178.8000  143.9670 S   0  0  0  0  0  0  0  0  0  0  0  0
  183.5980  178.1980  141.8440 N   0  0  0  0  0  2  0  0  0  0  0  0
  181.0950  179.4850  142.6100 C   0  0  0  0  0  0  0  0  0  0  0  0
  178.9310  180.4520  141.8570 C   0  0  0  0  0  2  0  0  0  0  0  0
  179.9540  180.1120  142.9070 C   0  0  0  0  0  3  0  0  0  0  0  0
  183.6480  178.9390  143.0990 C   0  0  2  0  0  3  0  0  0  0  0  0
  180.6190  179.6970  140.1660 C   0  0  0  0  0  0  0  0  0  0  0  0
  181.4450  179.2070  141.1940 C   0  0  0  0  0  0  0  0  0  0  0  0
  179.5560  180.7060  140.4840 C   0  0  0  0  0  2  0  0  0  0  0  0
  183.2870  177.5040  136.8450 C   0  0  0  0  0  0  0  0  0  0  0  0
  184.1460  177.0600  137.8600 C   0  0  0  0  0  3  0  0  0  0  0  0
  181.9330  178.5940  138.5280 C   0  0  0  0  0  0  0  0  0  0  0  0
  183.9100  177.3920  139.1580 N   0  0  0  0  0  0  0  0  0  0  0  0
  182.8300  178.1400  139.5170 C   0  0  0  0  0  0  0  0  0  0  0  0
  185.8770  178.1750  146.1710 C   0  0  0  0  0  2  0  0  0  0  0  0
  185.9270  177.8800  143.3340 N   0  0  0  0  0  0  0  0  0  0  0  0
  189.5720  177.6400  145.4440 N   0  0  0  0  0  0  0  0  0  0  0  0
  188.3320  177.6080  146.2270 C   0  0  0  0  0  2  0  0  0  0  0  0
  187.1910  178.1840  145.3980 C   0  0  1  0  0  3  0  0  0  0  0  0
  188.3160  177.3020  143.3480 C   0  0  0  0  0  2  0  0  0  0  0  0
  187.0160  177.3380  144.1380 C   0  0  2  0  0  3  0  0  0  0  0  0
  189.4290  176.7800  144.2570 C   0  0  0  0  0  2  0  0  0  0  0  0
  184.7660  178.4480  143.9600 C   0  0  0  0  0  0  0  0  0  0  0  0
  184.7470  178.6420  145.2900 C   0  0  0  0  0  2  0  0  0  0  0  0
  190.6590  177.1590  146.3020 C   0  0  1  0  0  3  0  0  0  0  0  0
  190.1800  176.3780  147.3600 O   0  0  0  0  0  1  0  0  0  0  0  0
  191.6800  176.3790  145.4940 C   0  0  0  0  0  1  0  0  0  0  0  0
  182.9320  175.7770  135.0190 N   0  0  0  0  0  0  0  0  0  0  0  0
  182.2530  177.0250  134.6420 C   0  0  0  0  0  2  0  0  0  0  0  0
  182.0800  175.1600  136.0330 C   0  0  0  0  0  1  0  0  0  0  0  0
  183.5000  177.1030  135.4040 C   0  0  1  0  0  3  0  0  0  0  0  0
  1 11  1  0  0  0  0
  1  5  1  0  0  0  0
  2 15  1  0  0  0  0
  3 10  1  0  0  0  0
  5  9  1  0  0  0  0
  6  8  2  0  0  0  0
  6  4  1  0  0  0  0
  7  8  1  0  0  0  0
  9 26  1  1  0  0  0
  9  4  1  0  0  0  0
 10 12  1  0  0  0  0
 10 11  2  0  0  0  0
 11  6  1  0  0  0  0
 12  7  1  0  0  0  0
 13  2  2  0  0  0  0
 13 14  1  0  0  0  0
 14 16  2  0  0  0  0
 15  3  2  0  0  0  0
 15 17  1  0  0  0  0
 16 17  1  0  0  0  0
 17  1  2  0  0  0  0
 19 26  2  0  0  0  0
 19 24  1  0  0  0  0
 20 21  1  0  0  0  0
 20 28  1  0  0  0  0
 22 18  1  1  0  0  0
 22 21  1  0  0  0  0
 23 25  1  0  0  0  0
 24 23  1  6  0  0  0
 24 22  1  0  0  0  0
 25 20  1  0  0  0  0
 26 27  1  0  0  0  0
 27 18  1  0  0  0  0
 28 30  1  6  0  0  0
 28 29  1  0  0  0  0
 31 34  1  0  0  0  0
 31 33  1  0  0  0  0
 32 31  1  0  0  0  0
 32 34  1  0  0  0  0
 34 13  1  1  0  0  0
M  END
>  <MODEL>
4

>  <REMARK>
 VINA RESULT:      -9.1      4.353      7.376
  Name = 
  3 active torsions:
  status: ('A' for Active; 'I' for Inactive)
    1  A    between atoms: N_7  and  C_11
    2  A    between atoms: C_18  and  C_30
    3  A    between atoms: C_23  and  C_25
                            x       y       z     vdW  Elec       q    Type
                         _______ _______ _______ _____ _____    ______ ____

>  <TORSDO>
F 3

$$$$
=
 OpenBabel11052415563D

 34 40  0  0  1  0  0  0  0  0999 V2000
  186.5310  177.9230  143.7720 C   0  0  0  0  0  0  0  0  0  0  0  0
  182.9690  178.8770  143.5720 C   0  0  0  0  0  3  0  0  0  0  0  0
  184.5150  178.9340  145.3920 N   0  0  0  0  0  0  0  0  0  0  0  0
  189.3660  176.9640  144.8400 S   0  0  0  0  0  0  0  0  0  0  0  0
  187.6140  177.5940  142.8950 N   0  0  0  0  0  2  0  0  0  0  0  0
  188.0620  177.7830  145.7710 C   0  0  0  0  0  0  0  0  0  0  0  0
  187.0970  178.3100  148.0020 C   0  0  0  0  0  2  0  0  0  0  0  0
  188.2290  177.9240  147.0890 C   0  0  0  0  0  3  0  0  0  0  0  0
  188.9980  177.8330  143.2860 C   0  0  2  0  0  3  0  0  0  0  0  0
  185.7400  178.6930  145.9310 C   0  0  0  0  0  0  0  0  0  0  0  0
  186.7600  178.1250  145.1450 C   0  0  0  0  0  0  0  0  0  0  0  0
  186.0540  179.1900  147.3100 C   0  0  0  0  0  2  0  0  0  0  0  0
  182.7110  178.6280  142.2190 C   0  0  0  0  0  0  0  0  0  0  0  0
  183.7400  178.1160  141.4170 C   0  0  0  0  0  3  0  0  0  0  0  0
  184.2390  178.6410  144.0940 C   0  0  0  0  0  0  0  0  0  0  0  0
  184.9760  177.8950  141.9380 N   0  0  0  0  0  0  0  0  0  0  0  0
  185.2510  178.1390  143.2500 C   0  0  0  0  0  0  0  0  0  0  0  0
  192.2140  177.2290  141.2170 C   0  0  0  0  0  2  0  0  0  0  0  0
  189.3940  176.8610  140.9910 N   0  0  0  0  0  0  0  0  0  0  0  0
  191.7180  176.8030  137.4710 N   0  0  0  0  0  0  0  0  0  0  0  0
  192.4290  176.7490  138.7520 C   0  0  0  0  0  2  0  0  0  0  0  0
  191.5190  177.2630  139.8610 C   0  0  1  0  0  3  0  0  0  0  0  0
  189.5630  176.3660  138.5890 C   0  0  0  0  0  2  0  0  0  0  0  0
  190.2760  176.3780  139.9340 C   0  0  2  0  0  3  0  0  0  0  0  0
  190.5500  175.9070  137.5150 C   0  0  0  0  0  2  0  0  0  0  0  0
  189.9360  177.4050  142.2040 C   0  0  0  0  0  0  0  0  0  0  0  0
  191.2570  177.6330  142.3080 C   0  0  0  0  0  2  0  0  0  0  0  0
  192.6520  176.3830  136.4200 C   0  0  1  0  0  3  0  0  0  0  0  0
  193.9850  176.4980  136.8330 O   0  0  0  0  0  1  0  0  0  0  0  0
  192.3600  174.9600  135.9770 C   0  0  0  0  0  1  0  0  0  0  0  0
  181.2400  179.5260  140.3560 N   0  0  0  0  0  0  0  0  0  0  0  0
  181.0660  178.0700  140.4490 C   0  0  0  0  0  2  0  0  0  0  0  0
  182.5270  179.7250  139.6940 C   0  0  0  0  0  1  0  0  0  0  0  0
  181.3160  178.8300  141.6740 C   0  0  1  0  0  3  0  0  0  0  0  0
  1 11  1  0  0  0  0
  2 15  1  0  0  0  0
  3 10  1  0  0  0  0
  4  6  1  0  0  0  0
  5  9  1  0  0  0  0
  5  1  1  0  0  0  0
  6  8  2  0  0  0  0
  8  7  1  0  0  0  0
  9 26  1  6  0  0  0
  9  4  1  0  0  0  0
 10 12  1  0  0  0  0
 11  6  1  0  0  0  0
 11 10  2  0  0  0  0
 12  7  1  0  0  0  0
 13  2  2  0  0  0  0
 14 16  2  0  0  0  0
 14 13  1  0  0  0  0
 15  3  2  0  0  0  0
 16 17  1  0  0  0  0
 17  1  2  0  0  0  0
 17 15  1  0  0  0  0
 18 27  1  0  0  0  0
 19 26  2  0  0  0  0
 20 25  1  0  0  0  0
 20 21  1  0  0  0  0
 22 21  1  6  0  0  0
 22 24  1  0  0  0  0
 22 18  1  0  0  0  0
 24 23  1  6  0  0  0
 24 19  1  0  0  0  0
 25 23  1  0  0  0  0
 26 27  1  0  0  0  0
 28 30  1  1  0  0  0
 28 29  1  0  0  0  0
 28 20  1  0  0  0  0
 31 32  1  0  0  0  0
 31 34  1  0  0  0  0
 32 34  1  0  0  0  0
 33 31  1  0  0  0  0
 34 13  1  6  0  0  0
M  END
>  <MODEL>
5

>  <REMARK>
 VINA RESULT:      -9.1      1.352      2.043
  Name = 
  3 active torsions:
  status: ('A' for Active; 'I' for Inactive)
    1  A    between atoms: N_7  and  C_11
    2  A    between atoms: C_18  and  C_30
    3  A    between atoms: C_23  and  C_25
                            x       y       z     vdW  Elec       q    Type
                         _______ _______ _______ _____ _____    ______ ____

>  <TORSDO>
F 3

$$$$
=
 OpenBabel11052415563D

 34 40  0  0  1  0  0  0  0  0999 V2000
  190.8660  176.1790  137.7270 C   0  0  0  0  0  0  0  0  0  0  0  0
  192.9590  174.5250  135.1730 C   0  0  0  0  0  3  0  0  0  0  0  0
  191.0570  175.9560  134.9660 N   0  0  0  0  0  0  0  0  0  0  0  0
  188.4280  177.5430  139.2410 S   0  0  0  0  0  0  0  0  0  0  0  0
  190.8880  176.4550  139.1320 N   0  0  0  0  0  2  0  0  0  0  0  0
  188.7300  177.4940  137.4680 C   0  0  0  0  0  0  0  0  0  0  0  0
  187.7890  177.7270  135.1780 C   0  0  0  0  0  2  0  0  0  0  0  0
  187.7860  177.9850  136.6610 C   0  0  0  0  0  3  0  0  0  0  0  0
  190.1910  177.6100  139.6830 C   0  0  2  0  0  3  0  0  0  0  0  0
  190.0450  176.6870  135.5030 C   0  0  0  0  0  0  0  0  0  0  0  0
  189.8920  176.7660  136.8990 C   0  0  0  0  0  0  0  0  0  0  0  0
  189.1990  177.5470  134.6120 C   0  0  0  0  0  2  0  0  0  0  0  0
  193.9030  173.8880  135.9860 C   0  0  0  0  0  0  0  0  0  0  0  0
  193.7900  174.0100  137.3780 C   0  0  0  0  0  3  0  0  0  0  0  0
  191.9440  175.2870  135.7490 C   0  0  0  0  0  0  0  0  0  0  0  0
  192.7970  174.7610  137.9260 N   0  0  0  0  0  0  0  0  0  0  0  0
  191.8740  175.3960  137.1520 C   0  0  0  0  0  0  0  0  0  0  0  0
  191.7470  177.4760  143.2250 C   0  0  0  0  0  2  0  0  0  0  0  0
  189.2040  177.8680  141.9920 N   0  0  0  0  0  2  0  0  0  0  0  0
  189.3180  176.8270  146.0790 N   0  0  0  0  0  0  0  0  0  0  0  0
  190.5810  177.2200  145.4450 C   0  0  0  0  0  2  0  0  0  0  0  0
  190.4560  177.0800  143.9330 C   0  0  1  0  0  3  0  0  0  0  0  0
  188.0300  177.6460  144.1400 C   0  0  0  0  0  2  0  0  0  0  0  0
  189.3360  177.9940  143.4400 C   0  0  2  0  0  3  0  0  0  0  0  0
  188.2440  177.7400  145.6520 C   0  0  0  0  0  2  0  0  0  0  0  0
  190.3630  177.6760  141.1660 C   0  0  0  0  0  0  0  0  0  0  0  0
  191.5590  177.4380  141.7310 C   0  0  0  0  0  3  0  0  0  0  0  0
  189.5040  176.8930  147.5320 C   0  0  1  0  0  3  0  0  0  0  0  0
  190.8450  177.1000  147.8750 O   0  0  0  0  0  1  0  0  0  0  0  0
  188.6330  177.9780  148.1390 C   0  0  0  0  0  1  0  0  0  0  0  0
  196.2430  173.7090  135.0190 N   0  0  0  0  0  0  0  0  0  0  0  0
  196.1460  172.8510  136.2080 C   0  0  0  0  0  2  0  0  0  0  0  0
  196.3520  175.0730  135.5290 C   0  0  0  0  0  1  0  0  0  0  0  0
  194.9650  173.0160  135.3580 C   0  0  1  0  0  3  0  0  0  0  0  0
  1  5  1  0  0  0  0
  2 15  2  0  0  0  0
  2 13  1  0  0  0  0
  3 10  2  0  0  0  0
  3 15  1  0  0  0  0
  4  9  1  0  0  0  0
  5  9  1  0  0  0  0
  6  4  1  0  0  0  0
  7  8  1  0  0  0  0
  8  6  2  0  0  0  0
  9 26  1  1  0  0  0
 10 11  1  0  0  0  0
 11  6  1  0  0  0  0
 11  1  2  0  0  0  0
 12  7  1  0  0  0  0
 12 10  1  0  0  0  0
 13 14  2  0  0  0  0
 14 16  1  0  0  0  0
 15 17  1  0  0  0  0
 17  1  1  0  0  0  0
 17 16  2  0  0  0  0
 19 24  1  0  0  0  0
 20 28  1  0  0  0  0
 21 20  1  0  0  0  0
 22 18  1  6  0  0  0
 22 21  1  0  0  0  0
 23 25  1  0  0  0  0
 24 22  1  0  0  0  0
 24 23  1  1  0  0  0
 25 20  1  0  0  0  0
 26 27  2  0  0  0  0
 26 19  1  0  0  0  0
 27 18  1  0  0  0  0
 28 29  1  0  0  0  0
 28 30  1  6  0  0  0
 31 34  1  0  0  0  0
 31 33  1  0  0  0  0
 31 32  1  0  0  0  0
 34 13  1  1  0  0  0
 34 32  1  0  0  0  0
M  END
>  <MODEL>
6

>  <REMARK>
 VINA RESULT:      -9.0      4.619     10.988
  Name = 
  3 active torsions:
  status: ('A' for Active; 'I' for Inactive)
    1  A    between atoms: N_7  and  C_11
    2  A    between atoms: C_18  and  C_30
    3  A    between atoms: C_23  and  C_25
                            x       y       z     vdW  Elec       q    Type
                         _______ _______ _______ _____ _____    ______ ____

>  <TORSDO>
F 3

$$$$
=
 OpenBabel11052415563D

 34 40  0  0  1  0  0  0  0  0999 V2000
  186.2720  178.1820  138.7300 C   0  0  0  0  0  0  0  0  0  0  0  0
  182.6260  178.5020  138.2310 C   0  0  0  0  0  3  0  0  0  0  0  0
  184.3720  177.8710  136.7280 N   0  0  0  0  0  0  0  0  0  0  0  0
  189.4100  178.0890  138.2410 S   0  0  0  0  0  0  0  0  0  0  0  0
  187.2190  178.1480  139.8040 N   0  0  0  0  0  2  0  0  0  0  0  0
  188.1040  177.7360  137.0550 C   0  0  0  0  0  0  0  0  0  0  0  0
  187.4520  177.5070  134.6660 C   0  0  0  0  0  2  0  0  0  0  0  0
  188.4560  177.5110  135.7870 C   0  0  0  0  0  3  0  0  0  0  0  0
  188.4860  177.4410  139.6660 C   0  0  2  0  0  3  0  0  0  0  0  0
  185.6840  177.6670  136.4350 C   0  0  0  0  0  0  0  0  0  0  0  0
  186.6700  177.8760  137.4160 C   0  0  0  0  0  0  0  0  0  0  0  0
  186.0620  177.0540  135.1190 C   0  0  0  0  0  2  0  0  0  0  0  0
  182.2210  178.8620  139.5220 C   0  0  0  0  0  0  0  0  0  0  0  0
  183.1930  179.0160  140.5200 C   0  0  0  0  0  3  0  0  0  0  0  0
  183.9750  178.2770  137.9630 C   0  0  0  0  0  0  0  0  0  0  0  0
  184.5060  178.7880  140.2440 N   0  0  0  0  0  0  0  0  0  0  0  0
  184.9200  178.4290  138.9980 C   0  0  0  0  0  0  0  0  0  0  0  0
  191.4590  177.4980  142.1460 C   0  0  0  0  0  2  0  0  0  0  0  0
  188.6130  177.6930  142.1750 N   0  0  0  0  0  2  0  0  0  0  0  0
  190.6020  176.7670  145.7780 N   0  0  0  0  0  0  0  0  0  0  0  0
  191.4210  177.2240  144.6510 C   0  0  0  0  0  2  0  0  0  0  0  0
  190.6480  177.0380  143.3510 C   0  0  1  0  0  3  0  0  0  0  0  0
  188.5340  177.4500  144.6200 C   0  0  0  0  0  2  0  0  0  0  0  0
  189.3650  177.8640  143.4130 C   0  0  2  0  0  3  0  0  0  0  0  0
  189.3890  177.5970  145.8790 C   0  0  0  0  0  2  0  0  0  0  0  0
  189.2950  177.5550  140.9180 C   0  0  0  0  0  0  0  0  0  0  0  0
  190.6310  177.4100  140.8910 C   0  0  0  0  0  3  0  0  0  0  0  0
  191.4090  176.8810  146.9970 C   0  0  1  0  0  3  0  0  0  0  0  0
  190.6400  177.2910  148.0930 O   0  0  0  0  0  1  0  0  0  0  0  0
  192.1070  175.5690  147.3070 C   0  0  0  0  0  1  0  0  0  0  0  0
  179.9050  177.9700  140.0580 N   0  0  0  0  0  0  0  0  0  0  0  0
  180.3570  178.8330  141.1590 C   0  0  0  0  0  2  0  0  0  0  0  0
  180.6350  176.7150  140.2210 C   0  0  0  0  0  1  0  0  0  0  0  0
  180.7640  179.1620  139.7920 C   0  0  1  0  0  3  0  0  0  0  0  0
  1 17  1  0  0  0  0
  1  5  1  0  0  0  0
  2 13  1  0  0  0  0
  3 15  1  0  0  0  0
  4  9  1  0  0  0  0
  6 11  1  0  0  0  0
  6  4  1  0  0  0  0
  7 12  1  0  0  0  0
  7  8  1  0  0  0  0
  8  6  2  0  0  0  0
  9  5  1  0  0  0  0
  9 26  1  1  0  0  0
 10  3  2  0  0  0  0
 10 11  1  0  0  0  0
 11  1  2  0  0  0  0
 12 10  1  0  0  0  0
 13 14  2  0  0  0  0
 15  2  2  0  0  0  0
 15 17  1  0  0  0  0
 16 14  1  0  0  0  0
 17 16  2  0  0  0  0
 19 24  1  0  0  0  0
 20 25  1  0  0  0  0
 20 28  1  0  0  0  0
 21 20  1  0  0  0  0
 22 18  1  6  0  0  0
 22 24  1  0  0  0  0
 22 21  1  0  0  0  0
 23 25  1  0  0  0  0
 24 23  1  1  0  0  0
 26 19  1  0  0  0  0
 27 26  2  0  0  0  0
 27 18  1  0  0  0  0
 28 30  1  1  0  0  0
 28 29  1  0  0  0  0
 31 33  1  0  0  0  0
 31 32  1  0  0  0  0
 34 13  1  1  0  0  0
 34 31  1  0  0  0  0
 34 32  1  0  0  0  0
M  END
>  <MODEL>
7

>  <REMARK>
 VINA RESULT:      -8.8      3.733      6.834
  Name = 
  3 active torsions:
  status: ('A' for Active; 'I' for Inactive)
    1  A    between atoms: N_7  and  C_11
    2  A    between atoms: C_18  and  C_30
    3  A    between atoms: C_23  and  C_25
                            x       y       z     vdW  Elec       q    Type
                         _______ _______ _______ _____ _____    ______ ____

>  <TORSDO>
F 3

$$$$
=
 OpenBabel11052415563D

 34 40  0  0  1  0  0  0  0  0999 V2000
  188.4980  177.7510  142.9850 C   0  0  0  0  0  0  0  0  0  0  0  0
  191.4080  176.8040  140.9170 C   0  0  0  0  0  3  0  0  0  0  0  0
  191.0280  176.6420  143.2700 N   0  0  0  0  0  0  0  0  0  0  0  0
  186.6610  178.6500  145.4170 S   0  0  0  0  0  0  0  0  0  0  0  0
  187.1280  178.1330  142.8170 N   0  0  0  0  0  2  0  0  0  0  0  0
  188.2310  177.7750  145.4930 C   0  0  0  0  0  0  0  0  0  0  0  0
  190.1960  177.1160  146.8690 C   0  0  0  0  0  2  0  0  0  0  0  0
  188.7670  177.5570  146.6970 C   0  0  0  0  0  3  0  0  0  0  0  0
  186.1410  177.8730  143.8580 C   0  0  2  0  0  3  0  0  0  0  0  0
  190.2690  176.8540  144.3780 C   0  0  0  0  0  0  0  0  0  0  0  0
  189.0090  177.4690  144.2660 C   0  0  0  0  0  0  0  0  0  0  0  0
  190.7000  176.2770  145.6930 C   0  0  0  0  0  2  0  0  0  0  0  0
  190.9350  177.1330  139.6420 C   0  0  0  0  0  0  0  0  0  0  0  0
  189.6560  177.6930  139.5170 C   0  0  0  0  0  3  0  0  0  0  0  0
  190.6000  177.0110  142.0340 C   0  0  0  0  0  0  0  0  0  0  0  0
  188.8770  177.8850  140.6150 N   0  0  0  0  0  0  0  0  0  0  0  0
  189.3150  177.5640  141.8640 C   0  0  0  0  0  0  0  0  0  0  0  0
  182.4640  179.0810  143.9570 C   0  0  0  0  0  2  0  0  0  0  0  0
  184.4860  178.4580  142.0430 N   0  0  0  0  0  0  0  0  0  0  0  0
  180.4720  178.5880  140.7550 N   0  0  0  0  0  0  0  0  0  0  0  0
  180.7720  179.1180  142.0890 C   0  0  0  0  0  2  0  0  0  0  0  0
  182.1060  178.5600  142.5690 C   0  0  1  0  0  3  0  0  0  0  0  0
  182.8720  178.5060  140.1910 C   0  0  0  0  0  2  0  0  0  0  0  0
  183.2030  178.9880  141.5960 C   0  0  2  0  0  3  0  0  0  0  0  0
  181.4950  179.0440  139.7990 C   0  0  0  0  0  2  0  0  0  0  0  0
  184.7920  178.3660  143.4430 C   0  0  0  0  0  0  0  0  0  0  0  0
  183.8370  178.6060  144.3580 C   0  0  0  0  0  2  0  0  0  0  0  0
  179.1460  179.0780  140.3650 C   0  0  1  0  0  3  0  0  0  0  0  0
  178.9430  180.4050  140.7610 O   0  0  0  0  0  1  0  0  0  0  0  0
  178.9390  178.9410  138.8660 C   0  0  0  0  0  1  0  0  0  0  0  0
  191.5640  175.7560  137.6040 N   0  0  0  0  0  0  0  0  0  0  0  0
  191.1270  177.0890  137.1690 C   0  0  0  0  0  2  0  0  0  0  0  0
  190.3410  175.0360  137.9490 C   0  0  0  0  0  1  0  0  0  0  0  0
  191.8370  176.9610  138.4420 C   0  0  1  0  0  3  0  0  0  0  0  0
  1 11  1  0  0  0  0
  2 15  1  0  0  0  0
  3 10  1  0  0  0  0
  4  6  1  0  0  0  0
  5  1  1  0  0  0  0
  5  9  1  0  0  0  0
  6  8  2  0  0  0  0
  8  7  1  0  0  0  0
  9 26  1  6  0  0  0
  9  4  1  0  0  0  0
 10 12  1  0  0  0  0
 11 10  2  0  0  0  0
 11  6  1  0  0  0  0
 12  7  1  0  0  0  0
 13  2  2  0  0  0  0
 14 13  1  0  0  0  0
 14 16  2  0  0  0  0
 15  3  2  0  0  0  0
 16 17  1  0  0  0  0
 17 15  1  0  0  0  0
 17  1  2  0  0  0  0
 18 27  1  0  0  0  0
 19 26  2  0  0  0  0
 20 21  1  0  0  0  0
 22 21  1  6  0  0  0
 22 18  1  0  0  0  0
 24 23  1  6  0  0  0
 24 19  1  0  0  0  0
 24 22  1  0  0  0  0
 25 23  1  0  0  0  0
 25 20  1  0  0  0  0
 26 27  1  0  0  0  0
 28 30  1  6  0  0  0
 28 20  1  0  0  0  0
 28 29  1  0  0  0  0
 31 33  1  0  0  0  0
 31 34  1  0  0  0  0
 32 31  1  0  0  0  0
 32 34  1  0  0  0  0
 34 13  1  1  0  0  0
M  END
>  <MODEL>
8

>  <REMARK>
 VINA RESULT:      -8.6      3.274      8.970
  Name = 
  3 active torsions:
  status: ('A' for Active; 'I' for Inactive)
    1  A    between atoms: N_7  and  C_11
    2  A    between atoms: C_18  and  C_30
    3  A    between atoms: C_23  and  C_25
                            x       y       z     vdW  Elec       q    Type
                         _______ _______ _______ _____ _____    ______ ____

>  <TORSDO>
F 3

$$$$
=
 OpenBabel11052415563D

 34 40  0  0  1  0  0  0  0  0999 V2000
  187.8290  177.9020  143.6810 C   0  0  0  0  0  0  0  0  0  0  0  0
  191.0180  176.8140  142.1690 C   0  0  0  0  0  3  0  0  0  0  0  0
  190.2870  176.8600  144.4430 N   0  0  0  0  0  0  0  0  0  0  0  0
  185.6450  178.9900  145.7160 S   0  0  0  0  0  0  0  0  0  0  0  0
  186.5000  178.2470  143.2740 N   0  0  0  0  0  2  0  0  0  0  0  0
  187.1860  178.1480  146.1080 C   0  0  0  0  0  0  0  0  0  0  0  0
  188.9210  177.6440  147.8170 C   0  0  0  0  0  2  0  0  0  0  0  0
  187.5340  178.0480  147.3930 C   0  0  0  0  0  3  0  0  0  0  0  0
  185.3670  178.0680  144.1740 C   0  0  2  0  0  3  0  0  0  0  0  0
  189.3700  177.1590  145.4000 C   0  0  0  0  0  0  0  0  0  0  0  0
  188.1400  177.7440  145.0440 C   0  0  0  0  0  0  0  0  0  0  0  0
  189.5980  176.7100  146.8130 C   0  0  0  0  0  2  0  0  0  0  0  0
  190.7430  177.0180  140.8120 C   0  0  0  0  0  0  0  0  0  0  0  0
  189.4970  177.5470  140.4460 C   0  0  0  0  0  3  0  0  0  0  0  0
  190.0510  177.1090  143.1290 C   0  0  0  0  0  0  0  0  0  0  0  0
  188.5610  177.8260  141.3930 N   0  0  0  0  0  0  0  0  0  0  0  0
  188.8060  177.6260  142.7170 C   0  0  0  0  0  0  0  0  0  0  0  0
  181.6930  179.1450  143.6000 C   0  0  0  0  0  2  0  0  0  0  0  0
  184.0360  178.5510  142.0850 N   0  0  0  0  0  0  0  0  0  0  0  0
  180.3050  178.5060  140.1170 N   0  0  0  0  0  0  0  0  0  0  0  0
  180.3510  179.0770  141.4680 C   0  0  0  0  0  2  0  0  0  0  0  0
  181.5980  178.5790  142.1870 C   0  0  1  0  0  3  0  0  0  0  0  0
  182.7680  178.4970  139.9800 C   0  0  0  0  0  2  0  0  0  0  0  0
  182.8340  179.0230  141.4060 C   0  0  2  0  0  3  0  0  0  0  0  0
  181.4640  178.9760  139.3400 C   0  0  0  0  0  2  0  0  0  0  0  0
  184.0960  178.5030  143.5190 C   0  0  0  0  0  0  0  0  0  0  0  0
  182.9890  178.7290  144.2460 C   0  0  0  0  0  2  0  0  0  0  0  0
  179.0520  178.9380  139.4890 C   0  0  1  0  0  3  0  0  0  0  0  0
  178.9370  180.3330  139.4630 O   0  0  0  0  0  1  0  0  0  0  0  0
  178.9310  178.3750  138.0840 C   0  0  0  0  0  1  0  0  0  0  0  0
  191.3850  175.9430  138.6050 N   0  0  0  0  0  0  0  0  0  0  0  0
  191.5490  177.3990  138.4980 C   0  0  0  0  0  2  0  0  0  0  0  0
  189.9460  175.7040  138.5210 C   0  0  0  0  0  1  0  0  0  0  0  0
  191.8160  176.7520  139.7830 C   0  0  1  0  0  3  0  0  0  0  0  0
  1 11  1  0  0  0  0
  2 15  1  0  0  0  0
  3 10  1  0  0  0  0
  4  6  1  0  0  0  0
  5  1  1  0  0  0  0
  5  9  1  0  0  0  0
  6  8  2  0  0  0  0
  8  7  1  0  0  0  0
  9 26  1  6  0  0  0
  9  4  1  0  0  0  0
 10 12  1  0  0  0  0
 11 10  2  0  0  0  0
 11  6  1  0  0  0  0
 12  7  1  0  0  0  0
 13  2  2  0  0  0  0
 14 13  1  0  0  0  0
 14 16  2  0  0  0  0
 15  3  2  0  0  0  0
 16 17  1  0  0  0  0
 17 15  1  0  0  0  0
 17  1  2  0  0  0  0
 18 27  1  0  0  0  0
 19 26  2  0  0  0  0
 20 21  1  0  0  0  0
 22 21  1  6  0  0  0
 22 18  1  0  0  0  0
 24 23  1  6  0  0  0
 24 19  1  0  0  0  0
 24 22  1  0  0  0  0
 25 23  1  0  0  0  0
 25 20  1  0  0  0  0
 26 27  1  0  0  0  0
 28 30  1  6  0  0  0
 28 20  1  0  0  0  0
 29 28  1  0  0  0  0
 31 34  1  0  0  0  0
 32 31  1  0  0  0  0
 32 34  1  0  0  0  0
 33 31  1  0  0  0  0
 34 13  1  1  0  0  0
M  END
>  <MODEL>
9

>  <REMARK>
 VINA RESULT:      -8.5      3.345      8.779
  Name = 
  3 active torsions:
  status: ('A' for Active; 'I' for Inactive)
    1  A    between atoms: N_7  and  C_11
    2  A    between atoms: C_18  and  C_30
    3  A    between atoms: C_23  and  C_25
                            x       y       z     vdW  Elec       q    Type
                         _______ _______ _______ _____ _____    ______ ____

>  <TORSDO>
F 3

$$$$
