=
 OpenBabel11052416003D

 34 39  0  0  1  0  0  0  0  0999 V2000
  189.8570  176.3840  144.1420 C   0  0  1  0  0  3  0  0  0  0  0  0
  187.0960  177.7230  146.2710 C   0  0  0  0  0  3  0  0  0  0  0  0
  184.6880  179.5140  144.2320 C   0  0  0  0  0  2  0  0  0  0  0  0
  189.4400  177.4440  146.7310 C   0  0  0  0  0  3  0  0  0  0  0  0
  190.7450  176.3810  141.6860 C   0  0  2  0  0  3  0  0  0  0  0  0
  190.1180  175.6000  142.8460 C   0  0  0  0  0  2  0  0  0  0  0  0
  191.5600  178.2590  144.3670 N   0  0  0  0  0  2  0  0  0  0  0  0
  191.3450  178.4710  142.9350 C   0  0  0  0  0  2  0  0  0  0  0  0
  184.4360  178.0940  146.5350 S   0  0  0  0  0  0  0  0  0  0  0  0
  191.8800  177.3170  142.1010 C   0  0  0  0  0  2  0  0  0  0  0  0
  190.6990  177.1780  146.3470 C   0  0  0  0  0  0  0  0  0  0  0  0
  191.0630  176.9760  144.8960 C   0  0  1  0  0  3  0  0  0  0  0  0
  191.7030  177.1380  147.3050 O   0  0  0  0  0  1  0  0  0  0  0  0
  185.8370  177.6440  145.4720 C   0  0  1  0  0  3  0  0  0  0  0  0
  183.6240  178.9880  145.1740 C   0  0  0  0  0  2  0  0  0  0  0  0
  185.8450  178.5930  144.3280 C   0  0  0  0  0  0  0  0  0  0  0  0
  186.7420  178.5460  143.3440 C   0  0  0  0  0  3  0  0  0  0  0  0
  188.3100  177.4810  145.7790 C   0  0  0  0  0  0  0  0  0  0  0  0
  187.9270  177.6700  143.3080 C   0  0  0  0  0  3  0  0  0  0  0  0
  188.5830  177.1450  144.3550 C   0  0  0  0  0  0  0  0  0  0  0  0
  189.6900  177.0680  140.8200 C   0  0  0  0  0  2  0  0  0  0  0  0
  189.0540  179.3600  138.5700 O   0  0  0  0  0  1  0  0  0  0  0  0
  190.9010  176.3530  138.7800 N   0  0  0  0  0  2  0  0  0  0  0  0
  188.0580  176.1020  135.7300 C   0  0  0  0  0  0  0  0  0  0  0  0
  188.4140  177.3310  136.2990 O   0  0  0  0  0  0  0  0  0  0  0  0
  189.5340  177.5040  137.1750 C   0  0  2  0  0  3  0  0  0  0  0  0
  189.4500  174.9810  137.4000 C   0  0  0  0  0  2  0  0  0  0  0  0
  190.3320  176.2290  137.4410 C   0  0  2  0  0  3  0  0  0  0  0  0
  188.5730  174.9670  136.1930 C   0  0  0  0  0  3  0  0  0  0  0  0
  190.2120  177.4650  139.4390 C   0  0  1  0  0  3  0  0  0  0  0  0
  189.1040  177.9670  138.5340 C   0  0  1  0  0  3  0  0  0  0  0  0
  187.0930  176.0660  134.5940 C   0  0  0  0  0  2  0  0  0  0  0  0
  186.1880  177.2870  134.6150 C   0  0  0  0  0  2  0  0  0  0  0  0
  185.0690  177.0650  135.5140 N   0  0  0  0  0  1  0  0  0  0  0  0
  1  6  1  6  0  0  0
  1 20  1  0  0  0  0
  1 12  1  0  0  0  0
  3 16  1  0  0  0  0
  3 15  1  0  0  0  0
  5 21  1  1  0  0  0
  5 10  1  0  0  0  0
  5  6  1  0  0  0  0
  8  7  1  0  0  0  0
 10  8  1  0  0  0  0
 11  4  2  0  0  0  0
 11 13  1  0  0  0  0
 12  7  1  6  0  0  0
 12 11  1  0  0  0  0
 14  2  1  1  0  0  0
 14  9  1  0  0  0  0
 15  9  1  0  0  0  0
 16 14  1  0  0  0  0
 17 16  2  0  0  0  0
 18  2  2  0  0  0  0
 18  4  1  0  0  0  0
 19 17  1  0  0  0  0
 19 20  2  0  0  0  0
 20 18  1  0  0  0  0
 23 30  1  0  0  0  0
 24 29  2  0  0  0  0
 24 25  1  0  0  0  0
 26 25  1  6  0  0  0
 26 28  1  0  0  0  0
 26 31  1  0  0  0  0
 28 27  1  1  0  0  0
 28 23  1  0  0  0  0
 29 27  1  0  0  0  0
 30 21  1  1  0  0  0
 31 22  1  6  0  0  0
 31 30  1  0  0  0  0
 32 33  1  0  0  0  0
 32 24  1  0  0  0  0
 33 34  1  0  0  0  0
M  END
>  <MODEL>
1

>  <REMARK>
 VINA RESULT:      -9.5      0.000      0.000
  Name = 
  4 active torsions:
  status: ('A' for Active; 'I' for Inactive)
    1  A    between atoms: C_7  and  C_11
    2  A    between atoms: C_8  and  C_18
    3  A    between atoms: C_11  and  C_15
    4  A    between atoms: C_18  and  C_30
                            x       y       z     vdW  Elec       q    Type
                         _______ _______ _______ _____ _____    ______ ____

>  <TORSDO>
F 4

$$$$
=
 OpenBabel11052416003D

 34 39  0  0  1  0  0  0  0  0999 V2000
  189.8110  176.4220  144.1280 C   0  0  1  0  0  3  0  0  0  0  0  0
  187.0400  177.6780  146.2950 C   0  0  0  0  0  3  0  0  0  0  0  0
  184.6520  179.5640  144.3200 C   0  0  0  0  0  2  0  0  0  0  0  0
  189.3800  177.3700  146.7590 C   0  0  0  0  0  3  0  0  0  0  0  0
  190.7150  176.5220  141.6810 C   0  0  2  0  0  3  0  0  0  0  0  0
  190.0770  175.6930  142.8010 C   0  0  0  0  0  2  0  0  0  0  0  0
  191.5190  178.2790  144.4460 N   0  0  0  0  0  2  0  0  0  0  0  0
  191.3140  178.5540  143.0240 C   0  0  0  0  0  2  0  0  0  0  0  0
  184.3790  178.0470  146.5580 S   0  0  0  0  0  0  0  0  0  0  0  0
  191.8510  177.4350  142.1430 C   0  0  0  0  0  2  0  0  0  0  0  0
  190.6400  177.1160  146.3720 C   0  0  0  0  0  0  0  0  0  0  0  0
  191.0130  176.9760  144.9150 C   0  0  1  0  0  3  0  0  0  0  0  0
  191.6380  177.0320  147.3340 O   0  0  0  0  0  1  0  0  0  0  0  0
  185.7860  177.6380  145.4860 C   0  0  1  0  0  3  0  0  0  0  0  0
  183.5800  179.0020  145.2320 C   0  0  0  0  0  2  0  0  0  0  0  0
  185.8050  178.6360  144.3830 C   0  0  0  0  0  0  0  0  0  0  0  0
  186.7080  178.6280  143.4040 C   0  0  0  0  0  3  0  0  0  0  0  0
  188.2570  177.4530  145.8010 C   0  0  0  0  0  0  0  0  0  0  0  0
  187.8910  177.7500  143.3390 C   0  0  0  0  0  3  0  0  0  0  0  0
  188.5370  177.1780  144.3660 C   0  0  0  0  0  0  0  0  0  0  0  0
  189.6680  177.2500  140.8380 C   0  0  0  0  0  2  0  0  0  0  0  0
  188.5500  178.8930  138.2360 O   0  0  0  0  0  1  0  0  0  0  0  0
  191.3330  176.8680  139.0430 N   0  0  0  0  0  2  0  0  0  0  0  0
  189.2470  175.2490  135.8060 C   0  0  0  0  0  0  0  0  0  0  0  0
  189.0360  176.5680  136.2260 O   0  0  0  0  0  0  0  0  0  0  0  0
  189.8770  177.2430  137.1700 C   0  0  2  0  0  3  0  0  0  0  0  0
  190.7050  174.9170  137.7410 C   0  0  0  0  0  2  0  0  0  0  0  0
  191.0460  176.4060  137.6880 C   0  0  2  0  0  3  0  0  0  0  0  0
  190.0760  174.4500  136.4710 C   0  0  0  0  0  3  0  0  0  0  0  0
  190.1940  177.6840  139.4700 C   0  0  1  0  0  3  0  0  0  0  0  0
  189.1180  177.6300  138.4030 C   0  0  1  0  0  3  0  0  0  0  0  0
  188.5350  174.7350  134.6010 C   0  0  0  0  0  2  0  0  0  0  0  0
  188.2110  173.2580  134.7540 C   0  0  0  0  0  2  0  0  0  0  0  0
  186.8830  173.0930  135.3210 N   0  0  0  0  0  1  0  0  0  0  0  0
  1  6  1  6  0  0  0
  1 20  1  0  0  0  0
  1 12  1  0  0  0  0
  3 16  1  0  0  0  0
  3 15  1  0  0  0  0
  5 21  1  1  0  0  0
  5 10  1  0  0  0  0
  5  6  1  0  0  0  0
  8  7  1  0  0  0  0
 10  8  1  0  0  0  0
 11  4  2  0  0  0  0
 11 13  1  0  0  0  0
 12  7  1  6  0  0  0
 12 11  1  0  0  0  0
 14  2  1  1  0  0  0
 14  9  1  0  0  0  0
 15  9  1  0  0  0  0
 16 14  1  0  0  0  0
 17 16  2  0  0  0  0
 18  2  2  0  0  0  0
 18  4  1  0  0  0  0
 19 17  1  0  0  0  0
 19 20  2  0  0  0  0
 20 18  1  0  0  0  0
 23 30  1  0  0  0  0
 24 25  1  0  0  0  0
 24 29  2  0  0  0  0
 26 25  1  6  0  0  0
 26 28  1  0  0  0  0
 26 31  1  0  0  0  0
 28 27  1  1  0  0  0
 28 23  1  0  0  0  0
 29 27  1  0  0  0  0
 30 21  1  1  0  0  0
 31 22  1  6  0  0  0
 31 30  1  0  0  0  0
 32 33  1  0  0  0  0
 32 24  1  0  0  0  0
 33 34  1  0  0  0  0
M  END
>  <MODEL>
2

>  <REMARK>
 VINA RESULT:      -9.1      1.119      1.249
  Name = 
  4 active torsions:
  status: ('A' for Active; 'I' for Inactive)
    1  A    between atoms: C_7  and  C_11
    2  A    between atoms: C_8  and  C_18
    3  A    between atoms: C_11  and  C_15
    4  A    between atoms: C_18  and  C_30
                            x       y       z     vdW  Elec       q    Type
                         _______ _______ _______ _____ _____    ______ ____

>  <TORSDO>
F 4

$$$$
=
 OpenBabel11052416003D

 34 39  0  0  1  0  0  0  0  0999 V2000
  183.2200  179.2560  140.7540 C   0  0  1  0  0  3  0  0  0  0  0  0
  183.7270  178.8780  144.4360 C   0  0  0  0  0  3  0  0  0  0  0  0
  186.8990  177.2530  145.1100 C   0  0  0  0  0  2  0  0  0  0  0  0
  181.7240  178.7760  143.1070 C   0  0  0  0  0  3  0  0  0  0  0  0
  184.3010  178.6480  138.4560 C   0  0  2  0  0  3  0  0  0  0  0  0
  183.9280  179.7300  139.4750 C   0  0  0  0  0  2  0  0  0  0  0  0
  181.8710  177.1570  140.2600 N   0  0  0  0  0  2  0  0  0  0  0  0
  183.0290  176.7380  139.4690 C   0  0  0  0  0  2  0  0  0  0  0  0
  185.4500  179.0830  146.5020 S   0  0  0  0  0  0  0  0  0  0  0  0
  183.2120  177.5990  138.2280 C   0  0  0  0  0  2  0  0  0  0  0  0
  181.0880  178.7200  141.9260 C   0  0  0  0  0  0  0  0  0  0  0  0
  181.8390  178.5850  140.6230 C   0  0  1  0  0  3  0  0  0  0  0  0
  179.7010  178.7350  141.9050 O   0  0  0  0  0  1  0  0  0  0  0  0
  185.1840  179.0560  144.7070 C   0  0  1  0  0  3  0  0  0  0  0  0
  186.9940  178.1350  146.3400 C   0  0  0  0  0  2  0  0  0  0  0  0
  185.9920  177.9340  144.1580 C   0  0  0  0  0  0  0  0  0  0  0  0
  186.0370  177.6310  142.8620 C   0  0  0  0  0  3  0  0  0  0  0  0
  183.1980  178.7890  143.2150 C   0  0  0  0  0  0  0  0  0  0  0  0
  185.2010  178.2400  141.8110 C   0  0  0  0  0  3  0  0  0  0  0  0
  183.9940  178.8060  141.9580 C   0  0  0  0  0  0  0  0  0  0  0  0
  185.6710  178.0350  138.7460 C   0  0  0  0  0  2  0  0  0  0  0  0
  186.4340  175.9590  136.3320 O   0  0  0  0  0  1  0  0  0  0  0  0
  187.6740  178.9960  137.6480 N   0  0  0  0  0  2  0  0  0  0  0  0
  190.6300  176.0470  137.7660 C   0  0  0  0  0  0  0  0  0  0  0  0
  189.4740  175.8940  136.9890 O   0  0  0  0  0  0  0  0  0  0  0  0
  188.5470  176.9550  136.7300 C   0  0  2  0  0  3  0  0  0  0  0  0
  189.6830  178.1090  138.6810 C   0  0  0  0  0  2  0  0  0  0  0  0
  188.9220  178.2930  137.3680 C   0  0  2  0  0  3  0  0  0  0  0  0
  190.7880  177.1150  138.5420 C   0  0  0  0  0  3  0  0  0  0  0  0
  186.5910  178.0170  137.5250 C   0  0  1  0  0  3  0  0  0  0  0  0
  187.1890  176.6460  137.2820 C   0  0  1  0  0  3  0  0  0  0  0  0
  191.6930  175.0030  137.7210 C   0  0  0  0  0  2  0  0  0  0  0  0
  192.9650  175.5530  137.0960 C   0  0  0  0  0  2  0  0  0  0  0  0
  194.0200  175.6290  138.0910 N   0  0  0  0  0  1  0  0  0  0  0  0
  1  6  1  6  0  0  0
  1 20  1  0  0  0  0
  3 15  1  0  0  0  0
  4 18  1  0  0  0  0
  5 21  1  1  0  0  0
  5  6  1  0  0  0  0
  8  7  1  0  0  0  0
 10  5  1  0  0  0  0
 10  8  1  0  0  0  0
 11  4  2  0  0  0  0
 12  7  1  1  0  0  0
 12  1  1  0  0  0  0
 12 11  1  0  0  0  0
 13 11  1  0  0  0  0
 14  2  1  1  0  0  0
 14  9  1  0  0  0  0
 15  9  1  0  0  0  0
 16 14  1  0  0  0  0
 16  3  1  0  0  0  0
 17 16  2  0  0  0  0
 18  2  2  0  0  0  0
 19 20  2  0  0  0  0
 19 17  1  0  0  0  0
 20 18  1  0  0  0  0
 24 29  2  0  0  0  0
 25 24  1  0  0  0  0
 26 25  1  1  0  0  0
 26 31  1  0  0  0  0
 26 28  1  0  0  0  0
 28 23  1  0  0  0  0
 28 27  1  1  0  0  0
 29 27  1  0  0  0  0
 30 23  1  0  0  0  0
 30 21  1  1  0  0  0
 31 22  1  6  0  0  0
 31 30  1  0  0  0  0
 32 24  1  0  0  0  0
 33 32  1  0  0  0  0
 33 34  1  0  0  0  0
M  END
>  <MODEL>
3

>  <REMARK>
 VINA RESULT:      -8.7      3.367      6.366
  Name = 
  4 active torsions:
  status: ('A' for Active; 'I' for Inactive)
    1  A    between atoms: C_7  and  C_11
    2  A    between atoms: C_8  and  C_18
    3  A    between atoms: C_11  and  C_15
    4  A    between atoms: C_18  and  C_30
                            x       y       z     vdW  Elec       q    Type
                         _______ _______ _______ _____ _____    ______ ____

>  <TORSDO>
F 4

$$$$
=
 OpenBabel11052416003D

 34 39  0  0  1  0  0  0  0  0999 V2000
  189.8650  176.3990  143.7790 C   0  0  1  0  0  3  0  0  0  0  0  0
  187.2780  177.6430  146.1690 C   0  0  0  0  0  3  0  0  0  0  0  0
  184.7320  179.5270  144.4000 C   0  0  0  0  0  2  0  0  0  0  0  0
  189.6500  177.3410  146.4380 C   0  0  0  0  0  3  0  0  0  0  0  0
  190.5650  176.5070  141.2660 C   0  0  2  0  0  3  0  0  0  0  0  0
  190.0240  175.6740  142.4330 C   0  0  0  0  0  2  0  0  0  0  0  0
  191.5890  178.2600  143.9600 N   0  0  0  0  0  2  0  0  0  0  0  0
  191.2670  178.5380  142.5590 C   0  0  0  0  0  2  0  0  0  0  0  0
  184.6470  178.0050  146.6500 S   0  0  0  0  0  0  0  0  0  0  0  0
  191.7330  177.4220  141.6350 C   0  0  0  0  0  2  0  0  0  0  0  0
  190.8740  177.0920  145.9480 C   0  0  0  0  0  0  0  0  0  0  0  0
  191.1270  176.9550  144.4660 C   0  0  1  0  0  3  0  0  0  0  0  0
  191.9480  177.0080  146.8250 O   0  0  0  0  0  1  0  0  0  0  0  0
  185.9630  177.6010  145.4650 C   0  0  1  0  0  3  0  0  0  0  0  0
  183.7390  178.9600  145.3960 C   0  0  0  0  0  2  0  0  0  0  0  0
  185.8880  178.6020  144.3670 C   0  0  0  0  0  0  0  0  0  0  0  0
  186.7080  178.5980  143.3170 C   0  0  0  0  0  3  0  0  0  0  0  0
  188.4510  177.4220  145.5760 C   0  0  0  0  0  0  0  0  0  0  0  0
  187.8840  177.7240  143.1530 C   0  0  0  0  0  3  0  0  0  0  0  0
  188.6140  177.1510  144.1220 C   0  0  0  0  0  0  0  0  0  0  0  0
  189.4500  177.2340  140.5140 C   0  0  0  0  0  2  0  0  0  0  0  0
  188.0590  176.2270  137.7260 O   0  0  0  0  0  1  0  0  0  0  0  0
  191.1220  177.6730  138.7380 N   0  0  0  0  0  2  0  0  0  0  0  0
  191.8010  174.0300  136.8100 C   0  0  0  0  0  0  0  0  0  0  0  0
  190.5680  174.6880  136.7180 O   0  0  0  0  0  0  0  0  0  0  0  0
  190.3530  176.0330  137.1600 C   0  0  2  0  0  3  0  0  0  0  0  0
  192.5250  175.7170  138.4270 C   0  0  0  0  0  2  0  0  0  0  0  0
  191.5910  176.7140  137.7420 C   0  0  2  0  0  3  0  0  0  0  0  0
  192.7750  174.5200  137.5710 C   0  0  0  0  0  3  0  0  0  0  0  0
  189.7190  177.3560  139.0140 C   0  0  1  0  0  3  0  0  0  0  0  0
  189.3390  176.0950  138.2630 C   0  0  1  0  0  3  0  0  0  0  0  0
  192.0240  172.7690  136.0460 C   0  0  0  0  0  2  0  0  0  0  0  0
  193.4310  172.2400  136.2760 C   0  0  0  0  0  2  0  0  0  0  0  0
  193.4550  170.7960  136.1160 N   0  0  0  0  0  1  0  0  0  0  0  0
  1  6  1  6  0  0  0
  1 20  1  0  0  0  0
  1 12  1  0  0  0  0
  3 15  1  0  0  0  0
  5 21  1  1  0  0  0
  5 10  1  0  0  0  0
  5  6  1  0  0  0  0
  8  7  1  0  0  0  0
 10  8  1  0  0  0  0
 11  4  2  0  0  0  0
 11 13  1  0  0  0  0
 12  7  1  6  0  0  0
 12 11  1  0  0  0  0
 14  2  1  1  0  0  0
 14  9  1  0  0  0  0
 15  9  1  0  0  0  0
 16  3  1  0  0  0  0
 16 14  1  0  0  0  0
 17 16  2  0  0  0  0
 18  2  2  0  0  0  0
 18  4  1  0  0  0  0
 19 17  1  0  0  0  0
 19 20  2  0  0  0  0
 20 18  1  0  0  0  0
 23 30  1  0  0  0  0
 24 29  2  0  0  0  0
 25 24  1  0  0  0  0
 26 25  1  1  0  0  0
 26 28  1  0  0  0  0
 26 31  1  0  0  0  0
 28 27  1  1  0  0  0
 28 23  1  0  0  0  0
 29 27  1  0  0  0  0
 30 21  1  1  0  0  0
 31 22  1  6  0  0  0
 31 30  1  0  0  0  0
 32 33  1  0  0  0  0
 32 24  1  0  0  0  0
 34 33  1  0  0  0  0
M  END
>  <MODEL>
4

>  <REMARK>
 VINA RESULT:      -8.2      1.939      3.042
  Name = 
  4 active torsions:
  status: ('A' for Active; 'I' for Inactive)
    1  A    between atoms: C_7  and  C_11
    2  A    between atoms: C_8  and  C_18
    3  A    between atoms: C_11  and  C_15
    4  A    between atoms: C_18  and  C_30
                            x       y       z     vdW  Elec       q    Type
                         _______ _______ _______ _____ _____    ______ ____

>  <TORSDO>
F 4

$$$$
=
 OpenBabel11052416003D

 34 39  0  0  1  0  0  0  0  0999 V2000
  188.7150  176.4180  138.0050 C   0  0  1  0  0  3  0  0  0  0  0  0
  191.0540  176.6180  140.9100 C   0  0  0  0  0  3  0  0  0  0  0  0
  189.5960  178.6100  143.5680 C   0  0  0  0  0  2  0  0  0  0  0  0
  191.4900  176.5340  138.5460 C   0  0  0  0  0  3  0  0  0  0  0  0
  186.4180  177.3170  137.1490 C   0  0  2  0  0  3  0  0  0  0  0  0
  187.2480  176.1290  137.6470 C   0  0  0  0  0  2  0  0  0  0  0  0
  189.5820  178.3420  136.5860 N   0  0  0  0  0  2  0  0  0  0  0  0
  188.2830  178.9650  136.8430 C   0  0  0  0  0  2  0  0  0  0  0  0
  191.3240  176.5130  143.5930 S   0  0  0  0  0  0  0  0  0  0  0  0
  187.1480  178.2210  136.1560 C   0  0  0  0  0  2  0  0  0  0  0  0
  191.0880  176.5810  137.2660 C   0  0  0  0  0  0  0  0  0  0  0  0
  189.6610  176.9020  136.8900 C   0  0  1  0  0  3  0  0  0  0  0  0
  192.0200  176.3790  136.2580 O   0  0  0  0  0  1  0  0  0  0  0  0
  190.2260  176.6210  142.1520 C   0  0  1  0  0  3  0  0  0  0  0  0
  190.2860  177.6710  144.5370 C   0  0  0  0  0  2  0  0  0  0  0  0
  189.4400  177.8760  142.2910 C   0  0  0  0  0  0  0  0  0  0  0  0
  188.5250  178.2680  141.4050 C   0  0  0  0  0  3  0  0  0  0  0  0
  190.5560  176.7140  139.6780 C   0  0  0  0  0  0  0  0  0  0  0  0
  188.2590  177.6220  140.1070 C   0  0  0  0  0  3  0  0  0  0  0  0
  189.1100  176.8880  139.3740 C   0  0  0  0  0  0  0  0  0  0  0  0
  185.7740  178.0900  138.3000 C   0  0  0  0  0  2  0  0  0  0  0  0
  184.0090  180.7500  139.0280 O   0  0  0  0  0  1  0  0  0  0  0  0
  183.4870  177.6200  137.4680 N   0  0  0  0  0  2  0  0  0  0  0  0
  180.9160  178.0640  140.7300 C   0  0  0  0  0  0  0  0  0  0  0  0
  181.5960  179.1580  140.1800 O   0  0  0  0  0  0  0  0  0  0  0  0
  182.3010  179.1080  138.9340 C   0  0  2  0  0  3  0  0  0  0  0  0
  182.1670  176.5940  139.2280 C   0  0  0  0  0  2  0  0  0  0  0  0
  182.2510  177.7510  138.2330 C   0  0  2  0  0  3  0  0  0  0  0  0
  181.1230  176.8350  140.2670 C   0  0  0  0  0  3  0  0  0  0  0  0
  184.4010  178.6610  137.9460 C   0  0  1  0  0  3  0  0  0  0  0  0
  183.7630  179.3790  139.1190 C   0  0  1  0  0  3  0  0  0  0  0  0
  179.9520  178.2790  141.8470 C   0  0  0  0  0  2  0  0  0  0  0  0
  180.5680  179.1470  142.9330 C   0  0  0  0  0  2  0  0  0  0  0  0
  180.0540  180.5030  142.8410 N   0  0  0  0  0  1  0  0  0  0  0  0
  1  6  1  6  0  0  0
  1 20  1  0  0  0  0
  3 15  1  0  0  0  0
  4 18  1  0  0  0  0
  5  6  1  0  0  0  0
  5 21  1  1  0  0  0
  7  8  1  0  0  0  0
  9 15  1  0  0  0  0
 10  8  1  0  0  0  0
 10  5  1  0  0  0  0
 11  4  2  0  0  0  0
 12  7  1  1  0  0  0
 12 11  1  0  0  0  0
 12  1  1  0  0  0  0
 13 11  1  0  0  0  0
 14  2  1  6  0  0  0
 14 16  1  0  0  0  0
 14  9  1  0  0  0  0
 16  3  1  0  0  0  0
 17 16  2  0  0  0  0
 18  2  2  0  0  0  0
 19 17  1  0  0  0  0
 20 18  1  0  0  0  0
 20 19  2  0  0  0  0
 23 30  1  0  0  0  0
 23 28  1  0  0  0  0
 24 32  1  0  0  0  0
 25 24  1  0  0  0  0
 26 31  1  0  0  0  0
 26 25  1  1  0  0  0
 27 29  1  0  0  0  0
 28 26  1  0  0  0  0
 28 27  1  1  0  0  0
 29 24  2  0  0  0  0
 30 21  1  1  0  0  0
 30 31  1  0  0  0  0
 31 22  1  6  0  0  0
 32 33  1  0  0  0  0
 34 33  1  0  0  0  0
M  END
>  <MODEL>
5

>  <REMARK>
 VINA RESULT:      -7.4      4.079      7.325
  Name = 
  4 active torsions:
  status: ('A' for Active; 'I' for Inactive)
    1  A    between atoms: C_7  and  C_11
    2  A    between atoms: C_8  and  C_18
    3  A    between atoms: C_11  and  C_15
    4  A    between atoms: C_18  and  C_30
                            x       y       z     vdW  Elec       q    Type
                         _______ _______ _______ _____ _____    ______ ____

>  <TORSDO>
F 4

$$$$
=
 OpenBabel11052416003D

 34 39  0  0  1  0  0  0  0  0999 V2000
  188.2280  178.6250  138.5590 C   0  0  1  0  0  3  0  0  0  0  0  0
  188.2870  178.3150  142.2810 C   0  0  0  0  0  3  0  0  0  0  0  0
  190.9650  176.0990  143.3180 C   0  0  0  0  0  2  0  0  0  0  0  0
  186.4450  178.5710  140.7550 C   0  0  0  0  0  3  0  0  0  0  0  0
  189.3730  177.7050  136.4000 C   0  0  2  0  0  3  0  0  0  0  0  0
  189.1400  178.8850  137.3500 C   0  0  0  0  0  2  0  0  0  0  0  0
  186.5210  176.8320  137.9770 N   0  0  0  0  0  2  0  0  0  0  0  0
  187.6350  176.1480  137.3200 C   0  0  0  0  0  2  0  0  0  0  0  0
  189.8070  178.2490  144.5100 S   0  0  0  0  0  0  0  0  0  0  0  0
  188.1150  176.8960  136.0840 C   0  0  0  0  0  2  0  0  0  0  0  0
  185.9290  178.5960  139.5160 C   0  0  0  0  0  0  0  0  0  0  0  0
  186.7560  178.2510  138.3010 C   0  0  1  0  0  3  0  0  0  0  0  0
  184.5840  178.8970  139.3510 O   0  0  0  0  0  1  0  0  0  0  0  0
  189.7150  178.1990  142.6970 C   0  0  1  0  0  3  0  0  0  0  0  0
  191.1250  176.9950  144.5300 C   0  0  0  0  0  2  0  0  0  0  0  0
  190.3180  176.9100  142.2620 C   0  0  0  0  0  0  0  0  0  0  0  0
  190.4220  176.5470  140.9840 C   0  0  0  0  0  3  0  0  0  0  0  0
  187.8710  178.2830  141.0150 C   0  0  0  0  0  0  0  0  0  0  0  0
  189.8390  177.2680  139.8390 C   0  0  0  0  0  3  0  0  0  0  0  0
  188.7700  178.0790  139.8470 C   0  0  0  0  0  0  0  0  0  0  0  0
  190.5480  176.8350  136.8440 C   0  0  0  0  0  2  0  0  0  0  0  0
  190.1460  173.6070  137.2210 O   0  0  0  0  0  1  0  0  0  0  0  0
  191.6210  175.7940  134.8670 N   0  0  0  0  0  2  0  0  0  0  0  0
  194.4620  173.1030  136.3300 C   0  0  0  0  0  0  0  0  0  0  0  0
  193.0900  172.8890  136.5120 O   0  0  0  0  0  0  0  0  0  0  0  0
  192.0740  173.6460  135.8420 C   0  0  2  0  0  3  0  0  0  0  0  0
  193.9430  175.2890  135.3630 C   0  0  0  0  0  2  0  0  0  0  0  0
  192.6060  174.7170  134.8910 C   0  0  2  0  0  3  0  0  0  0  0  0
  194.9030  174.2090  135.7390 C   0  0  0  0  0  3  0  0  0  0  0  0
  190.7140  175.5730  135.9970 C   0  0  1  0  0  3  0  0  0  0  0  0
  191.2190  174.4010  136.8150 C   0  0  1  0  0  3  0  0  0  0  0  0
  195.4380  172.0810  136.8040 C   0  0  0  0  0  2  0  0  0  0  0  0
  196.2790  172.6260  137.9470 C   0  0  0  0  0  2  0  0  0  0  0  0
  195.4270  172.9860  139.0670 N   0  0  0  0  0  1  0  0  0  0  0  0
  1  6  1  6  0  0  0
  1 20  1  0  0  0  0
  3 15  1  0  0  0  0
  4 18  1  0  0  0  0
  5 21  1  1  0  0  0
  5  6  1  0  0  0  0
  8  7  1  0  0  0  0
  9 15  1  0  0  0  0
 10  5  1  0  0  0  0
 10  8  1  0  0  0  0
 11  4  2  0  0  0  0
 12  7  1  1  0  0  0
 12  1  1  0  0  0  0
 12 11  1  0  0  0  0
 13 11  1  0  0  0  0
 14  2  1  1  0  0  0
 14  9  1  0  0  0  0
 16 14  1  0  0  0  0
 16  3  1  0  0  0  0
 17 16  2  0  0  0  0
 18  2  2  0  0  0  0
 19 20  2  0  0  0  0
 19 17  1  0  0  0  0
 20 18  1  0  0  0  0
 23 28  1  0  0  0  0
 23 30  1  0  0  0  0
 24 25  1  0  0  0  0
 24 32  1  0  0  0  0
 26 25  1  1  0  0  0
 26 31  1  0  0  0  0
 27 29  1  0  0  0  0
 28 27  1  1  0  0  0
 28 26  1  0  0  0  0
 29 24  2  0  0  0  0
 30 31  1  0  0  0  0
 30 21  1  1  0  0  0
 31 22  1  6  0  0  0
 32 33  1  0  0  0  0
 33 34  1  0  0  0  0
M  END
>  <MODEL>
6

>  <REMARK>
 VINA RESULT:      -7.3      3.563      6.725
  Name = 
  4 active torsions:
  status: ('A' for Active; 'I' for Inactive)
    1  A    between atoms: C_7  and  C_11
    2  A    between atoms: C_8  and  C_18
    3  A    between atoms: C_11  and  C_15
    4  A    between atoms: C_18  and  C_30
                            x       y       z     vdW  Elec       q    Type
                         _______ _______ _______ _____ _____    ______ ____

>  <TORSDO>
F 4

$$$$
=
 OpenBabel11052416003D

 34 39  0  0  1  0  0  0  0  0999 V2000
  182.2160  177.0500  137.6000 C   0  0  1  0  0  3  0  0  0  0  0  0
  180.8560  177.6610  141.0250 C   0  0  0  0  0  3  0  0  0  0  0  0
  183.5250  178.6180  143.2870 C   0  0  0  0  0  2  0  0  0  0  0  0
  180.2020  176.0790  139.3340 C   0  0  0  0  0  3  0  0  0  0  0  0
  184.4570  176.9500  136.2640 C   0  0  2  0  0  3  0  0  0  0  0  0
  183.1300  177.6680  136.5300 C   0  0  0  0  0  2  0  0  0  0  0  0
  182.5860  174.5350  137.6960 N   0  0  0  0  0  2  0  0  0  0  0  0
  184.0080  174.8560  137.5700 C   0  0  0  0  0  2  0  0  0  0  0  0
  180.8830  179.2490  143.2060 S   0  0  0  0  0  0  0  0  0  0  0  0
  184.3450  175.4260  136.2000 C   0  0  0  0  0  2  0  0  0  0  0  0
  180.3990  175.4430  138.1680 C   0  0  0  0  0  0  0  0  0  0  0  0
  181.6610  175.6320  137.3600 C   0  0  1  0  0  3  0  0  0  0  0  0
  179.4380  174.5490  137.7170 O   0  0  0  0  0  1  0  0  0  0  0  0
  181.6390  178.7820  141.6230 C   0  0  1  0  0  3  0  0  0  0  0  0
  182.5150  179.5230  143.9630 C   0  0  0  0  0  2  0  0  0  0  0  0
  183.0450  178.3890  141.9050 C   0  0  0  0  0  0  0  0  0  0  0  0
  183.8980  177.9950  140.9600 C   0  0  0  0  0  3  0  0  0  0  0  0
  181.1640  177.0640  139.8730 C   0  0  0  0  0  0  0  0  0  0  0  0
  183.5550  177.7430  139.5490 C   0  0  0  0  0  3  0  0  0  0  0  0
  182.3570  177.4020  139.0510 C   0  0  0  0  0  0  0  0  0  0  0  0
  185.5660  177.4280  137.2000 C   0  0  0  0  0  2  0  0  0  0  0  0
  187.6070  176.3260  134.8890 O   0  0  0  0  0  1  0  0  0  0  0  0
  187.4800  179.0030  137.1940 N   0  0  0  0  0  2  0  0  0  0  0  0
  190.9150  176.7090  137.8190 C   0  0  0  0  0  0  0  0  0  0  0  0
  190.1640  176.5960  136.6430 O   0  0  0  0  0  0  0  0  0  0  0  0
  189.1220  177.5090  136.2760 C   0  0  2  0  0  3  0  0  0  0  0  0
  189.2020  178.2100  138.7110 C   0  0  0  0  0  2  0  0  0  0  0  0
  188.8920  178.6410  137.2770 C   0  0  2  0  0  3  0  0  0  0  0  0
  190.5160  177.5090  138.8030 C   0  0  0  0  0  3  0  0  0  0  0  0
  186.8040  177.9330  136.4570 C   0  0  1  0  0  3  0  0  0  0  0  0
  187.7950  176.8190  136.1800 C   0  0  1  0  0  3  0  0  0  0  0  0
  192.1740  175.9250  137.9690 C   0  0  0  0  0  2  0  0  0  0  0  0
  192.9730  175.9330  136.6760 C   0  0  0  0  0  2  0  0  0  0  0  0
  194.2460  176.6030  136.8780 N   0  0  0  0  0  1  0  0  0  0  0  0
  1  6  1  6  0  0  0
  1 20  1  0  0  0  0
  3 15  1  0  0  0  0
  4 18  1  0  0  0  0
  5  6  1  0  0  0  0
  5 21  1  1  0  0  0
  8  7  1  0  0  0  0
  9 15  1  0  0  0  0
 10  5  1  0  0  0  0
 10  8  1  0  0  0  0
 11  4  2  0  0  0  0
 12  1  1  0  0  0  0
 12  7  1  1  0  0  0
 12 11  1  0  0  0  0
 13 11  1  0  0  0  0
 14  2  1  1  0  0  0
 14 16  1  0  0  0  0
 14  9  1  0  0  0  0
 16  3  1  0  0  0  0
 17 16  2  0  0  0  0
 18  2  2  0  0  0  0
 19 17  1  0  0  0  0
 20 19  2  0  0  0  0
 20 18  1  0  0  0  0
 23 28  1  0  0  0  0
 24 32  1  0  0  0  0
 24 29  2  0  0  0  0
 25 24  1  0  0  0  0
 26 25  1  1  0  0  0
 26 28  1  0  0  0  0
 27 29  1  0  0  0  0
 28 27  1  1  0  0  0
 30 23  1  0  0  0  0
 30 21  1  1  0  0  0
 31 22  1  6  0  0  0
 31 26  1  0  0  0  0
 31 30  1  0  0  0  0
 33 34  1  0  0  0  0
 33 32  1  0  0  0  0
M  END
>  <MODEL>
7

>  <REMARK>
 VINA RESULT:      -6.8      4.360      7.649
  Name = 
  4 active torsions:
  status: ('A' for Active; 'I' for Inactive)
    1  A    between atoms: C_7  and  C_11
    2  A    between atoms: C_8  and  C_18
    3  A    between atoms: C_11  and  C_15
    4  A    between atoms: C_18  and  C_30
                            x       y       z     vdW  Elec       q    Type
                         _______ _______ _______ _____ _____    ______ ____

>  <TORSDO>
F 4

$$$$
=
 OpenBabel11052416003D

 34 39  0  0  1  0  0  0  0  0999 V2000
  188.5580  176.4550  137.9220 C   0  0  1  0  0  3  0  0  0  0  0  0
  190.9780  176.5820  140.7660 C   0  0  0  0  0  3  0  0  0  0  0  0
  189.6710  178.6540  143.4410 C   0  0  0  0  0  2  0  0  0  0  0  0
  191.3480  176.4610  138.3920 C   0  0  0  0  0  3  0  0  0  0  0  0
  186.2790  177.4400  137.1160 C   0  0  2  0  0  3  0  0  0  0  0  0
  187.0730  176.2240  137.6040 C   0  0  0  0  0  2  0  0  0  0  0  0
  189.4670  178.3300  136.4640 N   0  0  0  0  0  2  0  0  0  0  0  0
  188.2020  179.0080  136.7480 C   0  0  0  0  0  2  0  0  0  0  0  0
  191.3110  176.4880  143.4420 S   0  0  0  0  0  0  0  0  0  0  0  0
  187.0200  178.3060  136.0960 C   0  0  0  0  0  2  0  0  0  0  0  0
  190.9160  176.5140  137.1220 C   0  0  0  0  0  0  0  0  0  0  0  0
  189.4950  176.8900  136.7790 C   0  0  1  0  0  3  0  0  0  0  0  0
  191.8140  176.2660  136.0920 O   0  0  0  0  0  1  0  0  0  0  0  0
  190.1820  176.6300  142.0280 C   0  0  1  0  0  3  0  0  0  0  0  0
  190.3460  177.6950  144.4010 C   0  0  0  0  0  2  0  0  0  0  0  0
  189.4520  177.9170  142.1750 C   0  0  0  0  0  0  0  0  0  0  0  0
  188.5310  178.3390  141.3090 C   0  0  0  0  0  3  0  0  0  0  0  0
  190.4520  176.6890  139.5450 C   0  0  0  0  0  0  0  0  0  0  0  0
  188.2060  177.6930  140.0240 C   0  0  0  0  0  3  0  0  0  0  0  0
  189.0070  176.9200  139.2760 C   0  0  0  0  0  0  0  0  0  0  0  0
  185.6970  178.2490  138.2750 C   0  0  0  0  0  2  0  0  0  0  0  0
  183.2600  176.5440  136.9050 O   0  0  0  0  0  1  0  0  0  0  0  0
  183.6960  178.7170  139.6600 N   0  0  0  0  0  2  0  0  0  0  0  0
  180.7790  180.2170  137.0730 C   0  0  0  0  0  0  0  0  0  0  0  0
  181.2160  178.8890  136.9920 O   0  0  0  0  0  0  0  0  0  0  0  0
  182.0340  178.2610  137.9860 C   0  0  2  0  0  3  0  0  0  0  0  0
  182.5020  180.6290  138.7600 C   0  0  0  0  0  2  0  0  0  0  0  0
  182.3950  179.1600  139.1680 C   0  0  2  0  0  3  0  0  0  0  0  0
  181.3310  181.0600  137.9410 C   0  0  0  0  0  3  0  0  0  0  0  0
  184.2680  177.8410  138.6340 C   0  0  1  0  0  3  0  0  0  0  0  0
  183.3560  177.8360  137.4230 C   0  0  1  0  0  3  0  0  0  0  0  0
  179.6840  180.6910  136.1790 C   0  0  0  0  0  2  0  0  0  0  0  0
  179.9110  182.1350  135.7650 C   0  0  0  0  0  2  0  0  0  0  0  0
  180.7690  182.1910  134.5940 N   0  0  0  0  0  1  0  0  0  0  0  0
  1  6  1  6  0  0  0
  1 20  1  0  0  0  0
  3 15  1  0  0  0  0
  4 18  1  0  0  0  0
  5  6  1  0  0  0  0
  5 21  1  1  0  0  0
  7  8  1  0  0  0  0
  9 15  1  0  0  0  0
 10  8  1  0  0  0  0
 10  5  1  0  0  0  0
 11  4  2  0  0  0  0
 12  7  1  1  0  0  0
 12 11  1  0  0  0  0
 12  1  1  0  0  0  0
 13 11  1  0  0  0  0
 14  2  1  6  0  0  0
 14 16  1  0  0  0  0
 14  9  1  0  0  0  0
 16  3  1  0  0  0  0
 17 16  2  0  0  0  0
 18  2  2  0  0  0  0
 19 17  1  0  0  0  0
 20 18  1  0  0  0  0
 20 19  2  0  0  0  0
 24 29  2  0  0  0  0
 25 24  1  0  0  0  0
 26 25  1  6  0  0  0
 26 28  1  0  0  0  0
 28 27  1  6  0  0  0
 28 23  1  0  0  0  0
 29 27  1  0  0  0  0
 30 21  1  6  0  0  0
 30 23  1  0  0  0  0
 31 22  1  1  0  0  0
 31 26  1  0  0  0  0
 31 30  1  0  0  0  0
 32 24  1  0  0  0  0
 33 32  1  0  0  0  0
 34 33  1  0  0  0  0
M  END
>  <MODEL>
8

>  <REMARK>
 VINA RESULT:      -6.7      4.314      7.249
  Name = 
  4 active torsions:
  status: ('A' for Active; 'I' for Inactive)
    1  A    between atoms: C_7  and  C_11
    2  A    between atoms: C_8  and  C_18
    3  A    between atoms: C_11  and  C_15
    4  A    between atoms: C_18  and  C_30
                            x       y       z     vdW  Elec       q    Type
                         _______ _______ _______ _____ _____    ______ ____

>  <TORSDO>
F 4

$$$$
