=
 OpenBabel11052413283D

 28 32  0  0  0  0  0  0  0  0999 V2000
  187.5300  178.2130  140.9250 N   0  0  0  0  0  0  0  0  0  0  0  0
  190.4480  177.0570  144.7540 C   0  0  0  0  0  2  0  0  0  0  0  0
  184.4360  178.5370  144.7940 C   0  0  0  0  0  1  0  0  0  0  0  0
  189.0360  177.1790  146.7270 C   0  0  0  0  0  0  0  0  0  0  0  0
  188.1420  177.6590  144.5310 C   0  0  0  0  0  0  0  0  0  0  0  0
  191.3740  176.5690  146.9330 C   0  0  0  0  0  0  0  0  0  0  0  0
  189.1840  177.3090  145.3210 C   0  0  0  0  0  0  0  0  0  0  0  0
  186.6320  177.8000  146.5730 C   0  0  0  0  0  3  0  0  0  0  0  0
  190.1300  176.8120  147.5160 C   0  0  0  0  0  3  0  0  0  0  0  0
  186.0210  178.3670  142.8510 C   0  0  0  0  0  0  0  0  0  0  0  0
  188.3170  177.7720  143.1840 N   0  0  0  0  0  0  0  0  0  0  0  0
  187.8650  177.4020  147.3290 C   0  0  0  0  0  3  0  0  0  0  0  0
  185.2350  178.7990  140.6130 C   0  0  0  0  0  3  0  0  0  0  0  0
  185.7990  178.2670  144.2330 C   0  0  0  0  0  0  0  0  0  0  0  0
  185.0520  178.6900  142.0370 N   0  0  0  0  0  0  0  0  0  0  0  0
  192.4530  176.2040  147.7260 O   0  0  0  0  0  1  0  0  0  0  0  0
  191.5330  176.6910  145.5520 C   0  0  0  0  0  3  0  0  0  0  0  0
  186.8630  177.9110  145.0860 C   0  0  0  0  0  0  0  0  0  0  0  0
  186.4330  178.5670  140.0730 C   0  0  0  0  0  3  0  0  0  0  0  0
  187.3060  178.1120  142.3420 C   0  0  0  0  0  0  0  0  0  0  0  0
  188.8290  177.9190  140.3330 C   0  0  0  0  0  2  0  0  0  0  0  0
  188.7100  177.8050  138.8500 C   0  0  0  0  0  0  0  0  0  0  0  0
  188.4290  177.5740  136.1020 C   0  0  0  0  0  0  0  0  0  0  0  0
  189.0140  178.8940  138.0310 C   0  0  0  0  0  3  0  0  0  0  0  0
  188.2610  176.6160  138.2680 C   0  0  0  0  0  3  0  0  0  0  0  0
  188.1320  176.5250  136.9170 N   0  0  0  0  0  0  0  0  0  0  0  0
  188.2760  177.4340  134.6300 C   0  0  0  0  0  1  0  0  0  0  0  0
  188.8750  178.7800  136.6460 C   0  0  0  0  0  3  0  0  0  0  0  0
  1 20  1  0  0  0  0
  2  7  1  0  0  0  0
  2 17  1  0  0  0  0
  4 12  1  0  0  0  0
  4  9  2  0  0  0  0
  5 18  1  0  0  0  0
  5  7  2  0  0  0  0
  6  9  1  0  0  0  0
  6 16  1  0  0  0  0
  7  4  1  0  0  0  0
  8 12  2  0  0  0  0
 10 14  1  0  0  0  0
 11  5  1  0  0  0  0
 13 15  1  0  0  0  0
 14  3  1  0  0  0  0
 14 18  2  0  0  0  0
 15 10  2  0  0  0  0
 17  6  2  0  0  0  0
 18  8  1  0  0  0  0
 19 13  2  0  0  0  0
 19  1  1  0  0  0  0
 20 10  1  0  0  0  0
 20 11  2  0  0  0  0
 21  1  1  0  0  0  0
 22 21  1  0  0  0  0
 23 28  2  0  0  0  0
 23 26  1  0  0  0  0
 24 22  2  0  0  0  0
 25 22  1  0  0  0  0
 26 25  2  0  0  0  0
 27 23  1  0  0  0  0
 28 24  1  0  0  0  0
M  END
>  <MODEL>
1

>  <REMARK>
 VINA RESULT:     -11.0      0.000      0.000
  Name = 
  2 active torsions:
  status: ('A' for Active; 'I' for Inactive)
    1  A    between atoms: N_1  and  C_2
    2  A    between atoms: C_2  and  C_3
                            x       y       z     vdW  Elec       q    Type
                         _______ _______ _______ _____ _____    ______ ____

>  <TORSDO>
F 2

$$$$
=
 OpenBabel11052413283D

 28 32  0  0  0  0  0  0  0  0999 V2000
  189.8760  177.0210  142.4900 N   0  0  0  0  0  0  0  0  0  0  0  0
  185.1320  178.3920  142.8540 C   0  0  0  0  0  2  0  0  0  0  0  0
  189.1800  177.2570  147.4000 C   0  0  0  0  0  1  0  0  0  0  0  0
  184.6650  178.5460  145.2330 C   0  0  0  0  0  0  0  0  0  0  0  0
  186.8570  177.8990  144.4390 C   0  0  0  0  0  0  0  0  0  0  0  0
  182.9310  179.0440  143.6120 C   0  0  0  0  0  0  0  0  0  0  0  0
  185.5800  178.2680  144.1830 C   0  0  0  0  0  0  0  0  0  0  0  0
  186.4060  178.0460  146.9380 C   0  0  0  0  0  3  0  0  0  0  0  0
  183.3540  178.9290  144.9370 C   0  0  0  0  0  3  0  0  0  0  0  0
  189.5080  177.1440  144.9100 C   0  0  0  0  0  0  0  0  0  0  0  0
  187.7100  177.6420  143.4080 N   0  0  0  0  0  0  0  0  0  0  0  0
  185.0250  178.4500  146.5150 C   0  0  0  0  0  3  0  0  0  0  0  0
  191.6570  176.5340  144.0040 C   0  0  0  0  0  3  0  0  0  0  0  0
  188.6610  177.3940  146.0000 C   0  0  0  0  0  0  0  0  0  0  0  0
  190.7530  176.7950  145.0940 N   0  0  0  0  0  0  0  0  0  0  0  0
  181.6270  179.4260  143.3300 O   0  0  0  0  0  1  0  0  0  0  0  0
  183.8200  178.7760  142.5710 C   0  0  0  0  0  3  0  0  0  0  0  0
  187.3240  177.7750  145.7710 C   0  0  0  0  0  0  0  0  0  0  0  0
  191.2350  176.6450  142.7440 C   0  0  0  0  0  3  0  0  0  0  0  0
  189.0040  177.2750  143.6050 C   0  0  0  0  0  0  0  0  0  0  0  0
  189.4230  177.1820  141.1130 C   0  0  0  0  0  2  0  0  0  0  0  0
  190.5420  176.9100  140.1640 C   0  0  0  0  0  0  0  0  0  0  0  0
  192.5830  176.4230  138.3530 C   0  0  0  0  0  0  0  0  0  0  0  0
  191.7940  177.4970  140.3590 C   0  0  0  0  0  3  0  0  0  0  0  0
  190.3380  176.0900  139.0510 C   0  0  0  0  0  3  0  0  0  0  0  0
  191.3540  175.8640  138.1760 N   0  0  0  0  0  0  0  0  0  0  0  0
  193.6680  176.1500  137.3740 C   0  0  0  0  0  1  0  0  0  0  0  0
  192.8240  177.2520  139.4500 C   0  0  0  0  0  3  0  0  0  0  0  0
  1 19  1  0  0  0  0
  1 20  1  0  0  0  0
  2  7  1  0  0  0  0
  4 12  1  0  0  0  0
  5 18  1  0  0  0  0
  6  9  1  0  0  0  0
  7  5  2  0  0  0  0
  7  4  1  0  0  0  0
  9  4  2  0  0  0  0
 10 15  2  0  0  0  0
 10 14  1  0  0  0  0
 11 20  2  0  0  0  0
 11  5  1  0  0  0  0
 12  8  2  0  0  0  0
 13 15  1  0  0  0  0
 14  3  1  0  0  0  0
 16  6  1  0  0  0  0
 17  2  1  0  0  0  0
 17  6  2  0  0  0  0
 18 14  2  0  0  0  0
 18  8  1  0  0  0  0
 19 13  2  0  0  0  0
 20 10  1  0  0  0  0
 21  1  1  0  0  0  0
 22 24  1  0  0  0  0
 22 21  1  0  0  0  0
 23 28  1  0  0  0  0
 25 22  2  0  0  0  0
 26 23  2  0  0  0  0
 26 25  1  0  0  0  0
 27 23  1  0  0  0  0
 28 24  2  0  0  0  0
M  END
>  <MODEL>
2

>  <REMARK>
 VINA RESULT:     -10.6      3.218      5.313
  Name = 
  2 active torsions:
  status: ('A' for Active; 'I' for Inactive)
    1  A    between atoms: N_1  and  C_2
    2  A    between atoms: C_2  and  C_3
                            x       y       z     vdW  Elec       q    Type
                         _______ _______ _______ _____ _____    ______ ____

>  <TORSDO>
F 2

$$$$
=
 OpenBabel11052413283D

 28 32  0  0  0  0  0  0  0  0999 V2000
  189.7360  177.8670  139.7210 N   0  0  0  0  0  0  0  0  0  0  0  0
  190.9810  177.0550  144.4440 C   0  0  0  0  0  2  0  0  0  0  0  0
  185.4200  178.4500  142.1050 C   0  0  0  0  0  1  0  0  0  0  0  0
  188.9330  177.3120  145.7250 C   0  0  0  0  0  0  0  0  0  0  0  0
  188.9380  177.6060  143.3240 C   0  0  0  0  0  0  0  0  0  0  0  0
  191.0120  176.7520  146.8410 C   0  0  0  0  0  0  0  0  0  0  0  0
  189.6010  177.3330  144.4720 C   0  0  0  0  0  0  0  0  0  0  0  0
  186.7740  177.8860  144.6310 C   0  0  0  0  0  3  0  0  0  0  0  0
  189.6440  177.0230  146.8930 C   0  0  0  0  0  3  0  0  0  0  0  0
  187.6170  178.1500  140.9190 C   0  0  0  0  0  0  0  0  0  0  0  0
  189.6080  177.6150  142.1370 N   0  0  0  0  0  0  0  0  0  0  0  0
  187.6260  177.5640  145.8230 C   0  0  0  0  0  3  0  0  0  0  0  0
  187.7370  178.3940  138.5240 C   0  0  0  0  0  3  0  0  0  0  0  0
  186.8900  178.1560  142.1200 C   0  0  0  0  0  0  0  0  0  0  0  0
  187.0300  178.3950  139.7780 N   0  0  0  0  0  0  0  0  0  0  0  0
  191.7070  176.4660  148.0080 O   0  0  0  0  0  1  0  0  0  0  0  0
  191.6800  176.7680  145.6170 C   0  0  0  0  0  3  0  0  0  0  0  0
  187.5490  177.8820  143.3350 C   0  0  0  0  0  0  0  0  0  0  0  0
  189.0450  178.1380  138.4940 C   0  0  0  0  0  3  0  0  0  0  0  0
  188.9940  177.8740  140.9530 C   0  0  0  0  0  0  0  0  0  0  0  0
  191.1570  177.5460  139.6850 C   0  0  0  0  0  2  0  0  0  0  0  0
  191.4070  176.3970  138.7670 C   0  0  0  0  0  0  0  0  0  0  0  0
  191.8230  174.2810  137.0250 C   0  0  0  0  0  0  0  0  0  0  0  0
  192.6760  176.1890  138.2240 C   0  0  0  0  0  3  0  0  0  0  0  0
  190.3640  175.5360  138.4160 C   0  0  0  0  0  3  0  0  0  0  0  0
  190.5920  174.5030  137.5600 N   0  0  0  0  0  0  0  0  0  0  0  0
  192.0320  173.1410  136.0940 C   0  0  0  0  0  1  0  0  0  0  0  0
  192.8900  175.1230  137.3470 C   0  0  0  0  0  3  0  0  0  0  0  0
  1 20  1  0  0  0  0
  2  7  1  0  0  0  0
  2 17  1  0  0  0  0
  3 14  1  0  0  0  0
  4 12  1  0  0  0  0
  4  9  2  0  0  0  0
  5 18  1  0  0  0  0
  5  7  2  0  0  0  0
  6  9  1  0  0  0  0
  6 16  1  0  0  0  0
  7  4  1  0  0  0  0
  8 12  2  0  0  0  0
 10 20  1  0  0  0  0
 10 14  1  0  0  0  0
 11  5  1  0  0  0  0
 13 15  1  0  0  0  0
 14 18  2  0  0  0  0
 15 10  2  0  0  0  0
 17  6  2  0  0  0  0
 18  8  1  0  0  0  0
 19 13  2  0  0  0  0
 19  1  1  0  0  0  0
 20 11  2  0  0  0  0
 21  1  1  0  0  0  0
 22 21  1  0  0  0  0
 23 28  2  0  0  0  0
 23 26  1  0  0  0  0
 24 22  2  0  0  0  0
 25 22  1  0  0  0  0
 26 25  2  0  0  0  0
 27 23  1  0  0  0  0
 28 24  1  0  0  0  0
M  END
>  <MODEL>
3

>  <REMARK>
 VINA RESULT:     -10.0      2.306      2.799
  Name = 
  2 active torsions:
  status: ('A' for Active; 'I' for Inactive)
    1  A    between atoms: N_1  and  C_2
    2  A    between atoms: C_2  and  C_3
                            x       y       z     vdW  Elec       q    Type
                         _______ _______ _______ _____ _____    ______ ____

>  <TORSDO>
F 2

$$$$
=
 OpenBabel11052413283D

 28 32  0  0  0  0  0  0  0  0999 V2000
  189.7600  177.7680  140.3390 N   0  0  0  0  0  0  0  0  0  0  0  0
  185.4950  178.4900  142.7490 C   0  0  0  0  0  2  0  0  0  0  0  0
  191.0150  176.9070  145.0650 C   0  0  0  0  0  1  0  0  0  0  0  0
  185.9830  178.0970  145.0960 C   0  0  0  0  0  0  0  0  0  0  0  0
  187.7110  177.8790  143.4170 C   0  0  0  0  0  0  0  0  0  0  0  0
  183.7450  178.7200  144.3990 C   0  0  0  0  0  0  0  0  0  0  0  0
  186.4260  178.1470  143.7480 C   0  0  0  0  0  0  0  0  0  0  0  0
  188.2590  177.4560  145.8650 C   0  0  0  0  0  3  0  0  0  0  0  0
  184.6500  178.3830  145.4060 C   0  0  0  0  0  3  0  0  0  0  0  0
  190.3560  177.3480  142.6790 C   0  0  0  0  0  0  0  0  0  0  0  0
  188.1050  177.9380  142.1140 N   0  0  0  0  0  0  0  0  0  0  0  0
  186.8130  177.7800  146.0920 C   0  0  0  0  0  3  0  0  0  0  0  0
  192.0010  177.1840  140.9240 C   0  0  0  0  0  3  0  0  0  0  0  0
  189.9910  177.2700  144.0320 C   0  0  0  0  0  0  0  0  0  0  0  0
  191.5830  177.1110  142.3000 N   0  0  0  0  0  0  0  0  0  0  0  0
  182.4240  179.0020  144.7190 O   0  0  0  0  0  1  0  0  0  0  0  0
  184.1670  178.7740  143.0710 C   0  0  0  0  0  3  0  0  0  0  0  0
  188.6600  177.5370  144.4110 C   0  0  0  0  0  0  0  0  0  0  0  0
  191.1200  177.5040  139.9750 C   0  0  0  0  0  3  0  0  0  0  0  0
  189.3820  177.6880  141.7240 C   0  0  0  0  0  0  0  0  0  0  0  0
  188.8060  178.1580  139.3080 C   0  0  0  0  0  2  0  0  0  0  0  0
  188.9850  177.3150  138.0900 C   0  0  0  0  0  0  0  0  0  0  0  0
  189.2590  175.7290  135.8330 C   0  0  0  0  0  0  0  0  0  0  0  0
  189.4330  177.8840  136.8960 C   0  0  0  0  0  3  0  0  0  0  0  0
  188.6760  175.9530  138.1240 C   0  0  0  0  0  3  0  0  0  0  0  0
  188.8190  175.1930  137.0040 N   0  0  0  0  0  0  0  0  0  0  0  0
  189.4030  174.8650  134.6310 C   0  0  0  0  0  1  0  0  0  0  0  0
  189.5730  177.0870  135.7580 C   0  0  0  0  0  3  0  0  0  0  0  0
  1 20  1  0  0  0  0
  2 17  1  0  0  0  0
  2  7  1  0  0  0  0
  4  9  2  0  0  0  0
  4 12  1  0  0  0  0
  5  7  2  0  0  0  0
  5 18  1  0  0  0  0
  6 16  1  0  0  0  0
  6  9  1  0  0  0  0
  7  4  1  0  0  0  0
  8 12  2  0  0  0  0
 10 14  1  0  0  0  0
 11  5  1  0  0  0  0
 13 15  1  0  0  0  0
 14 18  2  0  0  0  0
 14  3  1  0  0  0  0
 15 10  2  0  0  0  0
 17  6  2  0  0  0  0
 18  8  1  0  0  0  0
 19  1  1  0  0  0  0
 19 13  2  0  0  0  0
 20 11  2  0  0  0  0
 20 10  1  0  0  0  0
 21  1  1  0  0  0  0
 22 25  1  0  0  0  0
 22 21  1  0  0  0  0
 23 26  1  0  0  0  0
 24 22  2  0  0  0  0
 26 25  2  0  0  0  0
 27 23  1  0  0  0  0
 28 23  2  0  0  0  0
 28 24  1  0  0  0  0
M  END
>  <MODEL>
4

>  <REMARK>
 VINA RESULT:     -10.0      2.595      4.592
  Name = 
  2 active torsions:
  status: ('A' for Active; 'I' for Inactive)
    1  A    between atoms: N_1  and  C_2
    2  A    between atoms: C_2  and  C_3
                            x       y       z     vdW  Elec       q    Type
                         _______ _______ _______ _____ _____    ______ ____

>  <TORSDO>
F 2

$$$$
=
 OpenBabel11052413283D

 28 32  0  0  0  0  0  0  0  0999 V2000
  189.4130  177.6580  139.8810 N   0  0  0  0  0  0  0  0  0  0  0  0
  188.7860  177.3540  144.7830 C   0  0  0  0  0  2  0  0  0  0  0  0
  184.6930  179.0790  140.4700 C   0  0  0  0  0  1  0  0  0  0  0  0
  186.4910  178.0290  145.2030 C   0  0  0  0  0  0  0  0  0  0  0  0
  187.3790  177.9900  142.9540 C   0  0  0  0  0  0  0  0  0  0  0  0
  187.9310  177.3800  147.0440 C   0  0  0  0  0  0  0  0  0  0  0  0
  187.5480  177.7980  144.2830 C   0  0  0  0  0  0  0  0  0  0  0  0
  184.9720  178.7050  143.3540 C   0  0  0  0  0  3  0  0  0  0  0  0
  186.6940  177.8180  146.5700 C   0  0  0  0  0  3  0  0  0  0  0  0
  187.0850  178.3560  140.1970 C   0  0  0  0  0  0  0  0  0  0  0  0
  188.4130  177.7560  142.0970 N   0  0  0  0  0  0  0  0  0  0  0  0
  185.2910  178.4490  144.7960 C   0  0  0  0  0  3  0  0  0  0  0  0
  188.0700  178.2550  137.9990 C   0  0  0  0  0  3  0  0  0  0  0  0
  185.9970  178.6140  141.0450 C   0  0  0  0  0  0  0  0  0  0  0  0
  186.9800  178.5120  138.9040 N   0  0  0  0  0  0  0  0  0  0  0  0
  188.1210  177.1730  148.4030 O   0  0  0  0  0  1  0  0  0  0  0  0
  188.9770  177.1470  146.1510 C   0  0  0  0  0  3  0  0  0  0  0  0
  186.1380  178.4310  142.4350 C   0  0  0  0  0  0  0  0  0  0  0  0
  189.2470  177.8400  138.4700 C   0  0  0  0  0  3  0  0  0  0  0  0
  188.3010  177.9230  140.7530 C   0  0  0  0  0  0  0  0  0  0  0  0
  190.6860  177.1650  140.3940 C   0  0  0  0  0  2  0  0  0  0  0  0
  191.5300  176.6500  139.2770 C   0  0  0  0  0  0  0  0  0  0  0  0
  193.1470  175.6810  137.2440 C   0  0  0  0  0  0  0  0  0  0  0  0
  191.0570  175.6370  138.4410 C   0  0  0  0  0  3  0  0  0  0  0  0
  192.8190  177.1540  139.0770 C   0  0  0  0  0  3  0  0  0  0  0  0
  193.5940  176.6640  138.0720 N   0  0  0  0  0  0  0  0  0  0  0  0
  194.0240  175.1730  136.1570 C   0  0  0  0  0  1  0  0  0  0  0  0
  191.8670  175.1480  137.4150 C   0  0  0  0  0  3  0  0  0  0  0  0
  1 21  1  0  0  0  0
  1 20  1  0  0  0  0
  2 17  1  0  0  0  0
  3 14  1  0  0  0  0
  4  9  2  0  0  0  0
  5  7  2  0  0  0  0
  6 16  1  0  0  0  0
  7  2  1  0  0  0  0
  7  4  1  0  0  0  0
  8 12  2  0  0  0  0
  9  6  1  0  0  0  0
 10 20  1  0  0  0  0
 10 14  1  0  0  0  0
 11  5  1  0  0  0  0
 12  4  1  0  0  0  0
 13 19  2  0  0  0  0
 13 15  1  0  0  0  0
 14 18  2  0  0  0  0
 15 10  2  0  0  0  0
 17  6  2  0  0  0  0
 18  5  1  0  0  0  0
 18  8  1  0  0  0  0
 19  1  1  0  0  0  0
 20 11  2  0  0  0  0
 22 21  1  0  0  0  0
 23 28  2  0  0  0  0
 23 26  1  0  0  0  0
 24 22  2  0  0  0  0
 25 22  1  0  0  0  0
 26 25  2  0  0  0  0
 27 23  1  0  0  0  0
 28 24  1  0  0  0  0
M  END
>  <MODEL>
5

>  <REMARK>
 VINA RESULT:      -9.9      2.594      3.623
  Name = 
  2 active torsions:
  status: ('A' for Active; 'I' for Inactive)
    1  A    between atoms: N_1  and  C_2
    2  A    between atoms: C_2  and  C_3
                            x       y       z     vdW  Elec       q    Type
                         _______ _______ _______ _____ _____    ______ ____

>  <TORSDO>
F 2

$$$$
=
 OpenBabel11052413283D

 28 32  0  0  0  0  0  0  0  0999 V2000
  183.6460  178.7300  141.8640 N   0  0  0  0  0  0  0  0  0  0  0  0
  188.4970  177.7440  141.7480 C   0  0  0  0  0  2  0  0  0  0  0  0
  184.7940  178.3260  146.6770 C   0  0  0  0  0  1  0  0  0  0  0  0
  189.1850  177.5200  144.0670 C   0  0  0  0  0  0  0  0  0  0  0  0
  186.8870  178.0180  143.4990 C   0  0  0  0  0  0  0  0  0  0  0  0
  190.8010  177.2440  142.2800 C   0  0  0  0  0  0  0  0  0  0  0  0
  188.1610  177.7680  143.1150 C   0  0  0  0  0  0  0  0  0  0  0  0
  187.5700  177.7940  145.9390 C   0  0  0  0  0  3  0  0  0  0  0  0
  190.4910  177.2610  143.6400 C   0  0  0  0  0  3  0  0  0  0  0  0
  184.2370  178.5260  144.2340 C   0  0  0  0  0  0  0  0  0  0  0  0
  185.9270  178.2500  142.5600 N   0  0  0  0  0  0  0  0  0  0  0  0
  188.9350  177.5260  145.3780 C   0  0  0  0  0  3  0  0  0  0  0  0
  181.9740  178.9960  143.5490 C   0  0  0  0  0  3  0  0  0  0  0  0
  185.1960  178.2980  145.2330 C   0  0  0  0  0  0  0  0  0  0  0  0
  182.9890  178.7610  144.5420 N   0  0  0  0  0  0  0  0  0  0  0  0
  192.1000  176.9850  141.8670 O   0  0  0  0  0  1  0  0  0  0  0  0
  189.8050  177.4850  141.3340 C   0  0  0  0  0  3  0  0  0  0  0  0
  186.5330  178.0410  144.8700 C   0  0  0  0  0  0  0  0  0  0  0  0
  182.2890  178.9790  142.2530 C   0  0  0  0  0  3  0  0  0  0  0  0
  184.6310  178.4980  142.8850 C   0  0  0  0  0  0  0  0  0  0  0  0
  183.9840  178.6710  140.4470 C   0  0  0  0  0  2  0  0  0  0  0  0
  182.9480  177.9030  139.6980 C   0  0  0  0  0  0  0  0  0  0  0  0
  181.0440  176.5010  138.2500 C   0  0  0  0  0  0  0  0  0  0  0  0
  182.8330  176.5210  139.8640 C   0  0  0  0  0  3  0  0  0  0  0  0
  182.1030  178.5550  138.7960 C   0  0  0  0  0  3  0  0  0  0  0  0
  181.1750  177.8470  138.0970 N   0  0  0  0  0  0  0  0  0  0  0  0
  180.0170  175.7630  137.4690 C   0  0  0  0  0  1  0  0  0  0  0  0
  181.8740  175.8130  139.1380 C   0  0  0  0  0  3  0  0  0  0  0  0
  1 19  1  0  0  0  0
  1 20  1  0  0  0  0
  2  7  1  0  0  0  0
  4 12  1  0  0  0  0
  5 18  1  0  0  0  0
  6  9  1  0  0  0  0
  7  5  2  0  0  0  0
  7  4  1  0  0  0  0
  9  4  2  0  0  0  0
 10 15  2  0  0  0  0
 10 14  1  0  0  0  0
 11 20  2  0  0  0  0
 11  5  1  0  0  0  0
 12  8  2  0  0  0  0
 13 15  1  0  0  0  0
 14  3  1  0  0  0  0
 16  6  1  0  0  0  0
 17  2  1  0  0  0  0
 17  6  2  0  0  0  0
 18 14  2  0  0  0  0
 18  8  1  0  0  0  0
 19 13  2  0  0  0  0
 20 10  1  0  0  0  0
 21  1  1  0  0  0  0
 22 24  1  0  0  0  0
 22 21  1  0  0  0  0
 23 28  1  0  0  0  0
 25 22  2  0  0  0  0
 26 23  2  0  0  0  0
 26 25  1  0  0  0  0
 27 23  1  0  0  0  0
 28 24  2  0  0  0  0
M  END
>  <MODEL>
6

>  <REMARK>
 VINA RESULT:      -9.6      3.078      4.723
  Name = 
  2 active torsions:
  status: ('A' for Active; 'I' for Inactive)
    1  A    between atoms: N_1  and  C_2
    2  A    between atoms: C_2  and  C_3
                            x       y       z     vdW  Elec       q    Type
                         _______ _______ _______ _____ _____    ______ ____

>  <TORSDO>
F 2

$$$$
=
 OpenBabel11052413283D

 28 32  0  0  0  0  0  0  0  0999 V2000
  189.0220  177.7640  139.1120 N   0  0  0  0  0  0  0  0  0  0  0  0
  185.6730  178.5350  142.6760 C   0  0  0  0  0  2  0  0  0  0  0  0
  191.4600  176.4020  143.2160 C   0  0  0  0  0  1  0  0  0  0  0  0
  186.7570  177.9010  144.7560 C   0  0  0  0  0  0  0  0  0  0  0  0
  187.9260  177.7260  142.6450 C   0  0  0  0  0  0  0  0  0  0  0  0
  184.4760  178.7250  144.7680 C   0  0  0  0  0  0  0  0  0  0  0  0
  186.8110  178.0450  143.3440 C   0  0  0  0  0  0  0  0  0  0  0  0
  189.0940  177.0510  144.8010 C   0  0  0  0  0  3  0  0  0  0  0  0
  185.5930  178.2420  145.4510 C   0  0  0  0  0  3  0  0  0  0  0  0
  190.2050  177.0970  141.1520 C   0  0  0  0  0  0  0  0  0  0  0  0
  187.9460  177.8780  141.2910 N   0  0  0  0  0  0  0  0  0  0  0  0
  187.8010  177.4440  145.4510 C   0  0  0  0  0  3  0  0  0  0  0  0
  191.2780  176.9890  138.9960 C   0  0  0  0  0  3  0  0  0  0  0  0
  190.2250  176.9210  142.5440 C   0  0  0  0  0  0  0  0  0  0  0  0
  191.2540  176.8180  140.4250 N   0  0  0  0  0  0  0  0  0  0  0  0
  183.3260  179.0610  145.4680 O   0  0  0  0  0  1  0  0  0  0  0  0
  184.5150  178.8720  143.3810 C   0  0  0  0  0  3  0  0  0  0  0  0
  189.0800  177.2360  143.3030 C   0  0  0  0  0  0  0  0  0  0  0  0
  190.1990  177.4480  138.3590 C   0  0  0  0  0  3  0  0  0  0  0  0
  189.0380  177.5830  140.5380 C   0  0  0  0  0  0  0  0  0  0  0  0
  187.8560  178.3050  138.4230 C   0  0  0  0  0  2  0  0  0  0  0  0
  187.0330  177.2010  137.8500 C   0  0  0  0  0  0  0  0  0  0  0  0
  185.5230  175.1110  136.8310 C   0  0  0  0  0  0  0  0  0  0  0  0
  185.6740  177.3910  137.5940 C   0  0  0  0  0  3  0  0  0  0  0  0
  187.6080  175.9530  137.5940 C   0  0  0  0  0  3  0  0  0  0  0  0
  186.8490  174.9420  137.0930 N   0  0  0  0  0  0  0  0  0  0  0  0
  184.7270  173.9820  136.2830 C   0  0  0  0  0  1  0  0  0  0  0  0
  184.9110  176.3410  137.0790 C   0  0  0  0  0  3  0  0  0  0  0  0
  1 20  1  0  0  0  0
  2  7  1  0  0  0  0
  2 17  1  0  0  0  0
  4 12  1  0  0  0  0
  4  9  2  0  0  0  0
  5 18  1  0  0  0  0
  5  7  2  0  0  0  0
  6  9  1  0  0  0  0
  6 16  1  0  0  0  0
  7  4  1  0  0  0  0
  8 12  2  0  0  0  0
 10 14  1  0  0  0  0
 11  5  1  0  0  0  0
 13 15  1  0  0  0  0
 14  3  1  0  0  0  0
 14 18  2  0  0  0  0
 15 10  2  0  0  0  0
 17  6  2  0  0  0  0
 18  8  1  0  0  0  0
 19 13  2  0  0  0  0
 19  1  1  0  0  0  0
 20 10  1  0  0  0  0
 20 11  2  0  0  0  0
 21  1  1  0  0  0  0
 22 21  1  0  0  0  0
 23 28  1  0  0  0  0
 23 26  2  0  0  0  0
 24 22  1  0  0  0  0
 25 22  2  0  0  0  0
 26 25  1  0  0  0  0
 27 23  1  0  0  0  0
 28 24  2  0  0  0  0
M  END
>  <MODEL>
7

>  <REMARK>
 VINA RESULT:      -9.6      2.769      4.742
  Name = 
  2 active torsions:
  status: ('A' for Active; 'I' for Inactive)
    1  A    between atoms: N_1  and  C_2
    2  A    between atoms: C_2  and  C_3
                            x       y       z     vdW  Elec       q    Type
                         _______ _______ _______ _____ _____    ______ ____

>  <TORSDO>
F 2

$$$$
=
 OpenBabel11052413283D

 28 32  0  0  0  0  0  0  0  0999 V2000
  184.1010  178.8640  142.5500 N   0  0  0  0  0  0  0  0  0  0  0  0
  188.5650  177.8270  140.6740 C   0  0  0  0  0  2  0  0  0  0  0  0
  186.7570  177.7570  146.5960 C   0  0  0  0  0  1  0  0  0  0  0  0
  189.9690  177.2620  142.5740 C   0  0  0  0  0  0  0  0  0  0  0  0
  187.6500  177.8730  142.8860 C   0  0  0  0  0  0  0  0  0  0  0  0
  190.8780  177.2180  140.3260 C   0  0  0  0  0  0  0  0  0  0  0  0
  188.7050  177.6600  142.0650 C   0  0  0  0  0  0  0  0  0  0  0  0
  189.0900  177.2910  144.9000 C   0  0  0  0  0  3  0  0  0  0  0  0
  191.0390  177.0460  141.7010 C   0  0  0  0  0  3  0  0  0  0  0  0
  185.4330  178.3130  144.5330 C   0  0  0  0  0  0  0  0  0  0  0  0
  186.4480  178.2530  142.3650 N   0  0  0  0  0  0  0  0  0  0  0  0
  190.1710  177.0850  143.8820 C   0  0  0  0  0  3  0  0  0  0  0  0
  183.1050  178.9130  144.7200 C   0  0  0  0  0  3  0  0  0  0  0  0
  186.6520  177.9300  145.1100 C   0  0  0  0  0  0  0  0  0  0  0  0
  184.3760  178.5220  145.2720 N   0  0  0  0  0  0  0  0  0  0  0  0
  191.9470  177.0000  139.4680 O   0  0  0  0  0  1  0  0  0  0  0  0
  189.6410  177.6080  139.8120 C   0  0  0  0  0  3  0  0  0  0  0  0
  187.7740  177.7050  144.2870 C   0  0  0  0  0  0  0  0  0  0  0  0
  182.9700  179.0770  143.4030 C   0  0  0  0  0  3  0  0  0  0  0  0
  185.3530  178.4720  143.1390 C   0  0  0  0  0  0  0  0  0  0  0  0
  183.9450  179.0030  141.1070 C   0  0  0  0  0  2  0  0  0  0  0  0
  182.8200  178.1510  140.6230 C   0  0  0  0  0  0  0  0  0  0  0  0
  180.7130  176.6140  139.6810 C   0  0  0  0  0  0  0  0  0  0  0  0
  183.0560  176.8420  140.1970 C   0  0  0  0  0  3  0  0  0  0  0  0
  181.5220  178.6670  140.5590 C   0  0  0  0  0  3  0  0  0  0  0  0
  180.5040  177.8940  140.0950 N   0  0  0  0  0  0  0  0  0  0  0  0
  179.5740  175.8020  139.1810 C   0  0  0  0  0  1  0  0  0  0  0  0
  181.9970  176.0650  139.7240 C   0  0  0  0  0  3  0  0  0  0  0  0
  1 20  1  0  0  0  0
  1 19  1  0  0  0  0
  2  7  1  0  0  0  0
  4 12  1  0  0  0  0
  5 18  1  0  0  0  0
  6  9  1  0  0  0  0
  7  4  1  0  0  0  0
  7  5  2  0  0  0  0
  9  4  2  0  0  0  0
 10 14  1  0  0  0  0
 10 15  2  0  0  0  0
 11  5  1  0  0  0  0
 11 20  2  0  0  0  0
 12  8  2  0  0  0  0
 13 15  1  0  0  0  0
 14  3  1  0  0  0  0
 16  6  1  0  0  0  0
 17  6  2  0  0  0  0
 17  2  1  0  0  0  0
 18  8  1  0  0  0  0
 18 14  2  0  0  0  0
 19 13  2  0  0  0  0
 20 10  1  0  0  0  0
 21  1  1  0  0  0  0
 22 21  1  0  0  0  0
 23 28  2  0  0  0  0
 23 26  1  0  0  0  0
 24 22  2  0  0  0  0
 25 22  1  0  0  0  0
 26 25  2  0  0  0  0
 27 23  1  0  0  0  0
 28 24  1  0  0  0  0
M  END
>  <MODEL>
8

>  <REMARK>
 VINA RESULT:      -9.5      3.028      5.442
  Name = 
  2 active torsions:
  status: ('A' for Active; 'I' for Inactive)
    1  A    between atoms: N_1  and  C_2
    2  A    between atoms: C_2  and  C_3
                            x       y       z     vdW  Elec       q    Type
                         _______ _______ _______ _____ _____    ______ ____

>  <TORSDO>
F 2

$$$$
=
 OpenBabel11052413283D

 28 32  0  0  0  0  0  0  0  0999 V2000
  186.4620  178.4670  140.6070 N   0  0  0  0  0  0  0  0  0  0  0  0
  187.1780  178.0220  145.4860 C   0  0  0  0  0  2  0  0  0  0  0  0
  191.1760  176.9340  140.8840 C   0  0  0  0  0  1  0  0  0  0  0  0
  189.4730  177.2720  145.7550 C   0  0  0  0  0  0  0  0  0  0  0  0
  188.5460  177.6580  143.5550 C   0  0  0  0  0  0  0  0  0  0  0  0
  188.0730  177.6480  147.7000 C   0  0  0  0  0  0  0  0  0  0  0  0
  188.4030  177.6490  144.9010 C   0  0  0  0  0  0  0  0  0  0  0  0
  190.9520  176.8710  143.7960 C   0  0  0  0  0  3  0  0  0  0  0  0
  189.2970  177.2760  147.1420 C   0  0  0  0  0  3  0  0  0  0  0  0
  188.7870  177.7100  140.7690 C   0  0  0  0  0  0  0  0  0  0  0  0
  187.4990  178.0280  142.7630 N   0  0  0  0  0  0  0  0  0  0  0  0
  190.6610  176.9090  145.2670 C   0  0  0  0  0  3  0  0  0  0  0  0
  187.7650  178.1500  138.6310 C   0  0  0  0  0  3  0  0  0  0  0  0
  189.8870  177.3180  141.5470 C   0  0  0  0  0  0  0  0  0  0  0  0
  188.8670  177.7500  139.4660 N   0  0  0  0  0  0  0  0  0  0  0  0
  187.9100  177.6490  149.0780 O   0  0  0  0  0  1  0  0  0  0  0  0
  187.0140  178.0220  146.8730 C   0  0  0  0  0  3  0  0  0  0  0  0
  189.7730  177.2900  142.9520 C   0  0  0  0  0  0  0  0  0  0  0  0
  186.6010  178.4990  139.1810 C   0  0  0  0  0  3  0  0  0  0  0  0
  187.5870  178.0640  141.4070 C   0  0  0  0  0  0  0  0  0  0  0  0
  185.2040  178.8880  141.2120 C   0  0  0  0  0  2  0  0  0  0  0  0
  184.0680  178.6250  140.2820 C   0  0  0  0  0  0  0  0  0  0  0  0
  181.9930  178.1520  138.5050 C   0  0  0  0  0  0  0  0  0  0  0  0
  183.3780  177.4120  140.3320 C   0  0  0  0  0  3  0  0  0  0  0  0
  183.7020  179.5800  139.3290 C   0  0  0  0  0  3  0  0  0  0  0  0
  182.6800  179.3270  138.4680 N   0  0  0  0  0  0  0  0  0  0  0  0
  180.8810  177.9130  137.5480 C   0  0  0  0  0  1  0  0  0  0  0  0
  182.3320  177.1710  139.4400 C   0  0  0  0  0  3  0  0  0  0  0  0
  1 21  1  0  0  0  0
  1 20  1  0  0  0  0
  2 17  1  0  0  0  0
  3 14  1  0  0  0  0
  4  9  2  0  0  0  0
  5  7  2  0  0  0  0
  6 16  1  0  0  0  0
  7  2  1  0  0  0  0
  7  4  1  0  0  0  0
  8 12  2  0  0  0  0
  9  6  1  0  0  0  0
 10 20  1  0  0  0  0
 10 14  1  0  0  0  0
 11  5  1  0  0  0  0
 12  4  1  0  0  0  0
 13 19  2  0  0  0  0
 13 15  1  0  0  0  0
 14 18  2  0  0  0  0
 15 10  2  0  0  0  0
 17  6  2  0  0  0  0
 18  5  1  0  0  0  0
 18  8  1  0  0  0  0
 19  1  1  0  0  0  0
 20 11  2  0  0  0  0
 22 24  1  0  0  0  0
 22 21  1  0  0  0  0
 23 28  1  0  0  0  0
 25 22  2  0  0  0  0
 26 23  2  0  0  0  0
 26 25  1  0  0  0  0
 27 23  1  0  0  0  0
 28 24  2  0  0  0  0
M  END
>  <MODEL>
9

>  <REMARK>
 VINA RESULT:      -9.3      2.231      4.555
  Name = 
  2 active torsions:
  status: ('A' for Active; 'I' for Inactive)
    1  A    between atoms: N_1  and  C_2
    2  A    between atoms: C_2  and  C_3
                            x       y       z     vdW  Elec       q    Type
                         _______ _______ _______ _____ _____    ______ ____

>  <TORSDO>
F 2

$$$$
