=
 OpenBabel11052416133D

 43 48  0  0  1  0  0  0  0  0999 V2000
  185.3240  178.3220  145.3090 C   0  0  0  0  0  0  0  0  0  0  0  0
  182.3790  178.4330  141.1410 N   0  0  1  0  0  0  0  0  0  0  0  0
  184.2090  178.9740  138.8880 C   0  0  2  0  0  3  0  0  0  0  0  0
  183.3550  178.3930  143.7030 C   0  0  1  0  0  3  0  0  0  0  0  0
  186.1380  178.0160  144.2860 C   0  0  0  0  0  3  0  0  0  0  0  0
  185.8500  178.4230  146.5550 F   0  0  0  0  0  0  0  0  0  0  0  0
  184.4010  178.7290  142.6320 C   0  0  1  0  0  3  0  0  0  0  0  0
  183.8830  178.7250  145.0990 C   0  0  0  0  0  2  0  0  0  0  0  0
  185.6450  177.8830  142.8710 C   0  0  0  0  0  2  0  0  0  0  0  0
  184.4350  179.4200  140.2720 N   0  0  0  0  0  2  0  0  0  0  0  0
  183.8630  178.4580  141.2180 C   0  0  2  0  0  3  0  0  0  0  0  0
  181.8150  179.4800  141.9940 C   0  0  0  0  0  2  0  0  0  0  0  0
  181.8800  178.6630  139.7750 C   0  0  1  0  0  3  0  0  0  0  0  0
  182.8770  178.2380  138.7010 C   0  0  0  0  0  2  0  0  0  0  0  0
  182.0390  179.1390  143.4690 C   0  0  0  0  0  2  0  0  0  0  0  0
  185.3490  178.1480  138.3710 C   0  0  0  0  0  0  0  0  0  0  0  0
  186.6900  178.5690  138.6330 N   0  0  0  0  0  2  0  0  0  0  0  0
  185.1310  177.0970  137.7100 O   0  0  0  0  0  0  0  0  0  0  0  0
  189.1320  178.5400  138.5470 C   0  0  0  0  0  2  0  0  0  0  0  0
  188.7230  177.3550  139.4000 C   0  0  2  0  0  3  0  0  0  0  0  0
  187.8540  177.7940  138.2150 C   0  0  1  0  0  3  0  0  0  0  0  0
  188.2720  177.8630  140.7710 C   0  0  2  0  0  3  0  0  0  0  0  0
  188.4550  179.3720  140.8630 C   0  0  0  0  0  1  0  0  0  0  0  0
  188.9680  177.1130  141.9220 C   0  0  1  0  0  3  0  0  0  0  0  0
  190.2470  176.3990  141.4950 C   0  0  0  0  0  2  0  0  0  0  0  0
  191.4470  177.3100  141.6620 C   0  0  0  0  0  1  0  0  0  0  0  0
  189.2690  178.0610  143.0750 C   0  0  0  0  0  2  0  0  0  0  0  0
  189.0410  177.4110  144.2970 O   0  0  0  0  0  0  0  0  0  0  0  0
  189.2370  177.8950  146.7370 C   0  0  0  0  0  2  0  0  0  0  0  0
  191.3220  177.7610  145.2150 C   0  0  0  0  0  2  0  0  0  0  0  0
  191.2420  176.5390  147.4020 C   0  0  0  0  0  2  0  0  0  0  0  0
  191.7290  176.4880  145.9570 C   0  0  0  0  0  2  0  0  0  0  0  0
  189.7200  176.6230  147.4330 C   0  0  0  0  0  2  0  0  0  0  0  0
  189.8120  178.0170  145.3140 C   0  0  0  0  0  3  0  0  0  0  0  0
  180.4840  178.0510  139.5590 C   0  0  0  0  0  2  0  0  0  0  0  0
  179.9970  174.9390  137.2920 C   0  0  0  0  0  2  0  0  0  0  0  0
  179.6870  173.9210  138.3700 C   0  0  0  0  0  0  0  0  0  0  0  0
  179.7340  175.6840  140.1450 C   0  0  0  0  0  2  0  0  0  0  0  0
  179.7970  176.3830  137.7460 C   0  0  0  0  0  2  0  0  0  0  0  0
  180.4270  176.5790  139.1210 C   0  0  1  0  0  3  0  0  0  0  0  0
  179.6220  174.2670  139.6610 C   0  0  0  0  0  3  0  0  0  0  0  0
  180.5300  171.8270  137.3680 C   0  0  0  0  0  1  0  0  0  0  0  0
  179.5250  172.5730  138.0420 O   0  0  0  0  0  0  0  0  0  0  0  0
  1  6  1  0  0  0  0
  2 11  1  0  0  0  0
  2 12  1  1  0  0  0
  3 16  1  1  0  0  0
  3 10  1  0  0  0  0
  4 15  1  6  0  0  0
  4  8  1  0  0  0  0
  5  1  2  0  0  0  0
  7  9  1  1  0  0  0
  7  4  1  0  0  0  0
  8  1  1  0  0  0  0
  9  5  1  0  0  0  0
 11 10  1  6  0  0  0
 11  7  1  0  0  0  0
 12 15  1  0  0  0  0
 13 35  1  6  0  0  0
 13  2  1  0  0  0  0
 14  3  1  0  0  0  0
 14 13  1  0  0  0  0
 16 17  1  0  0  0  0
 18 16  2  0  0  0  0
 19 20  1  0  0  0  0
 20 22  1  1  0  0  0
 21 19  1  0  0  0  0
 21 17  1  1  0  0  0
 21 20  1  0  0  0  0
 22 23  1  6  0  0  0
 22 24  1  0  0  0  0
 24 25  1  6  0  0  0
 24 27  1  0  0  0  0
 25 26  1  0  0  0  0
 27 28  1  0  0  0  0
 28 34  1  0  0  0  0
 29 33  1  0  0  0  0
 30 34  1  0  0  0  0
 30 32  1  0  0  0  0
 31 33  1  0  0  0  0
 32 31  1  0  0  0  0
 34 29  1  0  0  0  0
 36 39  1  0  0  0  0
 36 37  1  0  0  0  0
 37 41  2  0  0  0  0
 39 40  1  0  0  0  0
 40 35  1  1  0  0  0
 40 38  1  0  0  0  0
 41 38  1  0  0  0  0
 42 43  1  0  0  0  0
 43 37  1  0  0  0  0
M  END
>  <MODEL>
1

>  <REMARK>
 VINA RESULT:      -8.8      0.000      0.000
  Name = 
  11 active torsions:
  status: ('A' for Active; 'I' for Inactive)
    1  A    between atoms: C_1  and  C_34
    2  A    between atoms: C_1  and  C_35
    3  A    between atoms: C_2  and  C_13
    4  A    between atoms: C_4  and  C_12
    5  A    between atoms: C_4  and  C_22
    6  A    between atoms: N_6  and  C_17
    7  A    between atoms: C_10  and  C_22
    8  A    between atoms: C_14  and  C_22
    9  A    between atoms: C_14  and  O_41
   10  A    between atoms: C_19  and  O_37
   11  A    between atoms: C_40  and  O_41
                            x       y       z     vdW  Elec       q    Type
                         _______ _______ _______ _____ _____    ______ ____

>  <TORSDO>
F 11

$$$$
=
 OpenBabel11052416133D

 43 48  0  0  1  0  0  0  0  0999 V2000
  193.2450  175.5350  136.2930 C   0  0  0  0  0  0  0  0  0  0  0  0
  189.8440  177.0360  139.7910 N   0  0  1  0  0  0  0  0  0  0  0  0
  187.8900  178.7040  138.3350 C   0  0  2  0  0  3  0  0  0  0  0  0
  192.0260  176.0350  138.4660 C   0  0  1  0  0  3  0  0  0  0  0  0
  192.1190  175.7960  135.6090 C   0  0  0  0  0  3  0  0  0  0  0  0
  194.3540  175.1620  135.6070 F   0  0  0  0  0  0  0  0  0  0  0  0
  191.1150  176.9200  137.6070 C   0  0  1  0  0  3  0  0  0  0  0  0
  193.3700  175.8060  137.7740 C   0  0  0  0  0  2  0  0  0  0  0  0
  190.8420  176.2150  136.2850 C   0  0  0  0  0  2  0  0  0  0  0  0
  189.3010  178.5460  137.9510 N   0  0  0  0  0  2  0  0  0  0  0  0
  189.7830  177.2110  138.3160 C   0  0  2  0  0  3  0  0  0  0  0  0
  191.1180  177.5440  140.3020 C   0  0  0  0  0  2  0  0  0  0  0  0
  188.7690  177.7600  140.4900 C   0  0  1  0  0  3  0  0  0  0  0  0
  187.5280  177.9580  139.6250 C   0  0  0  0  0  2  0  0  0  0  0  0
  192.2670  176.6400  139.8510 C   0  0  0  0  0  2  0  0  0  0  0  0
  186.9580  178.3250  137.2230 C   0  0  0  0  0  0  0  0  0  0  0  0
  185.7890  177.5600  137.5240 N   0  0  0  0  0  2  0  0  0  0  0  0
  187.2010  178.6720  136.0360 O   0  0  0  0  0  0  0  0  0  0  0  0
  184.3470  175.7630  136.7060 C   0  0  0  0  0  2  0  0  0  0  0  0
  183.4250  176.8960  137.1150 C   0  0  2  0  0  3  0  0  0  0  0  0
  184.8030  177.1970  136.5110 C   0  0  1  0  0  3  0  0  0  0  0  0
  183.3500  176.9480  138.6420 C   0  0  2  0  0  3  0  0  0  0  0  0
  182.5760  175.7490  139.1750 C   0  0  0  0  0  1  0  0  0  0  0  0
  182.7830  178.2870  139.1480 C   0  0  1  0  0  3  0  0  0  0  0  0
  181.6480  178.8300  138.2840 C   0  0  0  0  0  2  0  0  0  0  0  0
  181.7530  180.3360  138.1510 C   0  0  0  0  0  1  0  0  0  0  0  0
  182.3170  178.1620  140.5910 C   0  0  0  0  0  2  0  0  0  0  0  0
  183.4100  177.8660  141.4200 O   0  0  0  0  0  0  0  0  0  0  0  0
  182.7650  179.3220  143.3400 C   0  0  0  0  0  2  0  0  0  0  0  0
  185.2260  179.1000  142.5810 C   0  0  0  0  0  2  0  0  0  0  0  0
  184.5980  178.8820  144.9980 C   0  0  0  0  0  2  0  0  0  0  0  0
  185.5210  178.3750  143.8940 C   0  0  0  0  0  2  0  0  0  0  0  0
  183.1460  178.5970  144.6310 C   0  0  0  0  0  2  0  0  0  0  0  0
  183.7430  178.9980  142.1970 C   0  0  0  0  0  3  0  0  0  0  0  0
  188.4420  177.1290  141.8550 C   0  0  0  0  0  2  0  0  0  0  0  0
  191.4620  176.0490  144.0400 C   0  0  0  0  0  2  0  0  0  0  0  0
  191.1770  176.9030  145.2580 C   0  0  0  0  0  0  0  0  0  0  0  0
  189.0290  177.7200  144.2660 C   0  0  0  0  0  2  0  0  0  0  0  0
  190.2450  175.8480  143.1400 C   0  0  0  0  0  2  0  0  0  0  0  0
  189.5380  177.1830  142.9310 C   0  0  1  0  0  3  0  0  0  0  0  0
  190.0980  177.6920  145.3220 C   0  0  0  0  0  3  0  0  0  0  0  0
  191.9780  176.0550  147.4340 C   0  0  0  0  0  1  0  0  0  0  0  0
  192.0790  176.9360  146.3240 O   0  0  0  0  0  0  0  0  0  0  0  0
  1  8  1  0  0  0  0
  2 12  1  1  0  0  0
  2 13  1  0  0  0  0
  3 16  1  6  0  0  0
  3 14  1  0  0  0  0
  4  8  1  6  0  0  0
  4 15  1  0  0  0  0
  5  9  1  0  0  0  0
  5  1  2  0  0  0  0
  6  1  1  0  0  0  0
  7  9  1  6  0  0  0
  7 11  1  0  0  0  0
  7  4  1  0  0  0  0
 10  3  1  0  0  0  0
 11 10  1  1  0  0  0
 11  2  1  0  0  0  0
 13 35  1  1  0  0  0
 14 13  1  0  0  0  0
 15 12  1  0  0  0  0
 16 17  1  0  0  0  0
 18 16  2  0  0  0  0
 19 20  1  0  0  0  0
 20 22  1  1  0  0  0
 21 19  1  0  0  0  0
 21 20  1  0  0  0  0
 21 17  1  1  0  0  0
 22 24  1  0  0  0  0
 22 23  1  6  0  0  0
 24 25  1  6  0  0  0
 24 27  1  0  0  0  0
 26 25  1  0  0  0  0
 27 28  1  0  0  0  0
 28 34  1  0  0  0  0
 29 33  1  0  0  0  0
 30 32  1  0  0  0  0
 32 31  1  0  0  0  0
 33 31  1  0  0  0  0
 34 30  1  0  0  0  0
 34 29  1  0  0  0  0
 36 37  1  0  0  0  0
 37 41  2  0  0  0  0
 37 43  1  0  0  0  0
 38 41  1  0  0  0  0
 39 36  1  0  0  0  0
 40 35  1  6  0  0  0
 40 39  1  0  0  0  0
 40 38  1  0  0  0  0
 43 42  1  0  0  0  0
M  END
>  <MODEL>
2

>  <REMARK>
 VINA RESULT:      -8.5      3.228      9.116
  Name = 
  11 active torsions:
  status: ('A' for Active; 'I' for Inactive)
    1  A    between atoms: C_1  and  C_34
    2  A    between atoms: C_1  and  C_35
    3  A    between atoms: C_2  and  C_13
    4  A    between atoms: C_4  and  C_12
    5  A    between atoms: C_4  and  C_22
    6  A    between atoms: N_6  and  C_17
    7  A    between atoms: C_10  and  C_22
    8  A    between atoms: C_14  and  C_22
    9  A    between atoms: C_14  and  O_41
   10  A    between atoms: C_19  and  O_37
   11  A    between atoms: C_40  and  O_41
                            x       y       z     vdW  Elec       q    Type
                         _______ _______ _______ _____ _____    ______ ____

>  <TORSDO>
F 11

$$$$
=
 OpenBabel11052416133D

 43 48  0  0  1  0  0  0  0  0999 V2000
  194.6630  174.6780  135.6340 C   0  0  0  0  0  0  0  0  0  0  0  0
  190.3790  177.0240  137.1160 N   0  0  1  0  0  0  0  0  0  0  0  0
  190.1060  176.4350  139.9970 C   0  0  2  0  0  3  0  0  0  0  0  0
  192.4410  175.9090  135.6930 C   0  0  1  0  0  3  0  0  0  0  0  0
  194.8090  174.8920  136.9520 C   0  0  0  0  0  3  0  0  0  0  0  0
  195.6390  174.0110  134.9690 F   0  0  0  0  0  0  0  0  0  0  0  0
  192.3880  175.4880  137.1670 C   0  0  1  0  0  3  0  0  0  0  0  0
  193.3810  175.0000  134.9020 C   0  0  0  0  0  2  0  0  0  0  0  0
  193.7800  175.6220  137.7710 C   0  0  0  0  0  2  0  0  0  0  0  0
  190.7800  175.5580  139.0270 N   0  0  0  0  0  2  0  0  0  0  0  0
  191.4000  176.3540  137.9640 C   0  0  2  0  0  3  0  0  0  0  0  0
  189.9310  176.1150  136.0600 C   0  0  0  0  0  2  0  0  0  0  0  0
  189.1880  177.4290  137.8820 C   0  0  1  0  0  3  0  0  0  0  0  0
  189.4890  177.6830  139.3560 C   0  0  0  0  0  2  0  0  0  0  0  0
  191.0540  175.8900  135.0450 C   0  0  0  0  0  2  0  0  0  0  0  0
  191.0080  176.8140  141.1340 C   0  0  0  0  0  0  0  0  0  0  0  0
  190.7480  176.2840  142.4360 N   0  0  0  0  0  2  0  0  0  0  0  0
  191.9830  177.5910  140.9470 O   0  0  0  0  0  0  0  0  0  0  0  0
  191.6280  178.0410  143.8880 C   0  0  0  0  0  2  0  0  0  0  0  0
  190.8290  177.1120  144.7810 C   0  0  2  0  0  3  0  0  0  0  0  0
  191.6090  176.5560  143.5830 C   0  0  1  0  0  3  0  0  0  0  0  0
  189.3380  177.3540  144.5430 C   0  0  2  0  0  3  0  0  0  0  0  0
  189.0970  178.7960  144.1190 C   0  0  0  0  0  1  0  0  0  0  0  0
  188.4850  176.9450  145.7580 C   0  0  1  0  0  3  0  0  0  0  0  0
  189.2720  176.9000  147.0640 C   0  0  0  0  0  2  0  0  0  0  0  0
  188.6330  177.8000  148.1030 C   0  0  0  0  0  1  0  0  0  0  0  0
  187.2890  177.8750  145.9100 C   0  0  0  0  0  2  0  0  0  0  0  0
  186.2840  177.5110  145.0010 O   0  0  0  0  0  0  0  0  0  0  0  0
  185.7300  178.5600  142.8060 C   0  0  0  0  0  2  0  0  0  0  0  0
  184.5570  179.2960  144.9890 C   0  0  0  0  0  2  0  0  0  0  0  0
  183.2320  178.7820  142.9240 C   0  0  0  0  0  2  0  0  0  0  0  0
  183.2620  178.6910  144.4460 C   0  0  0  0  0  2  0  0  0  0  0  0
  184.3930  177.9880  142.3340 C   0  0  0  0  0  2  0  0  0  0  0  0
  185.7950  178.6600  144.3410 C   0  0  0  0  0  3  0  0  0  0  0  0
  188.4500  178.6060  137.2190 C   0  0  0  0  0  2  0  0  0  0  0  0
  184.6890  178.3630  138.1440 C   0  0  0  0  0  2  0  0  0  0  0  0
  184.2020  177.6160  136.9190 C   0  0  0  0  0  0  0  0  0  0  0  0
  186.5360  177.3970  136.0420 C   0  0  0  0  0  2  0  0  0  0  0  0
  186.1940  178.2440  138.3690 C   0  0  0  0  0  2  0  0  0  0  0  0
  186.9280  178.4720  137.0520 C   0  0  1  0  0  3  0  0  0  0  0  0
  185.0460  177.2320  135.9540 C   0  0  0  0  0  3  0  0  0  0  0  0
  181.8930  177.5170  137.7870 C   0  0  0  0  0  1  0  0  0  0  0  0
  182.8400  177.3700  136.7370 O   0  0  0  0  0  0  0  0  0  0  0  0
  1  5  2  0  0  0  0
  2 12  1  6  0  0  0
  2 13  1  0  0  0  0
  2 11  1  0  0  0  0
  3 16  1  1  0  0  0
  4  8  1  6  0  0  0
  4  7  1  0  0  0  0
  5  9  1  0  0  0  0
  6  1  1  0  0  0  0
  7  9  1  1  0  0  0
  7 11  1  0  0  0  0
  8  1  1  0  0  0  0
 10  3  1  0  0  0  0
 11 10  1  1  0  0  0
 13 35  1  6  0  0  0
 13 14  1  0  0  0  0
 14  3  1  0  0  0  0
 15  4  1  0  0  0  0
 15 12  1  0  0  0  0
 16 17  1  0  0  0  0
 18 16  2  0  0  0  0
 19 20  1  0  0  0  0
 20 22  1  6  0  0  0
 21 17  1  6  0  0  0
 21 19  1  0  0  0  0
 21 20  1  0  0  0  0
 22 23  1  1  0  0  0
 22 24  1  0  0  0  0
 24 27  1  1  0  0  0
 24 25  1  0  0  0  0
 25 26  1  0  0  0  0
 28 27  1  0  0  0  0
 29 34  1  0  0  0  0
 31 32  1  0  0  0  0
 32 30  1  0  0  0  0
 33 29  1  0  0  0  0
 33 31  1  0  0  0  0
 34 30  1  0  0  0  0
 34 28  1  0  0  0  0
 36 39  1  0  0  0  0
 37 36  1  0  0  0  0
 38 40  1  0  0  0  0
 40 35  1  1  0  0  0
 40 39  1  0  0  0  0
 41 38  1  0  0  0  0
 41 37  2  0  0  0  0
 43 37  1  0  0  0  0
 43 42  1  0  0  0  0
M  END
>  <MODEL>
3

>  <REMARK>
 VINA RESULT:      -8.3      3.950      8.225
  Name = 
  11 active torsions:
  status: ('A' for Active; 'I' for Inactive)
    1  A    between atoms: C_1  and  C_34
    2  A    between atoms: C_1  and  C_35
    3  A    between atoms: C_2  and  C_13
    4  A    between atoms: C_4  and  C_12
    5  A    between atoms: C_4  and  C_22
    6  A    between atoms: N_6  and  C_17
    7  A    between atoms: C_10  and  C_22
    8  A    between atoms: C_14  and  C_22
    9  A    between atoms: C_14  and  O_41
   10  A    between atoms: C_19  and  O_37
   11  A    between atoms: C_40  and  O_41
                            x       y       z     vdW  Elec       q    Type
                         _______ _______ _______ _____ _____    ______ ____

>  <TORSDO>
F 11

$$$$
=
 OpenBabel11052416133D

 43 48  0  0  1  0  0  0  0  0999 V2000
  191.0790  176.7540  147.1390 C   0  0  0  0  0  0  0  0  0  0  0  0
  189.2230  177.9490  142.5370 N   0  0  1  0  0  0  0  0  0  0  0  0
  186.3130  177.4780  142.7060 C   0  0  2  0  0  3  0  0  0  0  0  0
  190.8220  177.3460  144.6810 C   0  0  1  0  0  3  0  0  0  0  0  0
  189.7910  177.0750  147.3440 C   0  0  0  0  0  3  0  0  0  0  0  0
  191.8230  176.3340  148.1930 F   0  0  0  0  0  0  0  0  0  0  0  0
  189.3380  177.0130  144.8840 C   0  0  1  0  0  3  0  0  0  0  0  0
  191.6800  176.6770  145.7550 C   0  0  0  0  0  2  0  0  0  0  0  0
  188.8900  177.5490  146.2370 C   0  0  0  0  0  2  0  0  0  0  0  0
  187.3220  176.7590  143.4990 N   0  0  0  0  0  2  0  0  0  0  0  0
  188.4680  177.6280  143.7760 C   0  0  2  0  0  3  0  0  0  0  0  0
  190.1980  176.8940  142.2560 C   0  0  0  0  0  2  0  0  0  0  0  0
  188.3490  178.0650  141.3580 C   0  0  1  0  0  3  0  0  0  0  0  0
  186.9230  178.4760  141.7150 C   0  0  0  0  0  2  0  0  0  0  0  0
  191.3180  176.9190  143.2980 C   0  0  0  0  0  2  0  0  0  0  0  0
  185.2910  178.1500  143.5730 C   0  0  0  0  0  0  0  0  0  0  0  0
  183.9150  178.1100  143.1870 N   0  0  0  0  0  2  0  0  0  0  0  0
  185.6370  178.7450  144.6290 O   0  0  0  0  0  0  0  0  0  0  0  0
  182.5940  180.1260  143.5930 C   0  0  0  0  0  2  0  0  0  0  0  0
  181.6100  179.0500  143.1760 C   0  0  2  0  0  3  0  0  0  0  0  0
  182.8510  178.6890  144.0020 C   0  0  1  0  0  3  0  0  0  0  0  0
  181.7330  178.8220  141.6690 C   0  0  2  0  0  3  0  0  0  0  0  0
  181.0670  179.9600  140.9060 C   0  0  0  0  0  1  0  0  0  0  0  0
  181.2020  177.4400  141.2480 C   0  0  1  0  0  3  0  0  0  0  0  0
  179.6830  177.3190  141.3430 C   0  0  0  0  0  2  0  0  0  0  0  0
  179.1620  176.3350  140.3160 C   0  0  0  0  0  1  0  0  0  0  0  0
  181.6570  177.0970  139.8370 C   0  0  0  0  0  2  0  0  0  0  0  0
  183.0560  177.1790  139.7550 O   0  0  0  0  0  0  0  0  0  0  0  0
  184.9400  178.2110  138.4880 C   0  0  0  0  0  2  0  0  0  0  0  0
  182.6300  177.8240  137.3950 C   0  0  0  0  0  2  0  0  0  0  0  0
  184.7380  177.1270  136.2320 C   0  0  0  0  0  2  0  0  0  0  0  0
  183.2780  176.7710  136.4960 C   0  0  0  0  0  2  0  0  0  0  0  0
  185.5120  177.1510  137.5460 C   0  0  0  0  0  2  0  0  0  0  0  0
  183.4250  178.0320  138.6910 C   0  0  0  0  0  3  0  0  0  0  0  0
  188.9650  178.9610  140.2680 C   0  0  0  0  0  2  0  0  0  0  0  0
  189.1460  178.4400  136.4270 C   0  0  0  0  0  2  0  0  0  0  0  0
  189.2210  176.9270  136.4070 C   0  0  0  0  0  0  0  0  0  0  0  0
  188.9440  176.8130  138.8920 C   0  0  0  0  0  2  0  0  0  0  0  0
  188.6010  179.0030  137.7370 C   0  0  0  0  0  2  0  0  0  0  0  0
  189.2720  178.3040  138.9130 C   0  0  1  0  0  3  0  0  0  0  0  0
  189.1800  176.2100  137.5370 C   0  0  0  0  0  3  0  0  0  0  0  0
  188.5570  175.1810  134.7930 C   0  0  0  0  0  1  0  0  0  0  0  0
  189.4050  176.2450  135.2030 O   0  0  0  0  0  0  0  0  0  0  0  0
  1  5  2  0  0  0  0
  1  6  1  0  0  0  0
  2 12  1  6  0  0  0
  2 11  1  0  0  0  0
  3 10  1  0  0  0  0
  3 16  1  1  0  0  0
  4 15  1  6  0  0  0
  4  7  1  0  0  0  0
  4  8  1  0  0  0  0
  7  9  1  1  0  0  0
  8  1  1  0  0  0  0
  9  5  1  0  0  0  0
 11 10  1  6  0  0  0
 11  7  1  0  0  0  0
 12 15  1  0  0  0  0
 13 35  1  6  0  0  0
 13 14  1  0  0  0  0
 13  2  1  0  0  0  0
 14  3  1  0  0  0  0
 16 18  2  0  0  0  0
 17 16  1  0  0  0  0
 19 21  1  0  0  0  0
 20 22  1  6  0  0  0
 20 19  1  0  0  0  0
 20 21  1  0  0  0  0
 21 17  1  6  0  0  0
 22 23  1  6  0  0  0
 24 27  1  6  0  0  0
 24 25  1  0  0  0  0
 24 22  1  0  0  0  0
 26 25  1  0  0  0  0
 28 27  1  0  0  0  0
 29 34  1  0  0  0  0
 30 34  1  0  0  0  0
 31 32  1  0  0  0  0
 31 33  1  0  0  0  0
 32 30  1  0  0  0  0
 33 29  1  0  0  0  0
 34 28  1  0  0  0  0
 36 39  1  0  0  0  0
 37 36  1  0  0  0  0
 37 41  2  0  0  0  0
 38 40  1  0  0  0  0
 39 40  1  0  0  0  0
 40 35  1  1  0  0  0
 41 38  1  0  0  0  0
 42 43  1  0  0  0  0
 43 37  1  0  0  0  0
M  END
>  <MODEL>
4

>  <REMARK>
 VINA RESULT:      -7.9      2.378      8.467
  Name = 
  11 active torsions:
  status: ('A' for Active; 'I' for Inactive)
    1  A    between atoms: C_1  and  C_34
    2  A    between atoms: C_1  and  C_35
    3  A    between atoms: C_2  and  C_13
    4  A    between atoms: C_4  and  C_12
    5  A    between atoms: C_4  and  C_22
    6  A    between atoms: N_6  and  C_17
    7  A    between atoms: C_10  and  C_22
    8  A    between atoms: C_14  and  C_22
    9  A    between atoms: C_14  and  O_41
   10  A    between atoms: C_19  and  O_37
   11  A    between atoms: C_40  and  O_41
                            x       y       z     vdW  Elec       q    Type
                         _______ _______ _______ _____ _____    ______ ____

>  <TORSDO>
F 11

$$$$
=
 OpenBabel11052416133D

 43 48  0  0  1  0  0  0  0  0999 V2000
  190.3760  176.7010  146.2350 C   0  0  0  0  0  0  0  0  0  0  0  0
  186.6870  177.8270  142.8920 N   0  0  1  0  0  0  0  0  0  0  0  0
  188.0760  178.7420  140.4530 C   0  0  2  0  0  3  0  0  0  0  0  0
  188.1440  177.2020  145.1300 C   0  0  1  0  0  3  0  0  0  0  0  0
  190.9410  176.5800  145.0230 C   0  0  0  0  0  3  0  0  0  0  0  0
  191.1450  176.5130  147.3360 F   0  0  0  0  0  0  0  0  0  0  0  0
  188.9820  177.7060  143.9480 C   0  0  1  0  0  3  0  0  0  0  0  0
  188.9650  177.2070  146.4190 C   0  0  0  0  0  2  0  0  0  0  0  0
  190.1670  176.7710  143.7470 C   0  0  0  0  0  2  0  0  0  0  0  0
  188.6110  178.8760  141.8170 N   0  0  0  0  0  2  0  0  0  0  0  0
  188.1530  177.7650  142.6560 C   0  0  2  0  0  3  0  0  0  0  0  0
  186.4000  178.6970  144.0330 C   0  0  0  0  0  2  0  0  0  0  0  0
  185.9510  178.3630  141.7350 C   0  0  1  0  0  3  0  0  0  0  0  0
  186.6730  178.1260  140.4120 C   0  0  0  0  0  2  0  0  0  0  0  0
  186.8800  178.0420  145.3310 C   0  0  0  0  0  2  0  0  0  0  0  0
  189.0120  177.9910  139.5530 C   0  0  0  0  0  0  0  0  0  0  0  0
  188.5140  177.4440  138.3310 N   0  0  0  0  0  2  0  0  0  0  0  0
  190.2230  177.8400  139.8700 O   0  0  0  0  0  0  0  0  0  0  0  0
  189.4690  175.2760  137.7260 C   0  0  0  0  0  2  0  0  0  0  0  0
  188.6020  175.7010  136.5560 C   0  0  2  0  0  3  0  0  0  0  0  0
  189.3690  176.7480  137.3730 C   0  0  1  0  0  3  0  0  0  0  0  0
  187.1320  175.5160  136.9350 C   0  0  2  0  0  3  0  0  0  0  0  0
  186.8430  174.0520  137.2390 C   0  0  0  0  0  1  0  0  0  0  0  0
  186.1830  176.0950  135.8690 C   0  0  1  0  0  3  0  0  0  0  0  0
  186.9130  176.7340  134.6910 C   0  0  0  0  0  2  0  0  0  0  0  0
  186.8350  178.2450  134.7730 C   0  0  0  0  0  1  0  0  0  0  0  0
  185.2280  175.0230  135.3620 C   0  0  0  0  0  2  0  0  0  0  0  0
  183.9090  175.4980  135.4140 O   0  0  0  0  0  0  0  0  0  0  0  0
  182.8870  177.5800  136.3330 C   0  0  0  0  0  2  0  0  0  0  0  0
  183.4260  175.5570  137.8500 C   0  0  0  0  0  2  0  0  0  0  0  0
  181.1900  176.6850  137.9520 C   0  0  0  0  0  2  0  0  0  0  0  0
  181.9220  175.3500  138.0350 C   0  0  0  0  0  2  0  0  0  0  0  0
  181.4020  177.3090  136.5770 C   0  0  0  0  0  2  0  0  0  0  0  0
  183.7380  176.3160  136.5530 C   0  0  0  0  0  3  0  0  0  0  0  0
  184.4900  177.8770  141.7050 C   0  0  0  0  0  2  0  0  0  0  0  0
  181.0540  179.3530  140.6700 C   0  0  0  0  0  2  0  0  0  0  0  0
  181.4860  180.0670  139.4060 C   0  0  0  0  0  0  0  0  0  0  0  0
  183.8120  179.1650  139.6100 C   0  0  0  0  0  2  0  0  0  0  0  0
  182.0310  178.2710  141.1210 C   0  0  0  0  0  2  0  0  0  0  0  0
  183.4570  178.8080  141.0510 C   0  0  1  0  0  3  0  0  0  0  0  0
  182.7500  180.0120  138.9690 C   0  0  0  0  0  3  0  0  0  0  0  0
  179.6480  181.7150  139.3460 C   0  0  0  0  0  1  0  0  0  0  0  0
  180.5800  180.8600  138.6980 O   0  0  0  0  0  0  0  0  0  0  0  0
  1  8  1  0  0  0  0
  1  6  1  0  0  0  0
  2 12  1  1  0  0  0
  3 16  1  6  0  0  0
  3 10  1  0  0  0  0
  4 15  1  1  0  0  0
  4  8  1  0  0  0  0
  5  1  2  0  0  0  0
  7  9  1  6  0  0  0
  7  4  1  0  0  0  0
  9  5  1  0  0  0  0
 11 10  1  1  0  0  0
 11  2  1  0  0  0  0
 11  7  1  0  0  0  0
 12 15  1  0  0  0  0
 13 35  1  6  0  0  0
 13  2  1  0  0  0  0
 14  3  1  0  0  0  0
 14 13  1  0  0  0  0
 16 18  2  0  0  0  0
 17 16  1  0  0  0  0
 20 22  1  1  0  0  0
 20 21  1  0  0  0  0
 20 19  1  0  0  0  0
 21 19  1  0  0  0  0
 21 17  1  1  0  0  0
 22 23  1  6  0  0  0
 24 25  1  6  0  0  0
 24 22  1  0  0  0  0
 25 26  1  0  0  0  0
 27 28  1  0  0  0  0
 27 24  1  0  0  0  0
 28 34  1  0  0  0  0
 29 34  1  0  0  0  0
 29 33  1  0  0  0  0
 30 32  1  0  0  0  0
 31 32  1  0  0  0  0
 33 31  1  0  0  0  0
 34 30  1  0  0  0  0
 36 39  1  0  0  0  0
 37 36  1  0  0  0  0
 38 40  1  0  0  0  0
 40 39  1  0  0  0  0
 40 35  1  6  0  0  0
 41 37  2  0  0  0  0
 41 38  1  0  0  0  0
 43 42  1  0  0  0  0
 43 37  1  0  0  0  0
M  END
>  <MODEL>
5

>  <REMARK>
 VINA RESULT:      -7.7      2.697      7.109
  Name = 
  11 active torsions:
  status: ('A' for Active; 'I' for Inactive)
    1  A    between atoms: C_1  and  C_34
    2  A    between atoms: C_1  and  C_35
    3  A    between atoms: C_2  and  C_13
    4  A    between atoms: C_4  and  C_12
    5  A    between atoms: C_4  and  C_22
    6  A    between atoms: N_6  and  C_17
    7  A    between atoms: C_10  and  C_22
    8  A    between atoms: C_14  and  C_22
    9  A    between atoms: C_14  and  O_41
   10  A    between atoms: C_19  and  O_37
   11  A    between atoms: C_40  and  O_41
                            x       y       z     vdW  Elec       q    Type
                         _______ _______ _______ _____ _____    ______ ____

>  <TORSDO>
F 11

$$$$
=
 OpenBabel11052416133D

 43 48  0  0  1  0  0  0  0  0999 V2000
  188.7300  177.7490  136.4460 C   0  0  0  0  0  0  0  0  0  0  0  0
  186.8040  177.9230  141.1700 N   0  0  1  0  0  0  0  0  0  0  0  0
  184.1510  179.1910  140.9020 C   0  0  2  0  0  3  0  0  0  0  0  0
  188.4170  177.6710  138.9670 C   0  0  1  0  0  3  0  0  0  0  0  0
  187.3970  177.7900  136.2890 C   0  0  0  0  0  3  0  0  0  0  0  0
  189.5180  177.7530  135.3430 F   0  0  0  0  0  0  0  0  0  0  0  0
  187.0860  178.3860  138.7000 C   0  0  1  0  0  3  0  0  0  0  0  0
  189.3850  177.8730  137.8020 C   0  0  0  0  0  2  0  0  0  0  0  0
  186.4450  177.7890  137.4540 C   0  0  0  0  0  2  0  0  0  0  0  0
  185.2900  179.4430  140.0060 N   0  0  0  0  0  2  0  0  0  0  0  0
  186.1230  178.2430  139.8890 C   0  0  2  0  0  3  0  0  0  0  0  0
  188.0540  178.6780  141.2760 C   0  0  0  0  0  2  0  0  0  0  0  0
  185.9850  178.2640  142.3450 C   0  0  1  0  0  3  0  0  0  0  0  0
  184.4870  178.2360  142.0520 C   0  0  0  0  0  2  0  0  0  0  0  0
  189.0740  178.1550  140.2620 C   0  0  0  0  0  2  0  0  0  0  0  0
  182.9420  178.7150  140.1530 C   0  0  0  0  0  0  0  0  0  0  0  0
  182.7960  177.3200  139.8810 N   0  0  0  0  0  2  0  0  0  0  0  0
  182.0650  179.5330  139.7650 O   0  0  0  0  0  0  0  0  0  0  0  0
  181.5380  177.2850  137.7860 C   0  0  0  0  0  2  0  0  0  0  0  0
  181.9980  175.8610  138.0290 C   0  0  2  0  0  3  0  0  0  0  0  0
  181.6240  176.7670  139.2080 C   0  0  1  0  0  3  0  0  0  0  0  0
  183.4930  175.7630  137.7210 C   0  0  2  0  0  3  0  0  0  0  0  0
  183.8370  176.5930  136.4920 C   0  0  0  0  0  1  0  0  0  0  0  0
  183.9630  174.3020  137.5960 C   0  0  1  0  0  3  0  0  0  0  0  0
  183.1670  173.4950  136.5750 C   0  0  0  0  0  2  0  0  0  0  0  0
  182.6700  172.2020  137.1890 C   0  0  0  0  0  1  0  0  0  0  0  0
  185.4460  174.2430  137.2550 C   0  0  0  0  0  2  0  0  0  0  0  0
  185.9720  172.9990  137.6350 O   0  0  0  0  0  0  0  0  0  0  0  0
  186.5830  172.9920  135.2160 C   0  0  0  0  0  2  0  0  0  0  0  0
  188.3640  172.6570  137.0600 C   0  0  0  0  0  2  0  0  0  0  0  0
  188.7320  174.2890  135.1930 C   0  0  0  0  0  2  0  0  0  0  0  0
  188.9530  174.0150  136.6770 C   0  0  0  0  0  2  0  0  0  0  0  0
  187.2380  174.3340  134.8910 C   0  0  0  0  0  2  0  0  0  0  0  0
  186.8860  172.5460  136.6580 C   0  0  0  0  0  3  0  0  0  0  0  0
  186.3610  177.4190  143.5760 C   0  0  0  0  0  2  0  0  0  0  0  0
  190.1400  176.5960  143.8940 C   0  0  0  0  0  2  0  0  0  0  0  0
  190.3680  177.1190  145.2970 C   0  0  0  0  0  0  0  0  0  0  0  0
  187.9360  177.6420  145.5700 C   0  0  0  0  0  2  0  0  0  0  0  0
  188.6720  176.3220  143.5790 C   0  0  0  0  0  2  0  0  0  0  0  0
  187.8190  177.4930  144.0560 C   0  0  1  0  0  3  0  0  0  0  0  0
  189.3680  177.6350  146.0220 C   0  0  0  0  0  3  0  0  0  0  0  0
  192.0450  176.2530  146.8890 C   0  0  0  0  0  1  0  0  0  0  0  0
  191.6520  177.1340  145.8450 O   0  0  0  0  0  0  0  0  0  0  0  0
  1  8  1  0  0  0  0
  2 12  1  1  0  0  0
  2 13  1  0  0  0  0
  3 16  1  6  0  0  0
  3 14  1  0  0  0  0
  4  8  1  6  0  0  0
  4 15  1  0  0  0  0
  5  1  2  0  0  0  0
  5  9  1  0  0  0  0
  6  1  1  0  0  0  0
  7  9  1  6  0  0  0
  7  4  1  0  0  0  0
  7 11  1  0  0  0  0
 10  3  1  0  0  0  0
 11 10  1  1  0  0  0
 11  2  1  0  0  0  0
 13 35  1  1  0  0  0
 14 13  1  0  0  0  0
 15 12  1  0  0  0  0
 17 16  1  0  0  0  0
 18 16  2  0  0  0  0
 19 20  1  0  0  0  0
 19 21  1  0  0  0  0
 20 22  1  1  0  0  0
 20 21  1  0  0  0  0
 21 17  1  1  0  0  0
 22 23  1  6  0  0  0
 24 25  1  6  0  0  0
 24 22  1  0  0  0  0
 25 26  1  0  0  0  0
 27 24  1  0  0  0  0
 27 28  1  0  0  0  0
 29 34  1  0  0  0  0
 31 32  1  0  0  0  0
 32 30  1  0  0  0  0
 33 31  1  0  0  0  0
 33 29  1  0  0  0  0
 34 30  1  0  0  0  0
 34 28  1  0  0  0  0
 36 37  1  0  0  0  0
 37 43  1  0  0  0  0
 37 41  2  0  0  0  0
 38 41  1  0  0  0  0
 39 36  1  0  0  0  0
 39 40  1  0  0  0  0
 40 35  1  1  0  0  0
 40 38  1  0  0  0  0
 43 42  1  0  0  0  0
M  END
>  <MODEL>
6

>  <REMARK>
 VINA RESULT:      -7.5      3.279      8.917
  Name = 
  11 active torsions:
  status: ('A' for Active; 'I' for Inactive)
    1  A    between atoms: C_1  and  C_34
    2  A    between atoms: C_1  and  C_35
    3  A    between atoms: C_2  and  C_13
    4  A    between atoms: C_4  and  C_12
    5  A    between atoms: C_4  and  C_22
    6  A    between atoms: N_6  and  C_17
    7  A    between atoms: C_10  and  C_22
    8  A    between atoms: C_14  and  C_22
    9  A    between atoms: C_14  and  O_41
   10  A    between atoms: C_19  and  O_37
   11  A    between atoms: C_40  and  O_41
                            x       y       z     vdW  Elec       q    Type
                         _______ _______ _______ _____ _____    ______ ____

>  <TORSDO>
F 11

$$$$
=
 OpenBabel11052416133D

 43 48  0  0  1  0  0  0  0  0999 V2000
  187.9960  177.8560  148.3240 C   0  0  0  0  0  0  0  0  0  0  0  0
  189.6860  177.6490  143.5120 N   0  0  1  0  0  0  0  0  0  0  0  0
  187.2670  177.4650  141.8270 C   0  0  2  0  0  3  0  0  0  0  0  0
  189.4390  177.6500  146.2430 C   0  0  1  0  0  3  0  0  0  0  0  0
  186.9850  178.3170  147.5680 C   0  0  0  0  0  3  0  0  0  0  0  0
  187.8120  177.7430  149.6630 F   0  0  0  0  0  0  0  0  0  0  0  0
  188.1120  177.5050  145.4870 C   0  0  1  0  0  3  0  0  0  0  0  0
  189.2640  177.2990  147.7200 C   0  0  0  0  0  2  0  0  0  0  0  0
  187.0980  178.4760  146.0770 C   0  0  0  0  0  2  0  0  0  0  0  0
  187.3620  176.9660  143.2080 N   0  0  0  0  0  2  0  0  0  0  0  0
  188.2850  177.7950  143.9880 C   0  0  2  0  0  3  0  0  0  0  0  0
  190.3140  176.4930  144.1520 C   0  0  0  0  0  2  0  0  0  0  0  0
  189.7680  177.4440  142.0560 C   0  0  1  0  0  3  0  0  0  0  0  0
  188.5850  178.0480  141.3040 C   0  0  0  0  0  2  0  0  0  0  0  0
  190.5370  176.7690  145.6400 C   0  0  0  0  0  2  0  0  0  0  0  0
  186.1480  178.4490  141.6600 C   0  0  0  0  0  0  0  0  0  0  0  0
  184.8320  177.9670  141.3820 N   0  0  0  0  0  2  0  0  0  0  0  0
  186.3630  179.6870  141.7610 O   0  0  0  0  0  0  0  0  0  0  0  0
  183.5730  179.3940  139.8480 C   0  0  0  0  0  2  0  0  0  0  0  0
  182.6170  178.3060  140.2970 C   0  0  2  0  0  3  0  0  0  0  0  0
  183.6780  178.8530  141.2610 C   0  0  1  0  0  3  0  0  0  0  0  0
  182.9820  177.0010  139.5870 C   0  0  2  0  0  3  0  0  0  0  0  0
  183.5780  177.2930  138.2170 C   0  0  0  0  0  1  0  0  0  0  0  0
  181.7910  176.0280  139.5170 C   0  0  1  0  0  3  0  0  0  0  0  0
  180.5280  176.5680  140.1830 C   0  0  0  0  0  2  0  0  0  0  0  0
  179.6240  175.4290  140.6110 C   0  0  0  0  0  1  0  0  0  0  0  0
  181.4900  175.6520  138.0730 C   0  0  0  0  0  2  0  0  0  0  0  0
  181.2990  174.2660  137.9720 O   0  0  0  0  0  0  0  0  0  0  0  0
  183.3900  174.2410  136.6130 C   0  0  0  0  0  2  0  0  0  0  0  0
  181.7020  172.2850  136.5290 C   0  0  0  0  0  2  0  0  0  0  0  0
  184.1540  171.8600  136.8310 C   0  0  0  0  0  2  0  0  0  0  0  0
  182.7490  171.4090  137.2170 C   0  0  0  0  0  2  0  0  0  0  0  0
  184.3820  173.2960  137.2910 C   0  0  0  0  0  2  0  0  0  0  0  0
  181.9370  173.7760  136.8110 C   0  0  0  0  0  3  0  0  0  0  0  0
  191.1240  177.8990  141.4850 C   0  0  0  0  0  2  0  0  0  0  0  0
  190.7700  176.2170  138.0060 C   0  0  0  0  0  2  0  0  0  0  0  0
  192.2310  176.2170  137.6060 C   0  0  0  0  0  0  0  0  0  0  0  0
  192.9110  177.1460  139.8280 C   0  0  0  0  0  2  0  0  0  0  0  0
  190.5530  176.3810  139.5080 C   0  0  0  0  0  2  0  0  0  0  0  0
  191.4410  177.5020  140.0350 C   0  0  1  0  0  3  0  0  0  0  0  0
  193.1810  176.6880  138.4230 C   0  0  0  0  0  3  0  0  0  0  0  0
  192.4390  174.4390  135.9050 C   0  0  0  0  0  1  0  0  0  0  0  0
  192.6150  175.7820  136.3360 O   0  0  0  0  0  0  0  0  0  0  0  0
  1  6  1  0  0  0  0
  2 11  1  0  0  0  0
  2 12  1  1  0  0  0
  3 16  1  1  0  0  0
  3 10  1  0  0  0  0
  4 15  1  6  0  0  0
  4  8  1  0  0  0  0
  5  1  2  0  0  0  0
  7  9  1  1  0  0  0
  7  4  1  0  0  0  0
  8  1  1  0  0  0  0
  9  5  1  0  0  0  0
 11 10  1  6  0  0  0
 11  7  1  0  0  0  0
 12 15  1  0  0  0  0
 13 35  1  6  0  0  0
 13  2  1  0  0  0  0
 14  3  1  0  0  0  0
 14 13  1  0  0  0  0
 16 18  2  0  0  0  0
 17 16  1  0  0  0  0
 19 20  1  0  0  0  0
 19 21  1  0  0  0  0
 20 22  1  6  0  0  0
 20 21  1  0  0  0  0
 21 17  1  6  0  0  0
 22 23  1  6  0  0  0
 24 27  1  6  0  0  0
 24 22  1  0  0  0  0
 24 25  1  0  0  0  0
 25 26  1  0  0  0  0
 28 27  1  0  0  0  0
 29 34  1  0  0  0  0
 29 33  1  0  0  0  0
 30 34  1  0  0  0  0
 30 32  1  0  0  0  0
 31 32  1  0  0  0  0
 31 33  1  0  0  0  0
 34 28  1  0  0  0  0
 36 39  1  0  0  0  0
 37 36  1  0  0  0  0
 37 41  2  0  0  0  0
 38 40  1  0  0  0  0
 39 40  1  0  0  0  0
 40 35  1  1  0  0  0
 41 38  1  0  0  0  0
 42 43  1  0  0  0  0
 43 37  1  0  0  0  0
M  END
>  <MODEL>
7

>  <REMARK>
 VINA RESULT:      -7.5      2.824      9.191
  Name = 
  11 active torsions:
  status: ('A' for Active; 'I' for Inactive)
    1  A    between atoms: C_1  and  C_34
    2  A    between atoms: C_1  and  C_35
    3  A    between atoms: C_2  and  C_13
    4  A    between atoms: C_4  and  C_12
    5  A    between atoms: C_4  and  C_22
    6  A    between atoms: N_6  and  C_17
    7  A    between atoms: C_10  and  C_22
    8  A    between atoms: C_14  and  C_22
    9  A    between atoms: C_14  and  O_41
   10  A    between atoms: C_19  and  O_37
   11  A    between atoms: C_40  and  O_41
                            x       y       z     vdW  Elec       q    Type
                         _______ _______ _______ _____ _____    ______ ____

>  <TORSDO>
F 11

$$$$
=
 OpenBabel11052416133D

 43 48  0  0  1  0  0  0  0  0999 V2000
  187.9150  177.1630  135.3260 C   0  0  0  0  0  0  0  0  0  0  0  0
  183.2200  177.6520  137.2660 N   0  0  1  0  0  0  0  0  0  0  0  0
  183.5810  177.8160  140.1920 C   0  0  2  0  0  3  0  0  0  0  0  0
  185.3960  177.2350  135.6510 C   0  0  1  0  0  3  0  0  0  0  0  0
  188.0790  177.7700  136.5130 C   0  0  0  0  0  3  0  0  0  0  0  0
  189.0140  176.8490  134.5960 F   0  0  0  0  0  0  0  0  0  0  0  0
  185.7150  177.2550  137.1520 C   0  0  1  0  0  3  0  0  0  0  0  0
  186.5690  176.6640  134.8550 C   0  0  0  0  0  2  0  0  0  0  0  0
  186.9200  178.1560  137.3900 C   0  0  0  0  0  2  0  0  0  0  0  0
  184.4880  177.1050  139.2780 N   0  0  0  0  0  2  0  0  0  0  0  0
  184.5220  177.7690  137.9730 C   0  0  2  0  0  3  0  0  0  0  0  0
  183.1620  176.3890  136.5280 C   0  0  0  0  0  2  0  0  0  0  0  0
  182.0730  177.6740  138.1900 C   0  0  1  0  0  3  0  0  0  0  0  0
  182.3680  178.4290  139.4830 C   0  0  0  0  0  2  0  0  0  0  0  0
  184.1350  176.4220  135.3480 C   0  0  0  0  0  2  0  0  0  0  0  0
  184.2990  178.8520  141.0040 C   0  0  0  0  0  0  0  0  0  0  0  0
  184.1960  178.8160  142.4290 N   0  0  0  0  0  2  0  0  0  0  0  0
  184.9850  179.7470  140.4400 O   0  0  0  0  0  0  0  0  0  0  0  0
  184.7120  179.3780  144.7510 C   0  0  0  0  0  2  0  0  0  0  0  0
  186.0390  179.0770  144.0820 C   0  0  2  0  0  3  0  0  0  0  0  0
  184.9080  179.7510  143.2950 C   0  0  1  0  0  3  0  0  0  0  0  0
  186.1660  177.5650  143.8890 C   0  0  2  0  0  3  0  0  0  0  0  0
  186.3290  176.8710  145.2340 C   0  0  0  0  0  1  0  0  0  0  0  0
  187.2870  177.2010  142.8980 C   0  0  1  0  0  3  0  0  0  0  0  0
  187.9720  178.4180  142.2840 C   0  0  0  0  0  2  0  0  0  0  0  0
  187.9890  178.3140  140.7720 C   0  0  0  0  0  1  0  0  0  0  0  0
  188.3240  176.3090  143.5660 C   0  0  0  0  0  2  0  0  0  0  0  0
  189.4170  176.1230  142.7050 O   0  0  0  0  0  0  0  0  0  0  0  0
  191.7000  177.1270  142.6510 C   0  0  0  0  0  2  0  0  0  0  0  0
  190.4480  176.7390  144.8790 C   0  0  0  0  0  2  0  0  0  0  0  0
  191.5390  178.9400  144.3820 C   0  0  0  0  0  2  0  0  0  0  0  0
  190.3430  178.2560  145.0360 C   0  0  0  0  0  2  0  0  0  0  0  0
  191.5600  178.6310  142.8880 C   0  0  0  0  0  2  0  0  0  0  0  0
  190.6230  176.3310  143.4100 C   0  0  0  0  0  3  0  0  0  0  0  0
  180.7870  178.1660  137.5000 C   0  0  0  0  0  2  0  0  0  0  0  0
  180.2800  182.0100  137.3480 C   0  0  0  0  0  2  0  0  0  0  0  0
  180.1770  182.1650  135.8440 C   0  0  0  0  0  0  0  0  0  0  0  0
  180.2950  179.6870  135.5130 C   0  0  0  0  0  2  0  0  0  0  0  0
  180.0240  180.5850  137.8300 C   0  0  0  0  0  2  0  0  0  0  0  0
  180.7920  179.6020  136.9530 C   0  0  1  0  0  3  0  0  0  0  0  0
  180.2360  181.1070  135.0270 C   0  0  0  0  0  3  0  0  0  0  0  0
  180.8870  184.5260  135.6980 C   0  0  0  0  0  1  0  0  0  0  0  0
  180.0830  183.4350  135.2700 O   0  0  0  0  0  0  0  0  0  0  0  0
  1  5  2  0  0  0  0
  2 12  1  1  0  0  0
  2 11  1  0  0  0  0
  2 13  1  0  0  0  0
  3 16  1  6  0  0  0
  4  8  1  6  0  0  0
  4  7  1  0  0  0  0
  5  9  1  0  0  0  0
  6  1  1  0  0  0  0
  7  9  1  6  0  0  0
  7 11  1  0  0  0  0
  8  1  1  0  0  0  0
 10  3  1  0  0  0  0
 11 10  1  1  0  0  0
 13 35  1  6  0  0  0
 13 14  1  0  0  0  0
 14  3  1  0  0  0  0
 15  4  1  0  0  0  0
 15 12  1  0  0  0  0
 16 17  1  0  0  0  0
 18 16  2  0  0  0  0
 20 22  1  6  0  0  0
 20 19  1  0  0  0  0
 21 17  1  6  0  0  0
 21 20  1  0  0  0  0
 21 19  1  0  0  0  0
 22 23  1  1  0  0  0
 24 25  1  1  0  0  0
 24 27  1  0  0  0  0
 24 22  1  0  0  0  0
 26 25  1  0  0  0  0
 28 34  1  0  0  0  0
 28 27  1  0  0  0  0
 29 33  1  0  0  0  0
 29 34  1  0  0  0  0
 30 32  1  0  0  0  0
 31 32  1  0  0  0  0
 33 31  1  0  0  0  0
 34 30  1  0  0  0  0
 36 39  1  0  0  0  0
 37 36  1  0  0  0  0
 38 40  1  0  0  0  0
 40 35  1  1  0  0  0
 40 39  1  0  0  0  0
 41 38  1  0  0  0  0
 41 37  2  0  0  0  0
 43 42  1  0  0  0  0
 43 37  1  0  0  0  0
M  END
>  <MODEL>
8

>  <REMARK>
 VINA RESULT:      -7.2      3.527      6.161
  Name = 
  11 active torsions:
  status: ('A' for Active; 'I' for Inactive)
    1  A    between atoms: C_1  and  C_34
    2  A    between atoms: C_1  and  C_35
    3  A    between atoms: C_2  and  C_13
    4  A    between atoms: C_4  and  C_12
    5  A    between atoms: C_4  and  C_22
    6  A    between atoms: N_6  and  C_17
    7  A    between atoms: C_10  and  C_22
    8  A    between atoms: C_14  and  C_22
    9  A    between atoms: C_14  and  O_41
   10  A    between atoms: C_19  and  O_37
   11  A    between atoms: C_40  and  O_41
                            x       y       z     vdW  Elec       q    Type
                         _______ _______ _______ _____ _____    ______ ____

>  <TORSDO>
F 11

$$$$
=
 OpenBabel11052416133D

 43 48  0  0  1  0  0  0  0  0999 V2000
  188.0630  177.8440  147.7810 C   0  0  0  0  0  0  0  0  0  0  0  0
  188.0440  178.2560  142.6930 N   0  0  1  0  0  0  0  0  0  0  0  0
  185.2460  177.7930  141.8680 C   0  0  2  0  0  3  0  0  0  0  0  0
  188.7350  178.0250  145.3370 C   0  0  1  0  0  3  0  0  0  0  0  0
  186.8050  178.1840  147.4530 C   0  0  0  0  0  3  0  0  0  0  0  0
  188.3580  177.6090  149.0830 F   0  0  0  0  0  0  0  0  0  0  0  0
  187.2620  177.7160  145.0370 C   0  0  1  0  0  3  0  0  0  0  0  0
  189.1150  177.5480  146.7380 C   0  0  0  0  0  2  0  0  0  0  0  0
  186.3870  178.4630  146.0350 C   0  0  0  0  0  2  0  0  0  0  0  0
  185.8660  177.2220  143.0740 N   0  0  0  0  0  2  0  0  0  0  0  0
  186.8790  178.1350  143.6090 C   0  0  2  0  0  3  0  0  0  0  0  0
  188.9990  177.1780  142.9520 C   0  0  0  0  0  2  0  0  0  0  0  0
  187.6570  178.1700  141.2740 C   0  0  1  0  0  3  0  0  0  0  0  0
  186.2220  178.6210  141.0230 C   0  0  0  0  0  2  0  0  0  0  0  0
  189.6720  177.3820  144.3110 C   0  0  0  0  0  2  0  0  0  0  0  0
  184.0170  178.5890  142.1910 C   0  0  0  0  0  0  0  0  0  0  0  0
  182.8150  178.3420  141.4570 N   0  0  0  0  0  2  0  0  0  0  0  0
  184.0400  179.4650  143.0960 O   0  0  0  0  0  0  0  0  0  0  0  0
  181.1670  179.9210  140.5830 C   0  0  0  0  0  2  0  0  0  0  0  0
  180.4310  178.6130  140.7970 C   0  0  2  0  0  3  0  0  0  0  0  0
  181.5610  179.0310  141.7460 C   0  0  1  0  0  3  0  0  0  0  0  0
  180.8270  177.6340  139.6910 C   0  0  2  0  0  3  0  0  0  0  0  0
  180.2540  178.0840  138.3540 C   0  0  0  0  0  1  0  0  0  0  0  0
  180.4430  176.1840  140.0380 C   0  0  1  0  0  3  0  0  0  0  0  0
  179.2400  176.0820  140.9720 C   0  0  0  0  0  2  0  0  0  0  0  0
  178.9410  174.6330  141.3000 C   0  0  0  0  0  1  0  0  0  0  0  0
  180.1790  175.3810  138.7720 C   0  0  0  0  0  2  0  0  0  0  0  0
  181.2180  174.4610  138.5670 O   0  0  0  0  0  0  0  0  0  0  0  0
  182.8350  175.7070  137.1340 C   0  0  0  0  0  2  0  0  0  0  0  0
  182.0740  173.3090  136.5400 C   0  0  0  0  0  2  0  0  0  0  0  0
  184.5020  173.9320  136.5220 C   0  0  0  0  0  2  0  0  0  0  0  0
  183.4950  172.8310  136.8370 C   0  0  0  0  0  2  0  0  0  0  0  0
  184.2320  175.1480  137.4020 C   0  0  0  0  0  2  0  0  0  0  0  0
  181.7530  174.6210  137.2700 C   0  0  0  0  0  3  0  0  0  0  0  0
  188.6680  178.8810  140.3570 C   0  0  0  0  0  2  0  0  0  0  0  0
  189.0650  176.5890  137.2510 C   0  0  0  0  0  2  0  0  0  0  0  0
  190.3990  175.9630  137.6000 C   0  0  0  0  0  0  0  0  0  0  0  0
  190.4470  177.1350  139.8110 C   0  0  0  0  0  2  0  0  0  0  0  0
  188.3500  177.2050  138.4510 C   0  0  0  0  0  2  0  0  0  0  0  0
  189.3390  178.0330  139.2650 C   0  0  1  0  0  3  0  0  0  0  0  0
  191.0340  176.2610  138.7410 C   0  0  0  0  0  3  0  0  0  0  0  0
  190.6760  173.7340  136.5740 C   0  0  0  0  0  1  0  0  0  0  0  0
  191.0330  175.1040  136.7010 O   0  0  0  0  0  0  0  0  0  0  0  0
  1  6  1  0  0  0  0
  2 12  1  1  0  0  0
  2 11  1  0  0  0  0
  3 16  1  1  0  0  0
  3 10  1  0  0  0  0
  4 15  1  6  0  0  0
  4  8  1  0  0  0  0
  5  1  2  0  0  0  0
  7  4  1  0  0  0  0
  7  9  1  1  0  0  0
  8  1  1  0  0  0  0
  9  5  1  0  0  0  0
 11 10  1  6  0  0  0
 11  7  1  0  0  0  0
 12 15  1  0  0  0  0
 13 35  1  6  0  0  0
 13  2  1  0  0  0  0
 14 13  1  0  0  0  0
 14  3  1  0  0  0  0
 16 18  2  0  0  0  0
 17 16  1  0  0  0  0
 19 20  1  0  0  0  0
 19 21  1  0  0  0  0
 20 22  1  6  0  0  0
 20 21  1  0  0  0  0
 21 17  1  6  0  0  0
 22 23  1  6  0  0  0
 22 24  1  0  0  0  0
 24 27  1  6  0  0  0
 24 25  1  0  0  0  0
 25 26  1  0  0  0  0
 28 27  1  0  0  0  0
 29 34  1  0  0  0  0
 29 33  1  0  0  0  0
 30 32  1  0  0  0  0
 30 34  1  0  0  0  0
 31 32  1  0  0  0  0
 31 33  1  0  0  0  0
 34 28  1  0  0  0  0
 36 37  1  0  0  0  0
 36 39  1  0  0  0  0
 37 41  2  0  0  0  0
 39 40  1  0  0  0  0
 40 38  1  0  0  0  0
 40 35  1  1  0  0  0
 41 38  1  0  0  0  0
 42 43  1  0  0  0  0
 43 37  1  0  0  0  0
M  END
>  <MODEL>
9

>  <REMARK>
 VINA RESULT:      -7.2      2.502      8.636
  Name = 
  11 active torsions:
  status: ('A' for Active; 'I' for Inactive)
    1  A    between atoms: C_1  and  C_34
    2  A    between atoms: C_1  and  C_35
    3  A    between atoms: C_2  and  C_13
    4  A    between atoms: C_4  and  C_12
    5  A    between atoms: C_4  and  C_22
    6  A    between atoms: N_6  and  C_17
    7  A    between atoms: C_10  and  C_22
    8  A    between atoms: C_14  and  C_22
    9  A    between atoms: C_14  and  O_41
   10  A    between atoms: C_19  and  O_37
   11  A    between atoms: C_40  and  O_41
                            x       y       z     vdW  Elec       q    Type
                         _______ _______ _______ _____ _____    ______ ____

>  <TORSDO>
F 11

$$$$
