=
 OpenBabel11052415193D

 37 43  0  0  1  0  0  0  0  0999 V2000
  183.1720  176.3720  136.2580 C   0  0  1  0  0  0  0  0  0  0  0  0
  180.2420  176.8410  136.7210 C   0  0  1  0  0  0  0  0  0  0  0  0
  182.1140  178.2250  139.1170 C   0  0  0  0  0  0  0  0  0  0  0  0
  183.3020  175.1790  135.2670 C   0  0  1  0  0  3  0  0  0  0  0  0
  179.5700  179.0230  137.9030 C   0  0  0  0  0  2  0  0  0  0  0  0
  183.4370  177.7240  139.6340 C   0  0  2  0  0  3  0  0  0  0  0  0
  185.6430  174.3650  135.7860 C   0  0  0  0  0  0  0  0  0  0  0  0
  180.9290  174.5130  135.7300 C   0  0  0  0  0  2  0  0  0  0  0  0
  180.9190  177.3180  139.2080 C   0  0  0  0  0  2  0  0  0  0  0  0
  184.1440  178.8980  140.3380 C   0  0  2  0  0  3  0  0  0  0  0  0
  180.7190  181.0470  137.3960 O   0  0  0  0  0  0  0  0  0  0  0  0
  184.6280  174.7760  134.9110 O   0  0  0  0  0  0  0  0  0  0  0  0
  181.6860  176.7990  136.1920 C   0  0  2  0  0  3  0  0  0  0  0  0
  183.1860  180.3730  138.6910 C   0  0  0  0  0  3  0  0  0  0  0  0
  182.3570  173.9980  135.5380 C   0  0  0  0  0  2  0  0  0  0  0  0
  180.7830  179.9050  137.9220 C   0  0  0  0  0  0  0  0  0  0  0  0
  180.9800  175.5580  136.8360 C   0  0  1  0  0  3  0  0  0  0  0  0
  185.7320  174.8030  137.2120 C   0  0  0  0  0  2  0  0  0  0  0  0
  184.2840  177.2110  138.4690 C   0  0  0  0  0  2  0  0  0  0  0  0
  182.0210  179.4650  138.5940 C   0  0  0  0  0  0  0  0  0  0  0  0
  183.6200  176.0500  137.7240 C   0  0  2  0  0  3  0  0  0  0  0  0
  179.9270  177.5420  138.0600 C   0  0  2  0  0  3  0  0  0  0  0  0
  184.3920  174.7480  137.9180 C   0  0  0  0  0  2  0  0  0  0  0  0
  186.5960  173.6860  135.3200 O   0  0  0  0  0  0  0  0  0  0  0  0
  183.9810  177.5220  135.6670 C   0  0  0  0  0  1  0  0  0  0  0  0
  184.1820  180.0840  139.4760 N   0  0  0  0  0  0  0  0  0  0  0  0
  184.4910  178.1560  143.1600 C   0  0  0  0  0  2  0  0  0  0  0  0
  185.6520  178.1850  142.2690 N   0  0  0  0  0  0  0  0  0  0  0  0
  186.5160  178.6650  140.1510 O   0  0  0  0  0  0  0  0  0  0  0  0
  186.9690  177.7790  142.7700 C   0  0  0  0  0  2  0  0  0  0  0  0
  188.5770  177.1310  144.8860 S   0  0  0  0  0  1  0  0  0  0  0  0
  186.1960  178.4680  145.0510 C   0  0  0  0  0  2  0  0  0  0  0  0
  186.9010  177.3810  144.2430 C   0  0  1  0  0  3  0  0  0  0  0  0
  185.5010  178.5720  140.8940 C   0  0  0  0  0  0  0  0  0  0  0  0
  184.8190  178.8490  144.4840 C   0  0  0  0  0  2  0  0  0  0  0  0
  179.5900  178.3250  134.5940 C   0  0  0  0  0  1  0  0  0  0  0  0
  178.9310  176.8610  135.4420 S   0  0  0  0  0  0  0  0  0  0  0  0
  1 25  1  6  0  0  0
  1 21  1  0  0  0  0
  2 37  1  6  0  0  0
  2 17  1  0  0  0  0
  2 22  1  0  0  0  0
  3  9  1  0  0  0  0
  3  6  1  0  0  0  0
  4 15  1  1  0  0  0
  4  1  1  0  0  0  0
  5 16  1  0  0  0  0
  5 22  1  0  0  0  0
  6 19  1  6  0  0  0
  6 10  1  0  0  0  0
  7 18  1  0  0  0  0
  8 17  1  0  0  0  0
 10 34  1  6  0  0  0
 11 16  2  0  0  0  0
 12  4  1  0  0  0  0
 12  7  1  0  0  0  0
 13  1  1  0  0  0  0
 13  2  1  0  0  0  0
 13 17  1  0  0  0  0
 14 26  2  0  0  0  0
 15  8  1  0  0  0  0
 16 20  1  0  0  0  0
 18 23  1  0  0  0  0
 20 14  1  0  0  0  0
 20  3  2  0  0  0  0
 21 23  1  0  0  0  0
 21 19  1  0  0  0  0
 22  9  1  0  0  0  0
 24  7  2  0  0  0  0
 26 10  1  0  0  0  0
 27 35  1  0  0  0  0
 28 30  1  0  0  0  0
 28 27  1  0  0  0  0
 29 34  2  0  0  0  0
 30 33  1  0  0  0  0
 33 31  1  0  0  0  0
 33 32  1  0  0  0  0
 34 28  1  0  0  0  0
 35 32  1  0  0  0  0
 36 37  1  0  0  0  0
M  END
>  <MODEL>
1

>  <REMARK>
 VINA RESULT:      -6.6      0.000      0.000
  Name = 
  2 active torsions:
  status: ('A' for Active; 'I' for Inactive)
    1  A    between atoms: C_3  and  S_32
    2  A    between atoms: C_14  and  C_31
                            x       y       z     vdW  Elec       q    Type
                         _______ _______ _______ _____ _____    ______ ____

>  <TORSDO>
F 2

$$$$
=
 OpenBabel11052415193D

 37 43  0  0  1  0  0  0  0  0999 V2000
  184.1820  176.3720  135.8820 C   0  0  1  0  0  0  0  0  0  0  0  0
  181.1820  176.4110  136.0150 C   0  0  1  0  0  0  0  0  0  0  0  0
  182.5620  177.9170  138.6590 C   0  0  0  0  0  0  0  0  0  0  0  0
  184.5890  175.2590  134.8730 C   0  0  1  0  0  3  0  0  0  0  0  0
  180.0800  178.4180  137.1840 C   0  0  0  0  0  2  0  0  0  0  0  0
  183.8770  177.5760  139.3090 C   0  0  2  0  0  3  0  0  0  0  0  0
  186.9500  174.7480  135.6330 C   0  0  0  0  0  0  0  0  0  0  0  0
  182.2980  174.2520  135.0330 C   0  0  0  0  0  2  0  0  0  0  0  0
  181.5050  176.8520  138.5790 C   0  0  0  0  0  2  0  0  0  0  0  0
  184.3270  178.8000  140.1310 C   0  0  2  0  0  3  0  0  0  0  0  0
  180.9790  180.6040  136.8840 O   0  0  0  0  0  0  0  0  0  0  0  0
  185.9900  175.0600  134.6600 O   0  0  0  0  0  0  0  0  0  0  0  0
  182.6670  176.5940  135.6580 C   0  0  2  0  0  3  0  0  0  0  0  0
  183.3590  180.2100  138.4340 C   0  0  0  0  0  3  0  0  0  0  0  0
  183.7970  173.9470  134.9910 C   0  0  0  0  0  2  0  0  0  0  0  0
  181.1460  179.4560  137.3750 C   0  0  0  0  0  0  0  0  0  0  0  0
  182.0780  175.2370  136.1720 C   0  0  1  0  0  3  0  0  0  0  0  0
  186.8170  175.1230  137.0740 C   0  0  0  0  0  2  0  0  0  0  0  0
  184.9120  177.2440  138.2340 C   0  0  0  0  0  2  0  0  0  0  0  0
  182.3520  179.1570  138.1710 C   0  0  0  0  0  0  0  0  0  0  0  0
  184.5060  176.0410  137.3780 C   0  0  2  0  0  3  0  0  0  0  0  0
  180.6240  176.9940  137.3320 C   0  0  2  0  0  3  0  0  0  0  0  0
  185.4290  174.8500  137.6160 C   0  0  0  0  0  2  0  0  0  0  0  0
  188.0350  174.2310  135.2590 O   0  0  0  0  0  0  0  0  0  0  0  0
  184.8800  177.6500  135.4290 C   0  0  0  0  0  1  0  0  0  0  0  0
  184.2920  180.0220  139.3190 N   0  0  0  0  0  0  0  0  0  0  0  0
  184.4600  178.0200  142.9600 C   0  0  0  0  0  2  0  0  0  0  0  0
  185.6980  178.2280  142.2070 N   0  0  0  0  0  0  0  0  0  0  0  0
  186.7150  178.8830  140.2080 O   0  0  0  0  0  0  0  0  0  0  0  0
  186.9940  177.9820  142.8450 C   0  0  0  0  0  2  0  0  0  0  0  0
  188.4330  177.4800  145.1170 S   0  0  0  0  0  1  0  0  0  0  0  0
  185.8920  178.4910  145.0370 C   0  0  0  0  0  2  0  0  0  0  0  0
  186.8190  177.5310  144.2940 C   0  0  1  0  0  3  0  0  0  0  0  0
  185.6470  178.6360  140.8300 C   0  0  0  0  0  0  0  0  0  0  0  0
  184.5470  178.7070  144.3250 C   0  0  0  0  0  2  0  0  0  0  0  0
  178.9310  175.1090  135.3900 C   0  0  0  0  0  1  0  0  0  0  0  0
  180.0310  176.3150  134.5940 S   0  0  0  0  0  0  0  0  0  0  0  0
  1 25  1  6  0  0  0
  1 21  1  0  0  0  0
  2 37  1  6  0  0  0
  2 17  1  0  0  0  0
  2 22  1  0  0  0  0
  3  6  1  0  0  0  0
  4 15  1  1  0  0  0
  4  1  1  0  0  0  0
  5 22  1  0  0  0  0
  5 16  1  0  0  0  0
  6 19  1  6  0  0  0
  6 10  1  0  0  0  0
  7 18  1  0  0  0  0
  8 17  1  0  0  0  0
  9  3  1  0  0  0  0
 10 34  1  6  0  0  0
 11 16  2  0  0  0  0
 12  4  1  0  0  0  0
 12  7  1  0  0  0  0
 13  1  1  0  0  0  0
 13  2  1  0  0  0  0
 13 17  1  0  0  0  0
 14 26  2  0  0  0  0
 15  8  1  0  0  0  0
 16 20  1  0  0  0  0
 18 23  1  0  0  0  0
 20 14  1  0  0  0  0
 20  3  2  0  0  0  0
 21 23  1  0  0  0  0
 21 19  1  0  0  0  0
 22  9  1  0  0  0  0
 24  7  2  0  0  0  0
 26 10  1  0  0  0  0
 27 35  1  0  0  0  0
 28 30  1  0  0  0  0
 28 27  1  0  0  0  0
 29 34  2  0  0  0  0
 30 33  1  0  0  0  0
 33 32  1  0  0  0  0
 33 31  1  0  0  0  0
 34 28  1  0  0  0  0
 35 32  1  0  0  0  0
 37 36  1  0  0  0  0
M  END
>  <MODEL>
2

>  <REMARK>
 VINA RESULT:      -6.2      0.946      1.087
  Name = 
  2 active torsions:
  status: ('A' for Active; 'I' for Inactive)
    1  A    between atoms: C_3  and  S_32
    2  A    between atoms: C_14  and  C_31
                            x       y       z     vdW  Elec       q    Type
                         _______ _______ _______ _____ _____    ______ ____

>  <TORSDO>
F 2

$$$$
=
 OpenBabel11052415193D

 37 43  0  0  1  0  0  0  0  0999 V2000
  182.3240  177.3550  139.0410 C   0  0  1  0  0  0  0  0  0  0  0  0
  180.8300  177.3130  136.4360 C   0  0  1  0  0  0  0  0  0  0  0  0
  184.0890  176.7200  136.0070 C   0  0  0  0  0  0  0  0  0  0  0  0
  181.4370  178.1080  140.0750 C   0  0  1  0  0  3  0  0  0  0  0  0
  181.7120  175.7490  134.5960 C   0  0  0  0  0  2  0  0  0  0  0  0
  185.2240  177.2660  136.8340 C   0  0  2  0  0  3  0  0  0  0  0  0
  183.1750  178.8640  141.7540 C   0  0  0  0  0  0  0  0  0  0  0  0
  180.0630  179.0790  138.2150 C   0  0  0  0  0  2  0  0  0  0  0  0
  183.1720  177.6920  135.3210 C   0  0  0  0  0  2  0  0  0  0  0  0
  186.4520  176.3630  136.6030 C   0  0  2  0  0  3  0  0  0  0  0  0
  182.5430  173.5920  135.1730 O   0  0  0  0  0  0  0  0  0  0  0  0
  181.9660  178.2530  141.3970 O   0  0  0  0  0  0  0  0  0  0  0  0
  181.3910  177.0520  137.8450 C   0  0  2  0  0  3  0  0  0  0  0  0
  184.9540  174.4820  136.4420 C   0  0  0  0  0  3  0  0  0  0  0  0
  180.7530  179.3790  139.5480 C   0  0  0  0  0  2  0  0  0  0  0  0
  182.7160  174.8380  135.2370 C   0  0  0  0  0  0  0  0  0  0  0  0
  181.1200  178.4910  137.2920 C   0  0  1  0  0  3  0  0  0  0  0  0
  184.3560  178.9520  140.8420 C   0  0  0  0  0  2  0  0  0  0  0  0
  184.8320  177.2650  138.3120 C   0  0  0  0  0  2  0  0  0  0  0  0
  183.9200  175.3870  135.8910 C   0  0  0  0  0  0  0  0  0  0  0  0
  183.6050  178.1380  138.5950 C   0  0  2  0  0  3  0  0  0  0  0  0
  181.7400  177.1580  135.1990 C   0  0  2  0  0  3  0  0  0  0  0  0
  183.9710  179.3580  139.4340 C   0  0  0  0  0  2  0  0  0  0  0  0
  183.3190  179.2580  142.9410 O   0  0  0  0  0  0  0  0  0  0  0  0
  182.6810  176.0110  139.6670 C   0  0  0  0  0  1  0  0  0  0  0  0
  186.1130  174.9500  136.8030 N   0  0  0  0  0  0  0  0  0  0  0  0
  189.0800  175.2000  135.9890 C   0  0  0  0  0  2  0  0  0  0  0  0
  188.9590  176.1990  137.0530 N   0  0  0  0  0  0  0  0  0  0  0  0
  187.5680  177.5610  138.3450 O   0  0  0  0  0  0  0  0  0  0  0  0
  190.1560  176.6640  137.7600 C   0  0  0  0  0  2  0  0  0  0  0  0
  192.8230  176.3780  138.2980 S   0  0  0  0  0  1  0  0  0  0  0  0
  191.2040  174.4540  137.2190 C   0  0  0  0  0  2  0  0  0  0  0  0
  191.4110  175.9670  137.2380 C   0  0  1  0  0  3  0  0  0  0  0  0
  187.6760  176.7560  137.3810 C   0  0  0  0  0  0  0  0  0  0  0  0
  189.9390  174.0250  136.4600 C   0  0  0  0  0  2  0  0  0  0  0  0
  179.0400  175.5790  137.4070 C   0  0  0  0  0  1  0  0  0  0  0  0
  179.0490  176.9470  136.2120 S   0  0  0  0  0  0  0  0  0  0  0  0
  1 25  1  1  0  0  0
  1  4  1  0  0  0  0
  2 37  1  6  0  0  0
  2 17  1  0  0  0  0
  2 13  1  0  0  0  0
  3  6  1  0  0  0  0
  4 15  1  6  0  0  0
  4 12  1  0  0  0  0
  5 22  1  0  0  0  0
  5 16  1  0  0  0  0
  6 19  1  1  0  0  0
  7 24  2  0  0  0  0
  8 15  1  0  0  0  0
  9  3  1  0  0  0  0
 10 26  1  0  0  0  0
 10  6  1  0  0  0  0
 10 34  1  1  0  0  0
 11 16  2  0  0  0  0
 12  7  1  0  0  0  0
 13  1  1  0  0  0  0
 14 26  2  0  0  0  0
 16 20  1  0  0  0  0
 17 13  1  0  0  0  0
 17  8  1  0  0  0  0
 18  7  1  0  0  0  0
 19 21  1  0  0  0  0
 20  3  2  0  0  0  0
 20 14  1  0  0  0  0
 21  1  1  0  0  0  0
 21 23  1  0  0  0  0
 22  9  1  0  0  0  0
 22  2  1  0  0  0  0
 23 18  1  0  0  0  0
 27 35  1  0  0  0  0
 27 28  1  0  0  0  0
 28 34  1  0  0  0  0
 28 30  1  0  0  0  0
 32 33  1  0  0  0  0
 33 30  1  0  0  0  0
 33 31  1  0  0  0  0
 34 29  2  0  0  0  0
 35 32  1  0  0  0  0
 37 36  1  0  0  0  0
M  END
>  <MODEL>
3

>  <REMARK>
 VINA RESULT:      -5.2      3.110      5.945
  Name = 
  2 active torsions:
  status: ('A' for Active; 'I' for Inactive)
    1  A    between atoms: C_3  and  S_32
    2  A    between atoms: C_14  and  C_31
                            x       y       z     vdW  Elec       q    Type
                         _______ _______ _______ _____ _____    ______ ____

>  <TORSDO>
F 2

$$$$
=
 OpenBabel11052415193D

 37 43  0  0  1  0  0  0  0  0999 V2000
  182.3610  177.8190  138.7470 C   0  0  1  0  0  0  0  0  0  0  0  0
  180.7040  178.2490  136.2800 C   0  0  1  0  0  0  0  0  0  0  0  0
  183.2770  176.1980  135.7040 C   0  0  0  0  0  0  0  0  0  0  0  0
  182.0350  178.9770  139.7350 C   0  0  1  0  0  3  0  0  0  0  0  0
  180.5660  176.3080  134.5990 C   0  0  0  0  0  2  0  0  0  0  0  0
  184.6270  176.2310  136.3730 C   0  0  2  0  0  3  0  0  0  0  0  0
  184.1160  178.9920  141.1770 C   0  0  0  0  0  0  0  0  0  0  0  0
  181.0260  180.3110  137.8660 C   0  0  0  0  0  2  0  0  0  0  0  0
  182.8150  177.4220  134.9650 C   0  0  0  0  0  2  0  0  0  0  0  0
  185.2850  174.8520  136.1750 C   0  0  2  0  0  3  0  0  0  0  0  0
  180.4100  174.0660  135.3890 O   0  0  0  0  0  0  0  0  0  0  0  0
  182.7280  178.9730  140.9870 O   0  0  0  0  0  0  0  0  0  0  0  0
  181.2540  177.8770  137.6680 C   0  0  2  0  0  3  0  0  0  0  0  0
  183.0980  173.8570  136.3620 C   0  0  0  0  0  3  0  0  0  0  0  0
  181.9320  180.3710  139.0980 C   0  0  0  0  0  2  0  0  0  0  0  0
  181.1270  175.0950  135.2810 C   0  0  0  0  0  0  0  0  0  0  0  0
  181.5900  179.2300  136.9540 C   0  0  1  0  0  3  0  0  0  0  0  0
  185.0930  178.4540  140.1820 C   0  0  0  0  0  2  0  0  0  0  0  0
  184.4560  176.5330  137.8620 C   0  0  0  0  0  2  0  0  0  0  0  0
  182.5180  175.0860  135.7720 C   0  0  0  0  0  0  0  0  0  0  0  0
  183.7930  177.8900  138.1150 C   0  0  2  0  0  3  0  0  0  0  0  0
  181.2910  177.5920  135.0120 C   0  0  2  0  0  3  0  0  0  0  0  0
  184.7630  178.8730  138.7630 C   0  0  0  0  0  2  0  0  0  0  0  0
  184.5630  179.3720  142.2910 O   0  0  0  0  0  0  0  0  0  0  0  0
  182.1530  176.5170  139.5140 C   0  0  0  0  0  1  0  0  0  0  0  0
  184.3780  173.7720  136.5780 N   0  0  0  0  0  0  0  0  0  0  0  0
  187.4540  176.7430  135.5800 C   0  0  0  0  0  2  0  0  0  0  0  0
  187.6820  175.6530  136.5290 N   0  0  0  0  0  0  0  0  0  0  0  0
  186.8660  173.7270  137.5720 O   0  0  0  0  0  0  0  0  0  0  0  0
  188.9660  175.5490  137.2290 C   0  0  0  0  0  2  0  0  0  0  0  0
  191.5650  176.3600  137.4970 S   0  0  0  0  0  1  0  0  0  0  0  0
  190.0020  176.7400  135.2840 C   0  0  0  0  0  2  0  0  0  0  0  0
  189.9170  176.6670  136.8070 C   0  0  1  0  0  3  0  0  0  0  0  0
  186.6390  174.7050  136.8090 C   0  0  0  0  0  0  0  0  0  0  0  0
  188.6280  176.8540  134.6050 C   0  0  0  0  0  2  0  0  0  0  0  0
  179.1150  179.7770  134.7640 C   0  0  0  0  0  1  0  0  0  0  0  0
  178.9340  178.7190  136.2300 S   0  0  0  0  0  0  0  0  0  0  0  0
  1 25  1  1  0  0  0
  1  4  1  0  0  0  0
  2 37  1  6  0  0  0
  2 17  1  0  0  0  0
  2 13  1  0  0  0  0
  3 20  2  0  0  0  0
  3  6  1  0  0  0  0
  4 15  1  6  0  0  0
  4 12  1  0  0  0  0
  5 22  1  0  0  0  0
  5 16  1  0  0  0  0
  6 19  1  1  0  0  0
  7 24  2  0  0  0  0
  8 15  1  0  0  0  0
  9 22  1  0  0  0  0
  9  3  1  0  0  0  0
 10  6  1  0  0  0  0
 10 26  1  0  0  0  0
 10 34  1  1  0  0  0
 12  7  1  0  0  0  0
 13  1  1  0  0  0  0
 14 26  2  0  0  0  0
 16 11  2  0  0  0  0
 16 20  1  0  0  0  0
 17 13  1  0  0  0  0
 17  8  1  0  0  0  0
 18  7  1  0  0  0  0
 19 21  1  0  0  0  0
 20 14  1  0  0  0  0
 21  1  1  0  0  0  0
 21 23  1  0  0  0  0
 22  2  1  0  0  0  0
 23 18  1  0  0  0  0
 27 28  1  0  0  0  0
 28 34  1  0  0  0  0
 28 30  1  0  0  0  0
 32 33  1  0  0  0  0
 33 30  1  0  0  0  0
 33 31  1  0  0  0  0
 34 29  2  0  0  0  0
 35 32  1  0  0  0  0
 35 27  1  0  0  0  0
 36 37  1  0  0  0  0
M  END
>  <MODEL>
4

>  <REMARK>
 VINA RESULT:      -5.2      2.949      5.976
  Name = 
  2 active torsions:
  status: ('A' for Active; 'I' for Inactive)
    1  A    between atoms: C_3  and  S_32
    2  A    between atoms: C_14  and  C_31
                            x       y       z     vdW  Elec       q    Type
                         _______ _______ _______ _____ _____    ______ ____

>  <TORSDO>
F 2

$$$$
=
 OpenBabel11052415193D

 37 43  0  0  1  0  0  0  0  0999 V2000
  184.7800  173.3480  135.8660 C   0  0  1  0  0  0  0  0  0  0  0  0
  182.0260  174.3230  136.5650 C   0  0  1  0  0  0  0  0  0  0  0  0
  184.3750  176.5570  137.3730 C   0  0  0  0  0  0  0  0  0  0  0  0
  184.6980  171.8040  135.6950 C   0  0  1  0  0  3  0  0  0  0  0  0
  181.6090  176.8570  136.4540 C   0  0  0  0  0  2  0  0  0  0  0  0
  185.7880  176.2660  137.8060 C   0  0  2  0  0  3  0  0  0  0  0  0
  187.1080  171.1380  136.0990 C   0  0  0  0  0  0  0  0  0  0  0  0
  182.5040  171.7680  136.9080 C   0  0  0  0  0  2  0  0  0  0  0  0
  183.2470  175.9850  138.1830 C   0  0  0  0  0  2  0  0  0  0  0  0
  186.6200  177.5460  137.5890 C   0  0  2  0  0  3  0  0  0  0  0  0
  182.5820  178.1420  134.7000 O   0  0  0  0  0  0  0  0  0  0  0  0
  185.9140  171.1250  135.3650 O   0  0  0  0  0  0  0  0  0  0  0  0
  183.3120  173.8380  135.8730 C   0  0  2  0  0  3  0  0  0  0  0  0
  185.2900  177.9970  135.6310 C   0  0  0  0  0  3  0  0  0  0  0  0
  183.8580  171.0720  136.7520 C   0  0  0  0  0  2  0  0  0  0  0  0
  182.7810  177.4650  135.7430 C   0  0  0  0  0  0  0  0  0  0  0  0
  182.7910  173.2300  137.2180 C   0  0  1  0  0  3  0  0  0  0  0  0
  187.5130  172.2620  136.9960 C   0  0  0  0  0  2  0  0  0  0  0  0
  186.3550  175.1140  136.9760 C   0  0  0  0  0  2  0  0  0  0  0  0
  184.1460  177.3190  136.2850 C   0  0  0  0  0  0  0  0  0  0  0  0
  185.5550  173.8190  137.1440 C   0  0  2  0  0  3  0  0  0  0  0  0
  182.0150  175.6650  137.3270 C   0  0  2  0  0  3  0  0  0  0  0  0
  186.3710  172.7500  137.8640 C   0  0  0  0  0  2  0  0  0  0  0  0
  187.9390  170.2120  135.9060 O   0  0  0  0  0  0  0  0  0  0  0  0
  185.4160  173.8970  134.5940 C   0  0  0  0  0  1  0  0  0  0  0  0
  186.4420  178.0660  136.2290 N   0  0  0  0  0  0  0  0  0  0  0  0
  187.4980  177.5980  140.3930 C   0  0  0  0  0  2  0  0  0  0  0  0
  188.4860  177.4200  139.3260 N   0  0  0  0  0  0  0  0  0  0  0  0
  188.9360  177.3380  137.0340 O   0  0  0  0  0  0  0  0  0  0  0  0
  189.8960  177.2010  139.6630 C   0  0  0  0  0  2  0  0  0  0  0  0
  191.8850  177.1890  141.5400 S   0  0  0  0  0  1  0  0  0  0  0  0
  189.4720  178.4540  141.7900 C   0  0  0  0  0  2  0  0  0  0  0  0
  190.1100  177.2100  141.1750 C   0  0  1  0  0  3  0  0  0  0  0  0
  188.0730  177.4200  137.9500 C   0  0  0  0  0  0  0  0  0  0  0  0
  187.9940  178.6300  141.4090 C   0  0  0  0  0  2  0  0  0  0  0  0
  179.4940  173.8950  137.3150 C   0  0  0  0  0  1  0  0  0  0  0  0
  180.4580  173.7990  135.7780 S   0  0  0  0  0  0  0  0  0  0  0  0
  1 25  1  6  0  0  0
  1 13  1  0  0  0  0
  1 21  1  0  0  0  0
  2 37  1  6  0  0  0
  2 17  1  0  0  0  0
  2 22  1  0  0  0  0
  3  6  1  0  0  0  0
  3  9  1  0  0  0  0
  4  1  1  0  0  0  0
  4 15  1  1  0  0  0
  5 22  1  0  0  0  0
  6 19  1  6  0  0  0
  7 18  1  0  0  0  0
  8 17  1  0  0  0  0
 10  6  1  0  0  0  0
 10 34  1  6  0  0  0
 11 16  2  0  0  0  0
 12  4  1  0  0  0  0
 12  7  1  0  0  0  0
 13  2  1  0  0  0  0
 13 17  1  0  0  0  0
 14 26  2  0  0  0  0
 14 20  1  0  0  0  0
 15  8  1  0  0  0  0
 16 20  1  0  0  0  0
 16  5  1  0  0  0  0
 18 23  1  0  0  0  0
 19 21  1  0  0  0  0
 20  3  2  0  0  0  0
 21 23  1  0  0  0  0
 22  9  1  0  0  0  0
 24  7  2  0  0  0  0
 26 10  1  0  0  0  0
 27 35  1  0  0  0  0
 28 30  1  0  0  0  0
 28 27  1  0  0  0  0
 29 34  2  0  0  0  0
 30 33  1  0  0  0  0
 33 31  1  0  0  0  0
 33 32  1  0  0  0  0
 34 28  1  0  0  0  0
 35 32  1  0  0  0  0
 37 36  1  0  0  0  0
M  END
>  <MODEL>
5

>  <REMARK>
 VINA RESULT:      -4.4      2.930      3.806
  Name = 
  2 active torsions:
  status: ('A' for Active; 'I' for Inactive)
    1  A    between atoms: C_3  and  S_32
    2  A    between atoms: C_14  and  C_31
                            x       y       z     vdW  Elec       q    Type
                         _______ _______ _______ _____ _____    ______ ____

>  <TORSDO>
F 2

$$$$
=
 OpenBabel11052415193D

 37 43  0  0  1  0  0  0  0  0999 V2000
  183.5780  173.4270  135.7260 C   0  0  1  0  0  0  0  0  0  0  0  0
  180.6410  172.8110  135.8280 C   0  0  1  0  0  0  0  0  0  0  0  0
  181.3750  175.6270  137.4670 C   0  0  0  0  0  0  0  0  0  0  0  0
  184.3180  172.1110  135.3500 C   0  0  1  0  0  3  0  0  0  0  0  0
  179.0210  174.8050  135.9300 C   0  0  0  0  0  2  0  0  0  0  0  0
  182.6540  175.9390  138.2010 C   0  0  2  0  0  3  0  0  0  0  0  0
  186.6360  172.5740  136.2590 C   0  0  0  0  0  0  0  0  0  0  0  0
  182.2850  170.7740  135.9600 C   0  0  0  0  0  2  0  0  0  0  0  0
  180.5810  174.4250  137.8920 C   0  0  0  0  0  2  0  0  0  0  0  0
  182.7440  177.4700  138.3600 C   0  0  2  0  0  3  0  0  0  0  0  0
  179.4690  176.7630  134.6480 O   0  0  0  0  0  0  0  0  0  0  0  0
  185.7440  172.1750  135.2530 O   0  0  0  0  0  0  0  0  0  0  0  0
  182.0840  173.1580  135.4250 C   0  0  2  0  0  3  0  0  0  0  0  0
  181.6930  177.6870  136.2020 C   0  0  0  0  0  3  0  0  0  0  0  0
  183.8110  170.8480  136.0640 C   0  0  0  0  0  2  0  0  0  0  0  0
  179.8180  176.0360  135.6160 C   0  0  0  0  0  0  0  0  0  0  0  0
  181.7400  172.0840  136.5110 C   0  0  1  0  0  3  0  0  0  0  0  0
  186.2700  173.5150  137.3610 C   0  0  0  0  0  2  0  0  0  0  0  0
  183.8470  175.4130  137.4030 C   0  0  0  0  0  2  0  0  0  0  0  0
  180.9650  176.4240  136.4590 C   0  0  0  0  0  0  0  0  0  0  0  0
  183.7980  173.8950  137.2050 C   0  0  2  0  0  3  0  0  0  0  0  0
  179.8320  173.7750  136.7220 C   0  0  2  0  0  3  0  0  0  0  0  0
  184.9190  173.1960  137.9690 C   0  0  0  0  0  2  0  0  0  0  0  0
  187.8390  172.2160  136.1670 O   0  0  0  0  0  0  0  0  0  0  0  0
  184.0380  174.4880  134.7310 C   0  0  0  0  0  1  0  0  0  0  0  0
  182.5430  178.1460  137.0730 N   0  0  0  0  0  0  0  0  0  0  0  0
  182.8960  177.5860  141.2920 C   0  0  0  0  0  2  0  0  0  0  0  0
  184.0540  177.9830  140.4890 N   0  0  0  0  0  0  0  0  0  0  0  0
  184.9600  178.3680  138.3690 O   0  0  0  0  0  0  0  0  0  0  0  0
  185.3040  178.3710  141.1490 C   0  0  0  0  0  2  0  0  0  0  0  0
  186.6400  179.0250  143.4450 S   0  0  0  0  0  1  0  0  0  0  0  0
  183.9230  179.0590  143.1230 C   0  0  0  0  0  2  0  0  0  0  0  0
  185.1700  178.3030  142.6690 C   0  0  1  0  0  3  0  0  0  0  0  0
  183.9850  177.9570  139.0540 C   0  0  0  0  0  0  0  0  0  0  0  0
  182.6440  178.6070  142.4030 C   0  0  0  0  0  2  0  0  0  0  0  0
  178.9310  170.7550  135.8740 C   0  0  0  0  0  1  0  0  0  0  0  0
  179.6980  171.8140  134.6140 S   0  0  0  0  0  0  0  0  0  0  0  0
  1 25  1  6  0  0  0
  1 21  1  0  0  0  0
  2 37  1  6  0  0  0
  2 17  1  0  0  0  0
  2 22  1  0  0  0  0
  3  9  1  0  0  0  0
  3  6  1  0  0  0  0
  4  1  1  0  0  0  0
  4 15  1  1  0  0  0
  5 22  1  0  0  0  0
  6 19  1  6  0  0  0
  6 10  1  0  0  0  0
  7 18  1  0  0  0  0
  8 15  1  0  0  0  0
  8 17  1  0  0  0  0
 10 34  1  6  0  0  0
 11 16  2  0  0  0  0
 12  4  1  0  0  0  0
 12  7  1  0  0  0  0
 13  1  1  0  0  0  0
 13  2  1  0  0  0  0
 13 17  1  0  0  0  0
 14 20  1  0  0  0  0
 14 26  2  0  0  0  0
 16  5  1  0  0  0  0
 16 20  1  0  0  0  0
 18 23  1  0  0  0  0
 20  3  2  0  0  0  0
 21 19  1  0  0  0  0
 21 23  1  0  0  0  0
 22  9  1  0  0  0  0
 24  7  2  0  0  0  0
 26 10  1  0  0  0  0
 27 35  1  0  0  0  0
 28 30  1  0  0  0  0
 28 27  1  0  0  0  0
 29 34  2  0  0  0  0
 30 33  1  0  0  0  0
 33 32  1  0  0  0  0
 33 31  1  0  0  0  0
 34 28  1  0  0  0  0
 35 32  1  0  0  0  0
 37 36  1  0  0  0  0
M  END
>  <MODEL>
6

>  <REMARK>
 VINA RESULT:      -4.3      2.275      3.473
  Name = 
  2 active torsions:
  status: ('A' for Active; 'I' for Inactive)
    1  A    between atoms: C_3  and  S_32
    2  A    between atoms: C_14  and  C_31
                            x       y       z     vdW  Elec       q    Type
                         _______ _______ _______ _____ _____    ______ ____

>  <TORSDO>
F 2

$$$$
=
 OpenBabel11052415193D

 37 43  0  0  1  0  0  0  0  0999 V2000
  183.1920  176.1100  136.3760 C   0  0  1  0  0  0  0  0  0  0  0  0
  180.3250  176.7290  137.0230 C   0  0  1  0  0  0  0  0  0  0  0  0
  182.4180  178.0630  139.2590 C   0  0  0  0  0  0  0  0  0  0  0  0
  183.1980  174.8950  135.4040 C   0  0  1  0  0  3  0  0  0  0  0  0
  179.8380  178.9620  138.2010 C   0  0  0  0  0  2  0  0  0  0  0  0
  183.7480  177.5070  139.6980 C   0  0  2  0  0  3  0  0  0  0  0  0
  185.5270  173.9770  135.7820 C   0  0  0  0  0  0  0  0  0  0  0  0
  180.8320  174.3540  136.0370 C   0  0  0  0  0  2  0  0  0  0  0  0
  181.1910  177.2170  139.4490 C   0  0  0  0  0  2  0  0  0  0  0  0
  184.5550  178.6580  140.3290 C   0  0  2  0  0  3  0  0  0  0  0  0
  181.0460  180.9190  137.5770 O   0  0  0  0  0  0  0  0  0  0  0  0
  184.4760  174.4210  134.9690 O   0  0  0  0  0  0  0  0  0  0  0  0
  181.7270  176.6080  136.4010 C   0  0  2  0  0  3  0  0  0  0  0  0
  183.5600  180.1480  138.7180 C   0  0  0  0  0  3  0  0  0  0  0  0
  182.2180  173.7660  135.7610 C   0  0  0  0  0  2  0  0  0  0  0  0
  181.0900  179.7840  138.1210 C   0  0  0  0  0  0  0  0  0  0  0  0
  181.0080  175.4140  137.1150 C   0  0  1  0  0  3  0  0  0  0  0  0
  185.7330  174.4350  137.1900 C   0  0  0  0  0  2  0  0  0  0  0  0
  184.4890  176.9330  138.4900 C   0  0  0  0  0  2  0  0  0  0  0  0
  182.3480  179.2960  138.7180 C   0  0  0  0  0  0  0  0  0  0  0  0
  183.7210  175.7920  137.8160 C   0  0  2  0  0  3  0  0  0  0  0  0
  180.1350  177.4680  138.3650 C   0  0  2  0  0  3  0  0  0  0  0  0
  184.4430  174.4580  137.9840 C   0  0  0  0  0  2  0  0  0  0  0  0
  186.4130  173.2440  135.2690 O   0  0  0  0  0  0  0  0  0  0  0  0
  184.0130  177.2090  135.7090 C   0  0  0  0  0  1  0  0  0  0  0  0
  184.5910  179.8250  139.4410 N   0  0  0  0  0  0  0  0  0  0  0  0
  186.8210  178.5390  138.4620 C   0  0  0  0  0  2  0  0  0  0  0  0
  187.0340  178.2480  139.8810 N   0  0  0  0  0  0  0  0  0  0  0  0
  186.1070  177.9540  142.0060 O   0  0  0  0  0  0  0  0  0  0  0  0
  188.3850  177.9650  140.3760 C   0  0  0  0  0  2  0  0  0  0  0  0
  191.0110  177.4170  139.8440 S   0  0  0  0  0  1  0  0  0  0  0  0
  188.9420  177.1490  138.0740 C   0  0  0  0  0  2  0  0  0  0  0  0
  189.4090  178.0130  139.2430 C   0  0  1  0  0  3  0  0  0  0  0  0
  185.9300  178.2760  140.8000 C   0  0  0  0  0  0  0  0  0  0  0  0
  187.5240  177.4920  137.5940 C   0  0  0  0  0  2  0  0  0  0  0  0
  179.8510  177.7570  134.6000 C   0  0  0  0  0  1  0  0  0  0  0  0
  178.9330  176.7910  135.8340 S   0  0  0  0  0  0  0  0  0  0  0  0
  1 25  1  6  0  0  0
  1 13  1  0  0  0  0
  1 21  1  0  0  0  0
  2 37  1  6  0  0  0
  2 17  1  0  0  0  0
  2 22  1  0  0  0  0
  3  9  1  0  0  0  0
  3  6  1  0  0  0  0
  4 15  1  1  0  0  0
  4  1  1  0  0  0  0
  5 22  1  0  0  0  0
  6 19  1  6  0  0  0
  6 10  1  0  0  0  0
  7 18  1  0  0  0  0
  8 17  1  0  0  0  0
 10 34  1  6  0  0  0
 11 16  2  0  0  0  0
 12  4  1  0  0  0  0
 12  7  1  0  0  0  0
 13  2  1  0  0  0  0
 13 17  1  0  0  0  0
 14 20  1  0  0  0  0
 14 26  2  0  0  0  0
 15  8  1  0  0  0  0
 16  5  1  0  0  0  0
 16 20  1  0  0  0  0
 18 23  1  0  0  0  0
 20  3  2  0  0  0  0
 21 23  1  0  0  0  0
 21 19  1  0  0  0  0
 22  9  1  0  0  0  0
 24  7  2  0  0  0  0
 26 10  1  0  0  0  0
 27 28  1  0  0  0  0
 28 30  1  0  0  0  0
 28 34  1  0  0  0  0
 32 33  1  0  0  0  0
 33 31  1  0  0  0  0
 33 30  1  0  0  0  0
 34 29  2  0  0  0  0
 35 32  1  0  0  0  0
 35 27  1  0  0  0  0
 36 37  1  0  0  0  0
M  END
>  <MODEL>
7

>  <REMARK>
 VINA RESULT:      -3.8      1.713      2.490
  Name = 
  2 active torsions:
  status: ('A' for Active; 'I' for Inactive)
    1  A    between atoms: C_3  and  S_32
    2  A    between atoms: C_14  and  C_31
                            x       y       z     vdW  Elec       q    Type
                         _______ _______ _______ _____ _____    ______ ____

>  <TORSDO>
F 2

$$$$
