=
 OpenBabel11052412523D

 25 29  0  0  1  0  0  0  0  0999 V2000
  186.8840  177.9590  143.0780 N   0  0  0  0  0  0  0  0  0  0  0  0
  187.9460  176.9560  143.0360 C   0  0  2  0  0  3  0  0  0  0  0  0
  187.4680  178.9220  140.9760 C   0  0  0  0  0  3  0  0  0  0  0  0
  185.6130  177.8400  143.7750 C   0  0  2  0  0  3  0  0  0  0  0  0
  189.9070  177.2940  144.5380 N   0  0  2  0  0  0  0  0  0  0  0  0
  183.3050  178.8330  145.0910 C   0  0  0  0  0  2  0  0  0  0  0  0
  188.6900  178.1700  141.0150 N   0  0  0  0  0  0  0  0  0  0  0  0
  184.7510  178.8460  143.0520 C   0  0  0  0  0  0  0  0  0  0  0  0
  183.5000  179.3980  143.6710 C   0  0  0  0  0  2  0  0  0  0  0  0
  190.2240  176.5730  141.8690 N   0  0  0  0  0  0  0  0  0  0  0  0
  191.1420  176.7880  140.7600 C   0  0  0  0  0  1  0  0  0  0  0  0
  188.5390  176.7630  144.4410 C   0  0  0  0  0  2  0  0  0  0  0  0
  184.6160  178.7250  145.8390 C   0  0  0  0  0  3  0  0  0  0  0  0
  186.6110  178.8030  141.9780 C   0  0  0  0  0  0  0  0  0  0  0  0
  185.3240  179.3920  142.0270 N   0  0  0  0  0  0  0  0  0  0  0  0
  190.5940  175.5790  142.8680 C   0  0  0  0  0  2  0  0  0  0  0  0
  185.7110  178.2530  145.2180 C   0  0  0  0  0  3  0  0  0  0  0  0
  190.8700  176.2350  144.2250 C   0  0  0  0  0  2  0  0  0  0  0  0
  188.9700  177.2820  141.9370 C   0  0  0  0  0  0  0  0  0  0  0  0
  191.1190  176.8870  146.8890 S   0  0  0  0  0  0  0  0  0  0  0  0
  191.0870  175.3860  146.8170 O   0  0  0  0  0  0  0  0  0  0  0  0
  191.8840  177.4750  148.0390 O   0  0  0  0  0  0  0  0  0  0  0  0
  190.2870  177.8880  145.8400 C   0  0  2  0  0  3  0  0  0  0  0  0
  188.1690  177.6170  147.5280 C   0  0  0  0  0  2  0  0  0  0  0  0
  189.3560  177.5280  146.9370 C   0  0  0  0  0  0  0  0  0  0  0  0
  1  4  1  0  0  0  0
  2  1  1  0  0  0  0
  2 12  1  1  0  0  0
  3  7  1  0  0  0  0
  3 14  2  0  0  0  0
  4 17  1  1  0  0  0
  5 18  1  1  0  0  0
  5 23  1  0  0  0  0
  6 13  1  0  0  0  0
  7 19  2  0  0  0  0
  8  9  1  0  0  0  0
  8  4  1  0  0  0  0
  9  6  1  0  0  0  0
 10 19  1  0  0  0  0
 10 16  1  0  0  0  0
 11 10  1  0  0  0  0
 12  5  1  0  0  0  0
 14 15  1  0  0  0  0
 14  1  1  0  0  0  0
 15  8  2  0  0  0  0
 16 18  1  0  0  0  0
 17 13  2  0  0  0  0
 19  2  1  0  0  0  0
 20 25  1  0  0  0  0
 20 22  2  0  0  0  0
 21 20  2  0  0  0  0
 23 20  1  0  0  0  0
 23 25  1  1  0  0  0
 25 24  2  0  0  0  0
M  END
>  <MODEL>
1

>  <REMARK>
 VINA RESULT:      -9.2      0.000      0.000
  Name = 
  1 active torsions:
  status: ('A' for Active; 'I' for Inactive)
    1  A    between atoms: N_6  and  C_15
                            x       y       z     vdW  Elec       q    Type
                         _______ _______ _______ _____ _____    ______ ____

>  <TORSDO>
F 1

$$$$
=
 OpenBabel11052412523D

 25 29  0  0  1  0  0  0  0  0999 V2000
  187.3780  178.1020  145.1610 N   0  0  0  0  0  0  0  0  0  0  0  0
  188.8010  178.3280  144.9140 C   0  0  2  0  0  3  0  0  0  0  0  0
  187.7460  176.8350  147.1490 C   0  0  0  0  0  3  0  0  0  0  0  0
  186.2830  178.9630  144.7450 C   0  0  2  0  0  3  0  0  0  0  0  0
  189.8610  177.0490  143.0530 N   0  0  2  0  0  0  0  0  0  0  0  0
  183.6030  179.5350  144.0150 C   0  0  0  0  0  2  0  0  0  0  0  0
  189.1380  176.7700  146.8030 N   0  0  0  0  0  0  0  0  0  0  0  0
  185.1810  178.5700  145.6970 C   0  0  0  0  0  0  0  0  0  0  0  0
  183.7400  178.8610  145.3940 C   0  0  0  0  0  2  0  0  0  0  0  0
  191.0830  177.2810  145.5430 N   0  0  0  0  0  0  0  0  0  0  0  0
  191.9290  176.5110  146.4430 C   0  0  0  0  0  1  0  0  0  0  0  0
  189.0870  178.2490  143.4050 C   0  0  0  0  0  2  0  0  0  0  0  0
  184.5540  178.9370  142.9990 C   0  0  0  0  0  3  0  0  0  0  0  0
  186.9170  177.4850  146.3460 C   0  0  0  0  0  0  0  0  0  0  0  0
  185.5470  177.7260  146.6090 N   0  0  0  0  0  0  0  0  0  0  0  0
  191.7280  177.9610  144.4260 C   0  0  0  0  0  2  0  0  0  0  0  0
  185.8250  178.6670  143.3430 C   0  0  0  0  0  3  0  0  0  0  0  0
  191.2920  177.3580  143.0860 C   0  0  0  0  0  2  0  0  0  0  0  0
  189.6670  177.4070  145.7880 C   0  0  0  0  0  0  0  0  0  0  0  0
  190.6910  176.6710  140.5380 S   0  0  0  0  0  0  0  0  0  0  0  0
  191.6960  177.7900  140.5410 O   0  0  0  0  0  0  0  0  0  0  0  0
  190.6890  175.7920  139.3200 O   0  0  0  0  0  0  0  0  0  0  0  0
  189.5560  176.4360  141.7410 C   0  0  2  0  0  3  0  0  0  0  0  0
  187.9780  178.1710  140.3590 C   0  0  0  0  0  2  0  0  0  0  0  0
  188.9770  177.3960  140.7700 C   0  0  0  0  0  0  0  0  0  0  0  0
  1 14  1  0  0  0  0
  2 12  1  6  0  0  0
  2  1  1  0  0  0  0
  2 19  1  0  0  0  0
  4 17  1  6  0  0  0
  4  1  1  0  0  0  0
  4  8  1  0  0  0  0
  5 18  1  6  0  0  0
  5 12  1  0  0  0  0
  6  9  1  0  0  0  0
  7  3  1  0  0  0  0
  8 15  2  0  0  0  0
  9  8  1  0  0  0  0
 10 19  1  0  0  0  0
 10 11  1  0  0  0  0
 13 17  2  0  0  0  0
 13  6  1  0  0  0  0
 14 15  1  0  0  0  0
 14  3  2  0  0  0  0
 16 10  1  0  0  0  0
 18 16  1  0  0  0  0
 19  7  2  0  0  0  0
 20 21  2  0  0  0  0
 20 25  1  0  0  0  0
 20 23  1  0  0  0  0
 22 20  2  0  0  0  0
 23 25  1  6  0  0  0
 23  5  1  0  0  0  0
 24 25  2  0  0  0  0
M  END
>  <MODEL>
2

>  <REMARK>
 VINA RESULT:      -8.1      2.829      4.549
  Name = 
  1 active torsions:
  status: ('A' for Active; 'I' for Inactive)
    1  A    between atoms: N_6  and  C_15
                            x       y       z     vdW  Elec       q    Type
                         _______ _______ _______ _____ _____    ______ ____

>  <TORSDO>
F 1

$$$$
=
 OpenBabel11052412523D

 25 29  0  0  1  0  0  0  0  0999 V2000
  190.0460  177.1730  144.0330 N   0  0  0  0  0  0  0  0  0  0  0  0
  189.3890  178.0180  143.0380 C   0  0  2  0  0  3  0  0  0  0  0  0
  190.9820  175.6910  142.4160 C   0  0  0  0  0  3  0  0  0  0  0  0
  190.4990  177.5880  145.3510 C   0  0  2  0  0  3  0  0  0  0  0  0
  186.9120  177.8280  142.8210 N   0  0  2  0  0  0  0  0  0  0  0  0
  191.1870  177.1840  148.0730 C   0  0  0  0  0  2  0  0  0  0  0  0
  190.1320  176.2950  141.4280 N   0  0  0  0  0  0  0  0  0  0  0  0
  191.5340  176.5410  145.6830 C   0  0  0  0  0  0  0  0  0  0  0  0
  191.9710  176.2860  147.0960 C   0  0  0  0  0  2  0  0  0  0  0  0
  188.5700  177.8710  140.5870 N   0  0  0  0  0  0  0  0  0  0  0  0
  188.6470  177.3070  139.2470 C   0  0  0  0  0  1  0  0  0  0  0  0
  188.0140  178.4670  143.5580 C   0  0  0  0  0  2  0  0  0  0  0  0
  189.7340  177.3200  147.6710 C   0  0  0  0  0  3  0  0  0  0  0  0
  190.9260  176.1320  143.6640 C   0  0  0  0  0  0  0  0  0  0  0  0
  191.7750  175.7130  144.7170 N   0  0  0  0  0  0  0  0  0  0  0  0
  187.7010  179.0240  140.7850 C   0  0  0  0  0  2  0  0  0  0  0  0
  189.4060  177.5130  146.3810 C   0  0  0  0  0  3  0  0  0  0  0  0
  186.5180  178.6750  141.6930 C   0  0  0  0  0  2  0  0  0  0  0  0
  189.3730  177.3370  141.6600 C   0  0  0  0  0  0  0  0  0  0  0  0
  184.6130  178.7710  143.8140 S   0  0  0  0  0  0  0  0  0  0  0  0
  184.9800  180.2240  143.6900 O   0  0  0  0  0  0  0  0  0  0  0  0
  183.2000  178.4820  144.2340 O   0  0  0  0  0  0  0  0  0  0  0  0
  185.6970  177.5160  143.6060 C   0  0  2  0  0  3  0  0  0  0  0  0
  186.3040  177.8280  146.2410 C   0  0  0  0  0  2  0  0  0  0  0  0
  185.7900  177.9500  145.0220 C   0  0  0  0  0  0  0  0  0  0  0  0
  1  4  1  0  0  0  0
  2 12  1  1  0  0  0
  2  1  1  0  0  0  0
  3 14  2  0  0  0  0
  4  8  1  0  0  0  0
  4 17  1  1  0  0  0
  5 18  1  6  0  0  0
  5 12  1  0  0  0  0
  5 23  1  0  0  0  0
  7 19  2  0  0  0  0
  7  3  1  0  0  0  0
  8  9  1  0  0  0  0
  9  6  1  0  0  0  0
 10 16  1  0  0  0  0
 10 19  1  0  0  0  0
 11 10  1  0  0  0  0
 13  6  1  0  0  0  0
 14  1  1  0  0  0  0
 14 15  1  0  0  0  0
 15  8  2  0  0  0  0
 16 18  1  0  0  0  0
 17 13  2  0  0  0  0
 19  2  1  0  0  0  0
 20 22  2  0  0  0  0
 20 25  1  0  0  0  0
 21 20  2  0  0  0  0
 23 20  1  0  0  0  0
 23 25  1  1  0  0  0
 25 24  2  0  0  0  0
M  END
>  <MODEL>
3

>  <REMARK>
 VINA RESULT:      -7.7      3.115      5.610
  Name = 
  1 active torsions:
  status: ('A' for Active; 'I' for Inactive)
    1  A    between atoms: N_6  and  C_15
                            x       y       z     vdW  Elec       q    Type
                         _______ _______ _______ _____ _____    ______ ____

>  <TORSDO>
F 1

$$$$
=
 OpenBabel11052412523D

 25 29  0  0  1  0  0  0  0  0999 V2000
  187.9170  177.6590  141.5190 N   0  0  0  0  0  0  0  0  0  0  0  0
  188.5190  178.0970  140.2620 C   0  0  2  0  0  3  0  0  0  0  0  0
  189.7510  176.2540  142.1120 C   0  0  0  0  0  3  0  0  0  0  0  0
  186.9620  178.4040  142.3240 C   0  0  2  0  0  3  0  0  0  0  0  0
  187.5730  177.1710  138.1490 N   0  0  2  0  0  0  0  0  0  0  0  0
  184.8490  178.6850  144.1950 C   0  0  0  0  0  2  0  0  0  0  0  0
  190.2530  176.4120  140.7760 N   0  0  0  0  0  0  0  0  0  0  0  0
  187.1190  177.7710  143.6840 C   0  0  0  0  0  0  0  0  0  0  0  0
  186.0570  177.8970  144.7380 C   0  0  0  0  0  2  0  0  0  0  0  0
  190.3200  177.3060  138.5790 N   0  0  0  0  0  0  0  0  0  0  0  0
  191.5330  176.5670  138.2610 C   0  0  0  0  0  1  0  0  0  0  0  0
  187.4370  178.2140  139.1770 C   0  0  0  0  0  2  0  0  0  0  0  0
  184.5440  178.3280  142.7560 C   0  0  0  0  0  3  0  0  0  0  0  0
  188.6260  176.8660  142.4490 C   0  0  0  0  0  0  0  0  0  0  0  0
  188.0700  176.8940  143.7520 N   0  0  0  0  0  0  0  0  0  0  0  0
  189.7700  178.1780  137.5480 C   0  0  0  0  0  2  0  0  0  0  0  0
  185.5440  178.1960  141.8670 C   0  0  0  0  0  3  0  0  0  0  0  0
  188.4130  177.6630  137.0550 C   0  0  0  0  0  2  0  0  0  0  0  0
  189.7220  177.2150  139.8890 C   0  0  0  0  0  0  0  0  0  0  0  0
  186.3650  175.1120  136.9410 S   0  0  0  0  0  0  0  0  0  0  0  0
  187.6320  174.4220  136.5160 O   0  0  0  0  0  0  0  0  0  0  0  0
  185.0900  174.3580  136.6920 O   0  0  0  0  0  0  0  0  0  0  0  0
  186.3120  176.6610  137.5640 C   0  0  2  0  0  3  0  0  0  0  0  0
  186.1880  177.5140  134.9820 C   0  0  0  0  0  2  0  0  0  0  0  0
  186.2670  176.7780  136.0860 C   0  0  0  0  0  0  0  0  0  0  0  0
  1  4  1  0  0  0  0
  1 14  1  0  0  0  0
  2 12  1  6  0  0  0
  2  1  1  0  0  0  0
  3 14  2  0  0  0  0
  4 17  1  6  0  0  0
  4  8  1  0  0  0  0
  5 18  1  6  0  0  0
  5 12  1  0  0  0  0
  6  9  1  0  0  0  0
  7  3  1  0  0  0  0
  8 15  2  0  0  0  0
  8  9  1  0  0  0  0
 10 19  1  0  0  0  0
 11 10  1  0  0  0  0
 13  6  1  0  0  0  0
 14 15  1  0  0  0  0
 16 10  1  0  0  0  0
 17 13  2  0  0  0  0
 18 16  1  0  0  0  0
 19  2  1  0  0  0  0
 19  7  2  0  0  0  0
 20 23  1  0  0  0  0
 21 20  2  0  0  0  0
 22 20  2  0  0  0  0
 23 25  1  6  0  0  0
 23  5  1  0  0  0  0
 24 25  2  0  0  0  0
 25 20  1  0  0  0  0
M  END
>  <MODEL>
4

>  <REMARK>
 VINA RESULT:      -7.5      4.697      6.636
  Name = 
  1 active torsions:
  status: ('A' for Active; 'I' for Inactive)
    1  A    between atoms: N_6  and  C_15
                            x       y       z     vdW  Elec       q    Type
                         _______ _______ _______ _____ _____    ______ ____

>  <TORSDO>
F 1

$$$$
=
 OpenBabel11052412523D

 25 29  0  0  1  0  0  0  0  0999 V2000
  188.0410  177.5610  141.9090 N   0  0  0  0  0  0  0  0  0  0  0  0
  188.7210  178.0140  140.6970 C   0  0  2  0  0  3  0  0  0  0  0  0
  189.7710  176.0380  142.5210 C   0  0  0  0  0  3  0  0  0  0  0  0
  187.0930  178.3270  142.7030 C   0  0  2  0  0  3  0  0  0  0  0  0
  187.8200  177.2210  138.5100 N   0  0  2  0  0  0  0  0  0  0  0  0
  184.9180  178.6510  144.4940 C   0  0  0  0  0  2  0  0  0  0  0  0
  190.3380  176.2180  141.2140 N   0  0  0  0  0  0  0  0  0  0  0  0
  187.1570  177.6340  144.0420 C   0  0  0  0  0  0  0  0  0  0  0  0
  186.0580  177.7780  145.0550 C   0  0  0  0  0  2  0  0  0  0  0  0
  190.5480  177.1900  139.0590 N   0  0  0  0  0  0  0  0  0  0  0  0
  191.7330  176.3990  138.7630 C   0  0  0  0  0  1  0  0  0  0  0  0
  187.6940  178.2300  139.5730 C   0  0  0  0  0  2  0  0  0  0  0  0
  184.6580  178.3660  143.0300 C   0  0  0  0  0  3  0  0  0  0  0  0
  188.6660  176.6970  142.8350 C   0  0  0  0  0  0  0  0  0  0  0  0
  188.0570  176.7060  144.1140 N   0  0  0  0  0  0  0  0  0  0  0  0
  190.0910  178.1290  138.0420 C   0  0  0  0  0  2  0  0  0  0  0  0
  185.6880  178.2140  142.1790 C   0  0  0  0  0  3  0  0  0  0  0  0
  188.7310  177.7080  137.4730 C   0  0  0  0  0  2  0  0  0  0  0  0
  189.8900  177.0820  140.3380 C   0  0  0  0  0  0  0  0  0  0  0  0
  186.3230  177.3630  136.2970 S   0  0  0  0  0  0  0  0  0  0  0  0
  187.0110  178.5730  135.7270 O   0  0  0  0  0  0  0  0  0  0  0  0
  185.3080  176.7040  135.4080 O   0  0  0  0  0  0  0  0  0  0  0  0
  186.5610  176.8040  137.8540 C   0  0  2  0  0  3  0  0  0  0  0  0
  184.6130  178.5530  138.5990 C   0  0  0  0  0  2  0  0  0  0  0  0
  185.5010  177.8400  137.9140 C   0  0  0  0  0  0  0  0  0  0  0  0
  1  4  1  0  0  0  0
  1 14  1  0  0  0  0
  2 12  1  6  0  0  0
  2  1  1  0  0  0  0
  3 14  2  0  0  0  0
  4 17  1  6  0  0  0
  4  8  1  0  0  0  0
  5 18  1  6  0  0  0
  5 12  1  0  0  0  0
  6  9  1  0  0  0  0
  7  3  1  0  0  0  0
  8 15  2  0  0  0  0
  8  9  1  0  0  0  0
 10 19  1  0  0  0  0
 11 10  1  0  0  0  0
 13  6  1  0  0  0  0
 14 15  1  0  0  0  0
 16 10  1  0  0  0  0
 17 13  2  0  0  0  0
 18 16  1  0  0  0  0
 19  2  1  0  0  0  0
 19  7  2  0  0  0  0
 20 23  1  0  0  0  0
 20 25  1  0  0  0  0
 21 20  2  0  0  0  0
 22 20  2  0  0  0  0
 23 25  1  1  0  0  0
 23  5  1  0  0  0  0
 25 24  2  0  0  0  0
M  END
>  <MODEL>
5

>  <REMARK>
 VINA RESULT:      -7.5      4.735      6.410
  Name = 
  1 active torsions:
  status: ('A' for Active; 'I' for Inactive)
    1  A    between atoms: N_6  and  C_15
                            x       y       z     vdW  Elec       q    Type
                         _______ _______ _______ _____ _____    ______ ____

>  <TORSDO>
F 1

$$$$
=
 OpenBabel11052412523D

 25 29  0  0  1  0  0  0  0  0999 V2000
  188.1950  177.5130  145.4820 N   0  0  0  0  0  0  0  0  0  0  0  0
  187.1330  177.3210  144.4970 C   0  0  2  0  0  3  0  0  0  0  0  0
  186.8790  178.9230  146.8850 C   0  0  0  0  0  3  0  0  0  0  0  0
  189.2790  176.5870  145.7740 C   0  0  2  0  0  3  0  0  0  0  0  0
  187.3610  178.5080  142.3150 N   0  0  2  0  0  0  0  0  0  0  0  0
  191.8730  175.8730  146.6720 C   0  0  0  0  0  2  0  0  0  0  0  0
  185.9160  179.0140  145.8240 N   0  0  0  0  0  0  0  0  0  0  0  0
  189.6980  177.0050  147.1610 C   0  0  0  0  0  0  0  0  0  0  0  0
  191.0440  176.6430  147.7190 C   0  0  0  0  0  2  0  0  0  0  0  0
  184.9580  178.4880  143.7180 N   0  0  0  0  0  0  0  0  0  0  0  0
  183.8100  179.3460  143.9700 C   0  0  0  0  0  1  0  0  0  0  0  0
  187.7310  177.3070  143.0800 C   0  0  0  0  0  2  0  0  0  0  0  0
  191.6810  176.4340  145.2780 C   0  0  0  0  0  3  0  0  0  0  0  0
  187.9680  178.1920  146.7000 C   0  0  0  0  0  0  0  0  0  0  0  0
  188.9470  177.9200  147.6870 N   0  0  0  0  0  0  0  0  0  0  0  0
  184.9910  177.7570  142.4570 C   0  0  0  0  0  2  0  0  0  0  0  0
  190.4510  176.7720  144.8510 C   0  0  0  0  0  3  0  0  0  0  0  0
  186.1320  178.2520  141.5610 C   0  0  0  0  0  2  0  0  0  0  0  0
  185.9920  178.3290  144.7110 C   0  0  0  0  0  0  0  0  0  0  0  0
  188.3010  178.4220  139.8110 S   0  0  0  0  0  0  0  0  0  0  0  0
  187.6300  177.1280  139.4420 O   0  0  0  0  0  0  0  0  0  0  0  0
  189.0030  179.1410  138.6950 O   0  0  0  0  0  0  0  0  0  0  0  0
  188.3790  179.0190  141.3700 C   0  0  2  0  0  3  0  0  0  0  0  0
  190.6210  177.5020  141.6590 C   0  0  0  0  0  2  0  0  0  0  0  0
  189.5270  178.0960  141.1930 C   0  0  0  0  0  0  0  0  0  0  0  0
  1  4  1  0  0  0  0
  1 14  1  0  0  0  0
  2 12  1  6  0  0  0
  2 19  1  0  0  0  0
  2  1  1  0  0  0  0
  4 17  1  6  0  0  0
  4  8  1  0  0  0  0
  5 18  1  6  0  0  0
  5 12  1  0  0  0  0
  6  9  1  0  0  0  0
  7  3  1  0  0  0  0
  8 15  2  0  0  0  0
  8  9  1  0  0  0  0
 10 11  1  0  0  0  0
 10 19  1  0  0  0  0
 13  6  1  0  0  0  0
 14  3  2  0  0  0  0
 14 15  1  0  0  0  0
 16 10  1  0  0  0  0
 17 13  2  0  0  0  0
 18 16  1  0  0  0  0
 19  7  2  0  0  0  0
 20 25  1  0  0  0  0
 20 23  1  0  0  0  0
 21 20  2  0  0  0  0
 22 20  2  0  0  0  0
 23 25  1  1  0  0  0
 23  5  1  0  0  0  0
 25 24  2  0  0  0  0
M  END
>  <MODEL>
6

>  <REMARK>
 VINA RESULT:      -7.4      3.315      6.307
  Name = 
  1 active torsions:
  status: ('A' for Active; 'I' for Inactive)
    1  A    between atoms: N_6  and  C_15
                            x       y       z     vdW  Elec       q    Type
                         _______ _______ _______ _____ _____    ______ ____

>  <TORSDO>
F 1

$$$$
=
 OpenBabel11052412523D

 25 29  0  0  1  0  0  0  0  0999 V2000
  186.8640  178.1300  141.7410 N   0  0  0  0  0  0  0  0  0  0  0  0
  187.6930  178.5240  140.6040 C   0  0  2  0  0  3  0  0  0  0  0  0
  188.5850  176.8420  142.7740 C   0  0  0  0  0  3  0  0  0  0  0  0
  185.7440  178.8770  142.2910 C   0  0  2  0  0  3  0  0  0  0  0  0
  187.2210  177.4420  138.4070 N   0  0  2  0  0  0  0  0  0  0  0  0
  183.2900  179.1690  143.6830 C   0  0  0  0  0  2  0  0  0  0  0  0
  189.3390  176.9470  141.5570 N   0  0  0  0  0  0  0  0  0  0  0  0
  185.6440  178.3280  143.6920 C   0  0  0  0  0  0  0  0  0  0  0  0
  184.3880  178.4660  144.5030 C   0  0  0  0  0  2  0  0  0  0  0  0
  189.8190  177.7200  139.3650 N   0  0  0  0  0  0  0  0  0  0  0  0
  191.0940  177.0180  139.3430 C   0  0  0  0  0  1  0  0  0  0  0  0
  186.8480  178.5340  139.3190 C   0  0  0  0  0  2  0  0  0  0  0  0
  183.2920  178.7200  142.2370 C   0  0  0  0  0  3  0  0  0  0  0  0
  187.3960  177.4220  142.8410 C   0  0  0  0  0  0  0  0  0  0  0  0
  186.5890  177.4980  144.0030 N   0  0  0  0  0  0  0  0  0  0  0  0
  189.4610  178.5080  138.1930 C   0  0  0  0  0  2  0  0  0  0  0  0
  184.4540  178.5830  141.5750 C   0  0  0  0  0  3  0  0  0  0  0  0
  188.2480  177.9090  137.4730 C   0  0  0  0  0  2  0  0  0  0  0  0
  188.9730  177.6760  140.5330 C   0  0  0  0  0  0  0  0  0  0  0  0
  186.3740  175.2930  137.0560 S   0  0  0  0  0  0  0  0  0  0  0  0
  187.7350  174.6750  136.8880 O   0  0  0  0  0  0  0  0  0  0  0  0
  185.2120  174.4590  136.5990 O   0  0  0  0  0  0  0  0  0  0  0  0
  186.1200  176.8470  137.6160 C   0  0  2  0  0  3  0  0  0  0  0  0
  186.4240  177.6470  135.0320 C   0  0  0  0  0  2  0  0  0  0  0  0
  186.3410  176.9360  136.1520 C   0  0  0  0  0  0  0  0  0  0  0  0
  1  4  1  0  0  0  0
  1 14  1  0  0  0  0
  2 12  1  6  0  0  0
  2  1  1  0  0  0  0
  3 14  2  0  0  0  0
  4 17  1  6  0  0  0
  4  8  1  0  0  0  0
  5 18  1  6  0  0  0
  5 12  1  0  0  0  0
  6  9  1  0  0  0  0
  7  3  1  0  0  0  0
  8 15  2  0  0  0  0
  8  9  1  0  0  0  0
 10 19  1  0  0  0  0
 11 10  1  0  0  0  0
 13  6  1  0  0  0  0
 14 15  1  0  0  0  0
 16 10  1  0  0  0  0
 17 13  2  0  0  0  0
 18 16  1  0  0  0  0
 19  2  1  0  0  0  0
 19  7  2  0  0  0  0
 20 23  1  0  0  0  0
 21 20  2  0  0  0  0
 22 20  2  0  0  0  0
 23 25  1  6  0  0  0
 23  5  1  0  0  0  0
 24 25  2  0  0  0  0
 25 20  1  0  0  0  0
M  END
>  <MODEL>
7

>  <REMARK>
 VINA RESULT:      -7.3      4.543      6.438
  Name = 
  1 active torsions:
  status: ('A' for Active; 'I' for Inactive)
    1  A    between atoms: N_6  and  C_15
                            x       y       z     vdW  Elec       q    Type
                         _______ _______ _______ _____ _____    ______ ____

>  <TORSDO>
F 1

$$$$
=
 OpenBabel11052412523D

 25 29  0  0  1  0  0  0  0  0999 V2000
  189.3620  177.4090  143.1570 N   0  0  0  0  0  0  0  0  0  0  0  0
  188.4410  177.0590  144.2370 C   0  0  2  0  0  3  0  0  0  0  0  0
  191.1190  178.0640  144.6330 C   0  0  0  0  0  3  0  0  0  0  0  0
  189.3760  176.8430  141.8180 C   0  0  2  0  0  3  0  0  0  0  0  0
  186.5360  178.6090  144.6710 N   0  0  2  0  0  0  0  0  0  0  0  0
  189.9120  176.8540  139.0330 C   0  0  0  0  0  2  0  0  0  0  0  0
  190.1730  178.0210  145.7130 N   0  0  0  0  0  0  0  0  0  0  0  0
  190.7850  177.1300  141.3590 C   0  0  0  0  0  0  0  0  0  0  0  0
  191.1540  177.1280  139.9040 C   0  0  0  0  0  2  0  0  0  0  0  0
  188.0820  177.5830  146.7460 N   0  0  0  0  0  0  0  0  0  0  0  0
  188.5900  177.9730  148.0530 C   0  0  0  0  0  1  0  0  0  0  0  0
  187.0110  177.4780  143.8590 C   0  0  0  0  0  2  0  0  0  0  0  0
  188.6810  177.5520  139.5700 C   0  0  0  0  0  3  0  0  0  0  0  0
  190.7060  177.7620  143.4110 C   0  0  0  0  0  0  0  0  0  0  0  0
  191.5410  177.6540  142.2710 N   0  0  0  0  0  0  0  0  0  0  0  0
  186.7000  177.1270  146.6660 C   0  0  0  0  0  2  0  0  0  0  0  0
  188.4250  177.5470  140.8900 C   0  0  0  0  0  3  0  0  0  0  0  0
  185.8410  178.1060  145.8580 C   0  0  0  0  0  2  0  0  0  0  0  0
  188.9410  177.5970  145.5870 C   0  0  0  0  0  0  0  0  0  0  0  0
  184.0060  179.3800  144.2700 S   0  0  0  0  0  0  0  0  0  0  0  0
  183.3810  178.0930  144.7350 O   0  0  0  0  0  0  0  0  0  0  0  0
  183.0550  180.5020  143.9680 O   0  0  0  0  0  0  0  0  0  0  0  0
  185.6420  179.5720  143.9910 C   0  0  2  0  0  3  0  0  0  0  0  0
  185.1540  178.6280  141.4850 C   0  0  0  0  0  2  0  0  0  0  0  0
  185.0430  179.0320  142.7460 C   0  0  0  0  0  0  0  0  0  0  0  0
  1 14  1  0  0  0  0
  1  2  1  0  0  0  0
  2 12  1  6  0  0  0
  2 19  1  0  0  0  0
  3  7  1  0  0  0  0
  4 17  1  6  0  0  0
  4  1  1  0  0  0  0
  5 12  1  6  0  0  0
  5 18  1  0  0  0  0
  6 13  1  0  0  0  0
  6  9  1  0  0  0  0
  8  4  1  0  0  0  0
  8 15  2  0  0  0  0
  9  8  1  0  0  0  0
 10 11  1  0  0  0  0
 13 17  2  0  0  0  0
 14  3  2  0  0  0  0
 15 14  1  0  0  0  0
 16 10  1  0  0  0  0
 18 16  1  0  0  0  0
 19  7  2  0  0  0  0
 19 10  1  0  0  0  0
 20 21  2  0  0  0  0
 22 20  2  0  0  0  0
 23 25  1  6  0  0  0
 23 20  1  0  0  0  0
 23  5  1  0  0  0  0
 24 25  2  0  0  0  0
 25 20  1  0  0  0  0
M  END
>  <MODEL>
8

>  <REMARK>
 VINA RESULT:      -7.0      3.367      6.209
  Name = 
  1 active torsions:
  status: ('A' for Active; 'I' for Inactive)
    1  A    between atoms: N_6  and  C_15
                            x       y       z     vdW  Elec       q    Type
                         _______ _______ _______ _____ _____    ______ ____

>  <TORSDO>
F 1

$$$$
=
 OpenBabel11052412523D

 25 29  0  0  1  0  0  0  0  0999 V2000
  186.9880  178.0260  142.7090 N   0  0  0  0  0  0  0  0  0  0  0  0
  187.5070  178.5680  141.4550 C   0  0  2  0  0  3  0  0  0  0  0  0
  188.6770  176.3510  142.8890 C   0  0  0  0  0  3  0  0  0  0  0  0
  186.2270  178.7530  143.7130 C   0  0  2  0  0  3  0  0  0  0  0  0
  186.2330  178.0660  139.3700 N   0  0  2  0  0  0  0  0  0  0  0  0
  184.3760  179.0030  145.8470 C   0  0  0  0  0  2  0  0  0  0  0  0
  189.0520  176.6400  141.5330 N   0  0  0  0  0  0  0  0  0  0  0  0
  186.4420  177.9180  144.9510 C   0  0  0  0  0  0  0  0  0  0  0  0
  185.5220  178.0130  146.1330 C   0  0  0  0  0  2  0  0  0  0  0  0
  189.0040  177.8250  139.4780 N   0  0  0  0  0  0  0  0  0  0  0  0
  190.0710  177.0050  138.9230 C   0  0  0  0  0  1  0  0  0  0  0  0
  186.3410  178.9610  140.5330 C   0  0  0  0  0  2  0  0  0  0  0  0
  183.8780  178.8920  144.4210 C   0  0  0  0  0  3  0  0  0  0  0  0
  187.6820  177.0330  143.4360 C   0  0  0  0  0  0  0  0  0  0  0  0
  187.2730  176.9380  144.7890 N   0  0  0  0  0  0  0  0  0  0  0  0
  188.4670  178.8910  138.6420 C   0  0  0  0  0  2  0  0  0  0  0  0
  184.7540  178.7750  143.4080 C   0  0  0  0  0  3  0  0  0  0  0  0
  187.0100  178.6110  138.2550 C   0  0  0  0  0  2  0  0  0  0  0  0
  188.5390  177.6170  140.8280 C   0  0  0  0  0  0  0  0  0  0  0  0
  183.9270  179.1320  138.5290 S   0  0  0  0  0  0  0  0  0  0  0  0
  184.1800  180.5030  139.0930 O   0  0  0  0  0  0  0  0  0  0  0  0
  182.7010  178.9880  137.6740 O   0  0  0  0  0  0  0  0  0  0  0  0
  184.8630  177.7930  138.8820 C   0  0  2  0  0  3  0  0  0  0  0  0
  183.2570  177.4530  141.0540 C   0  0  0  0  0  2  0  0  0  0  0  0
  183.8330  177.9040  139.9440 C   0  0  0  0  0  0  0  0  0  0  0  0
  1 14  1  0  0  0  0
  1  4  1  0  0  0  0
  2 12  1  6  0  0  0
  2  1  1  0  0  0  0
  3 14  2  0  0  0  0
  4 17  1  6  0  0  0
  4  8  1  0  0  0  0
  5 18  1  6  0  0  0
  5 12  1  0  0  0  0
  6  9  1  0  0  0  0
  7  3  1  0  0  0  0
  8  9  1  0  0  0  0
 10 19  1  0  0  0  0
 11 10  1  0  0  0  0
 13  6  1  0  0  0  0
 14 15  1  0  0  0  0
 15  8  2  0  0  0  0
 16 10  1  0  0  0  0
 17 13  2  0  0  0  0
 18 16  1  0  0  0  0
 19  2  1  0  0  0  0
 19  7  2  0  0  0  0
 20 23  1  0  0  0  0
 20 21  2  0  0  0  0
 20 25  1  0  0  0  0
 22 20  2  0  0  0  0
 23  5  1  0  0  0  0
 23 25  1  1  0  0  0
 25 24  2  0  0  0  0
M  END
>  <MODEL>
9

>  <REMARK>
 VINA RESULT:      -6.7      4.487      6.070
  Name = 
  1 active torsions:
  status: ('A' for Active; 'I' for Inactive)
    1  A    between atoms: N_6  and  C_15
                            x       y       z     vdW  Elec       q    Type
                         _______ _______ _______ _____ _____    ______ ____

>  <TORSDO>
F 1

$$$$
