=
 OpenBabel11052412413D

 25 27  0  0  1  0  0  0  0  0999 V2000
  190.6100  176.9560  144.8360 C   0  0  0  0  0  0  0  0  0  0  0  0
  189.4100  177.3620  145.4620 C   0  0  0  0  0  0  0  0  0  0  0  0
  191.5310  176.4160  146.9560 C   0  0  0  0  0  3  0  0  0  0  0  0
  185.8330  178.5810  144.7240 N   0  0  0  0  0  2  0  0  0  0  0  0
  190.3860  176.7990  147.5740 N   0  0  0  0  0  0  0  0  0  0  0  0
  188.0900  177.6690  147.5310 C   0  0  0  0  0  0  0  0  0  0  0  0
  187.9850  177.6030  148.8160 N   0  0  0  0  0  2  0  0  0  0  0  0
  184.5340  178.8200  145.2780 C   0  0  0  0  0  0  0  0  0  0  0  0
  188.2790  177.9840  144.6750 C   0  0  0  0  0  2  0  0  0  0  0  0
  191.6340  176.4960  145.6050 N   0  0  0  0  0  0  0  0  0  0  0  0
  186.9610  178.0640  146.7490 N   0  0  0  0  0  0  0  0  0  0  0  0
  187.0010  178.1850  145.4530 C   0  0  0  0  0  0  0  0  0  0  0  0
  189.3310  177.2690  146.8590 C   0  0  0  0  0  0  0  0  0  0  0  0
  184.3140  178.6620  146.5100 O   0  0  0  0  0  0  0  0  0  0  0  0
  190.7900  176.9990  143.3640 C   0  0  0  0  0  0  0  0  0  0  0  0
  191.1280  177.1750  140.5780 C   0  0  0  0  0  3  0  0  0  0  0  0
  189.8930  176.3420  142.4920 C   0  0  0  0  0  0  0  0  0  0  0  0
  190.0720  176.4310  141.1080 C   0  0  0  0  0  3  0  0  0  0  0  0
  192.0130  177.8340  141.4320 C   0  0  0  0  0  3  0  0  0  0  0  0
  188.8180  175.5560  142.9980 N   0  0  0  0  0  1  0  0  0  0  0  0
  191.8430  177.7490  142.8150 C   0  0  0  0  0  3  0  0  0  0  0  0
  183.4200  179.2250  144.3690 C   0  0  2  0  0  3  0  0  0  0  0  0
  182.2280  178.6280  144.7440 F   0  0  0  0  0  0  0  0  0  0  0  0
  182.4930  178.6550  142.0920 C   0  0  0  0  0  1  0  0  0  0  0  0
  183.7460  178.9320  142.9080 C   0  0  0  0  0  2  0  0  0  0  0  0
  1  2  2  0  0  0  0
  1 10  1  0  0  0  0
  2 13  1  0  0  0  0
  3  5  1  0  0  0  0
  4  8  1  0  0  0  0
  4 12  1  0  0  0  0
  6  7  2  0  0  0  0
  8 14  2  0  0  0  0
  9 12  1  0  0  0  0
  9  2  1  0  0  0  0
 10  3  2  0  0  0  0
 11  6  1  0  0  0  0
 12 11  2  0  0  0  0
 13  6  1  0  0  0  0
 13  5  2  0  0  0  0
 15  1  1  0  0  0  0
 16 18  2  0  0  0  0
 16 19  1  0  0  0  0
 17 20  1  0  0  0  0
 17 15  2  0  0  0  0
 18 17  1  0  0  0  0
 19 21  2  0  0  0  0
 21 15  1  0  0  0  0
 22 23  1  1  0  0  0
 22  8  1  0  0  0  0
 24 25  1  0  0  0  0
 25 22  1  0  0  0  0
M  END
>  <MODEL>
1

>  <REMARK>
 VINA RESULT:      -9.4      0.000      0.000
  Name = 
  3 active torsions:
  status: ('A' for Active; 'I' for Inactive)
    1  A    between atoms: C_1  and  C_5
    2  A    between atoms: C_2  and  C_15
    3  A    between atoms: C_2  and  C_21
                            x       y       z     vdW  Elec       q    Type
                         _______ _______ _______ _____ _____    ______ ____

>  <TORSDO>
F 3

$$$$
=
 OpenBabel11052412413D

 25 27  0  0  1  0  0  0  0  0999 V2000
  187.0620  177.7460  145.1010 C   0  0  0  0  0  0  0  0  0  0  0  0
  188.1050  177.4250  144.2030 C   0  0  0  0  0  0  0  0  0  0  0  0
  188.5120  177.3270  146.9340 C   0  0  0  0  0  3  0  0  0  0  0  0
  189.0040  177.3370  140.4610 N   0  0  0  0  0  2  0  0  0  0  0  0
  189.5260  177.0190  146.0880 N   0  0  0  0  0  0  0  0  0  0  0  0
  190.4510  176.7370  143.8300 C   0  0  0  0  0  0  0  0  0  0  0  0
  191.6070  176.3890  144.2900 N   0  0  0  0  0  2  0  0  0  0  0  0
  190.0670  177.2150  139.5090 C   0  0  0  0  0  0  0  0  0  0  0  0
  187.8740  177.3670  142.7110 C   0  0  0  0  0  2  0  0  0  0  0  0
  187.3000  177.6850  146.4400 N   0  0  0  0  0  0  0  0  0  0  0  0
  190.2670  176.8840  142.4200 N   0  0  0  0  0  0  0  0  0  0  0  0
  189.1240  177.2000  141.8820 C   0  0  0  0  0  0  0  0  0  0  0  0
  189.3470  177.0590  144.7420 C   0  0  0  0  0  0  0  0  0  0  0  0
  191.2520  176.9940  139.8830 O   0  0  0  0  0  0  0  0  0  0  0  0
  185.7160  178.1620  144.6360 C   0  0  0  0  0  0  0  0  0  0  0  0
  183.2050  179.0120  143.6980 C   0  0  0  0  0  3  0  0  0  0  0  0
  184.7450  178.6550  145.5380 C   0  0  0  0  0  0  0  0  0  0  0  0
  183.4980  179.0710  145.0620 C   0  0  0  0  0  3  0  0  0  0  0  0
  184.1610  178.5340  142.8010 C   0  0  0  0  0  3  0  0  0  0  0  0
  185.0010  178.7090  146.9380 N   0  0  0  0  0  1  0  0  0  0  0  0
  185.4080  178.1150  143.2670 C   0  0  0  0  0  3  0  0  0  0  0  0
  189.7670  177.3930  138.0570 C   0  0  2  0  0  3  0  0  0  0  0  0
  190.9000  177.2000  137.2850 F   0  0  0  0  0  0  0  0  0  0  0  0
  187.9600  178.6370  136.8090 C   0  0  0  0  0  1  0  0  0  0  0  0
  189.1310  178.7500  137.7720 C   0  0  0  0  0  2  0  0  0  0  0  0
  1 10  1  0  0  0  0
  2 13  1  0  0  0  0
  2  1  2  0  0  0  0
  4 12  1  0  0  0  0
  5  3  1  0  0  0  0
  6  7  2  0  0  0  0
  6 13  1  0  0  0  0
  8 14  2  0  0  0  0
  8  4  1  0  0  0  0
  9  2  1  0  0  0  0
 10  3  2  0  0  0  0
 11  6  1  0  0  0  0
 12 11  2  0  0  0  0
 12  9  1  0  0  0  0
 13  5  2  0  0  0  0
 15  1  1  0  0  0  0
 15 17  1  0  0  0  0
 16 18  1  0  0  0  0
 17 20  1  0  0  0  0
 18 17  2  0  0  0  0
 19 21  1  0  0  0  0
 19 16  2  0  0  0  0
 21 15  2  0  0  0  0
 22 23  1  6  0  0  0
 22  8  1  0  0  0  0
 24 25  1  0  0  0  0
 25 22  1  0  0  0  0
M  END
>  <MODEL>
2

>  <REMARK>
 VINA RESULT:      -9.0      3.567      6.455
  Name = 
  3 active torsions:
  status: ('A' for Active; 'I' for Inactive)
    1  A    between atoms: C_1  and  C_5
    2  A    between atoms: C_2  and  C_15
    3  A    between atoms: C_2  and  C_21
                            x       y       z     vdW  Elec       q    Type
                         _______ _______ _______ _____ _____    ______ ____

>  <TORSDO>
F 3

$$$$
=
 OpenBabel11052412413D

 25 27  0  0  1  0  0  0  0  0999 V2000
  187.1390  177.7880  145.6470 C   0  0  0  0  0  0  0  0  0  0  0  0
  188.3340  177.5010  144.9500 C   0  0  0  0  0  0  0  0  0  0  0  0
  188.2670  177.4630  147.7110 C   0  0  0  0  0  3  0  0  0  0  0  0
  189.8690  177.3960  141.4210 N   0  0  0  0  0  2  0  0  0  0  0  0
  189.4230  177.1870  147.0590 N   0  0  0  0  0  0  0  0  0  0  0  0
  190.7360  176.9130  145.0010 C   0  0  0  0  0  0  0  0  0  0  0  0
  191.8080  176.6230  145.6610 N   0  0  0  0  0  2  0  0  0  0  0  0
  191.0850  177.3070  140.6690 C   0  0  0  0  0  0  0  0  0  0  0  0
  188.3670  177.4090  143.4420 C   0  0  0  0  0  2  0  0  0  0  0  0
  187.1440  177.7580  147.0080 N   0  0  0  0  0  0  0  0  0  0  0  0
  190.7920  177.0300  143.5780 N   0  0  0  0  0  0  0  0  0  0  0  0
  189.7470  177.2860  142.8440 C   0  0  0  0  0  0  0  0  0  0  0  0
  189.4790  177.1980  145.7020 C   0  0  0  0  0  0  0  0  0  0  0  0
  192.1950  177.1450  141.2460 O   0  0  0  0  0  0  0  0  0  0  0  0
  185.8770  178.1360  144.9490 C   0  0  0  0  0  0  0  0  0  0  0  0
  183.5340  178.8550  143.5710 C   0  0  0  0  0  3  0  0  0  0  0  0
  184.7620  178.6440  145.6520 C   0  0  0  0  0  0  0  0  0  0  0  0
  183.5990  178.9940  144.9590 C   0  0  0  0  0  3  0  0  0  0  0  0
  184.6340  178.3630  142.8680 C   0  0  0  0  0  3  0  0  0  0  0  0
  184.7840  178.7770  147.0700 N   0  0  0  0  0  1  0  0  0  0  0  0
  185.7990  178.0090  143.5520 C   0  0  0  0  0  3  0  0  0  0  0  0
  191.0320  177.4490  139.1830 C   0  0  2  0  0  3  0  0  0  0  0  0
  189.7530  177.7630  138.7560 F   0  0  0  0  0  0  0  0  0  0  0  0
  192.9050  176.4520  137.8160 C   0  0  0  0  0  1  0  0  0  0  0  0
  191.5580  176.2030  138.4760 C   0  0  0  0  0  2  0  0  0  0  0  0
  1 10  1  0  0  0  0
  2  1  2  0  0  0  0
  2 13  1  0  0  0  0
  4 12  1  0  0  0  0
  5  3  1  0  0  0  0
  6  7  2  0  0  0  0
  6 13  1  0  0  0  0
  8 14  2  0  0  0  0
  8  4  1  0  0  0  0
  9  2  1  0  0  0  0
 10  3  2  0  0  0  0
 11  6  1  0  0  0  0
 12  9  1  0  0  0  0
 12 11  2  0  0  0  0
 13  5  2  0  0  0  0
 15  1  1  0  0  0  0
 15 17  1  0  0  0  0
 16 18  1  0  0  0  0
 17 20  1  0  0  0  0
 18 17  2  0  0  0  0
 19 21  1  0  0  0  0
 19 16  2  0  0  0  0
 21 15  2  0  0  0  0
 22 23  1  6  0  0  0
 22  8  1  0  0  0  0
 24 25  1  0  0  0  0
 25 22  1  0  0  0  0
M  END
>  <MODEL>
3

>  <REMARK>
 VINA RESULT:      -8.9      3.071      6.522
  Name = 
  3 active torsions:
  status: ('A' for Active; 'I' for Inactive)
    1  A    between atoms: C_1  and  C_5
    2  A    between atoms: C_2  and  C_15
    3  A    between atoms: C_2  and  C_21
                            x       y       z     vdW  Elec       q    Type
                         _______ _______ _______ _____ _____    ______ ____

>  <TORSDO>
F 3

$$$$
=
 OpenBabel11052412413D

 25 27  0  0  1  0  0  0  0  0999 V2000
  188.0490  177.8170  145.0440 C   0  0  0  0  0  0  0  0  0  0  0  0
  186.8390  178.1910  144.4170 C   0  0  0  0  0  0  0  0  0  0  0  0
  186.9640  177.8480  147.1550 C   0  0  0  0  0  3  0  0  0  0  0  0
  185.2290  178.7710  140.9690 N   0  0  0  0  0  2  0  0  0  0  0  0
  185.7940  178.2040  146.5720 N   0  0  0  0  0  0  0  0  0  0  0  0
  184.4360  178.7510  144.5990 C   0  0  0  0  0  0  0  0  0  0  0  0
  183.3780  178.9400  145.3140 N   0  0  0  0  0  2  0  0  0  0  0  0
  183.9970  178.9550  140.2620 C   0  0  0  0  0  0  0  0  0  0  0  0
  186.7740  178.4890  142.9370 C   0  0  0  0  0  2  0  0  0  0  0  0
  188.0730  177.6590  146.3950 N   0  0  0  0  0  0  0  0  0  0  0  0
  184.3510  178.8310  143.1750 N   0  0  0  0  0  0  0  0  0  0  0  0
  185.3800  178.6840  142.3910 C   0  0  0  0  0  0  0  0  0  0  0  0
  185.7090  178.3800  145.2270 C   0  0  0  0  0  0  0  0  0  0  0  0
  182.8990  179.0290  140.8780 O   0  0  0  0  0  0  0  0  0  0  0  0
  189.2970  177.5770  144.2780 C   0  0  0  0  0  0  0  0  0  0  0  0
  191.6530  177.2070  142.7890 C   0  0  0  0  0  3  0  0  0  0  0  0
  189.4150  176.4860  143.3870 C   0  0  0  0  0  0  0  0  0  0  0  0
  190.5930  176.3080  142.6550 C   0  0  0  0  0  3  0  0  0  0  0  0
  191.5400  178.2910  143.6590 C   0  0  0  0  0  3  0  0  0  0  0  0
  188.3640  175.5360  143.2420 N   0  0  0  0  0  1  0  0  0  0  0  0
  190.3690  178.4760  144.3960 C   0  0  0  0  0  3  0  0  0  0  0  0
  184.0180  179.0200  138.7700 C   0  0  2  0  0  3  0  0  0  0  0  0
  182.7820  179.3930  138.2680 F   0  0  0  0  0  0  0  0  0  0  0  0
  185.8470  177.8450  137.4870 C   0  0  0  0  0  1  0  0  0  0  0  0
  184.4870  177.7050  138.1530 C   0  0  0  0  0  2  0  0  0  0  0  0
  1 10  1  0  0  0  0
  2  1  2  0  0  0  0
  2 13  1  0  0  0  0
  4 12  1  0  0  0  0
  5  3  1  0  0  0  0
  6 13  1  0  0  0  0
  6  7  2  0  0  0  0
  8 14  2  0  0  0  0
  8  4  1  0  0  0  0
  9  2  1  0  0  0  0
 10  3  2  0  0  0  0
 11  6  1  0  0  0  0
 12  9  1  0  0  0  0
 12 11  2  0  0  0  0
 13  5  2  0  0  0  0
 15 21  1  0  0  0  0
 15  1  1  0  0  0  0
 16 19  1  0  0  0  0
 17 15  2  0  0  0  0
 18 16  2  0  0  0  0
 18 17  1  0  0  0  0
 19 21  2  0  0  0  0
 20 17  1  0  0  0  0
 22 23  1  6  0  0  0
 22  8  1  0  0  0  0
 24 25  1  0  0  0  0
 25 22  1  0  0  0  0
M  END
>  <MODEL>
4

>  <REMARK>
 VINA RESULT:      -8.7      2.817      4.099
  Name = 
  3 active torsions:
  status: ('A' for Active; 'I' for Inactive)
    1  A    between atoms: C_1  and  C_5
    2  A    between atoms: C_2  and  C_15
    3  A    between atoms: C_2  and  C_21
                            x       y       z     vdW  Elec       q    Type
                         _______ _______ _______ _____ _____    ______ ____

>  <TORSDO>
F 3

$$$$
=
 OpenBabel11052412413D

 25 27  0  0  1  0  0  0  0  0999 V2000
  185.2590  178.3660  144.1730 C   0  0  0  0  0  0  0  0  0  0  0  0
  185.3740  178.5590  142.7780 C   0  0  0  0  0  0  0  0  0  0  0  0
  182.9100  178.6770  144.0220 C   0  0  0  0  0  3  0  0  0  0  0  0
  187.8980  178.4720  139.8720 N   0  0  0  0  0  2  0  0  0  0  0  0
  183.0010  178.8630  142.6820 N   0  0  0  0  0  0  0  0  0  0  0  0
  184.2920  178.9990  140.5970 C   0  0  0  0  0  0  0  0  0  0  0  0
  183.2350  179.2400  139.8960 N   0  0  0  0  0  2  0  0  0  0  0  0
  188.0530  178.4650  138.4480 C   0  0  0  0  0  0  0  0  0  0  0  0
  186.7210  178.6070  142.0940 C   0  0  0  0  0  2  0  0  0  0  0  0
  184.0290  178.4320  144.7510 N   0  0  0  0  0  0  0  0  0  0  0  0
  185.5530  178.8400  139.9430 N   0  0  0  0  0  0  0  0  0  0  0  0
  186.6660  178.6280  140.5860 C   0  0  0  0  0  0  0  0  0  0  0  0
  184.2020  178.8110  142.0490 C   0  0  0  0  0  0  0  0  0  0  0  0
  187.0540  178.5740  137.6860 O   0  0  0  0  0  0  0  0  0  0  0  0
  186.4330  178.0770  145.0320 C   0  0  0  0  0  0  0  0  0  0  0  0
  188.6520  177.4400  146.6380 C   0  0  0  0  0  3  0  0  0  0  0  0
  186.4290  178.3830  146.4120 C   0  0  0  0  0  0  0  0  0  0  0  0
  187.5390  178.0670  147.2010 C   0  0  0  0  0  3  0  0  0  0  0  0
  188.6610  177.1270  145.2780 C   0  0  0  0  0  3  0  0  0  0  0  0
  185.3200  179.0430  147.0160 N   0  0  0  0  0  1  0  0  0  0  0  0
  187.5570  177.4410  144.4820 C   0  0  0  0  0  3  0  0  0  0  0  0
  189.4170  178.2850  137.8670 C   0  0  2  0  0  3  0  0  0  0  0  0
  189.4470  178.6680  136.5360 F   0  0  0  0  0  0  0  0  0  0  0  0
  190.9490  176.7500  139.1560 C   0  0  0  0  0  1  0  0  0  0  0  0
  189.9230  176.8560  138.0400 C   0  0  0  0  0  2  0  0  0  0  0  0
  1 10  1  0  0  0  0
  1 15  1  0  0  0  0
  2  1  2  0  0  0  0
  3 10  2  0  0  0  0
  4 12  1  0  0  0  0
  5  3  1  0  0  0  0
  6 13  1  0  0  0  0
  7  6  2  0  0  0  0
  8  4  1  0  0  0  0
  9  2  1  0  0  0  0
 11 12  2  0  0  0  0
 11  6  1  0  0  0  0
 12  9  1  0  0  0  0
 13  5  2  0  0  0  0
 13  2  1  0  0  0  0
 14  8  2  0  0  0  0
 15 17  1  0  0  0  0
 16 18  1  0  0  0  0
 17 20  1  0  0  0  0
 17 18  2  0  0  0  0
 19 16  2  0  0  0  0
 21 15  2  0  0  0  0
 21 19  1  0  0  0  0
 22 23  1  6  0  0  0
 22 25  1  0  0  0  0
 22  8  1  0  0  0  0
 25 24  1  0  0  0  0
M  END
>  <MODEL>
5

>  <REMARK>
 VINA RESULT:      -8.7      3.968      7.335
  Name = 
  3 active torsions:
  status: ('A' for Active; 'I' for Inactive)
    1  A    between atoms: C_1  and  C_5
    2  A    between atoms: C_2  and  C_15
    3  A    between atoms: C_2  and  C_21
                            x       y       z     vdW  Elec       q    Type
                         _______ _______ _______ _____ _____    ______ ____

>  <TORSDO>
F 3

$$$$
=
 OpenBabel11052412413D

 25 27  0  0  1  0  0  0  0  0999 V2000
  191.0190  177.1820  142.0520 C   0  0  0  0  0  0  0  0  0  0  0  0
  189.7090  177.4940  141.6230 C   0  0  0  0  0  0  0  0  0  0  0  0
  191.8120  177.4590  139.8310 C   0  0  0  0  0  3  0  0  0  0  0  0
  186.1300  178.0990  142.9050 N   0  0  0  0  0  2  0  0  0  0  0  0
  190.5620  177.7640  139.4020 N   0  0  0  0  0  0  0  0  0  0  0  0
  188.1660  178.1290  139.7970 C   0  0  0  0  0  0  0  0  0  0  0  0
  187.9480  178.3960  138.5520 N   0  0  0  0  0  2  0  0  0  0  0  0
  184.8290  178.5950  142.5700 C   0  0  0  0  0  0  0  0  0  0  0  0
  188.5290  177.4130  142.5630 C   0  0  0  0  0  2  0  0  0  0  0  0
  192.0290  177.1730  141.1400 N   0  0  0  0  0  0  0  0  0  0  0  0
  187.1000  178.2430  140.7420 N   0  0  0  0  0  0  0  0  0  0  0  0
  187.2370  177.9600  142.0060 C   0  0  0  0  0  0  0  0  0  0  0  0
  189.5140  177.7850  140.2650 C   0  0  0  0  0  0  0  0  0  0  0  0
  184.5650  178.9910  141.4020 O   0  0  0  0  0  0  0  0  0  0  0  0
  191.3370  176.8760  143.4680 C   0  0  0  0  0  0  0  0  0  0  0  0
  191.8680  176.2330  146.1540 C   0  0  0  0  0  3  0  0  0  0  0  0
  191.3330  177.8840  144.4590 C   0  0  0  0  0  0  0  0  0  0  0  0
  191.6040  177.5550  145.7910 C   0  0  0  0  0  3  0  0  0  0  0  0
  191.8650  175.2310  145.1830 C   0  0  0  0  0  3  0  0  0  0  0  0
  191.0900  179.2460  144.1220 N   0  0  0  0  0  1  0  0  0  0  0  0
  191.5980  175.5500  143.8500 C   0  0  0  0  0  3  0  0  0  0  0  0
  183.7860  178.6790  143.6370 C   0  0  2  0  0  3  0  0  0  0  0  0
  182.6180  179.2400  143.1510 F   0  0  0  0  0  0  0  0  0  0  0  0
  184.5490  178.5010  146.0360 C   0  0  0  0  0  1  0  0  0  0  0  0
  184.2910  179.4340  144.8630 C   0  0  0  0  0  2  0  0  0  0  0  0
  1 15  1  0  0  0  0
  2  1  1  0  0  0  0
  2  9  1  0  0  0  0
  3 10  1  0  0  0  0
  5  3  2  0  0  0  0
  5 13  1  0  0  0  0
  6 13  1  0  0  0  0
  6 11  1  0  0  0  0
  7  6  2  0  0  0  0
  8  4  1  0  0  0  0
  8 22  1  0  0  0  0
 10  1  2  0  0  0  0
 11 12  2  0  0  0  0
 12  9  1  0  0  0  0
 12  4  1  0  0  0  0
 13  2  2  0  0  0  0
 14  8  2  0  0  0  0
 15 21  2  0  0  0  0
 15 17  1  0  0  0  0
 17 18  2  0  0  0  0
 18 16  1  0  0  0  0
 19 16  2  0  0  0  0
 20 17  1  0  0  0  0
 21 19  1  0  0  0  0
 22 23  1  6  0  0  0
 22 25  1  0  0  0  0
 25 24  1  0  0  0  0
M  END
>  <MODEL>
6

>  <REMARK>
 VINA RESULT:      -8.7      2.682      4.919
  Name = 
  3 active torsions:
  status: ('A' for Active; 'I' for Inactive)
    1  A    between atoms: C_1  and  C_5
    2  A    between atoms: C_2  and  C_15
    3  A    between atoms: C_2  and  C_21
                            x       y       z     vdW  Elec       q    Type
                         _______ _______ _______ _____ _____    ______ ____

>  <TORSDO>
F 3

$$$$
=
 OpenBabel11052412413D

 25 27  0  0  1  0  0  0  0  0999 V2000
  188.8840  177.5270  145.1760 C   0  0  0  0  0  0  0  0  0  0  0  0
  187.5320  177.8910  144.9830 C   0  0  0  0  0  0  0  0  0  0  0  0
  188.5550  177.5610  147.5270 C   0  0  0  0  0  3  0  0  0  0  0  0
  184.8730  178.4500  142.2560 N   0  0  0  0  0  2  0  0  0  0  0  0
  187.2550  177.9080  147.3610 N   0  0  0  0  0  0  0  0  0  0  0  0
  185.3210  178.4400  145.9450 C   0  0  0  0  0  0  0  0  0  0  0  0
  184.5560  178.6270  146.9690 N   0  0  0  0  0  2  0  0  0  0  0  0
  183.4750  178.6250  141.9950 C   0  0  0  0  0  0  0  0  0  0  0  0
  186.9810  178.1830  143.6060 C   0  0  0  0  0  2  0  0  0  0  0  0
  189.3520  177.3740  146.4450 N   0  0  0  0  0  0  0  0  0  0  0  0
  184.7700  178.5140  144.6280 N   0  0  0  0  0  0  0  0  0  0  0  0
  185.4850  178.3700  143.5490 C   0  0  0  0  0  0  0  0  0  0  0  0
  186.7320  178.0780  146.1190 C   0  0  0  0  0  0  0  0  0  0  0  0
  182.6410  178.6960  142.9380 O   0  0  0  0  0  0  0  0  0  0  0  0
  189.8110  177.2900  144.0420 C   0  0  0  0  0  0  0  0  0  0  0  0
  191.5970  176.7610  141.9370 C   0  0  0  0  0  3  0  0  0  0  0  0
  190.7990  178.2370  143.6890 C   0  0  0  0  0  0  0  0  0  0  0  0
  191.6790  177.9670  142.6360 C   0  0  0  0  0  3  0  0  0  0  0  0
  190.6310  175.8180  142.2860 C   0  0  0  0  0  3  0  0  0  0  0  0
  190.8970  179.4860  144.3650 N   0  0  0  0  0  1  0  0  0  0  0  0
  189.7460  176.0790  143.3340 C   0  0  0  0  0  3  0  0  0  0  0  0
  183.0030  178.6840  140.5780 C   0  0  2  0  0  3  0  0  0  0  0  0
  182.6300  177.4300  140.1240 F   0  0  0  0  0  0  0  0  0  0  0  0
  184.5770  178.3190  138.6400 C   0  0  0  0  0  1  0  0  0  0  0  0
  184.0460  179.3140  139.6600 C   0  0  0  0  0  2  0  0  0  0  0  0
  1 10  1  0  0  0  0
  2  1  2  0  0  0  0
  2 13  1  0  0  0  0
  4 12  1  0  0  0  0
  5  3  1  0  0  0  0
  6 13  1  0  0  0  0
  6  7  2  0  0  0  0
  8  4  1  0  0  0  0
  8 14  2  0  0  0  0
  9  2  1  0  0  0  0
 10  3  2  0  0  0  0
 11  6  1  0  0  0  0
 12  9  1  0  0  0  0
 12 11  2  0  0  0  0
 13  5  2  0  0  0  0
 15  1  1  0  0  0  0
 16 19  2  0  0  0  0
 16 18  1  0  0  0  0
 17 15  1  0  0  0  0
 17 20  1  0  0  0  0
 18 17  2  0  0  0  0
 19 21  1  0  0  0  0
 21 15  2  0  0  0  0
 22 23  1  6  0  0  0
 22  8  1  0  0  0  0
 24 25  1  0  0  0  0
 25 22  1  0  0  0  0
M  END
>  <MODEL>
7

>  <REMARK>
 VINA RESULT:      -8.7      2.113      3.105
  Name = 
  3 active torsions:
  status: ('A' for Active; 'I' for Inactive)
    1  A    between atoms: C_1  and  C_5
    2  A    between atoms: C_2  and  C_15
    3  A    between atoms: C_2  and  C_21
                            x       y       z     vdW  Elec       q    Type
                         _______ _______ _______ _____ _____    ______ ____

>  <TORSDO>
F 3

$$$$
=
 OpenBabel11052412413D

 25 27  0  0  1  0  0  0  0  0999 V2000
  189.9050  177.1150  138.4580 C   0  0  0  0  0  0  0  0  0  0  0  0
  189.7940  177.2970  139.8550 C   0  0  0  0  0  0  0  0  0  0  0  0
  192.2510  176.8220  138.6850 C   0  0  0  0  0  3  0  0  0  0  0  0
  187.2280  177.7760  142.6840 N   0  0  0  0  0  2  0  0  0  0  0  0
  192.1630  176.9920  140.0270 N   0  0  0  0  0  0  0  0  0  0  0  0
  190.8740  177.3970  142.0780 C   0  0  0  0  0  0  0  0  0  0  0  0
  191.9320  177.3470  142.8160 N   0  0  0  0  0  2  0  0  0  0  0  0
  187.0260  177.7720  144.1020 C   0  0  0  0  0  0  0  0  0  0  0  0
  188.4790  177.6650  140.5010 C   0  0  0  0  0  2  0  0  0  0  0  0
  191.1330  176.8840  137.9170 N   0  0  0  0  0  0  0  0  0  0  0  0
  189.5910  177.5430  142.6910 N   0  0  0  0  0  0  0  0  0  0  0  0
  188.4840  177.6340  142.0100 C   0  0  0  0  0  0  0  0  0  0  0  0
  190.9650  177.2280  140.6230 C   0  0  0  0  0  0  0  0  0  0  0  0
  187.9920  177.6080  144.8950 O   0  0  0  0  0  0  0  0  0  0  0  0
  188.7270  177.1520  137.5570 C   0  0  0  0  0  0  0  0  0  0  0  0
  186.5390  177.1620  135.7920 C   0  0  0  0  0  3  0  0  0  0  0  0
  188.2700  178.3640  136.9930 C   0  0  0  0  0  0  0  0  0  0  0  0
  187.1770  178.3600  136.1200 C   0  0  0  0  0  3  0  0  0  0  0  0
  186.9900  175.9600  136.3380 C   0  0  0  0  0  3  0  0  0  0  0  0
  188.8820  179.6070  137.3230 N   0  0  0  0  0  1  0  0  0  0  0  0
  188.0790  175.9550  137.2120 C   0  0  0  0  0  3  0  0  0  0  0  0
  185.6400  177.9280  144.6390 C   0  0  2  0  0  3  0  0  0  0  0  0
  184.7180  178.0530  143.6140 F   0  0  0  0  0  0  0  0  0  0  0  0
  185.5110  178.6250  147.0620 C   0  0  0  0  0  1  0  0  0  0  0  0
  185.5400  179.0960  145.6160 C   0  0  0  0  0  2  0  0  0  0  0  0
  1  2  1  0  0  0  0
  2  9  1  0  0  0  0
  2 13  2  0  0  0  0
  3  5  2  0  0  0  0
  4  8  1  0  0  0  0
  5 13  1  0  0  0  0
  6 11  1  0  0  0  0
  6  7  2  0  0  0  0
  8 22  1  0  0  0  0
  8 14  2  0  0  0  0
  9 12  1  0  0  0  0
 10  1  2  0  0  0  0
 10  3  1  0  0  0  0
 12  4  1  0  0  0  0
 12 11  2  0  0  0  0
 13  6  1  0  0  0  0
 15  1  1  0  0  0  0
 16 18  2  0  0  0  0
 16 19  1  0  0  0  0
 17 20  1  0  0  0  0
 17 15  2  0  0  0  0
 18 17  1  0  0  0  0
 19 21  2  0  0  0  0
 21 15  1  0  0  0  0
 22 23  1  6  0  0  0
 22 25  1  0  0  0  0
 25 24  1  0  0  0  0
M  END
>  <MODEL>
8

>  <REMARK>
 VINA RESULT:      -8.5      3.737      5.822
  Name = 
  3 active torsions:
  status: ('A' for Active; 'I' for Inactive)
    1  A    between atoms: C_1  and  C_5
    2  A    between atoms: C_2  and  C_15
    3  A    between atoms: C_2  and  C_21
                            x       y       z     vdW  Elec       q    Type
                         _______ _______ _______ _____ _____    ______ ____

>  <TORSDO>
F 3

$$$$
=
 OpenBabel11052412413D

 25 27  0  0  1  0  0  0  0  0999 V2000
  190.0360  176.8500  137.9420 C   0  0  0  0  0  0  0  0  0  0  0  0
  189.6910  177.1560  139.2780 C   0  0  0  0  0  0  0  0  0  0  0  0
  188.1650  178.0940  137.1760 C   0  0  0  0  0  3  0  0  0  0  0  0
  190.8930  176.7680  142.9150 N   0  0  0  0  0  2  0  0  0  0  0  0
  187.8200  178.4000  138.4510 N   0  0  0  0  0  0  0  0  0  0  0  0
  188.1860  178.2930  140.8770 C   0  0  0  0  0  0  0  0  0  0  0  0
  187.1420  179.0140  141.1200 N   0  0  0  0  0  2  0  0  0  0  0  0
  190.7090  177.2030  144.2670 C   0  0  0  0  0  0  0  0  0  0  0  0
  190.4480  176.5640  140.4450 C   0  0  0  0  0  2  0  0  0  0  0  0
  189.2590  177.3300  136.9330 N   0  0  0  0  0  0  0  0  0  0  0  0
  189.0320  177.8890  141.9560 N   0  0  0  0  0  0  0  0  0  0  0  0
  190.0810  177.1350  141.7930 C   0  0  0  0  0  0  0  0  0  0  0  0
  188.5550  177.9480  139.5000 C   0  0  0  0  0  0  0  0  0  0  0  0
  189.7840  178.0050  144.5720 O   0  0  0  0  0  0  0  0  0  0  0  0
  191.2270  176.0340  137.5980 C   0  0  0  0  0  0  0  0  0  0  0  0
  193.4980  174.5460  136.8710 C   0  0  0  0  0  3  0  0  0  0  0  0
  191.1180  174.6510  137.3280 C   0  0  0  0  0  0  0  0  0  0  0  0
  192.2550  173.9190  136.9720 C   0  0  0  0  0  3  0  0  0  0  0  0
  193.6120  175.9120  137.1270 C   0  0  0  0  0  3  0  0  0  0  0  0
  189.8710  173.9740  137.4440 N   0  0  0  0  0  1  0  0  0  0  0  0
  192.4830  176.6520  137.4850 C   0  0  0  0  0  3  0  0  0  0  0  0
  191.6550  176.7240  145.3200 C   0  0  2  0  0  3  0  0  0  0  0  0
  192.1270  175.4560  145.0280 F   0  0  0  0  0  0  0  0  0  0  0  0
  191.8850  176.0590  147.7440 C   0  0  0  0  0  1  0  0  0  0  0  0
  191.0260  176.7710  146.7090 C   0  0  0  0  0  2  0  0  0  0  0  0
  1  2  1  0  0  0  0
  2 13  2  0  0  0  0
  2  9  1  0  0  0  0
  3  5  2  0  0  0  0
  4  8  1  0  0  0  0
  5 13  1  0  0  0  0
  6  7  2  0  0  0  0
  6 11  1  0  0  0  0
  8 14  2  0  0  0  0
  8 22  1  0  0  0  0
  9 12  1  0  0  0  0
 10  3  1  0  0  0  0
 10  1  2  0  0  0  0
 12 11  2  0  0  0  0
 12  4  1  0  0  0  0
 13  6  1  0  0  0  0
 15  1  1  0  0  0  0
 16 18  2  0  0  0  0
 16 19  1  0  0  0  0
 17 20  1  0  0  0  0
 17 15  2  0  0  0  0
 18 17  1  0  0  0  0
 19 21  2  0  0  0  0
 21 15  1  0  0  0  0
 22 23  1  6  0  0  0
 22 25  1  0  0  0  0
 25 24  1  0  0  0  0
M  END
>  <MODEL>
9

>  <REMARK>
 VINA RESULT:      -8.5      4.207      7.230
  Name = 
  3 active torsions:
  status: ('A' for Active; 'I' for Inactive)
    1  A    between atoms: C_1  and  C_5
    2  A    between atoms: C_2  and  C_15
    3  A    between atoms: C_2  and  C_21
                            x       y       z     vdW  Elec       q    Type
                         _______ _______ _______ _____ _____    ______ ____

>  <TORSDO>
F 3

$$$$
