=
 OpenBabel11052413453D

 27 31  0  0  0  0  0  0  0  0999 V2000
  187.1480  178.1840  141.5560 N   0  0  0  0  0  0  0  0  0  0  0  0
  187.6840  177.7490  143.9420 C   0  0  0  0  0  0  0  0  0  0  0  0
  189.6720  177.0990  142.5040 N   0  0  0  0  0  0  0  0  0  0  0  0
  189.9730  176.8970  147.2930 C   0  0  0  0  0  3  0  0  0  0  0  0
  192.0570  176.1820  148.3470 F   0  0  0  0  0  0  0  0  0  0  0  0
  187.2220  177.8670  145.2230 N   0  0  0  0  0  0  0  0  0  0  0  0
  191.2370  176.5430  144.7320 C   0  0  0  0  0  2  0  0  0  0  0  0
  190.1810  177.2280  138.9680 C   0  0  0  0  0  0  0  0  0  0  0  0
  191.9560  176.2740  146.0270 C   0  0  0  0  0  3  0  0  0  0  0  0
  191.2500  176.8690  138.0000 C   0  0  0  0  0  1  0  0  0  0  0  0
  189.8060  177.0190  144.9060 C   0  0  0  0  0  0  0  0  0  0  0  0
  186.8230  178.0790  142.9470 C   0  0  0  0  0  0  0  0  0  0  0  0
  191.3670  176.4380  147.2100 C   0  0  0  0  0  0  0  0  0  0  0  0
  189.2610  177.1640  146.1950 C   0  0  0  0  0  0  0  0  0  0  0  0
  188.1640  177.8930  140.8120 C   0  0  0  0  0  0  0  0  0  0  0  0
  189.0250  177.3130  143.7630 C   0  0  0  0  0  0  0  0  0  0  0  0
  190.3590  176.9870  140.3290 C   0  0  0  0  0  3  0  0  0  0  0  0
  187.9550  177.5930  146.3270 C   0  0  0  0  0  3  0  0  0  0  0  0
  189.0030  177.8170  138.5220 C   0  0  0  0  0  3  0  0  0  0  0  0
  188.0070  178.1410  139.4400 C   0  0  0  0  0  3  0  0  0  0  0  0
  189.3700  177.3180  141.2660 C   0  0  0  0  0  0  0  0  0  0  0  0
  182.7410  179.0070  143.7920 C   0  0  0  0  0  3  0  0  0  0  0  0
  185.4140  178.4420  143.2570 C   0  0  0  0  0  0  0  0  0  0  0  0
  185.0180  178.8160  144.5500 C   0  0  0  0  0  3  0  0  0  0  0  0
  183.6810  179.1060  144.8200 C   0  0  0  0  0  3  0  0  0  0  0  0
  183.1320  178.6260  142.5460 N   0  0  0  0  0  0  0  0  0  0  0  0
  184.4310  178.3400  142.2630 C   0  0  0  0  0  3  0  0  0  0  0  0
  1 12  1  0  0  0  0
  2  6  1  0  0  0  0
  3 16  1  0  0  0  0
  6 18  2  0  0  0  0
  7 11  1  0  0  0  0
  7  9  1  0  0  0  0
  8 17  2  0  0  0  0
  9 13  2  0  0  0  0
 10  8  1  0  0  0  0
 11 14  1  0  0  0  0
 12 23  1  0  0  0  0
 12  2  2  0  0  0  0
 13  4  1  0  0  0  0
 13  5  1  0  0  0  0
 14 18  1  0  0  0  0
 14  4  2  0  0  0  0
 15 21  1  0  0  0  0
 15  1  2  0  0  0  0
 16  2  1  0  0  0  0
 16 11  2  0  0  0  0
 17 21  1  0  0  0  0
 19  8  1  0  0  0  0
 19 20  2  0  0  0  0
 20 15  1  0  0  0  0
 21  3  2  0  0  0  0
 22 25  1  0  0  0  0
 23 24  1  0  0  0  0
 24 25  2  0  0  0  0
 26 22  2  0  0  0  0
 27 26  1  0  0  0  0
 27 23  2  0  0  0  0
M  END
>  <MODEL>
1

>  <REMARK>
 VINA RESULT:     -11.4      0.000      0.000
  Name = 
  1 active torsions:
  status: ('A' for Active; 'I' for Inactive)
    1  A    between atoms: C_9  and  C_15
                            x       y       z     vdW  Elec       q    Type
                         _______ _______ _______ _____ _____    ______ ____

>  <TORSDO>
F 1

$$$$
=
 OpenBabel11052413453D

 27 31  0  0  1  0  0  0  0  0999 V2000
  187.0910  177.9120  141.4730 N   0  0  0  0  0  0  0  0  0  0  0  0
  189.2290  177.4140  142.6360 C   0  0  0  0  0  0  0  0  0  0  0  0
  187.4310  177.9060  144.3590 N   0  0  0  0  0  0  0  0  0  0  0  0
  191.8120  176.5120  145.7510 C   0  0  0  0  0  3  0  0  0  0  0  0
  192.3040  176.2590  148.1300 F   0  0  0  0  0  0  0  0  0  0  0  0
  190.5300  177.0350  142.4540 N   0  0  0  0  0  0  0  0  0  0  0  0
  189.1340  177.2840  146.4670 C   0  0  0  0  0  3  0  0  0  0  0  0
  183.9760  178.7510  144.0050 C   0  0  0  0  0  0  0  0  0  0  0  0
  190.1690  176.9260  147.4990 C   0  0  0  0  0  3  0  0  0  0  0  0
  182.8330  179.0850  144.8930 C   0  0  0  0  0  1  0  0  0  0  0  0
  189.6290  177.1920  145.0350 C   0  0  0  0  0  0  0  0  0  0  0  0
  188.5000  177.6620  141.5180 C   0  0  0  0  0  0  0  0  0  0  0  0
  191.4080  176.5700  147.1640 C   0  0  0  0  0  0  0  0  0  0  0  0
  190.9560  176.8090  144.7700 C   0  0  0  0  0  0  0  0  0  0  0  0
  186.1540  178.1270  142.3380 C   0  0  2  0  0  3  0  0  0  0  0  0
  188.7470  177.4970  143.9710 C   0  0  0  0  0  0  0  0  0  0  0  0
  185.2340  178.4970  144.5490 C   0  0  0  0  0  3  0  0  0  0  0  0
  191.3850  176.7380  143.4590 C   0  0  0  0  0  3  0  0  0  0  0  0
  183.7960  178.6800  142.6280 C   0  0  0  0  0  3  0  0  0  0  0  0
  184.8790  178.3730  141.8080 C   0  0  0  0  0  3  0  0  0  0  0  0
  186.3310  178.1760  143.7370 C   0  0  0  0  0  0  0  0  0  0  0  0
  190.2930  177.4310  137.6490 C   0  0  0  0  0  3  0  0  0  0  0  0
  189.1400  177.6240  140.1760 C   0  0  0  0  0  0  0  0  0  0  0  0
  188.8500  178.5820  139.1940 C   0  0  0  0  0  3  0  0  0  0  0  0
  189.4300  178.4920  137.9290 C   0  0  0  0  0  3  0  0  0  0  0  0
  190.5540  176.4960  138.6020 N   0  0  0  0  0  0  0  0  0  0  0  0
  189.9980  176.5660  139.8410 C   0  0  0  0  0  3  0  0  0  0  0  0
  1 12  2  0  0  0  0
  1 15  1  0  0  0  0
  2 16  1  0  0  0  0
  4 13  2  0  0  0  0
  6  2  2  0  0  0  0
  6 18  1  0  0  0  0
  7  9  2  0  0  0  0
  8 17  2  0  0  0  0
  8 10  1  0  0  0  0
 11  7  1  0  0  0  0
 12  2  1  0  0  0  0
 13  9  1  0  0  0  0
 13  5  1  0  0  0  0
 14 11  1  0  0  0  0
 14  4  1  0  0  0  0
 15 20  1  6  0  0  0
 15 21  1  0  0  0  0
 16  3  1  0  0  0  0
 16 11  2  0  0  0  0
 18 14  2  0  0  0  0
 19  8  1  0  0  0  0
 20 19  2  0  0  0  0
 21  3  2  0  0  0  0
 21 17  1  0  0  0  0
 22 25  2  0  0  0  0
 22 26  1  0  0  0  0
 23 12  1  0  0  0  0
 24 23  2  0  0  0  0
 25 24  1  0  0  0  0
 26 27  2  0  0  0  0
 27 23  1  0  0  0  0
M  END
>  <MODEL>
2

>  <REMARK>
 VINA RESULT:     -11.3      1.117      5.315
  Name = 
  1 active torsions:
  status: ('A' for Active; 'I' for Inactive)
    1  A    between atoms: C_9  and  C_15
                            x       y       z     vdW  Elec       q    Type
                         _______ _______ _______ _____ _____    ______ ____

>  <TORSDO>
F 1

$$$$
=
 OpenBabel11052413453D

 27 31  0  0  0  0  0  0  0  0999 V2000
  187.6790  177.8810  145.2550 N   0  0  0  0  0  0  0  0  0  0  0  0
  189.1960  177.5090  143.3230 C   0  0  0  0  0  0  0  0  0  0  0  0
  186.8590  178.0120  142.4700 N   0  0  0  0  0  0  0  0  0  0  0  0
  190.5070  177.4910  139.3900 C   0  0  0  0  0  3  0  0  0  0  0  0
  190.1120  177.7300  136.9920 F   0  0  0  0  0  0  0  0  0  0  0  0
  190.4910  177.2670  142.9600 N   0  0  0  0  0  0  0  0  0  0  0  0
  187.7140  178.0300  139.8250 C   0  0  0  0  0  3  0  0  0  0  0  0
  183.8080  178.7210  144.1930 C   0  0  0  0  0  0  0  0  0  0  0  0
  188.3210  177.9980  138.4480 C   0  0  0  0  0  3  0  0  0  0  0  0
  182.3920  179.0030  143.8430 C   0  0  0  0  0  1  0  0  0  0  0  0
  188.7040  177.7620  140.9450 C   0  0  0  0  0  0  0  0  0  0  0  0
  188.9200  177.4970  144.6520 C   0  0  0  0  0  0  0  0  0  0  0  0
  189.6140  177.7480  138.2510 C   0  0  0  0  0  0  0  0  0  0  0  0
  190.0550  177.5040  140.6470 C   0  0  0  0  0  0  0  0  0  0  0  0
  186.4910  178.1770  144.8370 C   0  0  0  0  0  0  0  0  0  0  0  0
  188.2580  177.7700  142.2870 C   0  0  0  0  0  0  0  0  0  0  0  0
  184.7370  178.4540  143.1890 C   0  0  0  0  0  2  0  0  0  0  0  0
  190.9350  177.2570  141.6820 C   0  0  0  0  0  3  0  0  0  0  0  0
  184.2170  178.7330  145.5210 C   0  0  0  0  0  3  0  0  0  0  0  0
  185.5460  178.4600  145.8340 C   0  0  0  0  0  3  0  0  0  0  0  0
  186.0810  178.1890  143.4870 C   0  0  0  0  0  0  0  0  0  0  0  0
  191.8440  176.3780  147.5560 C   0  0  0  0  0  3  0  0  0  0  0  0
  189.9700  177.1270  145.6380 C   0  0  0  0  0  0  0  0  0  0  0  0
  191.0960  176.3770  145.2670 C   0  0  0  0  0  3  0  0  0  0  0  0
  192.0410  176.0060  146.2240 C   0  0  0  0  0  3  0  0  0  0  0  0
  190.7390  177.0890  147.9080 N   0  0  0  0  0  0  0  0  0  0  0  0
  189.8080  177.4610  146.9890 C   0  0  0  0  0  3  0  0  0  0  0  0
  2 12  1  0  0  0  0
  3 21  2  0  0  0  0
  4 14  1  0  0  0  0
  5 13  1  0  0  0  0
  6  2  1  0  0  0  0
  7 11  1  0  0  0  0
  8 19  2  0  0  0  0
  9  7  2  0  0  0  0
 10  8  1  0  0  0  0
 11 16  1  0  0  0  0
 12  1  2  0  0  0  0
 12 23  1  0  0  0  0
 13  9  1  0  0  0  0
 13  4  2  0  0  0  0
 14 11  2  0  0  0  0
 14 18  1  0  0  0  0
 15  1  1  0  0  0  0
 15 20  2  0  0  0  0
 16  3  1  0  0  0  0
 16  2  2  0  0  0  0
 17 21  1  0  0  0  0
 17  8  1  0  0  0  0
 18  6  2  0  0  0  0
 19 20  1  0  0  0  0
 21 15  1  0  0  0  0
 22 26  1  0  0  0  0
 23 27  1  0  0  0  0
 24 23  2  0  0  0  0
 24 25  1  0  0  0  0
 25 22  2  0  0  0  0
 27 26  2  0  0  0  0
M  END
>  <MODEL>
3

>  <REMARK>
 VINA RESULT:     -11.2      2.540      6.966
  Name = 
  1 active torsions:
  status: ('A' for Active; 'I' for Inactive)
    1  A    between atoms: C_9  and  C_15
                            x       y       z     vdW  Elec       q    Type
                         _______ _______ _______ _____ _____    ______ ____

>  <TORSDO>
F 1

$$$$
=
 OpenBabel11052413453D

 27 31  0  0  0  0  0  0  0  0999 V2000
  189.8400  177.2190  142.8670 N   0  0  0  0  0  0  0  0  0  0  0  0
  187.7750  177.7110  144.1560 C   0  0  0  0  0  0  0  0  0  0  0  0
  187.3550  178.1630  141.6940 N   0  0  0  0  0  0  0  0  0  0  0  0
  183.7760  178.5350  144.8760 C   0  0  0  0  0  3  0  0  0  0  0  0
  181.5370  179.1460  144.1150 F   0  0  0  0  0  0  0  0  0  0  0  0
  187.2080  177.6770  145.4000 N   0  0  0  0  0  0  0  0  0  0  0  0
  184.6640  178.6980  142.1430 C   0  0  0  0  0  2  0  0  0  0  0  0
  189.4750  177.8570  138.8320 C   0  0  0  0  0  0  0  0  0  0  0  0
  183.2380  178.9680  142.5420 C   0  0  0  0  0  3  0  0  0  0  0  0
  189.3840  178.1010  137.3700 C   0  0  0  0  0  1  0  0  0  0  0  0
  185.5720  178.3290  143.3030 C   0  0  0  0  0  0  0  0  0  0  0  0
  189.0940  177.4020  144.0750 C   0  0  0  0  0  0  0  0  0  0  0  0
  182.8310  178.8930  143.8080 C   0  0  0  0  0  0  0  0  0  0  0  0
  185.0590  178.2750  144.6120 C   0  0  0  0  0  0  0  0  0  0  0  0
  189.6320  177.4080  141.6040 C   0  0  0  0  0  0  0  0  0  0  0  0
  186.9360  178.0450  143.0580 C   0  0  0  0  0  0  0  0  0  0  0  0
  188.3880  178.1400  139.6580 C   0  0  0  0  0  3  0  0  0  0  0  0
  185.9060  177.9440  145.6510 C   0  0  0  0  0  3  0  0  0  0  0  0
  190.6390  177.3340  139.3840 C   0  0  0  0  0  3  0  0  0  0  0  0
  190.7120  177.1160  140.7580 C   0  0  0  0  0  3  0  0  0  0  0  0
  188.4420  177.9150  141.0410 C   0  0  0  0  0  0  0  0  0  0  0  0
  191.4630  176.7580  147.5690 C   0  0  0  0  0  3  0  0  0  0  0  0
  189.8870  177.1500  145.3070 C   0  0  0  0  0  0  0  0  0  0  0  0
  189.3560  177.3800  146.5850 C   0  0  0  0  0  3  0  0  0  0  0  0
  190.1400  177.1800  147.7210 C   0  0  0  0  0  3  0  0  0  0  0  0
  191.9750  176.5550  146.3250 N   0  0  0  0  0  0  0  0  0  0  0  0
  191.2250  176.7450  145.2060 C   0  0  0  0  0  3  0  0  0  0  0  0
  1 12  1  0  0  0  0
  2  6  1  0  0  0  0
  3 16  1  0  0  0  0
  6 18  2  0  0  0  0
  7  9  1  0  0  0  0
  7 11  1  0  0  0  0
  8 19  1  0  0  0  0
  8 17  2  0  0  0  0
  9 13  2  0  0  0  0
 10  8  1  0  0  0  0
 11 14  1  0  0  0  0
 12  2  2  0  0  0  0
 12 23  1  0  0  0  0
 13  5  1  0  0  0  0
 13  4  1  0  0  0  0
 14  4  2  0  0  0  0
 14 18  1  0  0  0  0
 15  1  2  0  0  0  0
 16 11  2  0  0  0  0
 16  2  1  0  0  0  0
 17 21  1  0  0  0  0
 19 20  2  0  0  0  0
 20 15  1  0  0  0  0
 21 15  1  0  0  0  0
 21  3  2  0  0  0  0
 22 25  1  0  0  0  0
 23 24  1  0  0  0  0
 24 25  2  0  0  0  0
 26 22  2  0  0  0  0
 27 23  2  0  0  0  0
 27 26  1  0  0  0  0
M  END
>  <MODEL>
4

>  <REMARK>
 VINA RESULT:     -11.2      2.493      5.731
  Name = 
  1 active torsions:
  status: ('A' for Active; 'I' for Inactive)
    1  A    between atoms: C_9  and  C_15
                            x       y       z     vdW  Elec       q    Type
                         _______ _______ _______ _____ _____    ______ ____

>  <TORSDO>
F 1

$$$$
=
 OpenBabel11052413453D

 27 31  0  0  1  0  0  0  0  0999 V2000
  189.7730  177.6560  141.9590 N   0  0  0  0  0  0  0  0  0  0  0  0
  187.3650  178.1060  141.5490 C   0  0  0  0  0  0  0  0  0  0  0  0
  187.7370  177.7360  144.0320 N   0  0  0  0  0  0  0  0  0  0  0  0
  183.4050  179.0030  142.3890 C   0  0  0  0  0  3  0  0  0  0  0  0
  181.5570  179.3090  143.9570 F   0  0  0  0  0  0  0  0  0  0  0  0
  186.4430  178.4290  140.5910 N   0  0  0  0  0  0  0  0  0  0  0  0
  185.0940  178.3560  144.6280 C   0  0  0  0  0  3  0  0  0  0  0  0
  190.6960  177.0150  145.9030 C   0  0  0  0  0  0  0  0  0  0  0  0
  183.6390  178.7050  144.7940 C   0  0  0  0  0  3  0  0  0  0  0  0
  191.0610  176.7530  147.3190 C   0  0  0  0  0  1  0  0  0  0  0  0
  185.5780  178.3860  143.1890 C   0  0  0  0  0  0  0  0  0  0  0  0
  188.6280  177.8520  141.1220 C   0  0  0  0  0  0  0  0  0  0  0  0
  182.8610  179.0030  143.7550 C   0  0  0  0  0  0  0  0  0  0  0  0
  184.6860  178.7090  142.1510 C   0  0  0  0  0  0  0  0  0  0  0  0
  189.9870  177.5030  143.2250 C   0  0  2  0  0  3  0  0  0  0  0  0
  186.9300  178.0820  142.9020 C   0  0  0  0  0  0  0  0  0  0  0  0
  189.3660  177.2370  145.5530 C   0  0  0  0  0  3  0  0  0  0  0  0
  185.1480  178.7230  140.8490 C   0  0  0  0  0  3  0  0  0  0  0  0
  191.6800  177.0510  144.9220 C   0  0  0  0  0  3  0  0  0  0  0  0
  191.3220  177.2900  143.5970 C   0  0  0  0  0  3  0  0  0  0  0  0
  188.9910  177.4900  144.2250 C   0  0  0  0  0  0  0  0  0  0  0  0
  189.4310  177.6960  136.9310 C   0  0  0  0  0  3  0  0  0  0  0  0
  188.9430  177.8250  139.6690 C   0  0  0  0  0  0  0  0  0  0  0  0
  189.0230  179.0030  138.9110 C   0  0  0  0  0  3  0  0  0  0  0  0
  189.2740  178.9420  137.5400 C   0  0  0  0  0  3  0  0  0  0  0  0
  189.3330  176.5590  137.6710 N   0  0  0  0  0  0  0  0  0  0  0  0
  189.0890  176.5970  139.0080 C   0  0  0  0  0  3  0  0  0  0  0  0
  1 15  1  0  0  0  0
  2 16  1  0  0  0  0
  3 21  2  0  0  0  0
  4 13  2  0  0  0  0
  6 18  1  0  0  0  0
  6  2  2  0  0  0  0
  7  9  2  0  0  0  0
  8 10  1  0  0  0  0
 11  7  1  0  0  0  0
 12  2  1  0  0  0  0
 12  1  2  0  0  0  0
 13  5  1  0  0  0  0
 13  9  1  0  0  0  0
 14  4  1  0  0  0  0
 14 11  1  0  0  0  0
 15 20  1  6  0  0  0
 15 21  1  0  0  0  0
 16 11  2  0  0  0  0
 16  3  1  0  0  0  0
 17  8  2  0  0  0  0
 18 14  2  0  0  0  0
 19  8  1  0  0  0  0
 20 19  2  0  0  0  0
 21 17  1  0  0  0  0
 22 25  2  0  0  0  0
 22 26  1  0  0  0  0
 23 12  1  0  0  0  0
 24 23  2  0  0  0  0
 25 24  1  0  0  0  0
 26 27  2  0  0  0  0
 27 23  1  0  0  0  0
M  END
>  <MODEL>
5

>  <REMARK>
 VINA RESULT:     -11.0      2.635      6.634
  Name = 
  1 active torsions:
  status: ('A' for Active; 'I' for Inactive)
    1  A    between atoms: C_9  and  C_15
                            x       y       z     vdW  Elec       q    Type
                         _______ _______ _______ _____ _____    ______ ____

>  <TORSDO>
F 1

$$$$
=
 OpenBabel11052413453D

 27 31  0  0  1  0  0  0  0  0999 V2000
  188.8260  177.8700  143.3170 N   0  0  0  0  0  0  0  0  0  0  0  0
  186.7280  178.1750  142.0220 C   0  0  0  0  0  0  0  0  0  0  0  0
  186.1780  178.0650  144.4980 N   0  0  0  0  0  0  0  0  0  0  0  0
  182.7290  178.9810  141.2830 C   0  0  0  0  0  3  0  0  0  0  0  0
  180.4370  179.3600  142.0390 F   0  0  0  0  0  0  0  0  0  0  0  0
  186.2140  178.3640  140.7700 N   0  0  0  0  0  0  0  0  0  0  0  0
  183.4950  178.6280  144.0340 C   0  0  0  0  0  3  0  0  0  0  0  0
  188.2620  177.6560  147.3730 C   0  0  0  0  0  0  0  0  0  0  0  0
  182.0770  178.9290  143.6280 C   0  0  0  0  0  3  0  0  0  0  0  0
  188.0910  177.5490  148.8450 C   0  0  0  0  0  1  0  0  0  0  0  0
  184.4670  178.5380  142.8710 C   0  0  0  0  0  0  0  0  0  0  0  0
  188.0610  177.9350  142.1080 C   0  0  0  0  0  0  0  0  0  0  0  0
  181.7270  179.0910  142.3540 C   0  0  0  0  0  0  0  0  0  0  0  0
  184.0100  178.7200  141.5530 C   0  0  0  0  0  0  0  0  0  0  0  0
  188.5680  177.8500  144.5840 C   0  0  2  0  0  3  0  0  0  0  0  0
  185.8330  178.2650  143.1230 C   0  0  0  0  0  0  0  0  0  0  0  0
  187.1480  177.7860  146.5460 C   0  0  0  0  0  3  0  0  0  0  0  0
  184.9120  178.6270  140.5120 C   0  0  0  0  0  3  0  0  0  0  0  0
  189.5340  177.6380  146.8130 C   0  0  0  0  0  3  0  0  0  0  0  0
  189.6790  177.7320  145.4310 C   0  0  0  0  0  3  0  0  0  0  0  0
  187.2780  177.8930  145.1540 C   0  0  0  0  0  0  0  0  0  0  0  0
  190.3790  177.3660  138.5670 C   0  0  0  0  0  3  0  0  0  0  0  0
  188.8800  177.7800  140.8770 C   0  0  0  0  0  0  0  0  0  0  0  0
  188.6770  178.5910  139.7500 C   0  0  0  0  0  3  0  0  0  0  0  0
  189.4300  178.3900  138.5930 C   0  0  0  0  0  3  0  0  0  0  0  0
  190.5560  176.5730  139.6580 N   0  0  0  0  0  0  0  0  0  0  0  0
  189.8310  176.7540  140.7950 C   0  0  0  0  0  3  0  0  0  0  0  0
  1 15  1  0  0  0  0
  2 12  1  0  0  0  0
  2 16  1  0  0  0  0
  3 21  2  0  0  0  0
  4 14  1  0  0  0  0
  4 13  2  0  0  0  0
  5 13  1  0  0  0  0
  6  2  2  0  0  0  0
  8 10  1  0  0  0  0
  9  7  2  0  0  0  0
 11 16  2  0  0  0  0
 11  7  1  0  0  0  0
 12  1  2  0  0  0  0
 13  9  1  0  0  0  0
 14 11  1  0  0  0  0
 15 21  1  0  0  0  0
 15 20  1  6  0  0  0
 16  3  1  0  0  0  0
 17  8  2  0  0  0  0
 18  6  1  0  0  0  0
 18 14  2  0  0  0  0
 19  8  1  0  0  0  0
 20 19  2  0  0  0  0
 21 17  1  0  0  0  0
 22 25  2  0  0  0  0
 22 26  1  0  0  0  0
 23 12  1  0  0  0  0
 24 23  2  0  0  0  0
 25 24  1  0  0  0  0
 26 27  2  0  0  0  0
 27 23  1  0  0  0  0
M  END
>  <MODEL>
6

>  <REMARK>
 VINA RESULT:     -10.7      2.952      7.406
  Name = 
  1 active torsions:
  status: ('A' for Active; 'I' for Inactive)
    1  A    between atoms: C_9  and  C_15
                            x       y       z     vdW  Elec       q    Type
                         _______ _______ _______ _____ _____    ______ ____

>  <TORSDO>
F 1

$$$$
=
 OpenBabel11052413453D

 27 31  0  0  0  0  0  0  0  0999 V2000
  186.8350  178.4540  140.0960 N   0  0  0  0  0  0  0  0  0  0  0  0
  186.0940  178.3460  142.4650 C   0  0  0  0  0  0  0  0  0  0  0  0
  188.5180  177.6100  142.3100 N   0  0  0  0  0  0  0  0  0  0  0  0
  186.3750  178.0240  146.5890 C   0  0  0  0  0  3  0  0  0  0  0  0
  187.6320  177.5400  148.6260 F   0  0  0  0  0  0  0  0  0  0  0  0
  185.0540  178.6030  143.3160 N   0  0  0  0  0  0  0  0  0  0  0  0
  188.7420  177.4080  145.0740 C   0  0  0  0  0  2  0  0  0  0  0  0
  190.7330  177.3180  139.5200 C   0  0  0  0  0  0  0  0  0  0  0  0
  188.7090  177.3360  146.5770 C   0  0  0  0  0  3  0  0  0  0  0  0
  192.1330  176.8890  139.2720 C   0  0  0  0  0  1  0  0  0  0  0  0
  187.4290  177.8380  144.4450 C   0  0  0  0  0  0  0  0  0  0  0  0
  185.8550  178.5100  141.1390 C   0  0  0  0  0  0  0  0  0  0  0  0
  187.6110  177.6200  147.2740 C   0  0  0  0  0  0  0  0  0  0  0  0
  186.3150  178.1180  145.2580 C   0  0  0  0  0  0  0  0  0  0  0  0
  188.0800  178.1190  140.0050 C   0  0  0  0  0  0  0  0  0  0  0  0
  187.3330  177.9510  143.0380 C   0  0  0  0  0  0  0  0  0  0  0  0
  190.1990  177.2580  140.8060 C   0  0  0  0  0  3  0  0  0  0  0  0
  185.1300  178.5020  144.6630 C   0  0  0  0  0  3  0  0  0  0  0  0
  189.9510  177.7940  138.4730 C   0  0  0  0  0  3  0  0  0  0  0  0
  188.6370  178.1860  138.7190 C   0  0  0  0  0  3  0  0  0  0  0  0
  188.8820  177.6600  141.0710 C   0  0  0  0  0  0  0  0  0  0  0  0
  181.9640  179.4220  139.6320 C   0  0  0  0  0  3  0  0  0  0  0  0
  184.4900  178.8470  140.6540 C   0  0  0  0  0  0  0  0  0  0  0  0
  183.3400  178.4110  141.3300 C   0  0  0  0  0  3  0  0  0  0  0  0
  182.0730  178.7030  140.8240 C   0  0  0  0  0  3  0  0  0  0  0  0
  183.0850  179.8240  138.9740 N   0  0  0  0  0  0  0  0  0  0  0  0
  184.3290  179.5490  139.4520 C   0  0  0  0  0  3  0  0  0  0  0  0
  1 12  1  0  0  0  0
  2 16  1  0  0  0  0
  2  6  1  0  0  0  0
  3 16  1  0  0  0  0
  4 13  1  0  0  0  0
  6 18  2  0  0  0  0
  7  9  1  0  0  0  0
  8 17  2  0  0  0  0
  9 13  2  0  0  0  0
 10  8  1  0  0  0  0
 11  7  1  0  0  0  0
 11 14  1  0  0  0  0
 12  2  2  0  0  0  0
 13  5  1  0  0  0  0
 14  4  2  0  0  0  0
 15  1  2  0  0  0  0
 15 21  1  0  0  0  0
 16 11  2  0  0  0  0
 17 21  1  0  0  0  0
 18 14  1  0  0  0  0
 19 20  2  0  0  0  0
 19  8  1  0  0  0  0
 20 15  1  0  0  0  0
 21  3  2  0  0  0  0
 22 25  1  0  0  0  0
 23 12  1  0  0  0  0
 23 24  1  0  0  0  0
 25 24  2  0  0  0  0
 26 27  1  0  0  0  0
 26 22  2  0  0  0  0
 27 23  2  0  0  0  0
M  END
>  <MODEL>
7

>  <REMARK>
 VINA RESULT:     -10.6      1.908      2.810
  Name = 
  1 active torsions:
  status: ('A' for Active; 'I' for Inactive)
    1  A    between atoms: C_9  and  C_15
                            x       y       z     vdW  Elec       q    Type
                         _______ _______ _______ _____ _____    ______ ____

>  <TORSDO>
F 1

$$$$
=
 OpenBabel11052413453D

 27 31  0  0  0  0  0  0  0  0999 V2000
  187.5180  177.4860  145.2720 N   0  0  0  0  0  0  0  0  0  0  0  0
  187.5800  177.8330  142.8130 C   0  0  0  0  0  0  0  0  0  0  0  0
  189.9030  177.2190  143.6320 N   0  0  0  0  0  0  0  0  0  0  0  0
  189.0460  177.7420  138.9360 C   0  0  0  0  0  3  0  0  0  0  0  0
  190.8520  177.3960  137.3290 F   0  0  0  0  0  0  0  0  0  0  0  0
  186.8190  178.1050  141.7110 N   0  0  0  0  0  0  0  0  0  0  0  0
  190.9070  177.1260  141.0420 C   0  0  0  0  0  3  0  0  0  0  0  0
  191.1420  176.4750  146.9010 C   0  0  0  0  0  0  0  0  0  0  0  0
  191.3070  177.1240  139.5910 C   0  0  0  0  0  3  0  0  0  0  0  0
  192.4450  176.1310  147.5280 C   0  0  0  0  0  1  0  0  0  0  0  0
  189.4480  177.4710  141.2820 C   0  0  0  0  0  0  0  0  0  0  0  0
  186.9570  177.8880  144.0170 C   0  0  0  0  0  0  0  0  0  0  0  0
  190.4430  177.4110  138.6190 C   0  0  0  0  0  0  0  0  0  0  0  0
  188.6030  177.7630  140.1960 C   0  0  0  0  0  0  0  0  0  0  0  0
  188.6860  177.1340  145.7010 C   0  0  0  0  0  0  0  0  0  0  0  0
  188.9460  177.5000  142.6050 C   0  0  0  0  0  0  0  0  0  0  0  0
  191.0700  176.7330  145.5340 C   0  0  0  0  0  2  0  0  0  0  0  0
  187.2810  178.0800  140.4400 C   0  0  0  0  0  3  0  0  0  0  0  0
  189.9870  176.5290  147.6730 C   0  0  0  0  0  3  0  0  0  0  0  0
  188.7740  176.8580  147.0730 C   0  0  0  0  0  3  0  0  0  0  0  0
  189.8540  177.0550  144.9140 C   0  0  0  0  0  0  0  0  0  0  0  0
  182.9310  179.2740  144.3480 C   0  0  0  0  0  3  0  0  0  0  0  0
  185.5410  178.3320  144.1140 C   0  0  0  0  0  0  0  0  0  0  0  0
  184.7020  178.3700  142.9900 C   0  0  0  0  0  3  0  0  0  0  0  0
  183.3920  178.8350  143.1050 C   0  0  0  0  0  3  0  0  0  0  0  0
  183.7570  179.2500  145.4280 N   0  0  0  0  0  0  0  0  0  0  0  0
  185.0380  178.7990  145.3360 C   0  0  0  0  0  3  0  0  0  0  0  0
  1 15  1  0  0  0  0
  2 12  1  0  0  0  0
  3 21  2  0  0  0  0
  4 14  1  0  0  0  0
  5 13  1  0  0  0  0
  6  2  2  0  0  0  0
  7 11  1  0  0  0  0
  8 10  1  0  0  0  0
  8 19  2  0  0  0  0
  9  7  2  0  0  0  0
 11 16  2  0  0  0  0
 12 23  1  0  0  0  0
 12  1  2  0  0  0  0
 13  4  2  0  0  0  0
 13  9  1  0  0  0  0
 14 18  2  0  0  0  0
 14 11  1  0  0  0  0
 15 20  2  0  0  0  0
 16  2  1  0  0  0  0
 16  3  1  0  0  0  0
 17  8  1  0  0  0  0
 18  6  1  0  0  0  0
 20 19  1  0  0  0  0
 21 17  1  0  0  0  0
 21 15  1  0  0  0  0
 22 26  1  0  0  0  0
 23 27  1  0  0  0  0
 24 25  1  0  0  0  0
 24 23  2  0  0  0  0
 25 22  2  0  0  0  0
 27 26  2  0  0  0  0
M  END
>  <MODEL>
8

>  <REMARK>
 VINA RESULT:     -10.5      2.352      5.584
  Name = 
  1 active torsions:
  status: ('A' for Active; 'I' for Inactive)
    1  A    between atoms: C_9  and  C_15
                            x       y       z     vdW  Elec       q    Type
                         _______ _______ _______ _____ _____    ______ ____

>  <TORSDO>
F 1

$$$$
=
 OpenBabel11052413453D

 27 31  0  0  0  0  0  0  0  0999 V2000
  187.4360  177.9060  144.4670 N   0  0  0  0  0  0  0  0  0  0  0  0
  188.8020  177.6500  142.4080 C   0  0  0  0  0  0  0  0  0  0  0  0
  186.4060  178.1840  141.7640 N   0  0  0  0  0  0  0  0  0  0  0  0
  189.8110  177.8580  138.3920 C   0  0  0  0  0  3  0  0  0  0  0  0
  189.2340  178.2260  136.0480 F   0  0  0  0  0  0  0  0  0  0  0  0
  190.0670  177.4370  141.9350 N   0  0  0  0  0  0  0  0  0  0  0  0
  187.0580  178.3530  139.0670 C   0  0  0  0  0  3  0  0  0  0  0  0
  183.4940  178.7770  143.7500 C   0  0  0  0  0  0  0  0  0  0  0  0
  187.5580  178.4020  137.6480 C   0  0  0  0  0  3  0  0  0  0  0  0
  182.0540  179.0690  143.5260 C   0  0  0  0  0  1  0  0  0  0  0  0
  188.1310  178.0310  140.0920 C   0  0  0  0  0  0  0  0  0  0  0  0
  188.6280  177.5630  143.7510 C   0  0  0  0  0  0  0  0  0  0  0  0
  188.8330  178.1710  137.3400 C   0  0  0  0  0  0  0  0  0  0  0  0
  189.4550  177.7980  139.6780 C   0  0  0  0  0  0  0  0  0  0  0  0
  186.2200  178.2160  144.1580 C   0  0  0  0  0  0  0  0  0  0  0  0
  187.7880  177.9620  141.4630 C   0  0  0  0  0  0  0  0  0  0  0  0
  184.3440  178.5730  142.6650 C   0  0  0  0  0  2  0  0  0  0  0  0
  190.4120  177.5000  140.6280 C   0  0  0  0  0  3  0  0  0  0  0  0
  184.0030  178.7180  145.0430 C   0  0  0  0  0  3  0  0  0  0  0  0
  185.3530  178.4370  145.2380 C   0  0  0  0  0  3  0  0  0  0  0  0
  185.7080  178.3000  142.8460 C   0  0  0  0  0  0  0  0  0  0  0  0
  191.7680  176.3050  146.3580 C   0  0  0  0  0  3  0  0  0  0  0  0
  189.7510  177.1460  144.6330 C   0  0  0  0  0  0  0  0  0  0  0  0
  190.8440  176.4180  144.1380 C   0  0  0  0  0  3  0  0  0  0  0  0
  191.8590  176.0000  144.9990 C   0  0  0  0  0  3  0  0  0  0  0  0
  190.6960  176.9960  146.8310 N   0  0  0  0  0  0  0  0  0  0  0  0
  189.6960  177.4120  146.0080 C   0  0  0  0  0  3  0  0  0  0  0  0
  2 12  1  0  0  0  0
  3 21  2  0  0  0  0
  4 14  1  0  0  0  0
  5 13  1  0  0  0  0
  6  2  1  0  0  0  0
  7 11  1  0  0  0  0
  8 19  2  0  0  0  0
  9  7  2  0  0  0  0
 10  8  1  0  0  0  0
 11 16  1  0  0  0  0
 12  1  2  0  0  0  0
 12 23  1  0  0  0  0
 13  9  1  0  0  0  0
 13  4  2  0  0  0  0
 14 11  2  0  0  0  0
 14 18  1  0  0  0  0
 15  1  1  0  0  0  0
 15 20  2  0  0  0  0
 16  3  1  0  0  0  0
 16  2  2  0  0  0  0
 17 21  1  0  0  0  0
 17  8  1  0  0  0  0
 18  6  2  0  0  0  0
 19 20  1  0  0  0  0
 21 15  1  0  0  0  0
 22 26  1  0  0  0  0
 23 27  1  0  0  0  0
 24 23  2  0  0  0  0
 24 25  1  0  0  0  0
 25 22  2  0  0  0  0
 27 26  2  0  0  0  0
M  END
>  <MODEL>
9

>  <REMARK>
 VINA RESULT:     -10.4      2.707      7.178
  Name = 
  1 active torsions:
  status: ('A' for Active; 'I' for Inactive)
    1  A    between atoms: C_9  and  C_15
                            x       y       z     vdW  Elec       q    Type
                         _______ _______ _______ _____ _____    ______ ____

>  <TORSDO>
F 1

$$$$
