=
 OpenBabel11052415013D

 55 59  0  0  1  0  0  0  0  0999 V2000
  184.7670  176.7210  137.0280 C   0  0  1  0  0  3  0  0  0  0  0  0
  183.0520  177.8400  140.6830 C   0  0  0  0  0  2  0  0  0  0  0  0
  178.9310  174.0660  135.6770 C   0  0  0  0  0  2  0  0  0  0  0  0
  183.8580  178.7620  139.7830 C   0  0  0  0  0  2  0  0  0  0  0  0
  180.3660  178.6070  138.7810 O   0  0  0  0  0  0  0  0  0  0  0  0
  180.5470  176.3160  139.4160 C   0  0  2  0  0  3  0  0  0  0  0  0
  179.8390  175.8200  140.5160 O   0  0  0  0  0  1  0  0  0  0  0  0
  186.7630  177.7990  137.9810 C   0  0  0  0  0  0  0  0  0  0  0  0
  180.8000  177.7990  139.5920 C   0  0  0  0  0  0  0  0  0  0  0  0
  185.3400  178.4380  139.9010 C   0  0  1  0  0  3  0  0  0  0  0  0
  183.9280  176.6910  135.7620 C   0  0  0  0  0  2  0  0  0  0  0  0
  186.0980  178.9440  138.6810 C   0  0  0  0  0  2  0  0  0  0  0  0
  181.1770  173.0000  136.3040 C   0  0  2  0  0  3  0  0  0  0  0  0
  181.8230  176.2490  136.7510 C   0  0  0  0  0  3  0  0  0  0  0  0
  179.7680  175.3390  135.7490 C   0  0  0  0  0  2  0  0  0  0  0  0
  179.7710  176.0060  138.1350 C   0  0  0  0  0  2  0  0  0  0  0  0
  181.0820  173.9780  137.4780 C   0  0  0  0  0  2  0  0  0  0  0  0
  185.9110  175.7440  136.8940 C   0  0  0  0  0  2  0  0  0  0  0  0
  186.1630  177.2330  136.7270 C   0  0  1  0  0  3  0  0  0  0  0  0
  181.6090  178.3170  140.7530 C   0  0  1  0  0  3  0  0  0  0  0  0
  179.8170  172.8220  135.6050 C   0  0  0  0  0  2  0  0  0  0  0  0
  182.7660  175.8650  135.9700 N   0  0  0  0  0  0  0  0  0  0  0  0
  180.6260  175.3840  137.0230 C   0  0  2  0  0  0  0  0  0  0  0  0
  187.8140  177.3520  138.4170 O   0  0  0  0  0  0  0  0  0  0  0  0
  181.8100  171.6790  136.7240 C   0  0  0  0  0  3  0  0  0  0  0  0
  183.2660  171.8720  137.0780 C   0  0  0  0  0  1  0  0  0  0  0  0
  181.6680  170.6070  135.6580 C   0  0  0  0  0  1  0  0  0  0  0  0
  181.0350  177.9310  141.9760 O   0  0  0  0  0  0  0  0  0  0  0  0
  180.4940  180.1650  142.0530 F   0  0  0  0  0  0  0  0  0  0  0  0
  182.1390  179.3690  143.3980 F   0  0  0  0  0  0  0  0  0  0  0  0
  179.9100  178.8010  143.8740 C   0  0  0  0  0  1  0  0  0  0  0  0
  180.9280  179.0750  142.7910 C   0  0  0  0  0  0  0  0  0  0  0  0
  185.9430  178.9430  141.2210 C   0  0  0  0  0  2  0  0  0  0  0  0
  187.2830  178.2950  141.5750 C   0  0  0  0  0  2  0  0  0  0  0  0
  185.9760  177.5260  143.4410 O   0  0  0  0  0  1  0  0  0  0  0  0
  187.2820  177.7280  142.9890 C   0  0  1  0  0  3  0  0  0  0  0  0
  188.0970  176.4380  143.0650 C   0  0  0  0  0  2  0  0  0  0  0  0
  189.5840  176.6250  142.7520 C   0  0  2  0  0  3  0  0  0  0  0  0
  190.8490  175.9230  139.3050 N   0  0  0  0  0  1  0  0  0  0  0  0
  189.9120  176.0360  141.4540 N   0  0  0  0  0  0  0  0  0  0  0  0
  190.6110  176.6120  140.5250 C   0  0  0  0  0  0  0  0  0  0  0  0
  191.1510  177.9230  140.7040 N   0  0  0  0  0  1  0  0  0  0  0  0
  190.3850  176.0740  143.7610 O   0  0  0  0  0  0  0  0  0  0  0  0
  191.2390  176.3530  146.7110 C   0  0  2  0  0  3  0  0  0  0  0  0
  191.1800  177.1190  144.2440 C   0  0  1  0  0  3  0  0  0  0  0  0
  187.8560  177.1880  147.8510 C   0  0  0  0  0  2  0  0  0  0  0  0
  190.3180  179.4000  143.9900 C   0  0  0  0  0  2  0  0  0  0  0  0
  190.3210  178.2700  144.6970 C   0  0  0  0  0  0  0  0  0  0  0  0
  191.2950  174.8730  147.0430 C   0  0  0  0  0  1  0  0  0  0  0  0
  187.7220  178.5730  147.2010 C   0  0  0  0  0  2  0  0  0  0  0  0
  188.2710  178.5390  145.9040 O   0  0  0  0  0  0  0  0  0  0  0  0
  189.7730  176.8180  146.6670 C   0  0  2  0  0  3  0  0  0  0  0  0
  189.6390  178.2200  146.0330 C   0  0  1  0  0  3  0  0  0  0  0  0
  189.2190  176.8350  147.9680 O   0  0  0  0  0  0  0  0  0  0  0  0
  192.0280  176.6170  145.4150 C   0  0  0  0  0  2  0  0  0  0  0  0
  1 11  1  6  0  0  0
  2 20  1  0  0  0  0
  3 15  1  0  0  0  0
  4 10  1  0  0  0  0
  4  2  1  0  0  0  0
  5  9  2  0  0  0  0
  6  9  1  0  0  0  0
  6  7  1  1  0  0  0
  8 24  2  0  0  0  0
  8 12  1  0  0  0  0
  9 20  1  0  0  0  0
 10 33  1  1  0  0  0
 11 22  1  0  0  0  0
 12 10  1  0  0  0  0
 13 25  1  1  0  0  0
 13 17  1  0  0  0  0
 14 23  1  0  0  0  0
 16  6  1  0  0  0  0
 18  1  1  0  0  0  0
 19 18  1  1  0  0  0
 19  1  1  0  0  0  0
 19  8  1  0  0  0  0
 20 28  1  1  0  0  0
 21  3  1  0  0  0  0
 21 13  1  0  0  0  0
 22 14  2  0  0  0  0
 23 15  1  6  0  0  0
 23 17  1  0  0  0  0
 23 16  1  0  0  0  0
 25 26  1  0  0  0  0
 27 25  1  0  0  0  0
 28 32  1  0  0  0  0
 29 32  1  0  0  0  0
 32 30  1  0  0  0  0
 32 31  1  0  0  0  0
 33 34  1  0  0  0  0
 34 36  1  0  0  0  0
 36 37  1  0  0  0  0
 36 35  1  6  0  0  0
 38 37  1  1  0  0  0
 38 43  1  0  0  0  0
 39 41  1  0  0  0  0
 40 38  1  0  0  0  0
 41 42  1  0  0  0  0
 41 40  2  0  0  0  0
 44 49  1  6  0  0  0
 45 43  1  1  0  0  0
 45 48  1  0  0  0  0
 45 55  1  0  0  0  0
 46 54  1  0  0  0  0
 47 48  2  0  0  0  0
 50 46  1  0  0  0  0
 51 53  1  0  0  0  0
 51 50  1  0  0  0  0
 52 44  1  0  0  0  0
 52 54  1  1  0  0  0
 53 48  1  6  0  0  0
 53 52  1  0  0  0  0
 55 44  1  0  0  0  0
M  END
>  <MODEL>
1

>  <REMARK>
 VINA RESULT:      -7.4      0.000      0.000
  Name = 
  11 active torsions:
  status: ('A' for Active; 'I' for Inactive)
    1  A    between atoms: C_6  and  O_46
    2  A    between atoms: N_8  and  C_22
    3  A    between atoms: C_10  and  C_32
    4  A    between atoms: O_19  and  C_40
    5  A    between atoms: O_19  and  C_45
    6  A    between atoms: C_22  and  C_35
    7  A    between atoms: C_22  and  O_46
    8  A    between atoms: C_27  and  C_54
    9  A    between atoms: C_35  and  C_43
   10  A    between atoms: C_43  and  C_51
   11  A    between atoms: C_51  and  C_54
                            x       y       z     vdW  Elec       q    Type
                         _______ _______ _______ _____ _____    ______ ____

>  <TORSDO>
F 11

$$$$
=
 OpenBabel11052415013D

 55 59  0  0  1  0  0  0  0  0999 V2000
  184.9870  176.2640  135.7950 C   0  0  1  0  0  3  0  0  0  0  0  0
  183.5850  177.5840  139.5160 C   0  0  0  0  0  2  0  0  0  0  0  0
  178.9910  173.7480  134.9920 C   0  0  0  0  0  2  0  0  0  0  0  0
  184.3490  178.4430  138.5210 C   0  0  0  0  0  2  0  0  0  0  0  0
  180.7880  178.3610  137.7860 O   0  0  0  0  0  0  0  0  0  0  0  0
  180.9490  176.0930  138.5030 C   0  0  2  0  0  3  0  0  0  0  0  0
  180.3110  175.6650  139.6730 O   0  0  0  0  0  1  0  0  0  0  0  0
  187.0800  177.3140  136.5510 C   0  0  0  0  0  0  0  0  0  0  0  0
  181.2570  177.5730  138.5970 C   0  0  0  0  0  0  0  0  0  0  0  0
  185.8250  178.0760  138.5420 C   0  0  1  0  0  3  0  0  0  0  0  0
  184.0550  176.2100  134.5970 C   0  0  0  0  0  2  0  0  0  0  0  0
  186.5040  178.5070  137.2490 C   0  0  0  0  0  2  0  0  0  0  0  0
  181.2450  172.6350  135.4970 C   0  0  2  0  0  3  0  0  0  0  0  0
  182.0180  175.8770  135.7560 C   0  0  0  0  0  3  0  0  0  0  0  0
  179.8680  174.9940  134.9490 C   0  0  0  0  0  2  0  0  0  0  0  0
  180.0690  175.7570  137.2970 C   0  0  0  0  0  2  0  0  0  0  0  0
  181.2680  173.6630  136.6320 C   0  0  0  0  0  2  0  0  0  0  0  0
  186.0890  175.2460  135.6190 C   0  0  0  0  0  2  0  0  0  0  0  0
  186.3710  176.7180  135.3700 C   0  0  1  0  0  3  0  0  0  0  0  0
  182.1670  178.1110  139.6710 C   0  0  1  0  0  3  0  0  0  0  0  0
  179.8320  172.4740  134.9090 C   0  0  0  0  0  2  0  0  0  0  0  0
  182.8880  175.4310  134.9250 N   0  0  0  0  0  0  0  0  0  0  0  0
  180.8200  175.0630  136.1520 C   0  0  2  0  0  0  0  0  0  0  0  0
  188.1480  176.8510  136.9270 O   0  0  0  0  0  0  0  0  0  0  0  0
  181.8690  171.3130  135.9250 C   0  0  0  0  0  3  0  0  0  0  0  0
  183.3770  171.4060  135.9220 C   0  0  0  0  0  1  0  0  0  0  0  0
  181.4140  170.1530  135.0570 C   0  0  0  0  0  1  0  0  0  0  0  0
  181.6750  177.7930  140.9490 O   0  0  0  0  0  0  0  0  0  0  0  0
  179.5160  178.5080  141.2910 F   0  0  0  0  0  0  0  0  0  0  0  0
  181.0950  180.0010  140.6390 F   0  0  0  0  0  0  0  0  0  0  0  0
  181.1720  179.1510  142.8280 C   0  0  0  0  0  1  0  0  0  0  0  0
  180.8550  178.8540  141.3800 C   0  0  0  0  0  0  0  0  0  0  0  0
  186.5400  178.6130  139.7910 C   0  0  0  0  0  2  0  0  0  0  0  0
  187.9760  178.1120  139.9440 C   0  0  0  0  0  2  0  0  0  0  0  0
  189.5540  177.1540  141.4850 O   0  0  0  0  0  1  0  0  0  0  0  0
  188.1990  177.4300  141.2870 C   0  0  1  0  0  3  0  0  0  0  0  0
  187.6350  178.2690  142.4320 C   0  0  0  0  0  2  0  0  0  0  0  0
  187.2210  177.4480  143.6560 C   0  0  2  0  0  3  0  0  0  0  0  0
  184.2730  179.2700  145.0570 N   0  0  0  0  0  1  0  0  0  0  0  0
  186.2850  178.2060  144.4880 N   0  0  0  0  0  0  0  0  0  0  0  0
  185.0730  178.5250  144.1510 C   0  0  0  0  0  0  0  0  0  0  0  0
  184.5240  178.1360  142.8900 N   0  0  0  0  0  1  0  0  0  0  0  0
  188.3400  177.0570  144.4040 O   0  0  0  0  0  0  0  0  0  0  0  0
  191.1830  178.1810  144.8050 C   0  0  2  0  0  3  0  0  0  0  0  0
  188.6390  178.1300  145.2500 C   0  0  1  0  0  3  0  0  0  0  0  0
  192.3410  175.2290  146.6440 C   0  0  0  0  0  2  0  0  0  0  0  0
  188.1070  177.8700  147.6290 C   0  0  0  0  0  2  0  0  0  0  0  0
  188.9640  177.6360  146.6350 C   0  0  0  0  0  0  0  0  0  0  0  0
  191.7150  177.8780  143.4150 C   0  0  0  0  0  1  0  0  0  0  0  0
  191.5110  175.4070  147.9240 C   0  0  0  0  0  2  0  0  0  0  0  0
  190.2090  175.8250  147.5870 O   0  0  0  0  0  0  0  0  0  0  0  0
  191.1380  176.8860  145.6340 C   0  0  2  0  0  3  0  0  0  0  0  0
  190.3220  177.0710  146.9330 C   0  0  1  0  0  3  0  0  0  0  0  0
  192.4470  176.4590  145.9580 O   0  0  0  0  0  0  0  0  0  0  0  0
  189.8300  178.9080  144.6880 C   0  0  0  0  0  2  0  0  0  0  0  0
  1 11  1  6  0  0  0
  2 20  1  0  0  0  0
  4 10  1  0  0  0  0
  4  2  1  0  0  0  0
  5  9  2  0  0  0  0
  6  9  1  0  0  0  0
  6  7  1  1  0  0  0
  8 24  2  0  0  0  0
  8 12  1  0  0  0  0
  9 20  1  0  0  0  0
 10 33  1  1  0  0  0
 11 22  1  0  0  0  0
 12 10  1  0  0  0  0
 13 25  1  1  0  0  0
 13 17  1  0  0  0  0
 14 23  1  0  0  0  0
 15  3  1  0  0  0  0
 16  6  1  0  0  0  0
 18  1  1  0  0  0  0
 19 18  1  1  0  0  0
 19  1  1  0  0  0  0
 19  8  1  0  0  0  0
 20 28  1  1  0  0  0
 21  3  1  0  0  0  0
 21 13  1  0  0  0  0
 22 14  2  0  0  0  0
 23 15  1  6  0  0  0
 23 17  1  0  0  0  0
 23 16  1  0  0  0  0
 26 25  1  0  0  0  0
 27 25  1  0  0  0  0
 28 32  1  0  0  0  0
 29 32  1  0  0  0  0
 30 32  1  0  0  0  0
 32 31  1  0  0  0  0
 33 34  1  0  0  0  0
 34 36  1  0  0  0  0
 36 35  1  1  0  0  0
 36 37  1  0  0  0  0
 38 37  1  6  0  0  0
 38 43  1  0  0  0  0
 38 40  1  0  0  0  0
 41 40  2  0  0  0  0
 41 39  1  0  0  0  0
 42 41  1  0  0  0  0
 44 49  1  6  0  0  0
 44 52  1  0  0  0  0
 45 43  1  6  0  0  0
 45 48  1  0  0  0  0
 46 50  1  0  0  0  0
 48 47  2  0  0  0  0
 51 50  1  0  0  0  0
 52 54  1  1  0  0  0
 52 53  1  0  0  0  0
 53 48  1  6  0  0  0
 53 51  1  0  0  0  0
 54 46  1  0  0  0  0
 55 44  1  0  0  0  0
 55 45  1  0  0  0  0
M  END
>  <MODEL>
2

>  <REMARK>
 VINA RESULT:      -7.2      1.959      2.924
  Name = 
  11 active torsions:
  status: ('A' for Active; 'I' for Inactive)
    1  A    between atoms: C_6  and  O_46
    2  A    between atoms: N_8  and  C_22
    3  A    between atoms: C_10  and  C_32
    4  A    between atoms: O_19  and  C_40
    5  A    between atoms: O_19  and  C_45
    6  A    between atoms: C_22  and  C_35
    7  A    between atoms: C_22  and  O_46
    8  A    between atoms: C_27  and  C_54
    9  A    between atoms: C_35  and  C_43
   10  A    between atoms: C_43  and  C_51
   11  A    between atoms: C_51  and  C_54
                            x       y       z     vdW  Elec       q    Type
                         _______ _______ _______ _____ _____    ______ ____

>  <TORSDO>
F 11

$$$$
=
 OpenBabel11052415013D

 55 59  0  0  1  0  0  0  0  0999 V2000
  184.5180  176.7100  136.6320 C   0  0  1  0  0  3  0  0  0  0  0  0
  182.2840  177.6320  140.0540 C   0  0  0  0  0  2  0  0  0  0  0  0
  179.5400  172.7500  135.0630 C   0  0  0  0  0  2  0  0  0  0  0  0
  182.9480  178.6560  139.1480 C   0  0  0  0  0  2  0  0  0  0  0  0
  179.6760  177.6700  137.9060 O   0  0  0  0  0  0  0  0  0  0  0  0
  180.2920  175.5180  138.7280 C   0  0  2  0  0  3  0  0  0  0  0  0
  179.6140  174.9430  139.8070 O   0  0  0  0  0  1  0  0  0  0  0  0
  186.1410  178.2590  137.6430 C   0  0  0  0  0  0  0  0  0  0  0  0
  180.2010  177.0280  138.8070 C   0  0  0  0  0  0  0  0  0  0  0  0
  184.4490  178.6770  139.3990 C   0  0  1  0  0  3  0  0  0  0  0  0
  183.8220  176.4200  135.3140 C   0  0  0  0  0  2  0  0  0  0  0  0
  185.1840  179.2660  138.2030 C   0  0  0  0  0  2  0  0  0  0  0  0
  181.8990  172.2480  135.9340 C   0  0  2  0  0  3  0  0  0  0  0  0
  181.7830  175.5800  136.1760 C   0  0  0  0  0  3  0  0  0  0  0  0
  180.0720  174.1780  135.0990 C   0  0  0  0  0  2  0  0  0  0  0  0
  179.7180  174.9690  137.4210 C   0  0  0  0  0  2  0  0  0  0  0  0
  181.4910  173.2480  137.0190 C   0  0  0  0  0  2  0  0  0  0  0  0
  185.8540  176.0060  136.6580 C   0  0  0  0  0  2  0  0  0  0  0  0
  185.7910  177.5020  136.3960 C   0  0  1  0  0  3  0  0  0  0  0  0
  180.7720  177.7800  139.9810 C   0  0  1  0  0  3  0  0  0  0  0  0
  180.6780  171.7320  135.1530 C   0  0  0  0  0  2  0  0  0  0  0  0
  182.8520  175.3700  135.4990 N   0  0  0  0  0  0  0  0  0  0  0  0
  180.7830  174.4880  136.4250 C   0  0  2  0  0  0  0  0  0  0  0  0
  187.2210  178.0840  138.1890 O   0  0  0  0  0  0  0  0  0  0  0  0
  182.7630  171.1280  136.4990 C   0  0  0  0  0  3  0  0  0  0  0  0
  183.9520  171.6920  137.2430 C   0  0  0  0  0  1  0  0  0  0  0  0
  183.2290  170.1610  135.4260 C   0  0  0  0  0  1  0  0  0  0  0  0
  180.1890  177.3480  141.1850 O   0  0  0  0  0  0  0  0  0  0  0  0
  178.9310  179.2300  141.5940 F   0  0  0  0  0  0  0  0  0  0  0  0
  181.1560  179.2570  142.0400 F   0  0  0  0  0  0  0  0  0  0  0  0
  179.7370  177.9940  143.4220 C   0  0  0  0  0  1  0  0  0  0  0  0
  180.0130  178.4730  142.0150 C   0  0  0  0  0  0  0  0  0  0  0  0
  184.8080  179.3800  140.7170 C   0  0  0  0  0  2  0  0  0  0  0  0
  185.9640  178.7220  141.4720 C   0  0  0  0  0  2  0  0  0  0  0  0
  184.2150  178.2760  143.0610 O   0  0  0  0  0  1  0  0  0  0  0  0
  185.5970  178.4210  142.9190 C   0  0  1  0  0  3  0  0  0  0  0  0
  186.3350  177.1840  143.4290 C   0  0  0  0  0  2  0  0  0  0  0  0
  187.8600  177.2900  143.3370 C   0  0  2  0  0  3  0  0  0  0  0  0
  189.4530  176.3470  140.0890 N   0  0  0  0  0  1  0  0  0  0  0  0
  188.3500  176.5960  142.1470 N   0  0  0  0  0  0  0  0  0  0  0  0
  189.0440  177.1410  141.1950 C   0  0  0  0  0  0  0  0  0  0  0  0
  189.4110  178.5210  141.2380 N   0  0  0  0  0  1  0  0  0  0  0  0
  188.4710  176.7820  144.4920 O   0  0  0  0  0  0  0  0  0  0  0  0
  191.2180  178.0920  144.9800 C   0  0  2  0  0  3  0  0  0  0  0  0
  188.6700  177.8750  145.3410 C   0  0  1  0  0  3  0  0  0  0  0  0
  192.5050  175.2290  146.8750 C   0  0  0  0  0  2  0  0  0  0  0  0
  188.0770  177.5890  147.7030 C   0  0  0  0  0  2  0  0  0  0  0  0
  188.9800  177.4090  146.7390 C   0  0  0  0  0  0  0  0  0  0  0  0
  191.8150  177.8190  143.6110 C   0  0  0  0  0  1  0  0  0  0  0  0
  191.6230  175.3570  148.1250 C   0  0  0  0  0  2  0  0  0  0  0  0
  190.3080  175.6880  147.7430 O   0  0  0  0  0  0  0  0  0  0  0  0
  191.2310  176.8000  145.8150 C   0  0  2  0  0  3  0  0  0  0  0  0
  190.3610  176.9350  147.0850 C   0  0  1  0  0  3  0  0  0  0  0  0
  192.5530  176.4610  146.1850 O   0  0  0  0  0  0  0  0  0  0  0  0
  189.8260  178.7280  144.8140 C   0  0  0  0  0  2  0  0  0  0  0  0
  1 11  1  6  0  0  0
  1 18  1  0  0  0  0
  3 15  1  0  0  0  0
  3 21  1  0  0  0  0
  4 10  1  0  0  0  0
  4  2  1  0  0  0  0
  5  9  2  0  0  0  0
  6  9  1  0  0  0  0
  6  7  1  1  0  0  0
  8 24  2  0  0  0  0
  8 12  1  0  0  0  0
  9 20  1  0  0  0  0
 10 33  1  1  0  0  0
 11 22  1  0  0  0  0
 12 10  1  0  0  0  0
 13 25  1  1  0  0  0
 13 17  1  0  0  0  0
 14 23  1  0  0  0  0
 16  6  1  0  0  0  0
 19  1  1  0  0  0  0
 19 18  1  1  0  0  0
 19  8  1  0  0  0  0
 20  2  1  0  0  0  0
 20 28  1  1  0  0  0
 21 13  1  0  0  0  0
 22 14  2  0  0  0  0
 23 15  1  6  0  0  0
 23 17  1  0  0  0  0
 23 16  1  0  0  0  0
 25 26  1  0  0  0  0
 27 25  1  0  0  0  0
 28 32  1  0  0  0  0
 29 32  1  0  0  0  0
 32 30  1  0  0  0  0
 32 31  1  0  0  0  0
 33 34  1  0  0  0  0
 34 36  1  0  0  0  0
 36 35  1  6  0  0  0
 36 37  1  0  0  0  0
 38 37  1  1  0  0  0
 38 43  1  0  0  0  0
 39 41  1  0  0  0  0
 40 38  1  0  0  0  0
 41 42  1  0  0  0  0
 41 40  2  0  0  0  0
 44 49  1  6  0  0  0
 44 52  1  0  0  0  0
 45 43  1  6  0  0  0
 45 48  1  0  0  0  0
 46 50  1  0  0  0  0
 48 47  2  0  0  0  0
 51 50  1  0  0  0  0
 52 54  1  1  0  0  0
 52 53  1  0  0  0  0
 53 48  1  6  0  0  0
 53 51  1  0  0  0  0
 54 46  1  0  0  0  0
 55 44  1  0  0  0  0
 55 45  1  0  0  0  0
M  END
>  <MODEL>
3

>  <REMARK>
 VINA RESULT:      -7.0      1.249      2.093
  Name = 
  11 active torsions:
  status: ('A' for Active; 'I' for Inactive)
    1  A    between atoms: C_6  and  O_46
    2  A    between atoms: N_8  and  C_22
    3  A    between atoms: C_10  and  C_32
    4  A    between atoms: O_19  and  C_40
    5  A    between atoms: O_19  and  C_45
    6  A    between atoms: C_22  and  C_35
    7  A    between atoms: C_22  and  O_46
    8  A    between atoms: C_27  and  C_54
    9  A    between atoms: C_35  and  C_43
   10  A    between atoms: C_43  and  C_51
   11  A    between atoms: C_51  and  C_54
                            x       y       z     vdW  Elec       q    Type
                         _______ _______ _______ _____ _____    ______ ____

>  <TORSDO>
F 11

$$$$
=
 OpenBabel11052415013D

 55 59  0  0  1  0  0  0  0  0999 V2000
  184.6670  176.3060  136.2580 C   0  0  1  0  0  3  0  0  0  0  0  0
  182.8050  177.4840  139.8220 C   0  0  0  0  0  2  0  0  0  0  0  0
  179.2190  172.8380  135.1480 C   0  0  0  0  0  2  0  0  0  0  0  0
  183.4940  178.4270  138.8480 C   0  0  0  0  0  2  0  0  0  0  0  0
  180.0540  177.7540  137.8780 O   0  0  0  0  0  0  0  0  0  0  0  0
  180.5190  175.5610  138.6910 C   0  0  2  0  0  3  0  0  0  0  0  0
  179.8740  175.0690  139.8300 O   0  0  0  0  0  1  0  0  0  0  0  0
  186.5060  177.6990  137.1130 C   0  0  0  0  0  0  0  0  0  0  0  0
  180.5820  177.0740  138.7490 C   0  0  0  0  0  0  0  0  0  0  0  0
  185.0040  178.3020  138.9840 C   0  0  1  0  0  3  0  0  0  0  0  0
  183.8450  176.0710  135.0030 C   0  0  0  0  0  2  0  0  0  0  0  0
  185.6980  178.8020  137.7250 C   0  0  0  0  0  2  0  0  0  0  0  0
  181.5780  172.1160  135.8470 C   0  0  2  0  0  3  0  0  0  0  0  0
  181.8070  175.4460  136.0330 C   0  0  0  0  0  3  0  0  0  0  0  0
  179.8890  174.2080  135.1160 C   0  0  0  0  0  2  0  0  0  0  0  0
  179.7950  175.0570  137.4420 C   0  0  0  0  0  2  0  0  0  0  0  0
  181.3550  173.1650  136.9410 C   0  0  0  0  0  2  0  0  0  0  0  0
  185.9250  175.4740  136.1960 C   0  0  0  0  0  2  0  0  0  0  0  0
  185.9880  176.9650  135.9110 C   0  0  1  0  0  3  0  0  0  0  0  0
  181.3140  177.7800  139.8610 C   0  0  1  0  0  3  0  0  0  0  0  0
  180.2560  171.7140  135.1710 C   0  0  0  0  0  2  0  0  0  0  0  0
  182.7950  175.1240  135.2810 N   0  0  0  0  0  0  0  0  0  0  0  0
  180.7270  174.4610  136.3780 C   0  0  2  0  0  0  0  0  0  0  0  0
  187.6030  177.4240  137.5780 O   0  0  0  0  0  0  0  0  0  0  0  0
  182.3700  170.9240  136.3670 C   0  0  0  0  0  3  0  0  0  0  0  0
  183.7600  171.3440  136.7850 C   0  0  0  0  0  1  0  0  0  0  0  0
  182.4490  169.7970  135.3520 C   0  0  0  0  0  1  0  0  0  0  0  0
  180.7860  177.4220  141.1140 O   0  0  0  0  0  0  0  0  0  0  0  0
  179.2640  178.4190  142.5190 F   0  0  0  0  0  0  0  0  0  0  0  0
  180.2740  179.6590  140.9100 F   0  0  0  0  0  0  0  0  0  0  0  0
  181.5390  178.9550  142.7600 C   0  0  0  0  0  1  0  0  0  0  0  0
  180.4310  178.6030  141.7940 C   0  0  0  0  0  0  0  0  0  0  0  0
  185.5320  178.9820  140.2570 C   0  0  0  0  0  2  0  0  0  0  0  0
  186.4700  178.1010  141.0830 C   0  0  0  0  0  2  0  0  0  0  0  0
  188.3390  179.3760  140.2700 O   0  0  0  0  0  1  0  0  0  0  0  0
  187.8800  178.0790  140.5070 C   0  0  1  0  0  3  0  0  0  0  0  0
  188.8370  177.3140  141.4210 C   0  0  0  0  0  2  0  0  0  0  0  0
  189.8170  178.2120  142.1810 C   0  0  2  0  0  3  0  0  0  0  0  0
  193.0700  177.0890  140.7200 N   0  0  0  0  0  1  0  0  0  0  0  0
  191.1940  177.7720  141.9550 N   0  0  0  0  0  0  0  0  0  0  0  0
  191.7160  177.5140  140.7950 C   0  0  0  0  0  0  0  0  0  0  0  0
  190.9600  177.6540  139.5900 N   0  0  0  0  0  1  0  0  0  0  0  0
  189.5240  178.2300  143.5520 O   0  0  0  0  0  0  0  0  0  0  0  0
  187.1680  176.9070  145.0360 C   0  0  2  0  0  3  0  0  0  0  0  0
  189.5210  176.8950  143.9690 C   0  0  1  0  0  3  0  0  0  0  0  0
  187.7350  178.8140  148.1150 C   0  0  0  0  0  2  0  0  0  0  0  0
  191.2640  176.2030  145.5480 C   0  0  0  0  0  2  0  0  0  0  0  0
  190.0740  176.7750  145.3640 C   0  0  0  0  0  0  0  0  0  0  0  0
  186.0520  177.7170  144.4000 C   0  0  0  0  0  1  0  0  0  0  0  0
  189.0630  178.1760  148.5470 C   0  0  0  0  0  2  0  0  0  0  0  0
  189.8860  177.9900  147.4190 O   0  0  0  0  0  0  0  0  0  0  0  0
  187.8860  177.7600  146.0950 C   0  0  2  0  0  3  0  0  0  0  0  0
  189.2130  177.1090  146.5470 C   0  0  1  0  0  3  0  0  0  0  0  0
  187.0530  177.9590  147.2200 O   0  0  0  0  0  0  0  0  0  0  0  0
  188.0900  176.3530  143.9340 C   0  0  0  0  0  2  0  0  0  0  0  0
  1 11  1  6  0  0  0
  2 20  1  0  0  0  0
  3 21  1  0  0  0  0
  4 10  1  0  0  0  0
  4  2  1  0  0  0  0
  5  9  2  0  0  0  0
  6  9  1  0  0  0  0
  6  7  1  1  0  0  0
  8 24  2  0  0  0  0
  8 12  1  0  0  0  0
  9 20  1  0  0  0  0
 10 33  1  1  0  0  0
 11 22  1  0  0  0  0
 12 10  1  0  0  0  0
 13 25  1  1  0  0  0
 13 17  1  0  0  0  0
 14 23  1  0  0  0  0
 15  3  1  0  0  0  0
 16  6  1  0  0  0  0
 18  1  1  0  0  0  0
 19 18  1  1  0  0  0
 19  1  1  0  0  0  0
 19  8  1  0  0  0  0
 20 28  1  1  0  0  0
 21 13  1  0  0  0  0
 22 14  2  0  0  0  0
 23 15  1  6  0  0  0
 23 17  1  0  0  0  0
 23 16  1  0  0  0  0
 25 26  1  0  0  0  0
 27 25  1  0  0  0  0
 28 32  1  0  0  0  0
 30 32  1  0  0  0  0
 32 29  1  0  0  0  0
 32 31  1  0  0  0  0
 33 34  1  0  0  0  0
 36 35  1  1  0  0  0
 36 34  1  0  0  0  0
 36 37  1  0  0  0  0
 38 37  1  6  0  0  0
 38 43  1  0  0  0  0
 39 41  1  0  0  0  0
 40 38  1  0  0  0  0
 41 40  2  0  0  0  0
 42 41  1  0  0  0  0
 44 49  1  6  0  0  0
 44 52  1  0  0  0  0
 45 43  1  1  0  0  0
 45 48  1  0  0  0  0
 46 50  1  0  0  0  0
 48 47  2  0  0  0  0
 51 50  1  0  0  0  0
 52 53  1  0  0  0  0
 52 54  1  1  0  0  0
 53 48  1  6  0  0  0
 53 51  1  0  0  0  0
 54 46  1  0  0  0  0
 55 45  1  0  0  0  0
 55 44  1  0  0  0  0
M  END
>  <MODEL>
4

>  <REMARK>
 VINA RESULT:      -6.7      1.396      2.053
  Name = 
  11 active torsions:
  status: ('A' for Active; 'I' for Inactive)
    1  A    between atoms: C_6  and  O_46
    2  A    between atoms: N_8  and  C_22
    3  A    between atoms: C_10  and  C_32
    4  A    between atoms: O_19  and  C_40
    5  A    between atoms: O_19  and  C_45
    6  A    between atoms: C_22  and  C_35
    7  A    between atoms: C_22  and  O_46
    8  A    between atoms: C_27  and  C_54
    9  A    between atoms: C_35  and  C_43
   10  A    between atoms: C_43  and  C_51
   11  A    between atoms: C_51  and  C_54
                            x       y       z     vdW  Elec       q    Type
                         _______ _______ _______ _____ _____    ______ ____

>  <TORSDO>
F 11

$$$$
=
 OpenBabel11052415013D

 55 59  0  0  1  0  0  0  0  0999 V2000
  184.8110  176.7840  136.9010 C   0  0  1  0  0  3  0  0  0  0  0  0
  182.6600  177.6660  140.3860 C   0  0  0  0  0  2  0  0  0  0  0  0
  179.5990  173.1980  135.1950 C   0  0  0  0  0  2  0  0  0  0  0  0
  183.3750  178.6930  139.5240 C   0  0  0  0  0  2  0  0  0  0  0  0
  180.0420  177.9580  138.2700 O   0  0  0  0  0  0  0  0  0  0  0  0
  180.5380  175.7370  138.9800 C   0  0  2  0  0  3  0  0  0  0  0  0
  179.8360  175.1500  140.0380 O   0  0  0  0  0  1  0  0  0  0  0  0
  186.5280  178.1860  137.9680 C   0  0  0  0  0  0  0  0  0  0  0  0
  180.5350  177.2440  139.1340 C   0  0  0  0  0  0  0  0  0  0  0  0
  184.8760  178.6150  139.7590 C   0  0  1  0  0  3  0  0  0  0  0  0
  184.0880  176.5990  135.5780 C   0  0  0  0  0  2  0  0  0  0  0  0
  185.6360  179.2180  138.5860 C   0  0  0  0  0  2  0  0  0  0  0  0
  181.9310  172.5190  136.0170 C   0  0  2  0  0  3  0  0  0  0  0  0
  182.0110  175.8370  136.4190 C   0  0  0  0  0  3  0  0  0  0  0  0
  180.2130  174.5900  135.2940 C   0  0  0  0  0  2  0  0  0  0  0  0
  179.9230  175.2860  137.6540 C   0  0  0  0  0  2  0  0  0  0  0  0
  181.5900  173.4870  137.1530 C   0  0  0  0  0  2  0  0  0  0  0  0
  186.1030  176.0030  136.8790 C   0  0  0  0  0  2  0  0  0  0  0  0
  186.1260  177.5110  136.6900 C   0  0  1  0  0  3  0  0  0  0  0  0
  181.1590  177.9040  140.3360 C   0  0  1  0  0  3  0  0  0  0  0  0
  180.6770  172.1130  135.2240 C   0  0  0  0  0  2  0  0  0  0  0  0
  183.0610  175.5980  135.7220 N   0  0  0  0  0  0  0  0  0  0  0  0
  180.9510  174.7930  136.6260 C   0  0  2  0  0  0  0  0  0  0  0  0
  187.6000  177.9220  138.4940 O   0  0  0  0  0  0  0  0  0  0  0  0
  182.7340  171.3250  136.5180 C   0  0  0  0  0  3  0  0  0  0  0  0
  184.1840  171.6990  136.7150 C   0  0  0  0  0  1  0  0  0  0  0  0
  182.6230  170.1260  135.5940 C   0  0  0  0  0  1  0  0  0  0  0  0
  180.5610  177.4490  141.5240 O   0  0  0  0  0  0  0  0  0  0  0  0
  181.7440  178.9110  142.8460 F   0  0  0  0  0  0  0  0  0  0  0  0
  179.6880  178.2200  143.5110 F   0  0  0  0  0  0  0  0  0  0  0  0
  179.8540  179.7060  141.7000 C   0  0  0  0  0  1  0  0  0  0  0  0
  180.4810  178.5340  142.4190 C   0  0  0  0  0  0  0  0  0  0  0  0
  185.2860  179.2310  141.1060 C   0  0  0  0  0  2  0  0  0  0  0  0
  185.1140  178.2860  142.2950 C   0  0  0  0  0  2  0  0  0  0  0  0
  184.4990  180.1360  143.7020 O   0  0  0  0  0  1  0  0  0  0  0  0
  185.3130  179.0040  143.6240 C   0  0  1  0  0  3  0  0  0  0  0  0
  185.0630  178.0630  144.8020 C   0  0  0  0  0  2  0  0  0  0  0  0
  186.0860  178.2010  145.9330 C   0  0  2  0  0  3  0  0  0  0  0  0
  186.0110  180.8960  148.5220 N   0  0  0  0  0  1  0  0  0  0  0  0
  185.8210  179.4060  146.7190 N   0  0  0  0  0  0  0  0  0  0  0  0
  186.3650  179.6890  147.8620 C   0  0  0  0  0  0  0  0  0  0  0  0
  187.3190  178.8150  148.4690 N   0  0  0  0  0  1  0  0  0  0  0  0
  187.3940  178.2180  145.4300 O   0  0  0  0  0  0  0  0  0  0  0  0
  190.0290  176.9970  146.4660 C   0  0  2  0  0  3  0  0  0  0  0  0
  187.7570  176.8800  145.2410 C   0  0  1  0  0  3  0  0  0  0  0  0
  192.0970  178.8410  144.0660 C   0  0  0  0  0  2  0  0  0  0  0  0
  187.9750  176.0870  142.9320 C   0  0  0  0  0  2  0  0  0  0  0  0
  188.5360  176.7190  143.9630 C   0  0  0  0  0  0  0  0  0  0  0  0
  190.1790  177.8670  147.7010 C   0  0  0  0  0  1  0  0  0  0  0  0
  191.6510  178.1350  142.7770 C   0  0  0  0  0  2  0  0  0  0  0  0
  190.2600  177.9200  142.8140 O   0  0  0  0  0  0  0  0  0  0  0  0
  190.4200  177.8020  145.2150 C   0  0  2  0  0  3  0  0  0  0  0  0
  189.9910  177.0820  143.9170 C   0  0  1  0  0  3  0  0  0  0  0  0
  191.8150  178.0300  145.1880 O   0  0  0  0  0  0  0  0  0  0  0  0
  188.6060  176.4090  146.4250 C   0  0  0  0  0  2  0  0  0  0  0  0
  1 11  1  6  0  0  0
  3 21  1  0  0  0  0
  3 15  1  0  0  0  0
  4 10  1  0  0  0  0
  4  2  1  0  0  0  0
  5  9  2  0  0  0  0
  6  9  1  0  0  0  0
  6  7  1  1  0  0  0
  8 24  2  0  0  0  0
  8 12  1  0  0  0  0
  9 20  1  0  0  0  0
 10 33  1  1  0  0  0
 11 22  1  0  0  0  0
 12 10  1  0  0  0  0
 13 25  1  1  0  0  0
 13 17  1  0  0  0  0
 14 23  1  0  0  0  0
 16  6  1  0  0  0  0
 18  1  1  0  0  0  0
 19 18  1  1  0  0  0
 19  1  1  0  0  0  0
 19  8  1  0  0  0  0
 20  2  1  0  0  0  0
 20 28  1  1  0  0  0
 21 13  1  0  0  0  0
 22 14  2  0  0  0  0
 23 15  1  6  0  0  0
 23 17  1  0  0  0  0
 23 16  1  0  0  0  0
 25 26  1  0  0  0  0
 27 25  1  0  0  0  0
 28 32  1  0  0  0  0
 31 32  1  0  0  0  0
 32 29  1  0  0  0  0
 32 30  1  0  0  0  0
 33 34  1  0  0  0  0
 34 36  1  0  0  0  0
 36 35  1  1  0  0  0
 36 37  1  0  0  0  0
 38 37  1  6  0  0  0
 38 40  1  0  0  0  0
 40 41  2  0  0  0  0
 41 42  1  0  0  0  0
 41 39  1  0  0  0  0
 43 38  1  0  0  0  0
 44 49  1  1  0  0  0
 45 43  1  1  0  0  0
 45 55  1  0  0  0  0
 46 54  1  0  0  0  0
 47 48  2  0  0  0  0
 48 45  1  0  0  0  0
 50 51  1  0  0  0  0
 50 46  1  0  0  0  0
 52 54  1  6  0  0  0
 52 44  1  0  0  0  0
 53 51  1  6  0  0  0
 53 48  1  0  0  0  0
 53 52  1  0  0  0  0
 55 44  1  0  0  0  0
M  END
>  <MODEL>
5

>  <REMARK>
 VINA RESULT:      -6.7      2.337      3.378
  Name = 
  11 active torsions:
  status: ('A' for Active; 'I' for Inactive)
    1  A    between atoms: C_6  and  O_46
    2  A    between atoms: N_8  and  C_22
    3  A    between atoms: C_10  and  C_32
    4  A    between atoms: O_19  and  C_40
    5  A    between atoms: O_19  and  C_45
    6  A    between atoms: C_22  and  C_35
    7  A    between atoms: C_22  and  O_46
    8  A    between atoms: C_27  and  C_54
    9  A    between atoms: C_35  and  C_43
   10  A    between atoms: C_43  and  C_51
   11  A    between atoms: C_51  and  C_54
                            x       y       z     vdW  Elec       q    Type
                         _______ _______ _______ _____ _____    ______ ____

>  <TORSDO>
F 11

$$$$
=
 OpenBabel11052415013D

 55 59  0  0  1  0  0  0  0  0999 V2000
  186.0800  177.8620  137.9730 C   0  0  1  0  0  3  0  0  0  0  0  0
  187.8320  177.4370  141.7550 C   0  0  0  0  0  2  0  0  0  0  0  0
  180.5190  179.0320  141.2350 C   0  0  0  0  0  2  0  0  0  0  0  0
  188.4080  178.2670  140.6190 C   0  0  0  0  0  2  0  0  0  0  0  0
  185.9430  180.1280  142.5390 O   0  0  0  0  0  0  0  0  0  0  0  0
  184.8300  178.0230  142.6720 C   0  0  2  0  0  3  0  0  0  0  0  0
  184.6970  177.3610  143.8970 O   0  0  0  0  0  1  0  0  0  0  0  0
  188.3520  177.3250  137.1940 C   0  0  0  0  0  0  0  0  0  0  0  0
  186.0510  178.9190  142.7010 C   0  0  0  0  0  0  0  0  0  0  0  0
  189.0320  177.3550  139.5730 C   0  0  1  0  0  3  0  0  0  0  0  0
  184.9590  178.8630  137.7530 C   0  0  0  0  0  2  0  0  0  0  0  0
  189.1360  178.0680  138.2320 C   0  0  0  0  0  2  0  0  0  0  0  0
  181.3120  176.9840  139.9110 C   0  0  2  0  0  3  0  0  0  0  0  0
  184.0680  178.8750  139.9460 C   0  0  0  0  0  3  0  0  0  0  0  0
  181.8530  179.5860  140.7470 C   0  0  0  0  0  2  0  0  0  0  0  0
  183.5460  178.8000  142.3770 C   0  0  0  0  0  2  0  0  0  0  0  0
  182.5310  177.1160  140.8280 C   0  0  0  0  0  2  0  0  0  0  0  0
  185.9560  176.7420  136.9680 C   0  0  0  0  0  2  0  0  0  0  0  0
  187.0030  177.8260  136.7690 C   0  0  1  0  0  3  0  0  0  0  0  0
  187.4300  178.3460  142.9060 C   0  0  1  0  0  3  0  0  0  0  0  0
  180.1130  177.7870  140.4450 C   0  0  0  0  0  2  0  0  0  0  0  0
  183.9000  178.6210  138.7000 N   0  0  0  0  0  0  0  0  0  0  0  0
  182.9980  178.5840  140.9590 C   0  0  2  0  0  0  0  0  0  0  0  0
  188.8320  176.3290  136.6730 O   0  0  0  0  0  0  0  0  0  0  0  0
  180.9770  175.5250  139.6300 C   0  0  0  0  0  3  0  0  0  0  0  0
  180.7750  175.2970  138.1510 C   0  0  0  0  0  1  0  0  0  0  0  0
  179.7580  175.0540  140.4040 C   0  0  0  0  0  1  0  0  0  0  0  0
  187.5050  177.6430  144.1210 O   0  0  0  0  0  0  0  0  0  0  0  0
  189.6060  178.5740  144.0390 F   0  0  0  0  0  0  0  0  0  0  0  0
  189.3770  176.3230  143.8760 F   0  0  0  0  0  0  0  0  0  0  0  0
  188.9880  177.3550  145.9500 C   0  0  0  0  0  1  0  0  0  0  0  0
  188.8650  177.4760  144.4480 C   0  0  0  0  0  0  0  0  0  0  0  0
  190.3760  176.7720  140.0360 C   0  0  0  0  0  2  0  0  0  0  0  0
  191.5930  177.4750  139.4340 C   0  0  0  0  0  2  0  0  0  0  0  0
  193.6810  176.4750  138.7830 O   0  0  0  0  0  1  0  0  0  0  0  0
  192.3300  176.5830  138.4430 C   0  0  1  0  0  3  0  0  0  0  0  0
  191.6750  175.2070  138.3470 C   0  0  0  0  0  2  0  0  0  0  0  0
  191.8860  174.5130  136.9990 C   0  0  2  0  0  3  0  0  0  0  0  0
  189.1260  172.4180  135.5970 N   0  0  0  0  0  1  0  0  0  0  0  0
  190.8380  173.5200  136.7640 N   0  0  0  0  0  0  0  0  0  0  0  0
  190.1160  173.4320  135.6890 C   0  0  0  0  0  0  0  0  0  0  0  0
  190.3010  174.3310  134.5930 N   0  0  0  0  0  1  0  0  0  0  0  0
  193.1540  173.9180  136.9310 O   0  0  0  0  0  0  0  0  0  0  0  0
  195.2900  172.2150  135.5020 C   0  0  2  0  0  3  0  0  0  0  0  0
  193.6530  174.2090  135.6570 C   0  0  1  0  0  3  0  0  0  0  0  0
  197.9700  173.2480  137.7800 C   0  0  0  0  0  2  0  0  0  0  0  0
  194.7730  176.3680  135.3500 C   0  0  0  0  0  2  0  0  0  0  0  0
  194.8630  175.1010  135.7540 C   0  0  0  0  0  0  0  0  0  0  0  0
  194.9070  170.8730  136.1000 C   0  0  0  0  0  1  0  0  0  0  0  0
  198.0880  174.7190  137.3560 C   0  0  0  0  0  2  0  0  0  0  0  0
  196.8020  175.2550  137.1500 O   0  0  0  0  0  0  0  0  0  0  0  0
  196.0620  173.0440  136.5430 C   0  0  2  0  0  3  0  0  0  0  0  0
  196.2000  174.5200  136.1060 C   0  0  1  0  0  3  0  0  0  0  0  0
  197.3470  172.4950  136.7590 O   0  0  0  0  0  0  0  0  0  0  0  0
  194.0300  172.9060  134.9470 C   0  0  0  0  0  2  0  0  0  0  0  0
  1 18  1  6  0  0  0
  2 20  1  0  0  0  0
  4  2  1  0  0  0  0
  5  9  2  0  0  0  0
  6  9  1  0  0  0  0
  6  7  1  1  0  0  0
  8 12  1  0  0  0  0
  9 20  1  0  0  0  0
 10 33  1  1  0  0  0
 10  4  1  0  0  0  0
 11  1  1  0  0  0  0
 11 22  1  0  0  0  0
 12 10  1  0  0  0  0
 13 25  1  1  0  0  0
 13 21  1  0  0  0  0
 13 17  1  0  0  0  0
 15 23  1  0  0  0  0
 15  3  1  0  0  0  0
 16  6  1  0  0  0  0
 17 23  1  0  0  0  0
 19 18  1  6  0  0  0
 19  8  1  0  0  0  0
 19  1  1  0  0  0  0
 20 28  1  1  0  0  0
 21  3  1  0  0  0  0
 22 14  2  0  0  0  0
 23 14  1  6  0  0  0
 23 16  1  0  0  0  0
 24  8  2  0  0  0  0
 25 27  1  0  0  0  0
 26 25  1  0  0  0  0
 28 32  1  0  0  0  0
 29 32  1  0  0  0  0
 30 32  1  0  0  0  0
 32 31  1  0  0  0  0
 34 33  1  0  0  0  0
 36 35  1  1  0  0  0
 36 34  1  0  0  0  0
 37 36  1  0  0  0  0
 38 37  1  1  0  0  0
 39 41  1  0  0  0  0
 40 38  1  0  0  0  0
 41 40  2  0  0  0  0
 42 41  1  0  0  0  0
 43 38  1  0  0  0  0
 44 49  1  1  0  0  0
 44 52  1  0  0  0  0
 45 48  1  0  0  0  0
 45 43  1  1  0  0  0
 47 48  2  0  0  0  0
 50 46  1  0  0  0  0
 51 50  1  0  0  0  0
 52 54  1  6  0  0  0
 53 48  1  1  0  0  0
 53 52  1  0  0  0  0
 53 51  1  0  0  0  0
 54 46  1  0  0  0  0
 55 44  1  0  0  0  0
 55 45  1  0  0  0  0
M  END
>  <MODEL>
6

>  <REMARK>
 VINA RESULT:      -6.4      4.627      7.825
  Name = 
  11 active torsions:
  status: ('A' for Active; 'I' for Inactive)
    1  A    between atoms: C_6  and  O_46
    2  A    between atoms: N_8  and  C_22
    3  A    between atoms: C_10  and  C_32
    4  A    between atoms: O_19  and  C_40
    5  A    between atoms: O_19  and  C_45
    6  A    between atoms: C_22  and  C_35
    7  A    between atoms: C_22  and  O_46
    8  A    between atoms: C_27  and  C_54
    9  A    between atoms: C_35  and  C_43
   10  A    between atoms: C_43  and  C_51
   11  A    between atoms: C_51  and  C_54
                            x       y       z     vdW  Elec       q    Type
                         _______ _______ _______ _____ _____    ______ ____

>  <TORSDO>
F 11

$$$$
=
 OpenBabel11052415013D

 55 59  0  0  1  0  0  0  0  0999 V2000
  185.6250  176.3140  135.7800 C   0  0  1  0  0  3  0  0  0  0  0  0
  184.3430  177.4930  139.5910 C   0  0  0  0  0  2  0  0  0  0  0  0
  179.4770  174.2240  134.9080 C   0  0  0  0  0  2  0  0  0  0  0  0
  185.1490  178.3610  138.6380 C   0  0  0  0  0  2  0  0  0  0  0  0
  181.5830  178.5420  137.9460 O   0  0  0  0  0  0  0  0  0  0  0  0
  181.6100  176.2290  138.5260 C   0  0  2  0  0  3  0  0  0  0  0  0
  180.9580  175.7720  139.6770 O   0  0  0  0  0  1  0  0  0  0  0  0
  187.7870  177.1870  136.5690 C   0  0  0  0  0  0  0  0  0  0  0  0
  182.0100  177.6790  138.7030 C   0  0  0  0  0  0  0  0  0  0  0  0
  186.6000  177.9030  138.6180 C   0  0  1  0  0  3  0  0  0  0  0  0
  184.6810  176.3900  134.5940 C   0  0  0  0  0  2  0  0  0  0  0  0
  187.2920  178.3690  137.3450 C   0  0  0  0  0  2  0  0  0  0  0  0
  181.6630  172.9460  135.3170 C   0  0  2  0  0  3  0  0  0  0  0  0
  182.6380  176.1140  135.7570 C   0  0  0  0  0  3  0  0  0  0  0  0
  180.4300  175.4140  134.9270 C   0  0  0  0  0  2  0  0  0  0  0  0
  180.7000  176.0210  137.3140 C   0  0  0  0  0  2  0  0  0  0  0  0
  181.7600  173.9010  136.5100 C   0  0  0  0  0  2  0  0  0  0  0  0
  186.6600  175.2430  135.5300 C   0  0  0  0  0  2  0  0  0  0  0  0
  187.0310  176.7070  135.3650 C   0  0  1  0  0  3  0  0  0  0  0  0
  182.9610  178.0950  139.7960 C   0  0  1  0  0  3  0  0  0  0  0  0
  180.2370  172.9080  134.7380 C   0  0  0  0  0  2  0  0  0  0  0  0
  183.4710  175.6660  134.8900 N   0  0  0  0  0  0  0  0  0  0  0  0
  181.3950  175.3520  136.1200 C   0  0  2  0  0  0  0  0  0  0  0  0
  188.8270  176.6380  136.9040 O   0  0  0  0  0  0  0  0  0  0  0  0
  182.2070  171.5650  135.6570 C   0  0  0  0  0  3  0  0  0  0  0  0
  181.0800  170.5830  135.8740 C   0  0  0  0  0  1  0  0  0  0  0  0
  183.1210  171.5880  136.8700 C   0  0  0  0  0  1  0  0  0  0  0  0
  182.4630  177.7320  141.0590 O   0  0  0  0  0  0  0  0  0  0  0  0
  180.3160  178.4150  141.5200 F   0  0  0  0  0  0  0  0  0  0  0  0
  181.8310  179.9280  140.7690 F   0  0  0  0  0  0  0  0  0  0  0  0
  182.0480  179.0960  142.9540 C   0  0  0  0  0  1  0  0  0  0  0  0
  181.6520  178.7840  141.5300 C   0  0  0  0  0  0  0  0  0  0  0  0
  187.3580  178.3200  139.8880 C   0  0  0  0  0  2  0  0  0  0  0  0
  188.8750  178.1540  139.7830 C   0  0  0  0  0  2  0  0  0  0  0  0
  190.2610  176.4020  140.6730 O   0  0  0  0  0  1  0  0  0  0  0  0
  189.4590  177.4900  141.0240 C   0  0  1  0  0  3  0  0  0  0  0  0
  190.2350  178.4960  141.8730 C   0  0  0  0  0  2  0  0  0  0  0  0
  190.4020  178.0740  143.3350 C   0  0  2  0  0  3  0  0  0  0  0  0
  191.9980  174.8250  144.2680 N   0  0  0  0  0  1  0  0  0  0  0  0
  190.8370  176.6800  143.4190 N   0  0  0  0  0  0  0  0  0  0  0  0
  191.6560  176.2030  144.3060 C   0  0  0  0  0  0  0  0  0  0  0  0
  192.2160  177.0350  145.3250 N   0  0  0  0  0  1  0  0  0  0  0  0
  189.2130  178.2640  144.0530 O   0  0  0  0  0  0  0  0  0  0  0  0
  186.3180  177.2040  144.0810 C   0  0  2  0  0  3  0  0  0  0  0  0
  188.8520  177.0070  144.5490 C   0  0  1  0  0  3  0  0  0  0  0  0
  185.2390  179.5480  146.6840 C   0  0  0  0  0  2  0  0  0  0  0  0
  189.3370  176.5440  146.9070 C   0  0  0  0  0  2  0  0  0  0  0  0
  188.5140  177.0940  146.0140 C   0  0  0  0  0  0  0  0  0  0  0  0
  185.8320  177.9190  142.8330 C   0  0  0  0  0  1  0  0  0  0  0  0
  186.0310  178.9700  147.8670 C   0  0  0  0  0  2  0  0  0  0  0  0
  187.3230  178.6080  147.4370 O   0  0  0  0  0  0  0  0  0  0  0  0
  186.3960  178.2000  145.2500 C   0  0  2  0  0  3  0  0  0  0  0  0
  187.1740  177.6110  146.4490 C   0  0  1  0  0  3  0  0  0  0  0  0
  185.0990  178.5750  145.6700 O   0  0  0  0  0  0  0  0  0  0  0  0
  187.6420  176.4800  143.7730 C   0  0  0  0  0  2  0  0  0  0  0  0
  1 11  1  6  0  0  0
  2 20  1  0  0  0  0
  3 15  1  0  0  0  0
  4  2  1  0  0  0  0
  5  9  2  0  0  0  0
  6  9  1  0  0  0  0
  6  7  1  1  0  0  0
  8 24  2  0  0  0  0
  8 12  1  0  0  0  0
  9 20  1  0  0  0  0
 10  4  1  0  0  0  0
 10 33  1  1  0  0  0
 11 22  1  0  0  0  0
 12 10  1  0  0  0  0
 13 25  1  1  0  0  0
 13 17  1  0  0  0  0
 14 23  1  0  0  0  0
 16  6  1  0  0  0  0
 18  1  1  0  0  0  0
 19 18  1  1  0  0  0
 19  1  1  0  0  0  0
 19  8  1  0  0  0  0
 20 28  1  1  0  0  0
 21  3  1  0  0  0  0
 21 13  1  0  0  0  0
 22 14  2  0  0  0  0
 23 15  1  6  0  0  0
 23 17  1  0  0  0  0
 23 16  1  0  0  0  0
 25 26  1  0  0  0  0
 25 27  1  0  0  0  0
 28 32  1  0  0  0  0
 29 32  1  0  0  0  0
 30 32  1  0  0  0  0
 32 31  1  0  0  0  0
 34 33  1  0  0  0  0
 34 36  1  0  0  0  0
 36 35  1  6  0  0  0
 36 37  1  0  0  0  0
 38 37  1  6  0  0  0
 38 40  1  0  0  0  0
 38 43  1  0  0  0  0
 39 41  1  0  0  0  0
 40 41  2  0  0  0  0
 41 42  1  0  0  0  0
 44 49  1  6  0  0  0
 44 52  1  0  0  0  0
 45 43  1  6  0  0  0
 45 48  1  0  0  0  0
 46 50  1  0  0  0  0
 48 47  2  0  0  0  0
 51 50  1  0  0  0  0
 52 54  1  1  0  0  0
 52 53  1  0  0  0  0
 53 48  1  6  0  0  0
 53 51  1  0  0  0  0
 54 46  1  0  0  0  0
 55 44  1  0  0  0  0
 55 45  1  0  0  0  0
M  END
>  <MODEL>
7

>  <REMARK>
 VINA RESULT:      -6.2      1.736      2.806
  Name = 
  11 active torsions:
  status: ('A' for Active; 'I' for Inactive)
    1  A    between atoms: C_6  and  O_46
    2  A    between atoms: N_8  and  C_22
    3  A    between atoms: C_10  and  C_32
    4  A    between atoms: O_19  and  C_40
    5  A    between atoms: O_19  and  C_45
    6  A    between atoms: C_22  and  C_35
    7  A    between atoms: C_22  and  O_46
    8  A    between atoms: C_27  and  C_54
    9  A    between atoms: C_35  and  C_43
   10  A    between atoms: C_43  and  C_51
   11  A    between atoms: C_51  and  C_54
                            x       y       z     vdW  Elec       q    Type
                         _______ _______ _______ _____ _____    ______ ____

>  <TORSDO>
F 11

$$$$
=
 OpenBabel11052415013D

 55 59  0  0  1  0  0  0  0  0999 V2000
  185.5930  177.4050  137.2270 C   0  0  1  0  0  3  0  0  0  0  0  0
  187.9070  177.4360  140.7200 C   0  0  0  0  0  2  0  0  0  0  0  0
  180.5250  178.6970  141.1740 C   0  0  0  0  0  2  0  0  0  0  0  0
  188.2640  178.1650  139.4350 C   0  0  0  0  0  2  0  0  0  0  0  0
  186.0170  180.1210  141.5210 O   0  0  0  0  0  0  0  0  0  0  0  0
  185.0480  178.0020  142.0260 C   0  0  2  0  0  3  0  0  0  0  0  0
  185.1330  177.4640  143.3140 O   0  0  0  0  0  1  0  0  0  0  0  0
  187.7490  176.8750  136.1660 C   0  0  0  0  0  0  0  0  0  0  0  0
  186.2120  178.9400  141.7810 C   0  0  0  0  0  0  0  0  0  0  0  0
  188.7720  177.1740  138.3990 C   0  0  1  0  0  3  0  0  0  0  0  0
  184.4020  178.3350  137.0860 C   0  0  0  0  0  2  0  0  0  0  0  0
  188.6390  177.7490  136.9960 C   0  0  0  0  0  2  0  0  0  0  0  0
  181.2180  176.5550  139.9470 C   0  0  2  0  0  3  0  0  0  0  0  0
  183.8470  178.5400  139.3780 C   0  0  0  0  0  3  0  0  0  0  0  0
  181.7410  179.2470  140.4360 C   0  0  0  0  0  2  0  0  0  0  0  0
  183.6950  178.6970  141.8570 C   0  0  0  0  0  2  0  0  0  0  0  0
  182.5510  176.8260  140.6500 C   0  0  0  0  0  2  0  0  0  0  0  0
  185.3810  176.1830  136.3650 C   0  0  0  0  0  2  0  0  0  0  0  0
  186.3280  177.2790  135.9060 C   0  0  1  0  0  3  0  0  0  0  0  0
  187.6330  178.4430  141.8270 C   0  0  1  0  0  3  0  0  0  0  0  0
  180.0710  177.3640  140.5780 C   0  0  0  0  0  2  0  0  0  0  0  0
  183.5090  178.1530  138.2030 N   0  0  0  0  0  0  0  0  0  0  0  0
  182.9560  178.3160  140.5660 C   0  0  2  0  0  0  0  0  0  0  0  0
  188.1990  175.8490  135.6760 O   0  0  0  0  0  0  0  0  0  0  0  0
  180.9210  175.0630  139.8620 C   0  0  0  0  0  3  0  0  0  0  0  0
  180.7760  174.6260  138.4230 C   0  0  0  0  0  1  0  0  0  0  0  0
  179.6850  174.6750  140.6540 C   0  0  0  0  0  1  0  0  0  0  0  0
  187.9240  177.8720  143.0780 O   0  0  0  0  0  0  0  0  0  0  0  0
  189.6620  178.6140  144.3890 F   0  0  0  0  0  0  0  0  0  0  0  0
  189.9560  178.4300  142.1470 F   0  0  0  0  0  0  0  0  0  0  0  0
  189.8050  176.4720  143.4340 C   0  0  0  0  0  1  0  0  0  0  0  0
  189.3210  177.8920  143.2550 C   0  0  0  0  0  0  0  0  0  0  0  0
  190.1990  176.6930  138.7050 C   0  0  0  0  0  2  0  0  0  0  0  0
  190.6810  175.5690  137.7870 C   0  0  0  0  0  2  0  0  0  0  0  0
  192.7940  176.5080  138.4480 O   0  0  0  0  0  1  0  0  0  0  0  0
  192.1810  175.6490  137.5330 C   0  0  1  0  0  3  0  0  0  0  0  0
  192.8210  174.2620  137.5650 C   0  0  0  0  0  2  0  0  0  0  0  0
  193.3930  173.8130  136.2180 C   0  0  2  0  0  3  0  0  0  0  0  0
  191.0670  171.3510  134.6370 N   0  0  0  0  0  1  0  0  0  0  0  0
  192.7080  172.6090  135.7470 N   0  0  0  0  0  0  0  0  0  0  0  0
  191.6330  172.5960  135.0210 C   0  0  0  0  0  0  0  0  0  0  0  0
  191.0080  173.8090  134.5940 N   0  0  0  0  0  1  0  0  0  0  0  0
  194.7750  173.5910  136.3070 O   0  0  0  0  0  0  0  0  0  0  0  0
  197.4440  173.4670  137.8440 C   0  0  2  0  0  3  0  0  0  0  0  0
  194.9740  172.8180  137.4550 C   0  0  1  0  0  3  0  0  0  0  0  0
  199.1510  171.5980  135.1910 C   0  0  0  0  0  2  0  0  0  0  0  0
  194.6600  170.3950  137.2520 C   0  0  0  0  0  2  0  0  0  0  0  0
  195.4670  171.4440  137.0890 C   0  0  0  0  0  0  0  0  0  0  0  0
  197.9120  174.8800  137.5440 C   0  0  0  0  0  1  0  0  0  0  0  0
  198.3990  170.2660  135.3190 C   0  0  0  0  0  2  0  0  0  0  0  0
  197.0290  170.5160  135.5290 O   0  0  0  0  0  0  0  0  0  0  0  0
  197.6490  172.5810  136.6030 C   0  0  2  0  0  3  0  0  0  0  0  0
  196.9110  171.2300  136.7400 C   0  0  1  0  0  3  0  0  0  0  0  0
  199.0260  172.3440  136.3850 O   0  0  0  0  0  0  0  0  0  0  0  0
  195.9950  173.5070  138.3640 C   0  0  0  0  0  2  0  0  0  0  0  0
  1 18  1  6  0  0  0
  2 20  1  0  0  0  0
  4  2  1  0  0  0  0
  5  9  2  0  0  0  0
  6  7  1  1  0  0  0
  8 12  1  0  0  0  0
  9 20  1  0  0  0  0
  9  6  1  0  0  0  0
 10 33  1  1  0  0  0
 10  4  1  0  0  0  0
 11  1  1  0  0  0  0
 11 22  1  0  0  0  0
 12 10  1  0  0  0  0
 13 25  1  1  0  0  0
 13 21  1  0  0  0  0
 13 17  1  0  0  0  0
 15 23  1  0  0  0  0
 15  3  1  0  0  0  0
 16  6  1  0  0  0  0
 19  8  1  0  0  0  0
 19 18  1  6  0  0  0
 19  1  1  0  0  0  0
 20 28  1  1  0  0  0
 21  3  1  0  0  0  0
 22 14  2  0  0  0  0
 23 14  1  6  0  0  0
 23 17  1  0  0  0  0
 23 16  1  0  0  0  0
 24  8  2  0  0  0  0
 25 27  1  0  0  0  0
 26 25  1  0  0  0  0
 28 32  1  0  0  0  0
 30 32  1  0  0  0  0
 32 31  1  0  0  0  0
 32 29  1  0  0  0  0
 34 33  1  0  0  0  0
 36 37  1  0  0  0  0
 36 34  1  0  0  0  0
 36 35  1  1  0  0  0
 38 43  1  0  0  0  0
 38 37  1  1  0  0  0
 39 41  1  0  0  0  0
 40 38  1  0  0  0  0
 41 40  2  0  0  0  0
 42 41  1  0  0  0  0
 44 49  1  6  0  0  0
 44 55  1  0  0  0  0
 45 43  1  6  0  0  0
 45 55  1  0  0  0  0
 46 50  1  0  0  0  0
 46 54  1  0  0  0  0
 48 47  2  0  0  0  0
 48 45  1  0  0  0  0
 50 51  1  0  0  0  0
 52 54  1  1  0  0  0
 52 53  1  0  0  0  0
 52 44  1  0  0  0  0
 53 51  1  6  0  0  0
 53 48  1  0  0  0  0
M  END
>  <MODEL>
8

>  <REMARK>
 VINA RESULT:      -5.8      5.328      8.324
  Name = 
  11 active torsions:
  status: ('A' for Active; 'I' for Inactive)
    1  A    between atoms: C_6  and  O_46
    2  A    between atoms: N_8  and  C_22
    3  A    between atoms: C_10  and  C_32
    4  A    between atoms: O_19  and  C_40
    5  A    between atoms: O_19  and  C_45
    6  A    between atoms: C_22  and  C_35
    7  A    between atoms: C_22  and  O_46
    8  A    between atoms: C_27  and  C_54
    9  A    between atoms: C_35  and  C_43
   10  A    between atoms: C_43  and  C_51
   11  A    between atoms: C_51  and  C_54
                            x       y       z     vdW  Elec       q    Type
                         _______ _______ _______ _____ _____    ______ ____

>  <TORSDO>
F 11

$$$$
=
 OpenBabel11052415013D

 55 59  0  0  1  0  0  0  0  0999 V2000
  184.7510  176.1260  135.7750 C   0  0  1  0  0  3  0  0  0  0  0  0
  183.3360  177.3700  139.5170 C   0  0  0  0  0  2  0  0  0  0  0  0
  178.9310  173.1920  135.1100 C   0  0  0  0  0  2  0  0  0  0  0  0
  184.0170  178.2730  138.5020 C   0  0  0  0  0  2  0  0  0  0  0  0
  180.4570  177.9380  137.8410 O   0  0  0  0  0  0  0  0  0  0  0  0
  180.7900  175.6910  138.5680 C   0  0  2  0  0  3  0  0  0  0  0  0
  180.2080  175.2280  139.7520 O   0  0  0  0  0  1  0  0  0  0  0  0
  186.7810  177.3240  136.4820 C   0  0  0  0  0  0  0  0  0  0  0  0
  180.9970  177.1900  138.6470 C   0  0  0  0  0  0  0  0  0  0  0  0
  185.5160  178.0100  138.4950 C   0  0  1  0  0  3  0  0  0  0  0  0
  183.8010  175.9990  134.5970 C   0  0  0  0  0  2  0  0  0  0  0  0
  186.1360  178.4790  137.1860 C   0  0  0  0  0  2  0  0  0  0  0  0
  181.2670  172.2430  135.5740 C   0  0  2  0  0  3  0  0  0  0  0  0
  181.8170  175.5320  135.8000 C   0  0  0  0  0  3  0  0  0  0  0  0
  179.7180  174.4960  135.0420 C   0  0  0  0  0  2  0  0  0  0  0  0
  179.9130  175.2870  137.3820 C   0  0  0  0  0  2  0  0  0  0  0  0
  181.2410  173.2770  136.7030 C   0  0  0  0  0  2  0  0  0  0  0  0
  185.9170  175.1860  135.5820 C   0  0  0  0  0  2  0  0  0  0  0  0
  186.0910  176.6720  135.3200 C   0  0  1  0  0  3  0  0  0  0  0  0
  181.8870  177.7970  139.7000 C   0  0  1  0  0  3  0  0  0  0  0  0
  179.8580  171.9790  135.0160 C   0  0  0  0  0  2  0  0  0  0  0  0
  182.6980  175.1430  134.9540 N   0  0  0  0  0  0  0  0  0  0  0  0
  180.6860  174.6390  136.2250 C   0  0  2  0  0  0  0  0  0  0  0  0
  187.8850  176.9400  136.8390 O   0  0  0  0  0  0  0  0  0  0  0  0
  181.9900  170.9700  135.9960 C   0  0  0  0  0  3  0  0  0  0  0  0
  183.4690  171.2270  136.1700 C   0  0  0  0  0  1  0  0  0  0  0  0
  181.7680  169.8300  135.0180 C   0  0  0  0  0  1  0  0  0  0  0  0
  181.4450  177.4540  140.9890 O   0  0  0  0  0  0  0  0  0  0  0  0
  180.3840  178.5480  142.7110 F   0  0  0  0  0  0  0  0  0  0  0  0
  181.1900  179.7430  140.9600 F   0  0  0  0  0  0  0  0  0  0  0  0
  182.7090  178.7960  142.4810 C   0  0  0  0  0  1  0  0  0  0  0  0
  181.3900  178.6310  141.7610 C   0  0  0  0  0  0  0  0  0  0  0  0
  186.2160  178.6050  139.7260 C   0  0  0  0  0  2  0  0  0  0  0  0
  187.7400  178.4770  139.6910 C   0  0  0  0  0  2  0  0  0  0  0  0
  187.6860  177.2450  141.7550 O   0  0  0  0  0  1  0  0  0  0  0  0
  188.3260  178.2900  141.0850 C   0  0  1  0  0  3  0  0  0  0  0  0
  189.8350  178.0620  141.0220 C   0  0  0  0  0  2  0  0  0  0  0  0
  190.2650  176.6450  141.4090 C   0  0  2  0  0  3  0  0  0  0  0  0
  191.6790  176.6510  144.8690 N   0  0  0  0  0  1  0  0  0  0  0  0
  191.1310  176.6760  142.5880 N   0  0  0  0  0  0  0  0  0  0  0  0
  190.7250  176.6030  143.8180 C   0  0  0  0  0  0  0  0  0  0  0  0
  189.3390  176.4690  144.1380 N   0  0  0  0  0  1  0  0  0  0  0  0
  190.9070  176.0030  140.3410 O   0  0  0  0  0  0  0  0  0  0  0  0
  191.1810  175.6180  137.2950 C   0  0  2  0  0  3  0  0  0  0  0  0
  191.3100  177.0150  139.4640 C   0  0  1  0  0  3  0  0  0  0  0  0
  194.1270  173.4580  137.6000 C   0  0  0  0  0  2  0  0  0  0  0  0
  193.5300  177.9950  139.8180 C   0  0  0  0  0  2  0  0  0  0  0  0
  192.8070  177.0040  139.2960 C   0  0  0  0  0  0  0  0  0  0  0  0
  190.0840  174.5820  137.1260 C   0  0  0  0  0  1  0  0  0  0  0  0
  195.1360  174.5030  138.0990 C   0  0  0  0  0  2  0  0  0  0  0  0
  194.5150  175.3460  139.0420 O   0  0  0  0  0  0  0  0  0  0  0  0
  192.4290  174.9540  137.9010 C   0  0  2  0  0  3  0  0  0  0  0  0
  193.4550  176.0050  138.3840 C   0  0  1  0  0  3  0  0  0  0  0  0
  193.0420  174.0970  136.9590 O   0  0  0  0  0  0  0  0  0  0  0  0
  190.6380  176.8110  138.1040 C   0  0  0  0  0  2  0  0  0  0  0  0
  1 11  1  6  0  0  0
  2 20  1  0  0  0  0
  4  2  1  0  0  0  0
  5  9  2  0  0  0  0
  6  9  1  0  0  0  0
  6  7  1  1  0  0  0
  8 24  2  0  0  0  0
  8 12  1  0  0  0  0
  9 20  1  0  0  0  0
 10  4  1  0  0  0  0
 10 33  1  1  0  0  0
 11 22  1  0  0  0  0
 12 10  1  0  0  0  0
 13 25  1  1  0  0  0
 13 17  1  0  0  0  0
 14 23  1  0  0  0  0
 15  3  1  0  0  0  0
 16  6  1  0  0  0  0
 18  1  1  0  0  0  0
 19 18  1  1  0  0  0
 19  1  1  0  0  0  0
 19  8  1  0  0  0  0
 20 28  1  1  0  0  0
 21  3  1  0  0  0  0
 21 13  1  0  0  0  0
 22 14  2  0  0  0  0
 23 15  1  6  0  0  0
 23 17  1  0  0  0  0
 23 16  1  0  0  0  0
 25 26  1  0  0  0  0
 27 25  1  0  0  0  0
 28 32  1  0  0  0  0
 30 32  1  0  0  0  0
 32 31  1  0  0  0  0
 32 29  1  0  0  0  0
 34 33  1  0  0  0  0
 34 36  1  0  0  0  0
 36 35  1  6  0  0  0
 37 36  1  0  0  0  0
 38 37  1  6  0  0  0
 38 40  1  0  0  0  0
 40 41  2  0  0  0  0
 41 42  1  0  0  0  0
 41 39  1  0  0  0  0
 43 38  1  0  0  0  0
 44 49  1  1  0  0  0
 44 52  1  0  0  0  0
 44 55  1  0  0  0  0
 45 43  1  1  0  0  0
 46 50  1  0  0  0  0
 48 45  1  0  0  0  0
 48 47  2  0  0  0  0
 50 51  1  0  0  0  0
 52 54  1  6  0  0  0
 52 53  1  0  0  0  0
 53 51  1  1  0  0  0
 53 48  1  0  0  0  0
 54 46  1  0  0  0  0
 55 45  1  0  0  0  0
M  END
>  <MODEL>
9

>  <REMARK>
 VINA RESULT:      -5.8      2.413      4.712
  Name = 
  11 active torsions:
  status: ('A' for Active; 'I' for Inactive)
    1  A    between atoms: C_6  and  O_46
    2  A    between atoms: N_8  and  C_22
    3  A    between atoms: C_10  and  C_32
    4  A    between atoms: O_19  and  C_40
    5  A    between atoms: O_19  and  C_45
    6  A    between atoms: C_22  and  C_35
    7  A    between atoms: C_22  and  O_46
    8  A    between atoms: C_27  and  C_54
    9  A    between atoms: C_35  and  C_43
   10  A    between atoms: C_43  and  C_51
   11  A    between atoms: C_51  and  C_54
                            x       y       z     vdW  Elec       q    Type
                         _______ _______ _______ _____ _____    ______ ____

>  <TORSDO>
F 11

$$$$
