=
 OpenBabel11052415423D

 34 38  0  0  1  0  0  0  0  0999 V2000
  182.8580  178.3350  142.8420 C   0  0  0  0  0  2  0  0  0  0  0  0
  182.3890  179.1610  140.5080 C   0  0  0  0  0  0  0  0  0  0  0  0
  179.1580  179.8590  138.7050 C   0  0  0  0  0  3  0  0  0  0  0  0
  179.6600  179.0550  140.9670 N   0  0  0  0  0  0  0  0  0  0  0  0
  183.7590  179.2020  140.2670 O   0  0  0  0  0  1  0  0  0  0  0  0
  180.5090  178.6890  141.9650 C   0  0  0  0  0  0  0  0  0  0  0  0
  181.9020  178.7440  141.7590 C   0  0  0  0  0  0  0  0  0  0  0  0
  179.5830  180.4880  137.6050 C   0  0  0  0  0  3  0  0  0  0  0  0
  181.0240  180.9040  137.4470 C   0  0  2  0  0  3  0  0  0  0  0  0
  180.1120  179.4710  139.7560 C   0  0  0  0  0  0  0  0  0  0  0  0
  181.9750  179.9060  138.1240 C   0  0  0  0  0  2  0  0  0  0  0  0
  181.4920  179.5340  139.5030 C   0  0  0  0  0  0  0  0  0  0  0  0
  179.1730  179.4200  143.9050 C   0  0  0  0  0  1  0  0  0  0  0  0
  179.9330  178.2680  143.2780 C   0  0  0  0  0  2  0  0  0  0  0  0
  181.2060  182.1750  138.0020 O   0  0  0  0  0  0  0  0  0  0  0  0
  180.0650  184.2270  137.6630 C   0  0  0  0  0  2  0  0  0  0  0  0
  181.4970  184.3900  137.2030 C   0  0  0  0  0  2  0  0  0  0  0  0
  180.7870  183.0650  137.0120 C   0  0  0  0  0  3  0  0  0  0  0  0
  183.0330  179.4590  143.8520 C   0  0  0  0  0  2  0  0  0  0  0  0
  184.4930  179.8770  143.9490 C   0  0  0  0  0  2  0  0  0  0  0  0
  184.7150  178.7490  146.6850 O   0  0  0  0  0  0  0  0  0  0  0  0
  186.3060  178.0860  143.6660 C   0  0  0  0  0  0  0  0  0  0  0  0
  188.8400  176.9930  146.8990 C   0  0  1  0  0  3  0  0  0  0  0  0
  187.5720  177.8480  146.9420 C   0  0  0  0  0  2  0  0  0  0  0  0
  186.5440  177.3310  145.9330 C   0  0  2  0  0  3  0  0  0  0  0  0
  185.3090  178.7600  144.4090 N   0  0  0  0  0  0  0  0  0  0  0  0
  188.6100  177.5490  144.4110 C   0  0  0  0  0  2  0  0  0  0  0  0
  187.1320  177.1610  144.4990 C   0  0  2  0  0  3  0  0  0  0  0  0
  189.4190  176.8210  145.4840 C   0  0  0  0  0  2  0  0  0  0  0  0
  186.4560  178.2360  142.4240 O   0  0  0  0  0  0  0  0  0  0  0  0
  185.4510  178.3330  145.7510 C   0  0  0  0  0  0  0  0  0  0  0  0
  191.2010  177.1550  147.7090 O   0  0  0  0  0  0  0  0  0  0  0  0
  189.8730  177.5540  147.8160 C   0  0  0  0  0  0  0  0  0  0  0  0
  189.5410  178.3910  148.6940 O   0  0  0  0  0  1  0  0  0  0  0  0
  1 19  1  0  0  0  0
  2  7  1  0  0  0  0
  3 10  1  0  0  0  0
  4  6  1  0  0  0  0
  5  2  1  0  0  0  0
  6 14  1  0  0  0  0
  7  6  2  0  0  0  0
  7  1  1  0  0  0  0
  8  3  2  0  0  0  0
  9  8  1  0  0  0  0
  9 15  1  1  0  0  0
  9 11  1  0  0  0  0
 10  4  2  0  0  0  0
 11 12  1  0  0  0  0
 12 10  1  0  0  0  0
 12  2  2  0  0  0  0
 14 13  1  0  0  0  0
 17 16  1  0  0  0  0
 18 17  1  0  0  0  0
 18 16  1  0  0  0  0
 18 15  1  0  0  0  0
 19 20  1  0  0  0  0
 20 26  1  0  0  0  0
 22 26  1  0  0  0  0
 22 28  1  0  0  0  0
 23 24  1  0  0  0  0
 23 33  1  1  0  0  0
 25 24  1  1  0  0  0
 26 31  1  0  0  0  0
 27 29  1  0  0  0  0
 28 27  1  1  0  0  0
 28 25  1  0  0  0  0
 29 23  1  0  0  0  0
 30 22  2  0  0  0  0
 31 25  1  0  0  0  0
 31 21  2  0  0  0  0
 32 33  2  0  0  0  0
 33 34  1  0  0  0  0
M  END
>  <MODEL>
1

>  <REMARK>
 VINA RESULT:      -8.5      0.000      0.000
  Name = 
  8 active torsions:
  status: ('A' for Active; 'I' for Inactive)
    1  A    between atoms: C_7  and  C_15
    2  A    between atoms: C_8  and  C_17
    3  A    between atoms: C_8  and  N_18
    4  A    between atoms: C_10  and  C_17
    5  A    between atoms: C_10  and  C_20
    6  A    between atoms: C_19  and  C_22
    7  A    between atoms: C_24  and  O_25
    8  A    between atoms: O_25  and  C_27
                            x       y       z     vdW  Elec       q    Type
                         _______ _______ _______ _____ _____    ______ ____

>  <TORSDO>
F 8

$$$$
=
 OpenBabel11052415423D

 34 38  0  0  1  0  0  0  0  0999 V2000
  191.2510  177.4680  139.7610 C   0  0  0  0  0  2  0  0  0  0  0  0
  189.1600  177.9140  138.4300 C   0  0  0  0  0  0  0  0  0  0  0  0
  187.6720  176.1590  135.4480 C   0  0  0  0  0  3  0  0  0  0  0  0
  189.6990  175.7630  136.7700 N   0  0  0  0  0  0  0  0  0  0  0  0
  188.8900  179.0050  139.2510 O   0  0  0  0  0  1  0  0  0  0  0  0
  190.5630  176.0460  137.7820 C   0  0  0  0  0  0  0  0  0  0  0  0
  190.3050  177.1300  138.6460 C   0  0  0  0  0  0  0  0  0  0  0  0
  186.4620  176.7220  135.3690 C   0  0  0  0  0  3  0  0  0  0  0  0
  185.9530  177.6440  136.4490 C   0  0  2  0  0  3  0  0  0  0  0  0
  188.5810  176.5020  136.5540 C   0  0  0  0  0  0  0  0  0  0  0  0
  187.0950  178.4630  137.0710 C   0  0  0  0  0  2  0  0  0  0  0  0
  188.2870  177.5960  137.3840 C   0  0  0  0  0  0  0  0  0  0  0  0
  191.7460  174.0470  136.9510 C   0  0  0  0  0  1  0  0  0  0  0  0
  191.7580  175.1680  137.9710 C   0  0  0  0  0  2  0  0  0  0  0  0
  185.3190  176.8930  137.4430 O   0  0  0  0  0  0  0  0  0  0  0  0
  183.1590  177.8650  137.5920 C   0  0  0  0  0  2  0  0  0  0  0  0
  183.4300  177.0930  138.8650 C   0  0  0  0  0  2  0  0  0  0  0  0
  184.5610  177.8180  138.1650 C   0  0  0  0  0  3  0  0  0  0  0  0
  190.8390  176.7610  141.0430 C   0  0  0  0  0  2  0  0  0  0  0  0
  190.8160  177.7330  142.2130 C   0  0  0  0  0  2  0  0  0  0  0  0
  187.9150  177.1280  142.0540 O   0  0  0  0  0  0  0  0  0  0  0  0
  190.2450  177.1140  144.6350 C   0  0  0  0  0  0  0  0  0  0  0  0
  186.3520  177.7710  146.2130 C   0  0  1  0  0  3  0  0  0  0  0  0
  186.8050  177.8530  144.7540 C   0  0  0  0  0  2  0  0  0  0  0  0
  187.8710  176.7930  144.4650 C   0  0  2  0  0  3  0  0  0  0  0  0
  189.9300  177.2420  143.2620 N   0  0  0  0  0  0  0  0  0  0  0  0
  188.8860  177.9080  146.5520 C   0  0  0  0  0  2  0  0  0  0  0  0
  189.0500  176.8240  145.4840 C   0  0  2  0  0  3  0  0  0  0  0  0
  187.5150  177.7980  147.2200 C   0  0  0  0  0  2  0  0  0  0  0  0
  191.4180  177.2090  145.0830 O   0  0  0  0  0  0  0  0  0  0  0  0
  188.5300  177.0690  143.1530 C   0  0  0  0  0  0  0  0  0  0  0  0
  184.1490  178.9060  145.8750 O   0  0  0  0  0  0  0  0  0  0  0  0
  185.3820  178.8630  146.5150 C   0  0  0  0  0  0  0  0  0  0  0  0
  185.6840  179.7530  147.3510 O   0  0  0  0  0  1  0  0  0  0  0  0
  1 19  1  0  0  0  0
  2  7  1  0  0  0  0
  2  5  1  0  0  0  0
  3 10  1  0  0  0  0
  4  6  1  0  0  0  0
  6 14  1  0  0  0  0
  6  7  2  0  0  0  0
  7  1  1  0  0  0  0
  8  3  2  0  0  0  0
  8  9  1  0  0  0  0
  9 11  1  0  0  0  0
  9 15  1  1  0  0  0
 10  4  2  0  0  0  0
 10 12  1  0  0  0  0
 11 12  1  0  0  0  0
 12  2  2  0  0  0  0
 13 14  1  0  0  0  0
 15 18  1  0  0  0  0
 16 18  1  0  0  0  0
 16 17  1  0  0  0  0
 18 17  1  0  0  0  0
 19 20  1  0  0  0  0
 20 26  1  0  0  0  0
 21 31  2  0  0  0  0
 22 30  2  0  0  0  0
 22 28  1  0  0  0  0
 23 33  1  1  0  0  0
 23 29  1  0  0  0  0
 24 23  1  0  0  0  0
 25 24  1  1  0  0  0
 25 28  1  0  0  0  0
 26 22  1  0  0  0  0
 27 29  1  0  0  0  0
 28 27  1  1  0  0  0
 31 26  1  0  0  0  0
 31 25  1  0  0  0  0
 32 33  2  0  0  0  0
 33 34  1  0  0  0  0
M  END
>  <MODEL>
2

>  <REMARK>
 VINA RESULT:      -8.4      4.689      7.407
  Name = 
  8 active torsions:
  status: ('A' for Active; 'I' for Inactive)
    1  A    between atoms: C_7  and  C_15
    2  A    between atoms: C_8  and  C_17
    3  A    between atoms: C_8  and  N_18
    4  A    between atoms: C_10  and  C_17
    5  A    between atoms: C_10  and  C_20
    6  A    between atoms: C_19  and  C_22
    7  A    between atoms: C_24  and  O_25
    8  A    between atoms: O_25  and  C_27
                            x       y       z     vdW  Elec       q    Type
                         _______ _______ _______ _____ _____    ______ ____

>  <TORSDO>
F 8

$$$$
=
 OpenBabel11052415423D

 34 38  0  0  1  0  0  0  0  0999 V2000
  190.0060  176.4420  142.3730 C   0  0  0  0  0  2  0  0  0  0  0  0
  188.1520  176.7560  144.0490 C   0  0  0  0  0  0  0  0  0  0  0  0
  188.1010  178.3800  147.4470 C   0  0  0  0  0  3  0  0  0  0  0  0
  189.8770  178.0500  145.7870 N   0  0  0  0  0  0  0  0  0  0  0  0
  187.2830  176.0940  143.1870 O   0  0  0  0  0  1  0  0  0  0  0  0
  190.3570  177.6050  144.5950 C   0  0  0  0  0  0  0  0  0  0  0  0
  189.4960  176.9520  143.6890 C   0  0  0  0  0  0  0  0  0  0  0  0
  186.7920  178.4320  147.7110 C   0  0  0  0  0  3  0  0  0  0  0  0
  185.7660  178.0760  146.6650 C   0  0  2  0  0  3  0  0  0  0  0  0
  188.5790  177.8810  146.1470 C   0  0  0  0  0  0  0  0  0  0  0  0
  186.2740  176.9640  145.7350 C   0  0  0  0  0  2  0  0  0  0  0  0
  187.6860  177.2290  145.2810 C   0  0  0  0  0  0  0  0  0  0  0  0
  192.0170  179.3310  144.0050 C   0  0  0  0  0  1  0  0  0  0  0  0
  191.7920  177.8540  144.2610 C   0  0  0  0  0  2  0  0  0  0  0  0
  185.4550  179.2120  145.9100 O   0  0  0  0  0  0  0  0  0  0  0  0
  183.4140  179.1190  144.7040 C   0  0  0  0  0  2  0  0  0  0  0  0
  184.4260  179.8840  143.8810 C   0  0  0  0  0  2  0  0  0  0  0  0
  184.8750  178.7200  144.7400 C   0  0  0  0  0  3  0  0  0  0  0  0
  189.6990  177.4330  141.2610 C   0  0  0  0  0  2  0  0  0  0  0  0
  190.7520  177.3620  140.1660 C   0  0  0  0  0  2  0  0  0  0  0  0
  189.0550  179.3200  138.7180 O   0  0  0  0  0  0  0  0  0  0  0  0
  190.0400  176.0460  138.0840 C   0  0  0  0  0  0  0  0  0  0  0  0
  186.3450  176.8400  136.1370 C   0  0  1  0  0  3  0  0  0  0  0  0
  187.0350  177.6660  137.2250 C   0  0  0  0  0  2  0  0  0  0  0  0
  188.5550  177.6230  137.0460 C   0  0  2  0  0  3  0  0  0  0  0  0
  190.1170  177.2250  138.8610 N   0  0  0  0  0  0  0  0  0  0  0  0
  188.0150  175.1050  137.0040 C   0  0  0  0  0  2  0  0  0  0  0  0
  189.1100  176.1710  136.9210 C   0  0  2  0  0  3  0  0  0  0  0  0
  186.8950  175.4090  136.0100 C   0  0  0  0  0  2  0  0  0  0  0  0
  190.7120  175.0110  138.3380 O   0  0  0  0  0  0  0  0  0  0  0  0
  189.2320  178.1560  138.2660 C   0  0  0  0  0  0  0  0  0  0  0  0
  183.9990  176.5720  135.3120 O   0  0  0  0  0  0  0  0  0  0  0  0
  184.8720  176.8100  136.3680 C   0  0  0  0  0  0  0  0  0  0  0  0
  184.4170  177.0040  137.5240 O   0  0  0  0  0  1  0  0  0  0  0  0
  1  7  1  0  0  0  0
  2 12  1  0  0  0  0
  3  8  2  0  0  0  0
  4 10  1  0  0  0  0
  5  2  1  0  0  0  0
  6  4  2  0  0  0  0
  7  2  2  0  0  0  0
  7  6  1  0  0  0  0
  9 15  1  6  0  0  0
  9  8  1  0  0  0  0
 10  3  1  0  0  0  0
 11  9  1  0  0  0  0
 12 11  1  0  0  0  0
 12 10  2  0  0  0  0
 13 14  1  0  0  0  0
 14  6  1  0  0  0  0
 16 18  1  0  0  0  0
 17 16  1  0  0  0  0
 17 18  1  0  0  0  0
 18 15  1  0  0  0  0
 19  1  1  0  0  0  0
 20 19  1  0  0  0  0
 22 30  2  0  0  0  0
 22 26  1  0  0  0  0
 23 33  1  1  0  0  0
 23 24  1  0  0  0  0
 25 24  1  1  0  0  0
 25 31  1  0  0  0  0
 26 20  1  0  0  0  0
 28 27  1  1  0  0  0
 28 25  1  0  0  0  0
 28 22  1  0  0  0  0
 29 23  1  0  0  0  0
 29 27  1  0  0  0  0
 31 21  2  0  0  0  0
 31 26  1  0  0  0  0
 32 33  2  0  0  0  0
 33 34  1  0  0  0  0
M  END
>  <MODEL>
3

>  <REMARK>
 VINA RESULT:      -8.1      4.750      9.781
  Name = 
  8 active torsions:
  status: ('A' for Active; 'I' for Inactive)
    1  A    between atoms: C_7  and  C_15
    2  A    between atoms: C_8  and  C_17
    3  A    between atoms: C_8  and  N_18
    4  A    between atoms: C_10  and  C_17
    5  A    between atoms: C_10  and  C_20
    6  A    between atoms: C_19  and  C_22
    7  A    between atoms: C_24  and  O_25
    8  A    between atoms: O_25  and  C_27
                            x       y       z     vdW  Elec       q    Type
                         _______ _______ _______ _____ _____    ______ ____

>  <TORSDO>
F 8

$$$$
=
 OpenBabel11052415423D

 34 38  0  0  1  0  0  0  0  0999 V2000
  186.8690  178.4070  138.1300 C   0  0  0  0  0  2  0  0  0  0  0  0
  184.4750  178.8170  138.8000 C   0  0  0  0  0  0  0  0  0  0  0  0
  181.3680  176.7320  138.3760 C   0  0  0  0  0  3  0  0  0  0  0  0
  183.7090  176.3760  137.7400 N   0  0  0  0  0  0  0  0  0  0  0  0
  184.8500  180.0520  139.3220 O   0  0  0  0  0  1  0  0  0  0  0  0
  185.0170  176.7430  137.6680 C   0  0  0  0  0  0  0  0  0  0  0  0
  185.4330  177.9770  138.2090 C   0  0  0  0  0  0  0  0  0  0  0  0
  180.4880  177.3850  139.1420 C   0  0  0  0  0  3  0  0  0  0  0  0
  180.9170  178.5200  140.0370 C   0  0  2  0  0  3  0  0  0  0  0  0
  182.7720  177.1700  138.3180 C   0  0  0  0  0  0  0  0  0  0  0  0
  182.0710  179.3210  139.4150 C   0  0  0  0  0  2  0  0  0  0  0  0
  183.1380  178.4110  138.8640 C   0  0  0  0  0  0  0  0  0  0  0  0
  186.2180  176.1780  135.5890 C   0  0  0  0  0  1  0  0  0  0  0  0
  185.9930  175.8010  137.0390 C   0  0  0  0  0  2  0  0  0  0  0  0
  181.3160  178.0110  141.2770 O   0  0  0  0  0  0  0  0  0  0  0  0
  180.6010  178.6820  143.4390 C   0  0  0  0  0  2  0  0  0  0  0  0
  182.1080  178.7960  143.3720 C   0  0  0  0  0  2  0  0  0  0  0  0
  181.2710  179.1030  142.1470 C   0  0  0  0  0  3  0  0  0  0  0  0
  187.6900  177.7310  139.2170 C   0  0  0  0  0  2  0  0  0  0  0  0
  187.8500  178.6450  140.4230 C   0  0  0  0  0  2  0  0  0  0  0  0
  185.4560  178.2320  142.1280 O   0  0  0  0  0  0  0  0  0  0  0  0
  188.7970  177.3080  142.3950 C   0  0  0  0  0  0  0  0  0  0  0  0
  187.0630  177.5740  146.2670 C   0  0  1  0  0  3  0  0  0  0  0  0
  186.5020  178.0990  144.9440 C   0  0  0  0  0  2  0  0  0  0  0  0
  186.8550  177.1470  143.7990 C   0  0  2  0  0  3  0  0  0  0  0  0
  187.7340  177.8790  141.6570 N   0  0  0  0  0  0  0  0  0  0  0  0
  189.1850  177.5000  144.8370 C   0  0  0  0  0  2  0  0  0  0  0  0
  188.3750  176.8080  143.7380 C   0  0  2  0  0  3  0  0  0  0  0  0
  188.5620  177.2350  146.2080 C   0  0  0  0  0  2  0  0  0  0  0  0
  189.9700  177.2110  141.9460 O   0  0  0  0  0  0  0  0  0  0  0  0
  186.5870  177.8030  142.4830 C   0  0  0  0  0  0  0  0  0  0  0  0
  185.6710  179.3630  147.3250 O   0  0  0  0  0  0  0  0  0  0  0  0
  186.7970  178.5490  147.3640 C   0  0  0  0  0  0  0  0  0  0  0  0
  187.5990  178.6370  148.3290 O   0  0  0  0  0  1  0  0  0  0  0  0
  1  7  1  0  0  0  0
  1 19  1  0  0  0  0
  2 12  1  0  0  0  0
  2  5  1  0  0  0  0
  3  8  2  0  0  0  0
  4 10  1  0  0  0  0
  6  4  2  0  0  0  0
  6  7  1  0  0  0  0
  7  2  2  0  0  0  0
  8  9  1  0  0  0  0
  9 15  1  1  0  0  0
 10  3  1  0  0  0  0
 10 12  2  0  0  0  0
 11  9  1  0  0  0  0
 12 11  1  0  0  0  0
 13 14  1  0  0  0  0
 14  6  1  0  0  0  0
 15 18  1  0  0  0  0
 17 16  1  0  0  0  0
 18 17  1  0  0  0  0
 18 16  1  0  0  0  0
 19 20  1  0  0  0  0
 20 26  1  0  0  0  0
 21 31  2  0  0  0  0
 22 28  1  0  0  0  0
 23 33  1  1  0  0  0
 24 23  1  0  0  0  0
 25 24  1  1  0  0  0
 26 22  1  0  0  0  0
 26 31  1  0  0  0  0
 27 29  1  0  0  0  0
 28 25  1  0  0  0  0
 28 27  1  1  0  0  0
 29 23  1  0  0  0  0
 30 22  2  0  0  0  0
 31 25  1  0  0  0  0
 32 33  2  0  0  0  0
 33 34  1  0  0  0  0
M  END
>  <MODEL>
4

>  <REMARK>
 VINA RESULT:      -8.1      2.961      4.961
  Name = 
  8 active torsions:
  status: ('A' for Active; 'I' for Inactive)
    1  A    between atoms: C_7  and  C_15
    2  A    between atoms: C_8  and  C_17
    3  A    between atoms: C_8  and  N_18
    4  A    between atoms: C_10  and  C_17
    5  A    between atoms: C_10  and  C_20
    6  A    between atoms: C_19  and  C_22
    7  A    between atoms: C_24  and  O_25
    8  A    between atoms: O_25  and  C_27
                            x       y       z     vdW  Elec       q    Type
                         _______ _______ _______ _____ _____    ______ ____

>  <TORSDO>
F 8

$$$$
=
 OpenBabel11052415423D

 34 38  0  0  1  0  0  0  0  0999 V2000
  189.0180  178.6220  139.3880 C   0  0  0  0  0  2  0  0  0  0  0  0
  187.4090  177.7020  137.6810 C   0  0  0  0  0  0  0  0  0  0  0  0
  187.5760  174.6520  135.4780 C   0  0  0  0  0  3  0  0  0  0  0  0
  189.1130  175.5850  137.1460 N   0  0  0  0  0  0  0  0  0  0  0  0
  186.5550  178.7700  137.9350 O   0  0  0  0  0  1  0  0  0  0  0  0
  189.4820  176.5060  138.0760 C   0  0  0  0  0  0  0  0  0  0  0  0
  188.6270  177.5870  138.3730 C   0  0  0  0  0  0  0  0  0  0  0  0
  186.3340  174.5930  134.9890 C   0  0  0  0  0  3  0  0  0  0  0  0
  185.2430  175.4980  135.5060 C   0  0  2  0  0  3  0  0  0  0  0  0
  187.9360  175.6720  136.4760 C   0  0  0  0  0  0  0  0  0  0  0  0
  185.7990  176.8710  135.9130 C   0  0  0  0  0  2  0  0  0  0  0  0
  187.0560  176.7360  136.7330 C   0  0  0  0  0  0  0  0  0  0  0  0
  191.8640  175.9260  137.8050 C   0  0  0  0  0  1  0  0  0  0  0  0
  190.7820  176.3250  138.7900 C   0  0  0  0  0  2  0  0  0  0  0  0
  184.6240  174.8990  136.6080 O   0  0  0  0  0  0  0  0  0  0  0  0
  184.9330  172.7830  137.6360 C   0  0  0  0  0  2  0  0  0  0  0  0
  183.5290  172.8470  137.0780 C   0  0  0  0  0  2  0  0  0  0  0  0
  184.6660  173.5280  136.3450 C   0  0  0  0  0  3  0  0  0  0  0  0
  188.1750  178.4810  140.6460 C   0  0  0  0  0  2  0  0  0  0  0  0
  188.6140  177.2720  141.4590 C   0  0  0  0  0  2  0  0  0  0  0  0
  191.4230  177.7580  142.2850 O   0  0  0  0  0  0  0  0  0  0  0  0
  188.3750  177.7930  143.9580 C   0  0  0  0  0  0  0  0  0  0  0  0
  191.5110  176.9230  146.6950 C   0  0  1  0  0  3  0  0  0  0  0  0
  191.5610  176.9060  145.1650 C   0  0  0  0  0  2  0  0  0  0  0  0
  190.6820  178.0180  144.5890 C   0  0  2  0  0  3  0  0  0  0  0  0
  189.1200  177.6930  142.7590 N   0  0  0  0  0  0  0  0  0  0  0  0
  189.0030  176.8840  146.1790 C   0  0  0  0  0  2  0  0  0  0  0  0
  189.2330  178.0060  145.1630 C   0  0  2  0  0  3  0  0  0  0  0  0
  190.0810  176.9150  147.2620 C   0  0  0  0  0  2  0  0  0  0  0  0
  187.1180  177.7340  143.9920 O   0  0  0  0  0  0  0  0  0  0  0  0
  190.4830  177.8100  143.1230 C   0  0  0  0  0  0  0  0  0  0  0  0
  192.7630  175.8220  148.5580 O   0  0  0  0  0  1  0  0  0  0  0  0
  192.2940  175.7830  147.2510 C   0  0  0  0  0  0  0  0  0  0  0  0
  192.5350  174.7810  146.5300 O   0  0  0  0  0  0  0  0  0  0  0  0
  1 19  1  0  0  0  0
  2  5  1  0  0  0  0
  2  7  1  0  0  0  0
  3 10  1  0  0  0  0
  4  6  1  0  0  0  0
  6  7  2  0  0  0  0
  6 14  1  0  0  0  0
  7  1  1  0  0  0  0
  8  3  2  0  0  0  0
  8  9  1  0  0  0  0
  9 11  1  0  0  0  0
  9 15  1  1  0  0  0
 10 12  1  0  0  0  0
 10  4  2  0  0  0  0
 11 12  1  0  0  0  0
 12  2  2  0  0  0  0
 13 14  1  0  0  0  0
 17 16  1  0  0  0  0
 18 15  1  0  0  0  0
 18 17  1  0  0  0  0
 18 16  1  0  0  0  0
 19 20  1  0  0  0  0
 20 26  1  0  0  0  0
 21 31  2  0  0  0  0
 22 30  2  0  0  0  0
 22 28  1  0  0  0  0
 23 33  1  1  0  0  0
 23 29  1  0  0  0  0
 24 23  1  0  0  0  0
 25 28  1  0  0  0  0
 25 24  1  1  0  0  0
 26 31  1  0  0  0  0
 26 22  1  0  0  0  0
 27 29  1  0  0  0  0
 28 27  1  1  0  0  0
 31 25  1  0  0  0  0
 33 32  1  0  0  0  0
 34 33  2  0  0  0  0
M  END
>  <MODEL>
5

>  <REMARK>
 VINA RESULT:      -8.0      5.748      7.456
  Name = 
  8 active torsions:
  status: ('A' for Active; 'I' for Inactive)
    1  A    between atoms: C_7  and  C_15
    2  A    between atoms: C_8  and  C_17
    3  A    between atoms: C_8  and  N_18
    4  A    between atoms: C_10  and  C_17
    5  A    between atoms: C_10  and  C_20
    6  A    between atoms: C_19  and  C_22
    7  A    between atoms: C_24  and  O_25
    8  A    between atoms: O_25  and  C_27
                            x       y       z     vdW  Elec       q    Type
                         _______ _______ _______ _____ _____    ______ ____

>  <TORSDO>
F 8

$$$$
=
 OpenBabel11052415423D

 34 38  0  0  1  0  0  0  0  0999 V2000
  192.0030  177.8160  140.5500 C   0  0  0  0  0  2  0  0  0  0  0  0
  193.0600  176.1790  138.9540 C   0  0  0  0  0  0  0  0  0  0  0  0
  191.5690  173.9360  136.3210 C   0  0  0  0  0  3  0  0  0  0  0  0
  190.5830  175.5380  137.8930 N   0  0  0  0  0  0  0  0  0  0  0  0
  194.3060  176.4850  139.4920 O   0  0  0  0  0  1  0  0  0  0  0  0
  190.6520  176.4600  138.8910 C   0  0  0  0  0  0  0  0  0  0  0  0
  191.9030  176.8100  139.4400 C   0  0  0  0  0  0  0  0  0  0  0  0
  192.6560  173.5070  135.6720 C   0  0  0  0  0  3  0  0  0  0  0  0
  194.0190  174.0860  135.9570 C   0  0  2  0  0  3  0  0  0  0  0  0
  191.6910  174.9270  137.4020 C   0  0  0  0  0  0  0  0  0  0  0  0
  194.1650  174.4800  137.4350 C   0  0  0  0  0  2  0  0  0  0  0  0
  192.9570  175.2380  137.9240 C   0  0  0  0  0  0  0  0  0  0  0  0
  189.2180  178.4560  138.6860 C   0  0  0  0  0  1  0  0  0  0  0  0
  189.3890  177.1080  139.3590 C   0  0  0  0  0  2  0  0  0  0  0  0
  194.2270  175.2100  135.1500 O   0  0  0  0  0  0  0  0  0  0  0  0
  196.4380  175.9090  134.6460 C   0  0  0  0  0  2  0  0  0  0  0  0
  195.6000  177.1330  134.9420 C   0  0  0  0  0  2  0  0  0  0  0  0
  195.3460  175.8430  135.6940 C   0  0  0  0  0  3  0  0  0  0  0  0
  191.7750  177.1490  141.8980 C   0  0  0  0  0  2  0  0  0  0  0  0
  191.3270  178.1670  142.9360 C   0  0  0  0  0  2  0  0  0  0  0  0
  188.4470  177.6630  142.4280 O   0  0  0  0  0  0  0  0  0  0  0  0
  190.5120  177.2770  145.1990 C   0  0  0  0  0  0  0  0  0  0  0  0
  186.4940  177.8460  146.4660 C   0  0  1  0  0  3  0  0  0  0  0  0
  187.0890  178.0890  145.0780 C   0  0  0  0  0  2  0  0  0  0  0  0
  188.1620  177.0430  144.7650 C   0  0  2  0  0  3  0  0  0  0  0  0
  190.3360  177.5770  143.8280 N   0  0  0  0  0  0  0  0  0  0  0  0
  188.9840  177.8720  147.0600 C   0  0  0  0  0  2  0  0  0  0  0  0
  189.2360  176.9200  145.8880 C   0  0  2  0  0  3  0  0  0  0  0  0
  187.5530  177.7200  147.5750 C   0  0  0  0  0  2  0  0  0  0  0  0
  191.6370  177.2860  145.7650 O   0  0  0  0  0  0  0  0  0  0  0  0
  188.9510  177.4570  143.5650 C   0  0  0  0  0  0  0  0  0  0  0  0
  184.2980  178.9960  146.1400 O   0  0  0  0  0  0  0  0  0  0  0  0
  185.5160  178.9190  146.8050 C   0  0  0  0  0  0  0  0  0  0  0  0
  185.7970  179.7610  147.6950 O   0  0  0  0  0  1  0  0  0  0  0  0
  1 19  1  0  0  0  0
  2  7  1  0  0  0  0
  2  5  1  0  0  0  0
  3 10  1  0  0  0  0
  4  6  1  0  0  0  0
  6 14  1  0  0  0  0
  6  7  2  0  0  0  0
  7  1  1  0  0  0  0
  8  9  1  0  0  0  0
  8  3  2  0  0  0  0
  9 15  1  6  0  0  0
  9 11  1  0  0  0  0
 10  4  2  0  0  0  0
 10 12  1  0  0  0  0
 11 12  1  0  0  0  0
 12  2  2  0  0  0  0
 13 14  1  0  0  0  0
 15 18  1  0  0  0  0
 16 17  1  0  0  0  0
 16 18  1  0  0  0  0
 17 18  1  0  0  0  0
 19 20  1  0  0  0  0
 20 26  1  0  0  0  0
 21 31  2  0  0  0  0
 22 30  2  0  0  0  0
 22 28  1  0  0  0  0
 23 33  1  1  0  0  0
 23 29  1  0  0  0  0
 24 23  1  0  0  0  0
 25 24  1  1  0  0  0
 25 28  1  0  0  0  0
 26 22  1  0  0  0  0
 27 29  1  0  0  0  0
 28 27  1  1  0  0  0
 31 26  1  0  0  0  0
 31 25  1  0  0  0  0
 32 33  2  0  0  0  0
 33 34  1  0  0  0  0
M  END
>  <MODEL>
6

>  <REMARK>
 VINA RESULT:      -8.0      6.667     10.234
  Name = 
  8 active torsions:
  status: ('A' for Active; 'I' for Inactive)
    1  A    between atoms: C_7  and  C_15
    2  A    between atoms: C_8  and  C_17
    3  A    between atoms: C_8  and  N_18
    4  A    between atoms: C_10  and  C_17
    5  A    between atoms: C_10  and  C_20
    6  A    between atoms: C_19  and  C_22
    7  A    between atoms: C_24  and  O_25
    8  A    between atoms: O_25  and  C_27
                            x       y       z     vdW  Elec       q    Type
                         _______ _______ _______ _____ _____    ______ ____

>  <TORSDO>
F 8

$$$$
=
 OpenBabel11052415423D

 34 38  0  0  1  0  0  0  0  0999 V2000
  189.4460  178.4010  138.6310 C   0  0  0  0  0  2  0  0  0  0  0  0
  191.3580  176.8120  138.2230 C   0  0  0  0  0  0  0  0  0  0  0  0
  192.2070  174.6270  135.2750 C   0  0  0  0  0  3  0  0  0  0  0  0
  190.3630  176.1820  135.7160 N   0  0  0  0  0  0  0  0  0  0  0  0
  191.8560  177.1130  139.4870 O   0  0  0  0  0  1  0  0  0  0  0  0
  189.6880  177.0780  136.4850 C   0  0  0  0  0  0  0  0  0  0  0  0
  190.1800  177.4230  137.7610 C   0  0  0  0  0  0  0  0  0  0  0  0
  193.4450  174.2220  135.5760 C   0  0  0  0  0  3  0  0  0  0  0  0
  194.1980  174.8030  136.7470 C   0  0  2  0  0  3  0  0  0  0  0  0
  191.5090  175.5910  136.1410 C   0  0  0  0  0  0  0  0  0  0  0  0
  193.2500  175.1610  137.9020 C   0  0  0  0  0  2  0  0  0  0  0  0
  192.0320  175.8970  137.4080 C   0  0  0  0  0  0  0  0  0  0  0  0
  187.5360  176.6390  135.3640 C   0  0  0  0  0  1  0  0  0  0  0  0
  188.4480  177.7060  135.9350 C   0  0  0  0  0  2  0  0  0  0  0  0
  194.8880  175.9480  136.3360 O   0  0  0  0  0  0  0  0  0  0  0  0
  196.4790  176.7040  134.7460 C   0  0  0  0  0  2  0  0  0  0  0  0
  197.1660  175.7520  135.7010 C   0  0  0  0  0  2  0  0  0  0  0  0
  195.7230  175.5160  135.3040 C   0  0  0  0  0  3  0  0  0  0  0  0
  188.5790  177.6690  139.6440 C   0  0  0  0  0  2  0  0  0  0  0  0
  188.2660  178.5620  140.8350 C   0  0  0  0  0  2  0  0  0  0  0  0
  185.9440  177.8740  142.5500 O   0  0  0  0  0  0  0  0  0  0  0  0
  189.3680  177.3200  142.7890 C   0  0  0  0  0  0  0  0  0  0  0  0
  187.6420  177.3620  146.6740 C   0  0  1  0  0  3  0  0  0  0  0  0
  187.0180  177.8330  145.3590 C   0  0  0  0  0  2  0  0  0  0  0  0
  187.4650  176.9360  144.2030 C   0  0  2  0  0  3  0  0  0  0  0  0
  188.2430  177.7770  142.0630 N   0  0  0  0  0  0  0  0  0  0  0  0
  189.7490  177.5330  145.2310 C   0  0  0  0  0  2  0  0  0  0  0  0
  189.0130  176.7660  144.1300 C   0  0  2  0  0  3  0  0  0  0  0  0
  189.1690  177.1890  146.6020 C   0  0  0  0  0  2  0  0  0  0  0  0
  190.5410  177.3570  142.3320 O   0  0  0  0  0  0  0  0  0  0  0  0
  187.1170  177.5690  142.8940 C   0  0  0  0  0  0  0  0  0  0  0  0
  186.2260  179.1880  147.6310 O   0  0  0  0  0  0  0  0  0  0  0  0
  187.2780  178.2920  147.7810 C   0  0  0  0  0  0  0  0  0  0  0  0
  187.9290  178.2670  148.8570 O   0  0  0  0  0  1  0  0  0  0  0  0
  1 19  1  0  0  0  0
  2  5  1  0  0  0  0
  3  8  2  0  0  0  0
  3 10  1  0  0  0  0
  4 10  2  0  0  0  0
  4  6  1  0  0  0  0
  6  7  2  0  0  0  0
  7  2  1  0  0  0  0
  7  1  1  0  0  0  0
  8  9  1  0  0  0  0
  9 15  1  6  0  0  0
  9 11  1  0  0  0  0
 10 12  1  0  0  0  0
 12 11  1  0  0  0  0
 12  2  2  0  0  0  0
 13 14  1  0  0  0  0
 14  6  1  0  0  0  0
 16 18  1  0  0  0  0
 16 17  1  0  0  0  0
 18 17  1  0  0  0  0
 18 15  1  0  0  0  0
 19 20  1  0  0  0  0
 20 26  1  0  0  0  0
 21 31  2  0  0  0  0
 22 28  1  0  0  0  0
 23 33  1  1  0  0  0
 24 23  1  0  0  0  0
 25 24  1  1  0  0  0
 26 22  1  0  0  0  0
 26 31  1  0  0  0  0
 27 29  1  0  0  0  0
 28 25  1  0  0  0  0
 28 27  1  1  0  0  0
 29 23  1  0  0  0  0
 30 22  2  0  0  0  0
 31 25  1  0  0  0  0
 32 33  2  0  0  0  0
 33 34  1  0  0  0  0
M  END
>  <MODEL>
7

>  <REMARK>
 VINA RESULT:      -7.9      6.879      9.883
  Name = 
  8 active torsions:
  status: ('A' for Active; 'I' for Inactive)
    1  A    between atoms: C_7  and  C_15
    2  A    between atoms: C_8  and  C_17
    3  A    between atoms: C_8  and  N_18
    4  A    between atoms: C_10  and  C_17
    5  A    between atoms: C_10  and  C_20
    6  A    between atoms: C_19  and  C_22
    7  A    between atoms: C_24  and  O_25
    8  A    between atoms: O_25  and  C_27
                            x       y       z     vdW  Elec       q    Type
                         _______ _______ _______ _____ _____    ______ ____

>  <TORSDO>
F 8

$$$$
=
 OpenBabel11052415423D

 34 38  0  0  1  0  0  0  0  0999 V2000
  189.0220  178.5970  139.2140 C   0  0  0  0  0  2  0  0  0  0  0  0
  187.1590  177.6660  137.7950 C   0  0  0  0  0  0  0  0  0  0  0  0
  186.8770  174.4730  135.8190 C   0  0  0  0  0  3  0  0  0  0  0  0
  188.6650  175.4170  137.2070 N   0  0  0  0  0  0  0  0  0  0  0  0
  186.4020  178.8010  138.0750 O   0  0  0  0  0  1  0  0  0  0  0  0
  189.1990  176.3740  138.0130 C   0  0  0  0  0  0  0  0  0  0  0  0
  188.4480  177.5230  138.3350 C   0  0  0  0  0  0  0  0  0  0  0  0
  185.5800  174.4590  135.4960 C   0  0  0  0  0  3  0  0  0  0  0  0
  184.6160  175.4610  136.0790 C   0  0  2  0  0  3  0  0  0  0  0  0
  187.4160  175.5330  136.6860 C   0  0  0  0  0  0  0  0  0  0  0  0
  185.2910  176.8220  136.3100 C   0  0  0  0  0  2  0  0  0  0  0  0
  186.6350  176.6640  136.9730 C   0  0  0  0  0  0  0  0  0  0  0  0
  191.5900  176.1560  137.4480 C   0  0  0  0  0  1  0  0  0  0  0  0
  190.5700  176.1600  138.5690 C   0  0  0  0  0  2  0  0  0  0  0  0
  184.1140  174.9760  137.2910 O   0  0  0  0  0  0  0  0  0  0  0  0
  181.8420  174.9150  137.9740 C   0  0  0  0  0  2  0  0  0  0  0  0
  182.6470  175.6280  139.0380 C   0  0  0  0  0  2  0  0  0  0  0  0
  183.0150  175.7880  137.5770 C   0  0  0  0  0  3  0  0  0  0  0  0
  188.3160  178.6180  140.5610 C   0  0  0  0  0  2  0  0  0  0  0  0
  188.6760  177.3880  141.3800 C   0  0  0  0  0  2  0  0  0  0  0  0
  191.3820  178.0910  142.3760 O   0  0  0  0  0  0  0  0  0  0  0  0
  188.2710  177.7310  143.8890 C   0  0  0  0  0  0  0  0  0  0  0  0
  191.3480  177.0030  146.7310 C   0  0  1  0  0  3  0  0  0  0  0  0
  191.4700  177.0830  145.2080 C   0  0  0  0  0  2  0  0  0  0  0  0
  190.5130  178.1380  144.6500 C   0  0  2  0  0  3  0  0  0  0  0  0
  189.0770  177.7760  142.7260 N   0  0  0  0  0  0  0  0  0  0  0  0
  188.8830  176.7540  146.0850 C   0  0  0  0  0  2  0  0  0  0  0  0
  189.0470  177.9520  145.1460 C   0  0  2  0  0  3  0  0  0  0  0  0
  189.9010  176.8230  147.2230 C   0  0  0  0  0  2  0  0  0  0  0  0
  187.0260  177.5490  143.8540 O   0  0  0  0  0  0  0  0  0  0  0  0
  190.4030  178.0010  143.1660 C   0  0  0  0  0  0  0  0  0  0  0  0
  192.8050  176.0290  148.5150 O   0  0  0  0  0  1  0  0  0  0  0  0
  192.2140  175.9120  147.2620 C   0  0  0  0  0  0  0  0  0  0  0  0
  192.4140  174.8800  146.5710 O   0  0  0  0  0  0  0  0  0  0  0  0
  1 19  1  0  0  0  0
  2  5  1  0  0  0  0
  2  7  1  0  0  0  0
  3 10  1  0  0  0  0
  4  6  1  0  0  0  0
  6  7  2  0  0  0  0
  6 14  1  0  0  0  0
  7  1  1  0  0  0  0
  8  3  2  0  0  0  0
  8  9  1  0  0  0  0
  9 11  1  0  0  0  0
  9 15  1  1  0  0  0
 10 12  1  0  0  0  0
 10  4  2  0  0  0  0
 11 12  1  0  0  0  0
 12  2  2  0  0  0  0
 13 14  1  0  0  0  0
 15 18  1  0  0  0  0
 16 17  1  0  0  0  0
 18 16  1  0  0  0  0
 18 17  1  0  0  0  0
 19 20  1  0  0  0  0
 20 26  1  0  0  0  0
 21 31  2  0  0  0  0
 22 28  1  0  0  0  0
 23 29  1  0  0  0  0
 23 33  1  6  0  0  0
 24 23  1  0  0  0  0
 25 28  1  0  0  0  0
 25 24  1  1  0  0  0
 26 31  1  0  0  0  0
 26 22  1  0  0  0  0
 27 29  1  0  0  0  0
 28 27  1  1  0  0  0
 30 22  2  0  0  0  0
 31 25  1  0  0  0  0
 33 32  1  0  0  0  0
 34 33  2  0  0  0  0
M  END
>  <MODEL>
8

>  <REMARK>
 VINA RESULT:      -7.9      4.852      6.938
  Name = 
  8 active torsions:
  status: ('A' for Active; 'I' for Inactive)
    1  A    between atoms: C_7  and  C_15
    2  A    between atoms: C_8  and  C_17
    3  A    between atoms: C_8  and  N_18
    4  A    between atoms: C_10  and  C_17
    5  A    between atoms: C_10  and  C_20
    6  A    between atoms: C_19  and  C_22
    7  A    between atoms: C_24  and  O_25
    8  A    between atoms: O_25  and  C_27
                            x       y       z     vdW  Elec       q    Type
                         _______ _______ _______ _____ _____    ______ ____

>  <TORSDO>
F 8

$$$$
=
 OpenBabel11052415423D

 34 38  0  0  1  0  0  0  0  0999 V2000
  190.7790  177.4850  139.5400 C   0  0  0  0  0  2  0  0  0  0  0  0
  188.7290  177.1880  138.1060 C   0  0  0  0  0  0  0  0  0  0  0  0
  188.0010  174.8590  135.2370 C   0  0  0  0  0  3  0  0  0  0  0  0
  189.9750  175.1840  136.6550 N   0  0  0  0  0  0  0  0  0  0  0  0
  188.1020  178.2040  138.8210 O   0  0  0  0  0  1  0  0  0  0  0  0
  190.6570  175.7850  137.6670 C   0  0  0  0  0  0  0  0  0  0  0  0
  190.0410  176.8010  138.4260 C   0  0  0  0  0  0  0  0  0  0  0  0
  186.6850  175.0270  135.0700 C   0  0  0  0  0  3  0  0  0  0  0  0
  185.8650  175.8300  136.0490 C   0  0  2  0  0  3  0  0  0  0  0  0
  188.7020  175.5370  136.3390 C   0  0  0  0  0  0  0  0  0  0  0  0
  186.6760  176.9950  136.6370 C   0  0  0  0  0  2  0  0  0  0  0  0
  188.0510  176.5500  137.0630 C   0  0  0  0  0  0  0  0  0  0  0  0
  192.4430  174.2130  137.0160 C   0  0  0  0  0  1  0  0  0  0  0  0
  192.0450  175.3210  137.9700 C   0  0  0  0  0  2  0  0  0  0  0  0
  185.4250  174.9970  137.0830 O   0  0  0  0  0  0  0  0  0  0  0  0
  185.0790  172.6600  137.3100 C   0  0  0  0  0  2  0  0  0  0  0  0
  183.7310  173.3460  137.2730 C   0  0  0  0  0  2  0  0  0  0  0  0
  184.8770  173.8840  136.4410 C   0  0  0  0  0  3  0  0  0  0  0  0
  190.4950  176.8010  140.8680 C   0  0  0  0  0  2  0  0  0  0  0  0
  190.4530  177.8150  142.0010 C   0  0  0  0  0  2  0  0  0  0  0  0
  187.5440  177.2280  142.0540 O   0  0  0  0  0  0  0  0  0  0  0  0
  190.0660  177.1500  144.4470 C   0  0  0  0  0  0  0  0  0  0  0  0
  186.3100  177.7940  146.3330 C   0  0  1  0  0  3  0  0  0  0  0  0
  186.6500  177.9030  144.8450 C   0  0  0  0  0  2  0  0  0  0  0  0
  187.6830  176.8440  144.4540 C   0  0  2  0  0  3  0  0  0  0  0  0
  189.6470  177.3070  143.1050 N   0  0  0  0  0  0  0  0  0  0  0  0
  188.8630  177.9110  146.4790 C   0  0  0  0  0  2  0  0  0  0  0  0
  188.9370  176.8480  145.3800 C   0  0  2  0  0  3  0  0  0  0  0  0
  187.5470  177.7940  147.2470 C   0  0  0  0  0  2  0  0  0  0  0  0
  191.2700  177.2300  144.8050 O   0  0  0  0  0  0  0  0  0  0  0  0
  188.2420  177.1430  143.1010 C   0  0  0  0  0  0  0  0  0  0  0  0
  185.7510  179.8260  147.6800 O   0  0  0  0  0  1  0  0  0  0  0  0
  185.3730  178.8840  146.7300 C   0  0  0  0  0  0  0  0  0  0  0  0
  184.2320  178.9490  146.2050 O   0  0  0  0  0  0  0  0  0  0  0  0
  1 19  1  0  0  0  0
  2  7  1  0  0  0  0
  2  5  1  0  0  0  0
  3 10  1  0  0  0  0
  4  6  1  0  0  0  0
  6 14  1  0  0  0  0
  6  7  2  0  0  0  0
  7  1  1  0  0  0  0
  8  3  2  0  0  0  0
  8  9  1  0  0  0  0
  9 11  1  0  0  0  0
  9 15  1  1  0  0  0
 10  4  2  0  0  0  0
 10 12  1  0  0  0  0
 11 12  1  0  0  0  0
 12  2  2  0  0  0  0
 13 14  1  0  0  0  0
 17 16  1  0  0  0  0
 18 15  1  0  0  0  0
 18 17  1  0  0  0  0
 18 16  1  0  0  0  0
 19 20  1  0  0  0  0
 20 26  1  0  0  0  0
 21 31  2  0  0  0  0
 22 30  2  0  0  0  0
 22 28  1  0  0  0  0
 23 33  1  1  0  0  0
 23 29  1  0  0  0  0
 24 23  1  0  0  0  0
 25 24  1  1  0  0  0
 25 28  1  0  0  0  0
 26 22  1  0  0  0  0
 27 29  1  0  0  0  0
 28 27  1  1  0  0  0
 31 26  1  0  0  0  0
 31 25  1  0  0  0  0
 33 32  1  0  0  0  0
 34 33  2  0  0  0  0
M  END
>  <MODEL>
9

>  <REMARK>
 VINA RESULT:      -7.8      5.583      8.030
  Name = 
  8 active torsions:
  status: ('A' for Active; 'I' for Inactive)
    1  A    between atoms: C_7  and  C_15
    2  A    between atoms: C_8  and  C_17
    3  A    between atoms: C_8  and  N_18
    4  A    between atoms: C_10  and  C_17
    5  A    between atoms: C_10  and  C_20
    6  A    between atoms: C_19  and  C_22
    7  A    between atoms: C_24  and  O_25
    8  A    between atoms: O_25  and  C_27
                            x       y       z     vdW  Elec       q    Type
                         _______ _______ _______ _____ _____    ______ ____

>  <TORSDO>
F 8

$$$$
