=
 OpenBabel11052413403D

 27 31  0  0  1  0  0  0  0  0999 V2000
  188.7770  178.7970  137.4440 C   0  0  0  0  0  2  0  0  0  0  0  0
  188.3260  177.9940  139.7520 C   0  0  0  0  0  0  0  0  0  0  0  0
  190.5350  177.0510  139.0720 N   0  0  0  0  0  2  0  0  0  0  0  0
  189.4940  177.9560  143.8790 C   0  0  0  0  0  2  0  0  0  0  0  0
  191.6040  179.1000  143.9470 O   0  0  0  0  0  1  0  0  0  0  0  0
  187.4880  178.3900  140.7480 N   0  0  0  0  0  0  0  0  0  0  0  0
  191.4600  177.1830  141.7660 C   0  0  0  0  0  2  0  0  0  0  0  0
  190.9790  174.3330  137.2370 C   0  0  0  0  0  1  0  0  0  0  0  0
  191.6240  176.8030  143.2370 C   0  0  0  0  0  2  0  0  0  0  0  0
  191.3940  176.1590  135.6950 O   0  0  0  0  0  0  0  0  0  0  0  0
  189.6330  177.5520  140.0730 C   0  0  0  0  0  0  0  0  0  0  0  0
  187.8910  178.1120  138.3850 N   0  0  0  0  0  0  0  0  0  0  0  0
  190.9960  177.8580  144.1420 C   0  0  2  0  0  3  0  0  0  0  0  0
  189.1480  178.0020  142.4160 C   0  0  0  0  0  0  0  0  0  0  0  0
  189.8150  177.8490  136.8470 C   0  0  2  0  0  3  0  0  0  0  0  0
  190.0430  177.5630  141.4190 C   0  0  0  0  0  0  0  0  0  0  0  0
  191.2190  175.8230  137.0610 C   0  0  1  0  0  3  0  0  0  0  0  0
  187.8620  178.3920  142.0520 C   0  0  0  0  0  3  0  0  0  0  0  0
  190.1210  176.3080  135.0960 C   0  0  0  0  0  2  0  0  0  0  0  0
  189.4390  177.4770  135.5320 O   0  0  0  0  0  0  0  0  0  0  0  0
  190.1170  176.6390  137.7380 C   0  0  1  0  0  3  0  0  0  0  0  0
  184.1150  176.6620  137.0620 C   0  0  0  0  0  3  0  0  0  0  0  0
  186.6100  177.6110  137.9480 C   0  0  0  0  0  0  0  0  0  0  0  0
  186.5190  176.4190  137.2090 C   0  0  0  0  0  3  0  0  0  0  0  0
  185.2780  175.9460  136.7710 C   0  0  0  0  0  3  0  0  0  0  0  0
  184.1920  177.8510  137.7910 C   0  0  0  0  0  3  0  0  0  0  0  0
  185.4320  178.3240  138.2290 C   0  0  0  0  0  3  0  0  0  0  0  0
  1 12  1  0  0  0  0
  2 11  2  0  0  0  0
  2  6  1  0  0  0  0
  3 11  1  0  0  0  0
  4 13  1  0  0  0  0
  6 18  2  0  0  0  0
  7  9  1  0  0  0  0
  9 13  1  0  0  0  0
 10 17  1  0  0  0  0
 11 16  1  0  0  0  0
 12  2  1  0  0  0  0
 13  5  1  6  0  0  0
 14  4  1  0  0  0  0
 15  1  1  1  0  0  0
 15 21  1  0  0  0  0
 16  7  1  0  0  0  0
 16 14  2  0  0  0  0
 17  8  1  6  0  0  0
 17 21  1  0  0  0  0
 18 14  1  0  0  0  0
 19 20  1  0  0  0  0
 19 10  1  0  0  0  0
 20 15  1  0  0  0  0
 21  3  1  1  0  0  0
 22 26  1  0  0  0  0
 23 27  1  0  0  0  0
 23 12  1  0  0  0  0
 24 23  2  0  0  0  0
 25 22  2  0  0  0  0
 25 24  1  0  0  0  0
 26 27  2  0  0  0  0
M  END
>  <MODEL>
1

>  <REMARK>
 VINA RESULT:      -7.8      0.000      0.000
  Name = 
  1 active torsions:
  status: ('A' for Active; 'I' for Inactive)
    1  A    between atoms: C_9  and  N_15
                            x       y       z     vdW  Elec       q    Type
                         _______ _______ _______ _____ _____    ______ ____

>  <TORSDO>
F 1

$$$$
=
 OpenBabel11052413403D

 27 31  0  0  1  0  0  0  0  0999 V2000
  187.9180  176.1630  143.5930 C   0  0  0  0  0  2  0  0  0  0  0  0
  187.0380  177.7340  141.8810 C   0  0  0  0  0  0  0  0  0  0  0  0
  189.5280  177.8770  141.7900 N   0  0  0  0  0  2  0  0  0  0  0  0
  186.7480  178.8010  137.7370 C   0  0  0  0  0  2  0  0  0  0  0  0
  188.2130  177.2830  136.5910 O   0  0  0  0  0  1  0  0  0  0  0  0
  185.8410  177.8780  141.2500 N   0  0  0  0  0  0  0  0  0  0  0  0
  189.4310  178.3920  138.9860 C   0  0  0  0  0  2  0  0  0  0  0  0
  191.4220  179.6980  143.8030 C   0  0  0  0  0  1  0  0  0  0  0  0
  189.2260  179.1680  137.6860 C   0  0  0  0  0  2  0  0  0  0  0  0
  191.6800  177.4350  144.6370 O   0  0  0  0  0  0  0  0  0  0  0  0
  188.2390  177.9400  141.1580 C   0  0  0  0  0  0  0  0  0  0  0  0
  187.0570  177.2950  143.2510 N   0  0  0  0  0  0  0  0  0  0  0  0
  188.0250  178.6280  136.9170 C   0  0  2  0  0  3  0  0  0  0  0  0
  186.9000  178.3770  139.1710 C   0  0  0  0  0  0  0  0  0  0  0  0
  189.3460  176.6070  143.9020 C   0  0  2  0  0  3  0  0  0  0  0  0
  188.1620  178.2600  139.7900 C   0  0  0  0  0  0  0  0  0  0  0  0
  191.1940  178.2150  143.5580 C   0  0  1  0  0  3  0  0  0  0  0  0
  185.7490  178.2010  139.9350 C   0  0  0  0  0  3  0  0  0  0  0  0
  190.6970  177.4030  145.6540 C   0  0  0  0  0  2  0  0  0  0  0  0
  189.5630  176.6220  145.3020 O   0  0  0  0  0  0  0  0  0  0  0  0
  189.7280  177.9330  143.2320 C   0  0  1  0  0  3  0  0  0  0  0  0
  184.6000  179.0820  146.2320 C   0  0  0  0  0  3  0  0  0  0  0  0
  186.2300  177.9130  144.2610 C   0  0  0  0  0  0  0  0  0  0  0  0
  186.6670  177.9950  145.5950 C   0  0  0  0  0  3  0  0  0  0  0  0
  185.8570  178.5780  146.5740 C   0  0  0  0  0  3  0  0  0  0  0  0
  184.1530  179.0030  144.9120 C   0  0  0  0  0  3  0  0  0  0  0  0
  184.9620  178.4200  143.9330 C   0  0  0  0  0  3  0  0  0  0  0  0
  2 12  1  0  0  0  0
  4 14  1  0  0  0  0
  6  2  1  0  0  0  0
  7 16  1  0  0  0  0
  9  7  1  0  0  0  0
 10 19  1  0  0  0  0
 11  3  1  0  0  0  0
 11  2  2  0  0  0  0
 12  1  1  0  0  0  0
 12 23  1  0  0  0  0
 13  5  1  1  0  0  0
 13  9  1  0  0  0  0
 13  4  1  0  0  0  0
 14 16  2  0  0  0  0
 14 18  1  0  0  0  0
 15  1  1  1  0  0  0
 15 20  1  0  0  0  0
 16 11  1  0  0  0  0
 17  8  1  1  0  0  0
 17 10  1  0  0  0  0
 18  6  2  0  0  0  0
 20 19  1  0  0  0  0
 21  3  1  6  0  0  0
 21 17  1  0  0  0  0
 21 15  1  0  0  0  0
 22 25  1  0  0  0  0
 23 24  1  0  0  0  0
 24 25  2  0  0  0  0
 26 22  2  0  0  0  0
 27 23  2  0  0  0  0
 27 26  1  0  0  0  0
M  END
>  <MODEL>
2

>  <REMARK>
 VINA RESULT:      -7.4      2.465      6.781
  Name = 
  1 active torsions:
  status: ('A' for Active; 'I' for Inactive)
    1  A    between atoms: C_9  and  N_15
                            x       y       z     vdW  Elec       q    Type
                         _______ _______ _______ _____ _____    ______ ____

>  <TORSDO>
F 1

$$$$
=
 OpenBabel11052413403D

 27 31  0  0  1  0  0  0  0  0999 V2000
  188.7190  178.8860  138.9910 C   0  0  0  0  0  2  0  0  0  0  0  0
  190.5790  177.2670  139.2980 C   0  0  0  0  0  0  0  0  0  0  0  0
  189.4790  176.7080  137.1290 N   0  0  0  0  0  2  0  0  0  0  0  0
  194.3240  175.7240  137.8860 C   0  0  0  0  0  2  0  0  0  0  0  0
  194.7030  176.8180  135.7830 O   0  0  0  0  0  1  0  0  0  0  0  0
  191.6950  177.2390  140.0780 N   0  0  0  0  0  0  0  0  0  0  0  0
  191.9740  175.8500  136.0450 C   0  0  0  0  0  2  0  0  0  0  0  0
  186.7400  174.8840  136.7790 C   0  0  0  0  0  1  0  0  0  0  0  0
  193.1850  174.9540  135.7920 C   0  0  0  0  0  2  0  0  0  0  0  0
  185.9740  177.1650  136.4680 O   0  0  0  0  0  0  0  0  0  0  0  0
  190.6420  176.7740  137.9720 C   0  0  0  0  0  0  0  0  0  0  0  0
  189.3810  177.8740  139.8150 N   0  0  0  0  0  0  0  0  0  0  0  0
  194.4510  175.5760  136.3710 C   0  0  2  0  0  3  0  0  0  0  0  0
  193.0060  176.3030  138.3190 C   0  0  0  0  0  0  0  0  0  0  0  0
  187.7560  178.2580  137.9850 C   0  0  2  0  0  3  0  0  0  0  0  0
  191.8700  176.2930  137.4830 C   0  0  0  0  0  0  0  0  0  0  0  0
  187.1220  176.3380  136.5590 C   0  0  1  0  0  3  0  0  0  0  0  0
  192.8830  176.7650  139.6270 C   0  0  0  0  0  3  0  0  0  0  0  0
  185.5430  177.4910  137.7760 C   0  0  0  0  0  2  0  0  0  0  0  0
  186.4200  178.3930  138.4370 O   0  0  0  0  0  0  0  0  0  0  0  0
  188.1130  176.8110  137.6230 C   0  0  1  0  0  3  0  0  0  0  0  0
  187.8080  176.8600  143.6370 C   0  0  0  0  0  3  0  0  0  0  0  0
  188.8570  177.5380  141.1180 C   0  0  0  0  0  0  0  0  0  0  0  0
  189.4460  176.5200  141.8880 C   0  0  0  0  0  3  0  0  0  0  0  0
  188.9260  176.1850  143.1410 C   0  0  0  0  0  3  0  0  0  0  0  0
  187.2110  177.8700  142.8800 C   0  0  0  0  0  3  0  0  0  0  0  0
  187.7310  178.2050  141.6270 C   0  0  0  0  0  3  0  0  0  0  0  0
  1 12  1  0  0  0  0
  2 12  1  0  0  0  0
  2  6  1  0  0  0  0
  3 11  1  0  0  0  0
  4 14  1  0  0  0  0
  7 16  1  0  0  0  0
  9  7  1  0  0  0  0
  9 13  1  0  0  0  0
 10 17  1  0  0  0  0
 10 19  1  0  0  0  0
 11  2  2  0  0  0  0
 12 23  1  0  0  0  0
 13  5  1  6  0  0  0
 13  4  1  0  0  0  0
 14 18  1  0  0  0  0
 15 20  1  0  0  0  0
 15  1  1  1  0  0  0
 16 11  1  0  0  0  0
 16 14  2  0  0  0  0
 17  8  1  1  0  0  0
 17 21  1  0  0  0  0
 18  6  2  0  0  0  0
 19 20  1  0  0  0  0
 21  3  1  6  0  0  0
 21 15  1  0  0  0  0
 23 27  2  0  0  0  0
 23 24  1  0  0  0  0
 24 25  2  0  0  0  0
 25 22  1  0  0  0  0
 26 22  2  0  0  0  0
 27 26  1  0  0  0  0
M  END
>  <MODEL>
3

>  <REMARK>
 VINA RESULT:      -7.1      2.358      5.388
  Name = 
  1 active torsions:
  status: ('A' for Active; 'I' for Inactive)
    1  A    between atoms: C_9  and  N_15
                            x       y       z     vdW  Elec       q    Type
                         _______ _______ _______ _____ _____    ______ ____

>  <TORSDO>
F 1

$$$$
=
 OpenBabel11052413403D

 27 31  0  0  1  0  0  0  0  0999 V2000
  188.6760  175.9270  143.2350 C   0  0  0  0  0  2  0  0  0  0  0  0
  189.0060  176.9260  140.9840 C   0  0  0  0  0  0  0  0  0  0  0  0
  191.1940  177.0760  142.1750 N   0  0  0  0  0  2  0  0  0  0  0  0
  190.9950  176.7530  137.1880 C   0  0  0  0  0  2  0  0  0  0  0  0
  192.6130  174.9920  137.4040 O   0  0  0  0  0  1  0  0  0  0  0  0
  188.3230  176.8640  139.8070 N   0  0  0  0  0  0  0  0  0  0  0  0
  192.5960  176.7620  139.7110 C   0  0  0  0  0  2  0  0  0  0  0  0
  192.0430  179.4270  144.3440 C   0  0  0  0  0  1  0  0  0  0  0  0
  193.1840  177.1280  138.3490 C   0  0  0  0  0  2  0  0  0  0  0  0
  191.5310  177.5030  145.7290 O   0  0  0  0  0  0  0  0  0  0  0  0
  190.4220  176.9340  140.9700 C   0  0  0  0  0  0  0  0  0  0  0  0
  188.2700  176.8990  142.2200 N   0  0  0  0  0  0  0  0  0  0  0  0
  192.4740  176.3710  137.2310 C   0  0  2  0  0  3  0  0  0  0  0  0
  190.3430  176.7610  138.5430 C   0  0  0  0  0  0  0  0  0  0  0  0
  189.7990  176.4630  144.1200 C   0  0  2  0  0  3  0  0  0  0  0  0
  191.0910  176.8470  139.7360 C   0  0  0  0  0  0  0  0  0  0  0  0
  191.7690  177.9330  144.4000 C   0  0  1  0  0  3  0  0  0  0  0  0
  188.9520  176.7940  138.6080 C   0  0  0  0  0  3  0  0  0  0  0  0
  190.1760  177.7490  146.0520 C   0  0  0  0  0  2  0  0  0  0  0  0
  189.2790  176.8830  145.3690 O   0  0  0  0  0  0  0  0  0  0  0  0
  190.6440  177.5460  143.4390 C   0  0  1  0  0  3  0  0  0  0  0  0
  184.9180  179.4350  142.8910 C   0  0  0  0  0  3  0  0  0  0  0  0
  187.1410  177.7690  142.4540 C   0  0  0  0  0  0  0  0  0  0  0  0
  186.4680  177.7550  143.6880 C   0  0  0  0  0  3  0  0  0  0  0  0
  185.3650  178.5850  143.9060 C   0  0  0  0  0  3  0  0  0  0  0  0
  185.5750  179.4550  141.6590 C   0  0  0  0  0  3  0  0  0  0  0  0
  186.6780  178.6250  141.4410 C   0  0  0  0  0  3  0  0  0  0  0  0
  2 12  1  0  0  0  0
  4 13  1  0  0  0  0
  4 14  1  0  0  0  0
  6  2  2  0  0  0  0
  7 16  1  0  0  0  0
  9  7  1  0  0  0  0
 10 19  1  0  0  0  0
 11  2  1  0  0  0  0
 11  3  1  0  0  0  0
 12 23  1  0  0  0  0
 12  1  1  0  0  0  0
 13  5  1  1  0  0  0
 13  9  1  0  0  0  0
 14 18  2  0  0  0  0
 14 16  1  0  0  0  0
 15  1  1  6  0  0  0
 15 20  1  0  0  0  0
 16 11  2  0  0  0  0
 17  8  1  1  0  0  0
 17 10  1  0  0  0  0
 18  6  1  0  0  0  0
 20 19  1  0  0  0  0
 21  3  1  6  0  0  0
 21 15  1  0  0  0  0
 21 17  1  0  0  0  0
 22 25  1  0  0  0  0
 23 24  1  0  0  0  0
 24 25  2  0  0  0  0
 26 22  2  0  0  0  0
 27 26  1  0  0  0  0
 27 23  2  0  0  0  0
M  END
>  <MODEL>
4

>  <REMARK>
 VINA RESULT:      -7.1      2.511      6.239
  Name = 
  1 active torsions:
  status: ('A' for Active; 'I' for Inactive)
    1  A    between atoms: C_9  and  N_15
                            x       y       z     vdW  Elec       q    Type
                         _______ _______ _______ _____ _____    ______ ____

>  <TORSDO>
F 1

$$$$
=
 OpenBabel11052413403D

 27 31  0  0  1  0  0  0  0  0999 V2000
  184.0590  179.7500  139.4680 C   0  0  0  0  0  2  0  0  0  0  0  0
  186.1530  178.4140  139.5340 C   0  0  0  0  0  0  0  0  0  0  0  0
  184.6970  177.3990  137.7790 N   0  0  0  0  0  2  0  0  0  0  0  0
  189.6800  177.0830  137.4870 C   0  0  0  0  0  2  0  0  0  0  0  0
  189.4300  177.8620  135.2300 O   0  0  0  0  0  1  0  0  0  0  0  0
  187.4040  178.6320  140.0240 N   0  0  0  0  0  0  0  0  0  0  0  0
  186.9920  176.6570  136.2560 C   0  0  0  0  0  2  0  0  0  0  0  0
  182.2370  175.2550  138.3290 C   0  0  0  0  0  1  0  0  0  0  0  0
  188.2330  175.8690  135.8410 C   0  0  0  0  0  2  0  0  0  0  0  0
  181.1040  177.3590  137.9140 O   0  0  0  0  0  0  0  0  0  0  0  0
  185.9940  177.7250  138.3060 C   0  0  0  0  0  0  0  0  0  0  0  0
  185.0230  178.9610  140.2360 N   0  0  0  0  0  0  0  0  0  0  0  0
  189.4930  176.7110  136.0170 C   0  0  2  0  0  3  0  0  0  0  0  0
  188.4190  177.5770  138.1410 C   0  0  0  0  0  0  0  0  0  0  0  0
  182.9990  178.8680  138.8100 C   0  0  2  0  0  3  0  0  0  0  0  0
  187.1420  177.3090  137.6060 C   0  0  0  0  0  0  0  0  0  0  0  0
  182.3500  176.6880  137.8370 C   0  0  1  0  0  3  0  0  0  0  0  0
  188.5200  178.2250  139.3700 C   0  0  0  0  0  3  0  0  0  0  0  0
  180.9270  177.8410  139.2330 C   0  0  0  0  0  2  0  0  0  0  0  0
  181.7890  178.9270  139.5450 O   0  0  0  0  0  0  0  0  0  0  0  0
  183.4710  177.4300  138.5660 C   0  0  1  0  0  3  0  0  0  0  0  0
  184.5260  178.4700  144.4350 C   0  0  0  0  0  3  0  0  0  0  0  0
  184.8500  178.7820  141.6580 C   0  0  0  0  0  0  0  0  0  0  0  0
  183.5990  179.0030  142.2630 C   0  0  0  0  0  3  0  0  0  0  0  0
  183.4380  178.8460  143.6420 C   0  0  0  0  0  3  0  0  0  0  0  0
  185.7740  178.2530  143.8480 C   0  0  0  0  0  3  0  0  0  0  0  0
  185.9350  178.4100  142.4680 C   0  0  0  0  0  3  0  0  0  0  0  0
  1 12  1  0  0  0  0
  2  6  1  0  0  0  0
  2 12  1  0  0  0  0
  3 11  1  0  0  0  0
  4 14  1  0  0  0  0
  7 16  1  0  0  0  0
  9 13  1  0  0  0  0
  9  7  1  0  0  0  0
 10 19  1  0  0  0  0
 11  2  2  0  0  0  0
 12 23  1  0  0  0  0
 13  5  1  6  0  0  0
 13  4  1  0  0  0  0
 14 18  1  0  0  0  0
 15  1  1  1  0  0  0
 15 20  1  0  0  0  0
 16 14  2  0  0  0  0
 16 11  1  0  0  0  0
 17 10  1  0  0  0  0
 17  8  1  1  0  0  0
 17 21  1  0  0  0  0
 18  6  2  0  0  0  0
 19 20  1  0  0  0  0
 21  3  1  6  0  0  0
 21 15  1  0  0  0  0
 23 24  2  0  0  0  0
 23 27  1  0  0  0  0
 24 25  1  0  0  0  0
 25 22  2  0  0  0  0
 26 22  1  0  0  0  0
 27 26  2  0  0  0  0
M  END
>  <MODEL>
5

>  <REMARK>
 VINA RESULT:      -6.5      3.310      6.777
  Name = 
  1 active torsions:
  status: ('A' for Active; 'I' for Inactive)
    1  A    between atoms: C_9  and  N_15
                            x       y       z     vdW  Elec       q    Type
                         _______ _______ _______ _____ _____    ______ ____

>  <TORSDO>
F 1

$$$$
=
 OpenBabel11052413403D

 27 31  0  0  1  0  0  0  0  0999 V2000
  189.5340  178.1640  138.2770 C   0  0  0  0  0  2  0  0  0  0  0  0
  187.1880  177.4000  137.9800 C   0  0  0  0  0  0  0  0  0  0  0  0
  187.4080  178.1750  140.3420 N   0  0  0  0  0  2  0  0  0  0  0  0
  183.0160  178.3980  137.9590 C   0  0  0  0  0  2  0  0  0  0  0  0
  182.9100  180.6730  138.7180 O   0  0  0  0  0  1  0  0  0  0  0  0
  186.3920  177.1740  136.8990 N   0  0  0  0  0  0  0  0  0  0  0  0
  184.6940  179.0520  140.3430 C   0  0  0  0  0  2  0  0  0  0  0  0
  188.6340  176.3890  142.8440 C   0  0  0  0  0  1  0  0  0  0  0  0
  183.1690  178.9690  140.3940 C   0  0  0  0  0  2  0  0  0  0  0  0
  190.4280  177.9190  142.2770 O   0  0  0  0  0  0  0  0  0  0  0  0
  186.6340  177.9840  139.1460 C   0  0  0  0  0  0  0  0  0  0  0  0
  188.5950  177.1130  137.8830 N   0  0  0  0  0  0  0  0  0  0  0  0
  182.5600  179.3630  139.0520 C   0  0  2  0  0  3  0  0  0  0  0  0
  184.4930  178.1140  137.9940 C   0  0  0  0  0  0  0  0  0  0  0  0
  189.8130  178.1430  139.7780 C   0  0  2  0  0  3  0  0  0  0  0  0
  185.2750  178.3460  139.1450 C   0  0  0  0  0  0  0  0  0  0  0  0
  189.0550  177.6310  142.0760 C   0  0  1  0  0  3  0  0  0  0  0  0
  185.0760  177.5030  136.8870 C   0  0  0  0  0  3  0  0  0  0  0  0
  191.1940  177.1280  141.3880 C   0  0  0  0  0  2  0  0  0  0  0  0
  191.0700  177.5420  140.0340 O   0  0  0  0  0  0  0  0  0  0  0  0
  188.6810  177.5150  140.5990 C   0  0  1  0  0  3  0  0  0  0  0  0
  190.0450  173.3830  136.4360 C   0  0  0  0  0  3  0  0  0  0  0  0
  189.0830  175.8510  137.3800 C   0  0  0  0  0  0  0  0  0  0  0  0
  188.2130  174.7570  137.2190 C   0  0  0  0  0  3  0  0  0  0  0  0
  188.6910  173.5310  136.7480 C   0  0  0  0  0  3  0  0  0  0  0  0
  190.9200  174.4590  136.5960 C   0  0  0  0  0  3  0  0  0  0  0  0
  190.4420  175.6850  137.0670 C   0  0  0  0  0  3  0  0  0  0  0  0
  2 11  1  0  0  0  0
  4 14  1  0  0  0  0
  4 13  1  0  0  0  0
  6  2  2  0  0  0  0
  7  9  1  0  0  0  0
 11  3  1  0  0  0  0
 12  2  1  0  0  0  0
 12  1  1  0  0  0  0
 13  5  1  6  0  0  0
 13  9  1  0  0  0  0
 14 16  1  0  0  0  0
 15  1  1  6  0  0  0
 15 20  1  0  0  0  0
 15 21  1  0  0  0  0
 16 11  2  0  0  0  0
 16  7  1  0  0  0  0
 17 10  1  0  0  0  0
 17  8  1  1  0  0  0
 18  6  1  0  0  0  0
 18 14  2  0  0  0  0
 19 10  1  0  0  0  0
 20 19  1  0  0  0  0
 21  3  1  1  0  0  0
 21 17  1  0  0  0  0
 22 26  2  0  0  0  0
 22 25  1  0  0  0  0
 23 12  1  0  0  0  0
 24 23  1  0  0  0  0
 25 24  2  0  0  0  0
 26 27  1  0  0  0  0
 27 23  2  0  0  0  0
M  END
>  <MODEL>
6

>  <REMARK>
 VINA RESULT:      -6.3      2.319      5.923
  Name = 
  1 active torsions:
  status: ('A' for Active; 'I' for Inactive)
    1  A    between atoms: C_9  and  N_15
                            x       y       z     vdW  Elec       q    Type
                         _______ _______ _______ _____ _____    ______ ____

>  <TORSDO>
F 1

$$$$
=
 OpenBabel11052413403D

 27 31  0  0  1  0  0  0  0  0999 V2000
  182.3220  179.5340  140.1900 C   0  0  0  0  0  2  0  0  0  0  0  0
  184.4310  178.3260  139.6710 C   0  0  0  0  0  0  0  0  0  0  0  0
  182.5930  177.1240  138.4860 N   0  0  0  0  0  2  0  0  0  0  0  0
  187.2670  177.0750  136.7060 C   0  0  0  0  0  2  0  0  0  0  0  0
  186.2930  177.6990  134.6010 O   0  0  0  0  0  1  0  0  0  0  0  0
  185.7520  178.6450  139.7480 N   0  0  0  0  0  0  0  0  0  0  0  0
  184.3710  176.4220  136.3690 C   0  0  0  0  0  2  0  0  0  0  0  0
  180.5750  174.8810  139.8460 C   0  0  0  0  0  1  0  0  0  0  0  0
  185.4840  175.6820  135.6290 C   0  0  0  0  0  2  0  0  0  0  0  0
  179.2190  176.8880  139.7080 O   0  0  0  0  0  0  0  0  0  0  0  0
  183.9610  177.5550  138.5800 C   0  0  0  0  0  0  0  0  0  0  0  0
  183.5270  178.8500  140.6610 N   0  0  0  0  0  0  0  0  0  0  0  0
  186.6740  176.6030  135.3790 C   0  0  2  0  0  3  0  0  0  0  0  0
  186.2280  177.5350  137.6910 C   0  0  0  0  0  0  0  0  0  0  0  0
  181.1810  178.5550  139.9220 C   0  0  2  0  0  3  0  0  0  0  0  0
  184.8720  177.1630  137.5820 C   0  0  0  0  0  0  0  0  0  0  0  0
  180.4300  176.2860  139.2840 C   0  0  1  0  0  3  0  0  0  0  0  0
  186.6470  178.2620  138.8030 C   0  0  0  0  0  3  0  0  0  0  0  0
  179.4120  177.4390  140.9970 C   0  0  0  0  0  2  0  0  0  0  0  0
  180.2470  178.5900  140.9870 O   0  0  0  0  0  0  0  0  0  0  0  0
  181.6610  177.1340  139.6050 C   0  0  1  0  0  3  0  0  0  0  0  0
  184.3570  178.5890  144.8270 C   0  0  0  0  0  3  0  0  0  0  0  0
  183.8030  178.7490  142.0740 C   0  0  0  0  0  0  0  0  0  0  0  0
  182.8220  179.0870  143.0230 C   0  0  0  0  0  3  0  0  0  0  0  0
  183.0970  179.0060  144.3910 C   0  0  0  0  0  3  0  0  0  0  0  0
  185.3420  178.2550  143.8950 C   0  0  0  0  0  3  0  0  0  0  0  0
  185.0670  178.3360  142.5270 C   0  0  0  0  0  3  0  0  0  0  0  0
  1 12  1  0  0  0  0
  2  6  1  0  0  0  0
  2 12  1  0  0  0  0
  3 11  1  0  0  0  0
  4 14  1  0  0  0  0
  7 16  1  0  0  0  0
  9  7  1  0  0  0  0
 10 19  1  0  0  0  0
 11  2  2  0  0  0  0
 12 23  1  0  0  0  0
 13  5  1  6  0  0  0
 13  9  1  0  0  0  0
 13  4  1  0  0  0  0
 14 18  1  0  0  0  0
 15  1  1  1  0  0  0
 15 20  1  0  0  0  0
 16 14  2  0  0  0  0
 16 11  1  0  0  0  0
 17 21  1  0  0  0  0
 17 10  1  0  0  0  0
 17  8  1  1  0  0  0
 18  6  2  0  0  0  0
 20 19  1  0  0  0  0
 21  3  1  6  0  0  0
 21 15  1  0  0  0  0
 23 27  2  0  0  0  0
 23 24  1  0  0  0  0
 24 25  2  0  0  0  0
 25 22  1  0  0  0  0
 26 22  2  0  0  0  0
 27 26  1  0  0  0  0
M  END
>  <MODEL>
7

>  <REMARK>
 VINA RESULT:      -6.3      4.439      8.226
  Name = 
  1 active torsions:
  status: ('A' for Active; 'I' for Inactive)
    1  A    between atoms: C_9  and  N_15
                            x       y       z     vdW  Elec       q    Type
                         _______ _______ _______ _____ _____    ______ ____

>  <TORSDO>
F 1

$$$$
=
 OpenBabel11052413403D

 27 31  0  0  1  0  0  0  0  0999 V2000
  187.9370  177.4290  136.2130 C   0  0  0  0  0  2  0  0  0  0  0  0
  185.6150  176.8360  136.8700 C   0  0  0  0  0  0  0  0  0  0  0  0
  186.5240  178.3130  138.6640 N   0  0  0  0  0  2  0  0  0  0  0  0
  181.6200  178.1650  137.6930 C   0  0  0  0  0  2  0  0  0  0  0  0
  181.7290  180.5630  137.6340 O   0  0  0  0  0  1  0  0  0  0  0  0
  184.5330  176.3480  136.2010 N   0  0  0  0  0  0  0  0  0  0  0  0
  183.9280  179.3970  139.1360 C   0  0  0  0  0  2  0  0  0  0  0  0
  188.4520  177.3290  141.1680 C   0  0  0  0  0  1  0  0  0  0  0  0
  182.4890  179.4800  139.6410 C   0  0  0  0  0  2  0  0  0  0  0  0
  189.9860  178.4140  139.6330 O   0  0  0  0  0  0  0  0  0  0  0  0
  185.4300  177.8180  137.8740 C   0  0  0  0  0  0  0  0  0  0  0  0
  186.9300  176.4010  136.4820 N   0  0  0  0  0  0  0  0  0  0  0  0
  181.5040  179.4720  138.4760 C   0  0  2  0  0  3  0  0  0  0  0  0
  183.0410  177.7690  137.4030 C   0  0  0  0  0  0  0  0  0  0  0  0
  188.6510  177.8710  137.4890 C   0  0  2  0  0  3  0  0  0  0  0  0
  184.1300  178.2870  138.1360 C   0  0  0  0  0  0  0  0  0  0  0  0
  188.6170  178.2080  139.9390 C   0  0  1  0  0  3  0  0  0  0  0  0
  183.2720  176.7790  136.4510 C   0  0  0  0  0  3  0  0  0  0  0  0
  190.4560  177.3070  138.8870 C   0  0  0  0  0  2  0  0  0  0  0  0
  189.9310  177.2690  137.5660 O   0  0  0  0  0  0  0  0  0  0  0  0
  187.8200  177.6540  138.7580 C   0  0  1  0  0  3  0  0  0  0  0  0
  187.9200  172.2880  136.0220 C   0  0  0  0  0  3  0  0  0  0  0  0
  187.2540  175.0040  136.3190 C   0  0  0  0  0  0  0  0  0  0  0  0
  186.7690  174.0440  137.2250 C   0  0  0  0  0  3  0  0  0  0  0  0
  187.0980  172.6940  137.0760 C   0  0  0  0  0  3  0  0  0  0  0  0
  188.4120  173.2310  135.1180 C   0  0  0  0  0  3  0  0  0  0  0  0
  188.0830  174.5810  135.2670 C   0  0  0  0  0  3  0  0  0  0  0  0
  1 12  1  0  0  0  0
  2 11  1  0  0  0  0
  4 13  1  0  0  0  0
  6 18  1  0  0  0  0
  6  2  2  0  0  0  0
  7  9  1  0  0  0  0
 10 17  1  0  0  0  0
 11 16  2  0  0  0  0
 11  3  1  0  0  0  0
 12  2  1  0  0  0  0
 13  5  1  6  0  0  0
 13  9  1  0  0  0  0
 14  4  1  0  0  0  0
 14 16  1  0  0  0  0
 15  1  1  6  0  0  0
 15 20  1  0  0  0  0
 15 21  1  0  0  0  0
 16  7  1  0  0  0  0
 17  8  1  1  0  0  0
 18 14  2  0  0  0  0
 19 10  1  0  0  0  0
 20 19  1  0  0  0  0
 21  3  1  6  0  0  0
 21 17  1  0  0  0  0
 22 25  1  0  0  0  0
 23 12  1  0  0  0  0
 23 24  1  0  0  0  0
 25 24  2  0  0  0  0
 26 27  1  0  0  0  0
 26 22  2  0  0  0  0
 27 23  2  0  0  0  0
M  END
>  <MODEL>
8

>  <REMARK>
 VINA RESULT:      -5.9      2.899      6.226
  Name = 
  1 active torsions:
  status: ('A' for Active; 'I' for Inactive)
    1  A    between atoms: C_9  and  N_15
                            x       y       z     vdW  Elec       q    Type
                         _______ _______ _______ _____ _____    ______ ____

>  <TORSDO>
F 1

$$$$
=
 OpenBabel11052413403D

 27 31  0  0  1  0  0  0  0  0999 V2000
  189.0460  179.0040  139.6580 C   0  0  0  0  0  2  0  0  0  0  0  0
  186.7600  178.2520  140.2740 C   0  0  0  0  0  0  0  0  0  0  0  0
  188.1980  177.9350  142.2890 N   0  0  0  0  0  2  0  0  0  0  0  0
  183.2930  178.8040  142.7390 C   0  0  0  0  0  2  0  0  0  0  0  0
  183.9090  180.5020  144.3200 O   0  0  0  0  0  1  0  0  0  0  0  0
  185.5190  178.4530  139.7500 N   0  0  0  0  0  0  0  0  0  0  0  0
  185.9840  178.4920  143.9990 C   0  0  0  0  0  2  0  0  0  0  0  0
  190.1840  175.3470  142.8440 C   0  0  0  0  0  1  0  0  0  0  0  0
  184.6770  178.2670  144.7580 C   0  0  0  0  0  2  0  0  0  0  0  0
  191.6970  177.1160  142.1620 O   0  0  0  0  0  0  0  0  0  0  0  0
  186.9270  178.2200  141.6800 C   0  0  0  0  0  0  0  0  0  0  0  0
  187.8860  178.1550  139.3840 N   0  0  0  0  0  0  0  0  0  0  0  0
  183.5680  179.1540  144.2010 C   0  0  2  0  0  3  0  0  0  0  0  0
  184.5440  178.6590  141.9170 C   0  0  0  0  0  0  0  0  0  0  0  0
  190.0030  178.3550  140.6560 C   0  0  2  0  0  3  0  0  0  0  0  0
  185.8060  178.4310  142.5040 C   0  0  0  0  0  0  0  0  0  0  0  0
  190.3690  176.8300  142.5690 C   0  0  1  0  0  3  0  0  0  0  0  0
  184.4260  178.6430  140.5290 C   0  0  0  0  0  3  0  0  0  0  0  0
  191.8140  176.8590  140.7760 C   0  0  0  0  0  2  0  0  0  0  0  0
  191.1210  177.8110  139.9770 O   0  0  0  0  0  0  0  0  0  0  0  0
  189.3210  177.3390  141.5790 C   0  0  1  0  0  3  0  0  0  0  0  0
  187.8790  175.6160  135.9690 C   0  0  0  0  0  3  0  0  0  0  0  0
  187.8760  177.2850  138.2320 C   0  0  0  0  0  0  0  0  0  0  0  0
  188.7650  176.2000  138.1440 C   0  0  0  0  0  3  0  0  0  0  0  0
  188.7650  175.3690  137.0200 C   0  0  0  0  0  3  0  0  0  0  0  0
  186.9940  176.6940  136.0410 C   0  0  0  0  0  3  0  0  0  0  0  0
  186.9940  177.5240  137.1650 C   0  0  0  0  0  3  0  0  0  0  0  0
  2 11  1  0  0  0  0
  4 13  1  0  0  0  0
  6  2  2  0  0  0  0
  6 18  1  0  0  0  0
  7  9  1  0  0  0  0
 10 17  1  0  0  0  0
 11  3  1  0  0  0  0
 11 16  2  0  0  0  0
 12  1  1  0  0  0  0
 12  2  1  0  0  0  0
 13  5  1  6  0  0  0
 13  9  1  0  0  0  0
 14 16  1  0  0  0  0
 14  4  1  0  0  0  0
 15  1  1  6  0  0  0
 15 21  1  0  0  0  0
 16  7  1  0  0  0  0
 17  8  1  6  0  0  0
 18 14  2  0  0  0  0
 19 10  1  0  0  0  0
 20 15  1  0  0  0  0
 20 19  1  0  0  0  0
 21  3  1  1  0  0  0
 21 17  1  0  0  0  0
 22 26  2  0  0  0  0
 22 25  1  0  0  0  0
 23 12  1  0  0  0  0
 24 23  1  0  0  0  0
 25 24  2  0  0  0  0
 26 27  1  0  0  0  0
 27 23  2  0  0  0  0
M  END
>  <MODEL>
9

>  <REMARK>
 VINA RESULT:      -5.6      2.828      4.693
  Name = 
  1 active torsions:
  status: ('A' for Active; 'I' for Inactive)
    1  A    between atoms: C_9  and  N_15
                            x       y       z     vdW  Elec       q    Type
                         _______ _______ _______ _____ _____    ______ ____

>  <TORSDO>
F 1

$$$$
