=
 OpenBabel11052412493D

 25 28  0  0  1  0  0  0  0  0999 V2000
  187.1230  177.9860  145.6430 C   0  0  0  0  0  0  0  0  0  0  0  0
  188.3940  177.2520  145.3410 C   0  0  1  0  0  3  0  0  0  0  0  0
  187.5350  178.1230  148.0330 C   0  0  0  0  0  3  0  0  0  0  0  0
  186.0390  178.2080  144.9230 C   0  0  0  0  0  0  0  0  0  0  0  0
  183.5390  178.8060  143.8840 C   0  0  0  0  0  3  0  0  0  0  0  0
  188.9080  177.6190  147.7810 C   0  0  0  0  0  3  0  0  0  0  0  0
  185.0370  178.6910  145.7580 C   0  0  0  0  0  0  0  0  0  0  0  0
  183.7750  179.0030  145.2560 C   0  0  0  0  0  3  0  0  0  0  0  0
  190.7390  176.9070  146.2990 C   0  0  0  0  0  0  0  0  0  0  0  0
  191.7900  176.3540  147.5930 Cl  0  0  0  0  0  0  0  0  0  0  0  0
  189.0930  177.7480  144.1060 C   0  0  0  0  0  3  0  0  0  0  0  0
  184.5530  178.2980  143.0460 C   0  0  0  0  0  3  0  0  0  0  0  0
  186.7300  178.3100  146.9890 C   0  0  0  0  0  0  0  0  0  0  0  0
  185.3830  178.7720  147.0090 N   0  0  0  0  0  0  0  0  0  0  0  0
  191.2440  177.0700  145.0710 C   0  0  0  0  0  3  0  0  0  0  0  0
  185.8210  177.9870  143.5640 C   0  0  0  0  0  3  0  0  0  0  0  0
  190.4190  177.5950  143.9580 C   0  0  0  0  0  0  0  0  0  0  0  0
  189.3290  177.2620  146.5470 C   0  0  0  0  0  0  0  0  0  0  0  0
  191.0680  177.9940  142.7480 N   0  0  0  0  0  2  0  0  0  0  0  0
  191.4440  177.0690  141.7570 N   0  0  0  0  0  2  0  0  0  0  0  0
  190.8820  177.4790  140.4670 C   0  0  2  0  0  3  0  0  0  0  0  0
  189.4280  177.5190  140.5110 N   0  0  0  0  0  1  0  0  0  0  0  0
  191.3700  176.6130  139.3460 C   0  0  0  0  0  0  0  0  0  0  0  0
  192.6360  176.8230  138.8180 O   0  0  0  0  0  0  0  0  0  0  0  0
  190.6560  175.6750  138.9020 O   0  0  0  0  0  1  0  0  0  0  0  0
  1 13  1  0  0  0  0
  2 11  1  6  0  0  0
  2  1  1  0  0  0  0
  2 18  1  0  0  0  0
  4  1  2  0  0  0  0
  4  7  1  0  0  0  0
  5  8  2  0  0  0  0
  6  3  1  0  0  0  0
  7 14  2  0  0  0  0
  8  7  1  0  0  0  0
  9 18  1  0  0  0  0
  9 10  1  0  0  0  0
 12 16  2  0  0  0  0
 12  5  1  0  0  0  0
 13 14  1  0  0  0  0
 13  3  2  0  0  0  0
 15  9  2  0  0  0  0
 16  4  1  0  0  0  0
 17 11  2  0  0  0  0
 17 15  1  0  0  0  0
 18  6  2  0  0  0  0
 19 17  1  0  0  0  0
 20 19  1  0  0  0  0
 21 22  1  1  0  0  0
 21 20  1  0  0  0  0
 23 21  1  0  0  0  0
 24 23  2  0  0  0  0
 25 23  1  0  0  0  0
M  END
>  <MODEL>
1

>  <REMARK>
 VINA RESULT:     -10.7      0.000      0.000
  Name = 
  4 active torsions:
  status: ('A' for Active; 'I' for Inactive)
    1  A    between atoms: C_2  and  C_21
    2  A    between atoms: N_6  and  N_15
    3  A    between atoms: N_6  and  C_23
    4  A    between atoms: N_15  and  C_21
                            x       y       z     vdW  Elec       q    Type
                         _______ _______ _______ _____ _____    ______ ____

>  <TORSDO>
F 4

$$$$
=
 OpenBabel11052412493D

 25 28  0  0  1  0  0  0  0  0999 V2000
  186.7610  177.9780  145.0690 C   0  0  0  0  0  0  0  0  0  0  0  0
  187.9430  177.1970  144.5830 C   0  0  1  0  0  3  0  0  0  0  0  0
  187.5580  178.1420  147.3580 C   0  0  0  0  0  3  0  0  0  0  0  0
  185.5820  178.2250  144.5290 C   0  0  0  0  0  0  0  0  0  0  0  0
  182.9670  178.8910  143.8940 C   0  0  0  0  0  3  0  0  0  0  0  0
  188.8560  177.5870  146.9000 C   0  0  0  0  0  3  0  0  0  0  0  0
  184.7440  178.7570  145.5040 C   0  0  0  0  0  0  0  0  0  0  0  0
  183.4270  179.1030  145.2050 C   0  0  0  0  0  3  0  0  0  0  0  0
  190.4000  176.7870  145.1580 C   0  0  0  0  0  0  0  0  0  0  0  0
  191.6280  176.2210  146.2780 Cl  0  0  0  0  0  0  0  0  0  0  0  0
  188.4480  177.6480  143.2410 C   0  0  0  0  0  3  0  0  0  0  0  0
  183.8150  178.3360  142.9140 C   0  0  0  0  0  3  0  0  0  0  0  0
  186.6010  178.3380  146.4540 C   0  0  0  0  0  0  0  0  0  0  0  0
  185.2900  178.8470  146.6810 N   0  0  0  0  0  0  0  0  0  0  0  0
  190.7050  176.9130  143.8610 C   0  0  0  0  0  3  0  0  0  0  0  0
  185.1400  177.9900  143.2280 C   0  0  0  0  0  3  0  0  0  0  0  0
  189.7270  177.4470  142.8840 C   0  0  0  0  0  0  0  0  0  0  0  0
  189.0600  177.1950  145.6220 C   0  0  0  0  0  0  0  0  0  0  0  0
  190.1830  177.8030  141.5770 N   0  0  0  0  0  2  0  0  0  0  0  0
  189.5500  177.3410  140.4090 N   0  0  0  0  0  2  0  0  0  0  0  0
  188.9290  178.4700  139.7100 C   0  0  2  0  0  3  0  0  0  0  0  0
  187.4800  178.4490  139.8530 N   0  0  0  0  0  1  0  0  0  0  0  0
  189.3340  178.5260  138.2700 C   0  0  0  0  0  0  0  0  0  0  0  0
  188.9440  179.6040  137.4880 O   0  0  0  0  0  0  0  0  0  0  0  0
  190.0540  177.6210  137.7700 O   0  0  0  0  0  1  0  0  0  0  0  0
  1 13  1  0  0  0  0
  2 11  1  6  0  0  0
  2  1  1  0  0  0  0
  2 18  1  0  0  0  0
  4  1  2  0  0  0  0
  4  7  1  0  0  0  0
  5  8  2  0  0  0  0
  6  3  1  0  0  0  0
  7 14  2  0  0  0  0
  8  7  1  0  0  0  0
  9 18  1  0  0  0  0
  9 10  1  0  0  0  0
 12 16  2  0  0  0  0
 12  5  1  0  0  0  0
 13 14  1  0  0  0  0
 13  3  2  0  0  0  0
 15  9  2  0  0  0  0
 16  4  1  0  0  0  0
 17 11  2  0  0  0  0
 17 15  1  0  0  0  0
 18  6  2  0  0  0  0
 19 17  1  0  0  0  0
 20 19  1  0  0  0  0
 21 22  1  6  0  0  0
 21 20  1  0  0  0  0
 23 21  1  0  0  0  0
 24 23  2  0  0  0  0
 25 23  1  0  0  0  0
M  END
>  <MODEL>
2

>  <REMARK>
 VINA RESULT:     -10.3      1.517      1.667
  Name = 
  4 active torsions:
  status: ('A' for Active; 'I' for Inactive)
    1  A    between atoms: C_2  and  C_21
    2  A    between atoms: N_6  and  N_15
    3  A    between atoms: N_6  and  C_23
    4  A    between atoms: N_15  and  C_21
                            x       y       z     vdW  Elec       q    Type
                         _______ _______ _______ _____ _____    ______ ____

>  <TORSDO>
F 4

$$$$
=
 OpenBabel11052412493D

 25 28  0  0  1  0  0  0  0  0999 V2000
  186.9730  177.7490  144.2420 C   0  0  0  0  0  0  0  0  0  0  0  0
  187.9570  176.9550  143.4390 C   0  0  0  0  0  0  0  0  0  0  0  0
  188.2380  177.6010  146.3100 C   0  0  0  0  0  3  0  0  0  0  0  0
  185.7330  178.1290  143.9950 C   0  0  0  0  0  0  0  0  0  0  0  0
  183.1090  179.0250  144.0050 C   0  0  0  0  0  3  0  0  0  0  0  0
  189.3600  177.0220  145.5320 C   0  0  0  0  0  3  0  0  0  0  0  0
  185.1640  178.5980  145.1750 C   0  0  0  0  0  0  0  0  0  0  0  0
  183.8480  179.0570  145.2020 C   0  0  0  0  0  3  0  0  0  0  0  0
  190.4360  176.3300  143.4280 C   0  0  0  0  0  0  0  0  0  0  0  0
  191.8170  175.5650  144.1970 Cl  0  0  0  0  0  0  0  0  0  0  0  0
  188.2100  177.5240  142.0700 C   0  0  0  0  0  2  0  0  0  0  0  0
  183.6860  178.5320  142.8170 C   0  0  0  0  0  3  0  0  0  0  0  0
  187.1340  177.9580  145.6570 C   0  0  0  0  0  0  0  0  0  0  0  0
  185.9470  178.5190  146.2090 N   0  0  0  0  0  0  0  0  0  0  0  0
  190.4750  176.5830  142.1150 C   0  0  0  0  0  3  0  0  0  0  0  0
  185.0130  178.0710  142.8030 C   0  0  0  0  0  3  0  0  0  0  0  0
  189.3650  177.2850  141.4290 C   0  0  0  0  0  0  0  0  0  0  0  0
  189.2610  176.7660  144.2070 C   0  0  0  0  0  0  0  0  0  0  0  0
  189.5690  177.7580  140.0950 N   0  0  0  0  0  2  0  0  0  0  0  0
  188.7310  178.7200  139.5040 N   0  0  0  0  0  2  0  0  0  0  0  0
  188.5190  178.3840  138.0930 C   0  0  2  0  0  3  0  0  0  0  0  0
  188.8590  179.5030  137.2260 N   0  0  0  0  0  1  0  0  0  0  0  0
  187.1240  177.9010  137.8380 C   0  0  0  0  0  0  0  0  0  0  0  0
  186.0550  178.7670  138.0170 O   0  0  0  0  0  1  0  0  0  0  0  0
  186.9160  176.7270  137.4290 O   0  0  0  0  0  0  0  0  0  0  0  0
  1 13  1  0  0  0  0
  2 18  1  0  0  0  0
  2  1  2  0  0  0  0
  4  1  1  0  0  0  0
  4  7  1  0  0  0  0
  5  8  1  0  0  0  0
  6  3  2  0  0  0  0
  7  8  2  0  0  0  0
  7 14  1  0  0  0  0
  9 10  1  0  0  0  0
  9 18  2  0  0  0  0
 11  2  1  0  0  0  0
 12  5  2  0  0  0  0
 13 14  2  0  0  0  0
 13  3  1  0  0  0  0
 15  9  1  0  0  0  0
 16 12  1  0  0  0  0
 16  4  2  0  0  0  0
 17 11  1  0  0  0  0
 17 15  2  0  0  0  0
 18  6  1  0  0  0  0
 19 17  1  0  0  0  0
 20 19  1  0  0  0  0
 21 22  1  6  0  0  0
 21 20  1  0  0  0  0
 23 24  1  0  0  0  0
 23 21  1  0  0  0  0
 25 23  2  0  0  0  0
M  END
>  <MODEL>
3

>  <REMARK>
 VINA RESULT:     -10.1      2.335      2.893
  Name = 
  4 active torsions:
  status: ('A' for Active; 'I' for Inactive)
    1  A    between atoms: C_2  and  C_21
    2  A    between atoms: N_6  and  N_15
    3  A    between atoms: N_6  and  C_23
    4  A    between atoms: N_15  and  C_21
                            x       y       z     vdW  Elec       q    Type
                         _______ _______ _______ _____ _____    ______ ____

>  <TORSDO>
F 4

$$$$
=
 OpenBabel11052412493D

 25 28  0  0  1  0  0  0  0  0999 V2000
  185.4610  178.2460  144.5770 C   0  0  0  0  0  0  0  0  0  0  0  0
  186.7980  177.5740  144.6250 C   0  0  1  0  0  3  0  0  0  0  0  0
  185.3420  178.6250  146.9740 C   0  0  0  0  0  3  0  0  0  0  0  0
  184.5480  178.3310  143.6270 C   0  0  0  0  0  0  0  0  0  0  0  0
  182.3050  178.6680  142.0320 C   0  0  0  0  0  3  0  0  0  0  0  0
  186.7580  178.1920  147.0680 C   0  0  0  0  0  3  0  0  0  0  0  0
  183.3690  178.8210  144.1810 C   0  0  0  0  0  0  0  0  0  0  0  0
  182.2310  179.0030  143.3960 C   0  0  0  0  0  3  0  0  0  0  0  0
  188.8960  177.4700  146.0830 C   0  0  0  0  0  0  0  0  0  0  0  0
  189.6670  177.1060  147.6180 Cl  0  0  0  0  0  0  0  0  0  0  0  0
  187.7240  178.0020  143.5200 C   0  0  0  0  0  3  0  0  0  0  0  0
  183.4980  178.1550  141.4810 C   0  0  0  0  0  3  0  0  0  0  0  0
  184.7730  178.6640  145.7710 C   0  0  0  0  0  0  0  0  0  0  0  0
  183.4340  179.0370  145.4610 N   0  0  0  0  0  0  0  0  0  0  0  0
  189.6450  177.5550  144.9780 C   0  0  0  0  0  3  0  0  0  0  0  0
  184.6370  177.9760  142.2820 C   0  0  0  0  0  3  0  0  0  0  0  0
  189.0560  177.9220  143.6690 C   0  0  0  0  0  0  0  0  0  0  0  0
  187.4500  177.7530  145.9920 C   0  0  0  0  0  0  0  0  0  0  0  0
  189.9310  178.2530  142.5880 N   0  0  0  0  0  2  0  0  0  0  0  0
  189.5590  178.0800  141.2420 N   0  0  0  0  0  2  0  0  0  0  0  0
  190.1580  176.8470  140.7240 C   0  0  2  0  0  3  0  0  0  0  0  0
  190.5560  175.9560  141.8050 N   0  0  0  0  0  1  0  0  0  0  0  0
  191.3030  177.1280  139.8000 C   0  0  0  0  0  0  0  0  0  0  0  0
  191.1230  177.0100  138.4290 O   0  0  0  0  0  0  0  0  0  0  0  0
  192.4170  177.5030  140.2530 O   0  0  0  0  0  1  0  0  0  0  0  0
  1  2  1  0  0  0  0
  1 13  1  0  0  0  0
  2 11  1  6  0  0  0
  2 18  1  0  0  0  0
  3  6  1  0  0  0  0
  4  7  1  0  0  0  0
  4  1  2  0  0  0  0
  5  8  2  0  0  0  0
  7 14  2  0  0  0  0
  8  7  1  0  0  0  0
  9 10  1  0  0  0  0
 11 17  2  0  0  0  0
 12  5  1  0  0  0  0
 12 16  2  0  0  0  0
 13  3  2  0  0  0  0
 14 13  1  0  0  0  0
 15  9  2  0  0  0  0
 16  4  1  0  0  0  0
 17 15  1  0  0  0  0
 18  9  1  0  0  0  0
 18  6  2  0  0  0  0
 19 17  1  0  0  0  0
 20 19  1  0  0  0  0
 21 20  1  0  0  0  0
 21 22  1  1  0  0  0
 23 25  1  0  0  0  0
 23 21  1  0  0  0  0
 24 23  2  0  0  0  0
M  END
>  <MODEL>
4

>  <REMARK>
 VINA RESULT:      -9.5      1.282      2.010
  Name = 
  4 active torsions:
  status: ('A' for Active; 'I' for Inactive)
    1  A    between atoms: C_2  and  C_21
    2  A    between atoms: N_6  and  N_15
    3  A    between atoms: N_6  and  C_23
    4  A    between atoms: N_15  and  C_21
                            x       y       z     vdW  Elec       q    Type
                         _______ _______ _______ _____ _____    ______ ____

>  <TORSDO>
F 4

$$$$
=
 OpenBabel11052412493D

 25 28  0  0  1  0  0  0  0  0999 V2000
  187.5260  177.9820  142.3090 C   0  0  0  0  0  0  0  0  0  0  0  0
  187.2380  177.4970  143.6960 C   0  0  1  0  0  3  0  0  0  0  0  0
  185.3820  179.0920  142.0370 C   0  0  0  0  0  3  0  0  0  0  0  0
  188.4690  177.6670  141.4400 C   0  0  0  0  0  0  0  0  0  0  0  0
  190.1300  177.2510  139.2600 C   0  0  0  0  0  3  0  0  0  0  0  0
  185.1260  178.8560  143.4800 C   0  0  0  0  0  3  0  0  0  0  0  0
  188.1260  178.1880  140.1970 C   0  0  0  0  0  0  0  0  0  0  0  0
  188.9490  177.9950  139.0880 C   0  0  0  0  0  3  0  0  0  0  0  0
  185.7850  178.0750  145.7190 C   0  0  0  0  0  0  0  0  0  0  0  0
  184.2000  178.3000  146.4420 Cl  0  0  0  0  0  0  0  0  0  0  0  0
  188.4040  177.6400  144.6350 C   0  0  0  0  0  3  0  0  0  0  0  0
  190.4630  176.7110  140.5190 C   0  0  0  0  0  3  0  0  0  0  0  0
  186.5440  178.6880  141.5280 C   0  0  0  0  0  0  0  0  0  0  0  0
  186.9830  178.8060  140.1780 N   0  0  0  0  0  0  0  0  0  0  0  0
  186.8440  177.8770  146.5130 C   0  0  0  0  0  3  0  0  0  0  0  0
  189.6250  176.9120  141.6290 C   0  0  0  0  0  3  0  0  0  0  0  0
  188.2120  177.7470  145.9590 C   0  0  0  0  0  0  0  0  0  0  0  0
  185.9900  178.1680  144.2610 C   0  0  0  0  0  0  0  0  0  0  0  0
  189.3260  177.8000  146.8540 N   0  0  0  0  0  2  0  0  0  0  0  0
  190.0750  176.6580  147.1890 N   0  0  0  0  0  2  0  0  0  0  0  0
  191.4970  176.9150  146.9410 C   0  0  2  0  0  3  0  0  0  0  0  0
  191.7260  177.3320  145.5650 N   0  0  0  0  0  1  0  0  0  0  0  0
  192.3490  175.7390  147.3040 C   0  0  0  0  0  0  0  0  0  0  0  0
  192.8590  175.6320  148.5910 O   0  0  0  0  0  1  0  0  0  0  0  0
  192.5790  174.8280  146.4640 O   0  0  0  0  0  0  0  0  0  0  0  0
  1  2  1  0  0  0  0
  2 18  1  0  0  0  0
  2 11  1  1  0  0  0
  3  6  1  0  0  0  0
  4 16  1  0  0  0  0
  4  1  2  0  0  0  0
  5 12  1  0  0  0  0
  6 18  2  0  0  0  0
  7  4  1  0  0  0  0
  8  5  2  0  0  0  0
  8  7  1  0  0  0  0
  9 10  1  0  0  0  0
  9 15  2  0  0  0  0
 11 17  2  0  0  0  0
 12 16  2  0  0  0  0
 13  3  2  0  0  0  0
 13  1  1  0  0  0  0
 14  7  2  0  0  0  0
 14 13  1  0  0  0  0
 17 15  1  0  0  0  0
 17 19  1  0  0  0  0
 18  9  1  0  0  0  0
 19 20  1  0  0  0  0
 21 22  1  6  0  0  0
 21 20  1  0  0  0  0
 21 23  1  0  0  0  0
 23 24  1  0  0  0  0
 25 23  2  0  0  0  0
M  END
>  <MODEL>
5

>  <REMARK>
 VINA RESULT:      -9.4      3.620      6.041
  Name = 
  4 active torsions:
  status: ('A' for Active; 'I' for Inactive)
    1  A    between atoms: C_2  and  C_21
    2  A    between atoms: N_6  and  N_15
    3  A    between atoms: N_6  and  C_23
    4  A    between atoms: N_15  and  C_21
                            x       y       z     vdW  Elec       q    Type
                         _______ _______ _______ _____ _____    ______ ____

>  <TORSDO>
F 4

$$$$
=
 OpenBabel11052412493D

 25 28  0  0  1  0  0  0  0  0999 V2000
  189.3010  177.4350  144.0940 C   0  0  0  0  0  0  0  0  0  0  0  0
  188.9370  177.0910  142.6830 C   0  0  0  0  0  0  0  0  0  0  0  0
  191.6830  177.0750  143.7790 C   0  0  0  0  0  3  0  0  0  0  0  0
  188.5710  177.5830  145.1840 C   0  0  0  0  0  0  0  0  0  0  0  0
  187.5090  177.8560  147.7310 C   0  0  0  0  0  3  0  0  0  0  0  0
  191.4280  176.9580  142.3220 C   0  0  0  0  0  3  0  0  0  0  0  0
  189.4160  177.6190  146.2890 C   0  0  0  0  0  0  0  0  0  0  0  0
  188.9040  177.7610  147.5780 C   0  0  0  0  0  3  0  0  0  0  0  0
  189.9660  177.0430  140.3430 C   0  0  0  0  0  0  0  0  0  0  0  0
  191.1750  176.4350  139.2230 Cl  0  0  0  0  0  0  0  0  0  0  0  0
  187.9080  178.0120  142.0890 C   0  0  0  0  0  3  0  0  0  0  0  0
  186.6570  177.8000  146.6090 C   0  0  0  0  0  3  0  0  0  0  0  0
  190.6520  177.3290  144.5820 C   0  0  0  0  0  0  0  0  0  0  0  0
  190.6740  177.4680  145.9990 N   0  0  0  0  0  0  0  0  0  0  0  0
  188.8520  177.6050  139.8610 C   0  0  0  0  0  3  0  0  0  0  0  0
  187.1850  177.6570  145.3150 C   0  0  0  0  0  3  0  0  0  0  0  0
  187.8300  178.1910  140.7600 C   0  0  0  0  0  0  0  0  0  0  0  0
  190.1800  177.0120  141.8030 C   0  0  2  0  0  3  0  0  0  0  0  0
  186.7980  179.0030  140.1940 N   0  0  0  0  0  2  0  0  0  0  0  0
  185.6100  179.2980  140.8870 N   0  0  0  0  0  2  0  0  0  0  0  0
  184.4580  179.0140  140.0260 C   0  0  2  0  0  3  0  0  0  0  0  0
  184.1810  180.1270  139.1300 N   0  0  0  0  0  1  0  0  0  0  0  0
  183.2470  178.6380  140.8210 C   0  0  0  0  0  0  0  0  0  0  0  0
  182.0850  178.2580  140.1630 O   0  0  0  0  0  0  0  0  0  0  0  0
  183.2810  178.6300  142.0800 O   0  0  0  0  0  1  0  0  0  0  0  0
  1 13  1  0  0  0  0
  1  4  1  0  0  0  0
  2  1  2  0  0  0  0
  3 13  1  0  0  0  0
  4 16  2  0  0  0  0
  4  7  1  0  0  0  0
  6  3  2  0  0  0  0
  7  8  2  0  0  0  0
  8  5  1  0  0  0  0
  9 18  1  0  0  0  0
 10  9  1  0  0  0  0
 11  2  1  0  0  0  0
 12  5  2  0  0  0  0
 13 14  2  0  0  0  0
 14  7  1  0  0  0  0
 15  9  2  0  0  0  0
 15 17  1  0  0  0  0
 16 12  1  0  0  0  0
 17 11  2  0  0  0  0
 18  6  1  1  0  0  0
 18  2  1  0  0  0  0
 19 17  1  0  0  0  0
 19 20  1  0  0  0  0
 21 22  1  1  0  0  0
 21 23  1  0  0  0  0
 21 20  1  0  0  0  0
 23 25  1  0  0  0  0
 24 23  2  0  0  0  0
M  END
>  <MODEL>
6

>  <REMARK>
 VINA RESULT:      -9.2      3.808      5.822
  Name = 
  4 active torsions:
  status: ('A' for Active; 'I' for Inactive)
    1  A    between atoms: C_2  and  C_21
    2  A    between atoms: N_6  and  N_15
    3  A    between atoms: N_6  and  C_23
    4  A    between atoms: N_15  and  C_21
                            x       y       z     vdW  Elec       q    Type
                         _______ _______ _______ _____ _____    ______ ____

>  <TORSDO>
F 4

$$$$
=
 OpenBabel11052412493D

 25 28  0  0  1  0  0  0  0  0999 V2000
  189.2950  177.4730  143.8540 C   0  0  0  0  0  0  0  0  0  0  0  0
  189.0030  177.0910  142.4350 C   0  0  0  0  0  0  0  0  0  0  0  0
  191.7080  177.3380  143.6040 C   0  0  0  0  0  3  0  0  0  0  0  0
  188.5250  177.5560  144.9230 C   0  0  0  0  0  0  0  0  0  0  0  0
  187.3750  177.7370  147.4390 C   0  0  0  0  0  3  0  0  0  0  0  0
  191.5040  177.1920  142.1410 C   0  0  0  0  0  3  0  0  0  0  0  0
  189.3330  177.6760  146.0490 C   0  0  0  0  0  0  0  0  0  0  0  0
  188.7760  177.7740  147.3230 C   0  0  0  0  0  3  0  0  0  0  0  0
  190.0950  177.1310  140.1240 C   0  0  0  0  0  0  0  0  0  0  0  0
  191.3850  176.6360  139.0400 Cl  0  0  0  0  0  0  0  0  0  0  0  0
  187.9080  177.9090  141.8080 C   0  0  0  0  0  3  0  0  0  0  0  0
  186.5620  177.5980  146.2950 C   0  0  0  0  0  3  0  0  0  0  0  0
  190.6360  177.4970  144.3770 C   0  0  0  0  0  0  0  0  0  0  0  0
  190.6070  177.6430  145.7940 N   0  0  0  0  0  0  0  0  0  0  0  0
  188.9460  177.5840  139.6090 C   0  0  0  0  0  3  0  0  0  0  0  0
  187.1360  177.4990  145.0170 C   0  0  0  0  0  3  0  0  0  0  0  0
  187.8490  178.0750  140.4770 C   0  0  0  0  0  0  0  0  0  0  0  0
  190.2710  177.1260  141.5890 C   0  0  2  0  0  3  0  0  0  0  0  0
  186.7610  178.7840  139.8790 N   0  0  0  0  0  2  0  0  0  0  0  0
  186.2180  178.4140  138.6350 N   0  0  0  0  0  2  0  0  0  0  0  0
  184.7930  178.7550  138.6040 C   0  0  2  0  0  3  0  0  0  0  0  0
  184.4880  179.8410  139.5240 N   0  0  0  0  0  1  0  0  0  0  0  0
  183.9280  177.5600  138.8640 C   0  0  0  0  0  0  0  0  0  0  0  0
  183.3000  177.4230  140.0940 O   0  0  0  0  0  1  0  0  0  0  0  0
  183.7360  176.6970  137.9660 O   0  0  0  0  0  0  0  0  0  0  0  0
  1 13  1  0  0  0  0
  1  4  1  0  0  0  0
  2  1  2  0  0  0  0
  3 13  1  0  0  0  0
  4 16  2  0  0  0  0
  4  7  1  0  0  0  0
  6  3  2  0  0  0  0
  7  8  2  0  0  0  0
  8  5  1  0  0  0  0
  9 18  1  0  0  0  0
 10  9  1  0  0  0  0
 11  2  1  0  0  0  0
 12  5  2  0  0  0  0
 13 14  2  0  0  0  0
 14  7  1  0  0  0  0
 15  9  2  0  0  0  0
 15 17  1  0  0  0  0
 16 12  1  0  0  0  0
 17 11  2  0  0  0  0
 18  6  1  1  0  0  0
 18  2  1  0  0  0  0
 19 17  1  0  0  0  0
 20 19  1  0  0  0  0
 21 20  1  0  0  0  0
 21 23  1  0  0  0  0
 21 22  1  1  0  0  0
 23 24  1  0  0  0  0
 25 23  2  0  0  0  0
M  END
>  <MODEL>
7

>  <REMARK>
 VINA RESULT:      -8.9      3.618      5.600
  Name = 
  4 active torsions:
  status: ('A' for Active; 'I' for Inactive)
    1  A    between atoms: C_2  and  C_21
    2  A    between atoms: N_6  and  N_15
    3  A    between atoms: N_6  and  C_23
    4  A    between atoms: N_15  and  C_21
                            x       y       z     vdW  Elec       q    Type
                         _______ _______ _______ _____ _____    ______ ____

>  <TORSDO>
F 4

$$$$
=
 OpenBabel11052412493D

 25 28  0  0  1  0  0  0  0  0999 V2000
  188.3490  177.6500  144.0830 C   0  0  0  0  0  0  0  0  0  0  0  0
  188.2200  178.2610  142.7210 C   0  0  0  0  0  0  0  0  0  0  0  0
  185.9900  177.8670  144.6220 C   0  0  0  0  0  3  0  0  0  0  0  0
  189.4000  177.3750  144.8330 C   0  0  0  0  0  0  0  0  0  0  0  0
  191.2470  176.7530  146.8040 C   0  0  0  0  0  3  0  0  0  0  0  0
  185.7470  178.2530  143.2100 C   0  0  0  0  0  3  0  0  0  0  0  0
  188.9670  177.0810  146.1220 C   0  0  0  0  0  0  0  0  0  0  0  0
  189.8780  176.7610  147.1270 C   0  0  0  0  0  3  0  0  0  0  0  0
  186.4760  178.6290  140.8890 C   0  0  0  0  0  0  0  0  0  0  0  0
  184.9540  179.3210  140.3510 Cl  0  0  0  0  0  0  0  0  0  0  0  0
  189.0130  177.5420  141.6660 C   0  0  0  0  0  2  0  0  0  0  0  0
  191.6810  177.0700  145.5010 C   0  0  0  0  0  3  0  0  0  0  0  0
  187.2330  177.5620  144.9880 C   0  0  0  0  0  0  0  0  0  0  0  0
  187.6820  177.1790  146.2850 N   0  0  0  0  0  0  0  0  0  0  0  0
  187.3800  178.2500  139.9780 C   0  0  0  0  0  3  0  0  0  0  0  0
  190.7520  177.3920  144.4960 C   0  0  0  0  0  3  0  0  0  0  0  0
  188.6520  177.6010  140.3740 C   0  0  0  0  0  0  0  0  0  0  0  0
  186.7550  178.3900  142.3180 C   0  0  0  0  0  0  0  0  0  0  0  0
  189.4550  176.9840  139.3640 N   0  0  0  0  0  2  0  0  0  0  0  0
  190.7220  176.4420  139.6410 N   0  0  0  0  0  2  0  0  0  0  0  0
  191.4500  176.2340  138.3850 C   0  0  2  0  0  3  0  0  0  0  0  0
  191.4000  174.8400  137.9690 N   0  0  0  0  0  1  0  0  0  0  0  0
  192.8620  176.7270  138.4700 C   0  0  0  0  0  0  0  0  0  0  0  0
  193.3760  177.1280  139.6960 O   0  0  0  0  0  1  0  0  0  0  0  0
  193.5970  176.7500  137.4470 O   0  0  0  0  0  0  0  0  0  0  0  0
  1  4  1  0  0  0  0
  1 13  1  0  0  0  0
  2  1  2  0  0  0  0
  3 13  1  0  0  0  0
  4  7  1  0  0  0  0
  5  8  1  0  0  0  0
  6  3  2  0  0  0  0
  7 14  1  0  0  0  0
  7  8  2  0  0  0  0
  9 18  2  0  0  0  0
 10  9  1  0  0  0  0
 11  2  1  0  0  0  0
 12  5  2  0  0  0  0
 13 14  2  0  0  0  0
 15 17  2  0  0  0  0
 15  9  1  0  0  0  0
 16  4  2  0  0  0  0
 16 12  1  0  0  0  0
 17 11  1  0  0  0  0
 18  2  1  0  0  0  0
 18  6  1  0  0  0  0
 19 20  1  0  0  0  0
 19 17  1  0  0  0  0
 21 22  1  1  0  0  0
 21 23  1  0  0  0  0
 21 20  1  0  0  0  0
 23 24  1  0  0  0  0
 25 23  2  0  0  0  0
M  END
>  <MODEL>
8

>  <REMARK>
 VINA RESULT:      -8.9      2.749      4.945
  Name = 
  4 active torsions:
  status: ('A' for Active; 'I' for Inactive)
    1  A    between atoms: C_2  and  C_21
    2  A    between atoms: N_6  and  N_15
    3  A    between atoms: N_6  and  C_23
    4  A    between atoms: N_15  and  C_21
                            x       y       z     vdW  Elec       q    Type
                         _______ _______ _______ _____ _____    ______ ____

>  <TORSDO>
F 4

$$$$
=
 OpenBabel11052412493D

 25 28  0  0  1  0  0  0  0  0999 V2000
  189.5060  177.5170  142.9910 C   0  0  0  0  0  0  0  0  0  0  0  0
  189.2010  177.1020  141.5850 C   0  0  0  0  0  0  0  0  0  0  0  0
  191.9150  177.5250  142.6780 C   0  0  0  0  0  3  0  0  0  0  0  0
  188.7610  177.5660  144.0800 C   0  0  0  0  0  0  0  0  0  0  0  0
  187.6680  177.7070  146.6240 C   0  0  0  0  0  3  0  0  0  0  0  0
  191.6830  177.3510  141.2220 C   0  0  0  0  0  3  0  0  0  0  0  0
  189.5900  177.7470  145.1820 C   0  0  0  0  0  0  0  0  0  0  0  0
  189.0610  177.8260  146.4700 C   0  0  0  0  0  3  0  0  0  0  0  0
  190.2270  177.1820  139.2440 C   0  0  0  0  0  0  0  0  0  0  0  0
  191.5160  176.7530  138.1310 Cl  0  0  0  0  0  0  0  0  0  0  0  0
  188.0420  177.8450  140.9790 C   0  0  0  0  0  3  0  0  0  0  0  0
  186.8350  177.5050  145.5040 C   0  0  0  0  0  3  0  0  0  0  0  0
  190.8570  177.6280  143.4780 C   0  0  0  0  0  0  0  0  0  0  0  0
  190.8560  177.7880  144.8930 N   0  0  0  0  0  0  0  0  0  0  0  0
  189.0400  177.5590  138.7570 C   0  0  0  0  0  3  0  0  0  0  0  0
  187.3810  177.4270  144.2110 C   0  0  0  0  0  3  0  0  0  0  0  0
  187.9390  177.9920  139.6490 C   0  0  0  0  0  0  0  0  0  0  0  0
  190.4420  177.2040  140.7040 C   0  0  2  0  0  3  0  0  0  0  0  0
  186.7950  178.6280  139.0730 N   0  0  0  0  0  2  0  0  0  0  0  0
  185.5520  177.9790  138.9620 N   0  0  0  0  0  2  0  0  0  0  0  0
  184.5150  178.7960  139.5980 C   0  0  2  0  0  3  0  0  0  0  0  0
  184.5330  180.1610  139.0920 N   0  0  0  0  0  1  0  0  0  0  0  0
  184.6180  178.7660  141.0910 C   0  0  0  0  0  0  0  0  0  0  0  0
  185.3390  179.7530  141.7490 O   0  0  0  0  0  0  0  0  0  0  0  0
  184.0270  177.8750  141.7580 O   0  0  0  0  0  1  0  0  0  0  0  0
  1 13  1  0  0  0  0
  1  4  1  0  0  0  0
  2  1  2  0  0  0  0
  3 13  1  0  0  0  0
  4 16  2  0  0  0  0
  4  7  1  0  0  0  0
  6  3  2  0  0  0  0
  7  8  2  0  0  0  0
  8  5  1  0  0  0  0
  9 18  1  0  0  0  0
 10  9  1  0  0  0  0
 11  2  1  0  0  0  0
 12  5  2  0  0  0  0
 13 14  2  0  0  0  0
 14  7  1  0  0  0  0
 15  9  2  0  0  0  0
 15 17  1  0  0  0  0
 16 12  1  0  0  0  0
 17 11  2  0  0  0  0
 18  6  1  6  0  0  0
 18  2  1  0  0  0  0
 19 17  1  0  0  0  0
 20 19  1  0  0  0  0
 20 21  1  0  0  0  0
 21 22  1  6  0  0  0
 21 23  1  0  0  0  0
 23 24  2  0  0  0  0
 23 25  1  0  0  0  0
M  END
>  <MODEL>
9

>  <REMARK>
 VINA RESULT:      -8.9      3.605      5.940
  Name = 
  4 active torsions:
  status: ('A' for Active; 'I' for Inactive)
    1  A    between atoms: C_2  and  C_21
    2  A    between atoms: N_6  and  N_15
    3  A    between atoms: N_6  and  C_23
    4  A    between atoms: N_15  and  C_21
                            x       y       z     vdW  Elec       q    Type
                         _______ _______ _______ _____ _____    ______ ____

>  <TORSDO>
F 4

$$$$
