=
 OpenBabel11052414463D

 32 37  0  0  1  0  0  0  0  0999 V2000
  188.4480  177.9320  141.3600 C   0  0  2  0  0  3  0  0  0  0  0  0
  188.7010  177.6600  139.9120 C   0  0  0  0  0  0  0  0  0  0  0  0
  187.7060  177.9950  138.9660 C   0  0  0  0  0  3  0  0  0  0  0  0
  190.7600  176.3520  136.2020 C   0  0  0  0  0  0  0  0  0  0  0  0
  189.9160  177.0790  139.4880 C   0  0  0  0  0  3  0  0  0  0  0  0
  189.5260  176.8730  135.9780 N   0  0  0  0  0  2  0  0  0  0  0  0
  189.1200  177.1840  137.2160 C   0  0  0  0  0  0  0  0  0  0  0  0
  187.9090  177.7570  137.5940 C   0  0  0  0  0  3  0  0  0  0  0  0
  191.1440  176.3240  137.5040 N   0  0  0  0  0  2  0  0  0  0  0  0
  191.7150  175.8060  134.9950 S   0  0  0  0  0  0  0  0  0  0  0  0
  190.0810  176.8580  138.1240 C   0  0  0  0  0  0  0  0  0  0  0  0
  188.3040  176.7260  142.0580 O   0  0  0  0  0  0  0  0  0  0  0  0
  189.3930  176.6620  142.9330 C   0  0  1  0  0  3  0  0  0  0  0  0
  190.2810  175.6840  142.4780 O   0  0  0  0  0  1  0  0  0  0  0  0
  190.5150  178.4530  144.4280 C   0  0  2  0  0  3  0  0  0  0  0  0
  190.0660  178.0440  143.0110 C   0  0  1  0  0  3  0  0  0  0  0  0
  191.5290  177.9600  143.4070 C   0  0  0  0  0  2  0  0  0  0  0  0
  190.2550  177.4230  145.4380 N   0  0  0  0  0  0  0  0  0  0  0  0
  189.3910  178.0280  146.4490 C   0  0  1  0  0  3  0  0  0  0  0  0
  187.9340  177.7930  146.1030 C   0  0  0  0  0  2  0  0  0  0  0  0
  188.5960  176.9460  147.1630 C   0  0  2  0  0  3  0  0  0  0  0  0
  188.1950  177.4550  148.5310 C   0  0  0  0  0  1  0  0  0  0  0  0
  191.5230  177.1370  146.1030 C   0  0  0  0  0  2  0  0  0  0  0  0
  191.9530  175.8540  145.7580 O   0  0  0  0  0  0  0  0  0  0  0  0
  192.4190  176.1640  148.0660 C   0  0  0  0  0  1  0  0  0  0  0  0
  192.0540  175.1810  146.9740 C   0  0  0  0  0  2  0  0  0  0  0  0
  187.2070  178.7970  141.5300 C   0  0  0  0  0  2  0  0  0  0  0  0
  186.1940  178.0920  142.4110 C   0  0  0  0  0  2  0  0  0  0  0  0
  185.2750  179.1140  143.0450 C   0  0  1  0  0  3  0  0  0  0  0  0
  183.8950  178.5110  143.2280 C   0  0  2  0  0  3  0  0  0  0  0  0
  183.3570  178.9500  144.5750 C   0  0  0  0  0  2  0  0  0  0  0  0
  184.8260  178.6150  144.4060 C   0  0  2  0  0  3  0  0  0  0  0  0
  1 27  1  6  0  0  0
  1 12  1  0  0  0  0
  2  1  1  0  0  0  0
  3  2  2  0  0  0  0
  4  9  1  0  0  0  0
  5  2  1  0  0  0  0
  6  4  1  0  0  0  0
  6  7  1  0  0  0  0
  7  8  2  0  0  0  0
  7 11  1  0  0  0  0
  8  3  1  0  0  0  0
  9 11  1  0  0  0  0
 10  4  2  0  0  0  0
 11  5  2  0  0  0  0
 12 13  1  0  0  0  0
 13 14  1  6  0  0  0
 15 18  1  1  0  0  0
 16 13  1  1  0  0  0
 16 17  1  0  0  0  0
 16 15  1  0  0  0  0
 17 15  1  0  0  0  0
 18 23  1  0  0  0  0
 19 18  1  6  0  0  0
 19 21  1  0  0  0  0
 20 19  1  0  0  0  0
 20 21  1  0  0  0  0
 21 22  1  1  0  0  0
 24 23  1  0  0  0  0
 24 26  1  0  0  0  0
 26 25  1  0  0  0  0
 27 28  1  0  0  0  0
 29 28  1  6  0  0  0
 29 30  1  0  0  0  0
 29 32  1  0  0  0  0
 30 32  1  0  0  0  0
 30 31  1  1  0  0  0
 32 31  1  1  0  0  0
M  END
>  <MODEL>
1

>  <REMARK>
 VINA RESULT:      -7.7      0.000      0.000
  Name = 
  12 active torsions:
  status: ('A' for Active; 'I' for Inactive)
    1  A    between atoms: O_1  and  C_4
    2  A    between atoms: O_1  and  C_5
    3  A    between atoms: C_2  and  C_5
    4  A    between atoms: C_3  and  N_20
    5  A    between atoms: C_4  and  C_24
    6  A    between atoms: C_5  and  C_14
    7  A    between atoms: C_13  and  C_30
    8  A    between atoms: C_14  and  C_30
    9  A    between atoms: C_15  and  N_20
   10  A    between atoms: C_15  and  O_26
   11  A    between atoms: C_16  and  N_20
   12  A    between atoms: C_19  and  O_26
                            x       y       z     vdW  Elec       q    Type
                         _______ _______ _______ _____ _____    ______ ____

>  <TORSDO>
F 12

$$$$
=
 OpenBabel11052414463D

 32 37  0  0  1  0  0  0  0  0999 V2000
  186.1050  178.3420  144.6220 C   0  0  2  0  0  3  0  0  0  0  0  0
  184.8760  178.4690  143.7810 C   0  0  0  0  0  0  0  0  0  0  0  0
  183.6580  178.8400  144.3950 C   0  0  0  0  0  3  0  0  0  0  0  0
  182.2310  178.4530  140.2140 C   0  0  0  0  0  0  0  0  0  0  0  0
  184.9240  178.2240  142.3900 C   0  0  0  0  0  3  0  0  0  0  0  0
  181.5870  178.7900  141.3610 N   0  0  0  0  0  2  0  0  0  0  0  0
  182.5690  178.7240  142.2690 C   0  0  0  0  0  0  0  0  0  0  0  0
  182.4810  178.9720  143.6360 C   0  0  0  0  0  3  0  0  0  0  0  0
  183.5550  178.1850  140.3560 N   0  0  0  0  0  2  0  0  0  0  0  0
  181.4740  178.3820  138.7700 S   0  0  0  0  0  0  0  0  0  0  0  0
  183.7400  178.3650  141.6720 C   0  0  0  0  0  0  0  0  0  0  0  0
  186.4080  176.9910  144.8310 O   0  0  0  0  0  0  0  0  0  0  0  0
  187.6590  176.7870  144.2410 C   0  0  1  0  0  3  0  0  0  0  0  0
  187.4970  175.9820  143.1100 O   0  0  0  0  0  1  0  0  0  0  0  0
  189.7730  178.0810  143.4960 C   0  0  2  0  0  3  0  0  0  0  0  0
  188.2810  178.1470  143.8810 C   0  0  1  0  0  3  0  0  0  0  0  0
  188.7050  178.2300  142.4250 C   0  0  0  0  0  2  0  0  0  0  0  0
  190.3130  176.7180  143.5030 N   0  0  0  0  0  0  0  0  0  0  0  0
  191.4710  176.7240  144.3940 C   0  0  1  0  0  3  0  0  0  0  0  0
  191.3740  177.8790  145.3720 C   0  0  0  0  0  2  0  0  0  0  0  0
  191.0200  176.4830  145.8270 C   0  0  2  0  0  3  0  0  0  0  0  0
  192.1780  175.9050  146.6130 C   0  0  0  0  0  1  0  0  0  0  0  0
  190.8300  176.4500  142.1640 C   0  0  0  0  0  2  0  0  0  0  0  0
  191.9930  177.1910  141.9530 O   0  0  0  0  0  0  0  0  0  0  0  0
  190.8470  176.7340  139.9250 C   0  0  0  0  0  1  0  0  0  0  0  0
  191.9720  177.4950  140.5930 C   0  0  0  0  0  2  0  0  0  0  0  0
  185.9160  179.0590  145.9520 C   0  0  0  0  0  2  0  0  0  0  0  0
  186.0560  178.0770  147.0990 C   0  0  0  0  0  2  0  0  0  0  0  0
  187.0520  178.6130  148.1060 C   0  0  1  0  0  3  0  0  0  0  0  0
  188.0050  177.5050  148.5140 C   0  0  2  0  0  3  0  0  0  0  0  0
  189.4010  178.0880  148.6090 C   0  0  0  0  0  2  0  0  0  0  0  0
  188.4490  178.5440  147.5190 C   0  0  2  0  0  3  0  0  0  0  0  0
  1 12  1  0  0  0  0
  1 27  1  1  0  0  0
  2  3  1  0  0  0  0
  2  1  1  0  0  0  0
  4  9  1  0  0  0  0
  4  6  1  0  0  0  0
  5  2  2  0  0  0  0
  6  7  1  0  0  0  0
  7  8  1  0  0  0  0
  8  3  2  0  0  0  0
  9 11  1  0  0  0  0
 10  4  2  0  0  0  0
 11  7  2  0  0  0  0
 11  5  1  0  0  0  0
 13 14  1  6  0  0  0
 13 12  1  0  0  0  0
 15 18  1  6  0  0  0
 15 16  1  0  0  0  0
 16 13  1  6  0  0  0
 17 15  1  0  0  0  0
 17 16  1  0  0  0  0
 19 18  1  6  0  0  0
 19 20  1  0  0  0  0
 19 21  1  0  0  0  0
 20 21  1  0  0  0  0
 21 22  1  1  0  0  0
 23 18  1  0  0  0  0
 24 23  1  0  0  0  0
 25 26  1  0  0  0  0
 26 24  1  0  0  0  0
 27 28  1  0  0  0  0
 29 28  1  6  0  0  0
 29 30  1  0  0  0  0
 30 31  1  1  0  0  0
 32 29  1  0  0  0  0
 32 30  1  0  0  0  0
 32 31  1  1  0  0  0
M  END
>  <MODEL>
2

>  <REMARK>
 VINA RESULT:      -7.4      3.362      5.976
  Name = 
  12 active torsions:
  status: ('A' for Active; 'I' for Inactive)
    1  A    between atoms: O_1  and  C_4
    2  A    between atoms: O_1  and  C_5
    3  A    between atoms: C_2  and  C_5
    4  A    between atoms: C_3  and  N_20
    5  A    between atoms: C_4  and  C_24
    6  A    between atoms: C_5  and  C_14
    7  A    between atoms: C_13  and  C_30
    8  A    between atoms: C_14  and  C_30
    9  A    between atoms: C_15  and  N_20
   10  A    between atoms: C_15  and  O_26
   11  A    between atoms: C_16  and  N_20
   12  A    between atoms: C_19  and  O_26
                            x       y       z     vdW  Elec       q    Type
                         _______ _______ _______ _____ _____    ______ ____

>  <TORSDO>
F 12

$$$$
=
 OpenBabel11052414463D

 32 37  0  0  1  0  0  0  0  0999 V2000
  184.6940  179.3400  143.5710 C   0  0  2  0  0  3  0  0  0  0  0  0
  184.9720  179.0540  142.1300 C   0  0  0  0  0  0  0  0  0  0  0  0
  183.8870  178.9320  141.2320 C   0  0  0  0  0  3  0  0  0  0  0  0
  187.2190  178.2530  138.3850 C   0  0  0  0  0  0  0  0  0  0  0  0
  186.2980  178.9080  141.6650 C   0  0  0  0  0  3  0  0  0  0  0  0
  185.8730  178.2800  138.2100 N   0  0  0  0  0  2  0  0  0  0  0  0
  185.4300  178.5300  139.4490 C   0  0  0  0  0  0  0  0  0  0  0  0
  184.1090  178.6660  139.8680 C   0  0  0  0  0  3  0  0  0  0  0  0
  187.6370  178.4730  139.6580 N   0  0  0  0  0  2  0  0  0  0  0  0
  188.2590  177.9810  137.1560 S   0  0  0  0  0  0  0  0  0  0  0  0
  186.4780  178.6460  140.3110 C   0  0  0  0  0  0  0  0  0  0  0  0
  184.9740  178.2100  144.3480 O   0  0  0  0  0  0  0  0  0  0  0  0
  185.9670  178.6060  145.2500 C   0  0  1  0  0  3  0  0  0  0  0  0
  185.5340  179.7530  145.9220 O   0  0  0  0  0  1  0  0  0  0  0  0
  187.7010  176.9190  146.1700 C   0  0  2  0  0  3  0  0  0  0  0  0
  186.2560  177.4540  146.2280 C   0  0  1  0  0  3  0  0  0  0  0  0
  187.2610  177.8350  147.3010 C   0  0  0  0  0  2  0  0  0  0  0  0
  188.5480  177.6420  145.2170 N   0  0  0  0  0  0  0  0  0  0  0  0
  189.0580  176.6550  144.2680 C   0  0  1  0  0  3  0  0  0  0  0  0
  187.9660  176.2470  143.2990 C   0  0  0  0  0  2  0  0  0  0  0  0
  189.0270  177.2290  142.8600 C   0  0  2  0  0  3  0  0  0  0  0  0
  190.0550  176.5090  142.0150 C   0  0  0  0  0  1  0  0  0  0  0  0
  189.7070  178.1350  145.9550 C   0  0  0  0  0  2  0  0  0  0  0  0
  190.7400  177.1990  145.8870 O   0  0  0  0  0  0  0  0  0  0  0  0
  191.9530  175.7330  147.3080 C   0  0  0  0  0  1  0  0  0  0  0  0
  191.1050  176.9840  147.2150 C   0  0  0  0  0  2  0  0  0  0  0  0
  183.2460  179.7710  143.7580 C   0  0  0  0  0  2  0  0  0  0  0  0
  182.4580  178.6720  144.4450 C   0  0  0  0  0  2  0  0  0  0  0  0
  181.2670  178.2930  143.5910 C   0  0  1  0  0  3  0  0  0  0  0  0
  179.9900  178.7520  144.2700 C   0  0  2  0  0  3  0  0  0  0  0  0
  179.0620  179.3130  143.2100 C   0  0  0  0  0  2  0  0  0  0  0  0
  180.5570  179.5510  143.1270 C   0  0  2  0  0  3  0  0  0  0  0  0
  1 27  1  6  0  0  0
  1 12  1  0  0  0  0
  2  1  1  0  0  0  0
  3  2  2  0  0  0  0
  4  9  1  0  0  0  0
  5  2  1  0  0  0  0
  6  4  1  0  0  0  0
  6  7  1  0  0  0  0
  7  8  2  0  0  0  0
  7 11  1  0  0  0  0
  8  3  1  0  0  0  0
  9 11  1  0  0  0  0
 10  4  2  0  0  0  0
 11  5  2  0  0  0  0
 12 13  1  0  0  0  0
 13 14  1  1  0  0  0
 15 18  1  6  0  0  0
 15 16  1  0  0  0  0
 15 17  1  0  0  0  0
 16 13  1  6  0  0  0
 16 17  1  0  0  0  0
 18 23  1  0  0  0  0
 19 18  1  1  0  0  0
 20 19  1  0  0  0  0
 21 22  1  6  0  0  0
 21 20  1  0  0  0  0
 21 19  1  0  0  0  0
 24 23  1  0  0  0  0
 24 26  1  0  0  0  0
 26 25  1  0  0  0  0
 27 28  1  0  0  0  0
 29 30  1  0  0  0  0
 29 28  1  1  0  0  0
 30 31  1  6  0  0  0
 32 31  1  6  0  0  0
 32 29  1  0  0  0  0
 32 30  1  0  0  0  0
M  END
>  <MODEL>
3

>  <REMARK>
 VINA RESULT:      -7.2      2.563      4.347
  Name = 
  12 active torsions:
  status: ('A' for Active; 'I' for Inactive)
    1  A    between atoms: O_1  and  C_4
    2  A    between atoms: O_1  and  C_5
    3  A    between atoms: C_2  and  C_5
    4  A    between atoms: C_3  and  N_20
    5  A    between atoms: C_4  and  C_24
    6  A    between atoms: C_5  and  C_14
    7  A    between atoms: C_13  and  C_30
    8  A    between atoms: C_14  and  C_30
    9  A    between atoms: C_15  and  N_20
   10  A    between atoms: C_15  and  O_26
   11  A    between atoms: C_16  and  N_20
   12  A    between atoms: C_19  and  O_26
                            x       y       z     vdW  Elec       q    Type
                         _______ _______ _______ _____ _____    ______ ____

>  <TORSDO>
F 12

$$$$
=
 OpenBabel11052414463D

 32 37  0  0  1  0  0  0  0  0999 V2000
  185.6420  178.5280  141.8480 C   0  0  2  0  0  3  0  0  0  0  0  0
  187.0370  178.1610  142.2400 C   0  0  0  0  0  0  0  0  0  0  0  0
  188.0540  178.1750  141.2580 C   0  0  0  0  0  3  0  0  0  0  0  0
  190.4850  176.9230  144.7490 C   0  0  0  0  0  0  0  0  0  0  0  0
  187.3430  177.8050  143.5730 C   0  0  0  0  0  3  0  0  0  0  0  0
  190.8160  177.1450  143.4500 N   0  0  0  0  0  2  0  0  0  0  0  0
  189.6400  177.4960  142.9140 C   0  0  0  0  0  0  0  0  0  0  0  0
  189.3780  177.8380  141.5900 C   0  0  0  0  0  3  0  0  0  0  0  0
  189.1750  177.1160  145.0490 N   0  0  0  0  0  2  0  0  0  0  0  0
  191.5810  176.4630  145.8680 S   0  0  0  0  0  0  0  0  0  0  0  0
  188.6640  177.4790  143.8630 C   0  0  0  0  0  0  0  0  0  0  0  0
  185.6510  179.2240  140.6330 O   0  0  0  0  0  0  0  0  0  0  0  0
  184.3090  179.3760  140.2720 C   0  0  1  0  0  3  0  0  0  0  0  0
  184.2370  180.1850  139.1340 O   0  0  0  0  0  1  0  0  0  0  0  0
  182.1530  177.9490  140.1480 C   0  0  2  0  0  3  0  0  0  0  0  0
  183.6890  177.9910  140.0180 C   0  0  1  0  0  3  0  0  0  0  0  0
  182.8140  177.9590  138.7790 C   0  0  0  0  0  2  0  0  0  0  0  0
  181.5610  179.2560  140.4480 N   0  0  0  0  0  0  0  0  0  0  0  0
  180.4310  179.0160  141.3410 C   0  0  1  0  0  3  0  0  0  0  0  0
  180.8680  178.1840  142.5300 C   0  0  0  0  0  2  0  0  0  0  0  0
  180.6880  179.6750  142.6870 C   0  0  2  0  0  3  0  0  0  0  0  0
  179.3590  179.9490  143.3600 C   0  0  0  0  0  1  0  0  0  0  0  0
  180.9970  179.7720  139.2040 C   0  0  0  0  0  2  0  0  0  0  0  0
  180.8050  181.1500  139.3130 O   0  0  0  0  0  0  0  0  0  0  0  0
  180.8970  180.5200  137.0260 C   0  0  0  0  0  1  0  0  0  0  0  0
  181.0530  181.6400  138.0320 C   0  0  0  0  0  2  0  0  0  0  0  0
  184.9850  179.3640  142.9370 C   0  0  0  0  0  2  0  0  0  0  0  0
  184.0760  178.4960  143.7860 C   0  0  0  0  0  2  0  0  0  0  0  0
  184.0370  179.0350  145.2000 C   0  0  1  0  0  3  0  0  0  0  0  0
  184.7870  178.0920  146.1220 C   0  0  2  0  0  3  0  0  0  0  0  0
  185.5960  178.9220  147.0990 C   0  0  0  0  0  2  0  0  0  0  0  0
  185.4470  179.3610  145.6550 C   0  0  2  0  0  3  0  0  0  0  0  0
  1  2  1  0  0  0  0
  1 27  1  1  0  0  0
  2  5  1  0  0  0  0
  3  8  1  0  0  0  0
  3  2  2  0  0  0  0
  4  9  1  0  0  0  0
  4 10  2  0  0  0  0
  5 11  2  0  0  0  0
  6  4  1  0  0  0  0
  7  6  1  0  0  0  0
  7 11  1  0  0  0  0
  8  7  2  0  0  0  0
 11  9  1  0  0  0  0
 12  1  1  0  0  0  0
 13 14  1  6  0  0  0
 13 12  1  0  0  0  0
 15 18  1  6  0  0  0
 16 15  1  0  0  0  0
 16 13  1  6  0  0  0
 17 16  1  0  0  0  0
 17 15  1  0  0  0  0
 19 18  1  6  0  0  0
 19 20  1  0  0  0  0
 19 21  1  0  0  0  0
 20 21  1  0  0  0  0
 21 22  1  1  0  0  0
 23 24  1  0  0  0  0
 23 18  1  0  0  0  0
 25 26  1  0  0  0  0
 26 24  1  0  0  0  0
 27 28  1  0  0  0  0
 29 28  1  6  0  0  0
 29 32  1  0  0  0  0
 29 30  1  0  0  0  0
 30 31  1  1  0  0  0
 32 30  1  0  0  0  0
 32 31  1  1  0  0  0
M  END
>  <MODEL>
4

>  <REMARK>
 VINA RESULT:      -7.1      4.351      8.285
  Name = 
  12 active torsions:
  status: ('A' for Active; 'I' for Inactive)
    1  A    between atoms: O_1  and  C_4
    2  A    between atoms: O_1  and  C_5
    3  A    between atoms: C_2  and  C_5
    4  A    between atoms: C_3  and  N_20
    5  A    between atoms: C_4  and  C_24
    6  A    between atoms: C_5  and  C_14
    7  A    between atoms: C_13  and  C_30
    8  A    between atoms: C_14  and  C_30
    9  A    between atoms: C_15  and  N_20
   10  A    between atoms: C_15  and  O_26
   11  A    between atoms: C_16  and  N_20
   12  A    between atoms: C_19  and  O_26
                            x       y       z     vdW  Elec       q    Type
                         _______ _______ _______ _____ _____    ______ ____

>  <TORSDO>
F 12

$$$$
=
 OpenBabel11052414463D

 32 37  0  0  1  0  0  0  0  0999 V2000
  188.1920  177.0100  144.1360 C   0  0  2  0  0  3  0  0  0  0  0  0
  188.7340  177.1280  142.7480 C   0  0  0  0  0  0  0  0  0  0  0  0
  189.9530  176.4870  142.4290 C   0  0  0  0  0  3  0  0  0  0  0  0
  189.0730  178.2950  138.4770 C   0  0  0  0  0  0  0  0  0  0  0  0
  188.0440  177.8680  141.7630 C   0  0  0  0  0  3  0  0  0  0  0  0
  190.1040  177.5240  138.9080 N   0  0  0  0  0  2  0  0  0  0  0  0
  189.7820  177.3100  140.1910 C   0  0  0  0  0  0  0  0  0  0  0  0
  190.4940  176.5730  141.1340 C   0  0  0  0  0  3  0  0  0  0  0  0
  188.1300  178.5700  139.4150 N   0  0  0  0  0  2  0  0  0  0  0  0
  188.9690  178.8460  136.9440 S   0  0  0  0  0  0  0  0  0  0  0  0
  188.6090  177.9310  140.4930 C   0  0  0  0  0  0  0  0  0  0  0  0
  187.6110  178.2220  144.5300 O   0  0  0  0  0  0  0  0  0  0  0  0
  186.2500  177.9510  144.7050 C   0  0  1  0  0  3  0  0  0  0  0  0
  186.1150  176.8420  145.5450 O   0  0  0  0  0  1  0  0  0  0  0  0
  184.1910  179.5180  144.6550 C   0  0  2  0  0  3  0  0  0  0  0  0
  185.5560  179.1920  145.2940 C   0  0  1  0  0  3  0  0  0  0  0  0
  184.2660  178.8520  146.0190 C   0  0  0  0  0  2  0  0  0  0  0  0
  183.7860  178.5520  143.6280 N   0  0  0  0  0  0  0  0  0  0  0  0
  183.7960  179.2600  142.3510 C   0  0  1  0  0  3  0  0  0  0  0  0
  185.1940  179.2600  141.7630 C   0  0  0  0  0  2  0  0  0  0  0  0
  184.1580  178.2970  141.2310 C   0  0  2  0  0  3  0  0  0  0  0  0
  183.6030  178.8310  139.9270 C   0  0  0  0  0  1  0  0  0  0  0  0
  182.3930  178.2010  143.8890 C   0  0  0  0  0  2  0  0  0  0  0  0
  181.5570  179.2110  143.4110 O   0  0  0  0  0  0  0  0  0  0  0  0
  179.3690  178.9660  144.3000 C   0  0  0  0  0  1  0  0  0  0  0  0
  180.3330  178.5800  143.1980 C   0  0  0  0  0  2  0  0  0  0  0  0
  189.2940  176.6060  145.1060 C   0  0  0  0  0  2  0  0  0  0  0  0
  189.7630  177.8120  145.8960 C   0  0  0  0  0  2  0  0  0  0  0  0
  189.7050  177.5010  147.3770 C   0  0  1  0  0  3  0  0  0  0  0  0
  188.7860  178.4910  148.0670 C   0  0  2  0  0  3  0  0  0  0  0  0
  187.9590  177.7390  149.0920 C   0  0  0  0  0  2  0  0  0  0  0  0
  188.2910  177.1040  147.7550 C   0  0  2  0  0  3  0  0  0  0  0  0
  1 12  1  0  0  0  0
  1 27  1  1  0  0  0
  2  1  1  0  0  0  0
  3  2  1  0  0  0  0
  4  6  1  0  0  0  0
  4  9  1  0  0  0  0
  5  2  2  0  0  0  0
  6  7  1  0  0  0  0
  7 11  2  0  0  0  0
  7  8  1  0  0  0  0
  8  3  2  0  0  0  0
  9 11  1  0  0  0  0
 10  4  2  0  0  0  0
 11  5  1  0  0  0  0
 12 13  1  0  0  0  0
 13 14  1  1  0  0  0
 15 18  1  6  0  0  0
 15 16  1  0  0  0  0
 15 17  1  0  0  0  0
 16 13  1  6  0  0  0
 16 17  1  0  0  0  0
 18 23  1  0  0  0  0
 19 18  1  1  0  0  0
 20 19  1  0  0  0  0
 21 22  1  6  0  0  0
 21 20  1  0  0  0  0
 21 19  1  0  0  0  0
 24 23  1  0  0  0  0
 26 24  1  0  0  0  0
 26 25  1  0  0  0  0
 27 28  1  0  0  0  0
 29 28  1  6  0  0  0
 29 32  1  0  0  0  0
 29 30  1  0  0  0  0
 30 31  1  1  0  0  0
 32 30  1  0  0  0  0
 32 31  1  1  0  0  0
M  END
>  <MODEL>
5

>  <REMARK>
 VINA RESULT:      -7.1      2.751      6.557
  Name = 
  12 active torsions:
  status: ('A' for Active; 'I' for Inactive)
    1  A    between atoms: O_1  and  C_4
    2  A    between atoms: O_1  and  C_5
    3  A    between atoms: C_2  and  C_5
    4  A    between atoms: C_3  and  N_20
    5  A    between atoms: C_4  and  C_24
    6  A    between atoms: C_5  and  C_14
    7  A    between atoms: C_13  and  C_30
    8  A    between atoms: C_14  and  C_30
    9  A    between atoms: C_15  and  N_20
   10  A    between atoms: C_15  and  O_26
   11  A    between atoms: C_16  and  N_20
   12  A    between atoms: C_19  and  O_26
                            x       y       z     vdW  Elec       q    Type
                         _______ _______ _______ _____ _____    ______ ____

>  <TORSDO>
F 12

$$$$
=
 OpenBabel11052414463D

 32 37  0  0  1  0  0  0  0  0999 V2000
  187.7470  177.5850  143.2970 C   0  0  2  0  0  3  0  0  0  0  0  0
  186.3180  177.9920  143.4620 C   0  0  0  0  0  0  0  0  0  0  0  0
  185.8460  178.3360  144.7500 C   0  0  0  0  0  3  0  0  0  0  0  0
  182.1000  178.9490  142.4560 C   0  0  0  0  0  0  0  0  0  0  0  0
  185.4460  178.0360  142.3520 C   0  0  0  0  0  3  0  0  0  0  0  0
  182.3860  179.0980  143.7750 N   0  0  0  0  0  2  0  0  0  0  0  0
  183.6810  178.7580  143.8250 C   0  0  0  0  0  0  0  0  0  0  0  0
  184.5080  178.7260  144.9450 C   0  0  0  0  0  3  0  0  0  0  0  0
  183.1410  178.5400  141.6850 N   0  0  0  0  0  2  0  0  0  0  0  0
  180.6180  179.2460  141.8400 S   0  0  0  0  0  0  0  0  0  0  0  0
  184.1310  178.4270  142.5830 C   0  0  0  0  0  0  0  0  0  0  0  0
  187.9010  176.8370  142.1230 O   0  0  0  0  0  0  0  0  0  0  0  0
  188.8040  177.5530  141.3320 C   0  0  1  0  0  3  0  0  0  0  0  0
  189.0200  178.8050  141.9150 O   0  0  0  0  0  1  0  0  0  0  0  0
  190.5080  176.4060  139.7570 C   0  0  2  0  0  3  0  0  0  0  0  0
  190.1150  176.7570  141.2060 C   0  0  1  0  0  3  0  0  0  0  0  0
  191.2070  177.5350  140.4960 C   0  0  0  0  0  2  0  0  0  0  0  0
  189.5760  176.9380  138.7580 N   0  0  0  0  0  0  0  0  0  0  0  0
  189.8640  176.2550  137.5000 C   0  0  1  0  0  3  0  0  0  0  0  0
  189.9070  174.7550  137.7160 C   0  0  0  0  0  2  0  0  0  0  0  0
  188.6810  175.3870  137.1010 C   0  0  2  0  0  3  0  0  0  0  0  0
  188.7100  175.1790  135.6020 C   0  0  0  0  0  1  0  0  0  0  0  0
  189.9190  178.3420  138.5490 C   0  0  0  0  0  2  0  0  0  0  0  0
  188.7540  179.0860  138.3580 O   0  0  0  0  0  0  0  0  0  0  0  0
  187.3350  178.7890  136.4780 C   0  0  0  0  0  1  0  0  0  0  0  0
  188.6800  179.2700  136.9780 C   0  0  0  0  0  2  0  0  0  0  0  0
  188.2160  176.7860  144.5040 C   0  0  0  0  0  2  0  0  0  0  0  0
  189.1940  177.6050  145.3250 C   0  0  0  0  0  2  0  0  0  0  0  0
  189.2170  177.0870  146.7480 C   0  0  1  0  0  3  0  0  0  0  0  0
  189.1130  178.2540  147.7130 C   0  0  2  0  0  3  0  0  0  0  0  0
  188.1900  177.8540  148.8470 C   0  0  0  0  0  2  0  0  0  0  0  0
  187.8990  177.4120  147.4250 C   0  0  2  0  0  3  0  0  0  0  0  0
  1  2  1  0  0  0  0
  1 27  1  1  0  0  0
  2  3  1  0  0  0  0
  3  8  2  0  0  0  0
  4  6  1  0  0  0  0
  5 11  1  0  0  0  0
  5  2  2  0  0  0  0
  6  7  1  0  0  0  0
  7  8  1  0  0  0  0
  9  4  1  0  0  0  0
  9 11  1  0  0  0  0
 10  4  2  0  0  0  0
 11  7  2  0  0  0  0
 12  1  1  0  0  0  0
 13 14  1  1  0  0  0
 13 12  1  0  0  0  0
 15 18  1  6  0  0  0
 15 17  1  0  0  0  0
 15 16  1  0  0  0  0
 16 13  1  6  0  0  0
 17 16  1  0  0  0  0
 19 20  1  0  0  0  0
 19 18  1  1  0  0  0
 21 22  1  6  0  0  0
 21 19  1  0  0  0  0
 21 20  1  0  0  0  0
 23 18  1  0  0  0  0
 24 23  1  0  0  0  0
 25 26  1  0  0  0  0
 26 24  1  0  0  0  0
 27 28  1  0  0  0  0
 29 28  1  6  0  0  0
 29 32  1  0  0  0  0
 29 30  1  0  0  0  0
 30 31  1  1  0  0  0
 32 30  1  0  0  0  0
 32 31  1  1  0  0  0
M  END
>  <MODEL>
6

>  <REMARK>
 VINA RESULT:      -6.9      3.512      7.797
  Name = 
  12 active torsions:
  status: ('A' for Active; 'I' for Inactive)
    1  A    between atoms: O_1  and  C_4
    2  A    between atoms: O_1  and  C_5
    3  A    between atoms: C_2  and  C_5
    4  A    between atoms: C_3  and  N_20
    5  A    between atoms: C_4  and  C_24
    6  A    between atoms: C_5  and  C_14
    7  A    between atoms: C_13  and  C_30
    8  A    between atoms: C_14  and  C_30
    9  A    between atoms: C_15  and  N_20
   10  A    between atoms: C_15  and  O_26
   11  A    between atoms: C_16  and  N_20
   12  A    between atoms: C_19  and  O_26
                            x       y       z     vdW  Elec       q    Type
                         _______ _______ _______ _____ _____    ______ ____

>  <TORSDO>
F 12

$$$$
=
 OpenBabel11052414463D

 32 37  0  0  1  0  0  0  0  0999 V2000
  184.9860  178.5900  142.1040 C   0  0  2  0  0  3  0  0  0  0  0  0
  186.4370  178.2310  142.0730 C   0  0  0  0  0  0  0  0  0  0  0  0
  187.2260  178.6530  140.9780 C   0  0  0  0  0  3  0  0  0  0  0  0
  190.3490  176.5260  143.2990 C   0  0  0  0  0  0  0  0  0  0  0  0
  187.0190  177.4830  143.1200 C   0  0  0  0  0  3  0  0  0  0  0  0
  190.3980  177.1910  142.1160 N   0  0  0  0  0  2  0  0  0  0  0  0
  189.1320  177.6000  141.9670 C   0  0  0  0  0  0  0  0  0  0  0  0
  188.5950  178.3370  140.9150 C   0  0  0  0  0  3  0  0  0  0  0  0
  189.1280  176.5000  143.8930 N   0  0  0  0  0  2  0  0  0  0  0  0
  191.6600  175.8160  143.9630 S   0  0  0  0  0  0  0  0  0  0  0  0
  188.3760  177.1900  143.0230 C   0  0  0  0  0  0  0  0  0  0  0  0
  184.6320  179.2650  140.9290 O   0  0  0  0  0  0  0  0  0  0  0  0
  183.8840  178.3530  140.1780 C   0  0  1  0  0  3  0  0  0  0  0  0
  182.7770  177.9500  140.9310 O   0  0  0  0  0  1  0  0  0  0  0  0
  183.8720  178.2280  137.5930 C   0  0  2  0  0  3  0  0  0  0  0  0
  183.4560  179.0110  138.8550 C   0  0  1  0  0  3  0  0  0  0  0  0
  182.4370  178.1850  138.0920 C   0  0  0  0  0  2  0  0  0  0  0  0
  184.5630  176.9710  137.8920 N   0  0  0  0  0  0  0  0  0  0  0  0
  185.6990  176.8820  136.9780 C   0  0  1  0  0  3  0  0  0  0  0  0
  186.5730  178.1130  137.1060 C   0  0  0  0  0  2  0  0  0  0  0  0
  186.9960  176.8240  137.7700 C   0  0  2  0  0  3  0  0  0  0  0  0
  188.0560  176.1510  136.9250 C   0  0  0  0  0  1  0  0  0  0  0  0
  183.6600  175.8820  137.5300 C   0  0  0  0  0  2  0  0  0  0  0  0
  184.2880  175.0390  136.6120 O   0  0  0  0  0  0  0  0  0  0  0  0
  185.0970  173.1230  137.7590 C   0  0  0  0  0  1  0  0  0  0  0  0
  183.9350  173.7540  137.0210 C   0  0  0  0  0  2  0  0  0  0  0  0
  184.6750  179.4460  143.3240 C   0  0  0  0  0  2  0  0  0  0  0  0
  183.7440  178.7010  144.2620 C   0  0  0  0  0  2  0  0  0  0  0  0
  184.0820  179.0520  145.6950 C   0  0  1  0  0  3  0  0  0  0  0  0
  184.9840  177.9810  146.2800 C   0  0  2  0  0  3  0  0  0  0  0  0
  186.0500  178.6600  147.1170 C   0  0  0  0  0  2  0  0  0  0  0  0
  185.5760  179.2860  145.8200 C   0  0  2  0  0  3  0  0  0  0  0  0
  1 27  1  1  0  0  0
  2  1  1  0  0  0  0
  2  5  1  0  0  0  0
  3  2  2  0  0  0  0
  4  9  1  0  0  0  0
  4 10  2  0  0  0  0
  6  4  1  0  0  0  0
  7  6  1  0  0  0  0
  7 11  1  0  0  0  0
  8  3  1  0  0  0  0
  8  7  2  0  0  0  0
 11  5  2  0  0  0  0
 11  9  1  0  0  0  0
 12  1  1  0  0  0  0
 13 12  1  0  0  0  0
 13 14  1  1  0  0  0
 15 18  1  1  0  0  0
 15 17  1  0  0  0  0
 15 16  1  0  0  0  0
 16 13  1  1  0  0  0
 17 16  1  0  0  0  0
 19 20  1  0  0  0  0
 19 21  1  0  0  0  0
 19 18  1  1  0  0  0
 20 21  1  0  0  0  0
 21 22  1  6  0  0  0
 23 18  1  0  0  0  0
 24 26  1  0  0  0  0
 24 23  1  0  0  0  0
 26 25  1  0  0  0  0
 27 28  1  0  0  0  0
 29 28  1  6  0  0  0
 29 32  1  0  0  0  0
 29 30  1  0  0  0  0
 30 31  1  1  0  0  0
 32 30  1  0  0  0  0
 32 31  1  1  0  0  0
M  END
>  <MODEL>
7

>  <REMARK>
 VINA RESULT:      -6.9      3.650      7.688
  Name = 
  12 active torsions:
  status: ('A' for Active; 'I' for Inactive)
    1  A    between atoms: O_1  and  C_4
    2  A    between atoms: O_1  and  C_5
    3  A    between atoms: C_2  and  C_5
    4  A    between atoms: C_3  and  N_20
    5  A    between atoms: C_4  and  C_24
    6  A    between atoms: C_5  and  C_14
    7  A    between atoms: C_13  and  C_30
    8  A    between atoms: C_14  and  C_30
    9  A    between atoms: C_15  and  N_20
   10  A    between atoms: C_15  and  O_26
   11  A    between atoms: C_16  and  N_20
   12  A    between atoms: C_19  and  O_26
                            x       y       z     vdW  Elec       q    Type
                         _______ _______ _______ _____ _____    ______ ____

>  <TORSDO>
F 12

$$$$
=
 OpenBabel11052414463D

 32 37  0  0  1  0  0  0  0  0999 V2000
  185.3850  178.8280  141.8630 C   0  0  2  0  0  3  0  0  0  0  0  0
  186.7650  178.2520  141.8710 C   0  0  0  0  0  0  0  0  0  0  0  0
  187.1980  177.5230  143.0030 C   0  0  0  0  0  3  0  0  0  0  0  0
  190.8620  177.1940  140.5270 C   0  0  0  0  0  0  0  0  0  0  0  0
  187.6280  178.4270  140.7680 C   0  0  0  0  0  3  0  0  0  0  0  0
  190.5610  176.7180  141.7630 N   0  0  0  0  0  2  0  0  0  0  0  0
  189.3080  177.1580  141.9390 C   0  0  0  0  0  0  0  0  0  0  0  0
  188.4880  176.9640  143.0470 C   0  0  0  0  0  3  0  0  0  0  0  0
  189.8700  177.9000  139.9260 N   0  0  0  0  0  2  0  0  0  0  0  0
  192.3070  176.9320  139.8130 S   0  0  0  0  0  0  0  0  0  0  0  0
  188.8960  177.8600  140.8470 C   0  0  0  0  0  0  0  0  0  0  0  0
  185.2570  179.7530  140.8190 O   0  0  0  0  0  0  0  0  0  0  0  0
  184.1100  179.3740  140.1150 C   0  0  1  0  0  3  0  0  0  0  0  0
  184.3360  179.5610  138.7490 O   0  0  0  0  0  1  0  0  0  0  0  0
  182.2690  177.6160  140.5850 C   0  0  2  0  0  3  0  0  0  0  0  0
  183.7760  177.9060  140.4350 C   0  0  1  0  0  3  0  0  0  0  0  0
  183.0110  177.2230  139.3170 C   0  0  0  0  0  2  0  0  0  0  0  0
  181.4260  178.7910  140.3490 N   0  0  0  0  0  0  0  0  0  0  0  0
  180.3160  178.7150  141.2950 C   0  0  1  0  0  3  0  0  0  0  0  0
  180.8420  178.6070  142.7130 C   0  0  0  0  0  2  0  0  0  0  0  0
  180.3300  179.9340  142.2050 C   0  0  2  0  0  3  0  0  0  0  0  0
  178.9310  180.1650  142.7350 C   0  0  0  0  0  1  0  0  0  0  0  0
  180.8400  178.6450  139.0190 C   0  0  0  0  0  2  0  0  0  0  0  0
  179.9540  179.6970  138.7800 O   0  0  0  0  0  0  0  0  0  0  0  0
  181.4080  181.5210  138.3350 C   0  0  0  0  0  1  0  0  0  0  0  0
  180.5470  180.4230  137.7480 C   0  0  0  0  0  2  0  0  0  0  0  0
  185.0750  179.4860  143.2000 C   0  0  0  0  0  2  0  0  0  0  0  0
  184.1570  178.5990  144.0180 C   0  0  0  0  0  2  0  0  0  0  0  0
  184.2440  178.9910  145.4780 C   0  0  1  0  0  3  0  0  0  0  0  0
  185.1180  177.9950  146.2180 C   0  0  2  0  0  3  0  0  0  0  0  0
  185.9920  178.7600  147.1930 C   0  0  0  0  0  2  0  0  0  0  0  0
  185.6810  179.3340  145.8240 C   0  0  2  0  0  3  0  0  0  0  0  0
  1  2  1  0  0  0  0
  1 27  1  1  0  0  0
  2  3  1  0  0  0  0
  3  8  2  0  0  0  0
  4  6  1  0  0  0  0
  5 11  1  0  0  0  0
  5  2  2  0  0  0  0
  6  7  1  0  0  0  0
  7  8  1  0  0  0  0
  9  4  1  0  0  0  0
  9 11  1  0  0  0  0
 10  4  2  0  0  0  0
 11  7  2  0  0  0  0
 12  1  1  0  0  0  0
 13 14  1  6  0  0  0
 13 12  1  0  0  0  0
 15 18  1  6  0  0  0
 16 13  1  6  0  0  0
 16 15  1  0  0  0  0
 17 16  1  0  0  0  0
 17 15  1  0  0  0  0
 19 18  1  6  0  0  0
 19 21  1  0  0  0  0
 19 20  1  0  0  0  0
 21 20  1  0  0  0  0
 21 22  1  1  0  0  0
 23 18  1  0  0  0  0
 24 23  1  0  0  0  0
 26 25  1  0  0  0  0
 26 24  1  0  0  0  0
 27 28  1  0  0  0  0
 29 28  1  6  0  0  0
 29 32  1  0  0  0  0
 29 30  1  0  0  0  0
 30 31  1  1  0  0  0
 32 30  1  0  0  0  0
 32 31  1  1  0  0  0
M  END
>  <MODEL>
8

>  <REMARK>
 VINA RESULT:      -6.9      4.069      7.830
  Name = 
  12 active torsions:
  status: ('A' for Active; 'I' for Inactive)
    1  A    between atoms: O_1  and  C_4
    2  A    between atoms: O_1  and  C_5
    3  A    between atoms: C_2  and  C_5
    4  A    between atoms: C_3  and  N_20
    5  A    between atoms: C_4  and  C_24
    6  A    between atoms: C_5  and  C_14
    7  A    between atoms: C_13  and  C_30
    8  A    between atoms: C_14  and  C_30
    9  A    between atoms: C_15  and  N_20
   10  A    between atoms: C_15  and  O_26
   11  A    between atoms: C_16  and  N_20
   12  A    between atoms: C_19  and  O_26
                            x       y       z     vdW  Elec       q    Type
                         _______ _______ _______ _____ _____    ______ ____

>  <TORSDO>
F 12

$$$$
=
 OpenBabel11052414463D

 32 37  0  0  1  0  0  0  0  0999 V2000
  187.8370  178.1140  140.8240 C   0  0  2  0  0  3  0  0  0  0  0  0
  188.8840  177.5820  141.7500 C   0  0  0  0  0  0  0  0  0  0  0  0
  190.0080  176.9180  141.2070 C   0  0  0  0  0  3  0  0  0  0  0  0
  191.0390  176.6120  145.5090 C   0  0  0  0  0  0  0  0  0  0  0  0
  188.7600  177.7380  143.1480 C   0  0  0  0  0  3  0  0  0  0  0  0
  191.6830  176.1830  144.3930 N   0  0  0  0  0  2  0  0  0  0  0  0
  190.8570  176.5820  143.4170 C   0  0  0  0  0  0  0  0  0  0  0  0
  191.0150  176.4070  142.0450 C   0  0  0  0  0  3  0  0  0  0  0  0
  189.8630  177.2540  145.2830 N   0  0  0  0  0  2  0  0  0  0  0  0
  191.6340  176.3780  147.0110 S   0  0  0  0  0  0  0  0  0  0  0  0
  189.7750  177.2200  143.9450 C   0  0  0  0  0  0  0  0  0  0  0  0
  188.4380  178.7070  139.7070 O   0  0  0  0  0  0  0  0  0  0  0  0
  187.9220  178.0330  138.5960 C   0  0  1  0  0  3  0  0  0  0  0  0
  186.5300  177.9720  138.7120 O   0  0  0  0  0  1  0  0  0  0  0  0
  189.0390  177.8660  136.2670 C   0  0  2  0  0  3  0  0  0  0  0  0
  188.3490  178.7660  137.3120 C   0  0  1  0  0  3  0  0  0  0  0  0
  187.5900  178.2900  136.0870 C   0  0  0  0  0  2  0  0  0  0  0  0
  189.1220  176.4610  136.6760 N   0  0  0  0  0  0  0  0  0  0  0  0
  190.5340  176.0900  136.6410 C   0  0  1  0  0  3  0  0  0  0  0  0
  191.2800  176.7540  137.7810 C   0  0  0  0  0  2  0  0  0  0  0  0
  190.8910  175.2980  137.8900 C   0  0  2  0  0  3  0  0  0  0  0  0
  192.0990  174.4360  137.5940 C   0  0  0  0  0  1  0  0  0  0  0  0
  188.4650  175.6690  135.6410 C   0  0  0  0  0  2  0  0  0  0  0  0
  188.0560  174.4460  136.1760 O   0  0  0  0  0  0  0  0  0  0  0  0
  186.0710  173.6640  137.2190 C   0  0  0  0  0  1  0  0  0  0  0  0
  187.0850  174.7840  137.1170 C   0  0  0  0  0  2  0  0  0  0  0  0
  186.9480  179.1170  141.5470 C   0  0  0  0  0  2  0  0  0  0  0  0
  185.6990  178.4300  142.0650 C   0  0  0  0  0  2  0  0  0  0  0  0
  184.9800  179.3480  143.0310 C   0  0  1  0  0  3  0  0  0  0  0  0
  183.7790  178.6280  143.6150 C   0  0  2  0  0  3  0  0  0  0  0  0
  183.6910  178.9680  145.0900 C   0  0  0  0  0  2  0  0  0  0  0  0
  185.0390  178.7600  144.4280 C   0  0  2  0  0  3  0  0  0  0  0  0
  1 27  1  1  0  0  0
  1  2  1  0  0  0  0
  2  5  1  0  0  0  0
  3  2  2  0  0  0  0
  3  8  1  0  0  0  0
  4 10  2  0  0  0  0
  5 11  2  0  0  0  0
  6  4  1  0  0  0  0
  7 11  1  0  0  0  0
  7  6  1  0  0  0  0
  8  7  2  0  0  0  0
  9  4  1  0  0  0  0
 11  9  1  0  0  0  0
 12  1  1  0  0  0  0
 13 14  1  1  0  0  0
 13 12  1  0  0  0  0
 15 18  1  1  0  0  0
 15 16  1  0  0  0  0
 16 13  1  1  0  0  0
 17 15  1  0  0  0  0
 17 16  1  0  0  0  0
 19 18  1  1  0  0  0
 19 20  1  0  0  0  0
 19 21  1  0  0  0  0
 20 21  1  0  0  0  0
 21 22  1  6  0  0  0
 23 24  1  0  0  0  0
 23 18  1  0  0  0  0
 24 26  1  0  0  0  0
 26 25  1  0  0  0  0
 27 28  1  0  0  0  0
 29 28  1  6  0  0  0
 29 30  1  0  0  0  0
 29 32  1  0  0  0  0
 30 32  1  0  0  0  0
 30 31  1  1  0  0  0
 32 31  1  1  0  0  0
M  END
>  <MODEL>
9

>  <REMARK>
 VINA RESULT:      -6.8      3.121      7.428
  Name = 
  12 active torsions:
  status: ('A' for Active; 'I' for Inactive)
    1  A    between atoms: O_1  and  C_4
    2  A    between atoms: O_1  and  C_5
    3  A    between atoms: C_2  and  C_5
    4  A    between atoms: C_3  and  N_20
    5  A    between atoms: C_4  and  C_24
    6  A    between atoms: C_5  and  C_14
    7  A    between atoms: C_13  and  C_30
    8  A    between atoms: C_14  and  C_30
    9  A    between atoms: C_15  and  N_20
   10  A    between atoms: C_15  and  O_26
   11  A    between atoms: C_16  and  N_20
   12  A    between atoms: C_19  and  O_26
                            x       y       z     vdW  Elec       q    Type
                         _______ _______ _______ _____ _____    ______ ____

>  <TORSDO>
F 12

$$$$
