=
 OpenBabel11052415003D

 55 58  0  0  1  0  0  0  0  0999 V2000
  183.4590  179.0100  144.1850 C   0  0  0  0  0  0  0  0  0  0  0  0
  182.0670  178.7190  142.1280 C   0  0  0  0  0  1  0  0  0  0  0  0
  183.3470  179.0050  142.7530 N   0  0  0  0  0  0  0  0  0  0  0  0
  182.5030  178.5950  144.8960 O   0  0  0  0  0  0  0  0  0  0  0  0
  184.6980  179.5050  144.8580 C   0  0  0  0  0  2  0  0  0  0  0  0
  185.3010  178.4010  145.7040 C   0  0  0  0  0  2  0  0  0  0  0  0
  186.5790  178.8710  146.3800 C   0  0  0  0  0  2  0  0  0  0  0  0
  186.7060  178.2510  147.7600 C   0  0  0  0  0  2  0  0  0  0  0  0
  187.9120  177.3250  147.8080 C   0  0  0  0  0  2  0  0  0  0  0  0
  189.1250  177.9920  147.1810 C   0  0  0  0  0  2  0  0  0  0  0  0
  189.8090  177.0780  146.2750 N   0  0  0  0  0  0  0  0  0  0  0  0
  193.0960  176.2210  147.5850 O   0  0  0  0  0  0  0  0  0  0  0  0
  191.1920  177.0890  146.5700 N   0  0  0  0  0  2  0  0  0  0  0  0
  191.8830  176.0650  147.3040 C   0  0  0  0  0  0  0  0  0  0  0  0
  191.2310  174.9000  147.7090 O   0  0  0  0  0  1  0  0  0  0  0  0
  189.6150  177.5540  144.9070 C   0  0  0  0  0  2  0  0  0  0  0  0
  190.1280  175.5970  142.5720 N   0  0  0  0  0  0  0  0  0  0  0  0
  187.7160  178.8380  143.3680 F   0  0  0  0  0  0  0  0  0  0  0  0
  188.5470  176.7300  144.1850 C   0  0  1  0  0  3  0  0  0  0  0  0
  190.4880  177.9460  139.6030 C   0  0  0  0  0  2  0  0  0  0  0  0
  186.5480  176.9730  142.9420 F   0  0  0  0  0  0  0  0  0  0  0  0
  187.8280  177.4880  143.0480 C   0  0  0  0  0  0  0  0  0  0  0  0
  191.4510  175.5930  143.1800 C   0  0  0  0  0  1  0  0  0  0  0  0
  189.0180  178.2980  139.4270 C   0  0  0  0  0  2  0  0  0  0  0  0
  188.3780  178.5350  140.7890 C   0  0  0  0  0  2  0  0  0  0  0  0
  189.9930  176.8580  141.8180 C   0  0  2  0  0  3  0  0  0  0  0  0
  188.5210  177.2960  141.6820 C   0  0  1  0  0  3  0  0  0  0  0  0
  190.6170  176.6740  140.4320 C   0  0  0  0  0  2  0  0  0  0  0  0
  189.1500  175.4200  143.6630 C   0  0  0  0  0  2  0  0  0  0  0  0
  184.4710  179.3480  141.8960 C   0  0  0  0  0  2  0  0  0  0  0  0
  184.7750  178.1990  140.9500 C   0  0  0  0  0  2  0  0  0  0  0  0
  184.6850  178.6390  139.5010 C   0  0  0  0  0  2  0  0  0  0  0  0
  184.4400  177.4400  138.5890 C   0  0  0  0  0  2  0  0  0  0  0  0
  180.8520  176.4010  139.4990 C   0  0  0  0  0  3  0  0  0  0  0  0
  180.7230  178.3240  138.0360 C   0  0  1  0  0  3  0  0  0  0  0  0
  182.3550  176.3010  139.3820 C   0  0  0  0  0  2  0  0  0  0  0  0
  182.2200  178.5440  138.2800 C   0  0  0  0  0  2  0  0  0  0  0  0
  180.1600  177.3320  138.9320 N   0  0  0  0  0  0  0  0  0  0  0  0
  182.9550  177.2020  138.2940 C   0  0  1  0  0  0  0  0  0  0  0  0
  179.9080  179.6150  138.0780 C   0  0  1  0  0  3  0  0  0  0  0  0
  180.4340  180.5330  139.0750 N   0  0  0  0  0  1  0  0  0  0  0  0
  179.8780  180.2850  136.7170 C   0  0  0  0  0  1  0  0  0  0  0  0
  182.7680  176.4050  136.6420 S   0  0  0  0  0  0  0  0  0  0  0  0
  186.2590  173.4550  137.0650 C   0  0  0  0  0  3  0  0  0  0  0  0
  185.0330  173.1850  137.6710 C   0  0  0  0  0  3  0  0  0  0  0  0
  185.5510  176.6750  135.4630 F   0  0  0  0  0  0  0  0  0  0  0  0
  184.1320  175.2450  136.7580 C   0  0  0  0  0  0  0  0  0  0  0  0
  183.9710  174.0810  137.5160 C   0  0  0  0  0  3  0  0  0  0  0  0
  185.3710  175.5230  136.1600 C   0  0  0  0  0  0  0  0  0  0  0  0
  186.4370  174.6220  136.3020 C   0  0  0  0  0  0  0  0  0  0  0  0
  187.6570  174.9130  135.6690 O   0  0  0  0  0  0  0  0  0  0  0  0
  189.4100  175.1080  137.2940 C   0  0  0  0  0  1  0  0  0  0  0  0
  188.0630  176.9440  136.6910 F   0  0  0  0  0  0  0  0  0  0  0  0
  189.6360  176.1720  135.0880 C   0  0  0  0  0  1  0  0  0  0  0  0
  188.6530  175.8010  136.1810 C   0  0  0  0  0  0  0  0  0  0  0  0
  1  5  1  0  0  0  0
  1  4  2  0  0  0  0
  2  3  1  0  0  0  0
  3  1  1  0  0  0  0
  5  6  1  0  0  0  0
  6  7  1  0  0  0  0
  7  8  1  0  0  0  0
  8  9  1  0  0  0  0
 10  9  1  0  0  0  0
 11 13  1  0  0  0  0
 11 10  1  0  0  0  0
 13 14  1  0  0  0  0
 14 12  2  0  0  0  0
 14 15  1  0  0  0  0
 16 11  1  0  0  0  0
 17 23  1  0  0  0  0
 17 29  1  0  0  0  0
 19 16  1  6  0  0  0
 20 28  1  0  0  0  0
 21 22  1  0  0  0  0
 22 18  1  0  0  0  0
 22 19  1  0  0  0  0
 24 20  1  0  0  0  0
 24 25  1  0  0  0  0
 26 28  1  6  0  0  0
 26 17  1  0  0  0  0
 27 25  1  1  0  0  0
 27 26  1  0  0  0  0
 27 22  1  0  0  0  0
 29 19  1  0  0  0  0
 30  3  1  0  0  0  0
 31 30  1  0  0  0  0
 32 31  1  0  0  0  0
 33 32  1  0  0  0  0
 35 40  1  1  0  0  0
 35 37  1  0  0  0  0
 35 38  1  0  0  0  0
 36 34  1  0  0  0  0
 37 39  1  0  0  0  0
 38 34  2  0  0  0  0
 39 33  1  1  0  0  0
 39 36  1  0  0  0  0
 40 42  1  6  0  0  0
 40 41  1  0  0  0  0
 43 47  1  0  0  0  0
 43 39  1  0  0  0  0
 44 45  1  0  0  0  0
 46 49  1  0  0  0  0
 47 48  1  0  0  0  0
 48 45  2  0  0  0  0
 49 50  1  0  0  0  0
 49 47  2  0  0  0  0
 50 44  2  0  0  0  0
 51 55  1  0  0  0  0
 51 50  1  0  0  0  0
 54 55  1  0  0  0  0
 55 53  1  0  0  0  0
 55 52  1  0  0  0  0
M  END
>  <MODEL>
1

>  <REMARK>
 VINA RESULT:      -6.3      0.000      0.000
  Name = 
  20 active torsions:
  status: ('A' for Active; 'I' for Inactive)
    1  A    between atoms: C_2  and  C_28
    2  A    between atoms: C_2  and  N_44
    3  A    between atoms: C_6  and  C_46
    4  A    between atoms: N_8  and  N_22
    5  A    between atoms: C_10  and  C_32
    6  A    between atoms: C_17  and  S_36
    7  A    between atoms: O_19  and  C_40
    8  A    between atoms: O_19  and  C_45
    9  A    between atoms: N_22  and  C_35
   10  A    between atoms: N_22  and  C_46
   11  A    between atoms: C_24  and  C_31
   12  A    between atoms: C_27  and  C_31
   13  A    between atoms: C_27  and  C_54
   14  A    between atoms: C_28  and  C_49
   15  A    between atoms: C_33  and  C_49
   16  A    between atoms: C_33  and  C_52
   17  A    between atoms: C_35  and  C_43
   18  A    between atoms: S_36  and  C_52
   19  A    between atoms: C_43  and  C_51
   20  A    between atoms: C_51  and  C_54
                            x       y       z     vdW  Elec       q    Type
                         _______ _______ _______ _____ _____    ______ ____

>  <TORSDO>
F 20

$$$$
=
 OpenBabel11052415003D

 55 58  0  0  1  0  0  0  0  0999 V2000
  182.4950  178.8550  143.1890 C   0  0  0  0  0  0  0  0  0  0  0  0
  180.7490  178.5900  141.4170 C   0  0  0  0  0  1  0  0  0  0  0  0
  182.1460  178.6840  141.8060 N   0  0  0  0  0  0  0  0  0  0  0  0
  181.6110  178.7460  144.0820 O   0  0  0  0  0  0  0  0  0  0  0  0
  183.8980  179.1670  143.5950 C   0  0  0  0  0  2  0  0  0  0  0  0
  183.9930  179.2390  145.1070 C   0  0  0  0  0  2  0  0  0  0  0  0
  184.8120  178.0820  145.6560 C   0  0  0  0  0  2  0  0  0  0  0  0
  186.0470  178.6010  146.3700 C   0  0  0  0  0  2  0  0  0  0  0  0
  187.1790  177.5890  146.2590 C   0  0  0  0  0  2  0  0  0  0  0  0
  188.1780  178.0180  145.1980 C   0  0  0  0  0  2  0  0  0  0  0  0
  188.8410  176.8590  144.6130 N   0  0  0  0  0  0  0  0  0  0  0  0
  192.0180  176.9320  146.3890 O   0  0  0  0  0  0  0  0  0  0  0  0
  190.2220  176.9210  144.9110 N   0  0  0  0  0  2  0  0  0  0  0  0
  190.7850  176.7700  146.2250 C   0  0  0  0  0  0  0  0  0  0  0  0
  189.9860  176.4450  147.3220 O   0  0  0  0  0  1  0  0  0  0  0  0
  188.6710  176.9150  143.1610 C   0  0  0  0  0  2  0  0  0  0  0  0
  188.0620  178.8640  140.8430 N   0  0  0  0  0  0  0  0  0  0  0  0
  190.8040  175.9200  141.7200 F   0  0  0  0  0  0  0  0  0  0  0  0
  189.6710  177.8850  142.5280 C   0  0  1  0  0  3  0  0  0  0  0  0
  188.1770  176.5790  137.8060 C   0  0  0  0  0  2  0  0  0  0  0  0
  191.7560  177.9260  141.4110 F   0  0  0  0  0  0  0  0  0  0  0  0
  190.5450  177.2550  141.4230 C   0  0  0  0  0  0  0  0  0  0  0  0
  186.7150  178.6880  141.3650 C   0  0  0  0  0  1  0  0  0  0  0  0
  189.6880  176.4140  137.7170 C   0  0  0  0  0  2  0  0  0  0  0  0
  190.2690  176.2170  139.1110 C   0  0  0  0  0  2  0  0  0  0  0  0
  188.3980  177.6530  140.0710 C   0  0  2  0  0  3  0  0  0  0  0  0
  189.9180  177.4020  140.0200 C   0  0  1  0  0  3  0  0  0  0  0  0
  187.8420  177.8000  138.6520 C   0  0  0  0  0  2  0  0  0  0  0  0
  188.9430  179.1270  141.9980 C   0  0  0  0  0  2  0  0  0  0  0  0
  183.1550  178.6700  140.7580 C   0  0  0  0  0  2  0  0  0  0  0  0
  182.6350  177.9160  139.5450 C   0  0  0  0  0  2  0  0  0  0  0  0
  183.7740  177.3410  138.7250 C   0  0  0  0  0  2  0  0  0  0  0  0
  183.6780  177.8040  137.2740 C   0  0  0  0  0  2  0  0  0  0  0  0
  185.8470  175.7050  134.8930 C   0  0  0  0  0  3  0  0  0  0  0  0
  184.3170  174.2080  136.0220 C   0  0  1  0  0  3  0  0  0  0  0  0
  185.2420  176.9400  135.5190 C   0  0  0  0  0  2  0  0  0  0  0  0
  184.0180  175.3430  137.0090 C   0  0  0  0  0  2  0  0  0  0  0  0
  185.4500  174.5070  135.1670 N   0  0  0  0  0  0  0  0  0  0  0  0
  183.9270  176.6780  136.2650 C   0  0  1  0  0  0  0  0  0  0  0  0
  184.4930  172.8510  136.6980 C   0  0  1  0  0  3  0  0  0  0  0  0
  184.6870  171.7980  135.7140 N   0  0  0  0  0  1  0  0  0  0  0  0
  185.6580  172.8740  137.6710 C   0  0  0  0  0  1  0  0  0  0  0  0
  182.5290  176.5950  135.0660 S   0  0  0  0  0  0  0  0  0  0  0  0
  179.1880  178.3880  137.6540 C   0  0  0  0  0  3  0  0  0  0  0  0
  179.4830  177.0270  137.7300 C   0  0  0  0  0  3  0  0  0  0  0  0
  181.6300  179.4920  135.1530 F   0  0  0  0  0  0  0  0  0  0  0  0
  181.2570  177.3250  136.1010 C   0  0  0  0  0  0  0  0  0  0  0  0
  180.5180  176.4980  136.9530 C   0  0  0  0  0  3  0  0  0  0  0  0
  180.9490  178.6920  136.0140 C   0  0  0  0  0  0  0  0  0  0  0  0
  179.9210  179.2310  136.8010 C   0  0  0  0  0  0  0  0  0  0  0  0
  179.6540  180.6070  136.7140 O   0  0  0  0  0  0  0  0  0  0  0  0
  179.3890  182.2120  138.4770 C   0  0  0  0  0  1  0  0  0  0  0  0
  180.7660  182.6300  136.6130 F   0  0  0  0  0  0  0  0  0  0  0  0
  181.5230  181.0240  138.1890 C   0  0  0  0  0  1  0  0  0  0  0  0
  180.3370  181.6210  137.4560 C   0  0  0  0  0  0  0  0  0  0  0  0
  1  5  1  0  0  0  0
  1  4  2  0  0  0  0
  2  3  1  0  0  0  0
  3  1  1  0  0  0  0
  5  6  1  0  0  0  0
  6  7  1  0  0  0  0
  7  8  1  0  0  0  0
  9  8  1  0  0  0  0
 10  9  1  0  0  0  0
 11 13  1  0  0  0  0
 11 10  1  0  0  0  0
 13 14  1  0  0  0  0
 14 12  2  0  0  0  0
 14 15  1  0  0  0  0
 16 11  1  0  0  0  0
 17 23  1  0  0  0  0
 17 29  1  0  0  0  0
 19 16  1  6  0  0  0
 20 28  1  0  0  0  0
 21 22  1  0  0  0  0
 22 18  1  0  0  0  0
 22 19  1  0  0  0  0
 24 20  1  0  0  0  0
 24 25  1  0  0  0  0
 26 28  1  6  0  0  0
 26 17  1  0  0  0  0
 27 25  1  6  0  0  0
 27 26  1  0  0  0  0
 27 22  1  0  0  0  0
 29 19  1  0  0  0  0
 30  3  1  0  0  0  0
 31 30  1  0  0  0  0
 32 31  1  0  0  0  0
 33 32  1  0  0  0  0
 34 38  2  0  0  0  0
 34 36  1  0  0  0  0
 35 40  1  1  0  0  0
 35 37  1  0  0  0  0
 36 39  1  0  0  0  0
 38 35  1  0  0  0  0
 39 37  1  0  0  0  0
 39 33  1  1  0  0  0
 40 42  1  1  0  0  0
 41 40  1  0  0  0  0
 43 47  1  0  0  0  0
 43 39  1  0  0  0  0
 44 45  1  0  0  0  0
 46 49  1  0  0  0  0
 47 48  1  0  0  0  0
 48 45  2  0  0  0  0
 49 47  2  0  0  0  0
 49 50  1  0  0  0  0
 50 44  2  0  0  0  0
 51 50  1  0  0  0  0
 51 55  1  0  0  0  0
 53 55  1  0  0  0  0
 55 54  1  0  0  0  0
 55 52  1  0  0  0  0
M  END
>  <MODEL>
2

>  <REMARK>
 VINA RESULT:      -6.2      2.823      5.226
  Name = 
  20 active torsions:
  status: ('A' for Active; 'I' for Inactive)
    1  A    between atoms: C_2  and  C_28
    2  A    between atoms: C_2  and  N_44
    3  A    between atoms: C_6  and  C_46
    4  A    between atoms: N_8  and  N_22
    5  A    between atoms: C_10  and  C_32
    6  A    between atoms: C_17  and  S_36
    7  A    between atoms: O_19  and  C_40
    8  A    between atoms: O_19  and  C_45
    9  A    between atoms: N_22  and  C_35
   10  A    between atoms: N_22  and  C_46
   11  A    between atoms: C_24  and  C_31
   12  A    between atoms: C_27  and  C_31
   13  A    between atoms: C_27  and  C_54
   14  A    between atoms: C_28  and  C_49
   15  A    between atoms: C_33  and  C_49
   16  A    between atoms: C_33  and  C_52
   17  A    between atoms: C_35  and  C_43
   18  A    between atoms: S_36  and  C_52
   19  A    between atoms: C_43  and  C_51
   20  A    between atoms: C_51  and  C_54
                            x       y       z     vdW  Elec       q    Type
                         _______ _______ _______ _____ _____    ______ ____

>  <TORSDO>
F 20

$$$$
=
 OpenBabel11052415003D

 55 58  0  0  1  0  0  0  0  0999 V2000
  183.4880  178.8780  144.0770 C   0  0  0  0  0  0  0  0  0  0  0  0
  185.8280  178.3300  144.7710 C   0  0  0  0  0  1  0  0  0  0  0  0
  184.8590  178.6290  143.7290 N   0  0  0  0  0  0  0  0  0  0  0  0
  183.1570  179.0150  145.2870 O   0  0  0  0  0  0  0  0  0  0  0  0
  182.4330  178.9750  143.0240 C   0  0  0  0  0  2  0  0  0  0  0  0
  181.0690  179.1170  143.6710 C   0  0  0  0  0  2  0  0  0  0  0  0
  180.0340  178.2700  142.9480 C   0  0  0  0  0  2  0  0  0  0  0  0
  180.4380  178.0660  141.4990 C   0  0  0  0  0  2  0  0  0  0  0  0
  179.2110  177.7640  140.6510 C   0  0  0  0  0  2  0  0  0  0  0  0
  179.6020  177.5480  139.1990 C   0  0  0  0  0  2  0  0  0  0  0  0
  180.5150  178.5910  138.7480 N   0  0  0  0  0  0  0  0  0  0  0  0
  179.3560  181.7610  137.3850 O   0  0  0  0  0  0  0  0  0  0  0  0
  179.7790  179.5710  138.0430 N   0  0  0  0  0  2  0  0  0  0  0  0
  180.1310  180.9620  137.9640 C   0  0  0  0  0  0  0  0  0  0  0  0
  181.3170  181.4410  138.5200 O   0  0  0  0  0  1  0  0  0  0  0  0
  181.4900  177.9890  137.8390 C   0  0  0  0  0  2  0  0  0  0  0  0
  184.3840  178.0170  138.9200 N   0  0  0  0  0  0  0  0  0  0  0  0
  182.1070  175.7550  136.3400 F   0  0  0  0  0  0  0  0  0  0  0  0
  182.2030  176.8100  138.5030 C   0  0  1  0  0  3  0  0  0  0  0  0
  186.4430  177.6290  135.7470 C   0  0  0  0  0  2  0  0  0  0  0  0
  182.8630  174.5760  138.0890 F   0  0  0  0  0  0  0  0  0  0  0  0
  182.8620  175.8310  137.5070 C   0  0  0  0  0  0  0  0  0  0  0  0
  184.0940  179.4430  138.9800 C   0  0  0  0  0  1  0  0  0  0  0  0
  186.1900  176.1470  135.5060 C   0  0  0  0  0  2  0  0  0  0  0  0
  184.7240  175.8250  135.7650 C   0  0  0  0  0  2  0  0  0  0  0  0
  184.6460  177.6790  137.5090 C   0  0  2  0  0  3  0  0  0  0  0  0
  184.3280  176.2020  137.1990 C   0  0  1  0  0  3  0  0  0  0  0  0
  186.1140  177.9780  137.1930 C   0  0  0  0  0  2  0  0  0  0  0  0
  183.2320  177.3160  139.5220 C   0  0  0  0  0  2  0  0  0  0  0  0
  185.3040  178.5950  142.3450 C   0  0  0  0  0  2  0  0  0  0  0  0
  186.8220  178.5670  142.2870 C   0  0  0  0  0  2  0  0  0  0  0  0
  187.3180  178.5160  140.8550 C   0  0  0  0  0  2  0  0  0  0  0  0
  188.8410  178.5940  140.8100 C   0  0  0  0  0  2  0  0  0  0  0  0
  189.2880  175.8040  138.2030 C   0  0  0  0  0  3  0  0  0  0  0  0
  191.4840  176.4510  138.9860 C   0  0  1  0  0  3  0  0  0  0  0  0
  188.5750  176.7190  139.1720 C   0  0  0  0  0  2  0  0  0  0  0  0
  190.8380  177.6940  139.6080 C   0  0  0  0  0  2  0  0  0  0  0  0
  190.5740  175.7390  138.1090 N   0  0  0  0  0  0  0  0  0  0  0  0
  189.4930  177.3300  140.2390 C   0  0  1  0  0  0  0  0  0  0  0  0
  192.8010  176.7470  138.2730 C   0  0  1  0  0  3  0  0  0  0  0  0
  193.9380  176.4030  139.1100 N   0  0  0  0  0  1  0  0  0  0  0  0
  192.8840  176.0040  136.9520 C   0  0  0  0  0  1  0  0  0  0  0  0
  189.7810  176.1120  141.5930 S   0  0  0  0  0  0  0  0  0  0  0  0
  190.9790  179.0140  144.9420 C   0  0  0  0  0  3  0  0  0  0  0  0
  191.7100  178.9680  143.7560 C   0  0  0  0  0  3  0  0  0  0  0  0
  188.4220  176.4720  144.2820 F   0  0  0  0  0  0  0  0  0  0  0  0
  190.2060  177.2700  142.8970 C   0  0  0  0  0  0  0  0  0  0  0  0
  191.3220  178.0960  142.7340 C   0  0  0  0  0  3  0  0  0  0  0  0
  189.4780  177.3060  144.0970 C   0  0  0  0  0  0  0  0  0  0  0  0
  189.8560  178.1880  145.1200 C   0  0  0  0  0  0  0  0  0  0  0  0
  189.0920  178.2230  146.2990 O   0  0  0  0  0  0  0  0  0  0  0  0
  188.2940  176.5820  147.8550 C   0  0  0  0  0  1  0  0  0  0  0  0
  189.5830  178.4270  148.5470 F   0  0  0  0  0  0  0  0  0  0  0  0
  190.6900  176.7230  147.3180 C   0  0  0  0  0  1  0  0  0  0  0  0
  189.4210  177.5310  147.5060 C   0  0  0  0  0  0  0  0  0  0  0  0
  1  4  2  0  0  0  0
  3  1  1  0  0  0  0
  3  2  1  0  0  0  0
  5  6  1  0  0  0  0
  5  1  1  0  0  0  0
  7  6  1  0  0  0  0
  8  7  1  0  0  0  0
  9  8  1  0  0  0  0
 10  9  1  0  0  0  0
 11 10  1  0  0  0  0
 12 14  2  0  0  0  0
 13 11  1  0  0  0  0
 14 13  1  0  0  0  0
 14 15  1  0  0  0  0
 16 11  1  0  0  0  0
 17 23  1  0  0  0  0
 17 29  1  0  0  0  0
 18 22  1  0  0  0  0
 19 16  1  6  0  0  0
 19 29  1  0  0  0  0
 20 28  1  0  0  0  0
 22 21  1  0  0  0  0
 22 19  1  0  0  0  0
 24 20  1  0  0  0  0
 24 25  1  0  0  0  0
 26 28  1  1  0  0  0
 26 17  1  0  0  0  0
 27 25  1  6  0  0  0
 27 22  1  0  0  0  0
 27 26  1  0  0  0  0
 30  3  1  0  0  0  0
 31 30  1  0  0  0  0
 32 31  1  0  0  0  0
 33 32  1  0  0  0  0
 34 36  1  0  0  0  0
 35 40  1  6  0  0  0
 35 37  1  0  0  0  0
 36 39  1  0  0  0  0
 37 39  1  0  0  0  0
 38 34  2  0  0  0  0
 38 35  1  0  0  0  0
 39 33  1  1  0  0  0
 39 43  1  0  0  0  0
 40 42  1  6  0  0  0
 40 41  1  0  0  0  0
 43 47  1  0  0  0  0
 44 50  1  0  0  0  0
 45 44  2  0  0  0  0
 47 49  1  0  0  0  0
 48 47  2  0  0  0  0
 48 45  1  0  0  0  0
 49 46  1  0  0  0  0
 49 50  2  0  0  0  0
 50 51  1  0  0  0  0
 51 55  1  0  0  0  0
 54 55  1  0  0  0  0
 55 52  1  0  0  0  0
 55 53  1  0  0  0  0
M  END
>  <MODEL>
3

>  <REMARK>
 VINA RESULT:      -6.1      2.940      9.453
  Name = 
  20 active torsions:
  status: ('A' for Active; 'I' for Inactive)
    1  A    between atoms: C_2  and  C_28
    2  A    between atoms: C_2  and  N_44
    3  A    between atoms: C_6  and  C_46
    4  A    between atoms: N_8  and  N_22
    5  A    between atoms: C_10  and  C_32
    6  A    between atoms: C_17  and  S_36
    7  A    between atoms: O_19  and  C_40
    8  A    between atoms: O_19  and  C_45
    9  A    between atoms: N_22  and  C_35
   10  A    between atoms: N_22  and  C_46
   11  A    between atoms: C_24  and  C_31
   12  A    between atoms: C_27  and  C_31
   13  A    between atoms: C_27  and  C_54
   14  A    between atoms: C_28  and  C_49
   15  A    between atoms: C_33  and  C_49
   16  A    between atoms: C_33  and  C_52
   17  A    between atoms: C_35  and  C_43
   18  A    between atoms: S_36  and  C_52
   19  A    between atoms: C_43  and  C_51
   20  A    between atoms: C_51  and  C_54
                            x       y       z     vdW  Elec       q    Type
                         _______ _______ _______ _____ _____    ______ ____

>  <TORSDO>
F 20

$$$$
=
 OpenBabel11052415003D

 55 58  0  0  1  0  0  0  0  0999 V2000
  188.5350  178.1140  137.9170 C   0  0  0  0  0  0  0  0  0  0  0  0
  187.1850  178.3590  135.8260 C   0  0  0  0  0  1  0  0  0  0  0  0
  187.5450  177.6010  137.0120 N   0  0  0  0  0  0  0  0  0  0  0  0
  188.9620  179.2940  137.7850 O   0  0  0  0  0  0  0  0  0  0  0  0
  189.0790  177.2690  139.0220 C   0  0  0  0  0  2  0  0  0  0  0  0
  190.0000  178.0950  139.8980 C   0  0  0  0  0  2  0  0  0  0  0  0
  191.2490  177.3100  140.2650 C   0  0  0  0  0  2  0  0  0  0  0  0
  191.0460  176.5820  141.5830 C   0  0  0  0  0  2  0  0  0  0  0  0
  191.9560  177.1710  142.6510 C   0  0  0  0  0  2  0  0  0  0  0  0
  191.3310  178.4140  143.2600 C   0  0  0  0  0  2  0  0  0  0  0  0
  191.0700  178.2180  144.6820 N   0  0  0  0  0  0  0  0  0  0  0  0
  192.1470  175.2520  146.4960 O   0  0  0  0  0  0  0  0  0  0  0  0
  191.3800  176.8820  145.0260 N   0  0  0  0  0  2  0  0  0  0  0  0
  191.8120  176.4490  146.3260 C   0  0  0  0  0  0  0  0  0  0  0  0
  191.8660  177.3340  147.4030 O   0  0  0  0  0  1  0  0  0  0  0  0
  189.6470  178.4490  144.9250 C   0  0  0  0  0  2  0  0  0  0  0  0
  187.2110  177.1740  143.5150 N   0  0  0  0  0  0  0  0  0  0  0  0
  188.2600  178.3800  147.3100 F   0  0  0  0  0  0  0  0  0  0  0  0
  188.9460  177.1580  145.3520 C   0  0  1  0  0  3  0  0  0  0  0  0
  184.3270  179.2990  144.7910 C   0  0  0  0  0  2  0  0  0  0  0  0
  187.8170  176.1860  147.1900 F   0  0  0  0  0  0  0  0  0  0  0  0
  187.8790  177.3550  146.4500 C   0  0  0  0  0  0  0  0  0  0  0  0
  187.7520  177.9460  142.4050 C   0  0  0  0  0  1  0  0  0  0  0  0
  184.2390  178.7220  146.1970 C   0  0  0  0  0  2  0  0  0  0  0  0
  185.6400  178.5330  146.7650 C   0  0  0  0  0  2  0  0  0  0  0  0
  186.5170  178.1190  144.4110 C   0  0  2  0  0  3  0  0  0  0  0  0
  186.4730  177.6110  145.8660 C   0  0  1  0  0  3  0  0  0  0  0  0
  185.0950  178.3410  143.8890 C   0  0  0  0  0  2  0  0  0  0  0  0
  188.3420  176.4530  144.1320 C   0  0  0  0  0  2  0  0  0  0  0  0
  186.9310  176.2970  137.2070 C   0  0  0  0  0  2  0  0  0  0  0  0
  186.9980  175.4910  135.9210 C   0  0  0  0  0  2  0  0  0  0  0  0
  185.6250  175.3320  135.2980 C   0  0  0  0  0  2  0  0  0  0  0  0
  184.5870  174.9920  136.3650 C   0  0  0  0  0  2  0  0  0  0  0  0
  182.1020  172.6010  134.6670 C   0  0  0  0  0  3  0  0  0  0  0  0
  180.8990  173.8540  136.3530 C   0  0  1  0  0  3  0  0  0  0  0  0
  183.3860  173.3670  134.8860 C   0  0  0  0  0  2  0  0  0  0  0  0
  182.2550  174.2920  136.9190 C   0  0  0  0  0  2  0  0  0  0  0  0
  181.0310  172.8040  135.3600 N   0  0  0  0  0  0  0  0  0  0  0  0
  183.2250  174.6060  135.7790 C   0  0  1  0  0  0  0  0  0  0  0  0
  179.8940  173.4540  137.4310 C   0  0  1  0  0  3  0  0  0  0  0  0
  180.0070  172.0410  137.7520 N   0  0  0  0  0  1  0  0  0  0  0  0
  180.0800  174.2890  138.6850 C   0  0  0  0  0  1  0  0  0  0  0  0
  182.5500  176.0090  134.7920 S   0  0  0  0  0  0  0  0  0  0  0  0
  180.6260  178.4770  138.1500 C   0  0  0  0  0  3  0  0  0  0  0  0
  179.8290  177.7450  137.2700 C   0  0  0  0  0  3  0  0  0  0  0  0
  183.9720  177.7020  136.8700 F   0  0  0  0  0  0  0  0  0  0  0  0
  181.8210  176.9450  136.1390 C   0  0  0  0  0  0  0  0  0  0  0  0
  180.4290  176.9800  136.2650 C   0  0  0  0  0  3  0  0  0  0  0  0
  182.6210  177.6930  137.0170 C   0  0  0  0  0  0  0  0  0  0  0  0
  182.0260  178.4520  138.0350 C   0  0  0  0  0  0  0  0  0  0  0  0
  182.8530  179.1680  138.9160 O   0  0  0  0  0  0  0  0  0  0  0  0
  183.2420  177.1250  140.1090 C   0  0  0  0  0  1  0  0  0  0  0  0
  182.9320  179.1750  141.2250 F   0  0  0  0  0  0  0  0  0  0  0  0
  184.9700  178.8740  140.0440 C   0  0  0  0  0  1  0  0  0  0  0  0
  183.4760  178.6200  140.0810 C   0  0  0  0  0  0  0  0  0  0  0  0
  1  5  1  0  0  0  0
  2  3  1  0  0  0  0
  3 30  1  0  0  0  0
  3  1  1  0  0  0  0
  4  1  2  0  0  0  0
  5  6  1  0  0  0  0
  6  7  1  0  0  0  0
  7  8  1  0  0  0  0
  8  9  1  0  0  0  0
  9 10  1  0  0  0  0
 10 11  1  0  0  0  0
 11 16  1  0  0  0  0
 11 13  1  0  0  0  0
 13 14  1  0  0  0  0
 14 12  2  0  0  0  0
 14 15  1  0  0  0  0
 17 29  1  0  0  0  0
 17 26  1  0  0  0  0
 19 16  1  6  0  0  0
 19 22  1  0  0  0  0
 20 24  1  0  0  0  0
 22 21  1  0  0  0  0
 22 18  1  0  0  0  0
 23 17  1  0  0  0  0
 24 25  1  0  0  0  0
 26 28  1  6  0  0  0
 26 27  1  0  0  0  0
 27 22  1  0  0  0  0
 27 25  1  1  0  0  0
 28 20  1  0  0  0  0
 29 19  1  0  0  0  0
 31 30  1  0  0  0  0
 32 31  1  0  0  0  0
 32 33  1  0  0  0  0
 34 36  1  0  0  0  0
 34 38  2  0  0  0  0
 35 37  1  0  0  0  0
 35 40  1  1  0  0  0
 36 39  1  0  0  0  0
 38 35  1  0  0  0  0
 39 33  1  1  0  0  0
 39 37  1  0  0  0  0
 40 41  1  0  0  0  0
 40 42  1  1  0  0  0
 43 39  1  0  0  0  0
 43 47  1  0  0  0  0
 45 44  2  0  0  0  0
 46 49  1  0  0  0  0
 47 48  2  0  0  0  0
 47 49  1  0  0  0  0
 48 45  1  0  0  0  0
 49 50  2  0  0  0  0
 50 44  1  0  0  0  0
 50 51  1  0  0  0  0
 51 55  1  0  0  0  0
 54 55  1  0  0  0  0
 55 52  1  0  0  0  0
 55 53  1  0  0  0  0
M  END
>  <MODEL>
4

>  <REMARK>
 VINA RESULT:      -6.0      2.629      5.761
  Name = 
  20 active torsions:
  status: ('A' for Active; 'I' for Inactive)
    1  A    between atoms: C_2  and  C_28
    2  A    between atoms: C_2  and  N_44
    3  A    between atoms: C_6  and  C_46
    4  A    between atoms: N_8  and  N_22
    5  A    between atoms: C_10  and  C_32
    6  A    between atoms: C_17  and  S_36
    7  A    between atoms: O_19  and  C_40
    8  A    between atoms: O_19  and  C_45
    9  A    between atoms: N_22  and  C_35
   10  A    between atoms: N_22  and  C_46
   11  A    between atoms: C_24  and  C_31
   12  A    between atoms: C_27  and  C_31
   13  A    between atoms: C_27  and  C_54
   14  A    between atoms: C_28  and  C_49
   15  A    between atoms: C_33  and  C_49
   16  A    between atoms: C_33  and  C_52
   17  A    between atoms: C_35  and  C_43
   18  A    between atoms: S_36  and  C_52
   19  A    between atoms: C_43  and  C_51
   20  A    between atoms: C_51  and  C_54
                            x       y       z     vdW  Elec       q    Type
                         _______ _______ _______ _____ _____    ______ ____

>  <TORSDO>
F 20

$$$$
=
 OpenBabel11052415003D

 55 58  0  0  1  0  0  0  0  0999 V2000
  183.6860  178.8700  144.3680 C   0  0  0  0  0  0  0  0  0  0  0  0
  181.7880  179.0180  142.7450 C   0  0  0  0  0  1  0  0  0  0  0  0
  183.1910  178.7600  143.0240 N   0  0  0  0  0  0  0  0  0  0  0  0
  182.8810  179.0130  145.3280 O   0  0  0  0  0  0  0  0  0  0  0  0
  185.1510  178.8210  144.6540 C   0  0  0  0  0  2  0  0  0  0  0  0
  185.3820  178.3760  146.0850 C   0  0  0  0  0  2  0  0  0  0  0  0
  186.3740  179.2920  146.7850 C   0  0  0  0  0  2  0  0  0  0  0  0
  187.0370  178.5650  147.9420 C   0  0  0  0  0  2  0  0  0  0  0  0
  187.9580  177.4740  147.4160 C   0  0  0  0  0  2  0  0  0  0  0  0
  189.2570  178.0720  146.9030 C   0  0  0  0  0  2  0  0  0  0  0  0
  190.1210  177.0360  146.3490 N   0  0  0  0  0  0  0  0  0  0  0  0
  193.1840  176.3460  148.1920 O   0  0  0  0  0  1  0  0  0  0  0  0
  191.4060  177.1530  146.9280 N   0  0  0  0  0  2  0  0  0  0  0  0
  192.0830  176.1050  147.6410 C   0  0  0  0  0  0  0  0  0  0  0  0
  191.5380  174.8230  147.7320 O   0  0  0  0  0  0  0  0  0  0  0  0
  190.2330  177.2520  144.9070 C   0  0  0  0  0  2  0  0  0  0  0  0
  190.9800  176.4340  142.0230 N   0  0  0  0  0  0  0  0  0  0  0  0
  187.5780  177.3460  144.1570 F   0  0  0  0  0  0  0  0  0  0  0  0
  189.6280  176.0820  144.1290 C   0  0  1  0  0  3  0  0  0  0  0  0
  189.0620  178.9670  139.9350 C   0  0  0  0  0  2  0  0  0  0  0  0
  187.5550  175.2590  143.3400 F   0  0  0  0  0  0  0  0  0  0  0  0
  188.3030  176.4210  143.4120 C   0  0  0  0  0  0  0  0  0  0  0  0
  192.2000  177.1360  142.3950 C   0  0  0  0  0  1  0  0  0  0  0  0
  187.6700  178.3740  140.1010 C   0  0  0  0  0  2  0  0  0  0  0  0
  187.4620  177.9420  141.5470 C   0  0  0  0  0  2  0  0  0  0  0  0
  189.9540  177.4540  141.7380 C   0  0  2  0  0  3  0  0  0  0  0  0
  188.5260  176.9210  141.9690 C   0  0  1  0  0  3  0  0  0  0  0  0
  190.1120  177.9220  140.2880 C   0  0  0  0  0  2  0  0  0  0  0  0
  190.6510  175.5190  143.1350 C   0  0  0  0  0  2  0  0  0  0  0  0
  184.0710  178.4620  141.9050 C   0  0  0  0  0  2  0  0  0  0  0  0
  183.2850  177.8030  140.7840 C   0  0  0  0  0  2  0  0  0  0  0  0
  183.4690  178.5430  139.4730 C   0  0  0  0  0  2  0  0  0  0  0  0
  184.3720  177.7520  138.5310 C   0  0  0  0  0  2  0  0  0  0  0  0
  182.8610  174.3940  137.4260 C   0  0  0  0  0  3  0  0  0  0  0  0
  181.2960  176.1450  136.8400 C   0  0  1  0  0  3  0  0  0  0  0  0
  183.9060  175.3690  137.9180 C   0  0  0  0  0  2  0  0  0  0  0  0
  182.0950  177.0890  137.7460 C   0  0  0  0  0  2  0  0  0  0  0  0
  181.6990  174.7600  136.9990 N   0  0  0  0  0  0  0  0  0  0  0  0
  183.5950  176.8340  137.5820 C   0  0  1  0  0  0  0  0  0  0  0  0
  179.7850  176.2890  137.0000 C   0  0  1  0  0  3  0  0  0  0  0  0
  179.3300  175.6890  138.2430 N   0  0  0  0  0  1  0  0  0  0  0  0
  179.3680  177.7480  136.9430 C   0  0  0  0  0  1  0  0  0  0  0  0
  184.0710  177.1950  135.8380 S   0  0  0  0  0  0  0  0  0  0  0  0
  188.6350  176.8710  136.2040 C   0  0  0  0  0  3  0  0  0  0  0  0
  187.9880  178.0660  136.5150 C   0  0  0  0  0  3  0  0  0  0  0  0
  185.7910  174.7650  135.2500 F   0  0  0  0  0  0  0  0  0  0  0  0
  185.8490  177.0330  136.0160 C   0  0  0  0  0  0  0  0  0  0  0  0
  186.5950  178.1450  136.4210 C   0  0  0  0  0  3  0  0  0  0  0  0
  186.5040  175.8350  135.6900 C   0  0  0  0  0  0  0  0  0  0  0  0
  187.8990  175.7460  135.7940 C   0  0  0  0  0  0  0  0  0  0  0  0
  188.5240  174.5260  135.4880 O   0  0  0  0  0  0  0  0  0  0  0  0
  188.1720  172.6200  136.9000 C   0  0  0  0  0  1  0  0  0  0  0  0
  189.5750  174.3990  137.5420 F   0  0  0  0  0  0  0  0  0  0  0  0
  190.3480  172.9720  135.8090 C   0  0  0  0  0  1  0  0  0  0  0  0
  189.1600  173.6710  136.4420 C   0  0  0  0  0  0  0  0  0  0  0  0
  1  5  1  0  0  0  0
  1  4  2  0  0  0  0
  2  3  1  0  0  0  0
  3  1  1  0  0  0  0
  5  6  1  0  0  0  0
  6  7  1  0  0  0  0
  7  8  1  0  0  0  0
  9  8  1  0  0  0  0
 10  9  1  0  0  0  0
 11 10  1  0  0  0  0
 11 13  1  0  0  0  0
 13 14  1  0  0  0  0
 14 15  2  0  0  0  0
 14 12  1  0  0  0  0
 16 11  1  0  0  0  0
 17 23  1  0  0  0  0
 17 29  1  0  0  0  0
 19 16  1  6  0  0  0
 20 24  1  0  0  0  0
 20 28  1  0  0  0  0
 21 22  1  0  0  0  0
 22 19  1  0  0  0  0
 22 18  1  0  0  0  0
 24 25  1  0  0  0  0
 26 28  1  6  0  0  0
 26 27  1  0  0  0  0
 26 17  1  0  0  0  0
 27 25  1  1  0  0  0
 27 22  1  0  0  0  0
 29 19  1  0  0  0  0
 30  3  1  0  0  0  0
 31 30  1  0  0  0  0
 32 31  1  0  0  0  0
 33 32  1  0  0  0  0
 34 36  1  0  0  0  0
 35 38  1  0  0  0  0
 35 40  1  1  0  0  0
 35 37  1  0  0  0  0
 38 34  2  0  0  0  0
 39 37  1  0  0  0  0
 39 36  1  0  0  0  0
 39 33  1  1  0  0  0
 40 42  1  1  0  0  0
 40 41  1  0  0  0  0
 43 47  1  0  0  0  0
 43 39  1  0  0  0  0
 44 45  1  0  0  0  0
 46 49  1  0  0  0  0
 47 48  1  0  0  0  0
 48 45  2  0  0  0  0
 49 50  1  0  0  0  0
 49 47  2  0  0  0  0
 50 44  2  0  0  0  0
 51 50  1  0  0  0  0
 51 55  1  0  0  0  0
 54 55  1  0  0  0  0
 55 52  1  0  0  0  0
 55 53  1  0  0  0  0
M  END
>  <MODEL>
5

>  <REMARK>
 VINA RESULT:      -5.9      1.482      2.138
  Name = 
  20 active torsions:
  status: ('A' for Active; 'I' for Inactive)
    1  A    between atoms: C_2  and  C_28
    2  A    between atoms: C_2  and  N_44
    3  A    between atoms: C_6  and  C_46
    4  A    between atoms: N_8  and  N_22
    5  A    between atoms: C_10  and  C_32
    6  A    between atoms: C_17  and  S_36
    7  A    between atoms: O_19  and  C_40
    8  A    between atoms: O_19  and  C_45
    9  A    between atoms: N_22  and  C_35
   10  A    between atoms: N_22  and  C_46
   11  A    between atoms: C_24  and  C_31
   12  A    between atoms: C_27  and  C_31
   13  A    between atoms: C_27  and  C_54
   14  A    between atoms: C_28  and  C_49
   15  A    between atoms: C_33  and  C_49
   16  A    between atoms: C_33  and  C_52
   17  A    between atoms: C_35  and  C_43
   18  A    between atoms: S_36  and  C_52
   19  A    between atoms: C_43  and  C_51
   20  A    between atoms: C_51  and  C_54
                            x       y       z     vdW  Elec       q    Type
                         _______ _______ _______ _____ _____    ______ ____

>  <TORSDO>
F 20

$$$$
=
 OpenBabel11052415003D

 55 58  0  0  1  0  0  0  0  0999 V2000
  183.9280  179.1300  144.3270 C   0  0  0  0  0  0  0  0  0  0  0  0
  182.1110  178.9760  142.6150 C   0  0  0  0  0  1  0  0  0  0  0  0
  183.5200  178.9190  142.9660 N   0  0  0  0  0  0  0  0  0  0  0  0
  183.0640  179.1860  145.2440 O   0  0  0  0  0  0  0  0  0  0  0  0
  185.3700  179.2890  144.6820 C   0  0  0  0  0  2  0  0  0  0  0  0
  185.6990  178.4420  145.8950 C   0  0  0  0  0  2  0  0  0  0  0  0
  186.1630  179.3100  147.0540 C   0  0  0  0  0  2  0  0  0  0  0  0
  186.8160  178.4540  148.1260 C   0  0  0  0  0  2  0  0  0  0  0  0
  187.6540  177.3590  147.4810 C   0  0  0  0  0  2  0  0  0  0  0  0
  189.0540  177.8640  147.1800 C   0  0  0  0  0  2  0  0  0  0  0  0
  189.9380  176.7590  146.8280 N   0  0  0  0  0  0  0  0  0  0  0  0
  193.1700  176.1800  148.4010 O   0  0  0  0  0  1  0  0  0  0  0  0
  191.1890  176.9530  147.4590 N   0  0  0  0  0  2  0  0  0  0  0  0
  192.1280  175.9070  147.7570 C   0  0  0  0  0  0  0  0  0  0  0  0
  191.9040  174.5930  147.3440 O   0  0  0  0  0  0  0  0  0  0  0  0
  190.1350  176.7710  145.3790 C   0  0  0  0  0  2  0  0  0  0  0  0
  188.5130  177.8590  142.9850 N   0  0  0  0  0  0  0  0  0  0  0  0
  192.4490  177.6890  144.1840 F   0  0  0  0  0  0  0  0  0  0  0  0
  190.1910  178.2030  144.8440 C   0  0  1  0  0  3  0  0  0  0  0  0
  190.4770  176.5460  140.0060 C   0  0  0  0  0  2  0  0  0  0  0  0
  191.7030  179.7900  143.9540 F   0  0  0  0  0  0  0  0  0  0  0  0
  191.3400  178.4590  143.8460 C   0  0  0  0  0  0  0  0  0  0  0  0
  187.6590  176.7420  143.3640 C   0  0  0  0  0  1  0  0  0  0  0  0
  191.6520  177.5110  140.0790 C   0  0  0  0  0  2  0  0  0  0  0  0
  192.0810  177.6920  141.5290 C   0  0  0  0  0  2  0  0  0  0  0  0
  189.6760  177.3020  142.2690 C   0  0  2  0  0  3  0  0  0  0  0  0
  190.9160  178.2100  142.3820 C   0  0  1  0  0  3  0  0  0  0  0  0
  189.3020  177.1050  140.7970 C   0  0  0  0  0  2  0  0  0  0  0  0
  188.8420  178.5910  144.2250 C   0  0  0  0  0  2  0  0  0  0  0  0
  184.4870  178.7160  141.8990 C   0  0  0  0  0  2  0  0  0  0  0  0
  183.8770  177.8650  140.7980 C   0  0  0  0  0  2  0  0  0  0  0  0
  184.0030  178.5410  139.4460 C   0  0  0  0  0  2  0  0  0  0  0  0
  184.9110  177.7330  138.5230 C   0  0  0  0  0  2  0  0  0  0  0  0
  183.2380  174.7020  136.8510 C   0  0  0  0  0  3  0  0  0  0  0  0
  181.8750  176.6500  136.3970 C   0  0  1  0  0  3  0  0  0  0  0  0
  184.3110  175.5050  137.5510 C   0  0  0  0  0  2  0  0  0  0  0  0
  182.6650  177.3900  137.4840 C   0  0  0  0  0  2  0  0  0  0  0  0
  182.1500  175.2260  136.3920 N   0  0  0  0  0  0  0  0  0  0  0  0
  184.1480  177.0240  137.3990 C   0  0  1  0  0  0  0  0  0  0  0  0
  180.3720  176.9090  136.4610 C   0  0  1  0  0  3  0  0  0  0  0  0
  179.6220  175.7430  136.0270 N   0  0  0  0  0  1  0  0  0  0  0  0
  179.9470  177.3100  137.8620 C   0  0  0  0  0  1  0  0  0  0  0  0
  184.8020  177.5660  135.7630 S   0  0  0  0  0  0  0  0  0  0  0  0
  189.3050  177.3660  136.6310 C   0  0  0  0  0  3  0  0  0  0  0  0
  188.5690  178.4940  136.9920 C   0  0  0  0  0  3  0  0  0  0  0  0
  186.6950  175.2830  135.1210 F   0  0  0  0  0  0  0  0  0  0  0  0
  186.5540  177.4490  136.1330 C   0  0  0  0  0  0  0  0  0  0  0  0
  187.1940  178.5330  136.7420 C   0  0  0  0  0  3  0  0  0  0  0  0
  187.2990  176.3200  135.7570 C   0  0  0  0  0  0  0  0  0  0  0  0
  188.6770  176.2700  136.0160 C   0  0  0  0  0  0  0  0  0  0  0  0
  189.3910  175.1160  135.6550 O   0  0  0  0  0  0  0  0  0  0  0  0
  190.8080  174.0620  137.2770 C   0  0  0  0  0  1  0  0  0  0  0  0
  191.4380  176.0490  136.1810 F   0  0  0  0  0  0  0  0  0  0  0  0
  191.4250  174.0520  134.8960 C   0  0  0  0  0  1  0  0  0  0  0  0
  190.7570  174.8600  135.9920 C   0  0  0  0  0  0  0  0  0  0  0  0
  1  5  1  0  0  0  0
  1  4  2  0  0  0  0
  2  3  1  0  0  0  0
  3  1  1  0  0  0  0
  5  6  1  0  0  0  0
  6  7  1  0  0  0  0
  7  8  1  0  0  0  0
  9  8  1  0  0  0  0
 10  9  1  0  0  0  0
 11 10  1  0  0  0  0
 11 13  1  0  0  0  0
 13 14  1  0  0  0  0
 14 12  1  0  0  0  0
 15 14  2  0  0  0  0
 16 11  1  0  0  0  0
 17 23  1  0  0  0  0
 17 29  1  0  0  0  0
 19 16  1  6  0  0  0
 20 24  1  0  0  0  0
 20 28  1  0  0  0  0
 22 21  1  0  0  0  0
 22 18  1  0  0  0  0
 22 19  1  0  0  0  0
 24 25  1  0  0  0  0
 26 28  1  6  0  0  0
 26 27  1  0  0  0  0
 26 17  1  0  0  0  0
 27 25  1  6  0  0  0
 27 22  1  0  0  0  0
 29 19  1  0  0  0  0
 30  3  1  0  0  0  0
 31 30  1  0  0  0  0
 32 31  1  0  0  0  0
 33 32  1  0  0  0  0
 34 36  1  0  0  0  0
 35 40  1  1  0  0  0
 35 37  1  0  0  0  0
 38 35  1  0  0  0  0
 38 34  2  0  0  0  0
 39 37  1  0  0  0  0
 39 36  1  0  0  0  0
 39 33  1  1  0  0  0
 40 42  1  1  0  0  0
 41 40  1  0  0  0  0
 43 47  1  0  0  0  0
 43 39  1  0  0  0  0
 44 45  1  0  0  0  0
 46 49  1  0  0  0  0
 47 48  1  0  0  0  0
 48 45  2  0  0  0  0
 49 50  1  0  0  0  0
 49 47  2  0  0  0  0
 50 44  2  0  0  0  0
 51 55  1  0  0  0  0
 51 50  1  0  0  0  0
 54 55  1  0  0  0  0
 55 53  1  0  0  0  0
 55 52  1  0  0  0  0
M  END
>  <MODEL>
6

>  <REMARK>
 VINA RESULT:      -5.7      1.949      2.768
  Name = 
  20 active torsions:
  status: ('A' for Active; 'I' for Inactive)
    1  A    between atoms: C_2  and  C_28
    2  A    between atoms: C_2  and  N_44
    3  A    between atoms: C_6  and  C_46
    4  A    between atoms: N_8  and  N_22
    5  A    between atoms: C_10  and  C_32
    6  A    between atoms: C_17  and  S_36
    7  A    between atoms: O_19  and  C_40
    8  A    between atoms: O_19  and  C_45
    9  A    between atoms: N_22  and  C_35
   10  A    between atoms: N_22  and  C_46
   11  A    between atoms: C_24  and  C_31
   12  A    between atoms: C_27  and  C_31
   13  A    between atoms: C_27  and  C_54
   14  A    between atoms: C_28  and  C_49
   15  A    between atoms: C_33  and  C_49
   16  A    between atoms: C_33  and  C_52
   17  A    between atoms: C_35  and  C_43
   18  A    between atoms: S_36  and  C_52
   19  A    between atoms: C_43  and  C_51
   20  A    between atoms: C_51  and  C_54
                            x       y       z     vdW  Elec       q    Type
                         _______ _______ _______ _____ _____    ______ ____

>  <TORSDO>
F 20

$$$$
=
 OpenBabel11052415003D

 55 58  0  0  1  0  0  0  0  0999 V2000
  183.1390  178.8930  143.2460 C   0  0  0  0  0  0  0  0  0  0  0  0
  185.3750  178.6380  144.3380 C   0  0  0  0  0  1  0  0  0  0  0  0
  184.5410  178.5950  143.1490 N   0  0  0  0  0  0  0  0  0  0  0  0
  182.6650  179.3630  144.3170 O   0  0  0  0  0  0  0  0  0  0  0  0
  182.2200  178.6520  142.0930 C   0  0  0  0  0  2  0  0  0  0  0  0
  180.8280  179.1460  142.4320 C   0  0  0  0  0  2  0  0  0  0  0  0
  179.8140  178.6570  141.4100 C   0  0  0  0  0  2  0  0  0  0  0  0
  179.5170  177.1830  141.6260 C   0  0  0  0  0  2  0  0  0  0  0  0
  179.1670  176.5210  140.3010 C   0  0  0  0  0  2  0  0  0  0  0  0
  180.1290  175.3850  139.9990 C   0  0  0  0  0  2  0  0  0  0  0  0
  180.1070  175.0510  138.5800 N   0  0  0  0  0  0  0  0  0  0  0  0
  179.5280  171.7100  137.2530 O   0  0  0  0  0  1  0  0  0  0  0  0
  180.0320  173.6460  138.4410 N   0  0  0  0  0  2  0  0  0  0  0  0
  179.6480  172.9590  137.2380 C   0  0  0  0  0  0  0  0  0  0  0  0
  179.4070  173.6560  136.0540 O   0  0  0  0  0  0  0  0  0  0  0  0
  181.3550  175.5170  137.9770 C   0  0  0  0  0  2  0  0  0  0  0  0
  182.3690  177.0460  135.4910 N   0  0  0  0  0  0  0  0  0  0  0  0
  182.9880  177.0800  139.5620 F   0  0  0  0  0  0  0  0  0  0  0  0
  181.3450  177.0370  137.8020 C   0  0  1  0  0  3  0  0  0  0  0  0
  186.1370  177.0120  135.9940 C   0  0  0  0  0  2  0  0  0  0  0  0
  182.1690  179.0200  138.7940 F   0  0  0  0  0  0  0  0  0  0  0  0
  182.5680  177.7500  138.4170 C   0  0  0  0  0  0  0  0  0  0  0  0
  182.0840  175.7570  134.8780 C   0  0  0  0  0  1  0  0  0  0  0  0
  186.2180  178.0650  137.0910 C   0  0  0  0  0  2  0  0  0  0  0  0
  185.0960  177.8490  138.0980 C   0  0  0  0  0  2  0  0  0  0  0  0
  183.6340  176.9100  136.2360 C   0  0  2  0  0  3  0  0  0  0  0  0
  183.7270  177.9070  137.4080 C   0  0  1  0  0  3  0  0  0  0  0  0
  184.8020  177.1260  135.2700 C   0  0  0  0  0  2  0  0  0  0  0  0
  181.1980  177.3990  136.3190 C   0  0  0  0  0  2  0  0  0  0  0  0
  185.1510  178.1790  141.8960 C   0  0  0  0  0  2  0  0  0  0  0  0
  186.6650  178.2250  142.0120 C   0  0  0  0  0  2  0  0  0  0  0  0
  187.3040  178.6680  140.7110 C   0  0  0  0  0  2  0  0  0  0  0  0
  188.8260  178.6610  140.8290 C   0  0  0  0  0  2  0  0  0  0  0  0
  189.3790  175.9810  138.1280 C   0  0  0  0  0  3  0  0  0  0  0  0
  191.5230  176.4810  139.1330 C   0  0  1  0  0  3  0  0  0  0  0  0
  188.6230  176.8820  139.0780 C   0  0  0  0  0  2  0  0  0  0  0  0
  190.8800  177.7230  139.7600 C   0  0  0  0  0  2  0  0  0  0  0  0
  190.6640  175.8570  138.1440 N   0  0  0  0  0  0  0  0  0  0  0  0
  189.4680  177.3950  140.2520 C   0  0  1  0  0  0  0  0  0  0  0  0
  192.9100  176.7460  138.5540 C   0  0  1  0  0  3  0  0  0  0  0  0
  193.9240  176.7260  139.5950 N   0  0  0  0  0  1  0  0  0  0  0  0
  193.2520  175.7340  137.4750 C   0  0  0  0  0  1  0  0  0  0  0  0
  189.5800  176.1010  141.5600 S   0  0  0  0  0  0  0  0  0  0  0  0
  190.8670  178.7360  145.0910 C   0  0  0  0  0  3  0  0  0  0  0  0
  191.6710  178.6390  143.9560 C   0  0  0  0  0  3  0  0  0  0  0  0
  188.0840  176.5390  144.1630 F   0  0  0  0  0  0  0  0  0  0  0  0
  190.0430  177.1590  142.9330 C   0  0  0  0  0  0  0  0  0  0  0  0
  191.2570  177.8510  142.8780 C   0  0  0  0  0  3  0  0  0  0  0  0
  189.2410  177.2460  144.0820 C   0  0  0  0  0  0  0  0  0  0  0  0
  189.6450  178.0450  145.1620 C   0  0  0  0  0  0  0  0  0  0  0  0
  188.8090  178.1350  146.2870 O   0  0  0  0  0  0  0  0  0  0  0  0
  187.9120  177.5960  148.4440 C   0  0  0  0  0  1  0  0  0  0  0  0
  190.0070  178.6420  148.1960 F   0  0  0  0  0  0  0  0  0  0  0  0
  189.8450  176.3600  147.5600 C   0  0  0  0  0  1  0  0  0  0  0  0
  189.1660  177.7150  147.6070 C   0  0  0  0  0  0  0  0  0  0  0  0
  1  4  2  0  0  0  0
  3  1  1  0  0  0  0
  3  2  1  0  0  0  0
  5  6  1  0  0  0  0
  5  1  1  0  0  0  0
  7  8  1  0  0  0  0
  7  6  1  0  0  0  0
  9  8  1  0  0  0  0
 10  9  1  0  0  0  0
 11 10  1  0  0  0  0
 13 11  1  0  0  0  0
 14 12  1  0  0  0  0
 14 13  1  0  0  0  0
 15 14  2  0  0  0  0
 16 11  1  0  0  0  0
 17 26  1  0  0  0  0
 17 29  1  0  0  0  0
 19 16  1  6  0  0  0
 19 22  1  0  0  0  0
 20 24  1  0  0  0  0
 22 21  1  0  0  0  0
 22 18  1  0  0  0  0
 23 17  1  0  0  0  0
 24 25  1  0  0  0  0
 26 28  1  6  0  0  0
 26 27  1  0  0  0  0
 27 25  1  1  0  0  0
 27 22  1  0  0  0  0
 28 20  1  0  0  0  0
 29 19  1  0  0  0  0
 30 31  1  0  0  0  0
 30  3  1  0  0  0  0
 32 33  1  0  0  0  0
 32 31  1  0  0  0  0
 34 38  2  0  0  0  0
 34 36  1  0  0  0  0
 35 40  1  6  0  0  0
 35 37  1  0  0  0  0
 36 39  1  0  0  0  0
 37 39  1  0  0  0  0
 38 35  1  0  0  0  0
 39 33  1  1  0  0  0
 39 43  1  0  0  0  0
 40 42  1  6  0  0  0
 40 41  1  0  0  0  0
 43 47  1  0  0  0  0
 44 50  1  0  0  0  0
 45 44  2  0  0  0  0
 47 49  1  0  0  0  0
 48 47  2  0  0  0  0
 48 45  1  0  0  0  0
 49 46  1  0  0  0  0
 49 50  2  0  0  0  0
 50 51  1  0  0  0  0
 51 55  1  0  0  0  0
 54 55  1  0  0  0  0
 55 53  1  0  0  0  0
 55 52  1  0  0  0  0
M  END
>  <MODEL>
7

>  <REMARK>
 VINA RESULT:      -5.6      3.139      9.712
  Name = 
  20 active torsions:
  status: ('A' for Active; 'I' for Inactive)
    1  A    between atoms: C_2  and  C_28
    2  A    between atoms: C_2  and  N_44
    3  A    between atoms: C_6  and  C_46
    4  A    between atoms: N_8  and  N_22
    5  A    between atoms: C_10  and  C_32
    6  A    between atoms: C_17  and  S_36
    7  A    between atoms: O_19  and  C_40
    8  A    between atoms: O_19  and  C_45
    9  A    between atoms: N_22  and  C_35
   10  A    between atoms: N_22  and  C_46
   11  A    between atoms: C_24  and  C_31
   12  A    between atoms: C_27  and  C_31
   13  A    between atoms: C_27  and  C_54
   14  A    between atoms: C_28  and  C_49
   15  A    between atoms: C_33  and  C_49
   16  A    between atoms: C_33  and  C_52
   17  A    between atoms: C_35  and  C_43
   18  A    between atoms: S_36  and  C_52
   19  A    between atoms: C_43  and  C_51
   20  A    between atoms: C_51  and  C_54
                            x       y       z     vdW  Elec       q    Type
                         _______ _______ _______ _____ _____    ______ ____

>  <TORSDO>
F 20

$$$$
=
 OpenBabel11052415003D

 55 58  0  0  1  0  0  0  0  0999 V2000
  188.2640  177.7230  146.7120 C   0  0  0  0  0  0  0  0  0  0  0  0
  190.5110  176.8270  147.3460 C   0  0  0  0  0  1  0  0  0  0  0  0
  189.5170  177.1320  146.3320 N   0  0  0  0  0  0  0  0  0  0  0  0
  188.0940  178.1410  147.8900 O   0  0  0  0  0  0  0  0  0  0  0  0
  187.1450  177.8520  145.7310 C   0  0  0  0  0  2  0  0  0  0  0  0
  186.0390  178.7060  146.3190 C   0  0  0  0  0  2  0  0  0  0  0  0
  184.6720  178.1320  145.9830 C   0  0  0  0  0  2  0  0  0  0  0  0
  183.8250  179.1690  145.2670 C   0  0  0  0  0  2  0  0  0  0  0  0
  184.3530  179.3910  143.8570 C   0  0  0  0  0  2  0  0  0  0  0  0
  183.7880  178.3520  142.9040 C   0  0  0  0  0  2  0  0  0  0  0  0
  182.5550  178.8300  142.2890 N   0  0  0  0  0  0  0  0  0  0  0  0
  179.4550  178.7070  144.1940 O   0  0  0  0  0  1  0  0  0  0  0  0
  181.4550  178.3770  143.0530 N   0  0  0  0  0  2  0  0  0  0  0  0
  180.3330  179.1890  143.4380 C   0  0  0  0  0  0  0  0  0  0  0  0
  180.2030  180.5030  142.9880 O   0  0  0  0  0  0  0  0  0  0  0  0
  182.4600  178.2630  140.9440 C   0  0  0  0  0  2  0  0  0  0  0  0
  180.0410  177.5400  139.1630 N   0  0  0  0  0  0  0  0  0  0  0  0
  183.7760  179.2150  138.7130 F   0  0  0  0  0  0  0  0  0  0  0  0
  181.7380  179.2200  139.9950 C   0  0  1  0  0  3  0  0  0  0  0  0
  181.6840  175.7130  136.2610 C   0  0  0  0  0  2  0  0  0  0  0  0
  182.1250  180.6090  138.1190 F   0  0  0  0  0  0  0  0  0  0  0  0
  182.3950  179.3410  138.6030 C   0  0  0  0  0  0  0  0  0  0  0  0
  179.8970  176.5160  140.1880 C   0  0  0  0  0  1  0  0  0  0  0  0
  182.2730  176.9230  135.5500 C   0  0  0  0  0  2  0  0  0  0  0  0
  182.8780  177.8780  136.5710 C   0  0  0  0  0  2  0  0  0  0  0  0
  181.1420  177.1230  138.2750 C   0  0  2  0  0  3  0  0  0  0  0  0
  181.8220  178.3250  137.5910 C   0  0  1  0  0  3  0  0  0  0  0  0
  180.5870  176.1630  137.2180 C   0  0  0  0  0  2  0  0  0  0  0  0
  180.2620  178.8220  139.8620 C   0  0  0  0  0  2  0  0  0  0  0  0
  189.8010  176.7590  144.9550 C   0  0  0  0  0  2  0  0  0  0  0  0
  190.5000  177.9030  144.2390 C   0  0  0  0  0  2  0  0  0  0  0  0
  189.5090  178.7670  143.4840 C   0  0  0  0  0  2  0  0  0  0  0  0
  189.9370  178.9290  142.0280 C   0  0  0  0  0  2  0  0  0  0  0  0
  186.5160  178.3190  140.3840 C   0  0  0  0  0  3  0  0  0  0  0  0
  188.2030  178.2200  138.6530 C   0  0  1  0  0  3  0  0  0  0  0  0
  187.5330  178.4800  141.4900 C   0  0  0  0  0  2  0  0  0  0  0  0
  189.1850  178.8500  139.6470 C   0  0  0  0  0  2  0  0  0  0  0  0
  186.8350  178.2530  139.1350 N   0  0  0  0  0  0  0  0  0  0  0  0
  188.9820  178.2510  141.0400 C   0  0  1  0  0  0  0  0  0  0  0  0
  188.2950  178.8180  137.2510 C   0  0  1  0  0  3  0  0  0  0  0  0
  189.2840  178.1170  136.4480 N   0  0  0  0  0  1  0  0  0  0  0  0
  186.9460  178.7890  136.5560 C   0  0  0  0  0  1  0  0  0  0  0  0
  189.3390  176.4440  140.9680 S   0  0  0  0  0  0  0  0  0  0  0  0
  193.2240  176.7620  138.5440 C   0  0  0  0  0  3  0  0  0  0  0  0
  193.1550  177.2860  139.8340 C   0  0  0  0  0  3  0  0  0  0  0  0
  189.8360  175.4180  138.1560 F   0  0  0  0  0  0  0  0  0  0  0  0
  190.8610  176.5180  140.0200 C   0  0  0  0  0  0  0  0  0  0  0  0
  191.9730  177.1630  140.5700 C   0  0  0  0  0  3  0  0  0  0  0  0
  190.9270  176.0030  138.7160 C   0  0  0  0  0  0  0  0  0  0  0  0
  192.1140  176.1120  137.9770 C   0  0  0  0  0  0  0  0  0  0  0  0
  192.1600  175.5620  136.6850 O   0  0  0  0  0  0  0  0  0  0  0  0
  191.4000  173.3610  136.1110 C   0  0  0  0  0  1  0  0  0  0  0  0
  193.3160  173.7080  137.4350 F   0  0  0  0  0  0  0  0  0  0  0  0
  193.4700  174.2560  135.1300 C   0  0  0  0  0  1  0  0  0  0  0  0
  192.6040  174.2390  136.3750 C   0  0  0  0  0  0  0  0  0  0  0  0
  1  4  2  0  0  0  0
  3  1  1  0  0  0  0
  3  2  1  0  0  0  0
  5  6  1  0  0  0  0
  5  1  1  0  0  0  0
  7  6  1  0  0  0  0
  8  7  1  0  0  0  0
  9  8  1  0  0  0  0
 10  9  1  0  0  0  0
 11 10  1  0  0  0  0
 11 13  1  0  0  0  0
 13 14  1  0  0  0  0
 14 12  1  0  0  0  0
 15 14  2  0  0  0  0
 16 11  1  0  0  0  0
 17 29  1  0  0  0  0
 17 23  1  0  0  0  0
 19 16  1  1  0  0  0
 20 28  1  0  0  0  0
 21 22  1  0  0  0  0
 22 18  1  0  0  0  0
 22 19  1  0  0  0  0
 24 20  1  0  0  0  0
 24 25  1  0  0  0  0
 26 28  1  6  0  0  0
 26 17  1  0  0  0  0
 27 25  1  1  0  0  0
 27 26  1  0  0  0  0
 27 22  1  0  0  0  0
 29 19  1  0  0  0  0
 30  3  1  0  0  0  0
 31 30  1  0  0  0  0
 32 31  1  0  0  0  0
 33 32  1  0  0  0  0
 34 36  1  0  0  0  0
 35 40  1  6  0  0  0
 35 38  1  0  0  0  0
 35 37  1  0  0  0  0
 37 39  1  0  0  0  0
 38 34  2  0  0  0  0
 39 36  1  0  0  0  0
 39 33  1  1  0  0  0
 40 42  1  6  0  0  0
 41 40  1  0  0  0  0
 43 39  1  0  0  0  0
 44 45  1  0  0  0  0
 45 48  2  0  0  0  0
 46 49  1  0  0  0  0
 47 48  1  0  0  0  0
 47 43  1  0  0  0  0
 49 47  2  0  0  0  0
 50 44  2  0  0  0  0
 50 49  1  0  0  0  0
 51 50  1  0  0  0  0
 52 55  1  0  0  0  0
 54 55  1  0  0  0  0
 55 51  1  0  0  0  0
 55 53  1  0  0  0  0
M  END
>  <MODEL>
8

>  <REMARK>
 VINA RESULT:      -5.6      2.908      7.849
  Name = 
  20 active torsions:
  status: ('A' for Active; 'I' for Inactive)
    1  A    between atoms: C_2  and  C_28
    2  A    between atoms: C_2  and  N_44
    3  A    between atoms: C_6  and  C_46
    4  A    between atoms: N_8  and  N_22
    5  A    between atoms: C_10  and  C_32
    6  A    between atoms: C_17  and  S_36
    7  A    between atoms: O_19  and  C_40
    8  A    between atoms: O_19  and  C_45
    9  A    between atoms: N_22  and  C_35
   10  A    between atoms: N_22  and  C_46
   11  A    between atoms: C_24  and  C_31
   12  A    between atoms: C_27  and  C_31
   13  A    between atoms: C_27  and  C_54
   14  A    between atoms: C_28  and  C_49
   15  A    between atoms: C_33  and  C_49
   16  A    between atoms: C_33  and  C_52
   17  A    between atoms: C_35  and  C_43
   18  A    between atoms: S_36  and  C_52
   19  A    between atoms: C_43  and  C_51
   20  A    between atoms: C_51  and  C_54
                            x       y       z     vdW  Elec       q    Type
                         _______ _______ _______ _____ _____    ______ ____

>  <TORSDO>
F 20

$$$$
=
 OpenBabel11052415003D

 55 58  0  0  1  0  0  0  0  0999 V2000
  188.1000  177.9960  141.0440 C   0  0  0  0  0  0  0  0  0  0  0  0
  189.0140  178.7490  138.8410 C   0  0  0  0  0  1  0  0  0  0  0  0
  189.1070  177.9100  140.0240 N   0  0  0  0  0  0  0  0  0  0  0  0
  187.0470  178.6590  140.8380 O   0  0  0  0  0  0  0  0  0  0  0  0
  188.2770  177.3110  142.3600 C   0  0  0  0  0  2  0  0  0  0  0  0
  187.7690  178.2000  143.4770 C   0  0  0  0  0  2  0  0  0  0  0  0
  186.4380  177.6960  144.0110 C   0  0  0  0  0  2  0  0  0  0  0  0
  185.5420  178.8640  144.3830 C   0  0  0  0  0  2  0  0  0  0  0  0
  184.0940  178.5400  144.0450 C   0  0  0  0  0  2  0  0  0  0  0  0
  183.8980  178.4710  142.5400 C   0  0  0  0  0  2  0  0  0  0  0  0
  182.6160  179.0530  142.1580 N   0  0  0  0  0  0  0  0  0  0  0  0
  179.6510  178.9020  144.2640 O   0  0  0  0  0  1  0  0  0  0  0  0
  181.6250  178.6180  143.0680 N   0  0  0  0  0  2  0  0  0  0  0  0
  180.4180  179.3370  143.3720 C   0  0  0  0  0  0  0  0  0  0  0  0
  180.0840  180.5090  142.6930 O   0  0  0  0  0  0  0  0  0  0  0  0
  182.2720  178.5700  140.8210 C   0  0  0  0  0  2  0  0  0  0  0  0
  181.9560  180.1140  138.1640 N   0  0  0  0  0  0  0  0  0  0  0  0
  183.4410  176.4890  139.4340 F   0  0  0  0  0  0  0  0  0  0  0  0
  183.3940  178.8650  139.8250 C   0  0  1  0  0  3  0  0  0  0  0  0
  180.4500  177.4840  135.8670 C   0  0  0  0  0  2  0  0  0  0  0  0
  185.0040  177.7770  138.4750 F   0  0  0  0  0  0  0  0  0  0  0  0
  183.6660  177.7200  138.8260 C   0  0  0  0  0  0  0  0  0  0  0  0
  180.8100  180.6480  138.8870 C   0  0  0  0  0  1  0  0  0  0  0  0
  181.7080  176.6610  135.6280 C   0  0  0  0  0  2  0  0  0  0  0  0
  182.4720  176.4940  136.9350 C   0  0  0  0  0  2  0  0  0  0  0  0
  181.5980  178.7570  137.7110 C   0  0  2  0  0  3  0  0  0  0  0  0
  182.8390  177.8600  137.5300 C   0  0  1  0  0  3  0  0  0  0  0  0
  180.8300  178.8630  136.3900 C   0  0  0  0  0  2  0  0  0  0  0  0
  183.1120  180.1760  139.0800 C   0  0  0  0  0  2  0  0  0  0  0  0
  190.2730  177.0520  140.1680 C   0  0  0  0  0  2  0  0  0  0  0  0
  190.5580  176.3370  138.8580 C   0  0  0  0  0  2  0  0  0  0  0  0
  192.0390  176.3600  138.5300 C   0  0  0  0  0  2  0  0  0  0  0  0
  192.4970  174.9970  138.0180 C   0  0  0  0  0  2  0  0  0  0  0  0
  194.9040  176.8460  135.6580 C   0  0  0  0  0  3  0  0  0  0  0  0
  195.8360  174.6580  136.1090 C   0  0  1  0  0  3  0  0  0  0  0  0
  193.6360  176.5630  136.4300 C   0  0  0  0  0  2  0  0  0  0  0  0
  194.8300  174.5260  137.2590 C   0  0  0  0  0  2  0  0  0  0  0  0
  195.8800  176.0040  135.5700 N   0  0  0  0  0  0  0  0  0  0  0  0
  193.4720  175.0930  136.8400 C   0  0  1  0  0  0  0  0  0  0  0  0
  197.2380  174.1760  136.4740 C   0  0  1  0  0  3  0  0  0  0  0  0
  198.0280  175.2530  137.0480 N   0  0  0  0  0  1  0  0  0  0  0  0
  197.1770  173.0040  137.4370 C   0  0  0  0  0  1  0  0  0  0  0  0
  192.8310  174.1120  135.4180 S   0  0  0  0  0  0  0  0  0  0  0  0
  188.6720  176.0480  135.2500 C   0  0  0  0  0  3  0  0  0  0  0  0
  189.7500  176.6400  134.5940 C   0  0  0  0  0  3  0  0  0  0  0  0
  190.2830  173.1010  136.7180 F   0  0  0  0  0  0  0  0  0  0  0  0
  191.1880  174.8280  135.3290 C   0  0  0  0  0  0  0  0  0  0  0  0
  191.0070  176.0280  134.6340 C   0  0  0  0  0  3  0  0  0  0  0  0
  190.1040  174.2400  136.0010 C   0  0  0  0  0  0  0  0  0  0  0  0
  188.8390  174.8430  135.9540 C   0  0  0  0  0  0  0  0  0  0  0  0
  187.7670  174.2170  136.6130 O   0  0  0  0  0  0  0  0  0  0  0  0
  187.3260  172.4400  135.0630 C   0  0  0  0  0  1  0  0  0  0  0  0
  185.9510  174.3480  135.1920 F   0  0  0  0  0  0  0  0  0  0  0  0
  185.8440  172.8030  136.9920 C   0  0  0  0  0  1  0  0  0  0  0  0
  186.7180  173.4940  135.9640 C   0  0  0  0  0  0  0  0  0  0  0  0
  1  5  1  0  0  0  0
  2  3  1  0  0  0  0
  3 30  1  0  0  0  0
  3  1  1  0  0  0  0
  4  1  2  0  0  0  0
  5  6  1  0  0  0  0
  6  7  1  0  0  0  0
  7  8  1  0  0  0  0
  9  8  1  0  0  0  0
 10  9  1  0  0  0  0
 11 10  1  0  0  0  0
 11 13  1  0  0  0  0
 13 14  1  0  0  0  0
 14 12  1  0  0  0  0
 15 14  2  0  0  0  0
 16 11  1  0  0  0  0
 17 23  1  0  0  0  0
 17 29  1  0  0  0  0
 19 16  1  6  0  0  0
 20 28  1  0  0  0  0
 21 22  1  0  0  0  0
 22 18  1  0  0  0  0
 22 19  1  0  0  0  0
 24 20  1  0  0  0  0
 24 25  1  0  0  0  0
 26 28  1  6  0  0  0
 26 17  1  0  0  0  0
 27 25  1  1  0  0  0
 27 26  1  0  0  0  0
 27 22  1  0  0  0  0
 29 19  1  0  0  0  0
 31 30  1  0  0  0  0
 32 31  1  0  0  0  0
 33 32  1  0  0  0  0
 34 36  1  0  0  0  0
 35 40  1  1  0  0  0
 35 37  1  0  0  0  0
 36 39  1  0  0  0  0
 38 34  2  0  0  0  0
 38 35  1  0  0  0  0
 39 37  1  0  0  0  0
 39 33  1  1  0  0  0
 40 41  1  0  0  0  0
 40 42  1  1  0  0  0
 43 39  1  0  0  0  0
 44 50  1  0  0  0  0
 45 48  1  0  0  0  0
 45 44  2  0  0  0  0
 47 43  1  0  0  0  0
 47 49  1  0  0  0  0
 48 47  2  0  0  0  0
 49 46  1  0  0  0  0
 50 49  2  0  0  0  0
 50 51  1  0  0  0  0
 52 55  1  0  0  0  0
 53 55  1  0  0  0  0
 55 51  1  0  0  0  0
 55 54  1  0  0  0  0
M  END
>  <MODEL>
9

>  <REMARK>
 VINA RESULT:      -5.5      3.737      9.427
  Name = 
  20 active torsions:
  status: ('A' for Active; 'I' for Inactive)
    1  A    between atoms: C_2  and  C_28
    2  A    between atoms: C_2  and  N_44
    3  A    between atoms: C_6  and  C_46
    4  A    between atoms: N_8  and  N_22
    5  A    between atoms: C_10  and  C_32
    6  A    between atoms: C_17  and  S_36
    7  A    between atoms: O_19  and  C_40
    8  A    between atoms: O_19  and  C_45
    9  A    between atoms: N_22  and  C_35
   10  A    between atoms: N_22  and  C_46
   11  A    between atoms: C_24  and  C_31
   12  A    between atoms: C_27  and  C_31
   13  A    between atoms: C_27  and  C_54
   14  A    between atoms: C_28  and  C_49
   15  A    between atoms: C_33  and  C_49
   16  A    between atoms: C_33  and  C_52
   17  A    between atoms: C_35  and  C_43
   18  A    between atoms: S_36  and  C_52
   19  A    between atoms: C_43  and  C_51
   20  A    between atoms: C_51  and  C_54
                            x       y       z     vdW  Elec       q    Type
                         _______ _______ _______ _____ _____    ______ ____

>  <TORSDO>
F 20

$$$$
