=
 OpenBabel11052416293D

 43 49  0  0  1  0  0  0  0  0999 V2000
  183.7120  177.6520  141.5390 C   0  0  2  0  0  3  0  0  0  0  0  0
  187.9080  178.0260  147.2260 C   0  0  0  0  0  0  0  0  0  0  0  0
  184.6860  178.9940  143.5040 C   0  0  2  0  0  3  0  0  0  0  0  0
  185.8750  178.5220  145.9980 C   0  0  0  0  0  0  0  0  0  0  0  0
  188.4570  177.4240  146.0910 C   0  0  0  0  0  3  0  0  0  0  0  0
  188.6920  178.0870  148.4870 C   0  0  0  0  0  1  0  0  0  0  0  0
  186.4470  177.9390  144.8400 C   0  0  0  0  0  0  0  0  0  0  0  0
  186.6220  178.5740  147.1790 C   0  0  0  0  0  3  0  0  0  0  0  0
  187.7250  177.3700  144.9020 C   0  0  0  0  0  3  0  0  0  0  0  0
  186.2340  177.7060  142.2590 C   0  0  0  0  0  2  0  0  0  0  0  0
  185.5880  177.7980  143.6220 C   0  0  2  0  0  3  0  0  0  0  0  0
  183.7100  178.9710  144.6640 C   0  0  0  0  0  2  0  0  0  0  0  0
  184.1270  179.0180  142.0870 C   0  0  1  0  0  3  0  0  0  0  0  0
  185.1330  178.1830  141.3040 C   0  0  2  0  0  0  0  0  0  0  0  0
  184.5010  179.1740  145.9750 C   0  0  0  0  0  2  0  0  0  0  0  0
  185.1500  179.9370  139.6780 O   0  0  0  0  0  0  0  0  0  0  0  0
  185.5280  178.7740  139.9760 C   0  0  0  0  0  0  0  0  0  0  0  0
  186.3340  178.0710  139.0750 O   0  0  0  0  0  0  0  0  0  0  0  0
  188.7010  176.1450  138.2790 O   0  0  0  0  0  1  0  0  0  0  0  0
  188.5480  177.0530  137.2270 C   0  0  2  0  0  0  0  0  0  0  0  0
  186.8160  178.6450  137.8590 C   0  0  1  0  0  3  0  0  0  0  0  0
  184.8900  177.3500  136.7940 C   0  0  0  0  0  1  0  0  0  0  0  0
  188.3210  178.4650  137.7600 C   0  0  1  0  0  3  0  0  0  0  0  0
  187.2880  176.7160  136.4360 C   0  0  0  0  0  2  0  0  0  0  0  0
  189.0670  178.7870  139.0500 C   0  0  0  0  0  1  0  0  0  0  0  0
  186.3140  177.8620  136.6510 C   0  0  2  0  0  3  0  0  0  0  0  0
  189.7260  174.6050  135.7610 N   0  0  0  0  0  0  0  0  0  0  0  0
  190.2700  175.9290  135.6400 C   0  0  0  0  0  0  0  0  0  0  0  0
  189.7340  177.0430  136.3720 N   0  0  0  0  0  2  0  0  0  0  0  0
  188.5910  172.7270  134.6940 C   0  0  0  0  0  2  0  0  0  0  0  0
  188.4490  172.9680  137.0450 C   0  0  0  0  0  2  0  0  0  0  0  0
  188.6660  172.0100  135.9660 N   0  0  0  0  0  2  0  0  0  0  0  0
  189.5850  173.9870  137.0740 C   0  0  0  0  0  2  0  0  0  0  0  0
  189.7400  173.7270  134.5940 C   0  0  0  0  0  2  0  0  0  0  0  0
  191.2170  176.1380  134.8360 O   0  0  0  0  0  0  0  0  0  0  0  0
  182.7830  177.8640  140.3520 C   0  0  0  0  0  2  0  0  0  0  0  0
  179.9900  179.5730  142.3700 C   0  0  0  0  0  2  0  0  0  0  0  0
  180.2940  180.5800  139.4000 C   0  0  0  0  0  2  0  0  0  0  0  0
  179.7090  181.0450  140.7340 C   0  0  0  0  0  2  0  0  0  0  0  0
  180.8650  178.4430  141.8310 C   0  0  0  0  0  2  0  0  0  0  0  0
  181.7480  178.9230  140.6760 C   0  0  2  0  0  3  0  0  0  0  0  0
  179.0720  179.9910  141.3990 O   0  0  0  0  0  0  0  0  0  0  0  0
  180.8900  179.1680  139.4390 C   0  0  0  0  0  2  0  0  0  0  0  0
  1 36  1  6  0  0  0
  1 13  1  0  0  0  0
  2  6  1  0  0  0  0
  3 11  1  0  0  0  0
  3 12  1  1  0  0  0
  4  8  2  0  0  0  0
  5  2  2  0  0  0  0
  7  9  2  0  0  0  0
  7  4  1  0  0  0  0
  8  2  1  0  0  0  0
  9  5  1  0  0  0  0
 11 10  1  6  0  0  0
 11  7  1  0  0  0  0
 12 15  1  0  0  0  0
 13  3  1  0  0  0  0
 14  1  1  0  0  0  0
 14 13  1  0  0  0  0
 14 10  1  0  0  0  0
 15  4  1  0  0  0  0
 16 17  2  0  0  0  0
 17 14  1  0  0  0  0
 18 17  1  0  0  0  0
 20 23  1  0  0  0  0
 20 19  1  0  0  0  0
 21 18  1  0  0  0  0
 23 21  1  0  0  0  0
 23 25  1  0  0  0  0
 24 26  1  0  0  0  0
 24 20  1  0  0  0  0
 26 22  1  0  0  0  0
 26 21  1  0  0  0  0
 27 33  1  0  0  0  0
 28 27  1  0  0  0  0
 28 29  1  0  0  0  0
 29 20  1  0  0  0  0
 30 32  1  0  0  0  0
 31 33  1  0  0  0  0
 32 31  1  0  0  0  0
 34 30  1  0  0  0  0
 34 27  1  0  0  0  0
 35 28  2  0  0  0  0
 36 41  1  0  0  0  0
 38 43  1  0  0  0  0
 38 39  1  0  0  0  0
 39 42  1  0  0  0  0
 40 37  1  0  0  0  0
 41 40  1  0  0  0  0
 42 37  1  0  0  0  0
 43 41  1  0  0  0  0
M  END
>  <MODEL>
1

>  <REMARK>
 VINA RESULT:      -9.7      0.000      0.000
  Name = 
  6 active torsions:
  status: ('A' for Active; 'I' for Inactive)
    1  A    between atoms: C_1  and  C_28
    2  A    between atoms: O_2  and  C_6
    3  A    between atoms: O_2  and  C_13
    4  A    between atoms: C_4  and  N_22
    5  A    between atoms: C_13  and  C_38
    6  A    between atoms: C_28  and  C_35
                            x       y       z     vdW  Elec       q    Type
                         _______ _______ _______ _____ _____    ______ ____

>  <TORSDO>
F 6

$$$$
=
 OpenBabel11052416293D

 43 49  0  0  1  0  0  0  0  0999 V2000
  188.5560  178.6710  143.7720 C   0  0  2  0  0  3  0  0  0  0  0  0
  181.4860  178.8880  143.5360 C   0  0  0  0  0  0  0  0  0  0  0  0
  186.2730  177.8400  144.6130 C   0  0  2  0  0  3  0  0  0  0  0  0
  183.6100  178.7120  144.6940 C   0  0  0  0  0  0  0  0  0  0  0  0
  182.1460  178.8440  142.3040 C   0  0  0  0  0  3  0  0  0  0  0  0
  180.0050  179.0050  143.5810 C   0  0  0  0  0  1  0  0  0  0  0  0
  184.2730  178.6360  143.4440 C   0  0  0  0  0  0  0  0  0  0  0  0
  182.2160  178.8210  144.7260 C   0  0  0  0  0  3  0  0  0  0  0  0
  183.5370  178.7290  142.2570 C   0  0  0  0  0  3  0  0  0  0  0  0
  186.5080  178.0280  142.2650 C   0  0  0  0  0  2  0  0  0  0  0  0
  185.7700  178.6290  143.4370 C   0  0  2  0  0  3  0  0  0  0  0  0
  185.9010  178.5840  145.8800 C   0  0  0  0  0  2  0  0  0  0  0  0
  187.7420  177.5200  144.3640 C   0  0  1  0  0  3  0  0  0  0  0  0
  187.8730  177.6490  142.8520 C   0  0  2  0  0  0  0  0  0  0  0  0
  184.3620  178.5900  146.0110 C   0  0  0  0  0  2  0  0  0  0  0  0
  188.9270  175.5020  142.8590 O   0  0  0  0  0  0  0  0  0  0  0  0
  188.6630  176.5430  142.2030 C   0  0  0  0  0  0  0  0  0  0  0  0
  189.0870  176.6320  140.8730 O   0  0  0  0  0  0  0  0  0  0  0  0
  191.3490  175.3450  139.0920 O   0  0  0  0  0  1  0  0  0  0  0  0
  191.4160  176.7270  138.8930 C   0  0  2  0  0  0  0  0  0  0  0  0
  189.7710  177.7730  140.3540 C   0  0  1  0  0  3  0  0  0  0  0  0
  187.8860  177.7890  138.6310 C   0  0  0  0  0  1  0  0  0  0  0  0
  191.2530  177.4720  140.2150 C   0  0  1  0  0  3  0  0  0  0  0  0
  190.2410  177.1800  138.0310 C   0  0  0  0  0  2  0  0  0  0  0  0
  191.8540  176.7630  141.4240 C   0  0  0  0  0  1  0  0  0  0  0  0
  189.3570  178.0470  138.9120 C   0  0  2  0  0  3  0  0  0  0  0  0
  192.8200  175.2630  136.5660 N   0  0  0  0  0  0  0  0  0  0  0  0
  193.3420  176.4560  137.1720 C   0  0  0  0  0  0  0  0  0  0  0  0
  192.6950  177.0910  138.2860 N   0  0  0  0  0  2  0  0  0  0  0  0
  191.8660  174.1880  134.5940 C   0  0  0  0  0  2  0  0  0  0  0  0
  191.4380  173.2570  136.7290 C   0  0  0  0  0  2  0  0  0  0  0  0
  191.8060  172.9400  135.3530 N   0  0  0  0  0  2  0  0  0  0  0  0
  192.5380  174.0890  137.3830 C   0  0  0  0  0  2  0  0  0  0  0  0
  192.9940  175.0660  135.1290 C   0  0  0  0  0  2  0  0  0  0  0  0
  194.3730  176.9960  136.6880 O   0  0  0  0  0  0  0  0  0  0  0  0
  190.0350  178.3890  143.9970 C   0  0  0  0  0  2  0  0  0  0  0  0
  189.5730  177.3970  147.6840 C   0  0  0  0  0  2  0  0  0  0  0  0
  192.0140  176.0300  146.2340 C   0  0  0  0  0  2  0  0  0  0  0  0
  191.1150  175.8200  147.4530 C   0  0  0  0  0  2  0  0  0  0  0  0
  189.6480  178.3010  146.4550 C   0  0  0  0  0  2  0  0  0  0  0  0
  190.2280  177.5570  145.2500 C   0  0  2  0  0  3  0  0  0  0  0  0
  190.8570  177.0310  148.1050 O   0  0  0  0  0  0  0  0  0  0  0  0
  191.7200  177.3200  145.4590 C   0  0  0  0  0  2  0  0  0  0  0  0
  1 36  1  1  0  0  0
  1 13  1  0  0  0  0
  2  6  1  0  0  0  0
  2  8  1  0  0  0  0
  3 12  1  1  0  0  0
  4  8  2  0  0  0  0
  4 15  1  0  0  0  0
  5  2  2  0  0  0  0
  7  4  1  0  0  0  0
  9  5  1  0  0  0  0
  9  7  2  0  0  0  0
 10 14  1  0  0  0  0
 11 10  1  6  0  0  0
 11  7  1  0  0  0  0
 11  3  1  0  0  0  0
 12 15  1  0  0  0  0
 13  3  1  0  0  0  0
 14  1  1  0  0  0  0
 14 13  1  0  0  0  0
 17 14  1  0  0  0  0
 17 16  2  0  0  0  0
 18 17  1  0  0  0  0
 20 19  1  0  0  0  0
 20 23  1  0  0  0  0
 21 18  1  0  0  0  0
 22 26  1  0  0  0  0
 23 21  1  0  0  0  0
 23 25  1  0  0  0  0
 24 20  1  0  0  0  0
 24 26  1  0  0  0  0
 26 21  1  0  0  0  0
 27 28  1  0  0  0  0
 27 33  1  0  0  0  0
 28 29  1  0  0  0  0
 29 20  1  0  0  0  0
 30 34  1  0  0  0  0
 30 32  1  0  0  0  0
 31 33  1  0  0  0  0
 32 31  1  0  0  0  0
 34 27  1  0  0  0  0
 35 28  2  0  0  0  0
 36 41  1  0  0  0  0
 37 42  1  0  0  0  0
 38 39  1  0  0  0  0
 39 42  1  0  0  0  0
 40 37  1  0  0  0  0
 41 43  1  0  0  0  0
 41 40  1  0  0  0  0
 43 38  1  0  0  0  0
M  END
>  <MODEL>
2

>  <REMARK>
 VINA RESULT:      -9.6      2.840      6.433
  Name = 
  6 active torsions:
  status: ('A' for Active; 'I' for Inactive)
    1  A    between atoms: C_1  and  C_28
    2  A    between atoms: O_2  and  C_6
    3  A    between atoms: O_2  and  C_13
    4  A    between atoms: C_4  and  N_22
    5  A    between atoms: C_13  and  C_38
    6  A    between atoms: C_28  and  C_35
                            x       y       z     vdW  Elec       q    Type
                         _______ _______ _______ _____ _____    ______ ____

>  <TORSDO>
F 6

$$$$
=
 OpenBabel11052416293D

 43 49  0  0  1  0  0  0  0  0999 V2000
  183.3840  177.6140  141.1980 C   0  0  2  0  0  3  0  0  0  0  0  0
  187.6360  178.0330  146.8400 C   0  0  0  0  0  0  0  0  0  0  0  0
  184.3730  178.9700  143.1460 C   0  0  2  0  0  3  0  0  0  0  0  0
  185.5890  178.5140  145.6300 C   0  0  0  0  0  0  0  0  0  0  0  0
  188.1760  177.4270  145.7020 C   0  0  0  0  0  3  0  0  0  0  0  0
  188.4330  178.1030  148.0930 C   0  0  0  0  0  1  0  0  0  0  0  0
  186.1510  177.9280  144.4690 C   0  0  0  0  0  0  0  0  0  0  0  0
  186.3480  178.5750  146.8030 C   0  0  0  0  0  3  0  0  0  0  0  0
  187.4320  177.3650  144.5210 C   0  0  0  0  0  3  0  0  0  0  0  0
  185.9120  177.6810  141.8920 C   0  0  0  0  0  2  0  0  0  0  0  0
  185.2810  177.7780  143.2610 C   0  0  2  0  0  3  0  0  0  0  0  0
  183.4090  178.9490  144.3160 C   0  0  0  0  0  2  0  0  0  0  0  0
  183.7990  178.9850  141.7340 C   0  0  1  0  0  3  0  0  0  0  0  0
  184.8010  178.1500  140.9460 C   0  0  2  0  0  0  0  0  0  0  0  0
  184.2130  179.1620  145.6180 C   0  0  0  0  0  2  0  0  0  0  0  0
  184.8820  179.9310  139.3510 O   0  0  0  0  0  0  0  0  0  0  0  0
  185.1800  178.7360  139.6110 C   0  0  0  0  0  0  0  0  0  0  0  0
  185.8860  177.9910  138.6600 O   0  0  0  0  0  0  0  0  0  0  0  0
  188.3830  176.0790  138.4250 O   0  0  0  0  0  1  0  0  0  0  0  0
  188.4920  177.0160  137.3920 C   0  0  2  0  0  0  0  0  0  0  0  0
  186.6510  178.5950  137.6180 C   0  0  1  0  0  3  0  0  0  0  0  0
  185.0540  177.3350  136.0750 C   0  0  0  0  0  1  0  0  0  0  0  0
  188.1340  178.4140  137.8900 C   0  0  1  0  0  3  0  0  0  0  0  0
  187.4680  176.7030  136.3050 C   0  0  0  0  0  2  0  0  0  0  0  0
  188.5360  178.6980  139.3330 C   0  0  0  0  0  1  0  0  0  0  0  0
  186.4670  177.8470  136.3030 C   0  0  2  0  0  3  0  0  0  0  0  0
  189.9590  174.6380  136.0800 N   0  0  0  0  0  0  0  0  0  0  0  0
  190.5360  175.9470  136.1980 C   0  0  0  0  0  0  0  0  0  0  0  0
  189.8530  177.0250  136.8570 N   0  0  0  0  0  2  0  0  0  0  0  0
  189.0950  172.8780  134.6260 C   0  0  0  0  0  2  0  0  0  0  0  0
  188.3770  172.9600  136.8810 C   0  0  0  0  0  2  0  0  0  0  0  0
  188.8400  172.0730  135.8190 N   0  0  0  0  0  2  0  0  0  0  0  0
  189.4860  173.9340  137.2670 C   0  0  0  0  0  2  0  0  0  0  0  0
  190.2480  173.8430  134.8880 C   0  0  0  0  0  2  0  0  0  0  0  0
  191.6560  176.1800  135.6700 O   0  0  0  0  0  0  0  0  0  0  0  0
  182.4420  177.8170  140.0190 C   0  0  0  0  0  2  0  0  0  0  0  0
  181.7740  174.7740  137.7630 C   0  0  0  0  0  2  0  0  0  0  0  0
  179.6570  175.2230  140.0540 C   0  0  0  0  0  2  0  0  0  0  0  0
  180.1640  174.1090  139.1360 C   0  0  0  0  0  2  0  0  0  0  0  0
  182.1450  176.2060  138.1440 C   0  0  0  0  0  2  0  0  0  0  0  0
  181.8190  176.4960  139.6110 C   0  0  2  0  0  3  0  0  0  0  0  0
  180.3890  174.5870  137.8400 O   0  0  0  0  0  0  0  0  0  0  0  0
  180.3080  176.5870  139.7940 C   0  0  0  0  0  2  0  0  0  0  0  0
  1 36  1  6  0  0  0
  1 13  1  0  0  0  0
  2  6  1  0  0  0  0
  3 11  1  0  0  0  0
  3 12  1  1  0  0  0
  4  8  2  0  0  0  0
  5  2  2  0  0  0  0
  7  9  2  0  0  0  0
  7  4  1  0  0  0  0
  8  2  1  0  0  0  0
  9  5  1  0  0  0  0
 11 10  1  6  0  0  0
 11  7  1  0  0  0  0
 12 15  1  0  0  0  0
 13  3  1  0  0  0  0
 14  1  1  0  0  0  0
 14 13  1  0  0  0  0
 14 10  1  0  0  0  0
 15  4  1  0  0  0  0
 16 17  2  0  0  0  0
 17 14  1  0  0  0  0
 18 17  1  0  0  0  0
 20 23  1  0  0  0  0
 20 19  1  0  0  0  0
 21 23  1  0  0  0  0
 21 18  1  0  0  0  0
 22 26  1  0  0  0  0
 23 25  1  0  0  0  0
 24 20  1  0  0  0  0
 26 24  1  0  0  0  0
 26 21  1  0  0  0  0
 27 28  1  0  0  0  0
 27 33  1  0  0  0  0
 28 29  1  0  0  0  0
 29 20  1  0  0  0  0
 30 34  1  0  0  0  0
 30 32  1  0  0  0  0
 31 33  1  0  0  0  0
 32 31  1  0  0  0  0
 34 27  1  0  0  0  0
 35 28  2  0  0  0  0
 37 42  1  0  0  0  0
 37 40  1  0  0  0  0
 39 38  1  0  0  0  0
 40 41  1  0  0  0  0
 41 43  1  0  0  0  0
 41 36  1  0  0  0  0
 42 39  1  0  0  0  0
 43 38  1  0  0  0  0
M  END
>  <MODEL>
3

>  <REMARK>
 VINA RESULT:      -9.2      1.706      2.232
  Name = 
  6 active torsions:
  status: ('A' for Active; 'I' for Inactive)
    1  A    between atoms: C_1  and  C_28
    2  A    between atoms: O_2  and  C_6
    3  A    between atoms: O_2  and  C_13
    4  A    between atoms: C_4  and  N_22
    5  A    between atoms: C_13  and  C_38
    6  A    between atoms: C_28  and  C_35
                            x       y       z     vdW  Elec       q    Type
                         _______ _______ _______ _____ _____    ______ ____

>  <TORSDO>
F 6

$$$$
=
 OpenBabel11052416293D

 43 49  0  0  1  0  0  0  0  0999 V2000
  181.9370  179.3930  140.0990 C   0  0  2  0  0  3  0  0  0  0  0  0
  185.7760  178.4010  145.9610 C   0  0  0  0  0  0  0  0  0  0  0  0
  183.7110  178.0640  141.4010 C   0  0  2  0  0  3  0  0  0  0  0  0
  185.4660  178.4350  143.5550 C   0  0  0  0  0  0  0  0  0  0  0  0
  184.4140  178.6500  146.1480 C   0  0  0  0  0  3  0  0  0  0  0  0
  186.6720  178.2490  147.1370 C   0  0  0  0  0  1  0  0  0  0  0  0
  184.0790  178.6560  143.7490 C   0  0  0  0  0  0  0  0  0  0  0  0
  186.2990  178.2930  144.6690 C   0  0  0  0  0  3  0  0  0  0  0  0
  183.5670  178.7890  145.0450 C   0  0  0  0  0  3  0  0  0  0  0  0
  181.7480  178.6250  142.5990 C   0  0  0  0  0  2  0  0  0  0  0  0
  183.2300  178.9130  142.5440 C   0  0  2  0  0  3  0  0  0  0  0  0
  185.0930  178.5410  141.0020 C   0  0  0  0  0  2  0  0  0  0  0  0
  182.6160  178.0450  140.3410 C   0  0  1  0  0  3  0  0  0  0  0  0
  181.3650  178.4100  141.1300 C   0  0  2  0  0  0  0  0  0  0  0  0
  186.0650  178.2590  142.1680 C   0  0  0  0  0  2  0  0  0  0  0  0
  179.0180  177.9500  141.1670 O   0  0  0  0  0  0  0  0  0  0  0  0
  180.1610  177.5650  140.8070 C   0  0  0  0  0  0  0  0  0  0  0  0
  180.2790  176.3710  140.0870 O   0  0  0  0  0  0  0  0  0  0  0  0
  181.4150  175.0510  137.4580 O   0  0  0  0  0  1  0  0  0  0  0  0
  180.1140  174.5650  137.6240 C   0  0  2  0  0  0  0  0  0  0  0  0
  179.1500  175.6640  139.5730 C   0  0  1  0  0  3  0  0  0  0  0  0
  179.8510  173.8640  141.2430 C   0  0  0  0  0  1  0  0  0  0  0  0
  179.1700  175.6850  138.0550 C   0  0  1  0  0  3  0  0  0  0  0  0
  180.0850  173.5550  138.7670 C   0  0  0  0  0  2  0  0  0  0  0  0
  179.4920  177.0520  137.4610 C   0  0  0  0  0  1  0  0  0  0  0  0
  179.2550  174.1740  139.8800 C   0  0  2  0  0  3  0  0  0  0  0  0
  181.6010  172.4980  135.8790 N   0  0  0  0  0  0  0  0  0  0  0  0
  180.2810  172.9760  135.5770 C   0  0  0  0  0  0  0  0  0  0  0  0
  179.6300  173.9750  136.3780 N   0  0  0  0  0  2  0  0  0  0  0  0
  183.0270  170.6310  136.5410 C   0  0  0  0  0  2  0  0  0  0  0  0
  183.7630  172.8430  136.9580 C   0  0  0  0  0  2  0  0  0  0  0  0
  184.1750  171.5340  136.4630 N   0  0  0  0  0  2  0  0  0  0  0  0
  182.7040  173.4390  136.0350 C   0  0  0  0  0  2  0  0  0  0  0  0
  181.9310  171.1050  135.5900 C   0  0  0  0  0  2  0  0  0  0  0  0
  179.6470  172.4760  134.6090 O   0  0  0  0  0  0  0  0  0  0  0  0
  181.2220  179.3450  138.7560 C   0  0  0  0  0  2  0  0  0  0  0  0
  180.6670  182.8060  137.1720 C   0  0  0  0  0  2  0  0  0  0  0  0
  178.9310  182.2210  139.7360 C   0  0  0  0  0  2  0  0  0  0  0  0
  178.9350  183.1430  138.5150 C   0  0  0  0  0  2  0  0  0  0  0  0
  181.4270  181.5880  137.6940 C   0  0  0  0  0  2  0  0  0  0  0  0
  180.5100  180.6570  138.4910 C   0  0  2  0  0  3  0  0  0  0  0  0
  180.2260  183.6030  138.2350 O   0  0  0  0  0  0  0  0  0  0  0  0
  180.1550  181.3030  139.8260 C   0  0  0  0  0  2  0  0  0  0  0  0
  1 36  1  6  0  0  0
  1 13  1  0  0  0  0
  1 14  1  0  0  0  0
  2  5  1  0  0  0  0
  2  6  1  0  0  0  0
  3 12  1  6  0  0  0
  3 11  1  0  0  0  0
  4  7  2  0  0  0  0
  4  8  1  0  0  0  0
  7  9  1  0  0  0  0
  8  2  2  0  0  0  0
  9  5  2  0  0  0  0
 11 10  1  1  0  0  0
 11  7  1  0  0  0  0
 12 15  1  0  0  0  0
 13 14  1  0  0  0  0
 13  3  1  0  0  0  0
 14 10  1  0  0  0  0
 15  4  1  0  0  0  0
 17 14  1  0  0  0  0
 17 16  2  0  0  0  0
 18 17  1  0  0  0  0
 19 20  1  0  0  0  0
 20 23  1  0  0  0  0
 20 24  1  0  0  0  0
 21 26  1  0  0  0  0
 21 18  1  0  0  0  0
 23 21  1  0  0  0  0
 24 26  1  0  0  0  0
 25 23  1  0  0  0  0
 26 22  1  0  0  0  0
 27 33  1  0  0  0  0
 28 27  1  0  0  0  0
 28 29  1  0  0  0  0
 29 20  1  0  0  0  0
 32 30  1  0  0  0  0
 32 31  1  0  0  0  0
 33 31  1  0  0  0  0
 34 27  1  0  0  0  0
 34 30  1  0  0  0  0
 35 28  2  0  0  0  0
 37 40  1  0  0  0  0
 37 42  1  0  0  0  0
 38 43  1  0  0  0  0
 39 38  1  0  0  0  0
 40 41  1  0  0  0  0
 41 36  1  0  0  0  0
 41 43  1  0  0  0  0
 42 39  1  0  0  0  0
M  END
>  <MODEL>
4

>  <REMARK>
 VINA RESULT:      -8.4      4.081      6.166
  Name = 
  6 active torsions:
  status: ('A' for Active; 'I' for Inactive)
    1  A    between atoms: C_1  and  C_28
    2  A    between atoms: O_2  and  C_6
    3  A    between atoms: O_2  and  C_13
    4  A    between atoms: C_4  and  N_22
    5  A    between atoms: C_13  and  C_38
    6  A    between atoms: C_28  and  C_35
                            x       y       z     vdW  Elec       q    Type
                         _______ _______ _______ _____ _____    ______ ____

>  <TORSDO>
F 6

$$$$
=
 OpenBabel11052416293D

 43 49  0  0  1  0  0  0  0  0999 V2000
  186.8540  177.3100  139.1480 C   0  0  2  0  0  3  0  0  0  0  0  0
  187.7400  177.7350  146.1570 C   0  0  0  0  0  0  0  0  0  0  0  0
  186.7140  178.6580  141.3330 C   0  0  2  0  0  3  0  0  0  0  0  0
  186.5510  178.1930  144.0920 C   0  0  0  0  0  0  0  0  0  0  0  0
  188.7870  177.1560  145.4350 C   0  0  0  0  0  3  0  0  0  0  0  0
  187.8090  177.8040  147.6400 C   0  0  0  0  0  1  0  0  0  0  0  0
  187.6280  177.6340  143.3620 C   0  0  0  0  0  0  0  0  0  0  0  0
  186.6270  178.2530  145.4880 C   0  0  0  0  0  3  0  0  0  0  0  0
  188.7280  177.0950  144.0400 C   0  0  0  0  0  3  0  0  0  0  0  0
  188.7030  177.4170  141.0050 C   0  0  0  0  0  2  0  0  0  0  0  0
  187.4740  177.4830  141.8800 C   0  0  2  0  0  3  0  0  0  0  0  0
  185.2980  178.6020  141.8720 C   0  0  0  0  0  2  0  0  0  0  0  0
  186.9160  178.6810  139.8230 C   0  0  1  0  0  3  0  0  0  0  0  0
  188.1960  177.8770  139.6330 C   0  0  2  0  0  0  0  0  0  0  0  0
  185.3460  178.8130  143.4010 C   0  0  0  0  0  2  0  0  0  0  0  0
  189.0550  179.7010  138.3460 O   0  0  0  0  0  0  0  0  0  0  0  0
  189.1720  178.4880  138.6620 C   0  0  0  0  0  0  0  0  0  0  0  0
  190.2290  177.7460  138.1250 O   0  0  0  0  0  0  0  0  0  0  0  0
  191.8300  176.5920  135.6650 O   0  0  0  0  0  1  0  0  0  0  0  0
  191.8630  175.6140  136.6630 C   0  0  2  0  0  0  0  0  0  0  0  0
  190.5230  176.4110  138.5360 C   0  0  1  0  0  3  0  0  0  0  0  0
  192.4670  177.5030  139.7820 C   0  0  0  0  0  1  0  0  0  0  0  0
  190.4990  175.4810  137.3350 C   0  0  1  0  0  3  0  0  0  0  0  0
  192.8160  176.0440  137.7740 C   0  0  0  0  0  2  0  0  0  0  0  0
  189.3080  175.7020  136.4090 C   0  0  0  0  0  1  0  0  0  0  0  0
  191.9670  176.2920  139.0100 C   0  0  2  0  0  3  0  0  0  0  0  0
  194.6030  174.9080  135.4310 N   0  0  0  0  0  0  0  0  0  0  0  0
  193.5350  173.9580  135.5640 C   0  0  0  0  0  0  0  0  0  0  0  0
  192.2510  174.3240  136.0960 N   0  0  0  0  0  2  0  0  0  0  0  0
  196.8440  175.6130  136.0940 C   0  0  0  0  0  2  0  0  0  0  0  0
  195.3390  177.2280  135.2360 C   0  0  0  0  0  2  0  0  0  0  0  0
  196.7150  176.7450  135.1780 N   0  0  0  0  0  2  0  0  0  0  0  0
  194.3890  176.1560  134.7080 C   0  0  0  0  0  2  0  0  0  0  0  0
  195.9800  174.4520  135.6070 C   0  0  0  0  0  2  0  0  0  0  0  0
  193.7340  172.7530  135.2520 O   0  0  0  0  0  0  0  0  0  0  0  0
  186.6150  177.5100  137.6580 C   0  0  0  0  0  2  0  0  0  0  0  0
  184.2270  175.8620  135.1330 C   0  0  0  0  0  2  0  0  0  0  0  0
  183.1610  175.9740  138.0960 C   0  0  0  0  0  2  0  0  0  0  0  0
  182.9230  175.1980  136.7990 C   0  0  0  0  0  2  0  0  0  0  0  0
  185.2160  176.8800  135.6970 C   0  0  0  0  0  2  0  0  0  0  0  0
  185.4400  176.6700  137.1960 C   0  0  2  0  0  3  0  0  0  0  0  0
  182.9570  176.0490  135.6890 O   0  0  0  0  0  0  0  0  0  0  0  0
  184.1950  177.0980  137.9680 C   0  0  0  0  0  2  0  0  0  0  0  0
  1 36  1  6  0  0  0
  1 14  1  0  0  0  0
  1 13  1  0  0  0  0
  2  6  1  0  0  0  0
  3 12  1  6  0  0  0
  3 11  1  0  0  0  0
  4  8  2  0  0  0  0
  5  2  2  0  0  0  0
  7  9  2  0  0  0  0
  7  4  1  0  0  0  0
  8  2  1  0  0  0  0
  9  5  1  0  0  0  0
 11 10  1  6  0  0  0
 11  7  1  0  0  0  0
 12 15  1  0  0  0  0
 13  3  1  0  0  0  0
 14 13  1  0  0  0  0
 14 10  1  0  0  0  0
 15  4  1  0  0  0  0
 16 17  2  0  0  0  0
 17 14  1  0  0  0  0
 18 21  1  0  0  0  0
 18 17  1  0  0  0  0
 19 20  1  0  0  0  0
 20 23  1  0  0  0  0
 20 24  1  0  0  0  0
 21 26  1  0  0  0  0
 23 21  1  0  0  0  0
 24 26  1  0  0  0  0
 25 23  1  0  0  0  0
 26 22  1  0  0  0  0
 27 28  1  0  0  0  0
 27 34  1  0  0  0  0
 28 29  1  0  0  0  0
 29 20  1  0  0  0  0
 32 31  1  0  0  0  0
 32 30  1  0  0  0  0
 33 31  1  0  0  0  0
 33 27  1  0  0  0  0
 34 30  1  0  0  0  0
 35 28  2  0  0  0  0
 37 42  1  0  0  0  0
 37 40  1  0  0  0  0
 39 38  1  0  0  0  0
 40 41  1  0  0  0  0
 41 36  1  0  0  0  0
 41 43  1  0  0  0  0
 42 39  1  0  0  0  0
 43 38  1  0  0  0  0
M  END
>  <MODEL>
5

>  <REMARK>
 VINA RESULT:      -8.3      2.994      5.087
  Name = 
  6 active torsions:
  status: ('A' for Active; 'I' for Inactive)
    1  A    between atoms: C_1  and  C_28
    2  A    between atoms: O_2  and  C_6
    3  A    between atoms: O_2  and  C_13
    4  A    between atoms: C_4  and  N_22
    5  A    between atoms: C_13  and  C_38
    6  A    between atoms: C_28  and  C_35
                            x       y       z     vdW  Elec       q    Type
                         _______ _______ _______ _____ _____    ______ ____

>  <TORSDO>
F 6

$$$$
=
 OpenBabel11052416293D

 43 49  0  0  1  0  0  0  0  0999 V2000
  188.7230  177.4110  139.8680 C   0  0  2  0  0  3  0  0  0  0  0  0
  191.4680  172.6200  135.4410 C   0  0  0  0  0  0  0  0  0  0  0  0
  190.4940  176.7440  138.1270 C   0  0  2  0  0  3  0  0  0  0  0  0
  191.6350  174.4150  137.0640 C   0  0  0  0  0  0  0  0  0  0  0  0
  190.0790  172.7670  135.4100 C   0  0  0  0  0  3  0  0  0  0  0  0
  192.1250  171.5900  134.5950 C   0  0  0  0  0  1  0  0  0  0  0  0
  190.2290  174.5820  137.0070 C   0  0  0  0  0  0  0  0  0  0  0  0
  192.2430  173.4420  136.2640 C   0  0  0  0  0  3  0  0  0  0  0  0
  189.4580  173.7380  136.1990 C   0  0  0  0  0  3  0  0  0  0  0  0
  188.2580  176.1670  137.6060 C   0  0  0  0  0  2  0  0  0  0  0  0
  189.5940  175.5530  137.9520 C   0  0  2  0  0  3  0  0  0  0  0  0
  191.7540  176.2890  138.8370 C   0  0  0  0  0  2  0  0  0  0  0  0
  189.6710  177.8620  138.7550 C   0  0  1  0  0  3  0  0  0  0  0  0
  188.2390  177.4710  138.4120 C   0  0  2  0  0  0  0  0  0  0  0  0
  192.5190  175.3220  137.9070 C   0  0  0  0  0  2  0  0  0  0  0  0
  187.8690  179.4540  137.1260 O   0  0  0  0  0  0  0  0  0  0  0  0
  187.3850  178.6140  137.9280 C   0  0  0  0  0  0  0  0  0  0  0  0
  186.0500  178.7470  138.3250 O   0  0  0  0  0  0  0  0  0  0  0  0
  183.3110  180.1090  139.0930 O   0  0  0  0  0  1  0  0  0  0  0  0
  183.1390  178.7310  139.2630 C   0  0  2  0  0  0  0  0  0  0  0  0
  185.2740  177.6500  138.8080 C   0  0  1  0  0  3  0  0  0  0  0  0
  184.8140  177.2290  136.3320 C   0  0  0  0  0  1  0  0  0  0  0  0
  184.3630  178.1120  139.9320 C   0  0  1  0  0  3  0  0  0  0  0  0
  183.0420  178.0540  137.9000 C   0  0  0  0  0  2  0  0  0  0  0  0
  185.0520  179.0090  140.9550 C   0  0  0  0  0  1  0  0  0  0  0  0
  184.2780  177.1820  137.7530 C   0  0  2  0  0  3  0  0  0  0  0  0
  180.2180  179.3920  138.5150 N   0  0  0  0  0  0  0  0  0  0  0  0
  180.5840  178.7170  139.7290 C   0  0  0  0  0  0  0  0  0  0  0  0
  181.9540  178.4650  140.0770 N   0  0  0  0  0  2  0  0  0  0  0  0
  179.0990  179.2960  136.3480 C   0  0  0  0  0  2  0  0  0  0  0  0
  180.8130  180.8940  136.6860 C   0  0  0  0  0  2  0  0  0  0  0  0
  179.4770  180.6930  136.1370 N   0  0  0  0  0  2  0  0  0  0  0  0
  180.7910  180.6950  138.1990 C   0  0  0  0  0  2  0  0  0  0  0  0
  178.9770  179.0130  137.8430 C   0  0  0  0  0  2  0  0  0  0  0  0
  179.6810  178.2870  140.4950 O   0  0  0  0  0  0  0  0  0  0  0  0
  188.3220  178.6280  140.6900 C   0  0  0  0  0  2  0  0  0  0  0  0
  190.3760  178.0570  143.8910 C   0  0  0  0  0  2  0  0  0  0  0  0
  187.3450  177.2180  144.0870 C   0  0  0  0  0  2  0  0  0  0  0  0
  188.5150  177.5850  145.0010 C   0  0  0  0  0  2  0  0  0  0  0  0
  190.0390  178.0590  142.4020 C   0  0  0  0  0  2  0  0  0  0  0  0
  188.5590  178.3680  142.1650 C   0  0  2  0  0  3  0  0  0  0  0  0
  189.7090  177.0150  144.5460 O   0  0  0  0  0  0  0  0  0  0  0  0
  187.7080  177.1790  142.5980 C   0  0  0  0  0  2  0  0  0  0  0  0
  1 36  1  1  0  0  0
  2  8  1  0  0  0  0
  3 13  1  0  0  0  0
  3 12  1  1  0  0  0
  4 15  1  0  0  0  0
  5  2  2  0  0  0  0
  5  9  1  0  0  0  0
  6  2  1  0  0  0  0
  7  4  1  0  0  0  0
  7 11  1  0  0  0  0
  8  4  2  0  0  0  0
  9  7  2  0  0  0  0
 10 14  1  0  0  0  0
 11 10  1  6  0  0  0
 11  3  1  0  0  0  0
 13  1  1  0  0  0  0
 14 13  1  0  0  0  0
 14  1  1  0  0  0  0
 15 12  1  0  0  0  0
 16 17  2  0  0  0  0
 17 18  1  0  0  0  0
 17 14  1  0  0  0  0
 18 21  1  0  0  0  0
 19 20  1  0  0  0  0
 20 23  1  0  0  0  0
 20 29  1  0  0  0  0
 21 23  1  0  0  0  0
 22 26  1  0  0  0  0
 23 25  1  0  0  0  0
 24 20  1  0  0  0  0
 26 24  1  0  0  0  0
 26 21  1  0  0  0  0
 27 28  1  0  0  0  0
 28 29  1  0  0  0  0
 28 35  2  0  0  0  0
 30 34  1  0  0  0  0
 31 33  1  0  0  0  0
 32 30  1  0  0  0  0
 32 31  1  0  0  0  0
 33 27  1  0  0  0  0
 34 27  1  0  0  0  0
 36 41  1  0  0  0  0
 37 42  1  0  0  0  0
 38 39  1  0  0  0  0
 40 37  1  0  0  0  0
 41 40  1  0  0  0  0
 41 43  1  0  0  0  0
 42 39  1  0  0  0  0
 43 38  1  0  0  0  0
M  END
>  <MODEL>
6

>  <REMARK>
 VINA RESULT:      -8.2      3.405      9.097
  Name = 
  6 active torsions:
  status: ('A' for Active; 'I' for Inactive)
    1  A    between atoms: C_1  and  C_28
    2  A    between atoms: O_2  and  C_6
    3  A    between atoms: O_2  and  C_13
    4  A    between atoms: C_4  and  N_22
    5  A    between atoms: C_13  and  C_38
    6  A    between atoms: C_28  and  C_35
                            x       y       z     vdW  Elec       q    Type
                         _______ _______ _______ _____ _____    ______ ____

>  <TORSDO>
F 6

$$$$
=
 OpenBabel11052416293D

 43 49  0  0  1  0  0  0  0  0999 V2000
  183.1470  177.7910  140.6310 C   0  0  2  0  0  3  0  0  0  0  0  0
  186.8670  178.1940  146.6380 C   0  0  0  0  0  0  0  0  0  0  0  0
  183.8260  179.0830  142.7480 C   0  0  2  0  0  3  0  0  0  0  0  0
  184.8830  178.5590  145.2900 C   0  0  0  0  0  0  0  0  0  0  0  0
  187.5580  177.7380  145.5110 C   0  0  0  0  0  3  0  0  0  0  0  0
  187.5490  178.2460  147.9570 C   0  0  0  0  0  1  0  0  0  0  0  0
  185.5950  178.1260  144.1440 C   0  0  0  0  0  0  0  0  0  0  0  0
  185.5350  178.6040  146.5260 C   0  0  0  0  0  3  0  0  0  0  0  0
  186.9210  177.6930  144.2680 C   0  0  0  0  0  3  0  0  0  0  0  0
  185.5900  178.0600  141.5460 C   0  0  0  0  0  2  0  0  0  0  0  0
  184.8450  177.9840  142.8570 C   0  0  2  0  0  3  0  0  0  0  0  0
  182.7800  178.8720  143.8240 C   0  0  0  0  0  2  0  0  0  0  0  0
  183.3680  179.1500  141.2960 C   0  0  1  0  0  3  0  0  0  0  0  0
  184.5130  178.4860  140.5410 C   0  0  2  0  0  0  0  0  0  0  0  0
  183.4500  179.0620  145.2030 C   0  0  0  0  0  2  0  0  0  0  0  0
  184.5400  180.3910  139.0950 O   0  0  0  0  0  0  0  0  0  0  0  0
  184.9310  179.2100  139.2890 C   0  0  0  0  0  0  0  0  0  0  0  0
  185.7740  178.6120  138.3460 O   0  0  0  0  0  0  0  0  0  0  0  0
  186.7880  177.9860  135.4260 O   0  0  0  0  0  1  0  0  0  0  0  0
  187.0860  176.8640  136.2070 C   0  0  2  0  0  0  0  0  0  0  0  0
  186.1990  177.2530  138.4420 C   0  0  1  0  0  3  0  0  0  0  0  0
  188.3440  178.2670  139.3860 C   0  0  0  0  0  1  0  0  0  0  0  0
  185.9240  176.5280  137.1360 C   0  0  1  0  0  3  0  0  0  0  0  0
  188.2590  177.1790  137.1300 C   0  0  0  0  0  2  0  0  0  0  0  0
  184.5420  176.8080  136.5550 C   0  0  0  0  0  1  0  0  0  0  0  0
  187.7170  177.1630  138.5500 C   0  0  2  0  0  3  0  0  0  0  0  0
  189.7710  175.3530  136.0120 N   0  0  0  0  0  0  0  0  0  0  0  0
  188.5970  174.9640  135.2830 C   0  0  0  0  0  0  0  0  0  0  0  0
  187.3730  175.7130  135.3520 N   0  0  0  0  0  2  0  0  0  0  0  0
  191.3980  174.8260  137.7530 C   0  0  0  0  0  2  0  0  0  0  0  0
  191.0610  177.0890  137.1450 C   0  0  0  0  0  2  0  0  0  0  0  0
  192.0750  176.0840  137.4460 N   0  0  0  0  0  2  0  0  0  0  0  0
  190.3060  176.7030  135.8750 C   0  0  0  0  0  2  0  0  0  0  0  0
  190.6670  174.3140  136.5150 C   0  0  0  0  0  2  0  0  0  0  0  0
  188.6170  173.9090  134.5940 O   0  0  0  0  0  0  0  0  0  0  0  0
  182.2850  177.9890  139.3910 C   0  0  0  0  0  2  0  0  0  0  0  0
  179.3130  175.7360  140.3320 C   0  0  0  0  0  2  0  0  0  0  0  0
  181.2790  174.5210  138.1900 C   0  0  0  0  0  2  0  0  0  0  0  0
  179.8410  174.3510  138.6830 C   0  0  0  0  0  2  0  0  0  0  0  0
  180.4880  176.6930  140.5270 C   0  0  0  0  0  2  0  0  0  0  0  0
  181.3060  176.8410  139.2420 C   0  0  2  0  0  3  0  0  0  0  0  0
  179.7720  174.4380  140.0770 O   0  0  0  0  0  0  0  0  0  0  0  0
  182.0880  175.5580  138.9780 C   0  0  0  0  0  2  0  0  0  0  0  0
  1 36  1  6  0  0  0
  1 13  1  0  0  0  0
  2  6  1  0  0  0  0
  3 11  1  0  0  0  0
  3 12  1  1  0  0  0
  4  8  2  0  0  0  0
  5  2  2  0  0  0  0
  7  9  2  0  0  0  0
  7  4  1  0  0  0  0
  8  2  1  0  0  0  0
  9  5  1  0  0  0  0
 11 10  1  6  0  0  0
 11  7  1  0  0  0  0
 12 15  1  0  0  0  0
 13  3  1  0  0  0  0
 14  1  1  0  0  0  0
 14 13  1  0  0  0  0
 14 10  1  0  0  0  0
 15  4  1  0  0  0  0
 16 17  2  0  0  0  0
 17 14  1  0  0  0  0
 18 21  1  0  0  0  0
 18 17  1  0  0  0  0
 19 20  1  0  0  0  0
 20 24  1  0  0  0  0
 20 23  1  0  0  0  0
 21 26  1  0  0  0  0
 23 21  1  0  0  0  0
 24 26  1  0  0  0  0
 25 23  1  0  0  0  0
 26 22  1  0  0  0  0
 27 34  1  0  0  0  0
 28 29  1  0  0  0  0
 28 27  1  0  0  0  0
 29 20  1  0  0  0  0
 31 32  1  0  0  0  0
 32 30  1  0  0  0  0
 33 27  1  0  0  0  0
 33 31  1  0  0  0  0
 34 30  1  0  0  0  0
 35 28  2  0  0  0  0
 37 40  1  0  0  0  0
 38 39  1  0  0  0  0
 38 43  1  0  0  0  0
 39 42  1  0  0  0  0
 41 36  1  0  0  0  0
 41 40  1  0  0  0  0
 42 37  1  0  0  0  0
 43 41  1  0  0  0  0
M  END
>  <MODEL>
7

>  <REMARK>
 VINA RESULT:      -8.2      2.058      3.029
  Name = 
  6 active torsions:
  status: ('A' for Active; 'I' for Inactive)
    1  A    between atoms: C_1  and  C_28
    2  A    between atoms: O_2  and  C_6
    3  A    between atoms: O_2  and  C_13
    4  A    between atoms: C_4  and  N_22
    5  A    between atoms: C_13  and  C_38
    6  A    between atoms: C_28  and  C_35
                            x       y       z     vdW  Elec       q    Type
                         _______ _______ _______ _____ _____    ______ ____

>  <TORSDO>
F 6

$$$$
=
 OpenBabel11052416293D

 43 49  0  0  1  0  0  0  0  0999 V2000
  188.2540  177.0320  142.6140 C   0  0  2  0  0  3  0  0  0  0  0  0
  192.8040  176.3090  137.2420 C   0  0  0  0  0  0  0  0  0  0  0  0
  190.2370  177.9210  141.2400 C   0  0  2  0  0  3  0  0  0  0  0  0
  192.2110  176.9410  139.5080 C   0  0  0  0  0  0  0  0  0  0  0  0
  191.4620  176.0430  136.9570 C   0  0  0  0  0  3  0  0  0  0  0  0
  193.8390  176.1170  136.1930 C   0  0  0  0  0  1  0  0  0  0  0  0
  190.8470  176.7010  139.2050 C   0  0  0  0  0  0  0  0  0  0  0  0
  193.1760  176.7570  138.5130 C   0  0  0  0  0  3  0  0  0  0  0  0
  190.4860  176.2280  137.9380 C   0  0  0  0  0  3  0  0  0  0  0  0
  188.4010  177.0890  139.9960 C   0  0  0  0  0  2  0  0  0  0  0  0
  189.8490  176.8000  140.3160 C   0  0  2  0  0  3  0  0  0  0  0  0
  191.5350  177.5450  141.9260 C   0  0  0  0  0  2  0  0  0  0  0  0
  189.0270  178.2490  142.1060 C   0  0  1  0  0  3  0  0  0  0  0  0
  187.8600  177.7050  141.2920 C   0  0  2  0  0  0  0  0  0  0  0  0
  192.6510  177.4790  140.8610 C   0  0  0  0  0  2  0  0  0  0  0  0
  186.7580  179.7890  141.6990 O   0  0  0  0  0  0  0  0  0  0  0  0
  186.6720  178.6290  141.2180 C   0  0  0  0  0  0  0  0  0  0  0  0
  185.4810  178.2390  140.5970 O   0  0  0  0  0  0  0  0  0  0  0  0
  184.1460  176.4750  138.3500 O   0  0  0  0  0  1  0  0  0  0  0  0
  183.5190  177.7240  138.3090 C   0  0  2  0  0  0  0  0  0  0  0  0
  184.6130  179.1640  139.9410 C   0  0  1  0  0  3  0  0  0  0  0  0
  183.0170  178.6180  141.8590 C   0  0  0  0  0  1  0  0  0  0  0  0
  184.5410  178.8470  138.4580 C   0  0  1  0  0  3  0  0  0  0  0  0
  182.5860  177.8710  139.5070 C   0  0  0  0  0  2  0  0  0  0  0  0
  185.8980  178.5620  137.8220 C   0  0  0  0  0  1  0  0  0  0  0  0
  183.1680  178.9640  140.3870 C   0  0  2  0  0  3  0  0  0  0  0  0
  180.8760  176.3400  137.5170 N   0  0  0  0  0  0  0  0  0  0  0  0
  181.5440  177.2950  136.6780 C   0  0  0  0  0  0  0  0  0  0  0  0
  182.7980  177.8880  137.0470 N   0  0  0  0  0  2  0  0  0  0  0  0
  178.9310  175.7850  138.8830 C   0  0  0  0  0  2  0  0  0  0  0  0
  180.9800  174.6730  139.2980 C   0  0  0  0  0  2  0  0  0  0  0  0
  179.5410  174.4840  139.1510 N   0  0  0  0  0  2  0  0  0  0  0  0
  181.5800  175.1490  137.9770 C   0  0  0  0  0  2  0  0  0  0  0  0
  179.4150  176.3170  137.5360 C   0  0  0  0  0  2  0  0  0  0  0  0
  180.9970  177.6660  135.6040 O   0  0  0  0  0  0  0  0  0  0  0  0
  187.3890  177.4600  143.7920 C   0  0  0  0  0  2  0  0  0  0  0  0
  187.8880  177.4130  147.6050 C   0  0  0  0  0  2  0  0  0  0  0  0
  190.5310  177.1340  145.9130 C   0  0  0  0  0  2  0  0  0  0  0  0
  190.0110  176.8380  147.3200 C   0  0  0  0  0  2  0  0  0  0  0  0
  187.3430  177.8580  146.2490 C   0  0  0  0  0  2  0  0  0  0  0  0
  188.1190  177.2150  145.0970 C   0  0  2  0  0  3  0  0  0  0  0  0
  189.1970  177.8760  147.7850 O   0  0  0  0  0  0  0  0  0  0  0  0
  189.5110  177.8320  145.0060 C   0  0  0  0  0  2  0  0  0  0  0  0
  1 36  1  1  0  0  0
  2  8  1  0  0  0  0
  3 12  1  1  0  0  0
  3 13  1  0  0  0  0
  4 15  1  0  0  0  0
  5  2  2  0  0  0  0
  5  9  1  0  0  0  0
  6  2  1  0  0  0  0
  7  4  1  0  0  0  0
  7 11  1  0  0  0  0
  8  4  2  0  0  0  0
  9  7  2  0  0  0  0
 10 14  1  0  0  0  0
 11 10  1  6  0  0  0
 11  3  1  0  0  0  0
 13  1  1  0  0  0  0
 14 13  1  0  0  0  0
 14  1  1  0  0  0  0
 15 12  1  0  0  0  0
 17 14  1  0  0  0  0
 17 16  2  0  0  0  0
 18 17  1  0  0  0  0
 20 19  1  0  0  0  0
 20 23  1  0  0  0  0
 20 24  1  0  0  0  0
 21 26  1  0  0  0  0
 21 18  1  0  0  0  0
 23 21  1  0  0  0  0
 24 26  1  0  0  0  0
 25 23  1  0  0  0  0
 26 22  1  0  0  0  0
 27 34  1  0  0  0  0
 27 33  1  0  0  0  0
 28 29  1  0  0  0  0
 28 27  1  0  0  0  0
 29 20  1  0  0  0  0
 30 32  1  0  0  0  0
 32 31  1  0  0  0  0
 33 31  1  0  0  0  0
 34 30  1  0  0  0  0
 35 28  2  0  0  0  0
 36 41  1  0  0  0  0
 37 42  1  0  0  0  0
 38 39  1  0  0  0  0
 39 42  1  0  0  0  0
 40 37  1  0  0  0  0
 41 40  1  0  0  0  0
 43 41  1  0  0  0  0
 43 38  1  0  0  0  0
M  END
>  <MODEL>
8

>  <REMARK>
 VINA RESULT:      -8.1      3.752      8.109
  Name = 
  6 active torsions:
  status: ('A' for Active; 'I' for Inactive)
    1  A    between atoms: C_1  and  C_28
    2  A    between atoms: O_2  and  C_6
    3  A    between atoms: O_2  and  C_13
    4  A    between atoms: C_4  and  N_22
    5  A    between atoms: C_13  and  C_38
    6  A    between atoms: C_28  and  C_35
                            x       y       z     vdW  Elec       q    Type
                         _______ _______ _______ _____ _____    ______ ____

>  <TORSDO>
F 6

$$$$
=
 OpenBabel11052416293D

 43 49  0  0  1  0  0  0  0  0999 V2000
  189.2920  178.3790  142.9810 C   0  0  2  0  0  3  0  0  0  0  0  0
  182.7610  179.0050  140.3290 C   0  0  0  0  0  0  0  0  0  0  0  0
  186.8480  177.5880  142.8700 C   0  0  2  0  0  3  0  0  0  0  0  0
  184.3390  178.5900  142.1240 C   0  0  0  0  0  0  0  0  0  0  0  0
  183.8100  179.0570  139.4080 C   0  0  0  0  0  3  0  0  0  0  0  0
  181.3600  179.1960  139.8700 C   0  0  0  0  0  1  0  0  0  0  0  0
  185.3980  178.6120  141.1830 C   0  0  0  0  0  0  0  0  0  0  0  0
  183.0240  178.7700  141.6820 C   0  0  0  0  0  3  0  0  0  0  0  0
  185.1280  178.8720  139.8340 C   0  0  0  0  0  3  0  0  0  0  0  0
  187.8970  178.0140  140.7910 C   0  0  0  0  0  2  0  0  0  0  0  0
  186.8010  178.5250  141.6960 C   0  0  2  0  0  3  0  0  0  0  0  0
  186.0640  178.2110  144.0080 C   0  0  0  0  0  2  0  0  0  0  0  0
  188.3060  177.2180  143.1120 C   0  0  1  0  0  3  0  0  0  0  0  0
  188.9630  177.5010  141.7660 C   0  0  2  0  0  0  0  0  0  0  0  0
  184.5770  178.2870  143.5960 C   0  0  0  0  0  2  0  0  0  0  0  0
  190.4070  175.6320  142.1480 O   0  0  0  0  0  0  0  0  0  0  0  0
  189.9160  176.4290  141.3060 C   0  0  0  0  0  0  0  0  0  0  0  0
  190.2460  176.2770  139.9550 O   0  0  0  0  0  0  0  0  0  0  0  0
  192.7800  175.0980  138.4940 O   0  0  0  0  0  1  0  0  0  0  0  0
  192.5490  176.3620  137.9440 C   0  0  2  0  0  0  0  0  0  0  0  0
  190.6770  177.3660  139.1380 C   0  0  1  0  0  3  0  0  0  0  0  0
  188.8800  176.5250  137.5310 C   0  0  0  0  0  1  0  0  0  0  0  0
  192.1920  177.3700  139.0330 C   0  0  1  0  0  3  0  0  0  0  0  0
  191.3260  176.3090  137.0320 C   0  0  0  0  0  2  0  0  0  0  0  0
  192.9030  177.1460  140.3640 C   0  0  0  0  0  1  0  0  0  0  0  0
  190.2520  177.1600  137.6880 C   0  0  2  0  0  3  0  0  0  0  0  0
  194.3720  174.6560  136.1290 N   0  0  0  0  0  0  0  0  0  0  0  0
  194.5650  176.0640  136.3340 C   0  0  0  0  0  0  0  0  0  0  0  0
  193.7320  176.8260  137.2220 N   0  0  0  0  0  2  0  0  0  0  0  0
  193.7980  172.8450  134.5960 C   0  0  0  0  0  2  0  0  0  0  0  0
  193.5010  172.5180  136.9230 C   0  0  0  0  0  2  0  0  0  0  0  0
  194.0000  171.9040  135.6970 N   0  0  0  0  0  2  0  0  0  0  0  0
  194.3380  173.7470  137.2690 C   0  0  0  0  0  2  0  0  0  0  0  0
  194.6570  174.0880  134.8130 C   0  0  0  0  0  2  0  0  0  0  0  0
  195.4600  176.6680  135.6840 O   0  0  0  0  0  0  0  0  0  0  0  0
  190.5930  177.9940  143.6710 C   0  0  0  0  0  2  0  0  0  0  0  0
  191.3160  176.7520  147.2390 C   0  0  0  0  0  2  0  0  0  0  0  0
  188.4070  177.8740  146.7840 C   0  0  0  0  0  2  0  0  0  0  0  0
  189.3870  177.6040  147.9270 C   0  0  0  0  0  2  0  0  0  0  0  0
  191.3070  176.7580  145.7120 C   0  0  0  0  0  2  0  0  0  0  0  0
  190.3720  177.8390  145.1630 C   0  0  2  0  0  3  0  0  0  0  0  0
  190.0590  176.3910  147.7380 O   0  0  0  0  0  0  0  0  0  0  0  0
  188.9210  177.4380  145.4070 C   0  0  0  0  0  2  0  0  0  0  0  0
  1 13  1  0  0  0  0
  1 36  1  1  0  0  0
  2  8  1  0  0  0  0
  3 13  1  0  0  0  0
  3 12  1  1  0  0  0
  4 15  1  0  0  0  0
  5  9  1  0  0  0  0
  5  2  2  0  0  0  0
  6  2  1  0  0  0  0
  7 11  1  0  0  0  0
  7  4  1  0  0  0  0
  8  4  2  0  0  0  0
  9  7  2  0  0  0  0
 10 14  1  0  0  0  0
 11 10  1  6  0  0  0
 11  3  1  0  0  0  0
 14  1  1  0  0  0  0
 14 13  1  0  0  0  0
 15 12  1  0  0  0  0
 17 14  1  0  0  0  0
 17 16  2  0  0  0  0
 18 17  1  0  0  0  0
 20 19  1  0  0  0  0
 20 23  1  0  0  0  0
 21 18  1  0  0  0  0
 22 26  1  0  0  0  0
 23 21  1  0  0  0  0
 23 25  1  0  0  0  0
 24 26  1  0  0  0  0
 24 20  1  0  0  0  0
 26 21  1  0  0  0  0
 27 28  1  0  0  0  0
 27 33  1  0  0  0  0
 28 29  1  0  0  0  0
 29 20  1  0  0  0  0
 30 34  1  0  0  0  0
 30 32  1  0  0  0  0
 31 33  1  0  0  0  0
 32 31  1  0  0  0  0
 34 27  1  0  0  0  0
 35 28  2  0  0  0  0
 36 41  1  0  0  0  0
 37 42  1  0  0  0  0
 38 39  1  0  0  0  0
 40 37  1  0  0  0  0
 41 43  1  0  0  0  0
 41 40  1  0  0  0  0
 42 39  1  0  0  0  0
 43 38  1  0  0  0  0
M  END
>  <MODEL>
9

>  <REMARK>
 VINA RESULT:      -8.0      3.228      6.726
  Name = 
  6 active torsions:
  status: ('A' for Active; 'I' for Inactive)
    1  A    between atoms: C_1  and  C_28
    2  A    between atoms: O_2  and  C_6
    3  A    between atoms: O_2  and  C_13
    4  A    between atoms: C_4  and  N_22
    5  A    between atoms: C_13  and  C_38
    6  A    between atoms: C_28  and  C_35
                            x       y       z     vdW  Elec       q    Type
                         _______ _______ _______ _____ _____    ______ ____

>  <TORSDO>
F 6

$$$$
