=
 OpenBabel11052412213D

 30 33  0  0  1  0  0  0  0  0999 V2000
  181.2460  178.8660  141.8390 C   0  0  0  0  0  0  0  0  0  0  0  0
  180.6010  180.9280  140.6620 O   0  0  0  0  0  0  0  0  0  0  0  0
  181.1400  178.9000  139.2700 C   0  0  1  0  0  0  0  0  0  0  0  0
  182.7360  178.9410  142.0260 C   0  0  2  0  0  3  0  0  0  0  0  0
  180.4710  178.1460  142.6580 C   0  0  0  0  0  2  0  0  0  0  0  0
  182.0130  177.6150  139.2560 C   0  0  2  0  0  3  0  0  0  0  0  0
  180.1100  181.9730  138.5590 C   0  0  0  0  0  2  0  0  0  0  0  0
  179.5530  181.4140  139.8620 C   0  0  0  0  0  2  0  0  0  0  0  0
  180.1740  179.3430  136.9120 C   0  0  0  0  0  1  0  0  0  0  0  0
  181.3790  181.2460  138.1090 C   0  0  0  0  0  2  0  0  0  0  0  0
  180.6680  179.5090  140.6170 C   0  0  1  0  0  0  0  0  0  0  0  0
  183.4070  177.7130  141.4290 C   0  0  0  0  0  2  0  0  0  0  0  0
  181.3150  176.3140  139.6440 C   0  0  0  0  0  1  0  0  0  0  0  0
  183.4070  177.7380  139.8920 C   0  0  2  0  0  3  0  0  0  0  0  0
  181.2020  179.7330  137.9670 C   0  0  1  0  0  3  0  0  0  0  0  0
  179.7010  178.6840  139.7630 C   0  0  0  0  0  2  0  0  0  0  0  0
  184.1990  178.9120  139.3220 C   0  0  0  0  0  2  0  0  0  0  0  0
  185.3240  178.4270  138.4070 C   0  0  2  0  0  3  0  0  0  0  0  0
  184.9660  177.1230  137.7070 C   0  0  0  0  0  1  0  0  0  0  0  0
  186.5890  178.3890  139.0370 O   0  0  0  0  0  0  0  0  0  0  0  0
  187.5780  178.1210  138.0750 C   0  0  0  0  0  1  0  0  0  0  0  0
  183.1500  179.1290  143.4810 C   0  0  0  0  0  2  0  0  0  0  0  0
  184.6620  179.2730  143.6030 C   0  0  0  0  0  2  0  0  0  0  0  0
  185.1760  178.7920  144.9590 C   0  0  0  0  0  2  0  0  0  0  0  0
  187.3890  177.6790  146.1860 S   0  0  0  0  0  0  0  0  0  0  0  0
  186.1690  177.6360  144.8500 C   0  0  2  0  0  3  0  0  0  0  0  0
  187.8660  176.7790  143.7540 N   0  0  0  0  0  2  0  0  0  0  0  0
  186.8380  177.6580  143.6200 O   0  0  0  0  0  0  0  0  0  0  0  0
  189.5200  178.2130  144.6780 N   0  0  0  0  0  1  0  0  0  0  0  0
  188.5920  177.1330  144.9640 C   0  0  1  0  0  3  0  0  0  0  0  0
  1  4  1  0  0  0  0
  1  5  2  0  0  0  0
  3 16  1  6  0  0  0
  3 11  1  0  0  0  0
  4 22  1  1  0  0  0
  6  3  1  0  0  0  0
  6 13  1  1  0  0  0
  6 14  1  0  0  0  0
  7  8  1  0  0  0  0
  8  2  1  0  0  0  0
 10  7  1  0  0  0  0
 11 16  1  1  0  0  0
 11  2  1  0  0  0  0
 11  1  1  0  0  0  0
 12  4  1  0  0  0  0
 14 17  1  1  0  0  0
 14 12  1  0  0  0  0
 15  9  1  1  0  0  0
 15 10  1  0  0  0  0
 15  3  1  0  0  0  0
 18 19  1  1  0  0  0
 18 20  1  0  0  0  0
 18 17  1  0  0  0  0
 21 20  1  0  0  0  0
 22 23  1  0  0  0  0
 23 24  1  0  0  0  0
 26 24  1  6  0  0  0
 26 25  1  0  0  0  0
 27 30  1  0  0  0  0
 28 27  1  0  0  0  0
 28 26  1  0  0  0  0
 30 29  1  6  0  0  0
 30 25  1  0  0  0  0
M  END
>  <MODEL>
1

>  <REMARK>
 VINA RESULT:      -6.6      0.000      0.000
  Name = 
  7 active torsions:
  status: ('A' for Active; 'I' for Inactive)
    1  A    between atoms: C_4  and  C_27
    2  A    between atoms: C_7  and  C_10
    3  A    between atoms: C_7  and  O_15
    4  A    between atoms: C_8  and  C_13
    5  A    between atoms: C_10  and  C_25
    6  A    between atoms: C_13  and  C_30
    7  A    between atoms: C_27  and  C_30
                            x       y       z     vdW  Elec       q    Type
                         _______ _______ _______ _____ _____    ______ ____

>  <TORSDO>
F 7

$$$$
=
 OpenBabel11052412213D

 30 33  0  0  1  0  0  0  0  0999 V2000
  188.0600  175.9160  136.9970 C   0  0  0  0  0  0  0  0  0  0  0  0
  186.7840  173.8950  137.5800 O   0  0  0  0  0  0  0  0  0  0  0  0
  185.6240  175.6630  136.2130 C   0  0  1  0  0  0  0  0  0  0  0  0
  187.8550  176.8810  138.1330 C   0  0  2  0  0  3  0  0  0  0  0  0
  189.1450  175.9710  136.2170 C   0  0  0  0  0  2  0  0  0  0  0  0
  185.5860  177.1960  135.9630 C   0  0  2  0  0  3  0  0  0  0  0  0
  184.7380  172.6670  137.3300 C   0  0  0  0  0  2  0  0  0  0  0  0
  186.2080  172.7800  136.9470 C   0  0  0  0  0  2  0  0  0  0  0  0
  183.5440  174.5410  135.1630 C   0  0  0  0  0  1  0  0  0  0  0  0
  184.1000  174.0320  137.6000 C   0  0  0  0  0  2  0  0  0  0  0  0
  186.9380  174.9790  136.6730 C   0  0  1  0  0  0  0  0  0  0  0  0
  187.3010  178.1990  137.6140 C   0  0  0  0  0  2  0  0  0  0  0  0
  186.3280  177.7030  134.7290 C   0  0  0  0  0  1  0  0  0  0  0  0
  185.8280  178.0870  137.1930 C   0  0  2  0  0  3  0  0  0  0  0  0
  184.2360  175.0140  136.4360 C   0  0  1  0  0  3  0  0  0  0  0  0
  186.4880  174.8790  135.2140 C   0  0  0  0  0  2  0  0  0  0  0  0
  184.9070  177.7260  138.3550 C   0  0  0  0  0  2  0  0  0  0  0  0
  184.9410  178.8010  139.4430 C   0  0  2  0  0  3  0  0  0  0  0  0
  184.2640  178.3330  140.7250 C   0  0  0  0  0  1  0  0  0  0  0  0
  184.4830  180.0640  139.0040 O   0  0  0  0  0  0  0  0  0  0  0  0
  183.0790  180.0550  138.9520 C   0  0  0  0  0  1  0  0  0  0  0  0
  189.1140  177.1110  138.9590 C   0  0  0  0  0  2  0  0  0  0  0  0
  188.9920  178.3770  139.7980 C   0  0  0  0  0  2  0  0  0  0  0  0
  188.2420  178.1290  141.1060 C   0  0  0  0  0  2  0  0  0  0  0  0
  188.1680  176.4360  143.2900 S   0  0  0  0  0  0  0  0  0  0  0  0
  189.1210  177.5180  142.1960 C   0  0  2  0  0  3  0  0  0  0  0  0
  190.2530  177.8640  144.0430 N   0  0  0  0  0  2  0  0  0  0  0  0
  189.7410  178.5120  142.9630 O   0  0  0  0  0  0  0  0  0  0  0  0
  188.3690  177.9240  145.4910 N   0  0  0  0  0  1  0  0  0  0  0  0
  189.1800  177.0780  144.6330 C   0  0  1  0  0  3  0  0  0  0  0  0
  1  4  1  0  0  0  0
  3 16  1  6  0  0  0
  3 15  1  0  0  0  0
  3 11  1  0  0  0  0
  4 22  1  6  0  0  0
  5  1  2  0  0  0  0
  6 13  1  6  0  0  0
  6  3  1  0  0  0  0
  6 14  1  0  0  0  0
  7 10  1  0  0  0  0
  8  7  1  0  0  0  0
  8  2  1  0  0  0  0
 11 16  1  6  0  0  0
 11  1  1  0  0  0  0
 11  2  1  0  0  0  0
 12  4  1  0  0  0  0
 14 12  1  0  0  0  0
 14 17  1  1  0  0  0
 15  9  1  6  0  0  0
 15 10  1  0  0  0  0
 17 18  1  0  0  0  0
 18 19  1  1  0  0  0
 20 18  1  0  0  0  0
 21 20  1  0  0  0  0
 22 23  1  0  0  0  0
 23 24  1  0  0  0  0
 25 30  1  0  0  0  0
 26 24  1  6  0  0  0
 26 28  1  0  0  0  0
 26 25  1  0  0  0  0
 27 30  1  0  0  0  0
 28 27  1  0  0  0  0
 30 29  1  1  0  0  0
M  END
>  <MODEL>
2

>  <REMARK>
 VINA RESULT:      -6.5      2.815      6.421
  Name = 
  7 active torsions:
  status: ('A' for Active; 'I' for Inactive)
    1  A    between atoms: C_4  and  C_27
    2  A    between atoms: C_7  and  C_10
    3  A    between atoms: C_7  and  O_15
    4  A    between atoms: C_8  and  C_13
    5  A    between atoms: C_10  and  C_25
    6  A    between atoms: C_13  and  C_30
    7  A    between atoms: C_27  and  C_30
                            x       y       z     vdW  Elec       q    Type
                         _______ _______ _______ _____ _____    ______ ____

>  <TORSDO>
F 7

$$$$
=
 OpenBabel11052412213D

 30 33  0  0  1  0  0  0  0  0999 V2000
  188.2060  175.8560  137.0930 C   0  0  0  0  0  0  0  0  0  0  0  0
  186.7920  173.9340  137.6920 O   0  0  0  0  0  0  0  0  0  0  0  0
  185.7590  175.7670  136.3080 C   0  0  1  0  0  0  0  0  0  0  0  0
  188.0680  176.8420  138.2200 C   0  0  2  0  0  3  0  0  0  0  0  0
  189.2920  175.8280  136.3140 C   0  0  0  0  0  2  0  0  0  0  0  0
  185.8280  177.2960  136.0450 C   0  0  2  0  0  3  0  0  0  0  0  0
  184.6650  172.8500  137.4500 C   0  0  0  0  0  2  0  0  0  0  0  0
  186.1390  172.8570  137.0680 C   0  0  0  0  0  2  0  0  0  0  0  0
  183.6060  174.7830  135.2660 C   0  0  0  0  0  1  0  0  0  0  0  0
  184.1230  174.2580  137.7070 C   0  0  0  0  0  2  0  0  0  0  0  0
  187.0220  174.9960  136.7750 C   0  0  1  0  0  0  0  0  0  0  0  0
  187.6080  178.1920  137.6890 C   0  0  0  0  0  2  0  0  0  0  0  0
  186.6040  177.7390  134.8070 C   0  0  0  0  0  1  0  0  0  0  0  0
  186.1310  178.1790  137.2670 C   0  0  2  0  0  3  0  0  0  0  0  0
  184.3290  175.2180  136.5350 C   0  0  1  0  0  3  0  0  0  0  0  0
  186.5660  174.9150  135.3170 C   0  0  0  0  0  2  0  0  0  0  0  0
  185.1860  177.8940  138.4310 C   0  0  0  0  0  2  0  0  0  0  0  0
  185.2320  179.0160  139.4690 C   0  0  2  0  0  3  0  0  0  0  0  0
  184.9280  178.5050  140.8720 C   0  0  0  0  0  1  0  0  0  0  0  0
  184.4630  180.1470  139.1130 O   0  0  0  0  0  0  0  0  0  0  0  0
  183.1350  179.7500  138.8830 C   0  0  0  0  0  1  0  0  0  0  0  0
  189.3400  176.9910  139.0460 C   0  0  0  0  0  2  0  0  0  0  0  0
  189.0610  177.7310  140.3480 C   0  0  0  0  0  2  0  0  0  0  0  0
  189.4310  176.8960  141.5730 C   0  0  0  0  0  2  0  0  0  0  0  0
  190.4790  178.4440  143.6080 S   0  0  0  0  0  0  0  0  0  0  0  0
  189.0650  177.5700  142.8940 C   0  0  2  0  0  3  0  0  0  0  0  0
  188.5650  177.2960  145.0120 N   0  0  0  0  0  2  0  0  0  0  0  0
  188.5860  176.6380  143.8230 O   0  0  0  0  0  0  0  0  0  0  0  0
  190.7870  176.8870  145.7500 N   0  0  0  0  0  1  0  0  0  0  0  0
  189.8790  177.8860  145.2120 C   0  0  1  0  0  3  0  0  0  0  0  0
  1  4  1  0  0  0  0
  3 16  1  6  0  0  0
  3 15  1  0  0  0  0
  3 11  1  0  0  0  0
  4 22  1  6  0  0  0
  5  1  2  0  0  0  0
  6 13  1  6  0  0  0
  6  3  1  0  0  0  0
  6 14  1  0  0  0  0
  7 10  1  0  0  0  0
  8  7  1  0  0  0  0
  8  2  1  0  0  0  0
 11 16  1  6  0  0  0
 11  1  1  0  0  0  0
 11  2  1  0  0  0  0
 12  4  1  0  0  0  0
 14 12  1  0  0  0  0
 14 17  1  1  0  0  0
 15  9  1  6  0  0  0
 15 10  1  0  0  0  0
 17 18  1  0  0  0  0
 18 19  1  1  0  0  0
 20 18  1  0  0  0  0
 21 20  1  0  0  0  0
 22 23  1  0  0  0  0
 23 24  1  0  0  0  0
 25 30  1  0  0  0  0
 26 24  1  6  0  0  0
 26 25  1  0  0  0  0
 26 28  1  0  0  0  0
 27 30  1  0  0  0  0
 28 27  1  0  0  0  0
 30 29  1  6  0  0  0
M  END
>  <MODEL>
3

>  <REMARK>
 VINA RESULT:      -6.2      2.923      6.426
  Name = 
  7 active torsions:
  status: ('A' for Active; 'I' for Inactive)
    1  A    between atoms: C_4  and  C_27
    2  A    between atoms: C_7  and  C_10
    3  A    between atoms: C_7  and  O_15
    4  A    between atoms: C_8  and  C_13
    5  A    between atoms: C_10  and  C_25
    6  A    between atoms: C_13  and  C_30
    7  A    between atoms: C_27  and  C_30
                            x       y       z     vdW  Elec       q    Type
                         _______ _______ _______ _____ _____    ______ ____

>  <TORSDO>
F 7

$$$$
=
 OpenBabel11052412213D

 30 33  0  0  1  0  0  0  0  0999 V2000
  183.8230  177.8500  139.3150 C   0  0  0  0  0  0  0  0  0  0  0  0
  183.1870  175.5810  138.6070 O   0  0  0  0  0  0  0  0  0  0  0  0
  181.5280  177.4370  138.2300 C   0  0  1  0  0  0  0  0  0  0  0  0
  183.3980  177.9730  140.7520 C   0  0  2  0  0  3  0  0  0  0  0  0
  184.8190  178.5860  138.8120 C   0  0  0  0  0  2  0  0  0  0  0  0
  181.0520  178.7980  138.8100 C   0  0  2  0  0  3  0  0  0  0  0  0
  181.5590  174.1970  137.5160 C   0  0  0  0  0  2  0  0  0  0  0  0
  182.9230  174.8690  137.4240 C   0  0  0  0  0  2  0  0  0  0  0  0
  179.8080  176.5550  136.5120 C   0  0  0  0  0  1  0  0  0  0  0  0
  180.5740  174.9920  138.3770 C   0  0  0  0  0  2  0  0  0  0  0  0
  182.9970  176.9780  138.4200 C   0  0  1  0  0  0  0  0  0  0  0  0
  182.4780  179.1710  140.9320 C   0  0  0  0  0  2  0  0  0  0  0  0
  181.5760  180.0530  138.1160 C   0  0  0  0  0  1  0  0  0  0  0  0
  181.0810  178.9270  140.3420 C   0  0  2  0  0  3  0  0  0  0  0  0
  180.3870  176.4390  137.9170 C   0  0  1  0  0  3  0  0  0  0  0  0
  182.5390  177.5560  137.0800 C   0  0  0  0  0  2  0  0  0  0  0  0
  180.3420  177.7820  141.0290 C   0  0  0  0  0  2  0  0  0  0  0  0
  179.2480  178.3080  141.9590 C   0  0  2  0  0  3  0  0  0  0  0  0
  179.0930  179.8200  141.8570 C   0  0  0  0  0  1  0  0  0  0  0  0
  179.3720  177.8530  143.2920 O   0  0  0  0  0  0  0  0  0  0  0  0
  180.3130  178.6500  143.9670 C   0  0  0  0  0  1  0  0  0  0  0  0
  184.5720  178.0430  141.7210 C   0  0  0  0  0  2  0  0  0  0  0  0
  184.1120  178.4840  143.1050 C   0  0  0  0  0  2  0  0  0  0  0  0
  185.2860  178.8690  144.0040 C   0  0  0  0  0  2  0  0  0  0  0  0
  186.8880  177.8160  145.9950 S   0  0  0  0  0  0  0  0  0  0  0  0
  186.2110  177.6960  144.3210 C   0  0  2  0  0  3  0  0  0  0  0  0
  188.1500  176.7400  143.9440 N   0  0  0  0  0  2  0  0  0  0  0  0
  187.2670  177.6220  143.4040 O   0  0  0  0  0  0  0  0  0  0  0  0
  189.4300  178.2130  145.3000 N   0  0  0  0  0  1  0  0  0  0  0  0
  188.4220  177.1690  145.3070 C   0  0  1  0  0  3  0  0  0  0  0  0
  1  4  1  0  0  0  0
  3 16  1  6  0  0  0
  3 11  1  0  0  0  0
  3  6  1  0  0  0  0
  4 12  1  0  0  0  0
  4 22  1  1  0  0  0
  5  1  2  0  0  0  0
  6 13  1  6  0  0  0
  6 14  1  0  0  0  0
  7 10  1  0  0  0  0
  8  7  1  0  0  0  0
  8  2  1  0  0  0  0
 11 16  1  6  0  0  0
 11  2  1  0  0  0  0
 11  1  1  0  0  0  0
 14 12  1  0  0  0  0
 14 17  1  1  0  0  0
 15  9  1  6  0  0  0
 15  3  1  0  0  0  0
 15 10  1  0  0  0  0
 17 18  1  0  0  0  0
 18 19  1  1  0  0  0
 18 20  1  0  0  0  0
 20 21  1  0  0  0  0
 22 23  1  0  0  0  0
 23 24  1  0  0  0  0
 26 24  1  6  0  0  0
 26 25  1  0  0  0  0
 27 30  1  0  0  0  0
 28 27  1  0  0  0  0
 28 26  1  0  0  0  0
 30 29  1  6  0  0  0
 30 25  1  0  0  0  0
M  END
>  <MODEL>
4

>  <REMARK>
 VINA RESULT:      -6.0      1.823      4.601
  Name = 
  7 active torsions:
  status: ('A' for Active; 'I' for Inactive)
    1  A    between atoms: C_4  and  C_27
    2  A    between atoms: C_7  and  C_10
    3  A    between atoms: C_7  and  O_15
    4  A    between atoms: C_8  and  C_13
    5  A    between atoms: C_10  and  C_25
    6  A    between atoms: C_13  and  C_30
    7  A    between atoms: C_27  and  C_30
                            x       y       z     vdW  Elec       q    Type
                         _______ _______ _______ _____ _____    ______ ____

>  <TORSDO>
F 7

$$$$
=
 OpenBabel11052412213D

 30 33  0  0  1  0  0  0  0  0999 V2000
  190.2890  176.8630  139.3920 C   0  0  0  0  0  0  0  0  0  0  0  0
  190.0810  174.7250  138.1930 O   0  0  0  0  0  0  0  0  0  0  0  0
  189.1440  176.7870  137.0910 C   0  0  1  0  0  0  0  0  0  0  0  0
  189.0730  176.9700  140.2700 C   0  0  2  0  0  3  0  0  0  0  0  0
  191.4290  177.4950  139.6930 C   0  0  0  0  0  2  0  0  0  0  0  0
  188.5040  178.1670  137.4070 C   0  0  2  0  0  3  0  0  0  0  0  0
  189.3960  173.6050  136.1850 C   0  0  0  0  0  2  0  0  0  0  0  0
  190.5620  174.1080  137.0260 C   0  0  0  0  0  2  0  0  0  0  0  0
  188.8110  176.2040  134.5940 C   0  0  0  0  0  1  0  0  0  0  0  0
  188.1450  174.4730  136.3450 C   0  0  0  0  0  2  0  0  0  0  0  0
  190.1420  176.1420  138.0880 C   0  0  1  0  0  0  0  0  0  0  0  0
  188.3230  178.2620  139.9820 C   0  0  0  0  0  2  0  0  0  0  0  0
  189.4280  179.3800  137.3270 C   0  0  0  0  0  1  0  0  0  0  0  0
  187.5830  178.2190  138.6360 C   0  0  2  0  0  3  0  0  0  0  0  0
  188.3820  175.9520  136.0340 C   0  0  1  0  0  3  0  0  0  0  0  0
  190.6570  176.8350  136.8250 C   0  0  0  0  0  2  0  0  0  0  0  0
  186.5020  177.1420  138.5920 C   0  0  0  0  0  2  0  0  0  0  0  0
  185.1570  177.7250  138.1590 C   0  0  2  0  0  3  0  0  0  0  0  0
  184.7720  177.2840  136.7530 C   0  0  0  0  0  1  0  0  0  0  0  0
  185.0590  179.1230  138.3470 O   0  0  0  0  0  0  0  0  0  0  0  0
  183.9240  179.4070  139.1250 C   0  0  0  0  0  1  0  0  0  0  0  0
  189.3920  176.8500  141.7550 C   0  0  0  0  0  2  0  0  0  0  0  0
  188.7400  177.9770  142.5460 C   0  0  0  0  0  2  0  0  0  0  0  0
  189.1930  177.9910  144.0050 C   0  0  0  0  0  2  0  0  0  0  0  0
  186.4740  177.6760  144.3910 S   0  0  0  0  0  0  0  0  0  0  0  0
  188.1670  177.3820  144.9600 C   0  0  2  0  0  3  0  0  0  0  0  0
  187.1940  177.5060  146.9220 N   0  0  0  0  0  2  0  0  0  0  0  0
  188.3110  177.8980  146.2540 O   0  0  0  0  0  0  0  0  0  0  0  0
  185.7320  179.2970  146.3720 N   0  0  0  0  0  1  0  0  0  0  0  0
  186.0430  177.9000  146.1250 C   0  0  1  0  0  3  0  0  0  0  0  0
  1  5  2  0  0  0  0
  1  4  1  0  0  0  0
  3 16  1  6  0  0  0
  3  6  1  0  0  0  0
  3 11  1  0  0  0  0
  4 22  1  1  0  0  0
  6 13  1  1  0  0  0
  6 14  1  0  0  0  0
  7 10  1  0  0  0  0
  7  8  1  0  0  0  0
  8  2  1  0  0  0  0
 11 16  1  6  0  0  0
 11  2  1  0  0  0  0
 11  1  1  0  0  0  0
 12  4  1  0  0  0  0
 14 17  1  1  0  0  0
 14 12  1  0  0  0  0
 15  9  1  6  0  0  0
 15 10  1  0  0  0  0
 15  3  1  0  0  0  0
 18 19  1  6  0  0  0
 18 20  1  0  0  0  0
 18 17  1  0  0  0  0
 20 21  1  0  0  0  0
 22 23  1  0  0  0  0
 23 24  1  0  0  0  0
 25 26  1  0  0  0  0
 25 30  1  0  0  0  0
 26 24  1  6  0  0  0
 26 28  1  0  0  0  0
 28 27  1  0  0  0  0
 30 29  1  6  0  0  0
 30 27  1  0  0  0  0
M  END
>  <MODEL>
5

>  <REMARK>
 VINA RESULT:      -5.9      3.218      7.429
  Name = 
  7 active torsions:
  status: ('A' for Active; 'I' for Inactive)
    1  A    between atoms: C_4  and  C_27
    2  A    between atoms: C_7  and  C_10
    3  A    between atoms: C_7  and  O_15
    4  A    between atoms: C_8  and  C_13
    5  A    between atoms: C_10  and  C_25
    6  A    between atoms: C_13  and  C_30
    7  A    between atoms: C_27  and  C_30
                            x       y       z     vdW  Elec       q    Type
                         _______ _______ _______ _____ _____    ______ ____

>  <TORSDO>
F 7

$$$$
=
 OpenBabel11052412213D

 30 33  0  0  1  0  0  0  0  0999 V2000
  188.8380  176.5320  136.7790 C   0  0  0  0  0  0  0  0  0  0  0  0
  188.0570  174.2380  137.2040 O   0  0  0  0  0  0  0  0  0  0  0  0
  186.4260  175.8650  136.1870 C   0  0  1  0  0  0  0  0  0  0  0  0
  188.5780  177.3030  138.0450 C   0  0  2  0  0  3  0  0  0  0  0  0
  189.7960  176.8970  135.9200 C   0  0  0  0  0  2  0  0  0  0  0  0
  186.0600  177.3750  136.1440 C   0  0  2  0  0  3  0  0  0  0  0  0
  186.2760  172.6460  136.9780 C   0  0  0  0  0  2  0  0  0  0  0  0
  187.6420  173.1050  136.4840 C   0  0  0  0  0  2  0  0  0  0  0  0
  184.5010  174.4560  135.1880 C   0  0  0  0  0  1  0  0  0  0  0  0
  185.4170  173.8100  137.4790 C   0  0  0  0  0  2  0  0  0  0  0  0
  187.8920  175.4240  136.4360 C   0  0  1  0  0  0  0  0  0  0  0  0
  187.7210  178.5260  137.7530 C   0  0  0  0  0  2  0  0  0  0  0  0
  186.5440  178.1570  134.9250 C   0  0  0  0  0  1  0  0  0  0  0  0
  186.2600  178.1560  137.4520 C   0  0  2  0  0  3  0  0  0  0  0  0
  185.2270  174.9210  136.4450 C   0  0  1  0  0  3  0  0  0  0  0  0
  187.3080  175.3920  135.0220 C   0  0  0  0  0  2  0  0  0  0  0  0
  185.5650  177.4870  138.6350 C   0  0  0  0  0  2  0  0  0  0  0  0
  184.6310  178.4610  139.3530 C   0  0  2  0  0  3  0  0  0  0  0  0
  183.5760  179.0320  138.4150 C   0  0  0  0  0  1  0  0  0  0  0  0
  185.3110  179.4560  140.0920 O   0  0  0  0  0  0  0  0  0  0  0  0
  185.5220  178.9950  141.4030 C   0  0  0  0  0  1  0  0  0  0  0  0
  189.8530  177.6980  138.7790 C   0  0  0  0  0  2  0  0  0  0  0  0
  189.9170  177.0400  140.1520 C   0  0  0  0  0  2  0  0  0  0  0  0
  189.1790  177.8540  141.2140 C   0  0  0  0  0  2  0  0  0  0  0  0
  188.2930  176.3790  143.3760 S   0  0  0  0  0  0  0  0  0  0  0  0
  189.5480  177.4560  142.6410 C   0  0  2  0  0  3  0  0  0  0  0  0
  189.7600  178.1050  144.7260 N   0  0  0  0  0  2  0  0  0  0  0  0
  189.7170  178.5830  143.4550 O   0  0  0  0  0  0  0  0  0  0  0  0
  187.4400  178.0830  145.2400 N   0  0  0  0  0  1  0  0  0  0  0  0
  188.5920  177.2600  144.9180 C   0  0  1  0  0  3  0  0  0  0  0  0
  1  4  1  0  0  0  0
  3 16  1  6  0  0  0
  3 11  1  0  0  0  0
  3 15  1  0  0  0  0
  4 22  1  6  0  0  0
  5  1  2  0  0  0  0
  6 13  1  6  0  0  0
  6  3  1  0  0  0  0
  6 14  1  0  0  0  0
  7 10  1  0  0  0  0
  8  7  1  0  0  0  0
  8  2  1  0  0  0  0
 11 16  1  6  0  0  0
 11  1  1  0  0  0  0
 11  2  1  0  0  0  0
 12  4  1  0  0  0  0
 14 12  1  0  0  0  0
 14 17  1  1  0  0  0
 15  9  1  6  0  0  0
 15 10  1  0  0  0  0
 17 18  1  0  0  0  0
 18 19  1  6  0  0  0
 18 20  1  0  0  0  0
 20 21  1  0  0  0  0
 22 23  1  0  0  0  0
 23 24  1  0  0  0  0
 25 30  1  0  0  0  0
 26 24  1  6  0  0  0
 26 25  1  0  0  0  0
 26 28  1  0  0  0  0
 27 30  1  0  0  0  0
 28 27  1  0  0  0  0
 30 29  1  6  0  0  0
M  END
>  <MODEL>
6

>  <REMARK>
 VINA RESULT:      -5.8      3.068      6.816
  Name = 
  7 active torsions:
  status: ('A' for Active; 'I' for Inactive)
    1  A    between atoms: C_4  and  C_27
    2  A    between atoms: C_7  and  C_10
    3  A    between atoms: C_7  and  O_15
    4  A    between atoms: C_8  and  C_13
    5  A    between atoms: C_10  and  C_25
    6  A    between atoms: C_13  and  C_30
    7  A    between atoms: C_27  and  C_30
                            x       y       z     vdW  Elec       q    Type
                         _______ _______ _______ _____ _____    ______ ____

>  <TORSDO>
F 7

$$$$
=
 OpenBabel11052412213D

 30 33  0  0  1  0  0  0  0  0999 V2000
  182.3770  177.4090  137.2260 C   0  0  0  0  0  0  0  0  0  0  0  0
  180.7830  175.8450  138.2570 O   0  0  0  0  0  0  0  0  0  0  0  0
  181.0100  178.1340  139.2800 C   0  0  1  0  0  0  0  0  0  0  0  0
  183.7020  177.1520  137.8900 C   0  0  2  0  0  3  0  0  0  0  0  0
  182.2980  177.9250  135.9950 C   0  0  0  0  0  2  0  0  0  0  0  0
  182.0290  179.2860  139.5030 C   0  0  2  0  0  3  0  0  0  0  0  0
  179.0910  175.5060  139.9240 C   0  0  0  0  0  2  0  0  0  0  0  0
  179.3970  175.7070  138.4460 C   0  0  0  0  0  2  0  0  0  0  0  0
  178.9320  178.4850  140.7790 C   0  0  0  0  0  1  0  0  0  0  0  0
  180.0990  176.2180  140.8300 C   0  0  0  0  0  2  0  0  0  0  0  0
  181.1410  177.2050  138.0450 C   0  0  1  0  0  0  0  0  0  0  0  0
  184.2500  178.4370  138.4930 C   0  0  0  0  0  2  0  0  0  0  0  0
  181.9330  180.4740  138.5490 C   0  0  0  0  0  1  0  0  0  0  0  0
  183.4840  178.8600  139.7570 C   0  0  2  0  0  3  0  0  0  0  0  0
  180.2270  177.7150  140.5470 C   0  0  1  0  0  3  0  0  0  0  0  0
  180.0970  178.3240  138.0590 C   0  0  0  0  0  2  0  0  0  0  0  0
  183.5970  177.8390  140.8850 C   0  0  0  0  0  2  0  0  0  0  0  0
  184.2330  178.4580  142.1310 C   0  0  2  0  0  3  0  0  0  0  0  0
  183.1840  178.9830  143.1020 C   0  0  0  0  0  1  0  0  0  0  0  0
  185.2420  179.4040  141.8400 O   0  0  0  0  0  0  0  0  0  0  0  0
  186.4750  178.7410  141.7120 C   0  0  0  0  0  1  0  0  0  0  0  0
  184.7260  176.5130  136.9590 C   0  0  0  0  0  2  0  0  0  0  0  0
  185.8510  177.4870  136.6350 C   0  0  0  0  0  2  0  0  0  0  0  0
  187.2120  176.7930  136.5780 C   0  0  0  0  0  2  0  0  0  0  0  0
  189.6980  176.6340  137.7750 S   0  0  0  0  0  0  0  0  0  0  0  0
  188.3480  177.6520  137.1300 C   0  0  2  0  0  3  0  0  0  0  0  0
  189.0160  178.9950  138.7300 N   0  0  0  0  0  2  0  0  0  0  0  0
  187.8930  178.5040  138.1440 O   0  0  0  0  0  0  0  0  0  0  0  0
  189.4190  177.2950  140.3410 N   0  0  0  0  0  1  0  0  0  0  0  0
  189.8610  177.8640  139.0800 C   0  0  1  0  0  3  0  0  0  0  0  0
  1  4  1  0  0  0  0
  1 11  1  0  0  0  0
  2  8  1  0  0  0  0
  3 16  1  6  0  0  0
  3  6  1  0  0  0  0
  3 15  1  0  0  0  0
  4 22  1  6  0  0  0
  4 12  1  0  0  0  0
  5  1  2  0  0  0  0
  6 13  1  6  0  0  0
  6 14  1  0  0  0  0
  7 10  1  0  0  0  0
  8  7  1  0  0  0  0
 11 16  1  6  0  0  0
 11  2  1  0  0  0  0
 11  3  1  0  0  0  0
 12 14  1  0  0  0  0
 14 17  1  1  0  0  0
 15  9  1  6  0  0  0
 15 10  1  0  0  0  0
 17 18  1  0  0  0  0
 18 19  1  6  0  0  0
 20 18  1  0  0  0  0
 21 20  1  0  0  0  0
 23 22  1  0  0  0  0
 24 23  1  0  0  0  0
 25 30  1  0  0  0  0
 26 24  1  1  0  0  0
 26 25  1  0  0  0  0
 26 28  1  0  0  0  0
 27 30  1  0  0  0  0
 28 27  1  0  0  0  0
 30 29  1  1  0  0  0
M  END
>  <MODEL>
7

>  <REMARK>
 VINA RESULT:      -5.8      2.775      5.297
  Name = 
  7 active torsions:
  status: ('A' for Active; 'I' for Inactive)
    1  A    between atoms: C_4  and  C_27
    2  A    between atoms: C_7  and  C_10
    3  A    between atoms: C_7  and  O_15
    4  A    between atoms: C_8  and  C_13
    5  A    between atoms: C_10  and  C_25
    6  A    between atoms: C_13  and  C_30
    7  A    between atoms: C_27  and  C_30
                            x       y       z     vdW  Elec       q    Type
                         _______ _______ _______ _____ _____    ______ ____

>  <TORSDO>
F 7

$$$$
=
 OpenBabel11052412213D

 30 33  0  0  1  0  0  0  0  0999 V2000
  190.0880  176.8740  139.1230 C   0  0  0  0  0  0  0  0  0  0  0  0
  189.5830  174.7520  137.9840 O   0  0  0  0  0  0  0  0  0  0  0  0
  188.6170  176.8660  137.0140 C   0  0  1  0  0  0  0  0  0  0  0  0
  189.0210  177.0510  140.1680 C   0  0  2  0  0  3  0  0  0  0  0  0
  191.2950  177.4370  139.2490 C   0  0  0  0  0  2  0  0  0  0  0  0
  188.1120  178.2810  137.4080 C   0  0  2  0  0  3  0  0  0  0  0  0
  188.5480  173.6750  136.1060 C   0  0  0  0  0  2  0  0  0  0  0  0
  189.8520  174.1080  136.7640 C   0  0  0  0  0  2  0  0  0  0  0  0
  187.8900  176.3050  134.5960 C   0  0  0  0  0  1  0  0  0  0  0  0
  187.3870  174.6160  136.4390 C   0  0  0  0  0  2  0  0  0  0  0  0
  189.7110  176.1630  137.8600 C   0  0  1  0  0  0  0  0  0  0  0  0
  188.3150  178.3850  139.9810 C   0  0  0  0  0  2  0  0  0  0  0  0
  189.0840  179.4370  137.1850 C   0  0  0  0  0  1  0  0  0  0  0  0
  187.3840  178.3870  138.7580 C   0  0  2  0  0  3  0  0  0  0  0  0
  187.6610  176.0780  136.0860 C   0  0  1  0  0  3  0  0  0  0  0  0
  190.0750  176.8250  136.5300 C   0  0  0  0  0  2  0  0  0  0  0  0
  186.2480  177.3750  138.8800 C   0  0  0  0  0  2  0  0  0  0  0  0
  184.8840  178.0580  138.7630 C   0  0  2  0  0  3  0  0  0  0  0  0
  184.1860  177.7110  137.4550 C   0  0  0  0  0  1  0  0  0  0  0  0
  184.9230  179.4470  139.0190 O   0  0  0  0  0  0  0  0  0  0  0  0
  183.6150  179.9600  138.9900 C   0  0  0  0  0  1  0  0  0  0  0  0
  189.5460  176.9120  141.5920 C   0  0  0  0  0  2  0  0  0  0  0  0
  189.1290  178.1020  142.4450 C   0  0  0  0  0  2  0  0  0  0  0  0
  190.0470  178.2920  143.6530 C   0  0  0  0  0  2  0  0  0  0  0  0
  188.1470  177.5260  145.5090 S   0  0  0  0  0  0  0  0  0  0  0  0
  189.7830  177.2870  144.7720 C   0  0  2  0  0  3  0  0  0  0  0  0
  190.2650  176.6570  146.8180 N   0  0  0  0  0  2  0  0  0  0  0  0
  190.7540  177.3800  145.7760 O   0  0  0  0  0  0  0  0  0  0  0  0
  188.9750  178.3270  147.9120 N   0  0  0  0  0  1  0  0  0  0  0  0
  188.9170  177.1320  147.0880 C   0  0  1  0  0  3  0  0  0  0  0  0
  1  5  2  0  0  0  0
  1  4  1  0  0  0  0
  3 16  1  6  0  0  0
  3  6  1  0  0  0  0
  3 11  1  0  0  0  0
  4 22  1  1  0  0  0
  6 13  1  1  0  0  0
  6 14  1  0  0  0  0
  7 10  1  0  0  0  0
  7  8  1  0  0  0  0
  8  2  1  0  0  0  0
 11 16  1  6  0  0  0
 11  2  1  0  0  0  0
 11  1  1  0  0  0  0
 12  4  1  0  0  0  0
 14 17  1  1  0  0  0
 14 12  1  0  0  0  0
 15  9  1  6  0  0  0
 15 10  1  0  0  0  0
 15  3  1  0  0  0  0
 18 19  1  6  0  0  0
 18 17  1  0  0  0  0
 18 20  1  0  0  0  0
 21 20  1  0  0  0  0
 22 23  1  0  0  0  0
 23 24  1  0  0  0  0
 25 30  1  0  0  0  0
 26 24  1  6  0  0  0
 26 25  1  0  0  0  0
 26 28  1  0  0  0  0
 27 30  1  0  0  0  0
 28 27  1  0  0  0  0
 30 29  1  1  0  0  0
M  END
>  <MODEL>
8

>  <REMARK>
 VINA RESULT:      -5.7      3.395      7.223
  Name = 
  7 active torsions:
  status: ('A' for Active; 'I' for Inactive)
    1  A    between atoms: C_4  and  C_27
    2  A    between atoms: C_7  and  C_10
    3  A    between atoms: C_7  and  O_15
    4  A    between atoms: C_8  and  C_13
    5  A    between atoms: C_10  and  C_25
    6  A    between atoms: C_13  and  C_30
    7  A    between atoms: C_27  and  C_30
                            x       y       z     vdW  Elec       q    Type
                         _______ _______ _______ _____ _____    ______ ____

>  <TORSDO>
F 7

$$$$
=
 OpenBabel11052412213D

 30 33  0  0  1  0  0  0  0  0999 V2000
  183.2090  177.1730  136.7820 C   0  0  0  0  0  0  0  0  0  0  0  0
  181.9280  175.2090  137.5270 O   0  0  0  0  0  0  0  0  0  0  0  0
  181.3350  177.4440  138.5220 C   0  0  1  0  0  0  0  0  0  0  0  0
  184.4040  177.2610  137.6910 C   0  0  2  0  0  3  0  0  0  0  0  0
  183.2280  177.6850  135.5470 C   0  0  0  0  0  2  0  0  0  0  0  0
  181.9460  178.8200  138.9090 C   0  0  2  0  0  3  0  0  0  0  0  0
  180.1060  174.3800  138.8490 C   0  0  0  0  0  2  0  0  0  0  0  0
  180.6210  174.6990  137.4520 C   0  0  0  0  0  2  0  0  0  0  0  0
  178.9940  177.1800  139.5910 C   0  0  0  0  0  1  0  0  0  0  0  0
  180.6960  175.3080  139.9140 C   0  0  0  0  0  2  0  0  0  0  0  0
  181.9410  176.6200  137.3560 C   0  0  1  0  0  0  0  0  0  0  0  0
  184.4620  178.6270  138.3580 C   0  0  0  0  0  2  0  0  0  0  0  0
  181.7160  179.9660  137.9270 C   0  0  0  0  0  1  0  0  0  0  0  0
  183.3870  178.7920  139.4430 C   0  0  2  0  0  3  0  0  0  0  0  0
  180.4680  176.7930  139.6270 C   0  0  1  0  0  3  0  0  0  0  0  0
  180.6520  177.4180  137.1450 C   0  0  0  0  0  2  0  0  0  0  0  0
  183.5540  177.8060  140.5960 C   0  0  0  0  0  2  0  0  0  0  0  0
  184.3760  178.4160  141.7320 C   0  0  2  0  0  3  0  0  0  0  0  0
  183.4930  178.9120  142.8690 C   0  0  0  0  0  1  0  0  0  0  0  0
  185.3140  179.3800  141.2970 O   0  0  0  0  0  0  0  0  0  0  0  0
  186.5920  179.0240  141.7600 C   0  0  0  0  0  1  0  0  0  0  0  0
  185.7180  176.9470  136.9860 C   0  0  0  0  0  2  0  0  0  0  0  0
  186.9030  177.1780  137.9150 C   0  0  0  0  0  2  0  0  0  0  0  0
  188.0230  177.9640  137.2320 C   0  0  0  0  0  2  0  0  0  0  0  0
  190.1380  176.4610  136.2800 S   0  0  0  0  0  0  0  0  0  0  0  0
  189.4190  177.4670  137.6020 C   0  0  2  0  0  3  0  0  0  0  0  0
  190.6070  176.1100  138.8510 N   0  0  0  0  0  2  0  0  0  0  0  0
  189.3920  176.7170  138.7840 O   0  0  0  0  0  0  0  0  0  0  0  0
  190.1560  174.1430  137.5950 N   0  0  0  0  0  1  0  0  0  0  0  0
  190.8290  175.4300  137.5840 C   0  0  1  0  0  3  0  0  0  0  0  0
  1 11  1  0  0  0  0
  1  4  1  0  0  0  0
  3 16  1  6  0  0  0
  3  6  1  0  0  0  0
  3 15  1  0  0  0  0
  4 22  1  6  0  0  0
  4 12  1  0  0  0  0
  5  1  2  0  0  0  0
  6 13  1  6  0  0  0
  6 14  1  0  0  0  0
  7 10  1  0  0  0  0
  8  2  1  0  0  0  0
  8  7  1  0  0  0  0
 11 16  1  6  0  0  0
 11  2  1  0  0  0  0
 11  3  1  0  0  0  0
 12 14  1  0  0  0  0
 14 17  1  1  0  0  0
 15  9  1  6  0  0  0
 15 10  1  0  0  0  0
 17 18  1  0  0  0  0
 18 19  1  1  0  0  0
 20 18  1  0  0  0  0
 20 21  1  0  0  0  0
 22 23  1  0  0  0  0
 24 23  1  0  0  0  0
 25 30  1  0  0  0  0
 25 26  1  0  0  0  0
 26 24  1  6  0  0  0
 26 28  1  0  0  0  0
 28 27  1  0  0  0  0
 30 29  1  1  0  0  0
 30 27  1  0  0  0  0
M  END
>  <MODEL>
9

>  <REMARK>
 VINA RESULT:      -5.1      3.269      5.754
  Name = 
  7 active torsions:
  status: ('A' for Active; 'I' for Inactive)
    1  A    between atoms: C_4  and  C_27
    2  A    between atoms: C_7  and  C_10
    3  A    between atoms: C_7  and  O_15
    4  A    between atoms: C_8  and  C_13
    5  A    between atoms: C_10  and  C_25
    6  A    between atoms: C_13  and  C_30
    7  A    between atoms: C_27  and  C_30
                            x       y       z     vdW  Elec       q    Type
                         _______ _______ _______ _____ _____    ______ ____

>  <TORSDO>
F 7

$$$$
