=
 OpenBabel11052415533D

 34 39  0  0  1  0  0  0  0  0999 V2000
  188.7950  178.0370  141.0870 C   0  0  0  0  0  0  0  0  0  0  0  0
  190.4750  176.0610  139.1090 C   0  0  0  0  0  2  0  0  0  0  0  0
  191.6570  177.6070  140.7070 C   0  0  0  0  0  2  0  0  0  0  0  0
  187.6340  177.5330  143.5630 N   0  0  0  0  0  0  0  0  0  0  0  0
  187.4410  178.3170  141.3170 C   0  0  0  0  0  3  0  0  0  0  0  0
  188.9560  177.2720  143.3910 C   0  0  0  0  0  0  0  0  0  0  0  0
  191.0700  176.4970  144.2820 C   0  0  0  0  0  3  0  0  0  0  0  0
  189.7050  176.7510  144.4490 C   0  0  0  0  0  3  0  0  0  0  0  0
  186.8630  178.0530  142.5670 C   0  0  0  0  0  0  0  0  0  0  0  0
  190.9500  177.2720  141.9870 C   0  0  0  0  0  0  0  0  0  0  0  0
  189.5730  177.5330  142.1480 C   0  0  0  0  0  0  0  0  0  0  0  0
  191.6900  176.7630  143.0580 C   0  0  0  0  0  3  0  0  0  0  0  0
  189.6190  175.8760  137.8510 C   0  0  0  0  0  2  0  0  0  0  0  0
  189.8130  176.9990  136.8270 C   0  0  2  0  0  3  0  0  0  0  0  0
  189.0800  178.3050  137.2010 C   0  0  0  0  0  2  0  0  0  0  0  0
  190.7160  177.5260  139.5050 C   0  0  2  0  0  3  0  0  0  0  0  0
  188.4240  178.2920  138.5870 C   0  0  0  0  0  2  0  0  0  0  0  0
  189.4330  178.3530  139.7480 C   0  0  1  0  0  3  0  0  0  0  0  0
  183.6110  178.9030  144.3490 C   0  0  0  0  0  3  0  0  0  0  0  0
  184.5160  178.2900  141.7410 C   0  0  0  0  0  3  0  0  0  0  0  0
  180.8870  178.8590  141.6000 C   0  0  0  0  0  0  0  0  0  0  0  0
  181.0840  179.1230  143.2610 S   0  0  0  0  0  0  0  0  0  0  0  0
  182.7380  178.8530  143.2680 C   0  0  0  0  0  0  0  0  0  0  0  0
  182.1360  178.5540  141.0340 C   0  0  0  0  0  0  0  0  0  0  0  0
  183.1670  178.5540  141.9840 C   0  0  0  0  0  0  0  0  0  0  0  0
  182.4100  178.2050  139.3310 Cl  0  0  0  0  0  0  0  0  0  0  0  0
  185.4320  178.3310  142.8110 C   0  0  0  0  0  0  0  0  0  0  0  0
  184.9670  178.6390  144.1110 C   0  0  0  0  0  3  0  0  0  0  0  0
  179.5920  178.9480  140.9070 C   0  0  0  0  0  0  0  0  0  0  0  0
  178.9680  177.9100  140.5650 O   0  0  0  0  0  0  0  0  0  0  0  0
  179.0450  180.1930  140.6230 O   0  0  0  0  0  1  0  0  0  0  0  0
  189.3470  176.5170  135.4640 C   0  0  0  0  0  2  0  0  0  0  0  0
  188.2560  175.4740  135.6160 C   0  0  0  0  0  2  0  0  0  0  0  0
  186.9280  176.0700  135.1990 C   0  0  0  0  0  1  0  0  0  0  0  0
  1  5  2  0  0  0  0
  1 11  1  0  0  0  0
  3 10  1  0  0  0  0
  5  9  1  0  0  0  0
  6  4  1  0  0  0  0
  6  8  1  0  0  0  0
  7  8  2  0  0  0  0
  9 27  1  0  0  0  0
  9  4  2  0  0  0  0
 10 11  1  0  0  0  0
 10 12  2  0  0  0  0
 11  6  2  0  0  0  0
 12  7  1  0  0  0  0
 13  2  1  0  0  0  0
 14 32  1  6  0  0  0
 14 15  1  0  0  0  0
 14 13  1  0  0  0  0
 15 17  1  0  0  0  0
 16  2  1  1  0  0  0
 16 18  1  0  0  0  0
 16  3  1  0  0  0  0
 18 17  1  6  0  0  0
 18  1  1  0  0  0  0
 20 25  2  0  0  0  0
 20 27  1  0  0  0  0
 21 22  1  0  0  0  0
 22 23  1  0  0  0  0
 23 19  2  0  0  0  0
 24 21  2  0  0  0  0
 24 25  1  0  0  0  0
 25 23  1  0  0  0  0
 26 24  1  0  0  0  0
 27 28  2  0  0  0  0
 28 19  1  0  0  0  0
 29 21  1  0  0  0  0
 30 29  2  0  0  0  0
 31 29  1  0  0  0  0
 32 33  1  0  0  0  0
 34 33  1  0  0  0  0
M  END
>  <MODEL>
1

>  <REMARK>
 VINA RESULT:      -9.3      0.000      0.000
  Name = 
  4 active torsions:
  status: ('A' for Active; 'I' for Inactive)
    1  A    between atoms: C_3  and  C_13
    2  A    between atoms: C_3  and  C_25
    3  A    between atoms: C_7  and  C_11
    4  A    between atoms: C_18  and  C_30
                            x       y       z     vdW  Elec       q    Type
                         _______ _______ _______ _____ _____    ______ ____

>  <TORSDO>
F 4

$$$$
=
 OpenBabel11052415533D

 34 39  0  0  1  0  0  0  0  0999 V2000
  188.7190  177.3970  138.5970 C   0  0  0  0  0  0  0  0  0  0  0  0
  186.7040  175.9790  136.4600 C   0  0  0  0  0  2  0  0  0  0  0  0
  188.6460  177.3770  135.6790 C   0  0  0  0  0  2  0  0  0  0  0  0
  190.9290  176.3670  139.9350 N   0  0  0  0  0  0  0  0  0  0  0  0
  188.8150  177.4730  139.9930 C   0  0  0  0  0  3  0  0  0  0  0  0
  190.8890  176.2950  138.5800 C   0  0  0  0  0  0  0  0  0  0  0  0
  191.9180  175.6450  136.4870 C   0  0  0  0  0  3  0  0  0  0  0  0
  191.9460  175.7050  137.8830 C   0  0  0  0  0  3  0  0  0  0  0  0
  189.9290  176.9450  140.6590 C   0  0  0  0  0  0  0  0  0  0  0  0
  189.7640  176.7590  136.4660 C   0  0  0  0  0  0  0  0  0  0  0  0
  189.7850  176.8250  137.8740 C   0  0  0  0  0  0  0  0  0  0  0  0
  190.8350  176.1760  135.7820 C   0  0  0  0  0  3  0  0  0  0  0  0
  185.3330  175.8980  137.1430 C   0  0  0  0  0  2  0  0  0  0  0  0
  184.5170  177.1870  136.9980 C   0  0  2  0  0  3  0  0  0  0  0  0
  184.9820  178.3180  137.9380 C   0  0  0  0  0  2  0  0  0  0  0  0
  187.3360  177.3790  136.4660 C   0  0  2  0  0  3  0  0  0  0  0  0
  186.2570  178.0050  138.7300 C   0  0  0  0  0  2  0  0  0  0  0  0
  187.5320  177.9980  137.8690 C   0  0  1  0  0  3  0  0  0  0  0  0
  191.3610  176.8300  144.1820 C   0  0  0  0  0  3  0  0  0  0  0  0
  188.8850  177.3050  142.9010 C   0  0  0  0  0  3  0  0  0  0  0  0
  188.3880  177.6230  146.5290 C   0  0  0  0  0  0  0  0  0  0  0  0
  190.0410  177.2590  146.5680 S   0  0  0  0  0  0  0  0  0  0  0  0
  190.2110  177.1260  144.9060 C   0  0  0  0  0  0  0  0  0  0  0  0
  187.9550  177.6420  145.1930 C   0  0  0  0  0  0  0  0  0  0  0  0
  188.9910  177.3610  144.2930 C   0  0  0  0  0  0  0  0  0  0  0  0
  186.3060  177.9770  144.6760 Cl  0  0  0  0  0  0  0  0  0  0  0  0
  190.0280  177.0080  142.1320 C   0  0  0  0  0  0  0  0  0  0  0  0
  191.2610  176.7720  142.7850 C   0  0  0  0  0  3  0  0  0  0  0  0
  187.5780  177.8720  147.7330 C   0  0  0  0  0  0  0  0  0  0  0  0
  187.9550  177.4630  148.8620 O   0  0  0  0  0  1  0  0  0  0  0  0
  186.3800  178.5670  147.6280 O   0  0  0  0  0  0  0  0  0  0  0  0
  183.0510  176.8780  137.2440 C   0  0  0  0  0  2  0  0  0  0  0  0
  182.9090  175.6780  138.1620 C   0  0  0  0  0  2  0  0  0  0  0  0
  182.3980  176.1350  139.5120 C   0  0  0  0  0  1  0  0  0  0  0  0
  1  5  1  0  0  0  0
  2 16  1  0  0  0  0
  2 13  1  0  0  0  0
  3 10  1  0  0  0  0
  4  9  1  0  0  0  0
  5  9  2  0  0  0  0
  6  4  2  0  0  0  0
  7  8  2  0  0  0  0
  8  6  1  0  0  0  0
  9 27  1  0  0  0  0
 10 11  1  0  0  0  0
 11  6  1  0  0  0  0
 11  1  2  0  0  0  0
 12 10  2  0  0  0  0
 12  7  1  0  0  0  0
 14 13  1  0  0  0  0
 14 32  1  1  0  0  0
 14 15  1  0  0  0  0
 15 17  1  0  0  0  0
 16  3  1  1  0  0  0
 16 18  1  0  0  0  0
 18  1  1  0  0  0  0
 18 17  1  1  0  0  0
 19 23  1  0  0  0  0
 20 25  1  0  0  0  0
 21 22  1  0  0  0  0
 21 29  1  0  0  0  0
 23 22  1  0  0  0  0
 24 21  2  0  0  0  0
 25 23  2  0  0  0  0
 25 24  1  0  0  0  0
 26 24  1  0  0  0  0
 27 28  1  0  0  0  0
 27 20  2  0  0  0  0
 28 19  2  0  0  0  0
 29 30  1  0  0  0  0
 31 29  2  0  0  0  0
 32 33  1  0  0  0  0
 33 34  1  0  0  0  0
M  END
>  <MODEL>
2

>  <REMARK>
 VINA RESULT:      -9.0      4.032      6.554
  Name = 
  4 active torsions:
  status: ('A' for Active; 'I' for Inactive)
    1  A    between atoms: C_3  and  C_13
    2  A    between atoms: C_3  and  C_25
    3  A    between atoms: C_7  and  C_11
    4  A    between atoms: C_18  and  C_30
                            x       y       z     vdW  Elec       q    Type
                         _______ _______ _______ _____ _____    ______ ____

>  <TORSDO>
F 4

$$$$
=
 OpenBabel11052415533D

 34 39  0  0  1  0  0  0  0  0999 V2000
  181.8400  178.9060  140.7270 C   0  0  0  0  0  0  0  0  0  0  0  0
  179.8360  181.2270  139.6150 C   0  0  0  0  0  2  0  0  0  0  0  0
  178.9310  179.0800  140.5670 C   0  0  0  0  0  2  0  0  0  0  0  0
  183.0780  178.6410  143.2030 N   0  0  0  0  0  0  0  0  0  0  0  0
  183.2280  178.7350  140.8230 C   0  0  0  0  0  3  0  0  0  0  0  0
  181.7280  178.7780  143.1550 C   0  0  0  0  0  0  0  0  0  0  0  0
  179.5960  178.9140  144.2940 C   0  0  0  0  0  3  0  0  0  0  0  0
  180.9870  178.7910  144.3390 C   0  0  0  0  0  3  0  0  0  0  0  0
  183.8440  178.6100  142.0760 C   0  0  0  0  0  0  0  0  0  0  0  0
  179.6680  179.0250  141.8720 C   0  0  0  0  0  0  0  0  0  0  0  0
  181.0730  178.8990  141.9100 C   0  0  0  0  0  0  0  0  0  0  0  0
  178.9390  179.0240  143.0650 C   0  0  0  0  0  3  0  0  0  0  0  0
  180.5910  181.9520  138.4950 C   0  0  0  0  0  2  0  0  0  0  0  0
  180.4660  181.2500  137.1380 C   0  0  2  0  0  3  0  0  0  0  0  0
  181.3610  180.0000  137.0090 C   0  0  0  0  0  2  0  0  0  0  0  0
  179.7840  179.6990  139.4620 C   0  0  2  0  0  3  0  0  0  0  0  0
  182.0910  179.6020  138.2970 C   0  0  0  0  0  2  0  0  0  0  0  0
  181.1640  179.0070  139.3730 C   0  0  1  0  0  3  0  0  0  0  0  0
  187.5350  178.5150  141.1600 C   0  0  0  0  0  3  0  0  0  0  0  0
  185.8840  178.0610  143.4110 C   0  0  0  0  0  3  0  0  0  0  0  0
  189.3740  177.4700  144.4020 C   0  0  0  0  0  0  0  0  0  0  0  0
  189.6730  177.8790  142.7870 S   0  0  0  0  0  0  0  0  0  0  0  0
  188.0660  178.1340  142.3890 C   0  0  0  0  0  0  0  0  0  0  0  0
  187.9910  177.5340  144.6410 C   0  0  0  0  0  0  0  0  0  0  0  0
  187.2690  177.9080  143.5000 C   0  0  0  0  0  0  0  0  0  0  0  0
  187.2210  177.1880  146.1860 Cl  0  0  0  0  0  0  0  0  0  0  0  0
  185.3080  178.4450  142.1840 C   0  0  0  0  0  0  0  0  0  0  0  0
  186.1450  178.6700  141.0650 C   0  0  0  0  0  3  0  0  0  0  0  0
  190.4300  177.1140  145.3640 C   0  0  0  0  0  0  0  0  0  0  0  0
  190.2400  177.2200  146.6030 O   0  0  0  0  0  1  0  0  0  0  0  0
  191.6560  176.6520  144.9020 O   0  0  0  0  0  0  0  0  0  0  0  0
  180.7940  182.2380  136.0340 C   0  0  0  0  0  2  0  0  0  0  0  0
  181.0020  183.6260  136.6090 C   0  0  0  0  0  2  0  0  0  0  0  0
  180.8590  184.6550  135.5070 C   0  0  0  0  0  1  0  0  0  0  0  0
  1  5  2  0  0  0  0
  1 11  1  0  0  0  0
  3 10  1  0  0  0  0
  5  9  1  0  0  0  0
  6  4  1  0  0  0  0
  6  8  1  0  0  0  0
  7  8  2  0  0  0  0
  9 27  1  0  0  0  0
  9  4  2  0  0  0  0
 10 11  1  0  0  0  0
 10 12  2  0  0  0  0
 11  6  2  0  0  0  0
 12  7  1  0  0  0  0
 13  2  1  0  0  0  0
 14 32  1  6  0  0  0
 14 13  1  0  0  0  0
 15 14  1  0  0  0  0
 15 17  1  0  0  0  0
 16  2  1  1  0  0  0
 16  3  1  0  0  0  0
 18 17  1  6  0  0  0
 18 16  1  0  0  0  0
 18  1  1  0  0  0  0
 19 23  1  0  0  0  0
 20 25  1  0  0  0  0
 21 24  2  0  0  0  0
 21 29  1  0  0  0  0
 22 21  1  0  0  0  0
 23 22  1  0  0  0  0
 23 25  2  0  0  0  0
 24 26  1  0  0  0  0
 25 24  1  0  0  0  0
 27 20  2  0  0  0  0
 28 19  2  0  0  0  0
 28 27  1  0  0  0  0
 29 30  1  0  0  0  0
 31 29  2  0  0  0  0
 32 33  1  0  0  0  0
 34 33  1  0  0  0  0
M  END
>  <MODEL>
3

>  <REMARK>
 VINA RESULT:      -8.9      4.815      9.024
  Name = 
  4 active torsions:
  status: ('A' for Active; 'I' for Inactive)
    1  A    between atoms: C_3  and  C_13
    2  A    between atoms: C_3  and  C_25
    3  A    between atoms: C_7  and  C_11
    4  A    between atoms: C_18  and  C_30
                            x       y       z     vdW  Elec       q    Type
                         _______ _______ _______ _____ _____    ______ ____

>  <TORSDO>
F 4

$$$$
=
 OpenBabel11052415533D

 34 39  0  0  1  0  0  0  0  0999 V2000
  187.8750  177.8870  138.5110 C   0  0  0  0  0  0  0  0  0  0  0  0
  185.4870  176.5420  136.7430 C   0  0  0  0  0  2  0  0  0  0  0  0
  187.1760  178.0780  135.6830 C   0  0  0  0  0  2  0  0  0  0  0  0
  190.3480  176.8610  139.2610 N   0  0  0  0  0  0  0  0  0  0  0  0
  188.2660  177.8640  139.8570 C   0  0  0  0  0  3  0  0  0  0  0  0
  190.0190  176.8870  137.9440 C   0  0  0  0  0  0  0  0  0  0  0  0
  190.5920  176.4380  135.6340 C   0  0  0  0  0  3  0  0  0  0  0  0
  190.9170  176.3960  136.9930 C   0  0  0  0  0  3  0  0  0  0  0  0
  189.5120  177.3390  140.2260 C   0  0  0  0  0  0  0  0  0  0  0  0
  188.4530  177.4540  136.1620 C   0  0  0  0  0  0  0  0  0  0  0  0
  188.7760  177.4170  137.5350 C   0  0  0  0  0  0  0  0  0  0  0  0
  189.3680  176.9710  135.2210 C   0  0  0  0  0  3  0  0  0  0  0  0
  184.2980  176.3500  137.6930 C   0  0  0  0  0  2  0  0  0  0  0  0
  183.4340  177.6080  137.8290 C   0  0  2  0  0  3  0  0  0  0  0  0
  184.0590  178.6880  138.7380 C   0  0  0  0  0  2  0  0  0  0  0  0
  186.0670  177.9650  136.7280 C   0  0  2  0  0  3  0  0  0  0  0  0
  185.4820  178.3740  139.2130 C   0  0  0  0  0  2  0  0  0  0  0  0
  186.5430  178.4870  138.1030 C   0  0  1  0  0  3  0  0  0  0  0  0
  191.6800  177.0860  143.3420 C   0  0  0  0  0  3  0  0  0  0  0  0
  188.9560  177.4300  142.6610 C   0  0  0  0  0  3  0  0  0  0  0  0
  189.2370  177.4230  146.3260 C   0  0  0  0  0  0  0  0  0  0  0  0
  190.8810  177.2090  145.9820 S   0  0  0  0  0  0  0  0  0  0  0  0
  190.6960  177.2190  144.3160 C   0  0  0  0  0  0  0  0  0  0  0  0
  188.5240  177.5050  145.1190 C   0  0  0  0  0  0  0  0  0  0  0  0
  189.3580  177.3880  143.9980 C   0  0  0  0  0  0  0  0  0  0  0  0
  186.7830  177.7260  144.9930 Cl  0  0  0  0  0  0  0  0  0  0  0  0
  189.9230  177.2980  141.6450 C   0  0  0  0  0  0  0  0  0  0  0  0
  191.2820  177.1260  141.9980 C   0  0  0  0  0  3  0  0  0  0  0  0
  188.6930  177.5040  147.6910 C   0  0  0  0  0  0  0  0  0  0  0  0
  187.9650  176.5870  148.1530 O   0  0  0  0  0  0  0  0  0  0  0  0
  188.9830  178.6050  148.4860 O   0  0  0  0  0  1  0  0  0  0  0  0
  182.0650  177.2180  138.3550 C   0  0  0  0  0  2  0  0  0  0  0  0
  181.5250  178.2940  139.2780 C   0  0  0  0  0  2  0  0  0  0  0  0
  181.0630  177.6610  140.5740 C   0  0  0  0  0  1  0  0  0  0  0  0
  1  5  1  0  0  0  0
  2 13  1  0  0  0  0
  3 10  1  0  0  0  0
  4  9  1  0  0  0  0
  5  9  2  0  0  0  0
  6  4  2  0  0  0  0
  7  8  2  0  0  0  0
  8  6  1  0  0  0  0
  9 27  1  0  0  0  0
 10 11  1  0  0  0  0
 11  6  1  0  0  0  0
 11  1  2  0  0  0  0
 12  7  1  0  0  0  0
 12 10  2  0  0  0  0
 13 14  1  0  0  0  0
 14 32  1  1  0  0  0
 14 15  1  0  0  0  0
 15 17  1  0  0  0  0
 16  3  1  6  0  0  0
 16  2  1  0  0  0  0
 16 18  1  0  0  0  0
 18  1  1  0  0  0  0
 18 17  1  1  0  0  0
 19 23  1  0  0  0  0
 20 25  1  0  0  0  0
 21 29  1  0  0  0  0
 22 21  1  0  0  0  0
 23 22  1  0  0  0  0
 24 21  2  0  0  0  0
 25 23  2  0  0  0  0
 25 24  1  0  0  0  0
 26 24  1  0  0  0  0
 27 28  1  0  0  0  0
 27 20  2  0  0  0  0
 28 19  2  0  0  0  0
 29 30  2  0  0  0  0
 29 31  1  0  0  0  0
 32 33  1  0  0  0  0
 33 34  1  0  0  0  0
M  END
>  <MODEL>
4

>  <REMARK>
 VINA RESULT:      -8.6      4.191      7.229
  Name = 
  4 active torsions:
  status: ('A' for Active; 'I' for Inactive)
    1  A    between atoms: C_3  and  C_13
    2  A    between atoms: C_3  and  C_25
    3  A    between atoms: C_7  and  C_11
    4  A    between atoms: C_18  and  C_30
                            x       y       z     vdW  Elec       q    Type
                         _______ _______ _______ _____ _____    ______ ____

>  <TORSDO>
F 4

$$$$
=
 OpenBabel11052415533D

 34 39  0  0  1  0  0  0  0  0999 V2000
  188.4310  177.2230  142.4790 C   0  0  0  0  0  0  0  0  0  0  0  0
  190.7960  178.1860  144.5080 C   0  0  0  0  0  2  0  0  0  0  0  0
  191.1770  176.3140  142.8690 C   0  0  0  0  0  2  0  0  0  0  0  0
  187.6490  178.2540  140.0180 N   0  0  0  0  0  0  0  0  0  0  0  0
  187.0980  177.5870  142.2420 C   0  0  0  0  0  3  0  0  0  0  0  0
  188.9450  177.8900  140.1960 C   0  0  0  0  0  0  0  0  0  0  0  0
  191.1920  177.6550  139.3250 C   0  0  0  0  0  3  0  0  0  0  0  0
  189.8610  178.0440  139.1530 C   0  0  0  0  0  3  0  0  0  0  0  0
  186.7150  178.1120  141.0000 C   0  0  0  0  0  0  0  0  0  0  0  0
  190.7100  176.9610  141.5990 C   0  0  0  0  0  0  0  0  0  0  0  0
  189.3650  177.3500  141.4320 C   0  0  0  0  0  0  0  0  0  0  0  0
  191.6120  177.1090  140.5410 C   0  0  0  0  0  3  0  0  0  0  0  0
  190.1000  178.7060  145.7720 C   0  0  0  0  0  2  0  0  0  0  0  0
  189.7570  177.5910  146.7650 C   0  0  2  0  0  3  0  0  0  0  0  0
  188.5200  176.7620  146.3560 C   0  0  0  0  0  2  0  0  0  0  0  0
  190.3590  176.7790  144.0730 C   0  0  2  0  0  3  0  0  0  0  0  0
  187.9560  177.1010  144.9720 C   0  0  0  0  0  2  0  0  0  0  0  0
  188.8440  176.6220  143.8090 C   0  0  1  0  0  3  0  0  0  0  0  0
  183.5590  179.2460  139.2040 C   0  0  0  0  0  3  0  0  0  0  0  0
  184.3910  178.5420  141.8140 C   0  0  0  0  0  3  0  0  0  0  0  0
  180.8230  179.4170  141.9370 C   0  0  0  0  0  0  0  0  0  0  0  0
  181.0520  179.6730  140.2790 S   0  0  0  0  0  0  0  0  0  0  0  0
  182.6770  179.2650  140.2800 C   0  0  0  0  0  0  0  0  0  0  0  0
  182.0380  179.0030  142.5080 C   0  0  0  0  0  0  0  0  0  0  0  0
  183.0710  178.9220  141.5640 C   0  0  0  0  0  0  0  0  0  0  0  0
  182.2700  178.6230  144.2110 Cl  0  0  0  0  0  0  0  0  0  0  0  0
  185.3140  178.5110  140.7500 C   0  0  0  0  0  0  0  0  0  0  0  0
  184.8850  178.8660  139.4490 C   0  0  0  0  0  3  0  0  0  0  0  0
  179.5350  179.6110  142.6230 C   0  0  0  0  0  0  0  0  0  0  0  0
  178.9690  180.7350  142.6320 O   0  0  0  0  0  0  0  0  0  0  0  0
  178.9310  178.5420  143.2710 O   0  0  0  0  0  1  0  0  0  0  0  0
  189.5410  178.1970  148.1400 C   0  0  0  0  0  2  0  0  0  0  0  0
  188.1390  177.8990  148.6370 C   0  0  0  0  0  2  0  0  0  0  0  0
  187.1820  178.9430  148.0990 C   0  0  0  0  0  1  0  0  0  0  0  0
  1 18  1  0  0  0  0
  2 13  1  0  0  0  0
  4  6  2  0  0  0  0
  4  9  1  0  0  0  0
  5  1  1  0  0  0  0
  6 11  1  0  0  0  0
  7 12  1  0  0  0  0
  8  7  2  0  0  0  0
  8  6  1  0  0  0  0
  9  5  2  0  0  0  0
 10  3  1  0  0  0  0
 11 10  1  0  0  0  0
 11  1  2  0  0  0  0
 12 10  2  0  0  0  0
 13 14  1  0  0  0  0
 14 32  1  1  0  0  0
 15 14  1  0  0  0  0
 16  3  1  6  0  0  0
 16  2  1  0  0  0  0
 17 15  1  0  0  0  0
 18 16  1  0  0  0  0
 18 17  1  1  0  0  0
 19 28  2  0  0  0  0
 19 23  1  0  0  0  0
 21 24  2  0  0  0  0
 21 29  1  0  0  0  0
 22 23  1  0  0  0  0
 22 21  1  0  0  0  0
 23 25  2  0  0  0  0
 24 26  1  0  0  0  0
 25 20  1  0  0  0  0
 25 24  1  0  0  0  0
 27  9  1  0  0  0  0
 27 20  2  0  0  0  0
 28 27  1  0  0  0  0
 29 30  2  0  0  0  0
 29 31  1  0  0  0  0
 32 33  1  0  0  0  0
 34 33  1  0  0  0  0
M  END
>  <MODEL>
5

>  <REMARK>
 VINA RESULT:      -8.4      2.257      5.718
  Name = 
  4 active torsions:
  status: ('A' for Active; 'I' for Inactive)
    1  A    between atoms: C_3  and  C_13
    2  A    between atoms: C_3  and  C_25
    3  A    between atoms: C_7  and  C_11
    4  A    between atoms: C_18  and  C_30
                            x       y       z     vdW  Elec       q    Type
                         _______ _______ _______ _____ _____    ______ ____

>  <TORSDO>
F 4

$$$$
=
 OpenBabel11052415533D

 34 39  0  0  1  0  0  0  0  0999 V2000
  188.6600  177.2510  138.2460 C   0  0  0  0  0  0  0  0  0  0  0  0
  187.4020  175.5120  135.7900 C   0  0  0  0  0  2  0  0  0  0  0  0
  189.2530  177.1710  135.3900 C   0  0  0  0  0  2  0  0  0  0  0  0
  190.6320  176.5850  140.0900 N   0  0  0  0  0  0  0  0  0  0  0  0
  188.4250  177.3640  139.6240 C   0  0  0  0  0  3  0  0  0  0  0  0
  190.9100  176.4850  138.7650 C   0  0  0  0  0  0  0  0  0  0  0  0
  192.4680  175.9600  136.9870 C   0  0  0  0  0  3  0  0  0  0  0  0
  192.1700  176.0470  138.3500 C   0  0  0  0  0  3  0  0  0  0  0  0
  189.4220  177.0190  140.5450 C   0  0  0  0  0  0  0  0  0  0  0  0
  190.2390  176.7400  136.4340 C   0  0  0  0  0  0  0  0  0  0  0  0
  189.9320  176.8320  137.8080 C   0  0  0  0  0  0  0  0  0  0  0  0
  191.5090  176.3120  136.0340 C   0  0  0  0  0  3  0  0  0  0  0  0
  185.9380  175.2390  136.1560 C   0  0  0  0  0  2  0  0  0  0  0  0
  185.0020  176.3880  135.7690 C   0  0  2  0  0  3  0  0  0  0  0  0
  185.0770  177.5930  136.7310 C   0  0  0  0  0  2  0  0  0  0  0  0
  187.8120  176.9910  135.8660 C   0  0  2  0  0  3  0  0  0  0  0  0
  186.1700  177.4870  137.8010 C   0  0  0  0  0  2  0  0  0  0  0  0
  187.5960  177.6560  137.2440 C   0  0  1  0  0  3  0  0  0  0  0  0
  189.9050  176.7490  144.3100 C   0  0  0  0  0  3  0  0  0  0  0  0
  187.9730  177.6860  142.4690 C   0  0  0  0  0  3  0  0  0  0  0  0
  186.6990  178.2540  145.8700 C   0  0  0  0  0  0  0  0  0  0  0  0
  188.1750  177.5490  146.3060 S   0  0  0  0  0  0  0  0  0  0  0  0
  188.7070  177.3130  144.7350 C   0  0  0  0  0  0  0  0  0  0  0  0
  186.6150  178.3090  144.4690 C   0  0  0  0  0  0  0  0  0  0  0  0
  187.7510  177.7760  143.8450 C   0  0  0  0  0  0  0  0  0  0  0  0
  185.2520  178.9650  143.5690 Cl  0  0  0  0  0  0  0  0  0  0  0  0
  189.1750  177.1210  141.9990 C   0  0  0  0  0  0  0  0  0  0  0  0
  190.1340  176.6560  142.9300 C   0  0  0  0  0  3  0  0  0  0  0  0
  185.6970  178.7190  146.8430 C   0  0  0  0  0  0  0  0  0  0  0  0
  184.5550  178.1930  146.8980 O   0  0  0  0  0  0  0  0  0  0  0  0
  186.0110  179.7530  147.7160 O   0  0  0  0  0  1  0  0  0  0  0  0
  183.5770  175.8690  135.7000 C   0  0  0  0  0  2  0  0  0  0  0  0
  183.5050  174.4480  136.2260 C   0  0  0  0  0  2  0  0  0  0  0  0
  182.2690  174.2910  137.0860 C   0  0  0  0  0  1  0  0  0  0  0  0
  1  5  1  0  0  0  0
  2 16  1  0  0  0  0
  2 13  1  0  0  0  0
  3 10  1  0  0  0  0
  4  9  1  0  0  0  0
  5  9  2  0  0  0  0
  6  4  2  0  0  0  0
  7  8  2  0  0  0  0
  8  6  1  0  0  0  0
  9 27  1  0  0  0  0
 10 11  1  0  0  0  0
 11  1  2  0  0  0  0
 11  6  1  0  0  0  0
 12 10  2  0  0  0  0
 12  7  1  0  0  0  0
 14 32  1  1  0  0  0
 14 13  1  0  0  0  0
 14 15  1  0  0  0  0
 15 17  1  0  0  0  0
 16  3  1  1  0  0  0
 16 18  1  0  0  0  0
 18 17  1  1  0  0  0
 18  1  1  0  0  0  0
 19 23  1  0  0  0  0
 20 25  1  0  0  0  0
 21 22  1  0  0  0  0
 21 29  1  0  0  0  0
 23 22  1  0  0  0  0
 24 21  2  0  0  0  0
 25 24  1  0  0  0  0
 25 23  2  0  0  0  0
 26 24  1  0  0  0  0
 27 20  2  0  0  0  0
 27 28  1  0  0  0  0
 28 19  2  0  0  0  0
 29 30  2  0  0  0  0
 29 31  1  0  0  0  0
 32 33  1  0  0  0  0
 33 34  1  0  0  0  0
M  END
>  <MODEL>
6

>  <REMARK>
 VINA RESULT:      -8.4      3.684      5.680
  Name = 
  4 active torsions:
  status: ('A' for Active; 'I' for Inactive)
    1  A    between atoms: C_3  and  C_13
    2  A    between atoms: C_3  and  C_25
    3  A    between atoms: C_7  and  C_11
    4  A    between atoms: C_18  and  C_30
                            x       y       z     vdW  Elec       q    Type
                         _______ _______ _______ _____ _____    ______ ____

>  <TORSDO>
F 4

$$$$
=
 OpenBabel11052415533D

 34 39  0  0  1  0  0  0  0  0999 V2000
  182.2680  179.1410  138.8770 C   0  0  0  0  0  0  0  0  0  0  0  0
  179.4960  180.0510  137.4180 C   0  0  0  0  0  2  0  0  0  0  0  0
  181.2470  178.7410  136.1720 C   0  0  0  0  0  2  0  0  0  0  0  0
  182.8070  176.9440  140.4940 N   0  0  0  0  0  0  0  0  0  0  0  0
  182.8380  179.3050  140.1470 C   0  0  0  0  0  3  0  0  0  0  0  0
  182.2780  176.7380  139.2600 C   0  0  0  0  0  0  0  0  0  0  0  0
  181.4800  175.2190  137.5520 C   0  0  0  0  0  3  0  0  0  0  0  0
  182.0080  175.4380  138.8270 C   0  0  0  0  0  3  0  0  0  0  0  0
  183.1000  178.1920  140.9570 C   0  0  0  0  0  0  0  0  0  0  0  0
  181.4750  177.6070  137.1280 C   0  0  0  0  0  0  0  0  0  0  0  0
  182.0090  177.8360  138.4130 C   0  0  0  0  0  0  0  0  0  0  0  0
  181.2220  176.2990  136.7030 C   0  0  0  0  0  3  0  0  0  0  0  0
  179.0630  181.3610  138.0870 C   0  0  0  0  0  2  0  0  0  0  0  0
  179.7410  182.5940  137.4790 C   0  0  2  0  0  3  0  0  0  0  0  0
  181.2040  182.7780  137.9350 C   0  0  0  0  0  2  0  0  0  0  0  0
  180.9440  180.0460  136.9060 C   0  0  2  0  0  3  0  0  0  0  0  0
  181.7570  181.6280  138.7830 C   0  0  0  0  0  2  0  0  0  0  0  0
  182.0160  180.3390  137.9810 C   0  0  1  0  0  3  0  0  0  0  0  0
  183.5110  179.1650  144.6120 C   0  0  0  0  0  3  0  0  0  0  0  0
  184.9830  177.8770  142.5700 C   0  0  0  0  0  3  0  0  0  0  0  0
  187.0430  177.9370  145.6140 C   0  0  0  0  0  0  0  0  0  0  0  0
  185.6890  178.7300  146.2520 S   0  0  0  0  0  0  0  0  0  0  0  0
  184.7940  178.6750  144.8360 C   0  0  0  0  0  0  0  0  0  0  0  0
  186.7950  177.6210  144.2680 C   0  0  0  0  0  0  0  0  0  0  0  0
  185.5270  178.0420  143.8450 C   0  0  0  0  0  0  0  0  0  0  0  0
  187.9270  176.7920  143.2060 Cl  0  0  0  0  0  0  0  0  0  0  0  0
  183.6870  178.3600  142.3030 C   0  0  0  0  0  0  0  0  0  0  0  0
  182.9600  179.0020  143.3330 C   0  0  0  0  0  3  0  0  0  0  0  0
  188.2600  177.6490  146.3890 C   0  0  0  0  0  0  0  0  0  0  0  0
  189.3980  177.9520  145.9440 O   0  0  0  0  0  0  0  0  0  0  0  0
  188.1590  177.0350  147.6310 O   0  0  0  0  0  1  0  0  0  0  0  0
  178.9310  183.8300  137.8260 C   0  0  0  0  0  2  0  0  0  0  0  0
  179.7490  185.0850  137.5870 C   0  0  0  0  0  2  0  0  0  0  0  0
  179.4160  186.1130  138.6470 C   0  0  0  0  0  1  0  0  0  0  0  0
  1  5  1  0  0  0  0
  2 13  1  0  0  0  0
  3 10  1  0  0  0  0
  4  9  1  0  0  0  0
  5  9  2  0  0  0  0
  6  4  2  0  0  0  0
  7  8  2  0  0  0  0
  8  6  1  0  0  0  0
  9 27  1  0  0  0  0
 10 11  1  0  0  0  0
 11  1  2  0  0  0  0
 11  6  1  0  0  0  0
 12 10  2  0  0  0  0
 12  7  1  0  0  0  0
 14 32  1  1  0  0  0
 14 15  1  0  0  0  0
 14 13  1  0  0  0  0
 15 17  1  0  0  0  0
 16  3  1  1  0  0  0
 16  2  1  0  0  0  0
 16 18  1  0  0  0  0
 18 17  1  1  0  0  0
 18  1  1  0  0  0  0
 19 23  1  0  0  0  0
 20 25  1  0  0  0  0
 21 22  1  0  0  0  0
 21 29  1  0  0  0  0
 23 22  1  0  0  0  0
 24 21  2  0  0  0  0
 25 24  1  0  0  0  0
 25 23  2  0  0  0  0
 26 24  1  0  0  0  0
 27 20  2  0  0  0  0
 27 28  1  0  0  0  0
 28 19  2  0  0  0  0
 29 31  1  0  0  0  0
 30 29  2  0  0  0  0
 33 32  1  0  0  0  0
 33 34  1  0  0  0  0
M  END
>  <MODEL>
7

>  <REMARK>
 VINA RESULT:      -8.4      5.392      8.889
  Name = 
  4 active torsions:
  status: ('A' for Active; 'I' for Inactive)
    1  A    between atoms: C_3  and  C_13
    2  A    between atoms: C_3  and  C_25
    3  A    between atoms: C_7  and  C_11
    4  A    between atoms: C_18  and  C_30
                            x       y       z     vdW  Elec       q    Type
                         _______ _______ _______ _____ _____    ______ ____

>  <TORSDO>
F 4

$$$$
=
 OpenBabel11052415533D

 34 39  0  0  1  0  0  0  0  0999 V2000
  187.9020  177.2710  144.3570 C   0  0  0  0  0  0  0  0  0  0  0  0
  185.8570  179.3810  145.7730 C   0  0  0  0  0  2  0  0  0  0  0  0
  186.6650  177.3370  147.0000 C   0  0  0  0  0  2  0  0  0  0  0  0
  190.6720  177.3410  144.1210 N   0  0  0  0  0  0  0  0  0  0  0  0
  188.5210  177.1550  143.1050 C   0  0  0  0  0  3  0  0  0  0  0  0
  190.1150  177.4310  145.3560 C   0  0  0  0  0  0  0  0  0  0  0  0
  190.3660  177.6380  147.7560 C   0  0  0  0  0  3  0  0  0  0  0  0
  190.9330  177.5630  146.4810 C   0  0  0  0  0  3  0  0  0  0  0  0
  189.9170  177.1980  142.9950 C   0  0  0  0  0  0  0  0  0  0  0  0
  188.1460  177.4610  146.7950 C   0  0  0  0  0  0  0  0  0  0  0  0
  188.7110  177.3830  145.5050 C   0  0  0  0  0  0  0  0  0  0  0  0
  188.9780  177.5800  147.9120 C   0  0  0  0  0  3  0  0  0  0  0  0
  185.0130  179.9900  144.6460 C   0  0  0  0  0  2  0  0  0  0  0  0
  183.8020  179.1270  144.2750 C   0  0  2  0  0  3  0  0  0  0  0  0
  184.1640  177.8980  143.4150 C   0  0  0  0  0  2  0  0  0  0  0  0
  185.8830  177.8450  145.7890 C   0  0  2  0  0  3  0  0  0  0  0  0
  185.6690  177.6790  143.2170 C   0  0  0  0  0  2  0  0  0  0  0  0
  186.3930  177.1900  144.4850 C   0  0  1  0  0  3  0  0  0  0  0  0
  192.6070  177.1350  140.3050 C   0  0  0  0  0  3  0  0  0  0  0  0
  189.8020  176.8470  140.5230 C   0  0  0  0  0  3  0  0  0  0  0  0
  190.7290  176.4690  136.9860 C   0  0  0  0  0  0  0  0  0  0  0  0
  192.2880  176.7280  137.5930 S   0  0  0  0  0  0  0  0  0  0  0  0
  191.8100  176.8930  139.1910 C   0  0  0  0  0  0  0  0  0  0  0  0
  189.8120  176.5110  138.0500 C   0  0  0  0  0  0  0  0  0  0  0  0
  190.4350  176.7500  139.2820 C   0  0  0  0  0  0  0  0  0  0  0  0
  188.0730  176.2920  137.8860 Cl  0  0  0  0  0  0  0  0  0  0  0  0
  190.5750  177.0920  141.6760 C   0  0  0  0  0  0  0  0  0  0  0  0
  191.9770  177.2340  141.5540 C   0  0  0  0  0  3  0  0  0  0  0  0
  190.4350  176.2410  135.5620 C   0  0  0  0  0  0  0  0  0  0  0  0
  191.1660  175.4950  134.8610 O   0  0  0  0  0  0  0  0  0  0  0  0
  189.3340  176.8560  134.9780 O   0  0  0  0  0  1  0  0  0  0  0  0
  182.7830  179.9860  143.5470 C   0  0  0  0  0  2  0  0  0  0  0  0
  181.7180  179.1150  142.9060 C   0  0  0  0  0  2  0  0  0  0  0  0
  180.7060  178.7040  143.9540 C   0  0  0  0  0  1  0  0  0  0  0  0
  1 18  1  0  0  0  0
  1 11  1  0  0  0  0
  4  6  1  0  0  0  0
  5  1  2  0  0  0  0
  6 11  2  0  0  0  0
  6  8  1  0  0  0  0
  7 12  1  0  0  0  0
  8  7  2  0  0  0  0
  9  5  1  0  0  0  0
  9  4  2  0  0  0  0
 10  3  1  0  0  0  0
 10 12  2  0  0  0  0
 11 10  1  0  0  0  0
 13  2  1  0  0  0  0
 14 32  1  6  0  0  0
 14 13  1  0  0  0  0
 15 14  1  0  0  0  0
 16  2  1  6  0  0  0
 16  3  1  0  0  0  0
 17 15  1  0  0  0  0
 18 17  1  6  0  0  0
 18 16  1  0  0  0  0
 19 28  1  0  0  0  0
 20 27  1  0  0  0  0
 21 22  1  0  0  0  0
 21 24  2  0  0  0  0
 22 23  1  0  0  0  0
 23 25  1  0  0  0  0
 23 19  2  0  0  0  0
 24 25  1  0  0  0  0
 25 20  2  0  0  0  0
 26 24  1  0  0  0  0
 27  9  1  0  0  0  0
 28 27  2  0  0  0  0
 29 21  1  0  0  0  0
 30 29  2  0  0  0  0
 31 29  1  0  0  0  0
 33 32  1  0  0  0  0
 33 34  1  0  0  0  0
M  END
>  <MODEL>
8

>  <REMARK>
 VINA RESULT:      -8.3      4.312      8.173
  Name = 
  4 active torsions:
  status: ('A' for Active; 'I' for Inactive)
    1  A    between atoms: C_3  and  C_13
    2  A    between atoms: C_3  and  C_25
    3  A    between atoms: C_7  and  C_11
    4  A    between atoms: C_18  and  C_30
                            x       y       z     vdW  Elec       q    Type
                         _______ _______ _______ _____ _____    ______ ____

>  <TORSDO>
F 4

$$$$
=
 OpenBabel11052415533D

 34 39  0  0  1  0  0  0  0  0999 V2000
  187.9670  178.2480  140.2610 C   0  0  0  0  0  0  0  0  0  0  0  0
  186.7190  177.2620  143.1090 C   0  0  0  0  0  2  0  0  0  0  0  0
  185.8530  179.3270  141.9590 C   0  0  0  0  0  2  0  0  0  0  0  0
  187.3820  177.4330  137.6670 N   0  0  0  0  0  0  0  0  0  0  0  0
  188.9810  177.8060  139.3990 C   0  0  0  0  0  3  0  0  0  0  0  0
  186.3740  177.8780  138.4600 C   0  0  0  0  0  0  0  0  0  0  0  0
  184.0270  178.3870  138.7740 C   0  0  0  0  0  3  0  0  0  0  0  0
  185.0660  177.9130  137.9680 C   0  0  0  0  0  3  0  0  0  0  0  0
  188.6750  177.3910  138.0960 C   0  0  0  0  0  0  0  0  0  0  0  0
  185.5910  178.7870  140.5840 C   0  0  0  0  0  0  0  0  0  0  0  0
  186.6460  178.3120  139.7760 C   0  0  0  0  0  0  0  0  0  0  0  0
  184.2910  178.8290  140.0740 C   0  0  0  0  0  3  0  0  0  0  0  0
  187.8540  176.5530  143.8580 C   0  0  0  0  0  2  0  0  0  0  0  0
  188.7530  177.5220  144.6330 C   0  0  2  0  0  3  0  0  0  0  0  0
  189.7480  178.2870  143.7360 C   0  0  0  0  0  2  0  0  0  0  0  0
  187.0720  178.6680  142.6010 C   0  0  2  0  0  3  0  0  0  0  0  0
  189.5580  178.0580  142.2330 C   0  0  0  0  0  2  0  0  0  0  0  0
  188.2970  178.7310  141.6600 C   0  0  1  0  0  3  0  0  0  0  0  0
  190.4830  176.2630  134.9440 C   0  0  0  0  0  3  0  0  0  0  0  0
  191.0240  176.6360  137.6950 C   0  0  0  0  0  3  0  0  0  0  0  0
  194.0930  175.4360  136.0670 C   0  0  0  0  0  0  0  0  0  0  0  0
  193.1100  175.4550  134.6890 S   0  0  0  0  0  0  0  0  0  0  0  0
  191.7390  176.0030  135.4820 C   0  0  0  0  0  0  0  0  0  0  0  0
  193.3400  175.8660  137.1720 C   0  0  0  0  0  0  0  0  0  0  0  0
  192.0190  176.1810  136.8270 C   0  0  0  0  0  0  0  0  0  0  0  0
  193.9560  176.0040  138.8150 Cl  0  0  0  0  0  0  0  0  0  0  0  0
  189.7380  176.9100  137.1890 C   0  0  0  0  0  0  0  0  0  0  0  0
  189.4800  176.7190  135.8110 C   0  0  0  0  0  3  0  0  0  0  0  0
  195.5070  175.0260  136.0560 C   0  0  0  0  0  0  0  0  0  0  0  0
  195.8280  173.8100  136.0130 O   0  0  0  0  0  0  0  0  0  0  0  0
  196.5060  175.9900  136.0930 O   0  0  0  0  0  1  0  0  0  0  0  0
  189.5070  176.7530  145.7040 C   0  0  0  0  0  2  0  0  0  0  0  0
  189.3990  177.4620  147.0410 C   0  0  0  0  0  2  0  0  0  0  0  0
  187.9540  177.8330  147.2990 C   0  0  0  0  0  1  0  0  0  0  0  0
  1 18  1  0  0  0  0
  2 13  1  0  0  0  0
  4  9  2  0  0  0  0
  4  6  1  0  0  0  0
  5  1  2  0  0  0  0
  6 11  1  0  0  0  0
  7 12  2  0  0  0  0
  8  6  2  0  0  0  0
  8  7  1  0  0  0  0
  9  5  1  0  0  0  0
 10  3  1  0  0  0  0
 11  1  1  0  0  0  0
 11 10  2  0  0  0  0
 12 10  1  0  0  0  0
 13 14  1  0  0  0  0
 14 32  1  1  0  0  0
 15 14  1  0  0  0  0
 16  3  1  6  0  0  0
 16  2  1  0  0  0  0
 17 15  1  0  0  0  0
 18 17  1  1  0  0  0
 18 16  1  0  0  0  0
 19 23  2  0  0  0  0
 19 28  1  0  0  0  0
 21 24  2  0  0  0  0
 22 23  1  0  0  0  0
 22 21  1  0  0  0  0
 23 25  1  0  0  0  0
 24 26  1  0  0  0  0
 25 24  1  0  0  0  0
 25 20  2  0  0  0  0
 27 20  1  0  0  0  0
 27  9  1  0  0  0  0
 28 27  2  0  0  0  0
 29 21  1  0  0  0  0
 29 31  1  0  0  0  0
 30 29  2  0  0  0  0
 32 33  1  0  0  0  0
 33 34  1  0  0  0  0
M  END
>  <MODEL>
9

>  <REMARK>
 VINA RESULT:      -8.3      5.967      9.871
  Name = 
  4 active torsions:
  status: ('A' for Active; 'I' for Inactive)
    1  A    between atoms: C_3  and  C_13
    2  A    between atoms: C_3  and  C_25
    3  A    between atoms: C_7  and  C_11
    4  A    between atoms: C_18  and  C_30
                            x       y       z     vdW  Elec       q    Type
                         _______ _______ _______ _____ _____    ______ ____

>  <TORSDO>
F 4

$$$$
