=
 OpenBabel11052416373D

 43 48  0  0  1  0  0  0  0  0999 V2000
  188.8940  177.9390  148.4830 C   0  0  0  0  0  3  0  0  0  0  0  0
  189.2530  177.6760  143.0190 C   0  0  0  0  0  0  0  0  0  0  0  0
  186.5320  177.8920  142.2180 C   0  0  2  0  0  3  0  0  0  0  0  0
  189.9800  177.1550  145.6670 C   0  0  0  0  0  0  0  0  0  0  0  0
  187.7880  177.1810  147.8250 C   0  0  0  0  0  2  0  0  0  0  0  0
  190.1540  177.7540  148.0920 C   0  0  0  0  0  3  0  0  0  0  0  0
  188.6280  177.5070  145.3790 C   0  0  0  0  0  0  0  0  0  0  0  0
  190.4800  176.7560  147.0260 C   0  0  0  0  0  2  0  0  0  0  0  0
  187.5500  177.7390  146.4290 C   0  0  0  0  0  2  0  0  0  0  0  0
  186.8730  178.1900  143.6780 C   0  0  0  0  0  2  0  0  0  0  0  0
  188.2780  177.7610  144.0340 C   0  0  0  0  0  0  0  0  0  0  0  0
  190.5550  177.3170  143.3610 C   0  0  0  0  0  3  0  0  0  0  0  0
  188.8960  177.9140  141.6410 N   0  0  0  0  0  0  0  0  0  0  0  0
  187.5980  178.4950  141.3150 C   0  0  0  0  0  2  0  0  0  0  0  0
  190.8800  177.0660  144.6520 N   0  0  0  0  0  0  0  0  0  0  0  0
  185.2050  178.3990  141.8800 N   0  0  0  0  0  0  0  0  0  0  0  0
  184.9690  178.9170  140.5590 C   0  0  0  0  0  0  0  0  0  0  0  0
  185.9380  179.1270  139.7800 O   0  0  0  0  0  0  0  0  0  0  0  0
  184.1100  178.2600  142.8390 C   0  0  0  0  0  2  0  0  0  0  0  0
  183.9410  179.5410  143.6350 C   0  0  0  0  0  1  0  0  0  0  0  0
  183.5810  179.1740  140.0650 C   0  0  0  0  0  2  0  0  0  0  0  0
  183.1080  178.0220  139.1900 C   0  0  2  0  0  3  0  0  0  0  0  0
  181.6420  177.9610  137.2260 C   0  0  0  0  0  2  0  0  0  0  0  0
  183.9480  177.9220  137.9350 C   0  0  0  0  0  2  0  0  0  0  0  0
  181.6770  178.2680  138.7150 C   0  0  1  0  0  3  0  0  0  0  0  0
  183.0080  177.4140  136.8660 C   0  0  0  0  0  2  0  0  0  0  0  0
  180.6760  177.4610  139.4330 N   0  0  0  0  0  0  0  0  0  0  0  0
  181.3280  176.5150  140.1610 O   0  0  0  0  0  1  0  0  0  0  0  0
  179.9210  178.3200  140.3520 C   0  0  0  0  0  3  0  0  0  0  0  0
  179.7240  180.4990  142.3220 C   0  0  0  0  0  2  0  0  0  0  0  0
  179.6360  179.0340  142.7420 C   0  0  0  0  0  2  0  0  0  0  0  0
  179.2190  180.6680  140.8920 C   0  0  0  0  0  2  0  0  0  0  0  0
  180.4440  178.1630  141.7850 C   0  0  0  0  0  2  0  0  0  0  0  0
  180.0320  179.7930  139.9410 C   0  0  0  0  0  2  0  0  0  0  0  0
  189.7180  177.4060  140.5490 C   0  0  0  0  0  2  0  0  0  0  0  0
  187.5520  176.8710  137.4870 C   0  0  0  0  0  3  0  0  0  0  0  0
  187.8200  178.0310  136.7530 C   0  0  0  0  0  0  0  0  0  0  0  0
  189.3190  178.7890  138.4990 C   0  0  0  0  0  3  0  0  0  0  0  0
  188.1600  176.6740  138.7310 C   0  0  0  0  0  3  0  0  0  0  0  0
  189.0370  177.6370  139.2420 C   0  0  0  0  0  0  0  0  0  0  0  0
  188.7110  178.9850  137.2560 C   0  0  0  0  0  3  0  0  0  0  0  0
  186.0250  177.4980  135.3390 F   0  0  0  0  0  0  0  0  0  0  0  0
  187.1950  178.2280  135.4180 C   0  0  0  0  0  2  0  0  0  0  0  0
  2 12  2  0  0  0  0
  2 11  1  0  0  0  0
  3 16  1  6  0  0  0
  3 10  1  0  0  0  0
  4  8  1  0  0  0  0
  5  1  1  0  0  0  0
  6  1  2  0  0  0  0
  7  4  1  0  0  0  0
  7  9  1  0  0  0  0
  8  6  1  0  0  0  0
  9  5  1  0  0  0  0
 10 11  1  0  0  0  0
 11  7  2  0  0  0  0
 12 15  1  0  0  0  0
 13  2  1  0  0  0  0
 14 13  1  0  0  0  0
 14  3  1  0  0  0  0
 15  4  2  0  0  0  0
 16 19  1  0  0  0  0
 17 16  1  0  0  0  0
 18 17  2  0  0  0  0
 19 20  1  0  0  0  0
 21 17  1  0  0  0  0
 22 21  1  1  0  0  0
 23 25  1  0  0  0  0
 24 22  1  0  0  0  0
 25 22  1  0  0  0  0
 25 27  1  1  0  0  0
 26 23  1  0  0  0  0
 26 24  1  0  0  0  0
 27 28  1  0  0  0  0
 27 29  1  0  0  0  0
 29 33  1  0  0  0  0
 30 31  1  0  0  0  0
 32 30  1  0  0  0  0
 33 31  1  0  0  0  0
 34 29  1  0  0  0  0
 34 32  1  0  0  0  0
 35 13  1  0  0  0  0
 36 39  1  0  0  0  0
 37 41  1  0  0  0  0
 37 36  2  0  0  0  0
 38 40  1  0  0  0  0
 39 40  2  0  0  0  0
 40 35  1  0  0  0  0
 41 38  2  0  0  0  0
 42 43  1  0  0  0  0
 43 37  1  0  0  0  0
M  END
>  <MODEL>
1

>  <REMARK>
 VINA RESULT:      -9.1      0.000      0.000
  Name = 
  9 active torsions:
  status: ('A' for Active; 'I' for Inactive)
    1  A    between atoms: C_1  and  N_34
    2  A    between atoms: C_1  and  C_35
    3  A    between atoms: C_2  and  N_6
    4  A    between atoms: C_3  and  C_4
    5  A    between atoms: C_3  and  C_12
    6  A    between atoms: N_6  and  C_13
    7  A    between atoms: C_11  and  N_14
    8  A    between atoms: N_14  and  C_22
    9  A    between atoms: C_19  and  C_37
                            x       y       z     vdW  Elec       q    Type
                         _______ _______ _______ _____ _____    ______ ____

>  <TORSDO>
F 9

$$$$
=
 OpenBabel11052416373D

 43 48  0  0  1  0  0  0  0  0999 V2000
  187.1510  176.8220  134.9710 C   0  0  0  0  0  3  0  0  0  0  0  0
  190.0070  177.1670  139.6380 C   0  0  0  0  0  0  0  0  0  0  0  0
  188.0170  177.9470  141.5140 C   0  0  2  0  0  3  0  0  0  0  0  0
  189.5720  177.2920  136.8800 C   0  0  0  0  0  0  0  0  0  0  0  0
  186.7410  177.9450  135.8670 C   0  0  0  0  0  2  0  0  0  0  0  0
  188.4430  176.5710  134.7640 C   0  0  0  0  0  3  0  0  0  0  0  0
  188.4610  177.4470  137.7610 C   0  0  0  0  0  0  0  0  0  0  0  0
  189.4940  177.4360  135.3870 C   0  0  0  0  0  2  0  0  0  0  0  0
  187.0100  177.5630  137.3160 C   0  0  0  0  0  2  0  0  0  0  0  0
  187.5540  177.4900  140.1320 C   0  0  0  0  0  2  0  0  0  0  0  0
  188.7010  177.3860  139.1520 C   0  0  0  0  0  0  0  0  0  0  0  0
  191.0530  177.0350  138.7270 C   0  0  0  0  0  3  0  0  0  0  0  0
  190.2610  177.1260  141.0570 N   0  0  0  0  0  0  0  0  0  0  0  0
  189.1460  177.0480  141.9960 C   0  0  0  0  0  2  0  0  0  0  0  0
  190.8160  177.1030  137.3950 N   0  0  0  0  0  0  0  0  0  0  0  0
  186.9040  177.9500  142.4600 N   0  0  0  0  0  0  0  0  0  0  0  0
  185.7420  178.7470  142.1700 C   0  0  0  0  0  0  0  0  0  0  0  0
  185.7690  179.5880  141.2310 O   0  0  0  0  0  0  0  0  0  0  0  0
  186.9330  177.0550  143.6160 C   0  0  0  0  0  2  0  0  0  0  0  0
  187.4350  177.7950  144.8420 C   0  0  0  0  0  1  0  0  0  0  0  0
  184.4700  178.5670  142.9370 C   0  0  0  0  0  2  0  0  0  0  0  0
  183.2860  179.0710  142.1260 C   0  0  2  0  0  3  0  0  0  0  0  0
  181.3950  177.8970  141.0970 C   0  0  0  0  0  2  0  0  0  0  0  0
  182.0590  179.2210  143.0020 C   0  0  0  0  0  2  0  0  0  0  0  0
  182.9070  178.0550  141.0500 C   0  0  1  0  0  3  0  0  0  0  0  0
  180.8860  178.9110  142.1020 C   0  0  0  0  0  2  0  0  0  0  0  0
  183.3440  178.4440  139.6990 N   0  0  0  0  0  0  0  0  0  0  0  0
  183.8040  177.3360  139.0590 O   0  0  0  0  0  1  0  0  0  0  0  0
  182.2010  178.9770  138.9480 C   0  0  0  0  0  3  0  0  0  0  0  0
  181.0130  180.3600  136.6370 C   0  0  0  0  0  2  0  0  0  0  0  0
  181.1450  181.0450  137.9940 C   0  0  0  0  0  2  0  0  0  0  0  0
  180.8810  178.8510  136.8180 C   0  0  0  0  0  2  0  0  0  0  0  0
  182.3490  180.4900  138.7490 C   0  0  0  0  0  2  0  0  0  0  0  0
  182.0880  178.3050  137.5740 C   0  0  0  0  0  2  0  0  0  0  0  0
  191.5970  177.3590  141.5930 C   0  0  0  0  0  2  0  0  0  0  0  0
  191.6860  175.7130  145.0040 C   0  0  0  0  0  3  0  0  0  0  0  0
  191.5200  176.8170  145.8470 C   0  0  0  0  0  0  0  0  0  0  0  0
  191.4140  178.2760  143.9170 C   0  0  0  0  0  3  0  0  0  0  0  0
  191.7250  175.8920  143.6180 C   0  0  0  0  0  3  0  0  0  0  0  0
  191.5980  177.1740  143.0730 C   0  0  0  0  0  0  0  0  0  0  0  0
  191.3750  178.0970  145.3020 C   0  0  0  0  0  3  0  0  0  0  0  0
  191.6930  175.2990  147.6290 F   0  0  0  0  0  0  0  0  0  0  0  0
  191.4510  176.6240  147.3210 C   0  0  0  0  0  2  0  0  0  0  0  0
  1  5  1  0  0  0  0
  2 13  1  0  0  0  0
  3 14  1  0  0  0  0
  3 16  1  1  0  0  0
  4 15  2  0  0  0  0
  4  7  1  0  0  0  0
  5  9  1  0  0  0  0
  6  1  2  0  0  0  0
  6  8  1  0  0  0  0
  7 11  2  0  0  0  0
  8  4  1  0  0  0  0
  9  7  1  0  0  0  0
 10  3  1  0  0  0  0
 11  2  1  0  0  0  0
 11 10  1  0  0  0  0
 12  2  2  0  0  0  0
 13 35  1  0  0  0  0
 13 14  1  0  0  0  0
 15 12  1  0  0  0  0
 16 19  1  0  0  0  0
 17 16  1  0  0  0  0
 17 21  1  0  0  0  0
 18 17  2  0  0  0  0
 19 20  1  0  0  0  0
 22 21  1  1  0  0  0
 22 24  1  0  0  0  0
 23 26  1  0  0  0  0
 25 27  1  6  0  0  0
 25 23  1  0  0  0  0
 25 22  1  0  0  0  0
 26 24  1  0  0  0  0
 28 27  1  0  0  0  0
 29 27  1  0  0  0  0
 30 32  1  0  0  0  0
 30 31  1  0  0  0  0
 31 33  1  0  0  0  0
 32 34  1  0  0  0  0
 33 29  1  0  0  0  0
 34 29  1  0  0  0  0
 35 40  1  0  0  0  0
 36 37  1  0  0  0  0
 37 43  1  0  0  0  0
 38 41  1  0  0  0  0
 39 36  2  0  0  0  0
 40 39  1  0  0  0  0
 40 38  2  0  0  0  0
 41 37  2  0  0  0  0
 43 42  1  0  0  0  0
M  END
>  <MODEL>
2

>  <REMARK>
 VINA RESULT:      -9.0      2.737      6.784
  Name = 
  9 active torsions:
  status: ('A' for Active; 'I' for Inactive)
    1  A    between atoms: C_1  and  N_34
    2  A    between atoms: C_1  and  C_35
    3  A    between atoms: C_2  and  N_6
    4  A    between atoms: C_3  and  C_4
    5  A    between atoms: C_3  and  C_12
    6  A    between atoms: N_6  and  C_13
    7  A    between atoms: C_11  and  N_14
    8  A    between atoms: N_14  and  C_22
    9  A    between atoms: C_19  and  C_37
                            x       y       z     vdW  Elec       q    Type
                         _______ _______ _______ _____ _____    ______ ____

>  <TORSDO>
F 9

$$$$
=
 OpenBabel11052416373D

 43 48  0  0  1  0  0  0  0  0999 V2000
  189.9870  177.4340  147.7640 C   0  0  0  0  0  3  0  0  0  0  0  0
  189.8800  177.5010  142.2830 C   0  0  0  0  0  0  0  0  0  0  0  0
  187.1590  178.1220  141.7350 C   0  0  2  0  0  3  0  0  0  0  0  0
  190.7350  176.7110  144.8250 C   0  0  0  0  0  0  0  0  0  0  0  0
  188.7410  176.8720  147.1620 C   0  0  0  0  0  2  0  0  0  0  0  0
  191.1770  177.1150  147.2560 C   0  0  0  0  0  3  0  0  0  0  0  0
  189.4240  177.2530  144.6760 C   0  0  0  0  0  0  0  0  0  0  0  0
  191.2800  176.1580  146.1100 C   0  0  0  0  0  2  0  0  0  0  0  0
  188.4720  177.5510  145.8260 C   0  0  0  0  0  2  0  0  0  0  0  0
  187.6500  178.2730  143.1740 C   0  0  0  0  0  2  0  0  0  0  0  0
  189.0080  177.6420  143.3820 C   0  0  0  0  0  0  0  0  0  0  0  0
  191.1450  176.9530  142.4910 C   0  0  0  0  0  3  0  0  0  0  0  0
  189.4520  177.8770  140.9580 N   0  0  0  0  0  0  0  0  0  0  0  0
  188.2230  178.6430  140.7780 C   0  0  0  0  0  2  0  0  0  0  0  0
  191.5330  176.5750  143.7320 N   0  0  0  0  0  0  0  0  0  0  0  0
  185.8900  178.8190  141.5420 N   0  0  0  0  0  0  0  0  0  0  0  0
  185.2650  178.7890  140.2470 C   0  0  0  0  0  0  0  0  0  0  0  0
  185.9000  178.3550  139.2480 O   0  0  0  0  0  0  0  0  0  0  0  0
  185.2150  179.4250  142.6880 C   0  0  0  0  0  2  0  0  0  0  0  0
  184.3890  178.3850  143.4230 C   0  0  0  0  0  1  0  0  0  0  0  0
  183.8460  179.2240  140.0620 C   0  0  0  0  0  2  0  0  0  0  0  0
  183.2290  178.5250  138.8600 C   0  0  2  0  0  3  0  0  0  0  0  0
  180.9420  177.7610  138.4150 C   0  0  0  0  0  2  0  0  0  0  0  0
  182.5280  179.5210  137.9610 C   0  0  0  0  0  2  0  0  0  0  0  0
  182.1490  177.5430  139.3130 C   0  0  1  0  0  3  0  0  0  0  0  0
  181.3620  178.7690  137.3640 C   0  0  0  0  0  2  0  0  0  0  0  0
  182.5830  176.1360  139.2650 N   0  0  0  0  0  0  0  0  0  0  0  0
  181.6130  175.3680  139.8290 O   0  0  0  0  0  1  0  0  0  0  0  0
  182.7520  175.7230  137.8670 C   0  0  0  0  0  3  0  0  0  0  0  0
  183.5310  173.7810  135.7960 C   0  0  0  0  0  2  0  0  0  0  0  0
  184.3980  174.9950  136.1170 C   0  0  0  0  0  2  0  0  0  0  0  0
  182.0660  174.0870  136.0920 C   0  0  0  0  0  2  0  0  0  0  0  0
  184.2220  175.3960  137.5790 C   0  0  0  0  0  2  0  0  0  0  0  0
  181.8980  174.4870  137.5550 C   0  0  0  0  0  2  0  0  0  0  0  0
  190.1110  177.3430  139.7720 C   0  0  0  0  0  2  0  0  0  0  0  0
  187.7430  176.5330  136.9270 C   0  0  0  0  0  3  0  0  0  0  0  0
  187.6380  177.7750  136.2940 C   0  0  0  0  0  0  0  0  0  0  0  0
  189.1380  178.7390  137.9340 C   0  0  0  0  0  3  0  0  0  0  0  0
  188.5380  176.3950  138.0690 C   0  0  0  0  0  3  0  0  0  0  0  0
  189.2290  177.5000  138.5790 C   0  0  0  0  0  0  0  0  0  0  0  0
  188.3430  178.8760  136.7920 C   0  0  0  0  0  3  0  0  0  0  0  0
  185.4730  177.8780  135.3940 F   0  0  0  0  0  0  0  0  0  0  0  0
  186.8140  177.9160  135.0630 C   0  0  0  0  0  2  0  0  0  0  0  0
  2 12  2  0  0  0  0
  2 11  1  0  0  0  0
  3 16  1  1  0  0  0
  3 10  1  0  0  0  0
  4  8  1  0  0  0  0
  5  1  1  0  0  0  0
  6  1  2  0  0  0  0
  7  4  1  0  0  0  0
  7  9  1  0  0  0  0
  8  6  1  0  0  0  0
  9  5  1  0  0  0  0
 10 11  1  0  0  0  0
 11  7  2  0  0  0  0
 12 15  1  0  0  0  0
 13  2  1  0  0  0  0
 14 13  1  0  0  0  0
 14  3  1  0  0  0  0
 15  4  2  0  0  0  0
 16 19  1  0  0  0  0
 17 16  1  0  0  0  0
 18 17  2  0  0  0  0
 19 20  1  0  0  0  0
 21 17  1  0  0  0  0
 22 25  1  0  0  0  0
 22 21  1  1  0  0  0
 23 25  1  0  0  0  0
 24 22  1  0  0  0  0
 25 27  1  6  0  0  0
 26 24  1  0  0  0  0
 26 23  1  0  0  0  0
 27 28  1  0  0  0  0
 29 27  1  0  0  0  0
 30 32  1  0  0  0  0
 30 31  1  0  0  0  0
 31 33  1  0  0  0  0
 32 34  1  0  0  0  0
 33 29  1  0  0  0  0
 34 29  1  0  0  0  0
 35 13  1  0  0  0  0
 36 39  1  0  0  0  0
 37 41  1  0  0  0  0
 37 36  2  0  0  0  0
 38 40  1  0  0  0  0
 39 40  2  0  0  0  0
 40 35  1  0  0  0  0
 41 38  2  0  0  0  0
 43 42  1  0  0  0  0
 43 37  1  0  0  0  0
M  END
>  <MODEL>
3

>  <REMARK>
 VINA RESULT:      -9.0      1.670      3.075
  Name = 
  9 active torsions:
  status: ('A' for Active; 'I' for Inactive)
    1  A    between atoms: C_1  and  N_34
    2  A    between atoms: C_1  and  C_35
    3  A    between atoms: C_2  and  N_6
    4  A    between atoms: C_3  and  C_4
    5  A    between atoms: C_3  and  C_12
    6  A    between atoms: N_6  and  C_13
    7  A    between atoms: C_11  and  N_14
    8  A    between atoms: N_14  and  C_22
    9  A    between atoms: C_19  and  C_37
                            x       y       z     vdW  Elec       q    Type
                         _______ _______ _______ _____ _____    ______ ____

>  <TORSDO>
F 9

$$$$
=
 OpenBabel11052416373D

 43 48  0  0  1  0  0  0  0  0999 V2000
  191.3520  176.3420  145.3440 C   0  0  0  0  0  3  0  0  0  0  0  0
  186.1940  178.0780  144.6830 C   0  0  0  0  0  0  0  0  0  0  0  0
  186.0910  178.6320  141.8950 C   0  0  2  0  0  3  0  0  0  0  0  0
  188.6130  177.6690  146.0220 C   0  0  0  0  0  0  0  0  0  0  0  0
  191.1950  177.4560  144.3620 C   0  0  0  0  0  2  0  0  0  0  0  0
  190.7050  176.3820  146.5080 C   0  0  0  0  0  3  0  0  0  0  0  0
  188.6090  177.6850  144.5960 C   0  0  0  0  0  0  0  0  0  0  0  0
  189.8530  177.5600  146.8630 C   0  0  0  0  0  2  0  0  0  0  0  0
  189.8160  177.3770  143.7210 C   0  0  0  0  0  2  0  0  0  0  0  0
  187.3040  177.8700  142.4260 C   0  0  0  0  0  2  0  0  0  0  0  0
  187.3770  177.8980  143.9360 C   0  0  0  0  0  0  0  0  0  0  0  0
  186.2650  178.0640  146.0740 C   0  0  0  0  0  3  0  0  0  0  0  0
  184.9390  178.3170  144.0140 N   0  0  0  0  0  0  0  0  0  0  0  0
  184.8300  178.1170  142.5730 C   0  0  0  0  0  2  0  0  0  0  0  0
  187.4510  177.8680  146.6990 N   0  0  0  0  0  0  0  0  0  0  0  0
  185.9970  178.5110  140.4420 N   0  0  0  0  0  0  0  0  0  0  0  0
  187.2060  178.4420  139.6660 C   0  0  0  0  0  0  0  0  0  0  0  0
  188.3180  178.6940  140.2030 O   0  0  0  0  0  0  0  0  0  0  0  0
  184.6890  178.3370  139.8130 C   0  0  0  0  0  2  0  0  0  0  0  0
  184.1320  179.6800  139.3750 C   0  0  0  0  0  1  0  0  0  0  0  0
  187.1800  178.0280  138.2290 C   0  0  0  0  0  2  0  0  0  0  0  0
  188.5970  177.8600  137.6990 C   0  0  2  0  0  3  0  0  0  0  0  0
  189.5270  176.3990  135.9640 C   0  0  0  0  0  2  0  0  0  0  0  0
  188.7890  178.6500  136.4220 C   0  0  0  0  0  2  0  0  0  0  0  0
  188.8570  176.4010  137.3290 C   0  0  1  0  0  3  0  0  0  0  0  0
  189.7740  177.8500  135.6030 C   0  0  0  0  0  2  0  0  0  0  0  0
  189.6880  175.6880  138.3140 N   0  0  0  0  0  0  0  0  0  0  0  0
  190.2360  174.6010  137.7090 O   0  0  0  0  0  1  0  0  0  0  0  0
  190.7720  176.5660  138.7680 C   0  0  0  0  0  3  0  0  0  0  0  0
  193.2860  177.0750  140.2120 C   0  0  0  0  0  2  0  0  0  0  0  0
  191.9410  177.5330  140.7690 C   0  0  0  0  0  2  0  0  0  0  0  0
  193.2370  177.0270  138.6880 C   0  0  0  0  0  2  0  0  0  0  0  0
  190.8320  176.5960  140.3000 C   0  0  0  0  0  2  0  0  0  0  0  0
  192.1260  176.0890  138.2280 C   0  0  0  0  0  2  0  0  0  0  0  0
  183.8210  178.9450  144.7090 C   0  0  0  0  0  2  0  0  0  0  0  0
  181.3830  178.9780  141.8090 C   0  0  0  0  0  3  0  0  0  0  0  0
  180.2000  178.5750  142.4390 C   0  0  0  0  0  0  0  0  0  0  0  0
  181.3810  178.4040  144.5470 C   0  0  0  0  0  3  0  0  0  0  0  0
  182.5660  179.0850  142.5470 C   0  0  0  0  0  3  0  0  0  0  0  0
  182.5680  178.7900  143.9150 C   0  0  0  0  0  0  0  0  0  0  0  0
  180.1980  178.2980  143.8100 C   0  0  0  0  0  3  0  0  0  0  0  0
  179.2180  178.1610  140.3480 F   0  0  0  0  0  0  0  0  0  0  0  0
  178.9360  178.4880  141.6610 C   0  0  0  0  0  2  0  0  0  0  0  0
  1  6  2  0  0  0  0
  2 12  1  0  0  0  0
  3 16  1  6  0  0  0
  3 10  1  0  0  0  0
  3 14  1  0  0  0  0
  4 15  1  0  0  0  0
  4  8  1  0  0  0  0
  5  1  1  0  0  0  0
  6  8  1  0  0  0  0
  7  4  2  0  0  0  0
  9  5  1  0  0  0  0
  9  7  1  0  0  0  0
 10 11  1  0  0  0  0
 11  7  1  0  0  0  0
 11  2  2  0  0  0  0
 12 15  2  0  0  0  0
 13  2  1  0  0  0  0
 13 35  1  0  0  0  0
 14 13  1  0  0  0  0
 17 18  2  0  0  0  0
 17 16  1  0  0  0  0
 19 16  1  0  0  0  0
 20 19  1  0  0  0  0
 21 17  1  0  0  0  0
 22 21  1  6  0  0  0
 23 25  1  0  0  0  0
 24 22  1  0  0  0  0
 25 22  1  0  0  0  0
 25 27  1  1  0  0  0
 26 23  1  0  0  0  0
 26 24  1  0  0  0  0
 27 29  1  0  0  0  0
 28 27  1  0  0  0  0
 29 33  1  0  0  0  0
 30 31  1  0  0  0  0
 32 30  1  0  0  0  0
 33 31  1  0  0  0  0
 34 32  1  0  0  0  0
 34 29  1  0  0  0  0
 36 37  2  0  0  0  0
 36 39  1  0  0  0  0
 37 41  1  0  0  0  0
 39 40  2  0  0  0  0
 40 38  1  0  0  0  0
 40 35  1  0  0  0  0
 41 38  2  0  0  0  0
 42 43  1  0  0  0  0
 43 37  1  0  0  0  0
M  END
>  <MODEL>
4

>  <REMARK>
 VINA RESULT:      -9.0      2.605      7.323
  Name = 
  9 active torsions:
  status: ('A' for Active; 'I' for Inactive)
    1  A    between atoms: C_1  and  N_34
    2  A    between atoms: C_1  and  C_35
    3  A    between atoms: C_2  and  N_6
    4  A    between atoms: C_3  and  C_4
    5  A    between atoms: C_3  and  C_12
    6  A    between atoms: N_6  and  C_13
    7  A    between atoms: C_11  and  N_14
    8  A    between atoms: N_14  and  C_22
    9  A    between atoms: C_19  and  C_37
                            x       y       z     vdW  Elec       q    Type
                         _______ _______ _______ _____ _____    ______ ____

>  <TORSDO>
F 9

$$$$
=
 OpenBabel11052416373D

 43 48  0  0  1  0  0  0  0  0999 V2000
  195.9840  174.4620  137.2460 C   0  0  0  0  0  3  0  0  0  0  0  0
  190.9370  176.3370  136.2120 C   0  0  0  0  0  0  0  0  0  0  0  0
  189.9880  176.9980  138.8110 C   0  0  2  0  0  3  0  0  0  0  0  0
  193.2280  174.7840  135.8230 C   0  0  0  0  0  0  0  0  0  0  0  0
  194.9610  174.0840  138.2670 C   0  0  0  0  0  2  0  0  0  0  0  0
  195.6960  174.3770  135.9480 C   0  0  0  0  0  3  0  0  0  0  0  0
  192.9530  175.2930  137.1270 C   0  0  0  0  0  0  0  0  0  0  0  0
  194.3650  173.8580  135.4990 C   0  0  0  0  0  2  0  0  0  0  0  0
  193.8810  175.1550  138.3250 C   0  0  0  0  0  2  0  0  0  0  0  0
  191.4750  176.6820  138.6530 C   0  0  0  0  0  2  0  0  0  0  0  0
  191.7870  176.0720  137.3050 C   0  0  0  0  0  0  0  0  0  0  0  0
  191.2540  175.8020  134.9650 C   0  0  0  0  0  3  0  0  0  0  0  0
  189.7350  177.1140  136.3940 N   0  0  0  0  0  0  0  0  0  0  0  0
  189.5210  177.8470  137.6370 C   0  0  0  0  0  2  0  0  0  0  0  0
  192.3680  175.0490  134.8040 N   0  0  0  0  0  0  0  0  0  0  0  0
  189.7310  177.6680  140.0830 N   0  0  0  0  0  0  0  0  0  0  0  0
  188.4880  178.3690  140.2650 C   0  0  0  0  0  0  0  0  0  0  0  0
  187.7310  178.5820  139.2800 O   0  0  0  0  0  0  0  0  0  0  0  0
  190.6760  177.5140  141.1870 C   0  0  0  0  0  2  0  0  0  0  0  0
  190.3010  176.3120  142.0360 C   0  0  0  0  0  1  0  0  0  0  0  0
  188.0450  178.8180  141.6220 C   0  0  0  0  0  2  0  0  0  0  0  0
  186.7540  178.1170  142.0170 C   0  0  2  0  0  3  0  0  0  0  0  0
  184.9080  178.8020  143.4780 C   0  0  0  0  0  2  0  0  0  0  0  0
  185.5970  178.6090  141.1740 C   0  0  0  0  0  2  0  0  0  0  0  0
  186.3880  178.4530  143.4620 C   0  0  1  0  0  3  0  0  0  0  0  0
  184.3880  178.5440  142.0780 C   0  0  0  0  0  2  0  0  0  0  0  0
  186.6710  177.3570  144.4050 N   0  0  0  0  0  0  0  0  0  0  0  0
  187.2460  176.3350  143.7170 O   0  0  0  0  0  1  0  0  0  0  0  0
  187.6140  177.8220  145.4280 C   0  0  0  0  0  3  0  0  0  0  0  0
  189.3690  177.3850  147.7510 C   0  0  0  0  0  2  0  0  0  0  0  0
  188.0190  178.0830  147.8920 C   0  0  0  0  0  2  0  0  0  0  0  0
  189.9370  177.6120  146.3540 C   0  0  0  0  0  2  0  0  0  0  0  0
  187.0490  177.5720  146.8320 C   0  0  0  0  0  2  0  0  0  0  0  0
  188.9600  177.0990  145.3000 C   0  0  0  0  0  2  0  0  0  0  0  0
  188.6310  177.0290  135.4450 C   0  0  0  0  0  2  0  0  0  0  0  0
  186.6850  173.8740  136.2280 C   0  0  0  0  0  3  0  0  0  0  0  0
  185.5570  174.3980  136.8680 C   0  0  0  0  0  0  0  0  0  0  0  0
  186.4370  176.6370  136.5890 C   0  0  0  0  0  3  0  0  0  0  0  0
  187.6930  174.7310  135.7760 C   0  0  0  0  0  3  0  0  0  0  0  0
  187.5750  176.1130  135.9640 C   0  0  0  0  0  0  0  0  0  0  0  0
  185.4290  175.7800  137.0400 C   0  0  0  0  0  3  0  0  0  0  0  0
  184.9660  172.6070  138.2650 F   0  0  0  0  0  0  0  0  0  0  0  0
  184.4710  173.4890  137.3240 C   0  0  0  0  0  2  0  0  0  0  0  0
  1  5  1  0  0  0  0
  2 13  1  0  0  0  0
  2 11  1  0  0  0  0
  3 16  1  1  0  0  0
  4  7  1  0  0  0  0
  5  9  1  0  0  0  0
  6  1  2  0  0  0  0
  7 11  2  0  0  0  0
  7  9  1  0  0  0  0
  8  4  1  0  0  0  0
  8  6  1  0  0  0  0
 10  3  1  0  0  0  0
 11 10  1  0  0  0  0
 12  2  2  0  0  0  0
 13 14  1  0  0  0  0
 14  3  1  0  0  0  0
 15 12  1  0  0  0  0
 15  4  2  0  0  0  0
 16 17  1  0  0  0  0
 16 19  1  0  0  0  0
 17 21  1  0  0  0  0
 18 17  2  0  0  0  0
 19 20  1  0  0  0  0
 22 21  1  6  0  0  0
 22 25  1  0  0  0  0
 24 22  1  0  0  0  0
 24 26  1  0  0  0  0
 25 23  1  0  0  0  0
 25 27  1  1  0  0  0
 26 23  1  0  0  0  0
 27 29  1  0  0  0  0
 28 27  1  0  0  0  0
 29 33  1  0  0  0  0
 30 31  1  0  0  0  0
 32 30  1  0  0  0  0
 33 31  1  0  0  0  0
 34 29  1  0  0  0  0
 34 32  1  0  0  0  0
 35 40  1  0  0  0  0
 35 13  1  0  0  0  0
 36 37  1  0  0  0  0
 37 41  2  0  0  0  0
 37 43  1  0  0  0  0
 38 41  1  0  0  0  0
 39 40  1  0  0  0  0
 39 36  2  0  0  0  0
 40 38  2  0  0  0  0
 43 42  1  0  0  0  0
M  END
>  <MODEL>
5

>  <REMARK>
 VINA RESULT:      -8.9      3.793      7.906
  Name = 
  9 active torsions:
  status: ('A' for Active; 'I' for Inactive)
    1  A    between atoms: C_1  and  N_34
    2  A    between atoms: C_1  and  C_35
    3  A    between atoms: C_2  and  N_6
    4  A    between atoms: C_3  and  C_4
    5  A    between atoms: C_3  and  C_12
    6  A    between atoms: N_6  and  C_13
    7  A    between atoms: C_11  and  N_14
    8  A    between atoms: N_14  and  C_22
    9  A    between atoms: C_19  and  C_37
                            x       y       z     vdW  Elec       q    Type
                         _______ _______ _______ _____ _____    ______ ____

>  <TORSDO>
F 9

$$$$
=
 OpenBabel11052416373D

 43 48  0  0  1  0  0  0  0  0999 V2000
  192.2380  174.3000  136.1120 C   0  0  0  0  0  3  0  0  0  0  0  0
  187.1640  176.3750  136.2070 C   0  0  0  0  0  0  0  0  0  0  0  0
  186.9930  177.4450  138.8360 C   0  0  2  0  0  3  0  0  0  0  0  0
  189.2080  174.6240  135.4510 C   0  0  0  0  0  0  0  0  0  0  0  0
  191.5260  174.1360  137.4140 C   0  0  0  0  0  2  0  0  0  0  0  0
  191.5990  174.0620  134.9670 C   0  0  0  0  0  3  0  0  0  0  0  0
  189.3210  175.3220  136.6900 C   0  0  0  0  0  0  0  0  0  0  0  0
  190.1810  173.5840  134.9750 C   0  0  0  0  0  2  0  0  0  0  0  0
  190.5390  175.2800  137.6010 C   0  0  0  0  0  2  0  0  0  0  0  0
  188.3670  177.0060  138.3330 C   0  0  0  0  0  2  0  0  0  0  0  0
  188.2750  176.1990  137.0580 C   0  0  0  0  0  0  0  0  0  0  0  0
  187.1060  175.6560  135.0140 C   0  0  0  0  0  3  0  0  0  0  0  0
  186.0850  177.2530  136.5870 N   0  0  0  0  0  0  0  0  0  0  0  0
  186.2460  178.1600  137.7190 C   0  0  0  0  0  2  0  0  0  0  0  0
  188.1080  174.8100  134.6740 N   0  0  0  0  0  0  0  0  0  0  0  0
  187.1190  178.2970  140.0160 N   0  0  0  0  0  0  0  0  0  0  0  0
  185.9320  178.6830  140.7310 C   0  0  0  0  0  0  0  0  0  0  0  0
  184.7950  178.4700  140.2300 O   0  0  0  0  0  0  0  0  0  0  0  0
  188.4470  178.6400  140.5240 C   0  0  0  0  0  2  0  0  0  0  0  0
  188.9220  177.5860  141.5070 C   0  0  0  0  0  1  0  0  0  0  0  0
  186.0140  179.2990  142.0920 C   0  0  0  0  0  2  0  0  0  0  0  0
  185.1690  178.5110  143.0820 C   0  0  2  0  0  3  0  0  0  0  0  0
  184.5930  178.9280  145.4280 C   0  0  0  0  0  2  0  0  0  0  0  0
  183.7690  179.0810  143.1650 C   0  0  0  0  0  2  0  0  0  0  0  0
  185.7510  178.6300  144.4890 C   0  0  1  0  0  3  0  0  0  0  0  0
  183.3300  178.8530  144.5930 C   0  0  0  0  0  2  0  0  0  0  0  0
  186.4720  177.4220  144.9260 N   0  0  0  0  0  0  0  0  0  0  0  0
  186.8580  176.7280  143.8230 O   0  0  0  0  0  1  0  0  0  0  0  0
  187.6720  177.8110  145.6760 C   0  0  0  0  0  3  0  0  0  0  0  0
  189.9980  177.2070  147.3760 C   0  0  0  0  0  2  0  0  0  0  0  0
  188.7550  177.8870  147.9400 C   0  0  0  0  0  2  0  0  0  0  0  0
  190.1570  177.5420  145.8960 C   0  0  0  0  0  2  0  0  0  0  0  0
  187.5170  177.4540  147.1590 C   0  0  0  0  0  2  0  0  0  0  0  0
  188.9160  177.1060  145.1230 C   0  0  0  0  0  2  0  0  0  0  0  0
  184.7590  177.1200  135.9950 C   0  0  0  0  0  2  0  0  0  0  0  0
  182.6930  175.7820  138.8750 C   0  0  0  0  0  3  0  0  0  0  0  0
  181.7360  176.7910  139.0200 C   0  0  0  0  0  0  0  0  0  0  0  0
  182.7550  178.0200  137.1990 C   0  0  0  0  0  3  0  0  0  0  0  0
  183.6870  175.8950  137.8970 C   0  0  0  0  0  3  0  0  0  0  0  0
  183.7250  177.0190  137.0640 C   0  0  0  0  0  0  0  0  0  0  0  0
  181.7620  177.9050  138.1750 C   0  0  0  0  0  3  0  0  0  0  0  0
  180.9250  177.4970  141.1050 F   0  0  0  0  0  0  0  0  0  0  0  0
  180.6620  176.6570  140.0400 C   0  0  0  0  0  2  0  0  0  0  0  0
  1  5  1  0  0  0  0
  2 13  1  0  0  0  0
  2 11  1  0  0  0  0
  3 16  1  1  0  0  0
  4  7  1  0  0  0  0
  5  9  1  0  0  0  0
  6  8  1  0  0  0  0
  6  1  2  0  0  0  0
  7 11  2  0  0  0  0
  7  9  1  0  0  0  0
  8  4  1  0  0  0  0
 10  3  1  0  0  0  0
 11 10  1  0  0  0  0
 12  2  2  0  0  0  0
 13 14  1  0  0  0  0
 14  3  1  0  0  0  0
 15 12  1  0  0  0  0
 15  4  2  0  0  0  0
 16 19  1  0  0  0  0
 16 17  1  0  0  0  0
 17 21  1  0  0  0  0
 18 17  2  0  0  0  0
 19 20  1  0  0  0  0
 22 21  1  6  0  0  0
 22 24  1  0  0  0  0
 22 25  1  0  0  0  0
 24 26  1  0  0  0  0
 25 27  1  1  0  0  0
 25 23  1  0  0  0  0
 26 23  1  0  0  0  0
 27 29  1  0  0  0  0
 28 27  1  0  0  0  0
 29 33  1  0  0  0  0
 30 31  1  0  0  0  0
 32 30  1  0  0  0  0
 33 31  1  0  0  0  0
 34 29  1  0  0  0  0
 34 32  1  0  0  0  0
 35 13  1  0  0  0  0
 35 40  1  0  0  0  0
 36 37  1  0  0  0  0
 37 43  1  0  0  0  0
 38 41  1  0  0  0  0
 39 36  2  0  0  0  0
 40 38  2  0  0  0  0
 40 39  1  0  0  0  0
 41 37  2  0  0  0  0
 43 42  1  0  0  0  0
M  END
>  <MODEL>
6

>  <REMARK>
 VINA RESULT:      -8.9      2.955      8.118
  Name = 
  9 active torsions:
  status: ('A' for Active; 'I' for Inactive)
    1  A    between atoms: C_1  and  N_34
    2  A    between atoms: C_1  and  C_35
    3  A    between atoms: C_2  and  N_6
    4  A    between atoms: C_3  and  C_4
    5  A    between atoms: C_3  and  C_12
    6  A    between atoms: N_6  and  C_13
    7  A    between atoms: C_11  and  N_14
    8  A    between atoms: N_14  and  C_22
    9  A    between atoms: C_19  and  C_37
                            x       y       z     vdW  Elec       q    Type
                         _______ _______ _______ _____ _____    ______ ____

>  <TORSDO>
F 9

$$$$
=
 OpenBabel11052416373D

 43 48  0  0  1  0  0  0  0  0999 V2000
  189.2560  175.4670  136.3030 C   0  0  0  0  0  3  0  0  0  0  0  0
  189.7220  177.6920  141.2910 C   0  0  0  0  0  0  0  0  0  0  0  0
  187.0600  178.5330  141.8340 C   0  0  2  0  0  3  0  0  0  0  0  0
  190.5450  176.9460  138.7260 C   0  0  0  0  0  0  0  0  0  0  0  0
  188.4170  176.6840  136.5190 C   0  0  0  0  0  2  0  0  0  0  0  0
  190.5190  175.4430  136.7230 C   0  0  0  0  0  3  0  0  0  0  0  0
  189.1510  177.1070  138.9840 C   0  0  0  0  0  0  0  0  0  0  0  0
  191.1250  176.6480  137.3730 C   0  0  0  0  0  2  0  0  0  0  0  0
  188.0430  176.7880  137.9900 C   0  0  0  0  0  2  0  0  0  0  0  0
  187.2880  177.6210  140.6300 C   0  0  0  0  0  2  0  0  0  0  0  0
  188.7550  177.4890  140.2850 C   0  0  0  0  0  0  0  0  0  0  0  0
  191.0700  177.5310  140.9740 C   0  0  0  0  0  3  0  0  0  0  0  0
  189.3240  178.1040  142.6150 N   0  0  0  0  0  0  0  0  0  0  0  0
  187.9170  178.0600  143.0000 C   0  0  0  0  0  2  0  0  0  0  0  0
  191.4420  177.1740  139.7220 N   0  0  0  0  0  0  0  0  0  0  0  0
  185.6460  178.5680  142.1990 N   0  0  0  0  0  0  0  0  0  0  0  0
  184.6820  179.0010  141.2230 C   0  0  0  0  0  0  0  0  0  0  0  0
  185.0670  179.5400  140.1500 O   0  0  0  0  0  0  0  0  0  0  0  0
  185.2190  178.0490  143.4970 C   0  0  0  0  0  2  0  0  0  0  0  0
  184.9380  179.1920  144.4550 C   0  0  0  0  0  1  0  0  0  0  0  0
  183.2170  178.7830  141.4320 C   0  0  0  0  0  2  0  0  0  0  0  0
  182.5100  178.6130  140.0960 C   0  0  2  0  0  3  0  0  0  0  0  0
  180.4170  177.4890  139.4900 C   0  0  0  0  0  2  0  0  0  0  0  0
  181.4110  179.6420  139.9350 C   0  0  0  0  0  2  0  0  0  0  0  0
  181.8180  177.2520  140.0300 C   0  0  1  0  0  3  0  0  0  0  0  0
  180.3390  178.9560  139.1210 C   0  0  0  0  0  2  0  0  0  0  0  0
  182.5350  176.2730  139.1960 N   0  0  0  0  0  0  0  0  0  0  0  0
  181.6760  175.2690  138.8760 O   0  0  0  0  0  1  0  0  0  0  0  0
  182.9820  176.9180  137.9560 C   0  0  0  0  0  3  0  0  0  0  0  0
  184.2900  176.8800  135.3190 C   0  0  0  0  0  2  0  0  0  0  0  0
  184.9670  177.5040  136.5360 C   0  0  0  0  0  2  0  0  0  0  0  0
  182.7730  176.9710  135.4560 C   0  0  0  0  0  2  0  0  0  0  0  0
  184.5040  176.8070  137.8110 C   0  0  0  0  0  2  0  0  0  0  0  0
  182.3180  176.2710  136.7330 C   0  0  0  0  0  2  0  0  0  0  0  0
  190.2660  178.7510  143.5200 C   0  0  0  0  0  2  0  0  0  0  0  0
  190.3280  177.0690  146.9150 C   0  0  0  0  0  3  0  0  0  0  0  0
  191.3630  176.1440  146.7460 C   0  0  0  0  0  0  0  0  0  0  0  0
  191.6770  176.9120  144.4700 C   0  0  0  0  0  3  0  0  0  0  0  0
  189.9610  177.9090  145.8590 C   0  0  0  0  0  3  0  0  0  0  0  0
  190.6290  177.8250  144.6320 C   0  0  0  0  0  0  0  0  0  0  0  0
  192.0440  176.0730  145.5260 C   0  0  0  0  0  3  0  0  0  0  0  0
  193.0370  175.6240  148.3060 F   0  0  0  0  0  0  0  0  0  0  0  0
  191.7720  175.2700  147.8780 C   0  0  0  0  0  2  0  0  0  0  0  0
  1  5  1  0  0  0  0
  1  6  2  0  0  0  0
  2 13  1  0  0  0  0
  3 16  1  1  0  0  0
  3 14  1  0  0  0  0
  4  7  2  0  0  0  0
  4 15  1  0  0  0  0
  5  9  1  0  0  0  0
  6  8  1  0  0  0  0
  7 11  1  0  0  0  0
  8  4  1  0  0  0  0
  9  7  1  0  0  0  0
 10  3  1  0  0  0  0
 11 10  1  0  0  0  0
 11  2  2  0  0  0  0
 12  2  1  0  0  0  0
 13 14  1  0  0  0  0
 13 35  1  0  0  0  0
 15 12  2  0  0  0  0
 16 19  1  0  0  0  0
 17 21  1  0  0  0  0
 17 16  1  0  0  0  0
 18 17  2  0  0  0  0
 19 20  1  0  0  0  0
 22 21  1  1  0  0  0
 23 25  1  0  0  0  0
 24 22  1  0  0  0  0
 25 27  1  6  0  0  0
 25 22  1  0  0  0  0
 26 23  1  0  0  0  0
 26 24  1  0  0  0  0
 28 27  1  0  0  0  0
 29 27  1  0  0  0  0
 30 32  1  0  0  0  0
 30 31  1  0  0  0  0
 31 33  1  0  0  0  0
 32 34  1  0  0  0  0
 33 29  1  0  0  0  0
 34 29  1  0  0  0  0
 35 40  1  0  0  0  0
 37 36  1  0  0  0  0
 37 43  1  0  0  0  0
 38 40  2  0  0  0  0
 38 41  1  0  0  0  0
 39 36  2  0  0  0  0
 40 39  1  0  0  0  0
 41 37  2  0  0  0  0
 43 42  1  0  0  0  0
M  END
>  <MODEL>
7

>  <REMARK>
 VINA RESULT:      -8.9      2.817      6.696
  Name = 
  9 active torsions:
  status: ('A' for Active; 'I' for Inactive)
    1  A    between atoms: C_1  and  N_34
    2  A    between atoms: C_1  and  C_35
    3  A    between atoms: C_2  and  N_6
    4  A    between atoms: C_3  and  C_4
    5  A    between atoms: C_3  and  C_12
    6  A    between atoms: N_6  and  C_13
    7  A    between atoms: C_11  and  N_14
    8  A    between atoms: N_14  and  C_22
    9  A    between atoms: C_19  and  C_37
                            x       y       z     vdW  Elec       q    Type
                         _______ _______ _______ _____ _____    ______ ____

>  <TORSDO>
F 9

$$$$
=
 OpenBabel11052416373D

 43 48  0  0  1  0  0  0  0  0999 V2000
  185.6810  177.8960  145.5390 C   0  0  0  0  0  3  0  0  0  0  0  0
  181.9880  178.5670  141.5440 C   0  0  0  0  0  0  0  0  0  0  0  0
  183.5080  178.0020  139.2080 C   0  0  2  0  0  3  0  0  0  0  0  0
  183.1960  179.0140  144.0240 C   0  0  0  0  0  0  0  0  0  0  0  0
  186.2210  178.5230  144.2960 C   0  0  0  0  0  2  0  0  0  0  0  0
  184.5080  178.2900  146.0310 C   0  0  0  0  0  3  0  0  0  0  0  0
  183.9840  178.4860  142.9590 C   0  0  0  0  0  0  0  0  0  0  0  0
  183.7410  179.3940  145.3710 C   0  0  0  0  0  2  0  0  0  0  0  0
  185.4290  178.0290  143.0930 C   0  0  0  0  0  2  0  0  0  0  0  0
  184.1290  177.6630  140.5620 C   0  0  0  0  0  2  0  0  0  0  0  0
  183.3570  178.2720  141.7110 C   0  0  0  0  0  0  0  0  0  0  0  0
  181.2740  179.0920  142.6200 C   0  0  0  0  0  3  0  0  0  0  0  0
  181.3480  178.3690  140.2660 N   0  0  0  0  0  0  0  0  0  0  0  0
  182.0340  177.6240  139.2150 C   0  0  0  0  0  2  0  0  0  0  0  0
  181.8850  179.3030  143.8100 N   0  0  0  0  0  0  0  0  0  0  0  0
  184.2210  177.3270  138.1260 N   0  0  0  0  0  0  0  0  0  0  0  0
  185.5730  177.7180  137.8280 C   0  0  0  0  0  0  0  0  0  0  0  0
  186.0580  178.7610  138.3450 O   0  0  0  0  0  0  0  0  0  0  0  0
  183.6010  176.1900  137.4490 C   0  0  0  0  0  2  0  0  0  0  0  0
  183.0870  176.6070  136.0830 C   0  0  0  0  0  1  0  0  0  0  0  0
  186.4440  176.8810  136.9450 C   0  0  0  0  0  2  0  0  0  0  0  0
  187.5930  177.7110  136.3940 C   0  0  2  0  0  3  0  0  0  0  0  0
  189.9070  177.1240  135.8350 C   0  0  0  0  0  2  0  0  0  0  0  0
  187.7200  177.5230  134.8960 C   0  0  0  0  0  2  0  0  0  0  0  0
  188.9200  177.2420  136.9860 C   0  0  1  0  0  3  0  0  0  0  0  0
  189.1970  177.6480  134.6030 C   0  0  0  0  0  2  0  0  0  0  0  0
  189.4450  178.1410  138.0270 N   0  0  0  0  0  0  0  0  0  0  0  0
  188.7180  179.2900  138.0100 O   0  0  0  0  0  1  0  0  0  0  0  0
  189.2920  177.5110  139.3440 C   0  0  0  0  0  3  0  0  0  0  0  0
  189.8360  177.3320  142.2310 C   0  0  0  0  0  2  0  0  0  0  0  0
  190.4860  176.3740  141.2370 C   0  0  0  0  0  2  0  0  0  0  0  0
  188.4860  177.8060  141.7020 C   0  0  0  0  0  2  0  0  0  0  0  0
  190.6530  177.0550  139.8820 C   0  0  0  0  0  2  0  0  0  0  0  0
  188.6620  178.4850  140.3470 C   0  0  0  0  0  2  0  0  0  0  0  0
  180.1130  179.0640  139.9250 C   0  0  0  0  0  2  0  0  0  0  0  0
  181.3770  182.1530  138.1320 C   0  0  0  0  0  3  0  0  0  0  0  0
  180.7820  182.0060  136.8750 C   0  0  0  0  0  0  0  0  0  0  0  0
  179.7580  179.9340  137.6030 C   0  0  0  0  0  3  0  0  0  0  0  0
  181.1690  181.1870  139.1220 C   0  0  0  0  0  3  0  0  0  0  0  0
  180.3670  180.0720  138.8550 C   0  0  0  0  0  0  0  0  0  0  0  0
  179.9650  180.9010  136.6140 C   0  0  0  0  0  3  0  0  0  0  0  0
  180.2720  182.7060  134.6950 F   0  0  0  0  0  0  0  0  0  0  0  0
  180.9790  183.0470  135.8320 C   0  0  0  0  0  2  0  0  0  0  0  0
  1  6  2  0  0  0  0
  2 11  2  0  0  0  0
  2 12  1  0  0  0  0
  3 16  1  6  0  0  0
  3 14  1  0  0  0  0
  3 10  1  0  0  0  0
  4  8  1  0  0  0  0
  5  1  1  0  0  0  0
  7  9  1  0  0  0  0
  7  4  2  0  0  0  0
  8  6  1  0  0  0  0
  9  5  1  0  0  0  0
 10 11  1  0  0  0  0
 11  7  1  0  0  0  0
 12 15  2  0  0  0  0
 13  2  1  0  0  0  0
 14 13  1  0  0  0  0
 15  4  1  0  0  0  0
 17 16  1  0  0  0  0
 17 18  2  0  0  0  0
 19 16  1  0  0  0  0
 20 19  1  0  0  0  0
 21 17  1  0  0  0  0
 22 21  1  1  0  0  0
 22 25  1  0  0  0  0
 23 25  1  0  0  0  0
 24 22  1  0  0  0  0
 25 27  1  1  0  0  0
 26 24  1  0  0  0  0
 26 23  1  0  0  0  0
 27 29  1  0  0  0  0
 28 27  1  0  0  0  0
 29 33  1  0  0  0  0
 29 34  1  0  0  0  0
 31 30  1  0  0  0  0
 32 30  1  0  0  0  0
 33 31  1  0  0  0  0
 34 32  1  0  0  0  0
 35 13  1  0  0  0  0
 36 39  1  0  0  0  0
 37 36  2  0  0  0  0
 38 40  1  0  0  0  0
 40 39  2  0  0  0  0
 40 35  1  0  0  0  0
 41 37  1  0  0  0  0
 41 38  2  0  0  0  0
 42 43  1  0  0  0  0
 43 37  1  0  0  0  0
M  END
>  <MODEL>
8

>  <REMARK>
 VINA RESULT:      -8.7      2.763      7.502
  Name = 
  9 active torsions:
  status: ('A' for Active; 'I' for Inactive)
    1  A    between atoms: C_1  and  N_34
    2  A    between atoms: C_1  and  C_35
    3  A    between atoms: C_2  and  N_6
    4  A    between atoms: C_3  and  C_4
    5  A    between atoms: C_3  and  C_12
    6  A    between atoms: N_6  and  C_13
    7  A    between atoms: C_11  and  N_14
    8  A    between atoms: N_14  and  C_22
    9  A    between atoms: C_19  and  C_37
                            x       y       z     vdW  Elec       q    Type
                         _______ _______ _______ _____ _____    ______ ____

>  <TORSDO>
F 9

$$$$
=
 OpenBabel11052416373D

 43 48  0  0  1  0  0  0  0  0999 V2000
  189.5070  176.3940  147.6720 C   0  0  0  0  0  3  0  0  0  0  0  0
  186.4700  178.2780  143.5150 C   0  0  0  0  0  0  0  0  0  0  0  0
  188.2670  178.0990  141.3180 C   0  0  2  0  0  3  0  0  0  0  0  0
  187.3400  178.0500  146.1610 C   0  0  0  0  0  0  0  0  0  0  0  0
  190.2570  177.2250  146.6830 C   0  0  0  0  0  2  0  0  0  0  0  0
  188.3030  176.7800  148.0920 C   0  0  0  0  0  3  0  0  0  0  0  0
  188.2350  177.6970  145.1080 C   0  0  0  0  0  0  0  0  0  0  0  0
  187.7110  178.0700  147.6160 C   0  0  0  0  0  2  0  0  0  0  0  0
  189.6140  177.0850  145.3110 C   0  0  0  0  0  2  0  0  0  0  0  0
  188.6650  177.4120  142.6230 C   0  0  0  0  0  2  0  0  0  0  0  0
  187.7790  177.8240  143.7770 C   0  0  0  0  0  0  0  0  0  0  0  0
  185.6460  178.6180  144.5860 C   0  0  0  0  0  3  0  0  0  0  0  0
  186.0070  178.4280  142.1570 N   0  0  0  0  0  0  0  0  0  0  0  0
  186.7850  177.8710  141.0550 C   0  0  0  0  0  2  0  0  0  0  0  0
  186.0940  178.5030  145.8590 N   0  0  0  0  0  0  0  0  0  0  0  0
  189.0810  177.6140  140.2060 N   0  0  0  0  0  0  0  0  0  0  0  0
  188.8380  178.1290  138.8850 C   0  0  0  0  0  0  0  0  0  0  0  0
  187.8090  178.8210  138.6550 O   0  0  0  0  0  0  0  0  0  0  0  0
  190.2030  176.7150  140.4670 C   0  0  0  0  0  2  0  0  0  0  0  0
  191.4960  177.5030  140.5700 C   0  0  0  0  0  1  0  0  0  0  0  0
  189.8130  177.8990  137.7730 C   0  0  0  0  0  2  0  0  0  0  0  0
  189.2910  176.8320  136.8230 C   0  0  2  0  0  3  0  0  0  0  0  0
  189.2180  174.3870  136.9990 C   0  0  0  0  0  2  0  0  0  0  0  0
  187.8970  176.3940  137.2210 C   0  0  0  0  0  2  0  0  0  0  0  0
  190.1600  175.5770  136.9050 C   0  0  1  0  0  3  0  0  0  0  0  0
  187.8140  174.9340  136.8400 C   0  0  0  0  0  2  0  0  0  0  0  0
  191.0730  175.4250  135.7600 N   0  0  0  0  0  0  0  0  0  0  0  0
  190.7370  176.3430  134.8150 O   0  0  0  0  0  1  0  0  0  0  0  0
  192.4510  175.6830  136.1920 C   0  0  0  0  0  3  0  0  0  0  0  0
  195.1690  174.8090  136.9100 C   0  0  0  0  0  2  0  0  0  0  0  0
  194.1680  175.2520  137.9730 C   0  0  0  0  0  2  0  0  0  0  0  0
  194.8800  175.5120  135.5870 C   0  0  0  0  0  2  0  0  0  0  0  0
  192.7440  174.9570  137.5110 C   0  0  0  0  0  2  0  0  0  0  0  0
  193.4550  175.2120  135.1330 C   0  0  0  0  0  2  0  0  0  0  0  0
  184.8800  179.2960  141.8350 C   0  0  0  0  0  2  0  0  0  0  0  0
  183.2880  178.8620  138.4250 C   0  0  0  0  0  3  0  0  0  0  0  0
  182.5560  177.6850  138.6100 C   0  0  0  0  0  0  0  0  0  0  0  0
  183.3470  177.5520  140.8950 C   0  0  0  0  0  3  0  0  0  0  0  0
  184.0560  179.3800  139.4720 C   0  0  0  0  0  3  0  0  0  0  0  0
  184.0940  178.7200  140.7060 C   0  0  0  0  0  0  0  0  0  0  0  0
  182.5790  177.0350  139.8480 C   0  0  0  0  0  3  0  0  0  0  0  0
  182.1210  177.6990  136.3040 F   0  0  0  0  0  0  0  0  0  0  0  0
  181.7160  177.1490  137.5050 C   0  0  0  0  0  2  0  0  0  0  0  0
  1  6  2  0  0  0  0
  2 11  2  0  0  0  0
  2 12  1  0  0  0  0
  3 16  1  6  0  0  0
  3 10  1  0  0  0  0
  4  8  1  0  0  0  0
  5  1  1  0  0  0  0
  7  9  1  0  0  0  0
  7  4  2  0  0  0  0
  8  6  1  0  0  0  0
  9  5  1  0  0  0  0
 10 11  1  0  0  0  0
 11  7  1  0  0  0  0
 12 15  2  0  0  0  0
 13  2  1  0  0  0  0
 14  3  1  0  0  0  0
 14 13  1  0  0  0  0
 15  4  1  0  0  0  0
 16 19  1  0  0  0  0
 17 16  1  0  0  0  0
 18 17  2  0  0  0  0
 19 20  1  0  0  0  0
 21 17  1  0  0  0  0
 22 25  1  0  0  0  0
 22 24  1  0  0  0  0
 22 21  1  1  0  0  0
 25 27  1  6  0  0  0
 25 23  1  0  0  0  0
 26 23  1  0  0  0  0
 26 24  1  0  0  0  0
 27 29  1  0  0  0  0
 28 27  1  0  0  0  0
 29 33  1  0  0  0  0
 30 31  1  0  0  0  0
 32 30  1  0  0  0  0
 33 31  1  0  0  0  0
 34 32  1  0  0  0  0
 34 29  1  0  0  0  0
 35 13  1  0  0  0  0
 36 37  2  0  0  0  0
 36 39  1  0  0  0  0
 37 41  1  0  0  0  0
 39 40  2  0  0  0  0
 40 38  1  0  0  0  0
 40 35  1  0  0  0  0
 41 38  2  0  0  0  0
 42 43  1  0  0  0  0
 43 37  1  0  0  0  0
M  END
>  <MODEL>
9

>  <REMARK>
 VINA RESULT:      -8.5      3.104      7.662
  Name = 
  9 active torsions:
  status: ('A' for Active; 'I' for Inactive)
    1  A    between atoms: C_1  and  N_34
    2  A    between atoms: C_1  and  C_35
    3  A    between atoms: C_2  and  N_6
    4  A    between atoms: C_3  and  C_4
    5  A    between atoms: C_3  and  C_12
    6  A    between atoms: N_6  and  C_13
    7  A    between atoms: C_11  and  N_14
    8  A    between atoms: N_14  and  C_22
    9  A    between atoms: C_19  and  C_37
                            x       y       z     vdW  Elec       q    Type
                         _______ _______ _______ _____ _____    ______ ____

>  <TORSDO>
F 9

$$$$
