=
 OpenBabel11052414233D

 34 38  0  0  1  0  0  0  0  0999 V2000
  189.7120  177.4890  145.4760 C   0  0  0  0  0  0  0  0  0  0  0  0
  190.7050  175.9770  143.8530 C   0  0  0  0  0  0  0  0  0  0  0  0
  188.6680  177.4150  143.2150 C   0  0  0  0  0  0  0  0  0  0  0  0
  187.8050  178.0240  141.0270 C   0  0  0  0  0  0  0  0  0  0  0  0
  190.7030  177.1500  146.4000 C   0  0  0  0  0  3  0  0  0  0  0  0
  191.6870  175.6410  144.7900 C   0  0  0  0  0  3  0  0  0  0  0  0
  190.2780  177.6380  141.2500 C   0  0  0  0  0  2  0  0  0  0  0  0
  189.7460  176.9740  144.1620 C   0  0  0  0  0  0  0  0  0  0  0  0
  190.2560  177.5130  139.7300 C   0  0  0  0  0  2  0  0  0  0  0  0
  187.9620  178.1480  139.5380 C   0  0  0  0  0  2  0  0  0  0  0  0
  191.7020  176.2420  146.0500 C   0  0  0  0  0  3  0  0  0  0  0  0
  187.4180  177.7860  143.7700 C   0  0  0  0  0  0  0  0  0  0  0  0
  188.5770  178.3670  145.9020 C   0  0  0  0  0  2  0  0  0  0  0  0
  190.6270  175.2130  142.6550 N   0  0  0  0  0  1  0  0  0  0  0  0
  186.5860  178.2440  141.5780 N   0  0  0  0  0  0  0  0  0  0  0  0
  186.3520  178.1500  142.9140 C   0  0  0  0  0  0  0  0  0  0  0  0
  189.3360  178.5050  139.1750 N   0  0  0  0  0  0  0  0  0  0  0  0
  188.8850  177.6150  141.8320 C   0  0  0  0  0  0  0  0  0  0  0  0
  187.2830  177.8510  145.2730 C   0  0  0  0  0  2  0  0  0  0  0  0
  182.6120  178.7330  142.9240 C   0  0  0  0  0  0  0  0  0  0  0  0
  182.3580  178.9480  144.2800 C   0  0  0  0  0  3  0  0  0  0  0  0
  184.9830  178.4560  143.4010 C   0  0  0  0  0  0  0  0  0  0  0  0
  183.4080  178.9090  145.2010 C   0  0  0  0  0  3  0  0  0  0  0  0
  183.9160  178.4830  142.4880 C   0  0  0  0  0  3  0  0  0  0  0  0
  184.7120  178.6590  144.7630 C   0  0  0  0  0  3  0  0  0  0  0  0
  181.5690  178.7650  142.0090 O   0  0  0  0  0  1  0  0  0  0  0  0
  189.4680  178.5370  137.7160 C   0  0  0  0  0  2  0  0  0  0  0  0
  190.0850  177.2560  137.1300 C   0  0  0  0  0  2  0  0  0  0  0  0
  187.8800  176.9260  135.9810 F   0  0  0  0  0  0  0  0  0  0  0  0
  190.3250  173.8170  137.5080 O   0  0  0  0  0  0  0  0  0  0  0  0
  189.0070  174.6470  136.8480 P   0  0  0  0  0  0  0  0  0  0  0  0
  189.6120  175.5400  135.4640 O   0  0  0  0  0  0  0  0  0  0  0  0
  189.0880  176.3800  136.3680 C   0  0  1  0  0  3  0  0  0  0  0  0
  187.8740  173.7760  136.3590 O   0  0  0  0  0  0  0  0  0  0  0  0
  1 13  1  0  0  0  0
  1  5  1  0  0  0  0
  2  8  1  0  0  0  0
  2  6  2  0  0  0  0
  3 12  1  0  0  0  0
  3  8  1  0  0  0  0
  4 15  2  0  0  0  0
  4 18  1  0  0  0  0
  6 11  1  0  0  0  0
  7 18  1  0  0  0  0
  8  1  2  0  0  0  0
  9  7  1  0  0  0  0
 10  4  1  0  0  0  0
 11  5  2  0  0  0  0
 12 19  1  0  0  0  0
 14  2  1  0  0  0  0
 15 16  1  0  0  0  0
 16 22  1  0  0  0  0
 16 12  2  0  0  0  0
 17 10  1  0  0  0  0
 17  9  1  0  0  0  0
 18  3  2  0  0  0  0
 19 13  1  0  0  0  0
 20 21  1  0  0  0  0
 21 23  2  0  0  0  0
 22 25  2  0  0  0  0
 24 20  2  0  0  0  0
 24 22  1  0  0  0  0
 25 23  1  0  0  0  0
 26 20  1  0  0  0  0
 27 17  1  0  0  0  0
 28 27  1  0  0  0  0
 31 30  2  0  0  0  0
 32 33  1  0  0  0  0
 32 31  1  0  0  0  0
 33 29  1  6  0  0  0
 33 28  1  0  0  0  0
 34 31  2  0  0  0  0
M  END
>  <MODEL>
1

>  <REMARK>
 VINA RESULT:     -10.4      0.000      0.000
  Name = 
  4 active torsions:
  status: ('A' for Active; 'I' for Inactive)
    1  A    between atoms: C_3  and  C_13
    2  A    between atoms: C_3  and  N_29
    3  A    between atoms: C_12  and  C_28
    4  A    between atoms: C_13  and  C_33
                            x       y       z     vdW  Elec       q    Type
                         _______ _______ _______ _____ _____    ______ ____

>  <TORSDO>
F 4

$$$$
=
 OpenBabel11052414233D

 34 38  0  0  1  0  0  0  0  0999 V2000
  190.1080  177.2900  145.9730 C   0  0  0  0  0  0  0  0  0  0  0  0
  191.0940  175.6650  144.4590 C   0  0  0  0  0  0  0  0  0  0  0  0
  189.1330  177.1410  143.6850 C   0  0  0  0  0  0  0  0  0  0  0  0
  188.3610  177.6710  141.4430 C   0  0  0  0  0  0  0  0  0  0  0  0
  191.0560  176.9620  146.9440 C   0  0  0  0  0  3  0  0  0  0  0  0
  192.0330  175.3410  145.4430 C   0  0  0  0  0  3  0  0  0  0  0  0
  190.8090  177.2090  141.7650 C   0  0  0  0  0  2  0  0  0  0  0  0
  190.1630  176.7100  144.6860 C   0  0  0  0  0  0  0  0  0  0  0  0
  190.8300  177.0090  140.2530 C   0  0  0  0  0  2  0  0  0  0  0  0
  188.5680  177.7150  139.9560 C   0  0  0  0  0  2  0  0  0  0  0  0
  192.0310  176.0030  146.6710 C   0  0  0  0  0  3  0  0  0  0  0  0
  187.8810  177.5830  144.1800 C   0  0  0  0  0  0  0  0  0  0  0  0
  188.9940  178.2290  146.3180 C   0  0  0  0  0  2  0  0  0  0  0  0
  191.0240  174.8450  143.2960 N   0  0  0  0  0  1  0  0  0  0  0  0
  187.1350  177.9620  141.9420 N   0  0  0  0  0  0  0  0  0  0  0  0
  186.8560  177.9430  143.2720 C   0  0  0  0  0  0  0  0  0  0  0  0
  189.9650  178.0050  139.6210 N   0  0  0  0  0  0  0  0  0  0  0  0
  189.4000  177.2650  142.3020 C   0  0  0  0  0  0  0  0  0  0  0  0
  187.7010  177.7280  145.6720 C   0  0  0  0  0  2  0  0  0  0  0  0
  183.1590  178.7410  143.1150 C   0  0  0  0  0  0  0  0  0  0  0  0
  182.8520  178.9520  144.4610 C   0  0  0  0  0  3  0  0  0  0  0  0
  185.4850  178.3210  143.6990 C   0  0  0  0  0  0  0  0  0  0  0  0
  183.8530  178.8400  145.4300 C   0  0  0  0  0  3  0  0  0  0  0  0
  184.4670  178.4220  142.7380 C   0  0  0  0  0  3  0  0  0  0  0  0
  185.1600  178.5210  145.0510 C   0  0  0  0  0  3  0  0  0  0  0  0
  182.1650  178.8470  142.1520 O   0  0  0  0  0  1  0  0  0  0  0  0
  190.1430  177.9590  138.1670 C   0  0  0  0  0  2  0  0  0  0  0  0
  189.0370  178.6940  137.3930 C   0  0  0  0  0  2  0  0  0  0  0  0
  188.9700  177.9500  134.9980 F   0  0  0  0  0  0  0  0  0  0  0  0
  185.7240  177.7190  137.7160 O   0  0  0  0  0  0  0  0  0  0  0  0
  186.6290  177.6800  136.2880 P   0  0  0  0  0  0  0  0  0  0  0  0
  188.0070  176.6350  136.5890 O   0  0  0  0  0  0  0  0  0  0  0  0
  188.4190  177.8690  136.2620 C   0  0  1  0  0  3  0  0  0  0  0  0
  185.9060  177.1310  135.0800 O   0  0  0  0  0  0  0  0  0  0  0  0
  1 13  1  0  0  0  0
  1  5  1  0  0  0  0
  2  8  1  0  0  0  0
  2  6  2  0  0  0  0
  3 12  1  0  0  0  0
  3  8  1  0  0  0  0
  4 15  2  0  0  0  0
  4 18  1  0  0  0  0
  6 11  1  0  0  0  0
  7 18  1  0  0  0  0
  8  1  2  0  0  0  0
  9  7  1  0  0  0  0
 10  4  1  0  0  0  0
 11  5  2  0  0  0  0
 12 19  1  0  0  0  0
 14  2  1  0  0  0  0
 15 16  1  0  0  0  0
 16 22  1  0  0  0  0
 16 12  2  0  0  0  0
 17 10  1  0  0  0  0
 17  9  1  0  0  0  0
 18  3  2  0  0  0  0
 19 13  1  0  0  0  0
 20 21  1  0  0  0  0
 21 23  2  0  0  0  0
 22 25  2  0  0  0  0
 24 20  2  0  0  0  0
 24 22  1  0  0  0  0
 25 23  1  0  0  0  0
 26 20  1  0  0  0  0
 27 17  1  0  0  0  0
 28 27  1  0  0  0  0
 31 32  1  0  0  0  0
 31 30  2  0  0  0  0
 33 29  1  6  0  0  0
 33 32  1  0  0  0  0
 33 28  1  0  0  0  0
 34 31  2  0  0  0  0
M  END
>  <MODEL>
2

>  <REMARK>
 VINA RESULT:     -10.4      1.521      1.686
  Name = 
  4 active torsions:
  status: ('A' for Active; 'I' for Inactive)
    1  A    between atoms: C_3  and  C_13
    2  A    between atoms: C_3  and  N_29
    3  A    between atoms: C_12  and  C_28
    4  A    between atoms: C_13  and  C_33
                            x       y       z     vdW  Elec       q    Type
                         _______ _______ _______ _____ _____    ______ ____

>  <TORSDO>
F 4

$$$$
=
 OpenBabel11052414233D

 34 38  0  0  1  0  0  0  0  0999 V2000
  185.2740  178.9560  144.8120 C   0  0  0  0  0  0  0  0  0  0  0  0
  187.0720  177.3690  144.4180 C   0  0  0  0  0  0  0  0  0  0  0  0
  185.6820  178.2740  142.4500 C   0  0  0  0  0  0  0  0  0  0  0  0
  186.1680  178.2980  140.0700 C   0  0  0  0  0  0  0  0  0  0  0  0
  185.5900  178.9780  146.1720 C   0  0  0  0  0  3  0  0  0  0  0  0
  187.3730  177.3950  145.7830 C   0  0  0  0  0  3  0  0  0  0  0  0
  188.1040  178.4090  141.6670 C   0  0  0  0  0  2  0  0  0  0  0  0
  186.0620  178.2180  143.9010 C   0  0  0  0  0  0  0  0  0  0  0  0
  188.9440  178.0000  140.4610 C   0  0  0  0  0  2  0  0  0  0  0  0
  187.1270  178.1670  138.9210 C   0  0  0  0  0  2  0  0  0  0  0  0
  186.6520  178.2140  146.6540 C   0  0  0  0  0  3  0  0  0  0  0  0
  184.3210  178.5130  142.1370 C   0  0  0  0  0  0  0  0  0  0  0  0
  184.0590  179.6820  144.3260 C   0  0  0  0  0  2  0  0  0  0  0  0
  187.7120  176.3920  143.6040 N   0  0  0  0  0  1  0  0  0  0  0  0
  184.8420  178.3970  139.8080 N   0  0  0  0  0  0  0  0  0  0  0  0
  183.9040  178.5150  140.7850 C   0  0  0  0  0  0  0  0  0  0  0  0
  188.4510  178.6900  139.2700 N   0  0  0  0  0  0  0  0  0  0  0  0
  186.6280  178.2480  141.3990 C   0  0  0  0  0  0  0  0  0  0  0  0
  183.3630  178.8340  143.2600 C   0  0  0  0  0  2  0  0  0  0  0  0
  180.6890  180.0670  139.5260 C   0  0  0  0  0  0  0  0  0  0  0  0
  179.8300  178.9670  139.4960 C   0  0  0  0  0  3  0  0  0  0  0  0
  182.4840  178.6570  140.3700 C   0  0  0  0  0  0  0  0  0  0  0  0
  180.2940  177.7090  139.8920 C   0  0  0  0  0  3  0  0  0  0  0  0
  182.0100  179.9120  139.9550 C   0  0  0  0  0  3  0  0  0  0  0  0
  181.6150  177.5560  140.3210 C   0  0  0  0  0  3  0  0  0  0  0  0
  180.2310  181.3150  139.1270 O   0  0  0  0  0  1  0  0  0  0  0  0
  189.3770  178.4700  138.1550 C   0  0  0  0  0  2  0  0  0  0  0  0
  189.4070  177.0140  137.6630 C   0  0  0  0  0  2  0  0  0  0  0  0
  191.9120  177.0760  137.5580 F   0  0  0  0  0  0  0  0  0  0  0  0
  189.5490  173.5610  137.3760 O   0  0  0  0  0  0  0  0  0  0  0  0
  190.8730  174.6110  137.3130 P   0  0  0  0  0  0  0  0  0  0  0  0
  190.9010  175.4850  138.8350 O   0  0  0  0  0  0  0  0  0  0  0  0
  190.7720  176.3390  137.8090 C   0  0  1  0  0  3  0  0  0  0  0  0
  192.2200  173.9450  137.1540 O   0  0  0  0  0  0  0  0  0  0  0  0
  1  5  1  0  0  0  0
  2  6  2  0  0  0  0
  3  8  1  0  0  0  0
  4 18  1  0  0  0  0
  5 11  2  0  0  0  0
  6 11  1  0  0  0  0
  8  2  1  0  0  0  0
  8  1  2  0  0  0  0
  9  7  1  0  0  0  0
 10 17  1  0  0  0  0
 10  4  1  0  0  0  0
 12  3  1  0  0  0  0
 12 19  1  0  0  0  0
 13  1  1  0  0  0  0
 14  2  1  0  0  0  0
 15  4  2  0  0  0  0
 15 16  1  0  0  0  0
 16 12  2  0  0  0  0
 17  9  1  0  0  0  0
 18  7  1  0  0  0  0
 18  3  2  0  0  0  0
 19 13  1  0  0  0  0
 20 24  1  0  0  0  0
 21 20  2  0  0  0  0
 21 23  1  0  0  0  0
 22 16  1  0  0  0  0
 23 25  2  0  0  0  0
 24 22  2  0  0  0  0
 25 22  1  0  0  0  0
 26 20  1  0  0  0  0
 27 17  1  0  0  0  0
 28 33  1  0  0  0  0
 28 27  1  0  0  0  0
 31 30  2  0  0  0  0
 31 32  1  0  0  0  0
 33 29  1  1  0  0  0
 33 32  1  0  0  0  0
 34 31  2  0  0  0  0
M  END
>  <MODEL>
3

>  <REMARK>
 VINA RESULT:     -10.3      2.286      3.725
  Name = 
  4 active torsions:
  status: ('A' for Active; 'I' for Inactive)
    1  A    between atoms: C_3  and  C_13
    2  A    between atoms: C_3  and  N_29
    3  A    between atoms: C_12  and  C_28
    4  A    between atoms: C_13  and  C_33
                            x       y       z     vdW  Elec       q    Type
                         _______ _______ _______ _____ _____    ______ ____

>  <TORSDO>
F 4

$$$$
=
 OpenBabel11052414233D

 34 38  0  0  1  0  0  0  0  0999 V2000
  186.7670  178.4450  145.8180 C   0  0  0  0  0  0  0  0  0  0  0  0
  188.3790  176.9380  144.7990 C   0  0  0  0  0  0  0  0  0  0  0  0
  186.5520  178.0510  143.3680 C   0  0  0  0  0  0  0  0  0  0  0  0
  186.4200  178.3600  140.9610 C   0  0  0  0  0  0  0  0  0  0  0  0
  187.4180  178.3120  147.0470 C   0  0  0  0  0  3  0  0  0  0  0  0
  189.0160  176.8070  146.0370 C   0  0  0  0  0  3  0  0  0  0  0  0
  188.6990  178.3070  142.0170 C   0  0  0  0  0  2  0  0  0  0  0  0
  187.2860  177.8300  144.6580 C   0  0  0  0  0  0  0  0  0  0  0  0
  189.1990  178.0530  140.5990 C   0  0  0  0  0  2  0  0  0  0  0  0
  187.0540  178.3770  139.6000 C   0  0  0  0  0  2  0  0  0  0  0  0
  188.5540  177.5090  147.1510 C   0  0  0  0  0  3  0  0  0  0  0  0
  185.1610  178.3080  143.4390 C   0  0  0  0  0  0  0  0  0  0  0  0
  185.4820  179.2080  145.7450 C   0  0  0  0  0  2  0  0  0  0  0  0
  188.7750  176.0720  143.7410 N   0  0  0  0  0  1  0  0  0  0  0  0
  185.0730  178.4720  141.0580 N   0  0  0  0  0  0  0  0  0  0  0  0
  184.4150  178.4630  142.2470 C   0  0  0  0  0  0  0  0  0  0  0  0
  188.4330  178.8710  139.6600 N   0  0  0  0  0  0  0  0  0  0  0  0
  187.2010  178.1600  142.1160 C   0  0  0  0  0  0  0  0  0  0  0  0
  184.5240  178.4820  144.7980 C   0  0  0  0  0  2  0  0  0  0  0  0
  180.8360  178.4510  141.0140 C   0  0  0  0  0  0  0  0  0  0  0  0
  180.1380  178.8630  142.1510 C   0  0  0  0  0  3  0  0  0  0  0  0
  182.9390  178.6350  142.2250 C   0  0  0  0  0  0  0  0  0  0  0  0
  180.8330  179.1520  143.3290 C   0  0  0  0  0  3  0  0  0  0  0  0
  182.2280  178.3330  141.0530 C   0  0  0  0  0  3  0  0  0  0  0  0
  182.2250  179.0340  143.3660 C   0  0  0  0  0  3  0  0  0  0  0  0
  180.1470  178.1580  139.8460 O   0  0  0  0  0  1  0  0  0  0  0  0
  189.0420  178.7960  138.3300 C   0  0  0  0  0  2  0  0  0  0  0  0
  189.7870  177.4760  138.0720 C   0  0  0  0  0  2  0  0  0  0  0  0
  187.9350  176.9700  136.4580 F   0  0  0  0  0  0  0  0  0  0  0  0
  190.8910  174.2070  137.7230 O   0  0  0  0  0  0  0  0  0  0  0  0
  189.5040  174.8610  137.0100 P   0  0  0  0  0  0  0  0  0  0  0  0
  190.0310  176.2010  136.0080 O   0  0  0  0  0  0  0  0  0  0  0  0
  189.1800  176.6300  136.9510 C   0  0  1  0  0  3  0  0  0  0  0  0
  188.7270  173.9160  136.1230 O   0  0  0  0  0  0  0  0  0  0  0  0
  1  5  1  0  0  0  0
  2  6  2  0  0  0  0
  3 12  1  0  0  0  0
  3  8  1  0  0  0  0
  4 15  2  0  0  0  0
  4 18  1  0  0  0  0
  5 11  2  0  0  0  0
  6 11  1  0  0  0  0
  7 18  1  0  0  0  0
  8  2  1  0  0  0  0
  8  1  2  0  0  0  0
  9  7  1  0  0  0  0
 10 17  1  0  0  0  0
 10  4  1  0  0  0  0
 12 19  1  0  0  0  0
 13  1  1  0  0  0  0
 14  2  1  0  0  0  0
 15 16  1  0  0  0  0
 16 12  2  0  0  0  0
 17  9  1  0  0  0  0
 18  3  2  0  0  0  0
 19 13  1  0  0  0  0
 20 24  2  0  0  0  0
 20 21  1  0  0  0  0
 21 23  2  0  0  0  0
 22 16  1  0  0  0  0
 22 25  2  0  0  0  0
 23 25  1  0  0  0  0
 24 22  1  0  0  0  0
 26 20  1  0  0  0  0
 27 17  1  0  0  0  0
 28 27  1  0  0  0  0
 31 30  2  0  0  0  0
 32 33  1  0  0  0  0
 32 31  1  0  0  0  0
 33 29  1  6  0  0  0
 33 28  1  0  0  0  0
 34 31  2  0  0  0  0
M  END
>  <MODEL>
4

>  <REMARK>
 VINA RESULT:     -10.0      1.422      2.241
  Name = 
  4 active torsions:
  status: ('A' for Active; 'I' for Inactive)
    1  A    between atoms: C_3  and  C_13
    2  A    between atoms: C_3  and  N_29
    3  A    between atoms: C_12  and  C_28
    4  A    between atoms: C_13  and  C_33
                            x       y       z     vdW  Elec       q    Type
                         _______ _______ _______ _____ _____    ______ ____

>  <TORSDO>
F 4

$$$$
=
 OpenBabel11052414233D

 34 38  0  0  1  0  0  0  0  0999 V2000
  190.2980  177.2590  146.5790 C   0  0  0  0  0  0  0  0  0  0  0  0
  191.3530  175.6280  145.1200 C   0  0  0  0  0  0  0  0  0  0  0  0
  189.3940  177.0620  144.2660 C   0  0  0  0  0  0  0  0  0  0  0  0
  188.6810  177.5470  141.9940 C   0  0  0  0  0  0  0  0  0  0  0  0
  191.2220  176.9600  147.5830 C   0  0  0  0  0  3  0  0  0  0  0  0
  192.2670  175.3320  146.1360 C   0  0  0  0  0  3  0  0  0  0  0  0
  191.1260  177.1270  142.3960 C   0  0  0  0  0  2  0  0  0  0  0  0
  190.4010  176.6610  145.3040 C   0  0  0  0  0  0  0  0  0  0  0  0
  191.1940  176.9060  140.8890 C   0  0  0  0  0  2  0  0  0  0  0  0
  188.9320  177.5720  140.5140 C   0  0  0  0  0  2  0  0  0  0  0  0
  192.2190  176.0120  147.3540 C   0  0  0  0  0  3  0  0  0  0  0  0
  188.1210  177.4920  144.7170 C   0  0  0  0  0  0  0  0  0  0  0  0
  189.1610  178.1860  146.8770 C   0  0  0  0  0  2  0  0  0  0  0  0
  191.3300  174.7900  143.9690 N   0  0  0  0  0  1  0  0  0  0  0  0
  187.4370  177.8260  142.4530 N   0  0  0  0  0  0  0  0  0  0  0  0
  187.1190  177.8220  143.7740 C   0  0  0  0  0  0  0  0  0  0  0  0
  190.3340  177.8780  140.2160 N   0  0  0  0  0  0  0  0  0  0  0  0
  189.7000  177.1690  142.8900 C   0  0  0  0  0  0  0  0  0  0  0  0
  187.8950  177.6560  146.2010 C   0  0  0  0  0  2  0  0  0  0  0  0
  183.4360  178.6440  143.4840 C   0  0  0  0  0  0  0  0  0  0  0  0
  183.0670  178.7920  144.8230 C   0  0  0  0  0  3  0  0  0  0  0  0
  185.7300  178.1850  144.1550 C   0  0  0  0  0  0  0  0  0  0  0  0
  184.0210  178.6280  145.8310 C   0  0  0  0  0  3  0  0  0  0  0  0
  184.7580  178.3380  143.1530 C   0  0  0  0  0  3  0  0  0  0  0  0
  185.3430  178.3220  145.4980 C   0  0  0  0  0  3  0  0  0  0  0  0
  182.4880  178.8010  142.4830 O   0  0  0  0  0  1  0  0  0  0  0  0
  190.5560  177.8140  138.7690 C   0  0  0  0  0  2  0  0  0  0  0  0
  190.7890  176.3860  138.2490 C   0  0  0  0  0  2  0  0  0  0  0  0
  193.2000  177.0210  137.9700 F   0  0  0  0  0  0  0  0  0  0  0  0
  190.9490  174.7170  135.2140 O   0  0  0  0  0  0  0  0  0  0  0  0
  192.1960  175.6270  135.9050 P   0  0  0  0  0  0  0  0  0  0  0  0
  192.5530  174.8980  137.4610 O   0  0  0  0  0  0  0  0  0  0  0  0
  192.1680  176.1720  137.6200 C   0  0  1  0  0  3  0  0  0  0  0  0
  193.4860  175.6600  135.1190 O   0  0  0  0  0  0  0  0  0  0  0  0
  1 13  1  0  0  0  0
  1  5  1  0  0  0  0
  2  8  1  0  0  0  0
  2  6  2  0  0  0  0
  3 12  1  0  0  0  0
  3  8  1  0  0  0  0
  4 15  2  0  0  0  0
  4 18  1  0  0  0  0
  6 11  1  0  0  0  0
  7 18  1  0  0  0  0
  8  1  2  0  0  0  0
  9  7  1  0  0  0  0
 10  4  1  0  0  0  0
 11  5  2  0  0  0  0
 12 19  1  0  0  0  0
 14  2  1  0  0  0  0
 15 16  1  0  0  0  0
 16 22  1  0  0  0  0
 16 12  2  0  0  0  0
 17 10  1  0  0  0  0
 17  9  1  0  0  0  0
 18  3  2  0  0  0  0
 19 13  1  0  0  0  0
 20 21  1  0  0  0  0
 21 23  2  0  0  0  0
 22 25  2  0  0  0  0
 24 20  2  0  0  0  0
 24 22  1  0  0  0  0
 25 23  1  0  0  0  0
 26 20  1  0  0  0  0
 27 17  1  0  0  0  0
 28 27  1  0  0  0  0
 30 31  2  0  0  0  0
 31 32  1  0  0  0  0
 32 33  1  0  0  0  0
 33 29  1  1  0  0  0
 33 28  1  0  0  0  0
 34 31  2  0  0  0  0
M  END
>  <MODEL>
5

>  <REMARK>
 VINA RESULT:      -9.7      1.771      2.172
  Name = 
  4 active torsions:
  status: ('A' for Active; 'I' for Inactive)
    1  A    between atoms: C_3  and  C_13
    2  A    between atoms: C_3  and  N_29
    3  A    between atoms: C_12  and  C_28
    4  A    between atoms: C_13  and  C_33
                            x       y       z     vdW  Elec       q    Type
                         _______ _______ _______ _____ _____    ______ ____

>  <TORSDO>
F 4

$$$$
=
 OpenBabel11052414233D

 34 38  0  0  1  0  0  0  0  0999 V2000
  190.9050  175.9560  144.9820 C   0  0  0  0  0  0  0  0  0  0  0  0
  189.9960  177.6030  146.5200 C   0  0  0  0  0  0  0  0  0  0  0  0
  189.0340  177.3730  144.1440 C   0  0  0  0  0  0  0  0  0  0  0  0
  186.9130  178.1290  143.2330 C   0  0  0  0  0  0  0  0  0  0  0  0
  191.7650  175.4960  145.9810 C   0  0  0  0  0  3  0  0  0  0  0  0
  190.8680  177.1380  147.5090 C   0  0  0  0  0  3  0  0  0  0  0  0
  186.9980  177.5250  145.6710 C   0  0  0  0  0  2  0  0  0  0  0  0
  189.9490  176.9580  145.2590 C   0  0  0  0  0  0  0  0  0  0  0  0
  185.6960  178.3130  145.7700 C   0  0  0  0  0  2  0  0  0  0  0  0
  185.5100  178.6360  143.4110 C   0  0  0  0  0  2  0  0  0  0  0  0
  191.7320  176.0730  147.2500 C   0  0  0  0  0  3  0  0  0  0  0  0
  189.5120  177.2340  142.8170 C   0  0  0  0  0  0  0  0  0  0  0  0
  191.0340  175.4150  143.5920 C   0  0  0  0  0  2  0  0  0  0  0  0
  189.2650  178.7990  146.7730 N   0  0  0  0  0  1  0  0  0  0  0  0
  187.4480  178.1070  141.9880 N   0  0  0  0  0  0  0  0  0  0  0  0
  188.7100  177.6680  141.7350 C   0  0  0  0  0  0  0  0  0  0  0  0
  184.8740  178.0430  144.5910 N   0  0  0  0  0  0  0  0  0  0  0  0
  187.6860  177.7490  144.3460 C   0  0  0  0  0  0  0  0  0  0  0  0
  190.8430  176.5560  142.5920 C   0  0  0  0  0  2  0  0  0  0  0  0
  189.1080  178.6430  138.1000 C   0  0  0  0  0  0  0  0  0  0  0  0
  190.0640  177.7260  137.6580 C   0  0  0  0  0  3  0  0  0  0  0  0
  189.1690  177.6540  140.3230 C   0  0  0  0  0  0  0  0  0  0  0  0
  190.5820  176.7780  138.5450 C   0  0  0  0  0  3  0  0  0  0  0  0
  188.6680  178.6100  139.4250 C   0  0  0  0  0  3  0  0  0  0  0  0
  190.1400  176.7460  139.8700 C   0  0  0  0  0  3  0  0  0  0  0  0
  188.5970  179.5880  137.2210 O   0  0  0  0  0  1  0  0  0  0  0  0
  183.5410  178.6220  144.7760 C   0  0  0  0  0  2  0  0  0  0  0  0
  182.8500  179.0000  143.4560 C   0  0  0  0  0  2  0  0  0  0  0  0
  180.7130  178.6230  144.7130 F   0  0  0  0  0  0  0  0  0  0  0  0
  181.0620  178.7910  140.4910 O   0  0  0  0  0  0  0  0  0  0  0  0
  180.4300  178.5570  142.0430 P   0  0  0  0  0  0  0  0  0  0  0  0
  180.7100  180.0440  142.9330 O   0  0  0  0  0  0  0  0  0  0  0  0
  181.3220  179.0150  143.5380 C   0  0  1  0  0  3  0  0  0  0  0  0
  178.9480  178.2720  142.1010 O   0  0  0  0  0  0  0  0  0  0  0  0
  1  8  2  0  0  0  0
  1  5  1  0  0  0  0
  2 14  1  0  0  0  0
  2  6  2  0  0  0  0
  3 18  1  0  0  0  0
  3  8  1  0  0  0  0
  4 10  1  0  0  0  0
  4 18  2  0  0  0  0
  5 11  2  0  0  0  0
  7  9  1  0  0  0  0
  8  2  1  0  0  0  0
 10 17  1  0  0  0  0
 11  6  1  0  0  0  0
 12  3  2  0  0  0  0
 13  1  1  0  0  0  0
 15  4  1  0  0  0  0
 16 15  2  0  0  0  0
 16 12  1  0  0  0  0
 17 27  1  0  0  0  0
 17  9  1  0  0  0  0
 18  7  1  0  0  0  0
 19 12  1  0  0  0  0
 19 13  1  0  0  0  0
 20 24  1  0  0  0  0
 21 20  2  0  0  0  0
 21 23  1  0  0  0  0
 22 16  1  0  0  0  0
 23 25  2  0  0  0  0
 24 22  2  0  0  0  0
 25 22  1  0  0  0  0
 26 20  1  0  0  0  0
 28 33  1  0  0  0  0
 28 27  1  0  0  0  0
 30 31  2  0  0  0  0
 31 34  2  0  0  0  0
 31 32  1  0  0  0  0
 32 33  1  0  0  0  0
 33 29  1  1  0  0  0
M  END
>  <MODEL>
6

>  <REMARK>
 VINA RESULT:      -9.5      3.416      7.081
  Name = 
  4 active torsions:
  status: ('A' for Active; 'I' for Inactive)
    1  A    between atoms: C_3  and  C_13
    2  A    between atoms: C_3  and  N_29
    3  A    between atoms: C_12  and  C_28
    4  A    between atoms: C_13  and  C_33
                            x       y       z     vdW  Elec       q    Type
                         _______ _______ _______ _____ _____    ______ ____

>  <TORSDO>
F 4

$$$$
=
 OpenBabel11052414233D

 34 38  0  0  1  0  0  0  0  0999 V2000
  188.3760  177.1300  146.3850 C   0  0  0  0  0  0  0  0  0  0  0  0
  186.8850  178.8790  147.1740 C   0  0  0  0  0  0  0  0  0  0  0  0
  186.8780  178.1840  144.6960 C   0  0  0  0  0  0  0  0  0  0  0  0
  185.2070  178.5500  142.9710 C   0  0  0  0  0  0  0  0  0  0  0  0
  188.8290  176.9260  147.6900 C   0  0  0  0  0  3  0  0  0  0  0  0
  187.3530  178.6710  148.4750 C   0  0  0  0  0  3  0  0  0  0  0  0
  184.4180  178.3370  145.3470 C   0  0  0  0  0  2  0  0  0  0  0  0
  187.3370  178.0480  146.1180 C   0  0  0  0  0  0  0  0  0  0  0  0
  183.1340  178.9800  144.8330 C   0  0  0  0  0  2  0  0  0  0  0  0
  183.8140  178.9180  142.5450 C   0  0  0  0  0  2  0  0  0  0  0  0
  188.3030  177.6830  148.7380 C   0  0  0  0  0  3  0  0  0  0  0  0
  187.8170  177.9000  143.6730 C   0  0  0  0  0  0  0  0  0  0  0  0
  189.0340  176.4020  145.2550 C   0  0  0  0  0  2  0  0  0  0  0  0
  186.0550  180.0090  146.9290 N   0  0  0  0  0  1  0  0  0  0  0  0
  186.1640  178.3990  142.0230 N   0  0  0  0  0  0  0  0  0  0  0  0
  187.4500  178.0710  142.3180 C   0  0  0  0  0  0  0  0  0  0  0  0
  182.8190  178.4430  143.5100 N   0  0  0  0  0  0  0  0  0  0  0  0
  185.5340  178.4330  144.3350 C   0  0  0  0  0  0  0  0  0  0  0  0
  189.1690  177.3490  144.0620 C   0  0  0  0  0  2  0  0  0  0  0  0
  189.0980  178.5050  138.9380 C   0  0  0  0  0  0  0  0  0  0  0  0
  190.2040  177.6600  139.0460 C   0  0  0  0  0  3  0  0  0  0  0  0
  188.3970  177.8940  141.1870 C   0  0  0  0  0  0  0  0  0  0  0  0
  190.4170  176.9380  140.2240 C   0  0  0  0  0  3  0  0  0  0  0  0
  188.2030  178.6250  140.0040 C   0  0  0  0  0  3  0  0  0  0  0  0
  189.5210  177.0590  141.2890 C   0  0  0  0  0  3  0  0  0  0  0  0
  188.8890  179.2270  137.7710 O   0  0  0  0  0  1  0  0  0  0  0  0
  181.4840  178.8910  143.1020 C   0  0  0  0  0  2  0  0  0  0  0  0
  181.3250  179.0260  141.5790 C   0  0  0  0  0  2  0  0  0  0  0  0
  179.6930  177.1220  141.6290 F   0  0  0  0  0  0  0  0  0  0  0  0
  182.9980  177.4350  138.9910 O   0  0  0  0  0  0  0  0  0  0  0  0
  181.6690  176.8160  139.8340 P   0  0  0  0  0  0  0  0  0  0  0  0
  180.3530  177.9570  139.6150 O   0  0  0  0  0  0  0  0  0  0  0  0
  180.6450  177.8260  140.9170 C   0  0  1  0  0  3  0  0  0  0  0  0
  181.1750  175.4680  139.3640 O   0  0  0  0  0  0  0  0  0  0  0  0
  1  5  1  0  0  0  0
  2  6  2  0  0  0  0
  3  8  1  0  0  0  0
  4 18  2  0  0  0  0
  5 11  2  0  0  0  0
  6 11  1  0  0  0  0
  8  1  2  0  0  0  0
  8  2  1  0  0  0  0
  9  7  1  0  0  0  0
 10  4  1  0  0  0  0
 10 17  1  0  0  0  0
 12 19  1  0  0  0  0
 12  3  2  0  0  0  0
 13  1  1  0  0  0  0
 14  2  1  0  0  0  0
 15 16  2  0  0  0  0
 15  4  1  0  0  0  0
 16 12  1  0  0  0  0
 17  9  1  0  0  0  0
 18  3  1  0  0  0  0
 18  7  1  0  0  0  0
 19 13  1  0  0  0  0
 20 21  2  0  0  0  0
 20 24  1  0  0  0  0
 21 23  1  0  0  0  0
 22 25  1  0  0  0  0
 22 16  1  0  0  0  0
 23 25  2  0  0  0  0
 24 22  2  0  0  0  0
 26 20  1  0  0  0  0
 27 17  1  0  0  0  0
 28 27  1  0  0  0  0
 30 31  2  0  0  0  0
 32 31  1  0  0  0  0
 32 33  1  0  0  0  0
 33 28  1  0  0  0  0
 33 29  1  1  0  0  0
 34 31  2  0  0  0  0
M  END
>  <MODEL>
7

>  <REMARK>
 VINA RESULT:      -9.4      3.257      6.659
  Name = 
  4 active torsions:
  status: ('A' for Active; 'I' for Inactive)
    1  A    between atoms: C_3  and  C_13
    2  A    between atoms: C_3  and  N_29
    3  A    between atoms: C_12  and  C_28
    4  A    between atoms: C_13  and  C_33
                            x       y       z     vdW  Elec       q    Type
                         _______ _______ _______ _____ _____    ______ ____

>  <TORSDO>
F 4

$$$$
=
 OpenBabel11052414233D

 34 38  0  0  1  0  0  0  0  0999 V2000
  182.0840  178.6760  141.1470 C   0  0  0  0  0  0  0  0  0  0  0  0
  182.9500  180.0110  139.3100 C   0  0  0  0  0  0  0  0  0  0  0  0
  184.5610  178.8700  140.9600 C   0  0  0  0  0  0  0  0  0  0  0  0
  186.9270  178.3630  140.7410 C   0  0  0  0  0  0  0  0  0  0  0  0
  180.7830  178.8830  140.6850 C   0  0  0  0  0  3  0  0  0  0  0  0
  181.6410  180.2170  138.8620 C   0  0  0  0  0  3  0  0  0  0  0  0
  185.5330  178.3960  138.6510 C   0  0  0  0  0  2  0  0  0  0  0  0
  183.1920  179.1650  140.4200 C   0  0  0  0  0  0  0  0  0  0  0  0
  186.8700  178.5040  137.9260 C   0  0  0  0  0  2  0  0  0  0  0  0
  188.1660  178.1990  139.9080 C   0  0  0  0  0  2  0  0  0  0  0  0
  180.5620  179.6350  139.5310 C   0  0  0  0  0  3  0  0  0  0  0  0
  184.6900  178.6870  142.3590 C   0  0  0  0  0  0  0  0  0  0  0  0
  182.3010  177.9730  142.4500 C   0  0  0  0  0  2  0  0  0  0  0  0
  183.9950  180.7640  138.7040 N   0  0  0  0  0  1  0  0  0  0  0  0
  187.0360  178.3240  142.0910 N   0  0  0  0  0  0  0  0  0  0  0  0
  185.9690  178.4670  142.9220 C   0  0  0  0  0  0  0  0  0  0  0  0
  187.8520  177.6460  138.5880 N   0  0  0  0  0  0  0  0  0  0  0  0
  185.6830  178.6230  140.1350 C   0  0  0  0  0  0  0  0  0  0  0  0
  183.4390  178.6600  143.2050 C   0  0  0  0  0  2  0  0  0  0  0  0
  187.6200  177.6070  146.2180 C   0  0  0  0  0  0  0  0  0  0  0  0
  186.7590  178.2110  147.1380 C   0  0  0  0  0  3  0  0  0  0  0  0
  186.2100  178.3650  144.3840 C   0  0  0  0  0  0  0  0  0  0  0  0
  185.6300  178.9000  146.6870 C   0  0  0  0  0  3  0  0  0  0  0  0
  187.3490  177.6880  144.8500 C   0  0  0  0  0  3  0  0  0  0  0  0
  185.3610  178.9800  145.3180 C   0  0  0  0  0  3  0  0  0  0  0  0
  188.7450  176.9270  146.6640 O   0  0  0  0  0  1  0  0  0  0  0  0
  189.0720  177.5780  137.7790 C   0  0  0  0  0  2  0  0  0  0  0  0
  189.6250  176.1520  137.6270 C   0  0  0  0  0  2  0  0  0  0  0  0
  190.9060  176.2310  139.7820 F   0  0  0  0  0  0  0  0  0  0  0  0
  192.6380  175.9180  135.9250 O   0  0  0  0  0  0  0  0  0  0  0  0
  192.4620  176.1190  137.5950 P   0  0  0  0  0  0  0  0  0  0  0  0
  191.5390  174.7440  138.1770 O   0  0  0  0  0  0  0  0  0  0  0  0
  190.8920  175.8880  138.4440 C   0  0  1  0  0  3  0  0  0  0  0  0
  193.7510  176.1580  138.3810 O   0  0  0  0  0  0  0  0  0  0  0  0
  1 13  1  0  0  0  0
  2  8  1  0  0  0  0
  3 12  1  0  0  0  0
  4 15  2  0  0  0  0
  5  1  1  0  0  0  0
  6  2  2  0  0  0  0
  6 11  1  0  0  0  0
  7 18  1  0  0  0  0
  8  3  1  0  0  0  0
  8  1  2  0  0  0  0
  9 17  1  0  0  0  0
  9  7  1  0  0  0  0
 10  4  1  0  0  0  0
 11  5  2  0  0  0  0
 12 16  2  0  0  0  0
 12 19  1  0  0  0  0
 13 19  1  0  0  0  0
 14  2  1  0  0  0  0
 15 16  1  0  0  0  0
 16 22  1  0  0  0  0
 17 10  1  0  0  0  0
 18  4  1  0  0  0  0
 18  3  2  0  0  0  0
 20 26  1  0  0  0  0
 20 21  1  0  0  0  0
 22 24  1  0  0  0  0
 22 25  2  0  0  0  0
 23 21  2  0  0  0  0
 24 20  2  0  0  0  0
 25 23  1  0  0  0  0
 27 17  1  0  0  0  0
 28 27  1  0  0  0  0
 28 33  1  0  0  0  0
 30 31  2  0  0  0  0
 31 32  1  0  0  0  0
 31 34  2  0  0  0  0
 32 33  1  0  0  0  0
 33 29  1  1  0  0  0
M  END
>  <MODEL>
8

>  <REMARK>
 VINA RESULT:      -9.2      2.913      6.075
  Name = 
  4 active torsions:
  status: ('A' for Active; 'I' for Inactive)
    1  A    between atoms: C_3  and  C_13
    2  A    between atoms: C_3  and  N_29
    3  A    between atoms: C_12  and  C_28
    4  A    between atoms: C_13  and  C_33
                            x       y       z     vdW  Elec       q    Type
                         _______ _______ _______ _____ _____    ______ ____

>  <TORSDO>
F 4

$$$$
=
 OpenBabel11052414233D

 34 38  0  0  1  0  0  0  0  0999 V2000
  185.8460  177.5510  137.3140 C   0  0  0  0  0  0  0  0  0  0  0  0
  188.0040  178.6460  137.0940 C   0  0  0  0  0  0  0  0  0  0  0  0
  187.0360  178.1350  139.4230 C   0  0  0  0  0  0  0  0  0  0  0  0
  188.1360  178.0170  141.5860 C   0  0  0  0  0  0  0  0  0  0  0  0
  185.7620  177.4360  135.9240 C   0  0  0  0  0  3  0  0  0  0  0  0
  187.9040  178.5320  135.7040 C   0  0  0  0  0  3  0  0  0  0  0  0
  189.4770  177.4120  139.5490 C   0  0  0  0  0  2  0  0  0  0  0  0
  187.0040  178.0800  137.9240 C   0  0  0  0  0  0  0  0  0  0  0  0
  190.6870  177.6120  140.4550 C   0  0  0  0  0  2  0  0  0  0  0  0
  189.3770  177.9180  142.4270 C   0  0  0  0  0  2  0  0  0  0  0  0
  186.8000  177.9080  135.1210 C   0  0  0  0  0  3  0  0  0  0  0  0
  185.7970  178.2450  140.1020 C   0  0  0  0  0  0  0  0  0  0  0  0
  184.6750  177.1550  138.1580 C   0  0  0  0  0  2  0  0  0  0  0  0
  189.0550  179.4420  137.6310 N   0  0  0  0  0  1  0  0  0  0  0  0
  186.9490  178.2530  142.1950 N   0  0  0  0  0  0  0  0  0  0  0  0
  185.7780  178.3620  141.5120 C   0  0  0  0  0  0  0  0  0  0  0  0
  190.3920  177.0800  141.7840 N   0  0  0  0  0  0  0  0  0  0  0  0
  188.2120  177.9370  140.1820 C   0  0  0  0  0  0  0  0  0  0  0  0
  184.5200  178.1610  139.3000 C   0  0  0  0  0  2  0  0  0  0  0  0
  183.4640  178.9190  144.4550 C   0  0  0  0  0  0  0  0  0  0  0  0
  182.2280  179.0770  143.8240 C   0  0  0  0  0  3  0  0  0  0  0  0
  184.5360  178.5810  142.2960 C   0  0  0  0  0  0  0  0  0  0  0  0
  182.1420  178.9990  142.4320 C   0  0  0  0  0  3  0  0  0  0  0  0
  184.6120  178.6780  143.6950 C   0  0  0  0  0  3  0  0  0  0  0  0
  183.2900  178.7570  141.6730 C   0  0  0  0  0  3  0  0  0  0  0  0
  183.5530  179.0030  145.8380 O   0  0  0  0  0  1  0  0  0  0  0  0
  191.6130  177.0740  142.5950 C   0  0  0  0  0  2  0  0  0  0  0  0
  191.4690  177.8380  143.9210 C   0  0  0  0  0  2  0  0  0  0  0  0
  192.0220  175.6770  145.0670 F   0  0  0  0  0  0  0  0  0  0  0  0
  189.0860  178.4460  146.3660 O   0  0  0  0  0  0  0  0  0  0  0  0
  190.0230  177.0450  146.2290 P   0  0  0  0  0  0  0  0  0  0  0  0
  191.7020  177.5450  146.3300 O   0  0  0  0  0  0  0  0  0  0  0  0
  191.4660  176.9380  145.1580 C   0  0  1  0  0  3  0  0  0  0  0  0
  189.7980  176.0080  147.3050 O   0  0  0  0  0  0  0  0  0  0  0  0
  1  8  1  0  0  0  0
  1 13  1  0  0  0  0
  2 14  1  0  0  0  0
  2  8  2  0  0  0  0
  3 12  2  0  0  0  0
  3 18  1  0  0  0  0
  4 15  1  0  0  0  0
  4 10  1  0  0  0  0
  5  1  2  0  0  0  0
  6  2  1  0  0  0  0
  7 18  1  0  0  0  0
  7  9  1  0  0  0  0
  8  3  1  0  0  0  0
  9 17  1  0  0  0  0
 11  6  2  0  0  0  0
 11  5  1  0  0  0  0
 12 16  1  0  0  0  0
 13 19  1  0  0  0  0
 16 15  2  0  0  0  0
 16 22  1  0  0  0  0
 17 10  1  0  0  0  0
 17 27  1  0  0  0  0
 18  4  2  0  0  0  0
 19 12  1  0  0  0  0
 20 26  1  0  0  0  0
 21 20  1  0  0  0  0
 22 24  1  0  0  0  0
 23 21  2  0  0  0  0
 24 20  2  0  0  0  0
 25 22  2  0  0  0  0
 25 23  1  0  0  0  0
 27 28  1  0  0  0  0
 28 33  1  0  0  0  0
 31 32  1  0  0  0  0
 31 30  2  0  0  0  0
 31 34  2  0  0  0  0
 33 29  1  6  0  0  0
 33 32  1  0  0  0  0
M  END
>  <MODEL>
9

>  <REMARK>
 VINA RESULT:      -9.2      4.318      6.788
  Name = 
  4 active torsions:
  status: ('A' for Active; 'I' for Inactive)
    1  A    between atoms: C_3  and  C_13
    2  A    between atoms: C_3  and  N_29
    3  A    between atoms: C_12  and  C_28
    4  A    between atoms: C_13  and  C_33
                            x       y       z     vdW  Elec       q    Type
                         _______ _______ _______ _____ _____    ______ ____

>  <TORSDO>
F 4

$$$$
