=
 OpenBabel11052415453D

 34 39  0  0  1  0  0  0  0  0999 V2000
  182.5000  175.3020  138.6300 C   0  0  0  0  0  0  0  0  0  0  0  0
  179.7480  176.1200  138.8660 C   0  0  0  0  0  0  0  0  0  0  0  0
  180.2570  173.5240  136.5730 C   0  0  2  0  0  0  0  0  0  0  0  0
  179.7580  178.6400  141.1280 C   0  0  0  0  0  2  0  0  0  0  0  0
  181.1630  178.7310  141.5400 C   0  0  0  0  0  2  0  0  0  0  0  0
  181.7260  173.3210  137.0150 C   0  0  0  0  0  2  0  0  0  0  0  0
  182.2300  174.4080  137.8670 C   0  0  0  0  0  0  0  0  0  0  0  0
  180.7170  177.5130  140.7070 C   0  0  0  0  0  0  0  0  0  0  0  0
  179.2890  173.7260  137.7710 C   0  0  0  0  0  2  0  0  0  0  0  0
  179.4630  175.0350  138.4200 C   0  0  0  0  0  0  0  0  0  0  0  0
  179.8360  172.2430  135.8810 C   0  0  0  0  0  1  0  0  0  0  0  0
  180.2110  177.4520  139.2670 C   0  0  1  0  0  3  0  0  0  0  0  0
  182.6660  176.3580  139.6350 C   0  0  0  0  0  2  0  0  0  0  0  0
  181.7050  177.5630  139.4770 C   0  0  2  0  0  0  0  0  0  0  0  0
  181.3300  179.9330  138.4030 C   0  0  0  0  0  2  0  0  0  0  0  0
  184.6030  177.9970  138.0600 C   0  0  0  0  0  2  0  0  0  0  0  0
  182.5270  177.8810  136.5510 C   0  0  0  0  0  2  0  0  0  0  0  0
  179.5330  180.2530  136.6910 C   0  0  0  0  0  3  0  0  0  0  0  0
  179.5030  179.0450  134.5940 C   0  0  0  0  0  3  0  0  0  0  0  0
  178.9320  179.9820  135.4600 C   0  0  0  0  0  3  0  0  0  0  0  0
  181.2950  178.6570  136.1780 C   0  0  0  0  0  0  0  0  0  0  0  0
  180.7050  179.5910  137.0670 C   0  0  0  0  0  0  0  0  0  0  0  0
  180.6780  178.3820  134.9540 C   0  0  0  0  0  3  0  0  0  0  0  0
  185.2720  178.8950  139.1120 C   0  0  1  0  0  3  0  0  0  0  0  0
  183.2270  179.5270  139.9960 C   0  0  0  0  0  2  0  0  0  0  0  0
  184.4710  179.9980  139.5120 O   0  0  0  0  0  0  0  0  0  0  0  0
  183.2590  178.5930  137.6780 C   0  0  1  0  0  3  0  0  0  0  0  0
  182.3550  178.8880  138.8940 C   0  0  1  0  0  0  0  0  0  0  0  0
  185.7840  178.0730  140.2950 C   0  0  0  0  0  2  0  0  0  0  0  0
  188.0510  178.6240  139.7720 O   0  0  0  0  0  1  0  0  0  0  0  0
  187.1100  178.6120  140.8030 C   0  0  0  0  0  2  0  0  0  0  0  0
  180.1380  174.6440  135.5610 C   0  0  0  0  0  0  0  0  0  0  0  0
  179.0220  175.1910  135.3450 O   0  0  0  0  0  1  0  0  0  0  0  0
  181.2400  175.0430  134.8140 O   0  0  0  0  0  0  0  0  0  0  0  0
  1 13  1  0  0  0  0
  3 11  1  6  0  0  0
  3  6  1  0  0  0  0
  3  9  1  0  0  0  0
  4  5  1  0  0  0  0
  6  7  1  0  0  0  0
  7  1  3  0  0  0  0
  8  4  1  0  0  0  0
  8  5  1  0  0  0  0
  9 10  1  0  0  0  0
 10  2  3  0  0  0  0
 12  2  1  1  0  0  0
 12 14  1  0  0  0  0
 12  8  1  0  0  0  0
 14 13  1  6  0  0  0
 14  8  1  0  0  0  0
 16 24  1  0  0  0  0
 18 22  1  0  0  0  0
 19 23  2  0  0  0  0
 19 20  1  0  0  0  0
 20 18  2  0  0  0  0
 21 17  1  0  0  0  0
 21 22  2  0  0  0  0
 22 15  1  0  0  0  0
 23 21  1  0  0  0  0
 24 26  1  0  0  0  0
 24 29  1  1  0  0  0
 26 25  1  0  0  0  0
 27 17  1  6  0  0  0
 27 16  1  0  0  0  0
 27 28  1  0  0  0  0
 28 15  1  6  0  0  0
 28 14  1  0  0  0  0
 28 25  1  0  0  0  0
 29 31  1  0  0  0  0
 30 31  1  0  0  0  0
 32  3  1  0  0  0  0
 33 32  1  0  0  0  0
 34 32  2  0  0  0  0
M  END
>  <MODEL>
1

>  <REMARK>
 VINA RESULT:      -4.5      0.000      0.000
  Name = 
  4 active torsions:
  status: ('A' for Active; 'I' for Inactive)
    1  A    between atoms: C_3  and  C_23
    2  A    between atoms: C_3  and  C_24
    3  A    between atoms: C_7  and  C_11
    4  A    between atoms: C_33  and  C_34
                            x       y       z     vdW  Elec       q    Type
                         _______ _______ _______ _____ _____    ______ ____

>  <TORSDO>
F 4

$$$$
=
 OpenBabel11052415453D

 34 39  0  0  1  0  0  0  0  0999 V2000
  182.9670  176.8700  135.8200 C   0  0  0  0  0  0  0  0  0  0  0  0
  183.4390  175.5820  138.3540 C   0  0  0  0  0  0  0  0  0  0  0  0
  183.6070  173.4100  135.6140 C   0  0  2  0  0  0  0  0  0  0  0  0
  183.1370  178.0330  140.6700 C   0  0  0  0  0  2  0  0  0  0  0  0
  182.8840  179.2380  139.8710 C   0  0  0  0  0  2  0  0  0  0  0  0
  183.5580  174.5730  134.5940 C   0  0  0  0  0  2  0  0  0  0  0  0
  183.1860  175.8600  135.2000 C   0  0  0  0  0  0  0  0  0  0  0  0
  183.3400  177.9550  139.1470 C   0  0  0  0  0  0  0  0  0  0  0  0
  184.5490  173.7010  136.8130 C   0  0  0  0  0  2  0  0  0  0  0  0
  183.9990  174.7160  137.7270 C   0  0  0  0  0  0  0  0  0  0  0  0
  184.1890  172.2190  134.8790 C   0  0  0  0  0  1  0  0  0  0  0  0
  182.6210  176.6160  138.9960 C   0  0  1  0  0  3  0  0  0  0  0  0
  182.8240  178.0390  136.6950 C   0  0  0  0  0  2  0  0  0  0  0  0
  182.1960  177.7420  138.0810 C   0  0  2  0  0  0  0  0  0  0  0  0
  180.0710  177.8260  139.6270 C   0  0  0  0  0  2  0  0  0  0  0  0
  179.8920  178.2370  135.8350 C   0  0  0  0  0  2  0  0  0  0  0  0
  179.8000  176.0630  137.2000 C   0  0  0  0  0  2  0  0  0  0  0  0
  179.4530  175.8270  141.0000 C   0  0  0  0  0  3  0  0  0  0  0  0
  178.9310  173.6800  140.0110 C   0  0  0  0  0  3  0  0  0  0  0  0
  179.0770  174.4890  141.1410 C   0  0  0  0  0  3  0  0  0  0  0  0
  179.5150  175.5490  138.5840 C   0  0  0  0  0  0  0  0  0  0  0  0
  179.6860  176.3660  139.7310 C   0  0  0  0  0  0  0  0  0  0  0  0
  179.1530  174.2080  138.7370 C   0  0  0  0  0  3  0  0  0  0  0  0
  179.7090  179.7550  135.9840 C   0  0  1  0  0  3  0  0  0  0  0  0
  180.6340  179.7430  138.1070 C   0  0  0  0  0  2  0  0  0  0  0  0
  179.5350  180.1780  137.3300 O   0  0  0  0  0  0  0  0  0  0  0  0
  179.7640  177.5820  137.2000 C   0  0  1  0  0  3  0  0  0  0  0  0
  180.6910  178.2080  138.2650 C   0  0  1  0  0  0  0  0  0  0  0  0
  180.8170  180.5200  135.2600 C   0  0  0  0  0  2  0  0  0  0  0  0
  181.0500  182.8700  135.6310 O   0  0  0  0  0  1  0  0  0  0  0  0
  180.3600  181.9170  134.8810 C   0  0  0  0  0  2  0  0  0  0  0  0
  182.2170  173.0220  136.0720 C   0  0  0  0  0  0  0  0  0  0  0  0
  182.0650  172.2340  137.0440 O   0  0  0  0  0  1  0  0  0  0  0  0
  181.0940  173.4800  135.3920 O   0  0  0  0  0  0  0  0  0  0  0  0
  1 13  1  0  0  0  0
  3 11  1  6  0  0  0
  3 32  1  0  0  0  0
  3  9  1  0  0  0  0
  5  4  1  0  0  0  0
  6  7  1  0  0  0  0
  6  3  1  0  0  0  0
  7  1  3  0  0  0  0
  8  5  1  0  0  0  0
  8  4  1  0  0  0  0
  9 10  1  0  0  0  0
 10  2  3  0  0  0  0
 12  2  1  6  0  0  0
 12  8  1  0  0  0  0
 14 13  1  6  0  0  0
 14 28  1  0  0  0  0
 14 12  1  0  0  0  0
 14  8  1  0  0  0  0
 15 22  1  0  0  0  0
 16 24  1  0  0  0  0
 17 27  1  0  0  0  0
 17 21  1  0  0  0  0
 18 20  1  0  0  0  0
 19 20  2  0  0  0  0
 21 23  2  0  0  0  0
 21 22  1  0  0  0  0
 22 18  2  0  0  0  0
 23 19  1  0  0  0  0
 24 29  1  1  0  0  0
 24 26  1  0  0  0  0
 26 25  1  0  0  0  0
 27 16  1  6  0  0  0
 27 28  1  0  0  0  0
 28 25  1  6  0  0  0
 28 15  1  0  0  0  0
 31 29  1  0  0  0  0
 31 30  1  0  0  0  0
 32 33  1  0  0  0  0
 34 32  2  0  0  0  0
M  END
>  <MODEL>
2

>  <REMARK>
 VINA RESULT:      -4.3      2.417      4.888
  Name = 
  4 active torsions:
  status: ('A' for Active; 'I' for Inactive)
    1  A    between atoms: C_3  and  C_23
    2  A    between atoms: C_3  and  C_24
    3  A    between atoms: C_7  and  C_11
    4  A    between atoms: C_33  and  C_34
                            x       y       z     vdW  Elec       q    Type
                         _______ _______ _______ _____ _____    ______ ____

>  <TORSDO>
F 4

$$$$
=
 OpenBabel11052415453D

 34 39  0  0  1  0  0  0  0  0999 V2000
  183.3670  174.4510  137.6320 C   0  0  0  0  0  0  0  0  0  0  0  0
  180.9680  175.5300  138.8070 C   0  0  0  0  0  0  0  0  0  0  0  0
  180.3760  172.9820  136.4810 C   0  0  2  0  0  0  0  0  0  0  0  0
  182.0250  177.9520  140.9250 C   0  0  0  0  0  2  0  0  0  0  0  0
  183.4870  177.8880  140.8240 C   0  0  0  0  0  2  0  0  0  0  0  0
  181.8770  172.6180  136.3860 C   0  0  0  0  0  2  0  0  0  0  0  0
  182.7560  173.6170  137.0100 C   0  0  0  0  0  0  0  0  0  0  0  0
  182.6550  176.7520  140.1980 C   0  0  0  0  0  0  0  0  0  0  0  0
  179.9080  173.2350  137.9390 C   0  0  0  0  0  2  0  0  0  0  0  0
  180.4330  174.4960  138.4880 C   0  0  0  0  0  0  0  0  0  0  0  0
  179.6090  171.7760  135.9770 C   0  0  0  0  0  1  0  0  0  0  0  0
  181.6790  176.7940  139.0230 C   0  0  1  0  0  3  0  0  0  0  0  0
  183.9800  175.4480  138.5160 C   0  0  0  0  0  2  0  0  0  0  0  0
  183.1560  176.7480  138.7010 C   0  0  2  0  0  0  0  0  0  0  0  0
  182.7620  179.2450  137.9790 C   0  0  0  0  0  2  0  0  0  0  0  0
  185.1720  176.9160  136.1510 C   0  0  0  0  0  2  0  0  0  0  0  0
  182.6610  177.2470  135.7270 C   0  0  0  0  0  2  0  0  0  0  0  0
  180.4810  179.9860  137.2630 C   0  0  0  0  0  3  0  0  0  0  0  0
  179.3330  179.0160  135.3660 C   0  0  0  0  0  3  0  0  0  0  0  0
  179.3660  179.9290  136.4240 C   0  0  0  0  0  3  0  0  0  0  0  0
  181.5410  178.2210  135.9680 C   0  0  0  0  0  0  0  0  0  0  0  0
  181.5670  179.1320  137.0550 C   0  0  0  0  0  0  0  0  0  0  0  0
  180.4150  178.1620  135.1430 C   0  0  0  0  0  3  0  0  0  0  0  0
  186.3760  177.5990  136.8190 C   0  0  1  0  0  3  0  0  0  0  0  0
  185.0630  178.4170  138.5430 C   0  0  0  0  0  2  0  0  0  0  0  0
  186.0310  178.7560  137.5680 O   0  0  0  0  0  0  0  0  0  0  0  0
  183.9200  177.7300  136.4280 C   0  0  1  0  0  3  0  0  0  0  0  0
  183.7020  178.0220  137.9280 C   0  0  1  0  0  0  0  0  0  0  0  0
  187.2050  176.5970  137.6230 C   0  0  0  0  0  2  0  0  0  0  0  0
  188.6160  177.4400  139.3580 O   0  0  0  0  0  1  0  0  0  0  0  0
  188.5590  177.1770  137.9890 C   0  0  0  0  0  2  0  0  0  0  0  0
  180.0350  174.1450  135.5720 C   0  0  0  0  0  0  0  0  0  0  0  0
  180.7790  174.4270  134.5940 O   0  0  0  0  0  0  0  0  0  0  0  0
  178.9350  174.9520  135.8380 O   0  0  0  0  0  1  0  0  0  0  0  0
  1 13  1  0  0  0  0
  3 11  1  6  0  0  0
  3  9  1  0  0  0  0
  5  4  1  0  0  0  0
  6  3  1  0  0  0  0
  6  7  1  0  0  0  0
  7  1  3  0  0  0  0
  8  5  1  0  0  0  0
  8  4  1  0  0  0  0
  9 10  1  0  0  0  0
 10  2  3  0  0  0  0
 12  2  1  6  0  0  0
 12  8  1  0  0  0  0
 14 13  1  6  0  0  0
 14 12  1  0  0  0  0
 14  8  1  0  0  0  0
 16 27  1  0  0  0  0
 16 24  1  0  0  0  0
 17 21  1  0  0  0  0
 19 20  1  0  0  0  0
 20 18  2  0  0  0  0
 21 22  2  0  0  0  0
 22 18  1  0  0  0  0
 22 15  1  0  0  0  0
 23 19  2  0  0  0  0
 23 21  1  0  0  0  0
 24 26  1  0  0  0  0
 24 29  1  1  0  0  0
 26 25  1  0  0  0  0
 27 17  1  1  0  0  0
 27 28  1  0  0  0  0
 28 15  1  1  0  0  0
 28 25  1  0  0  0  0
 28 14  1  0  0  0  0
 29 31  1  0  0  0  0
 31 30  1  0  0  0  0
 32 34  1  0  0  0  0
 32  3  1  0  0  0  0
 33 32  2  0  0  0  0
M  END
>  <MODEL>
3

>  <REMARK>
 VINA RESULT:      -4.2      1.404      1.835
  Name = 
  4 active torsions:
  status: ('A' for Active; 'I' for Inactive)
    1  A    between atoms: C_3  and  C_23
    2  A    between atoms: C_3  and  C_24
    3  A    between atoms: C_7  and  C_11
    4  A    between atoms: C_33  and  C_34
                            x       y       z     vdW  Elec       q    Type
                         _______ _______ _______ _____ _____    ______ ____

>  <TORSDO>
F 4

$$$$
=
 OpenBabel11052415453D

 34 39  0  0  1  0  0  0  0  0999 V2000
  181.3740  176.0070  139.3920 C   0  0  0  0  0  0  0  0  0  0  0  0
  183.0680  178.2490  138.7560 C   0  0  0  0  0  0  0  0  0  0  0  0
  180.6930  178.9340  141.2340 C   0  0  2  0  0  0  0  0  0  0  0  0
  185.1400  177.1370  136.3190 C   0  0  0  0  0  2  0  0  0  0  0  0
  184.7590  175.7300  136.1540 C   0  0  0  0  0  2  0  0  0  0  0  0
  180.2860  177.4470  141.3610 C   0  0  0  0  0  2  0  0  0  0  0  0
  180.8120  176.6080  140.2740 C   0  0  0  0  0  0  0  0  0  0  0  0
  184.2100  176.5050  137.3680 C   0  0  0  0  0  0  0  0  0  0  0  0
  182.2300  179.1320  141.1350 C   0  0  0  0  0  2  0  0  0  0  0  0
  182.7720  178.6880  139.8400 C   0  0  0  0  0  0  0  0  0  0  0  0
  180.2470  179.6120  142.5150 C   0  0  0  0  0  1  0  0  0  0  0  0
  183.2480  177.6910  137.4110 C   0  0  1  0  0  3  0  0  0  0  0  0
  182.2050  175.3740  138.3620 C   0  0  0  0  0  2  0  0  0  0  0  0
  182.6500  176.3160  137.2150 C   0  0  2  0  0  0  0  0  0  0  0  0
  182.0660  177.2910  134.8440 C   0  0  0  0  0  2  0  0  0  0  0  0
  179.9720  174.5910  136.5470 C   0  0  0  0  0  2  0  0  0  0  0  0
  179.7430  177.1400  136.7560 C   0  0  0  0  0  2  0  0  0  0  0  0
  181.5470  179.7270  134.5950 C   0  0  0  0  0  3  0  0  0  0  0  0
  179.6960  180.7870  135.7400 C   0  0  0  0  0  3  0  0  0  0  0  0
  180.7870  180.8660  134.8690 C   0  0  0  0  0  3  0  0  0  0  0  0
  180.1050  178.4190  136.0540 C   0  0  0  0  0  0  0  0  0  0  0  0
  181.2260  178.5030  135.1880 C   0  0  0  0  0  0  0  0  0  0  0  0
  179.3600  179.5680  136.3330 C   0  0  0  0  0  3  0  0  0  0  0  0
  180.5810  173.5120  135.6370 C   0  0  1  0  0  3  0  0  0  0  0  0
  182.4280  174.8290  135.1690 C   0  0  0  0  0  2  0  0  0  0  0  0
  181.4020  174.0360  134.6030 O   0  0  0  0  0  0  0  0  0  0  0  0
  180.3730  175.9620  136.0300 C   0  0  1  0  0  3  0  0  0  0  0  0
  181.8960  176.1180  135.8330 C   0  0  1  0  0  0  0  0  0  0  0  0
  181.2800  172.4270  136.4570 C   0  0  0  0  0  2  0  0  0  0  0  0
  179.3740  171.1270  137.0820 O   0  0  0  0  0  1  0  0  0  0  0  0
  180.3920  171.9380  137.5870 C   0  0  0  0  0  2  0  0  0  0  0  0
  179.9650  179.6080  140.0900 C   0  0  0  0  0  0  0  0  0  0  0  0
  178.9350  179.0780  139.5920 O   0  0  0  0  0  1  0  0  0  0  0  0
  180.4550  180.7840  139.5340 O   0  0  0  0  0  0  0  0  0  0  0  0
  1  7  3  0  0  0  0
  2 10  3  0  0  0  0
  3  6  1  0  0  0  0
  3 11  1  1  0  0  0
  4  8  1  0  0  0  0
  5  4  1  0  0  0  0
  5  8  1  0  0  0  0
  7  6  1  0  0  0  0
  8 12  1  0  0  0  0
  9  3  1  0  0  0  0
 10  9  1  0  0  0  0
 12  2  1  1  0  0  0
 13  1  1  0  0  0  0
 14  8  1  0  0  0  0
 14 12  1  0  0  0  0
 14 13  1  1  0  0  0
 15 22  1  0  0  0  0
 18 20  2  0  0  0  0
 18 22  1  0  0  0  0
 19 23  2  0  0  0  0
 20 19  1  0  0  0  0
 21 23  1  0  0  0  0
 21 17  1  0  0  0  0
 22 21  2  0  0  0  0
 24 29  1  1  0  0  0
 24 16  1  0  0  0  0
 25 28  1  0  0  0  0
 26 25  1  0  0  0  0
 26 24  1  0  0  0  0
 27 16  1  1  0  0  0
 27 17  1  0  0  0  0
 28 15  1  6  0  0  0
 28 27  1  0  0  0  0
 28 14  1  0  0  0  0
 29 31  1  0  0  0  0
 30 31  1  0  0  0  0
 32  3  1  0  0  0  0
 33 32  1  0  0  0  0
 34 32  2  0  0  0  0
M  END
>  <MODEL>
4

>  <REMARK>
 VINA RESULT:      -4.1      2.216      5.923
  Name = 
  4 active torsions:
  status: ('A' for Active; 'I' for Inactive)
    1  A    between atoms: C_3  and  C_23
    2  A    between atoms: C_3  and  C_24
    3  A    between atoms: C_7  and  C_11
    4  A    between atoms: C_33  and  C_34
                            x       y       z     vdW  Elec       q    Type
                         _______ _______ _______ _____ _____    ______ ____

>  <TORSDO>
F 4

$$$$
=
 OpenBabel11052415453D

 34 39  0  0  1  0  0  0  0  0999 V2000
  185.1080  174.5830  134.8040 C   0  0  0  0  0  0  0  0  0  0  0  0
  183.9340  177.1560  135.3510 C   0  0  0  0  0  0  0  0  0  0  0  0
  187.4230  177.1090  135.6300 C   0  0  2  0  0  0  0  0  0  0  0  0
  180.5960  176.7050  135.0040 C   0  0  0  0  0  2  0  0  0  0  0  0
  180.4760  175.3010  134.5950 C   0  0  0  0  0  2  0  0  0  0  0  0
  187.5280  175.6920  135.0170 C   0  0  0  0  0  2  0  0  0  0  0  0
  186.2310  175.0050  134.9210 C   0  0  0  0  0  0  0  0  0  0  0  0
  181.8730  175.9520  134.5940 C   0  0  0  0  0  0  0  0  0  0  0  0
  186.4180  178.0190  134.8740 C   0  0  0  0  0  2  0  0  0  0  0  0
  185.0180  177.6230  135.1020 C   0  0  0  0  0  0  0  0  0  0  0  0
  188.7910  177.7450  135.4760 C   0  0  0  0  0  1  0  0  0  0  0  0
  182.7040  176.4720  135.7650 C   0  0  1  0  0  3  0  0  0  0  0  0
  183.6980  174.2330  134.5980 C   0  0  0  0  0  2  0  0  0  0  0  0
  182.7010  174.9800  135.5210 C   0  0  2  0  0  0  0  0  0  0  0  0
  180.9300  174.8120  137.4570 C   0  0  0  0  0  2  0  0  0  0  0  0
  184.1080  172.6980  137.3680 C   0  0  0  0  0  2  0  0  0  0  0  0
  183.7900  175.0390  138.3760 C   0  0  0  0  0  2  0  0  0  0  0  0
  180.4420  176.8180  138.8720 C   0  0  0  0  0  3  0  0  0  0  0  0
  182.1390  177.9110  140.2090 C   0  0  0  0  0  3  0  0  0  0  0  0
  180.8150  177.8230  139.7670 C   0  0  0  0  0  3  0  0  0  0  0  0
  182.7240  175.9740  138.8770 C   0  0  0  0  0  0  0  0  0  0  0  0
  181.3860  175.8960  138.4100 C   0  0  0  0  0  0  0  0  0  0  0  0
  183.0900  176.9910  139.7610 C   0  0  0  0  0  3  0  0  0  0  0  0
  183.3060  171.4680  136.9140 C   0  0  1  0  0  3  0  0  0  0  0  0
  181.5740  172.7860  136.1220 C   0  0  0  0  0  2  0  0  0  0  0  0
  181.8990  171.6700  136.9280 O   0  0  0  0  0  0  0  0  0  0  0  0
  183.1440  173.7970  137.7840 C   0  0  1  0  0  3  0  0  0  0  0  0
  182.0880  174.1200  136.7060 C   0  0  1  0  0  0  0  0  0  0  0  0
  183.8160  170.9390  135.5740 C   0  0  0  0  0  2  0  0  0  0  0  0
  185.8090  169.8390  134.8440 O   0  0  0  0  0  1  0  0  0  0  0  0
  185.3330  170.9640  135.5180 C   0  0  0  0  0  2  0  0  0  0  0  0
  187.1180  177.0460  137.1120 C   0  0  0  0  0  0  0  0  0  0  0  0
  187.2080  175.9520  137.7330 O   0  0  0  0  0  0  0  0  0  0  0  0
  186.6790  178.1740  137.7930 O   0  0  0  0  0  1  0  0  0  0  0  0
  1  7  3  0  0  0  0
  3 11  1  6  0  0  0
  3 32  1  0  0  0  0
  5  4  1  0  0  0  0
  6  3  1  0  0  0  0
  7  6  1  0  0  0  0
  8  5  1  0  0  0  0
  8  4  1  0  0  0  0
  8 14  1  0  0  0  0
  8 12  1  0  0  0  0
  9 10  1  0  0  0  0
  9  3  1  0  0  0  0
 10  2  3  0  0  0  0
 12  2  1  6  0  0  0
 13  1  1  0  0  0  0
 14 13  1  6  0  0  0
 14 12  1  0  0  0  0
 14 28  1  0  0  0  0
 15 22  1  0  0  0  0
 17 21  1  0  0  0  0
 18 20  1  0  0  0  0
 20 19  2  0  0  0  0
 21 23  2  0  0  0  0
 22 18  2  0  0  0  0
 22 21  1  0  0  0  0
 23 19  1  0  0  0  0
 24 29  1  6  0  0  0
 24 26  1  0  0  0  0
 24 16  1  0  0  0  0
 25 26  1  0  0  0  0
 27 16  1  6  0  0  0
 27 17  1  0  0  0  0
 28 25  1  6  0  0  0
 28 15  1  0  0  0  0
 28 27  1  0  0  0  0
 30 31  1  0  0  0  0
 31 29  1  0  0  0  0
 32 33  2  0  0  0  0
 32 34  1  0  0  0  0
M  END
>  <MODEL>
5

>  <REMARK>
 VINA RESULT:      -3.9      2.988      6.792
  Name = 
  4 active torsions:
  status: ('A' for Active; 'I' for Inactive)
    1  A    between atoms: C_3  and  C_23
    2  A    between atoms: C_3  and  C_24
    3  A    between atoms: C_7  and  C_11
    4  A    between atoms: C_33  and  C_34
                            x       y       z     vdW  Elec       q    Type
                         _______ _______ _______ _____ _____    ______ ____

>  <TORSDO>
F 4

$$$$
=
 OpenBabel11052415453D

 34 39  0  0  1  0  0  0  0  0999 V2000
  183.5970  174.5770  134.6360 C   0  0  0  0  0  0  0  0  0  0  0  0
  184.0300  177.2700  135.5630 C   0  0  0  0  0  0  0  0  0  0  0  0
  186.9590  175.3660  135.3430 C   0  0  2  0  0  0  0  0  0  0  0  0
  180.9560  178.6870  135.6520 C   0  0  0  0  0  2  0  0  0  0  0  0
  180.0720  177.6320  135.1430 C   0  0  0  0  0  2  0  0  0  0  0  0
  186.2420  174.2120  134.6010 C   0  0  0  0  0  2  0  0  0  0  0  0
  184.7760  174.3270  134.6290 C   0  0  0  0  0  0  0  0  0  0  0  0
  181.5960  177.4490  135.0020 C   0  0  0  0  0  0  0  0  0  0  0  0
  186.5470  176.7670  134.8170 C   0  0  0  0  0  2  0  0  0  0  0  0
  185.1740  177.1320  135.2050 C   0  0  0  0  0  0  0  0  0  0  0  0
  188.4390  175.2070  135.0540 C   0  0  0  0  0  1  0  0  0  0  0  0
  182.6600  177.2770  136.0850 C   0  0  1  0  0  3  0  0  0  0  0  0
  182.2090  175.0510  134.6010 C   0  0  0  0  0  2  0  0  0  0  0  0
  181.8390  176.0620  135.7160 C   0  0  2  0  0  0  0  0  0  0  0  0
  180.3370  176.5660  137.8140 C   0  0  0  0  0  2  0  0  0  0  0  0
  182.0230  173.1900  137.2360 C   0  0  0  0  0  2  0  0  0  0  0  0
  182.9760  175.2520  138.4350 C   0  0  0  0  0  2  0  0  0  0  0  0
  180.9990  178.3760  139.4110 C   0  0  0  0  0  3  0  0  0  0  0  0
  183.0890  178.3340  140.6320 C   0  0  0  0  0  3  0  0  0  0  0  0
  181.8750  178.9580  140.3290 C   0  0  0  0  0  3  0  0  0  0  0  0
  182.5500  176.5260  139.1110 C   0  0  0  0  0  0  0  0  0  0  0  0
  181.3280  177.1690  138.7870 C   0  0  0  0  0  0  0  0  0  0  0  0
  183.4260  177.1240  140.0210 C   0  0  0  0  0  3  0  0  0  0  0  0
  180.6890  172.5740  136.7860 C   0  0  1  0  0  3  0  0  0  0  0  0
  179.8030  174.6530  136.2790 C   0  0  0  0  0  2  0  0  0  0  0  0
  179.5740  173.4370  136.9650 O   0  0  0  0  0  0  0  0  0  0  0  0
  181.7630  174.5640  137.8290 C   0  0  1  0  0  3  0  0  0  0  0  0
  180.9480  175.4860  136.8960 C   0  0  1  0  0  0  0  0  0  0  0  0
  180.7880  172.0190  135.3650 C   0  0  0  0  0  2  0  0  0  0  0  0
  181.7740  169.8420  135.3360 O   0  0  0  0  0  1  0  0  0  0  0  0
  182.0540  171.2010  135.1840 C   0  0  0  0  0  2  0  0  0  0  0  0
  186.7770  175.2520  136.8420 C   0  0  0  0  0  0  0  0  0  0  0  0
  187.2310  176.1450  137.6070 O   0  0  0  0  0  1  0  0  0  0  0  0
  186.1630  174.1360  137.3970 O   0  0  0  0  0  0  0  0  0  0  0  0
  3 11  1  6  0  0  0
  3 32  1  0  0  0  0
  5  4  1  0  0  0  0
  6  7  1  0  0  0  0
  6  3  1  0  0  0  0
  7  1  3  0  0  0  0
  8  5  1  0  0  0  0
  8  4  1  0  0  0  0
  8 14  1  0  0  0  0
  8 12  1  0  0  0  0
  9 10  1  0  0  0  0
  9  3  1  0  0  0  0
 10  2  3  0  0  0  0
 12  2  1  6  0  0  0
 13  1  1  0  0  0  0
 14 13  1  6  0  0  0
 14 12  1  0  0  0  0
 14 28  1  0  0  0  0
 15 22  1  0  0  0  0
 17 21  1  0  0  0  0
 18 20  1  0  0  0  0
 20 19  2  0  0  0  0
 21 23  2  0  0  0  0
 22 21  1  0  0  0  0
 22 18  2  0  0  0  0
 23 19  1  0  0  0  0
 24 29  1  6  0  0  0
 24 26  1  0  0  0  0
 24 16  1  0  0  0  0
 25 26  1  0  0  0  0
 27 16  1  6  0  0  0
 27 17  1  0  0  0  0
 28 25  1  6  0  0  0
 28 15  1  0  0  0  0
 28 27  1  0  0  0  0
 31 30  1  0  0  0  0
 31 29  1  0  0  0  0
 32 34  2  0  0  0  0
 32 33  1  0  0  0  0
M  END
>  <MODEL>
6

>  <REMARK>
 VINA RESULT:      -3.8      2.753      6.487
  Name = 
  4 active torsions:
  status: ('A' for Active; 'I' for Inactive)
    1  A    between atoms: C_3  and  C_23
    2  A    between atoms: C_3  and  C_24
    3  A    between atoms: C_7  and  C_11
    4  A    between atoms: C_33  and  C_34
                            x       y       z     vdW  Elec       q    Type
                         _______ _______ _______ _____ _____    ______ ____

>  <TORSDO>
F 4

$$$$
=
 OpenBabel11052415453D

 34 39  0  0  1  0  0  0  0  0999 V2000
  181.9710  177.8810  135.0200 C   0  0  0  0  0  0  0  0  0  0  0  0
  179.3360  177.5620  136.1400 C   0  0  0  0  0  0  0  0  0  0  0  0
  180.1370  180.8750  135.3430 C   0  0  2  0  0  0  0  0  0  0  0  0
  179.0350  174.2500  136.7790 C   0  0  0  0  0  2  0  0  0  0  0  0
  180.2990  173.6860  136.2920 C   0  0  0  0  0  2  0  0  0  0  0  0
  181.4270  180.4620  134.5950 C   0  0  0  0  0  2  0  0  0  0  0  0
  181.8100  179.0620  134.8300 C   0  0  0  0  0  0  0  0  0  0  0  0
  179.9550  175.1440  135.9300 C   0  0  0  0  0  0  0  0  0  0  0  0
  178.9310  179.9530  135.0180 C   0  0  0  0  0  2  0  0  0  0  0  0
  179.0650  178.6160  135.6200 C   0  0  0  0  0  0  0  0  0  0  0  0
  179.7770  182.2600  134.8450 C   0  0  0  0  0  1  0  0  0  0  0  0
  179.8130  176.3640  136.8390 C   0  0  1  0  0  3  0  0  0  0  0  0
  181.9870  176.4280  135.2180 C   0  0  0  0  0  2  0  0  0  0  0  0
  181.2130  175.9330  136.4660 C   0  0  2  0  0  0  0  0  0  0  0  0
  181.3220  175.2280  138.9960 C   0  0  0  0  0  2  0  0  0  0  0  0
  184.3470  176.5580  137.0850 C   0  0  0  0  0  2  0  0  0  0  0  0
  182.5730  177.8960  138.3730 C   0  0  0  0  0  2  0  0  0  0  0  0
  179.9070  176.4200  140.6810 C   0  0  0  0  0  3  0  0  0  0  0  0
  180.1040  178.7970  141.0980 C   0  0  0  0  0  3  0  0  0  0  0  0
  179.5050  177.5640  141.3750 C   0  0  0  0  0  3  0  0  0  0  0  0
  181.5280  177.7460  139.4430 C   0  0  0  0  0  0  0  0  0  0  0  0
  180.9060  176.4980  139.7070 C   0  0  0  0  0  0  0  0  0  0  0  0
  181.1090  178.8870  140.1320 C   0  0  0  0  0  3  0  0  0  0  0  0
  184.9230  175.1390  136.9600 C   0  0  1  0  0  3  0  0  0  0  0  0
  182.8440  174.1750  137.3010 C   0  0  0  0  0  2  0  0  0  0  0  0
  184.2010  174.1640  137.7010 O   0  0  0  0  0  0  0  0  0  0  0  0
  183.1730  176.5370  138.0490 C   0  0  1  0  0  3  0  0  0  0  0  0
  182.1110  175.4760  137.6930 C   0  0  1  0  0  0  0  0  0  0  0  0
  185.1150  174.7460  135.4950 C   0  0  0  0  0  2  0  0  0  0  0  0
  187.4220  175.2980  135.2010 O   0  0  0  0  0  1  0  0  0  0  0  0
  186.1280  175.6500  134.8160 C   0  0  0  0  0  2  0  0  0  0  0  0
  180.3770  180.9800  136.8350 C   0  0  0  0  0  0  0  0  0  0  0  0
  181.5460  181.1320  137.2810 O   0  0  0  0  0  0  0  0  0  0  0  0
  179.3240  180.8500  137.7320 O   0  0  0  0  0  1  0  0  0  0  0  0
  1 13  1  0  0  0  0
  3 11  1  6  0  0  0
  3 32  1  0  0  0  0
  5  4  1  0  0  0  0
  6  7  1  0  0  0  0
  6  3  1  0  0  0  0
  7  1  3  0  0  0  0
  8  5  1  0  0  0  0
  8 14  1  0  0  0  0
  8  4  1  0  0  0  0
  8 12  1  0  0  0  0
  9  3  1  0  0  0  0
  9 10  1  0  0  0  0
 10  2  3  0  0  0  0
 12  2  1  6  0  0  0
 14 13  1  6  0  0  0
 14 12  1  0  0  0  0
 14 28  1  0  0  0  0
 15 22  1  0  0  0  0
 17 21  1  0  0  0  0
 18 20  1  0  0  0  0
 19 20  2  0  0  0  0
 21 22  1  0  0  0  0
 21 23  2  0  0  0  0
 22 18  2  0  0  0  0
 23 19  1  0  0  0  0
 24 29  1  6  0  0  0
 24 16  1  0  0  0  0
 24 26  1  0  0  0  0
 25 26  1  0  0  0  0
 27 16  1  6  0  0  0
 27 17  1  0  0  0  0
 28 25  1  6  0  0  0
 28 27  1  0  0  0  0
 28 15  1  0  0  0  0
 31 30  1  0  0  0  0
 31 29  1  0  0  0  0
 32 33  2  0  0  0  0
 32 34  1  0  0  0  0
M  END
>  <MODEL>
7

>  <REMARK>
 VINA RESULT:      -3.6      2.395      5.575
  Name = 
  4 active torsions:
  status: ('A' for Active; 'I' for Inactive)
    1  A    between atoms: C_3  and  C_23
    2  A    between atoms: C_3  and  C_24
    3  A    between atoms: C_7  and  C_11
    4  A    between atoms: C_33  and  C_34
                            x       y       z     vdW  Elec       q    Type
                         _______ _______ _______ _____ _____    ______ ____

>  <TORSDO>
F 4

$$$$
=
 OpenBabel11052415453D

 34 39  0  0  1  0  0  0  0  0999 V2000
  182.3940  179.2280  139.2990 C   0  0  0  0  0  0  0  0  0  0  0  0
  179.8430  178.8990  138.0000 C   0  0  0  0  0  0  0  0  0  0  0  0
  179.6130  179.3750  141.4600 C   0  0  2  0  0  0  0  0  0  0  0  0
  180.5650  178.4330  134.7250 C   0  0  0  0  0  2  0  0  0  0  0  0
  182.0260  178.5560  134.6700 C   0  0  0  0  0  2  0  0  0  0  0  0
  181.1120  179.7390  141.5860 C   0  0  0  0  0  2  0  0  0  0  0  0
  181.8860  179.4320  140.3740 C   0  0  0  0  0  0  0  0  0  0  0  0
  181.3000  178.9720  135.9640 C   0  0  0  0  0  0  0  0  0  0  0  0
  178.9310  180.0430  140.2360 C   0  0  0  0  0  2  0  0  0  0  0  0
  179.3650  179.4530  138.9590 C   0  0  0  0  0  0  0  0  0  0  0  0
  178.9320  179.9280  142.6970 C   0  0  0  0  0  1  0  0  0  0  0  0
  180.5120  178.1160  136.9550 C   0  0  1  0  0  3  0  0  0  0  0  0
  182.8650  179.0610  137.9200 C   0  0  0  0  0  2  0  0  0  0  0  0
  182.0210  178.0890  137.0570 C   0  0  2  0  0  0  0  0  0  0  0  0
  181.6620  175.5720  136.3910 C   0  0  0  0  0  2  0  0  0  0  0  0
  184.7480  176.7970  138.2750 C   0  0  0  0  0  2  0  0  0  0  0  0
  182.5030  176.0160  139.2490 C   0  0  0  0  0  2  0  0  0  0  0  0
  179.6930  174.3150  137.2920 C   0  0  0  0  0  3  0  0  0  0  0  0
  179.3400  173.9780  139.6630 C   0  0  0  0  0  3  0  0  0  0  0  0
  178.9340  173.7880  138.3380 C   0  0  0  0  0  3  0  0  0  0  0  0
  181.2830  175.2090  138.9020 C   0  0  0  0  0  0  0  0  0  0  0  0
  180.8610  175.0370  137.5590 C   0  0  0  0  0  0  0  0  0  0  0  0
  180.5090  174.6890  139.9430 C   0  0  0  0  0  3  0  0  0  0  0  0
  185.5910  176.7180  136.9930 C   0  0  1  0  0  3  0  0  0  0  0  0
  183.7090  176.8200  135.6480 C   0  0  0  0  0  2  0  0  0  0  0  0
  184.9110  176.1180  135.8990 O   0  0  0  0  0  0  0  0  0  0  0  0
  183.4060  176.1280  138.0310 C   0  0  1  0  0  3  0  0  0  0  0  0
  182.6740  176.6690  136.7840 C   0  0  1  0  0  0  0  0  0  0  0  0
  186.1920  178.0790  136.6420 C   0  0  0  0  0  2  0  0  0  0  0  0
  188.2900  179.1090  137.1440 O   0  0  0  0  0  1  0  0  0  0  0  0
  187.7040  177.9990  136.5350 C   0  0  0  0  0  2  0  0  0  0  0  0
  179.4100  177.8740  141.4660 C   0  0  0  0  0  0  0  0  0  0  0  0
  178.9310  177.2930  140.4550 O   0  0  0  0  0  0  0  0  0  0  0  0
  179.6890  177.1260  142.6040 O   0  0  0  0  0  1  0  0  0  0  0  0
  1  7  3  0  0  0  0
  2 10  3  0  0  0  0
  3 32  1  0  0  0  0
  3  6  1  0  0  0  0
  3 11  1  1  0  0  0
  4  8  1  0  0  0  0
  5  4  1  0  0  0  0
  5  8  1  0  0  0  0
  7  6  1  0  0  0  0
  8 12  1  0  0  0  0
  8 14  1  0  0  0  0
  9  3  1  0  0  0  0
 10  9  1  0  0  0  0
 12 14  1  0  0  0  0
 12  2  1  1  0  0  0
 13  1  1  0  0  0  0
 14 13  1  1  0  0  0
 15 28  1  0  0  0  0
 15 22  1  0  0  0  0
 18 22  2  0  0  0  0
 18 20  1  0  0  0  0
 19 23  1  0  0  0  0
 20 19  2  0  0  0  0
 21 17  1  0  0  0  0
 21 23  2  0  0  0  0
 22 21  1  0  0  0  0
 24 29  1  6  0  0  0
 24 16  1  0  0  0  0
 25 26  1  0  0  0  0
 26 24  1  0  0  0  0
 27 16  1  1  0  0  0
 27 17  1  0  0  0  0
 28 25  1  6  0  0  0
 28 14  1  0  0  0  0
 28 27  1  0  0  0  0
 31 29  1  0  0  0  0
 31 30  1  0  0  0  0
 32 34  1  0  0  0  0
 33 32  2  0  0  0  0
M  END
>  <MODEL>
8

>  <REMARK>
 VINA RESULT:      -3.2      2.185      5.417
  Name = 
  4 active torsions:
  status: ('A' for Active; 'I' for Inactive)
    1  A    between atoms: C_3  and  C_23
    2  A    between atoms: C_3  and  C_24
    3  A    between atoms: C_7  and  C_11
    4  A    between atoms: C_33  and  C_34
                            x       y       z     vdW  Elec       q    Type
                         _______ _______ _______ _____ _____    ______ ____

>  <TORSDO>
F 4

$$$$
=
 OpenBabel11052415453D

 34 39  0  0  1  0  0  0  0  0999 V2000
  183.6180  176.2700  138.9200 C   0  0  0  0  0  0  0  0  0  0  0  0
  181.4770  174.8450  137.6220 C   0  0  0  0  0  0  0  0  0  0  0  0
  184.3580  175.1580  135.6580 C   0  0  2  0  0  0  0  0  0  0  0  0
  178.9310  174.8340  139.8540 C   0  0  0  0  0  2  0  0  0  0  0  0
  179.4940  175.5130  141.0270 C   0  0  0  0  0  2  0  0  0  0  0  0
  185.1940  175.7070  136.8390 C   0  0  0  0  0  2  0  0  0  0  0  0
  184.3760  176.0850  138.0010 C   0  0  0  0  0  0  0  0  0  0  0  0
  180.4470  175.0920  139.8910 C   0  0  0  0  0  0  0  0  0  0  0  0
  183.4580  173.9590  136.0620 C   0  0  0  0  0  2  0  0  0  0  0  0
  182.3250  174.3670  136.9090 C   0  0  0  0  0  0  0  0  0  0  0  0
  185.3490  174.6370  134.6360 C   0  0  0  0  0  1  0  0  0  0  0  0
  180.5220  175.5900  138.4490 C   0  0  1  0  0  3  0  0  0  0  0  0
  182.6220  176.3330  139.9960 C   0  0  0  0  0  2  0  0  0  0  0  0
  181.1530  176.4530  139.5180 C   0  0  2  0  0  0  0  0  0  0  0  0
  179.3560  178.1790  138.6790 C   0  0  0  0  0  2  0  0  0  0  0  0
  182.4510  179.2100  140.6640 C   0  0  0  0  0  2  0  0  0  0  0  0
  182.2120  178.9550  138.1190 C   0  0  0  0  0  2  0  0  0  0  0  0
  178.9310  178.4390  136.2270 C   0  0  0  0  0  3  0  0  0  0  0  0
  180.6540  179.1300  134.6730 C   0  0  0  0  0  3  0  0  0  0  0  0
  179.3320  178.7490  134.9260 C   0  0  0  0  0  3  0  0  0  0  0  0
  181.1780  178.9130  137.0290 C   0  0  0  0  0  0  0  0  0  0  0  0
  179.8430  178.5050  137.2830 C   0  0  0  0  0  0  0  0  0  0  0  0
  181.5730  179.2080  135.7210 C   0  0  0  0  0  3  0  0  0  0  0  0
  181.6070  179.3830  141.9360 C   0  0  1  0  0  3  0  0  0  0  0  0
  179.9350  178.0050  141.1160 C   0  0  0  0  0  2  0  0  0  0  0  0
  180.2090  179.2580  141.7130 O   0  0  0  0  0  0  0  0  0  0  0  0
  181.5260  179.0170  139.4740 C   0  0  1  0  0  3  0  0  0  0  0  0
  180.4940  177.8880  139.6810 C   0  0  1  0  0  0  0  0  0  0  0  0
  182.1110  178.4790  143.0610 C   0  0  0  0  0  2  0  0  0  0  0  0
  183.3550  178.7550  145.0830 O   0  0  0  0  0  1  0  0  0  0  0  0
  183.3450  179.0650  143.7230 C   0  0  0  0  0  2  0  0  0  0  0  0
  183.5600  176.2600  134.9920 C   0  0  0  0  0  0  0  0  0  0  0  0
  182.3480  176.0770  134.6950 O   0  0  0  0  0  1  0  0  0  0  0  0
  184.1650  177.4620  134.6450 O   0  0  0  0  0  0  0  0  0  0  0  0
  1 13  1  0  0  0  0
  3 11  1  6  0  0  0
  3  9  1  0  0  0  0
  3  6  1  0  0  0  0
  4  8  1  0  0  0  0
  4  5  1  0  0  0  0
  6  7  1  0  0  0  0
  7  1  3  0  0  0  0
  8  5  1  0  0  0  0
  9 10  1  0  0  0  0
 10  2  3  0  0  0  0
 12  2  1  6  0  0  0
 12 14  1  0  0  0  0
 12  8  1  0  0  0  0
 14 28  1  0  0  0  0
 14  8  1  0  0  0  0
 14 13  1  1  0  0  0
 16 24  1  0  0  0  0
 18 22  1  0  0  0  0
 19 20  1  0  0  0  0
 19 23  2  0  0  0  0
 20 18  2  0  0  0  0
 21 22  2  0  0  0  0
 21 17  1  0  0  0  0
 22 15  1  0  0  0  0
 23 21  1  0  0  0  0
 24 29  1  1  0  0  0
 25 26  1  0  0  0  0
 26 24  1  0  0  0  0
 27 17  1  6  0  0  0
 27 28  1  0  0  0  0
 27 16  1  0  0  0  0
 28 15  1  6  0  0  0
 28 25  1  0  0  0  0
 29 31  1  0  0  0  0
 31 30  1  0  0  0  0
 32  3  1  0  0  0  0
 33 32  1  0  0  0  0
 34 32  2  0  0  0  0
M  END
>  <MODEL>
9

>  <REMARK>
 VINA RESULT:      -3.2      2.301      3.465
  Name = 
  4 active torsions:
  status: ('A' for Active; 'I' for Inactive)
    1  A    between atoms: C_3  and  C_23
    2  A    between atoms: C_3  and  C_24
    3  A    between atoms: C_7  and  C_11
    4  A    between atoms: C_33  and  C_34
                            x       y       z     vdW  Elec       q    Type
                         _______ _______ _______ _____ _____    ______ ____

>  <TORSDO>
F 4

$$$$
