=
 OpenBabel11052413423D

 27 30  0  0  1  0  0  0  0  0999 V2000
  189.3090  177.3980  143.9120 C   0  0  1  0  0  3  0  0  0  0  0  0
  187.8500  177.7070  144.1260 C   0  0  0  0  0  0  0  0  0  0  0  0
  183.6950  178.5890  144.8480 C   0  0  0  0  0  2  0  0  0  0  0  0
  181.9050  179.9420  143.7490 O   0  0  0  0  0  1  0  0  0  0  0  0
  187.4140  178.0660  145.4070 C   0  0  0  0  0  3  0  0  0  0  0  0
  184.5830  177.8300  142.1830 C   0  0  0  0  0  2  0  0  0  0  0  0
  183.4220  178.7620  142.3890 C   0  0  0  0  0  3  0  0  0  0  0  0
  186.9230  177.6430  143.0740 C   0  0  0  0  0  3  0  0  0  0  0  0
  183.0040  179.1040  143.6140 C   0  0  0  0  0  0  0  0  0  0  0  0
  185.1470  178.3030  144.5910 C   0  0  0  0  0  0  0  0  0  0  0  0
  185.5790  177.9440  143.3010 C   0  0  0  0  0  0  0  0  0  0  0  0
  186.0670  178.3590  145.6410 C   0  0  0  0  0  3  0  0  0  0  0  0
  190.0780  178.2780  142.8840 C   0  0  2  0  0  0  0  0  0  0  0  0
  192.0100  176.9450  142.4910 O   0  0  0  0  0  0  0  0  0  0  0  0
  190.4060  175.9240  140.2760 O   0  0  0  0  0  1  0  0  0  0  0  0
  189.7660  178.2010  139.9030 C   0  0  0  0  0  2  0  0  0  0  0  0
  190.9090  179.3090  143.6350 C   0  0  0  0  0  1  0  0  0  0  0  0
  190.7820  177.2450  140.5190 C   0  0  1  0  0  3  0  0  0  0  0  0
  188.5770  178.3940  140.8210 C   0  0  0  0  0  2  0  0  0  0  0  0
  189.0630  179.1020  142.0740 C   0  0  0  0  0  2  0  0  0  0  0  0
  191.0160  177.4570  141.9970 C   0  0  0  0  0  0  0  0  0  0  0  0
  191.4480  176.3660  147.5060 C   0  0  0  0  0  3  0  0  0  0  0  0
  190.0420  177.0480  145.1800 C   0  0  0  0  0  0  0  0  0  0  0  0
  189.6020  177.5050  146.4300 C   0  0  0  0  0  3  0  0  0  0  0  0
  190.3030  177.1650  147.5900 C   0  0  0  0  0  3  0  0  0  0  0  0
  191.8880  175.9050  146.2620 C   0  0  0  0  0  3  0  0  0  0  0  0
  191.1850  176.2450  145.1020 C   0  0  0  0  0  3  0  0  0  0  0  0
  1  2  1  1  0  0  0
  1 23  1  0  0  0  0
  2  5  1  0  0  0  0
  5 12  2  0  0  0  0
  6  7  1  0  0  0  0
  6 11  1  0  0  0  0
  7  9  2  0  0  0  0
  8 11  1  0  0  0  0
  8  2  2  0  0  0  0
  9  4  1  0  0  0  0
  9  3  1  0  0  0  0
 10  3  1  0  0  0  0
 10 12  1  0  0  0  0
 11 10  2  0  0  0  0
 13 17  1  1  0  0  0
 13  1  1  0  0  0  0
 16 18  1  0  0  0  0
 16 19  1  0  0  0  0
 18 15  1  1  0  0  0
 18 21  1  0  0  0  0
 19 20  1  0  0  0  0
 20 13  1  0  0  0  0
 21 14  2  0  0  0  0
 21 13  1  0  0  0  0
 22 25  1  0  0  0  0
 23 24  1  0  0  0  0
 24 25  2  0  0  0  0
 26 22  2  0  0  0  0
 27 23  2  0  0  0  0
 27 26  1  0  0  0  0
M  END
>  <MODEL>
1

>  <REMARK>
 VINA RESULT:      -9.8      0.000      0.000
  Name = 
  3 active torsions:
  status: ('A' for Active; 'I' for Inactive)
    1  A    between atoms: C_1  and  C_15
    2  A    between atoms: C_2  and  C_15
    3  A    between atoms: C_9  and  C_15
                            x       y       z     vdW  Elec       q    Type
                         _______ _______ _______ _____ _____    ______ ____

>  <TORSDO>
F 3

$$$$
=
 OpenBabel11052413423D

 27 30  0  0  1  0  0  0  0  0999 V2000
  187.8200  177.3170  144.2310 C   0  0  1  0  0  3  0  0  0  0  0  0
  186.5090  177.7720  143.6420 C   0  0  0  0  0  0  0  0  0  0  0  0
  182.8130  179.0790  141.8590 C   0  0  0  0  0  2  0  0  0  0  0  0
  180.3770  178.6240  142.1800 O   0  0  0  0  0  1  0  0  0  0  0  0
  186.3750  177.8240  142.2500 C   0  0  0  0  0  3  0  0  0  0  0  0
  183.0840  178.9890  144.7550 C   0  0  0  0  0  2  0  0  0  0  0  0
  181.7590  178.7590  144.0810 C   0  0  0  0  0  3  0  0  0  0  0  0
  185.4280  178.1420  144.4560 C   0  0  0  0  0  3  0  0  0  0  0  0
  181.6290  178.8110  142.7500 C   0  0  0  0  0  0  0  0  0  0  0  0
  184.0940  178.6020  142.4820 C   0  0  0  0  0  0  0  0  0  0  0  0
  184.2230  178.5500  143.8810 C   0  0  0  0  0  0  0  0  0  0  0  0
  185.1730  178.2420  141.6700 C   0  0  0  0  0  3  0  0  0  0  0  0
  189.1070  177.6040  143.4040 C   0  0  2  0  0  0  0  0  0  0  0  0
  190.2320  179.1470  144.8250 O   0  0  0  0  0  0  0  0  0  0  0  0
  191.5260  176.7260  145.8190 O   0  0  0  0  0  1  0  0  0  0  0  0
  191.6740  176.0590  143.5240 C   0  0  0  0  0  2  0  0  0  0  0  0
  188.8140  178.7070  142.3960 C   0  0  0  0  0  1  0  0  0  0  0  0
  191.5100  177.2100  144.5110 C   0  0  1  0  0  3  0  0  0  0  0  0
  190.3470  175.3760  143.2630 C   0  0  0  0  0  2  0  0  0  0  0  0
  189.4420  176.3680  142.5530 C   0  0  0  0  0  2  0  0  0  0  0  0
  190.2780  178.0540  144.2810 C   0  0  0  0  0  0  0  0  0  0  0  0
  188.0540  177.9530  148.4850 C   0  0  0  0  0  3  0  0  0  0  0  0
  187.9150  177.5220  145.7190 C   0  0  0  0  0  0  0  0  0  0  0  0
  188.6770  176.6680  146.5290 C   0  0  0  0  0  3  0  0  0  0  0  0
  188.7450  176.8820  147.9080 C   0  0  0  0  0  3  0  0  0  0  0  0
  187.2960  178.8090  147.6810 C   0  0  0  0  0  3  0  0  0  0  0  0
  187.2280  178.5940  146.3010 C   0  0  0  0  0  3  0  0  0  0  0  0
  1  2  1  6  0  0  0
  1 23  1  0  0  0  0
  2  8  1  0  0  0  0
  3 10  1  0  0  0  0
  3  9  1  0  0  0  0
  4  9  1  0  0  0  0
  5  2  2  0  0  0  0
  7  6  1  0  0  0  0
  9  7  2  0  0  0  0
 10 11  1  0  0  0  0
 11  8  2  0  0  0  0
 11  6  1  0  0  0  0
 12  5  1  0  0  0  0
 12 10  2  0  0  0  0
 13 17  1  6  0  0  0
 13  1  1  0  0  0  0
 13 21  1  0  0  0  0
 16 18  1  0  0  0  0
 18 15  1  1  0  0  0
 19 16  1  0  0  0  0
 20 19  1  0  0  0  0
 20 13  1  0  0  0  0
 21 18  1  0  0  0  0
 21 14  2  0  0  0  0
 23 27  2  0  0  0  0
 23 24  1  0  0  0  0
 24 25  2  0  0  0  0
 25 22  1  0  0  0  0
 26 22  2  0  0  0  0
 27 26  1  0  0  0  0
M  END
>  <MODEL>
2

>  <REMARK>
 VINA RESULT:      -9.7      1.943      3.232
  Name = 
  3 active torsions:
  status: ('A' for Active; 'I' for Inactive)
    1  A    between atoms: C_1  and  C_15
    2  A    between atoms: C_2  and  C_15
    3  A    between atoms: C_9  and  C_15
                            x       y       z     vdW  Elec       q    Type
                         _______ _______ _______ _____ _____    ______ ____

>  <TORSDO>
F 3

$$$$
=
 OpenBabel11052413423D

 27 30  0  0  1  0  0  0  0  0999 V2000
  182.0230  178.5120  139.8980 C   0  0  1  0  0  3  0  0  0  0  0  0
  182.7460  178.5750  141.2190 C   0  0  0  0  0  0  0  0  0  0  0  0
  184.7210  178.8000  145.0400 C   0  0  0  0  0  2  0  0  0  0  0  0
  186.3920  177.4420  146.3070 O   0  0  0  0  0  1  0  0  0  0  0  0
  182.0150  178.8620  142.3780 C   0  0  0  0  0  3  0  0  0  0  0  0
  186.2560  178.2170  142.6380 C   0  0  0  0  0  2  0  0  0  0  0  0
  186.6570  177.6690  143.9800 C   0  0  0  0  0  3  0  0  0  0  0  0
  184.1290  178.3530  141.3110 C   0  0  0  0  0  3  0  0  0  0  0  0
  185.9600  177.9450  145.0880 C   0  0  0  0  0  0  0  0  0  0  0  0
  184.0300  178.7000  143.7110 C   0  0  0  0  0  0  0  0  0  0  0  0
  184.7700  178.4090  142.5500 C   0  0  0  0  0  0  0  0  0  0  0  0
  182.6540  178.9290  143.6190 C   0  0  0  0  0  3  0  0  0  0  0  0
  181.2640  177.1940  139.5670 C   0  0  2  0  0  0  0  0  0  0  0  0
  179.7890  177.9310  137.8500 O   0  0  0  0  0  0  0  0  0  0  0  0
  181.9470  177.0140  136.1100 O   0  0  0  0  0  1  0  0  0  0  0  0
  182.0990  175.1210  137.5680 C   0  0  0  0  0  2  0  0  0  0  0  0
  180.0990  177.0340  140.5350 C   0  0  0  0  0  1  0  0  0  0  0  0
  181.2400  176.2720  137.0560 C   0  0  1  0  0  3  0  0  0  0  0  0
  183.0340  175.5890  138.6650 C   0  0  0  0  0  2  0  0  0  0  0  0
  182.1870  175.9990  139.8580 C   0  0  0  0  0  2  0  0  0  0  0  0
  180.7090  177.1800  138.1410 C   0  0  0  0  0  0  0  0  0  0  0  0
  180.0910  182.1990  138.7920 C   0  0  0  0  0  3  0  0  0  0  0  0
  181.3330  179.7980  139.5270 C   0  0  0  0  0  0  0  0  0  0  0  0
  180.1860  180.2350  140.2040 C   0  0  0  0  0  3  0  0  0  0  0  0
  179.5660  181.4320  139.8380 C   0  0  0  0  0  3  0  0  0  0  0  0
  181.2360  181.7690  138.1160 C   0  0  0  0  0  3  0  0  0  0  0  0
  181.8560  180.5710  138.4850 C   0  0  0  0  0  3  0  0  0  0  0  0
  1 23  1  1  0  0  0
  1  2  1  0  0  0  0
  2  8  2  0  0  0  0
  2  5  1  0  0  0  0
  3  9  1  0  0  0  0
  5 12  2  0  0  0  0
  6  7  1  0  0  0  0
  7  9  2  0  0  0  0
  8 11  1  0  0  0  0
  9  4  1  0  0  0  0
 10  3  1  0  0  0  0
 11  6  1  0  0  0  0
 11 10  2  0  0  0  0
 12 10  1  0  0  0  0
 13 20  1  0  0  0  0
 13  1  1  0  0  0  0
 13 17  1  1  0  0  0
 14 21  2  0  0  0  0
 16 19  1  0  0  0  0
 18 15  1  6  0  0  0
 18 16  1  0  0  0  0
 18 21  1  0  0  0  0
 19 20  1  0  0  0  0
 21 13  1  0  0  0  0
 22 25  1  0  0  0  0
 23 24  1  0  0  0  0
 25 24  2  0  0  0  0
 26 27  1  0  0  0  0
 26 22  2  0  0  0  0
 27 23  2  0  0  0  0
M  END
>  <MODEL>
3

>  <REMARK>
 VINA RESULT:      -9.4      4.211      8.972
  Name = 
  3 active torsions:
  status: ('A' for Active; 'I' for Inactive)
    1  A    between atoms: C_1  and  C_15
    2  A    between atoms: C_2  and  C_15
    3  A    between atoms: C_9  and  C_15
                            x       y       z     vdW  Elec       q    Type
                         _______ _______ _______ _____ _____    ______ ____

>  <TORSDO>
F 3

$$$$
=
 OpenBabel11052413423D

 27 30  0  0  1  0  0  0  0  0999 V2000
  181.8780  178.5690  140.2230 C   0  0  1  0  0  3  0  0  0  0  0  0
  182.7270  178.6190  141.4670 C   0  0  0  0  0  0  0  0  0  0  0  0
  185.0720  178.8160  145.0760 C   0  0  0  0  0  2  0  0  0  0  0  0
  186.7610  177.3810  146.2280 O   0  0  0  0  0  1  0  0  0  0  0  0
  182.1320  178.9910  142.6790 C   0  0  0  0  0  3  0  0  0  0  0  0
  186.3250  178.0560  142.5620 C   0  0  0  0  0  2  0  0  0  0  0  0
  186.8150  177.5210  143.8790 C   0  0  0  0  0  3  0  0  0  0  0  0
  184.0940  178.3030  141.4370 C   0  0  0  0  0  3  0  0  0  0  0  0
  186.2490  177.8770  145.0380 C   0  0  0  0  0  0  0  0  0  0  0  0
  184.2500  178.7260  143.8210 C   0  0  0  0  0  0  0  0  0  0  0  0
  184.8540  178.3500  142.6070 C   0  0  0  0  0  0  0  0  0  0  0  0
  182.8910  179.0490  143.8520 C   0  0  0  0  0  3  0  0  0  0  0  0
  182.4950  179.1510  138.9180 C   0  0  2  0  0  0  0  0  0  0  0  0
  183.7070  177.2720  138.1040 O   0  0  0  0  0  0  0  0  0  0  0  0
  181.2430  176.7920  136.6120 O   0  0  0  0  0  1  0  0  0  0  0  0
  181.2240  179.1510  136.2030 C   0  0  0  0  0  2  0  0  0  0  0  0
  183.7920  179.8720  139.2610 C   0  0  0  0  0  1  0  0  0  0  0  0
  182.0530  177.9280  136.5810 C   0  0  1  0  0  3  0  0  0  0  0  0
  180.5110  179.7190  137.4130 C   0  0  0  0  0  2  0  0  0  0  0  0
  181.5650  180.2470  138.3720 C   0  0  0  0  0  2  0  0  0  0  0  0
  182.8060  178.0680  137.8840 C   0  0  0  0  0  0  0  0  0  0  0  0
  179.5670  174.9550  139.8280 C   0  0  0  0  0  3  0  0  0  0  0  0
  181.0880  177.2950  140.0850 C   0  0  0  0  0  0  0  0  0  0  0  0
  181.7220  176.0490  139.9770 C   0  0  0  0  0  3  0  0  0  0  0  0
  180.9640  174.8820  139.8490 C   0  0  0  0  0  3  0  0  0  0  0  0
  178.9310  176.1950  139.9390 C   0  0  0  0  0  3  0  0  0  0  0  0
  179.6910  177.3620  140.0680 C   0  0  0  0  0  3  0  0  0  0  0  0
  1 23  1  6  0  0  0
  1  2  1  0  0  0  0
  2  5  1  0  0  0  0
  5 12  2  0  0  0  0
  6 11  1  0  0  0  0
  6  7  1  0  0  0  0
  7  9  2  0  0  0  0
  8  2  2  0  0  0  0
  8 11  1  0  0  0  0
  9  3  1  0  0  0  0
  9  4  1  0  0  0  0
 10 12  1  0  0  0  0
 10  3  1  0  0  0  0
 11 10  2  0  0  0  0
 13 17  1  1  0  0  0
 13  1  1  0  0  0  0
 16 18  1  0  0  0  0
 16 19  1  0  0  0  0
 18 15  1  1  0  0  0
 18 21  1  0  0  0  0
 19 20  1  0  0  0  0
 20 13  1  0  0  0  0
 21 14  2  0  0  0  0
 21 13  1  0  0  0  0
 22 25  2  0  0  0  0
 22 26  1  0  0  0  0
 24 23  2  0  0  0  0
 25 24  1  0  0  0  0
 26 27  2  0  0  0  0
 27 23  1  0  0  0  0
M  END
>  <MODEL>
4

>  <REMARK>
 VINA RESULT:      -9.2      4.228      8.426
  Name = 
  3 active torsions:
  status: ('A' for Active; 'I' for Inactive)
    1  A    between atoms: C_1  and  C_15
    2  A    between atoms: C_2  and  C_15
    3  A    between atoms: C_9  and  C_15
                            x       y       z     vdW  Elec       q    Type
                         _______ _______ _______ _____ _____    ______ ____

>  <TORSDO>
F 3

$$$$
=
 OpenBabel11052413423D

 27 30  0  0  1  0  0  0  0  0999 V2000
  182.9920  179.1200  139.0550 C   0  0  1  0  0  3  0  0  0  0  0  0
  183.6680  178.9370  140.3900 C   0  0  0  0  0  0  0  0  0  0  0  0
  185.6950  178.3940  144.1520 C   0  0  0  0  0  2  0  0  0  0  0  0
  185.5770  179.3860  146.4420 O   0  0  0  0  0  1  0  0  0  0  0  0
  185.0640  178.8530  140.4360 C   0  0  0  0  0  3  0  0  0  0  0  0
  182.7910  178.5510  144.0700 C   0  0  0  0  0  2  0  0  0  0  0  0
  183.5710  179.0360  145.2600 C   0  0  0  0  0  3  0  0  0  0  0  0
  182.9300  178.8500  141.5810 C   0  0  0  0  0  3  0  0  0  0  0  0
  184.9060  178.9550  145.3060 C   0  0  0  0  0  0  0  0  0  0  0  0
  184.9890  178.6050  142.8430 C   0  0  0  0  0  0  0  0  0  0  0  0
  183.5850  178.6910  142.8040 C   0  0  0  0  0  0  0  0  0  0  0  0
  185.7240  178.6840  141.6570 C   0  0  0  0  0  3  0  0  0  0  0  0
  182.8400  177.8570  138.1580 C   0  0  2  0  0  0  0  0  0  0  0  0
  182.7730  176.1330  139.7980 O   0  0  0  0  0  0  0  0  0  0  0  0
  179.8900  176.5280  139.5660 O   0  0  0  0  0  1  0  0  0  0  0  0
  180.2620  176.6590  137.2050 C   0  0  0  0  0  2  0  0  0  0  0  0
  184.2200  177.4030  137.7000 C   0  0  0  0  0  1  0  0  0  0  0  0
  180.7890  176.1870  138.5560 C   0  0  1  0  0  3  0  0  0  0  0  0
  180.5930  178.1200  136.9740 C   0  0  0  0  0  2  0  0  0  0  0  0
  182.1030  178.2470  136.8660 C   0  0  0  0  0  2  0  0  0  0  0  0
  182.1720  176.6940  138.8940 C   0  0  0  0  0  0  0  0  0  0  0  0
  179.6610  181.8490  139.1390 C   0  0  0  0  0  3  0  0  0  0  0  0
  181.8180  180.0600  139.0990 C   0  0  0  0  0  0  0  0  0  0  0  0
  180.6820  179.7790  139.8710 C   0  0  0  0  0  3  0  0  0  0  0  0
  179.6060  180.6710  139.8910 C   0  0  0  0  0  3  0  0  0  0  0  0
  180.7920  182.1350  138.3700 C   0  0  0  0  0  3  0  0  0  0  0  0
  181.8690  181.2430  138.3510 C   0  0  0  0  0  3  0  0  0  0  0  0
  1 23  1  1  0  0  0
  1  2  1  0  0  0  0
  2  5  2  0  0  0  0
  2  8  1  0  0  0  0
  3  9  1  0  0  0  0
  5 12  1  0  0  0  0
  6  7  1  0  0  0  0
  7  9  2  0  0  0  0
  8 11  2  0  0  0  0
  9  4  1  0  0  0  0
 10  3  1  0  0  0  0
 11 10  1  0  0  0  0
 11  6  1  0  0  0  0
 12 10  2  0  0  0  0
 13 17  1  6  0  0  0
 13 21  1  0  0  0  0
 13  1  1  0  0  0  0
 16 18  1  0  0  0  0
 18 21  1  0  0  0  0
 18 15  1  1  0  0  0
 19 16  1  0  0  0  0
 20 19  1  0  0  0  0
 20 13  1  0  0  0  0
 21 14  2  0  0  0  0
 22 25  1  0  0  0  0
 23 24  1  0  0  0  0
 24 25  2  0  0  0  0
 26 22  2  0  0  0  0
 27 26  1  0  0  0  0
 27 23  2  0  0  0  0
M  END
>  <MODEL>
5

>  <REMARK>
 VINA RESULT:      -8.9      4.445      8.779
  Name = 
  3 active torsions:
  status: ('A' for Active; 'I' for Inactive)
    1  A    between atoms: C_1  and  C_15
    2  A    between atoms: C_2  and  C_15
    3  A    between atoms: C_9  and  C_15
                            x       y       z     vdW  Elec       q    Type
                         _______ _______ _______ _____ _____    ______ ____

>  <TORSDO>
F 3

$$$$
=
 OpenBabel11052413423D

 27 30  0  0  1  0  0  0  0  0999 V2000
  182.0500  179.1920  138.9890 C   0  0  1  0  0  3  0  0  0  0  0  0
  182.8970  179.0020  140.2210 C   0  0  0  0  0  0  0  0  0  0  0  0
  185.4080  178.4430  143.6770 C   0  0  0  0  0  2  0  0  0  0  0  0
  185.5610  179.3860  145.9850 O   0  0  0  0  0  1  0  0  0  0  0  0
  184.2890  178.9570  140.0850 C   0  0  0  0  0  3  0  0  0  0  0  0
  182.5140  178.5190  143.9730 C   0  0  0  0  0  2  0  0  0  0  0  0
  183.4300  179.0030  145.0640 C   0  0  0  0  0  3  0  0  0  0  0  0
  182.3230  178.8710  141.4950 C   0  0  0  0  0  3  0  0  0  0  0  0
  184.7610  178.9580  144.9350 C   0  0  0  0  0  0  0  0  0  0  0  0
  184.5320  178.6600  142.4750 C   0  0  0  0  0  0  0  0  0  0  0  0
  183.1340  178.7060  142.6190 C   0  0  0  0  0  0  0  0  0  0  0  0
  185.1060  178.7830  141.2060 C   0  0  0  0  0  3  0  0  0  0  0  0
  181.5240  177.9070  138.2860 C   0  0  2  0  0  0  0  0  0  0  0  0
  182.3540  178.2190  136.0770 O   0  0  0  0  0  0  0  0  0  0  0  0
  184.5890  176.6360  137.0870 O   0  0  0  0  0  1  0  0  0  0  0  0
  182.9310  175.2640  138.1360 C   0  0  0  0  0  2  0  0  0  0  0  0
  180.0960  178.1490  137.8110 C   0  0  0  0  0  1  0  0  0  0  0  0
  183.2420  176.2780  137.0410 C   0  0  1  0  0  3  0  0  0  0  0  0
  182.6800  175.9560  139.4610 C   0  0  0  0  0  2  0  0  0  0  0  0
  181.4100  176.7790  139.3240 C   0  0  0  0  0  2  0  0  0  0  0  0
  182.3720  177.5140  137.0750 C   0  0  0  0  0  0  0  0  0  0  0  0
  179.3250  182.5190  139.2310 C   0  0  0  0  0  3  0  0  0  0  0  0
  181.0890  180.3460  139.0910 C   0  0  0  0  0  0  0  0  0  0  0  0
  180.1120  180.3980  140.0960 C   0  0  0  0  0  3  0  0  0  0  0  0
  179.2320  181.4820  140.1650 C   0  0  0  0  0  3  0  0  0  0  0  0
  180.2990  182.4720  138.2300 C   0  0  0  0  0  3  0  0  0  0  0  0
  181.1800  181.3880  138.1620 C   0  0  0  0  0  3  0  0  0  0  0  0
  1 23  1  1  0  0  0
  1  2  1  0  0  0  0
  2  8  1  0  0  0  0
  3  9  1  0  0  0  0
  5  2  2  0  0  0  0
  5 12  1  0  0  0  0
  6  7  1  0  0  0  0
  8 11  2  0  0  0  0
  9  7  2  0  0  0  0
  9  4  1  0  0  0  0
 10 11  1  0  0  0  0
 10  3  1  0  0  0  0
 11  6  1  0  0  0  0
 12 10  2  0  0  0  0
 13 17  1  6  0  0  0
 13  1  1  0  0  0  0
 13 20  1  0  0  0  0
 14 21  2  0  0  0  0
 16 19  1  0  0  0  0
 18 21  1  0  0  0  0
 18 15  1  1  0  0  0
 18 16  1  0  0  0  0
 20 19  1  0  0  0  0
 21 13  1  0  0  0  0
 22 25  1  0  0  0  0
 23 24  1  0  0  0  0
 24 25  2  0  0  0  0
 26 22  2  0  0  0  0
 27 26  1  0  0  0  0
 27 23  2  0  0  0  0
M  END
>  <MODEL>
6

>  <REMARK>
 VINA RESULT:      -8.8      4.642      8.950
  Name = 
  3 active torsions:
  status: ('A' for Active; 'I' for Inactive)
    1  A    between atoms: C_1  and  C_15
    2  A    between atoms: C_2  and  C_15
    3  A    between atoms: C_9  and  C_15
                            x       y       z     vdW  Elec       q    Type
                         _______ _______ _______ _____ _____    ______ ____

>  <TORSDO>
F 3

$$$$
=
 OpenBabel11052413423D

 27 30  0  0  1  0  0  0  0  0999 V2000
  189.1440  176.7680  138.4170 C   0  0  1  0  0  3  0  0  0  0  0  0
  189.2870  177.1730  139.8620 C   0  0  0  0  0  0  0  0  0  0  0  0
  189.6070  178.4020  143.9780 C   0  0  0  0  0  2  0  0  0  0  0  0
  190.2260  177.3360  146.1510 O   0  0  0  0  0  1  0  0  0  0  0  0
  188.2700  177.9290  140.4560 C   0  0  0  0  0  3  0  0  0  0  0  0
  191.7360  176.8430  142.7510 C   0  0  0  0  0  2  0  0  0  0  0  0
  191.4230  176.7300  144.2180 C   0  0  0  0  0  3  0  0  0  0  0  0
  190.4110  176.8110  140.6190 C   0  0  0  0  0  3  0  0  0  0  0  0
  190.4520  177.4540  144.7870 C   0  0  0  0  0  0  0  0  0  0  0  0
  189.4860  177.9540  142.5490 C   0  0  0  0  0  0  0  0  0  0  0  0
  190.5110  177.1930  141.9580 C   0  0  0  0  0  0  0  0  0  0  0  0
  188.3690  178.3230  141.7940 C   0  0  0  0  0  3  0  0  0  0  0  0
  188.4750  177.7920  137.4550 C   0  0  2  0  0  0  0  0  0  0  0  0
  189.6280  177.3370  135.4240 O   0  0  0  0  0  0  0  0  0  0  0  0
  187.3570  175.5630  134.9590 O   0  0  0  0  0  1  0  0  0  0  0  0
  186.0020  177.3380  135.8220 C   0  0  0  0  0  2  0  0  0  0  0  0
  189.1830  179.1340  137.5880 C   0  0  0  0  0  1  0  0  0  0  0  0
  187.3330  176.9380  135.1930 C   0  0  1  0  0  3  0  0  0  0  0  0
  186.0190  177.1060  137.3190 C   0  0  0  0  0  2  0  0  0  0  0  0
  187.0360  178.0560  137.9290 C   0  0  0  0  0  2  0  0  0  0  0  0
  188.5460  177.3540  135.9920 C   0  0  0  0  0  0  0  0  0  0  0  0
  192.5160  174.5780  136.8720 C   0  0  0  0  0  3  0  0  0  0  0  0
  190.3350  176.0190  137.8820 C   0  0  0  0  0  0  0  0  0  0  0  0
  191.6080  176.6040  137.8380 C   0  0  0  0  0  3  0  0  0  0  0  0
  192.6960  175.8850  137.3340 C   0  0  0  0  0  3  0  0  0  0  0  0
  191.2480  173.9890  136.9170 C   0  0  0  0  0  3  0  0  0  0  0  0
  190.1610  174.7090  137.4210 C   0  0  0  0  0  3  0  0  0  0  0  0
  1 23  1  6  0  0  0
  1  2  1  0  0  0  0
  2  5  2  0  0  0  0
  2  8  1  0  0  0  0
  3  9  1  0  0  0  0
  5 12  1  0  0  0  0
  6  7  1  0  0  0  0
  7  9  2  0  0  0  0
  8 11  2  0  0  0  0
  9  4  1  0  0  0  0
 10  3  1  0  0  0  0
 11 10  1  0  0  0  0
 11  6  1  0  0  0  0
 12 10  2  0  0  0  0
 13 17  1  1  0  0  0
 13 20  1  0  0  0  0
 13  1  1  0  0  0  0
 14 21  2  0  0  0  0
 16 19  1  0  0  0  0
 18 15  1  1  0  0  0
 18 16  1  0  0  0  0
 18 21  1  0  0  0  0
 19 20  1  0  0  0  0
 21 13  1  0  0  0  0
 22 26  2  0  0  0  0
 22 25  1  0  0  0  0
 24 23  1  0  0  0  0
 25 24  2  0  0  0  0
 26 27  1  0  0  0  0
 27 23  2  0  0  0  0
M  END
>  <MODEL>
7

>  <REMARK>
 VINA RESULT:      -8.7      3.455      6.953
  Name = 
  3 active torsions:
  status: ('A' for Active; 'I' for Inactive)
    1  A    between atoms: C_1  and  C_15
    2  A    between atoms: C_2  and  C_15
    3  A    between atoms: C_9  and  C_15
                            x       y       z     vdW  Elec       q    Type
                         _______ _______ _______ _____ _____    ______ ____

>  <TORSDO>
F 3

$$$$
=
 OpenBabel11052413423D

 27 30  0  0  1  0  0  0  0  0999 V2000
  180.8630  178.2350  140.3020 C   0  0  1  0  0  3  0  0  0  0  0  0
  181.6670  178.4270  141.5620 C   0  0  0  0  0  0  0  0  0  0  0  0
  183.8690  179.0030  145.2190 C   0  0  0  0  0  2  0  0  0  0  0  0
  185.8580  177.9730  146.3260 O   0  0  0  0  0  1  0  0  0  0  0  0
  180.9920  178.5710  142.7800 C   0  0  0  0  0  3  0  0  0  0  0  0
  185.2850  178.7200  142.6930 C   0  0  0  0  0  2  0  0  0  0  0  0
  185.8870  178.2520  143.9890 C   0  0  0  0  0  3  0  0  0  0  0  0
  183.0690  178.4650  141.5410 C   0  0  0  0  0  3  0  0  0  0  0  0
  185.2440  178.3910  145.1540 C   0  0  0  0  0  0  0  0  0  0  0  0
  183.1030  178.7800  143.9470 C   0  0  0  0  0  0  0  0  0  0  0  0
  183.7870  178.6340  142.7260 C   0  0  0  0  0  0  0  0  0  0  0  0
  181.7060  178.7520  143.9690 C   0  0  0  0  0  3  0  0  0  0  0  0
  180.4860  179.5140  139.4990 C   0  0  2  0  0  0  0  0  0  0  0  0
  182.6210  180.2040  138.7040 O   0  0  0  0  0  0  0  0  0  0  0  0
  181.8540  178.6270  136.3690 O   0  0  0  0  0  1  0  0  0  0  0  0
  179.6910  179.6230  136.6100 C   0  0  0  0  0  2  0  0  0  0  0  0
  180.4290  180.7010  140.4520 C   0  0  0  0  0  1  0  0  0  0  0  0
  181.1800  179.7160  136.9230 C   0  0  1  0  0  3  0  0  0  0  0  0
  178.9850  178.7140  137.5950 C   0  0  0  0  0  2  0  0  0  0  0  0
  179.0520  179.3650  138.9650 C   0  0  0  0  0  2  0  0  0  0  0  0
  181.4980  179.8320  138.3960 C   0  0  0  0  0  0  0  0  0  0  0  0
  182.1220  174.8160  138.0050 C   0  0  0  0  0  3  0  0  0  0  0  0
  181.2820  177.0340  139.4980 C   0  0  0  0  0  0  0  0  0  0  0  0
  180.3490  176.0840  139.0600 C   0  0  0  0  0  3  0  0  0  0  0  0
  180.7680  174.9770  138.3160 C   0  0  0  0  0  3  0  0  0  0  0  0
  183.0560  175.7620  138.4370 C   0  0  0  0  0  3  0  0  0  0  0  0
  182.6360  176.8690  139.1810 C   0  0  0  0  0  3  0  0  0  0  0  0
  1 23  1  6  0  0  0
  1  2  1  0  0  0  0
  2  5  1  0  0  0  0
  5 12  2  0  0  0  0
  6 11  1  0  0  0  0
  6  7  1  0  0  0  0
  7  9  2  0  0  0  0
  8  2  2  0  0  0  0
  8 11  1  0  0  0  0
  9  3  1  0  0  0  0
  9  4  1  0  0  0  0
 10 12  1  0  0  0  0
 10  3  1  0  0  0  0
 11 10  2  0  0  0  0
 13  1  1  0  0  0  0
 13 17  1  1  0  0  0
 16 18  1  0  0  0  0
 16 19  1  0  0  0  0
 18 15  1  1  0  0  0
 18 21  1  0  0  0  0
 19 20  1  0  0  0  0
 20 13  1  0  0  0  0
 21 14  2  0  0  0  0
 21 13  1  0  0  0  0
 22 25  2  0  0  0  0
 22 26  1  0  0  0  0
 24 23  2  0  0  0  0
 25 24  1  0  0  0  0
 26 27  2  0  0  0  0
 27 23  1  0  0  0  0
M  END
>  <MODEL>
8

>  <REMARK>
 VINA RESULT:      -8.6      4.469      8.852
  Name = 
  3 active torsions:
  status: ('A' for Active; 'I' for Inactive)
    1  A    between atoms: C_1  and  C_15
    2  A    between atoms: C_2  and  C_15
    3  A    between atoms: C_9  and  C_15
                            x       y       z     vdW  Elec       q    Type
                         _______ _______ _______ _____ _____    ______ ____

>  <TORSDO>
F 3

$$$$
=
 OpenBabel11052413423D

 27 30  0  0  1  0  0  0  0  0999 V2000
  188.3830  177.1240  144.0760 C   0  0  1  0  0  3  0  0  0  0  0  0
  188.2990  177.4500  142.6070 C   0  0  0  0  0  0  0  0  0  0  0  0
  187.9690  178.4440  138.4290 C   0  0  0  0  0  2  0  0  0  0  0  0
  189.5360  178.8560  136.5280 O   0  0  0  0  0  1  0  0  0  0  0  0
  187.4320  178.4650  142.1880 C   0  0  0  0  0  3  0  0  0  0  0  0
  189.7640  176.3210  139.2850 C   0  0  0  0  0  2  0  0  0  0  0  0
  190.0610  177.1620  138.0740 C   0  0  0  0  0  3  0  0  0  0  0  0
  189.0670  176.7600  141.6570 C   0  0  0  0  0  3  0  0  0  0  0  0
  189.2320  178.1310  137.6710 C   0  0  0  0  0  0  0  0  0  0  0  0
  188.1010  178.1120  139.8880 C   0  0  0  0  0  0  0  0  0  0  0  0
  188.9750  177.0910  140.3030 C   0  0  0  0  0  0  0  0  0  0  0  0
  187.3290  178.7930  140.8330 C   0  0  0  0  0  3  0  0  0  0  0  0
  189.7770  177.2600  144.7550 C   0  0  2  0  0  0  0  0  0  0  0  0
  190.9310  175.4040  143.8110 O   0  0  0  0  0  0  0  0  0  0  0  0
  191.7910  177.3990  141.8600 O   0  0  0  0  0  1  0  0  0  0  0  0
  192.0980  178.8590  143.7320 C   0  0  0  0  0  2  0  0  0  0  0  0
  189.7370  176.5760  146.1150 C   0  0  0  0  0  1  0  0  0  0  0  0
  191.9780  177.4200  143.2430 C   0  0  1  0  0  3  0  0  0  0  0  0
  190.7300  179.4810  143.9300 C   0  0  0  0  0  2  0  0  0  0  0  0
  190.0400  178.7430  145.0640 C   0  0  0  0  0  2  0  0  0  0  0  0
  190.8950  176.6200  143.9290 C   0  0  0  0  0  0  0  0  0  0  0  0
  184.9580  178.5070  146.2930 C   0  0  0  0  0  3  0  0  0  0  0  0
  187.1980  177.6080  144.8690 C   0  0  0  0  0  0  0  0  0  0  0  0
  187.2850  177.8390  146.2490 C   0  0  0  0  0  3  0  0  0  0  0  0
  186.1680  178.2870  146.9590 C   0  0  0  0  0  3  0  0  0  0  0  0
  184.8680  178.2800  144.9160 C   0  0  0  0  0  3  0  0  0  0  0  0
  185.9860  177.8330  144.2060 C   0  0  0  0  0  3  0  0  0  0  0  0
  1  2  1  6  0  0  0
  1 13  1  0  0  0  0
  1 23  1  0  0  0  0
  3 10  1  0  0  0  0
  4  9  1  0  0  0  0
  5  2  1  0  0  0  0
  6 11  1  0  0  0  0
  7  6  1  0  0  0  0
  8  2  2  0  0  0  0
  9  7  2  0  0  0  0
  9  3  1  0  0  0  0
 10 11  2  0  0  0  0
 10 12  1  0  0  0  0
 11  8  1  0  0  0  0
 12  5  2  0  0  0  0
 13 20  1  0  0  0  0
 13 17  1  1  0  0  0
 14 21  2  0  0  0  0
 16 19  1  0  0  0  0
 18 15  1  6  0  0  0
 18 16  1  0  0  0  0
 18 21  1  0  0  0  0
 19 20  1  0  0  0  0
 21 13  1  0  0  0  0
 22 25  1  0  0  0  0
 23 24  1  0  0  0  0
 24 25  2  0  0  0  0
 26 22  2  0  0  0  0
 27 23  2  0  0  0  0
 27 26  1  0  0  0  0
M  END
>  <MODEL>
9

>  <REMARK>
 VINA RESULT:      -8.6      2.502      5.114
  Name = 
  3 active torsions:
  status: ('A' for Active; 'I' for Inactive)
    1  A    between atoms: C_1  and  C_15
    2  A    between atoms: C_2  and  C_15
    3  A    between atoms: C_9  and  C_15
                            x       y       z     vdW  Elec       q    Type
                         _______ _______ _______ _____ _____    ______ ____

>  <TORSDO>
F 3

$$$$
