=
 OpenBabel11052414523D

 55 60  0  0  1  0  0  0  0  0999 V2000
  184.5360  177.8640  139.6760 C   0  0  0  0  0  2  0  0  0  0  0  0
  185.7120  177.2210  135.2580 O   0  0  0  0  0  1  0  0  0  0  0  0
  185.0720  173.6350  136.0370 C   0  0  0  0  0  2  0  0  0  0  0  0
  182.3300  173.3710  135.1330 C   0  0  0  0  0  3  0  0  0  0  0  0
  181.0420  173.3390  134.6010 C   0  0  0  0  0  3  0  0  0  0  0  0
  181.5040  174.5440  137.0970 C   0  0  0  0  0  0  0  0  0  0  0  0
  180.2130  174.4800  136.5570 C   0  0  0  0  0  3  0  0  0  0  0  0
  184.1950  173.8110  138.3430 C   0  0  0  0  0  1  0  0  0  0  0  0
  179.9810  173.8850  135.3180 C   0  0  0  0  0  3  0  0  0  0  0  0
  186.6180  178.4590  140.9230 C   0  0  0  0  0  3  0  0  0  0  0  0
  182.5880  173.9530  136.3880 C   0  0  0  0  0  0  0  0  0  0  0  0
  188.1240  178.4870  138.5620 C   0  0  0  0  0  0  0  0  0  0  0  0
  183.8320  178.3180  138.4040 C   0  0  0  0  0  2  0  0  0  0  0  0
  186.7460  178.2600  138.5180 C   0  0  0  0  0  3  0  0  0  0  0  0
  181.8550  176.7540  138.3630 C   0  0  1  0  0  3  0  0  0  0  0  0
  187.0690  175.8760  136.7530 C   0  0  0  0  0  2  0  0  0  0  0  0
  181.6620  175.2270  138.4260 C   0  0  0  0  0  2  0  0  0  0  0  0
  185.7370  176.0530  136.0240 C   0  0  2  0  0  3  0  0  0  0  0  0
  185.3900  174.8490  135.1680 C   0  0  0  0  0  2  0  0  0  0  0  0
  187.9960  178.7000  140.9720 C   0  0  0  0  0  3  0  0  0  0  0  0
  188.2650  176.4260  135.9730 C   0  0  1  0  0  3  0  0  0  0  0  0
  185.9840  178.2480  139.6940 C   0  0  0  0  0  0  0  0  0  0  0  0
  183.9320  173.8970  136.9150 N   0  0  0  0  0  0  0  0  0  0  0  0
  183.1830  177.1320  137.7070 C   0  0  0  0  0  2  0  0  0  0  0  0
  189.3140  177.0400  136.9010 C   0  0  0  0  0  2  0  0  0  0  0  0
  188.9290  178.4630  137.3020 C   0  0  0  0  0  2  0  0  0  0  0  0
  188.7480  178.7090  139.7920 C   0  0  0  0  0  3  0  0  0  0  0  0
  180.8430  181.2450  138.6380 C   0  0  0  0  0  0  0  0  0  0  0  0
  180.8780  178.1830  136.4800 C   0  0  0  0  0  2  0  0  0  0  0  0
  181.3180  182.3490  137.8770 N   0  0  0  0  0  1  0  0  0  0  0  0
  180.7610  179.9410  138.0510 N   0  0  0  0  0  0  0  0  0  0  0  0
  179.3730  176.7360  137.8440 C   0  0  0  0  0  1  0  0  0  0  0  0
  180.3890  178.7570  138.7980 C   0  0  0  0  0  2  0  0  0  0  0  0
  180.4960  181.4240  139.8330 O   0  0  0  0  0  0  0  0  0  0  0  0
  181.1310  179.6670  136.6810 C   0  0  0  0  0  2  0  0  0  0  0  0
  180.6370  177.5810  137.8670 C   0  0  1  0  0  0  0  0  0  0  0  0
  188.8410  175.4200  135.0790 N   0  0  0  0  0  2  0  0  0  0  0  0
  189.4390  174.3280  135.8440 C   0  0  0  0  0  2  0  0  0  0  0  0
  194.4000  174.1120  137.9500 C   0  0  0  0  0  1  0  0  0  0  0  0
  193.3910  175.5830  134.5940 C   0  0  0  0  0  2  0  0  0  0  0  0
  194.4280  175.2340  135.6380 C   0  0  2  0  0  0  0  0  0  0  0  0
  191.4620  174.5770  137.2660 C   0  0  0  0  0  2  0  0  0  0  0  0
  193.0710  173.1180  135.3370 C   0  0  1  0  0  3  0  0  0  0  0  0
  193.9570  174.1640  134.6460 C   0  0  1  0  0  3  0  0  0  0  0  0
  190.9490  174.4590  135.8350 C   0  0  1  0  0  3  0  0  0  0  0  0
  192.3540  176.3840  138.7200 C   0  0  0  0  0  1  0  0  0  0  0  0
  191.5690  173.2720  135.0920 C   0  0  0  0  0  2  0  0  0  0  0  0
  193.9330  175.2950  137.1070 C   0  0  1  0  0  3  0  0  0  0  0  0
  192.4720  175.7180  137.3630 C   0  0  1  0  0  3  0  0  0  0  0  0
  195.7790  175.8630  135.3190 C   0  0  0  0  0  2  0  0  0  0  0  0
  197.6400  175.6280  136.8740 N   0  0  0  0  0  1  0  0  0  0  0  0
  196.9330  174.9900  135.7780 C   0  0  0  0  0  2  0  0  0  0  0  0
  193.5240  171.7310  134.9170 C   0  0  0  0  0  2  0  0  0  0  0  0
  194.2010  169.8360  135.8210 C   0  0  0  0  0  1  0  0  0  0  0  0
  194.4150  171.2130  135.8590 O   0  0  0  0  0  0  0  0  0  0  0  0
  1 22  1  0  0  0  0
  3 23  1  0  0  0  0
  4 11  1  0  0  0  0
  5  4  2  0  0  0  0
  5  9  1  0  0  0  0
  6 17  1  0  0  0  0
  7  6  1  0  0  0  0
  9  7  2  0  0  0  0
 10 20  1  0  0  0  0
 11 23  1  0  0  0  0
 11  6  2  0  0  0  0
 12 27  1  0  0  0  0
 13  1  1  0  0  0  0
 14 12  2  0  0  0  0
 14 22  1  0  0  0  0
 15 24  1  6  0  0  0
 15 17  1  0  0  0  0
 18  2  1  6  0  0  0
 18 16  1  0  0  0  0
 19 18  1  0  0  0  0
 19  3  1  0  0  0  0
 21 37  1  1  0  0  0
 21 16  1  0  0  0  0
 21 25  1  0  0  0  0
 22 10  2  0  0  0  0
 23  8  1  0  0  0  0
 24 13  1  0  0  0  0
 25 26  1  0  0  0  0
 26 12  1  0  0  0  0
 27 20  2  0  0  0  0
 28 34  2  0  0  0  0
 29 35  1  0  0  0  0
 29 36  1  0  0  0  0
 30 28  1  0  0  0  0
 31 28  1  0  0  0  0
 31 33  1  0  0  0  0
 35 31  1  0  0  0  0
 36 32  1  6  0  0  0
 36 15  1  0  0  0  0
 36 33  1  0  0  0  0
 37 38  1  0  0  0  0
 40 41  1  0  0  0  0
 41 50  1  6  0  0  0
 41 48  1  0  0  0  0
 42 49  1  0  0  0  0
 43 53  1  6  0  0  0
 44 40  1  6  0  0  0
 44 43  1  0  0  0  0
 44 41  1  0  0  0  0
 45 38  1  1  0  0  0
 45 42  1  0  0  0  0
 47 43  1  0  0  0  0
 47 45  1  0  0  0  0
 48 49  1  0  0  0  0
 48 39  1  6  0  0  0
 49 46  1  1  0  0  0
 50 52  1  0  0  0  0
 52 51  1  0  0  0  0
 53 55  1  0  0  0  0
 54 55  1  0  0  0  0
M  END
>  <MODEL>
1

>  <REMARK>
 VINA RESULT:      -5.7      0.000      0.000
  Name = 
  8 active torsions:
  status: ('A' for Active; 'I' for Inactive)
    1  A    between atoms: C_6  and  C_25
    2  A    between atoms: C_8  and  C_20
    3  A    between atoms: C_8  and  N_22
    4  A    between atoms: C_12  and  C_30
    5  A    between atoms: N_22  and  C_43
    6  A    between atoms: C_25  and  C_38
    7  A    between atoms: C_30  and  O_50
    8  A    between atoms: C_33  and  C_52
                            x       y       z     vdW  Elec       q    Type
                         _______ _______ _______ _____ _____    ______ ____

>  <TORSDO>
F 8

$$$$
=
 OpenBabel11052414523D

 55 60  0  0  1  0  0  0  0  0999 V2000
  183.8600  178.0360  141.7150 C   0  0  0  0  0  2  0  0  0  0  0  0
  185.4800  179.1730  137.5430 O   0  0  0  0  0  1  0  0  0  0  0  0
  184.3510  175.7440  136.6240 C   0  0  0  0  0  2  0  0  0  0  0  0
  181.7260  176.3170  135.5360 C   0  0  0  0  0  3  0  0  0  0  0  0
  180.5160  176.7140  134.9690 C   0  0  0  0  0  3  0  0  0  0  0  0
  180.8060  176.6490  137.7630 C   0  0  0  0  0  0  0  0  0  0  0  0
  179.5900  177.0220  137.1750 C   0  0  0  0  0  3  0  0  0  0  0  0
  183.2270  175.0500  138.7150 C   0  0  0  0  0  1  0  0  0  0  0  0
  179.4440  177.0570  135.7880 C   0  0  0  0  0  3  0  0  0  0  0  0
  185.8300  177.7140  143.2170 C   0  0  0  0  0  3  0  0  0  0  0  0
  181.8940  176.2590  136.9320 C   0  0  0  0  0  0  0  0  0  0  0  0
  187.6020  178.5170  141.2030 C   0  0  0  0  0  0  0  0  0  0  0  0
  183.3700  179.0940  140.7340 C   0  0  0  0  0  2  0  0  0  0  0  0
  186.2230  178.5450  140.9830 C   0  0  0  0  0  3  0  0  0  0  0  0
  181.2490  178.0220  139.8910 C   0  0  1  0  0  3  0  0  0  0  0  0
  186.4860  177.1270  138.3710 C   0  0  0  0  0  2  0  0  0  0  0  0
  180.8790  176.6640  139.2640 C   0  0  0  0  0  2  0  0  0  0  0  0
  185.2800  177.8010  137.7170 C   0  0  2  0  0  3  0  0  0  0  0  0
  184.9050  177.1480  136.3990 C   0  0  0  0  0  2  0  0  0  0  0  0
  187.2110  177.6950  143.4480 C   0  0  0  0  0  3  0  0  0  0  0  0
  187.8220  177.7660  137.9850 C   0  0  1  0  0  3  0  0  0  0  0  0
  185.3280  178.1480  141.9860 C   0  0  0  0  0  0  0  0  0  0  0  0
  183.1500  175.7770  137.4590 N   0  0  0  0  0  0  0  0  0  0  0  0
  182.6800  178.4350  139.5480 C   0  0  0  0  0  2  0  0  0  0  0  0
  188.8140  177.7540  139.1480 C   0  0  0  0  0  2  0  0  0  0  0  0
  188.5460  178.9100  140.1120 C   0  0  0  0  0  2  0  0  0  0  0  0
  188.0950  178.0920  142.4400 C   0  0  0  0  0  3  0  0  0  0  0  0
  181.3550  182.0530  137.6530 C   0  0  0  0  0  0  0  0  0  0  0  0
  179.3550  178.9930  138.4720 C   0  0  0  0  0  2  0  0  0  0  0  0
  181.1980  182.3470  136.2700 N   0  0  0  0  0  1  0  0  0  0  0  0
  180.6980  180.9190  138.2310 N   0  0  0  0  0  0  0  0  0  0  0  0
  179.2890  179.2320  140.9540 C   0  0  0  0  0  1  0  0  0  0  0  0
  180.9000  180.5020  139.6040 C   0  0  0  0  0  2  0  0  0  0  0  0
  182.0780  182.7970  138.3630 O   0  0  0  0  0  0  0  0  0  0  0  0
  179.8430  180.0310  137.4770 C   0  0  0  0  0  2  0  0  0  0  0  0
  180.2000  179.1580  139.7390 C   0  0  1  0  0  0  0  0  0  0  0  0
  188.3850  177.1630  136.7750 N   0  0  0  0  0  2  0  0  0  0  0  0
  188.7170  175.7590  137.0010 C   0  0  0  0  0  2  0  0  0  0  0  0
  193.8090  174.1020  137.6430 C   0  0  0  0  0  1  0  0  0  0  0  0
  192.3740  176.0270  134.6980 C   0  0  0  0  0  2  0  0  0  0  0  0
  193.5190  175.3440  135.4120 C   0  0  2  0  0  0  0  0  0  0  0  0
  191.0360  175.3670  137.8030 C   0  0  0  0  0  2  0  0  0  0  0  0
  191.6100  173.6840  135.5060 C   0  0  1  0  0  3  0  0  0  0  0  0
  192.5260  174.5090  134.5940 C   0  0  1  0  0  3  0  0  0  0  0  0
  190.1460  175.4910  136.5720 C   0  0  1  0  0  3  0  0  0  0  0  0
  192.7410  176.7670  138.9470 C   0  0  0  0  0  1  0  0  0  0  0  0
  190.1970  174.2420  135.6890 C   0  0  0  0  0  2  0  0  0  0  0  0
  193.4720  175.4240  136.9610 C   0  0  1  0  0  3  0  0  0  0  0  0
  192.3050  176.1950  137.6120 C   0  0  1  0  0  3  0  0  0  0  0  0
  194.8520  175.6210  134.7280 C   0  0  0  0  0  2  0  0  0  0  0  0
  196.8380  176.9010  135.3260 N   0  0  0  0  0  1  0  0  0  0  0  0
  195.4060  176.9860  135.0980 C   0  0  0  0  0  2  0  0  0  0  0  0
  191.5400  172.2610  134.9800 C   0  0  0  0  0  2  0  0  0  0  0  0
  193.1220  170.9070  135.7080 C   0  0  0  0  0  1  0  0  0  0  0  0
  192.8220  171.7980  134.6790 O   0  0  0  0  0  0  0  0  0  0  0  0
  1 22  1  0  0  0  0
  3 23  1  0  0  0  0
  4 11  1  0  0  0  0
  5  4  2  0  0  0  0
  5  9  1  0  0  0  0
  6 17  1  0  0  0  0
  7  6  1  0  0  0  0
  9  7  2  0  0  0  0
 10 20  1  0  0  0  0
 11 23  1  0  0  0  0
 11  6  2  0  0  0  0
 12 27  1  0  0  0  0
 13  1  1  0  0  0  0
 14 12  2  0  0  0  0
 14 22  1  0  0  0  0
 15 17  1  6  0  0  0
 18  2  1  6  0  0  0
 18 16  1  0  0  0  0
 19  3  1  0  0  0  0
 19 18  1  0  0  0  0
 21 37  1  6  0  0  0
 21 16  1  0  0  0  0
 21 25  1  0  0  0  0
 22 10  2  0  0  0  0
 23  8  1  0  0  0  0
 24 15  1  0  0  0  0
 24 13  1  0  0  0  0
 25 26  1  0  0  0  0
 26 12  1  0  0  0  0
 27 20  2  0  0  0  0
 28 31  1  0  0  0  0
 28 34  2  0  0  0  0
 29 36  1  0  0  0  0
 30 28  1  0  0  0  0
 31 33  1  0  0  0  0
 33 36  1  0  0  0  0
 35 31  1  0  0  0  0
 35 29  1  0  0  0  0
 36 15  1  0  0  0  0
 36 32  1  1  0  0  0
 37 38  1  0  0  0  0
 40 41  1  0  0  0  0
 41 50  1  6  0  0  0
 41 48  1  0  0  0  0
 43 53  1  6  0  0  0
 43 47  1  0  0  0  0
 44 40  1  1  0  0  0
 44 41  1  0  0  0  0
 44 43  1  0  0  0  0
 45 38  1  1  0  0  0
 45 42  1  0  0  0  0
 47 45  1  0  0  0  0
 48 49  1  0  0  0  0
 48 39  1  1  0  0  0
 49 42  1  0  0  0  0
 49 46  1  1  0  0  0
 50 52  1  0  0  0  0
 52 51  1  0  0  0  0
 55 53  1  0  0  0  0
 55 54  1  0  0  0  0
M  END
>  <MODEL>
2

>  <REMARK>
 VINA RESULT:      -5.5      1.673      2.218
  Name = 
  8 active torsions:
  status: ('A' for Active; 'I' for Inactive)
    1  A    between atoms: C_6  and  C_25
    2  A    between atoms: C_8  and  C_20
    3  A    between atoms: C_8  and  N_22
    4  A    between atoms: C_12  and  C_30
    5  A    between atoms: N_22  and  C_43
    6  A    between atoms: C_25  and  C_38
    7  A    between atoms: C_30  and  O_50
    8  A    between atoms: C_33  and  C_52
                            x       y       z     vdW  Elec       q    Type
                         _______ _______ _______ _____ _____    ______ ____

>  <TORSDO>
F 8

$$$$
=
 OpenBabel11052414523D

 55 60  0  0  1  0  0  0  0  0999 V2000
  186.6550  177.2140  141.5620 C   0  0  0  0  0  2  0  0  0  0  0  0
  188.5790  178.9140  137.7230 O   0  0  0  0  0  1  0  0  0  0  0  0
  187.1600  175.8510  136.1490 C   0  0  0  0  0  2  0  0  0  0  0  0
  184.6600  176.8890  135.1120 C   0  0  0  0  0  3  0  0  0  0  0  0
  183.5240  177.5100  134.5940 C   0  0  0  0  0  3  0  0  0  0  0  0
  183.6720  176.9050  137.3340 C   0  0  0  0  0  0  0  0  0  0  0  0
  182.5290  177.5060  136.7910 C   0  0  0  0  0  3  0  0  0  0  0  0
  185.8740  174.9100  138.0410 C   0  0  0  0  0  1  0  0  0  0  0  0
  182.4540  177.8090  135.4320 C   0  0  0  0  0  3  0  0  0  0  0  0
  188.5100  176.4150  143.0340 C   0  0  0  0  0  3  0  0  0  0  0  0
  184.7550  176.5590  136.4770 C   0  0  0  0  0  0  0  0  0  0  0  0
  190.4480  177.3790  141.2560 C   0  0  0  0  0  0  0  0  0  0  0  0
  186.3210  178.4790  140.7810 C   0  0  0  0  0  2  0  0  0  0  0  0
  189.0900  177.5930  141.0050 C   0  0  0  0  0  3  0  0  0  0  0  0
  184.1460  177.8120  139.6930 C   0  0  1  0  0  3  0  0  0  0  0  0
  189.3360  176.6550  138.1840 C   0  0  0  0  0  2  0  0  0  0  0  0
  183.6740  176.6380  138.8130 C   0  0  0  0  0  2  0  0  0  0  0  0
  188.2360  177.5620  137.6320 C   0  0  2  0  0  3  0  0  0  0  0  0
  187.8620  177.2050  136.2050 C   0  0  0  0  0  2  0  0  0  0  0  0
  189.8690  176.2070  143.2960 C   0  0  0  0  0  3  0  0  0  0  0  0
  190.7450  177.2090  137.9620 C   0  0  1  0  0  3  0  0  0  0  0  0
  188.1130  177.1170  141.8910 C   0  0  0  0  0  0  0  0  0  0  0  0
  185.9300  175.8590  136.9400 N   0  0  0  0  0  0  0  0  0  0  0  0
  185.6270  178.1250  139.4740 C   0  0  0  0  0  2  0  0  0  0  0  0
  191.6740  176.8790  139.1310 C   0  0  0  0  0  2  0  0  0  0  0  0
  191.4770  177.8620  140.2850 C   0  0  0  0  0  2  0  0  0  0  0  0
  190.8360  176.6850  142.4060 C   0  0  0  0  0  3  0  0  0  0  0  0
  179.6440  178.3150  140.5540 C   0  0  0  0  0  0  0  0  0  0  0  0
  183.0970  179.6460  141.1350 C   0  0  0  0  0  2  0  0  0  0  0  0
  178.9340  178.3280  141.7860 N   0  0  0  0  0  1  0  0  0  0  0  0
  181.0010  178.7680  140.4960 N   0  0  0  0  0  0  0  0  0  0  0  0
  183.7210  180.1350  138.7700 C   0  0  0  0  0  1  0  0  0  0  0  0
  181.8140  178.6810  139.2990 C   0  0  0  0  0  2  0  0  0  0  0  0
  179.0690  177.8990  139.5160 O   0  0  0  0  0  0  0  0  0  0  0  0
  181.7180  179.2700  141.6460 C   0  0  0  0  0  2  0  0  0  0  0  0
  183.2240  179.0610  139.7250 C   0  0  1  0  0  0  0  0  0  0  0  0
  191.3030  176.7800  136.6780 N   0  0  0  0  0  2  0  0  0  0  0  0
  191.1500  175.3390  136.5010 C   0  0  0  0  0  2  0  0  0  0  0  0
  195.3990  172.2670  137.7640 C   0  0  0  0  0  1  0  0  0  0  0  0
  195.0970  174.6810  134.8450 C   0  0  0  0  0  2  0  0  0  0  0  0
  195.8650  173.6620  135.6570 C   0  0  2  0  0  0  0  0  0  0  0  0
  193.0910  174.2580  137.6140 C   0  0  0  0  0  2  0  0  0  0  0  0
  193.5930  172.6110  135.2740 C   0  0  1  0  0  3  0  0  0  0  0  0
  194.8480  173.1910  134.6090 C   0  0  1  0  0  3  0  0  0  0  0  0
  192.5060  174.6990  136.2780 C   0  0  1  0  0  3  0  0  0  0  0  0
  194.8750  175.0480  139.1520 C   0  0  0  0  0  1  0  0  0  0  0  0
  192.3760  173.5380  135.2880 C   0  0  0  0  0  2  0  0  0  0  0  0
  195.5620  173.6660  137.1780 C   0  0  1  0  0  3  0  0  0  0  0  0
  194.5500  174.6990  137.7130 C   0  0  1  0  0  3  0  0  0  0  0  0
  197.3240  173.5850  135.2240 C   0  0  0  0  0  2  0  0  0  0  0  0
  198.7710  175.5280  134.9710 N   0  0  0  0  0  1  0  0  0  0  0  0
  198.1810  174.6180  135.9350 C   0  0  0  0  0  2  0  0  0  0  0  0
  193.2370  171.2990  134.5980 C   0  0  0  0  0  2  0  0  0  0  0  0
  191.6140  169.8040  134.5990 C   0  0  0  0  0  1  0  0  0  0  0  0
  192.4540  170.5190  135.4510 O   0  0  0  0  0  0  0  0  0  0  0  0
  1 22  1  0  0  0  0
  3 19  1  0  0  0  0
  3 23  1  0  0  0  0
  4 11  1  0  0  0  0
  5  4  2  0  0  0  0
  5  9  1  0  0  0  0
  6 17  1  0  0  0  0
  7  6  1  0  0  0  0
  9  7  2  0  0  0  0
 10 20  1  0  0  0  0
 11 23  1  0  0  0  0
 11  6  2  0  0  0  0
 12 27  1  0  0  0  0
 13  1  1  0  0  0  0
 14 12  2  0  0  0  0
 14 22  1  0  0  0  0
 15 17  1  6  0  0  0
 15 36  1  0  0  0  0
 18  2  1  6  0  0  0
 18 16  1  0  0  0  0
 19 18  1  0  0  0  0
 21 37  1  6  0  0  0
 21 16  1  0  0  0  0
 21 25  1  0  0  0  0
 22 10  2  0  0  0  0
 23  8  1  0  0  0  0
 24 15  1  0  0  0  0
 24 13  1  0  0  0  0
 25 26  1  0  0  0  0
 26 12  1  0  0  0  0
 27 20  2  0  0  0  0
 28 30  1  0  0  0  0
 29 35  1  0  0  0  0
 31 28  1  0  0  0  0
 31 35  1  0  0  0  0
 33 36  1  0  0  0  0
 33 31  1  0  0  0  0
 34 28  2  0  0  0  0
 36 32  1  6  0  0  0
 36 29  1  0  0  0  0
 38 37  1  0  0  0  0
 40 41  1  0  0  0  0
 41 50  1  6  0  0  0
 41 48  1  0  0  0  0
 42 49  1  0  0  0  0
 43 53  1  6  0  0  0
 43 47  1  0  0  0  0
 44 40  1  6  0  0  0
 44 43  1  0  0  0  0
 44 41  1  0  0  0  0
 45 38  1  1  0  0  0
 45 42  1  0  0  0  0
 47 45  1  0  0  0  0
 48 49  1  0  0  0  0
 48 39  1  6  0  0  0
 49 46  1  1  0  0  0
 50 52  1  0  0  0  0
 51 52  1  0  0  0  0
 53 55  1  0  0  0  0
 54 55  1  0  0  0  0
M  END
>  <MODEL>
3

>  <REMARK>
 VINA RESULT:      -4.4      2.295      3.263
  Name = 
  8 active torsions:
  status: ('A' for Active; 'I' for Inactive)
    1  A    between atoms: C_6  and  C_25
    2  A    between atoms: C_8  and  C_20
    3  A    between atoms: C_8  and  N_22
    4  A    between atoms: C_12  and  C_30
    5  A    between atoms: N_22  and  C_43
    6  A    between atoms: C_25  and  C_38
    7  A    between atoms: C_30  and  O_50
    8  A    between atoms: C_33  and  C_52
                            x       y       z     vdW  Elec       q    Type
                         _______ _______ _______ _____ _____    ______ ____

>  <TORSDO>
F 8

$$$$
=
 OpenBabel11052414523D

 55 60  0  0  1  0  0  0  0  0999 V2000
  186.1080  177.4300  140.5200 C   0  0  0  0  0  2  0  0  0  0  0  0
  187.1220  177.8880  136.0390 O   0  0  0  0  0  1  0  0  0  0  0  0
  186.0280  174.3330  135.8500 C   0  0  0  0  0  2  0  0  0  0  0  0
  183.2620  174.6640  135.0490 C   0  0  0  0  0  3  0  0  0  0  0  0
  181.9730  174.9370  134.5940 C   0  0  0  0  0  3  0  0  0  0  0  0
  182.6270  175.3440  137.2960 C   0  0  0  0  0  0  0  0  0  0  0  0
  181.3300  175.5880  136.8250 C   0  0  0  0  0  3  0  0  0  0  0  0
  185.2170  173.9740  138.1590 C   0  0  0  0  0  1  0  0  0  0  0  0
  181.0040  175.3900  135.4840 C   0  0  0  0  0  3  0  0  0  0  0  0
  188.2690  177.4010  141.7740 C   0  0  0  0  0  3  0  0  0  0  0  0
  183.6130  174.8420  136.4000 C   0  0  0  0  0  0  0  0  0  0  0  0
  189.7290  177.8930  139.4350 C   0  0  0  0  0  0  0  0  0  0  0  0
  185.4510  178.2990  139.4560 C   0  0  0  0  0  2  0  0  0  0  0  0
  188.3330  177.8560  139.4020 C   0  0  0  0  0  3  0  0  0  0  0  0
  183.2850  177.0600  139.0940 C   0  0  1  0  0  3  0  0  0  0  0  0
  188.3130  176.0290  137.0440 C   0  0  0  0  0  2  0  0  0  0  0  0
  182.8940  175.6100  138.7510 C   0  0  0  0  0  2  0  0  0  0  0  0
  187.0050  176.5600  136.4580 C   0  0  2  0  0  3  0  0  0  0  0  0
  186.4890  175.6900  135.3260 C   0  0  0  0  0  2  0  0  0  0  0  0
  189.6680  177.4490  141.8160 C   0  0  0  0  0  3  0  0  0  0  0  0
  189.5590  176.6220  136.3820 C   0  0  1  0  0  3  0  0  0  0  0  0
  187.5940  177.6140  140.5680 C   0  0  0  0  0  0  0  0  0  0  0  0
  184.9460  174.4800  136.8230 N   0  0  0  0  0  0  0  0  0  0  0  0
  184.6410  177.4390  138.4970 C   0  0  0  0  0  2  0  0  0  0  0  0
  190.6930  176.8240  137.3870 C   0  0  0  0  0  2  0  0  0  0  0  0
  190.5050  178.1180  138.1770 C   0  0  0  0  0  2  0  0  0  0  0  0
  190.3960  177.6900  140.6470 C   0  0  0  0  0  3  0  0  0  0  0  0
  179.7930  178.4200  141.7820 C   0  0  0  0  0  0  0  0  0  0  0  0
  182.5750  179.4830  139.5090 C   0  0  0  0  0  2  0  0  0  0  0  0
  179.7790  179.2710  142.9200 N   0  0  0  0  0  1  0  0  0  0  0  0
  180.7700  178.6030  140.7510 N   0  0  0  0  0  0  0  0  0  0  0  0
  181.8380  178.3160  137.4310 C   0  0  0  0  0  1  0  0  0  0  0  0
  180.9070  177.7080  139.6200 C   0  0  0  0  0  2  0  0  0  0  0  0
  178.9390  177.5010  141.6890 O   0  0  0  0  0  0  0  0  0  0  0  0
  181.7720  179.6450  140.7880 C   0  0  0  0  0  2  0  0  0  0  0  0
  182.1780  178.1340  138.9020 C   0  0  1  0  0  0  0  0  0  0  0  0
  189.9840  175.8380  135.2210 N   0  0  0  0  0  2  0  0  0  0  0  0
  190.1960  174.4400  135.5880 C   0  0  0  0  0  2  0  0  0  0  0  0
  195.1030  172.4300  134.6020 C   0  0  0  0  0  1  0  0  0  0  0  0
  193.9220  174.1480  137.7780 C   0  0  0  0  0  2  0  0  0  0  0  0
  194.9870  173.4640  136.9510 C   0  0  2  0  0  0  0  0  0  0  0  0
  192.1380  172.9770  135.0730 C   0  0  0  0  0  2  0  0  0  0  0  0
  193.9790  175.1980  135.4070 C   0  0  1  0  0  3  0  0  0  0  0  0
  194.7000  174.9560  136.7390 C   0  0  1  0  0  3  0  0  0  0  0  0
  191.6680  174.1960  135.8580 C   0  0  1  0  0  3  0  0  0  0  0  0
  192.7200  170.6160  135.5840 C   0  0  0  0  0  1  0  0  0  0  0  0
  192.4740  175.4520  135.5170 C   0  0  0  0  0  2  0  0  0  0  0  0
  194.4690  172.3640  135.9870 C   0  0  1  0  0  3  0  0  0  0  0  0
  192.9570  172.0600  135.9790 C   0  0  1  0  0  3  0  0  0  0  0  0
  196.2270  173.1540  137.7800 C   0  0  0  0  0  2  0  0  0  0  0  0
  197.6440  171.2330  137.2900 N   0  0  0  0  0  1  0  0  0  0  0  0
  197.3580  172.6090  136.9250 C   0  0  0  0  0  2  0  0  0  0  0  0
  194.6470  176.3560  134.6870 C   0  0  0  0  0  2  0  0  0  0  0  0
  195.8640  178.1860  134.8840 C   0  0  0  0  0  1  0  0  0  0  0  0
  195.5390  177.0020  135.5440 O   0  0  0  0  0  0  0  0  0  0  0  0
  1 22  1  0  0  0  0
  3 23  1  0  0  0  0
  4 11  1  0  0  0  0
  5  4  2  0  0  0  0
  5  9  1  0  0  0  0
  6 17  1  0  0  0  0
  7  6  1  0  0  0  0
  9  7  2  0  0  0  0
 10 20  1  0  0  0  0
 11 23  1  0  0  0  0
 11  6  2  0  0  0  0
 12 27  1  0  0  0  0
 13  1  1  0  0  0  0
 14 12  2  0  0  0  0
 14 22  1  0  0  0  0
 15 24  1  6  0  0  0
 17 15  1  0  0  0  0
 18  2  1  6  0  0  0
 18 16  1  0  0  0  0
 19  3  1  0  0  0  0
 19 18  1  0  0  0  0
 21 37  1  6  0  0  0
 21 16  1  0  0  0  0
 21 25  1  0  0  0  0
 22 10  2  0  0  0  0
 23  8  1  0  0  0  0
 24 13  1  0  0  0  0
 25 26  1  0  0  0  0
 26 12  1  0  0  0  0
 27 20  2  0  0  0  0
 28 30  1  0  0  0  0
 29 35  1  0  0  0  0
 31 35  1  0  0  0  0
 31 28  1  0  0  0  0
 33 31  1  0  0  0  0
 34 28  2  0  0  0  0
 36 32  1  6  0  0  0
 36 15  1  0  0  0  0
 36 29  1  0  0  0  0
 36 33  1  0  0  0  0
 37 38  1  0  0  0  0
 41 40  1  0  0  0  0
 41 50  1  1  0  0  0
 42 45  1  0  0  0  0
 42 49  1  0  0  0  0
 43 53  1  1  0  0  0
 43 47  1  0  0  0  0
 43 44  1  0  0  0  0
 44 41  1  0  0  0  0
 44 40  1  1  0  0  0
 45 38  1  6  0  0  0
 47 45  1  0  0  0  0
 48 39  1  6  0  0  0
 48 41  1  0  0  0  0
 49 46  1  6  0  0  0
 49 48  1  0  0  0  0
 52 51  1  0  0  0  0
 52 50  1  0  0  0  0
 53 55  1  0  0  0  0
 54 55  1  0  0  0  0
M  END
>  <MODEL>
4

>  <REMARK>
 VINA RESULT:      -3.4      2.020      3.035
  Name = 
  8 active torsions:
  status: ('A' for Active; 'I' for Inactive)
    1  A    between atoms: C_6  and  C_25
    2  A    between atoms: C_8  and  C_20
    3  A    between atoms: C_8  and  N_22
    4  A    between atoms: C_12  and  C_30
    5  A    between atoms: N_22  and  C_43
    6  A    between atoms: C_25  and  C_38
    7  A    between atoms: C_30  and  O_50
    8  A    between atoms: C_33  and  C_52
                            x       y       z     vdW  Elec       q    Type
                         _______ _______ _______ _____ _____    ______ ____

>  <TORSDO>
F 8

$$$$
=
 OpenBabel11052414523D

 55 60  0  0  1  0  0  0  0  0999 V2000
  183.9010  177.3800  141.8250 C   0  0  0  0  0  2  0  0  0  0  0  0
  185.2670  179.0780  137.7540 O   0  0  0  0  0  1  0  0  0  0  0  0
  185.0020  175.5310  136.6500 C   0  0  0  0  0  2  0  0  0  0  0  0
  182.3330  175.5190  135.5190 C   0  0  0  0  0  3  0  0  0  0  0  0
  181.0720  175.6460  134.9380 C   0  0  0  0  0  3  0  0  0  0  0  0
  181.3270  175.5100  137.7330 C   0  0  0  0  0  0  0  0  0  0  0  0
  180.0660  175.6130  137.1300 C   0  0  0  0  0  3  0  0  0  0  0  0
  184.0450  174.4850  138.6770 C   0  0  0  0  0  1  0  0  0  0  0  0
  179.9370  175.6830  135.7430 C   0  0  0  0  0  3  0  0  0  0  0  0
  185.8690  177.4590  143.3630 C   0  0  0  0  0  3  0  0  0  0  0  0
  182.4890  175.4320  136.9150 C   0  0  0  0  0  0  0  0  0  0  0  0
  187.4290  178.7600  141.4360 C   0  0  0  0  0  0  0  0  0  0  0  0
  183.1890  178.3390  140.8800 C   0  0  0  0  0  2  0  0  0  0  0  0
  186.0860  178.4710  141.1800 C   0  0  0  0  0  3  0  0  0  0  0  0
  181.3970  176.8390  139.9330 C   0  0  1  0  0  3  0  0  0  0  0  0
  186.7200  177.2900  138.5150 C   0  0  0  0  0  2  0  0  0  0  0  0
  181.3710  175.4660  139.2350 C   0  0  0  0  0  2  0  0  0  0  0  0
  185.3980  177.6910  137.8590 C   0  0  2  0  0  3  0  0  0  0  0  0
  185.2090  177.0360  136.5040 C   0  0  0  0  0  2  0  0  0  0  0  0
  187.2100  177.7560  143.6300 C   0  0  0  0  0  3  0  0  0  0  0  0
  187.8700  178.2470  138.1940 C   0  0  1  0  0  3  0  0  0  0  0  0
  185.2970  177.8230  142.1400 C   0  0  0  0  0  0  0  0  0  0  0  0
  183.8150  175.2360  137.4530 N   0  0  0  0  0  0  0  0  0  0  0  0
  182.6940  177.5970  139.6480 C   0  0  0  0  0  2  0  0  0  0  0  0
  188.8180  178.4120  139.3820 C   0  0  0  0  0  2  0  0  0  0  0  0
  188.2680  179.4210  140.3900 C   0  0  0  0  0  2  0  0  0  0  0  0
  187.9900  178.4020  142.6650 C   0  0  0  0  0  3  0  0  0  0  0  0
  179.4590  179.9480  142.7340 C   0  0  0  0  0  0  0  0  0  0  0  0
  180.4010  179.0830  139.2130 C   0  0  0  0  0  2  0  0  0  0  0  0
  179.7930  181.3090  142.9770 N   0  0  0  0  0  1  0  0  0  0  0  0
  179.7230  179.3550  141.4580 N   0  0  0  0  0  0  0  0  0  0  0  0
  179.0590  176.9950  138.9610 C   0  0  0  0  0  1  0  0  0  0  0  0
  179.5080  177.9490  141.1790 C   0  0  0  0  0  2  0  0  0  0  0  0
  178.9310  179.2700  143.6520 O   0  0  0  0  0  0  0  0  0  0  0  0
  180.3160  180.0780  140.3570 C   0  0  0  0  0  2  0  0  0  0  0  0
  180.1100  177.7000  139.8040 C   0  0  1  0  0  0  0  0  0  0  0  0
  188.5780  177.8570  136.9740 N   0  0  0  0  0  2  0  0  0  0  0  0
  188.6490  176.4030  136.8570 C   0  0  0  0  0  2  0  0  0  0  0  0
  193.3680  173.9240  137.6810 C   0  0  0  0  0  1  0  0  0  0  0  0
  192.5300  176.4140  134.9350 C   0  0  0  0  0  2  0  0  0  0  0  0
  193.4880  175.4780  135.6380 C   0  0  2  0  0  0  0  0  0  0  0  0
  190.7940  175.5620  137.7870 C   0  0  0  0  0  2  0  0  0  0  0  0
  191.3690  174.1280  135.3270 C   0  0  1  0  0  3  0  0  0  0  0  0
  192.4810  174.9180  134.6250 C   0  0  1  0  0  3  0  0  0  0  0  0
  190.0650  175.9800  136.5160 C   0  0  1  0  0  3  0  0  0  0  0  0
  192.5460  176.5250  139.2620 C   0  0  0  0  0  1  0  0  0  0  0  0
  190.0350  174.8650  135.4680 C   0  0  0  0  0  2  0  0  0  0  0  0
  193.2900  175.3600  137.1720 C   0  0  1  0  0  3  0  0  0  0  0  0
  192.1790  176.2060  137.8270 C   0  0  1  0  0  3  0  0  0  0  0  0
  194.9110  175.6370  135.1170 C   0  0  0  0  0  2  0  0  0  0  0  0
  197.0300  176.0470  136.2480 N   0  0  0  0  0  1  0  0  0  0  0  0
  195.9370  175.1020  136.1000 C   0  0  0  0  0  2  0  0  0  0  0  0
  191.1590  172.8140  134.5960 C   0  0  0  0  0  2  0  0  0  0  0  0
  189.9220  170.9990  134.8080 C   0  0  0  0  0  1  0  0  0  0  0  0
  189.8370  172.3900  134.7450 O   0  0  0  0  0  0  0  0  0  0  0  0
  1 22  1  0  0  0  0
  3 23  1  0  0  0  0
  4 11  1  0  0  0  0
  5  4  2  0  0  0  0
  5  9  1  0  0  0  0
  6 17  1  0  0  0  0
  7  6  1  0  0  0  0
  9  7  2  0  0  0  0
 10 20  1  0  0  0  0
 11 23  1  0  0  0  0
 11  6  2  0  0  0  0
 12 27  1  0  0  0  0
 13  1  1  0  0  0  0
 14 12  2  0  0  0  0
 14 22  1  0  0  0  0
 15 17  1  6  0  0  0
 18  2  1  6  0  0  0
 18 16  1  0  0  0  0
 19  3  1  0  0  0  0
 19 18  1  0  0  0  0
 21 37  1  6  0  0  0
 21 16  1  0  0  0  0
 21 25  1  0  0  0  0
 22 10  2  0  0  0  0
 23  8  1  0  0  0  0
 24 15  1  0  0  0  0
 24 13  1  0  0  0  0
 25 26  1  0  0  0  0
 26 12  1  0  0  0  0
 27 20  2  0  0  0  0
 28 30  1  0  0  0  0
 28 34  2  0  0  0  0
 29 36  1  0  0  0  0
 29 35  1  0  0  0  0
 31 28  1  0  0  0  0
 33 31  1  0  0  0  0
 35 31  1  0  0  0  0
 36 32  1  6  0  0  0
 36 15  1  0  0  0  0
 36 33  1  0  0  0  0
 38 37  1  0  0  0  0
 40 41  1  0  0  0  0
 41 50  1  6  0  0  0
 41 48  1  0  0  0  0
 42 49  1  0  0  0  0
 43 53  1  6  0  0  0
 43 47  1  0  0  0  0
 44 40  1  1  0  0  0
 44 43  1  0  0  0  0
 44 41  1  0  0  0  0
 45 38  1  1  0  0  0
 45 42  1  0  0  0  0
 47 45  1  0  0  0  0
 48 39  1  6  0  0  0
 48 49  1  0  0  0  0
 49 46  1  1  0  0  0
 50 52  1  0  0  0  0
 52 51  1  0  0  0  0
 53 55  1  0  0  0  0
 55 54  1  0  0  0  0
M  END
>  <MODEL>
5

>  <REMARK>
 VINA RESULT:      -3.3      2.026      2.559
  Name = 
  8 active torsions:
  status: ('A' for Active; 'I' for Inactive)
    1  A    between atoms: C_6  and  C_25
    2  A    between atoms: C_8  and  C_20
    3  A    between atoms: C_8  and  N_22
    4  A    between atoms: C_12  and  C_30
    5  A    between atoms: N_22  and  C_43
    6  A    between atoms: C_25  and  C_38
    7  A    between atoms: C_30  and  O_50
    8  A    between atoms: C_33  and  C_52
                            x       y       z     vdW  Elec       q    Type
                         _______ _______ _______ _____ _____    ______ ____

>  <TORSDO>
F 8

$$$$
=
 OpenBabel11052414523D

 55 60  0  0  1  0  0  0  0  0999 V2000
  184.6160  177.6480  141.3610 C   0  0  0  0  0  2  0  0  0  0  0  0
  185.8040  179.1360  137.1540 O   0  0  0  0  0  1  0  0  0  0  0  0
  185.0920  175.6190  136.1580 C   0  0  0  0  0  2  0  0  0  0  0  0
  182.3510  175.8630  135.2480 C   0  0  0  0  0  3  0  0  0  0  0  0
  181.0650  176.1100  134.7680 C   0  0  0  0  0  3  0  0  0  0  0  0
  181.5360  175.9910  137.5360 C   0  0  0  0  0  0  0  0  0  0  0  0
  180.2460  176.2130  137.0350 C   0  0  0  0  0  3  0  0  0  0  0  0
  184.2050  174.7070  138.2800 C   0  0  0  0  0  1  0  0  0  0  0  0
  180.0110  176.2750  135.6620 C   0  0  0  0  0  3  0  0  0  0  0  0
  186.7020  177.5480  142.7330 C   0  0  0  0  0  3  0  0  0  0  0  0
  182.6120  175.7810  136.6280 C   0  0  0  0  0  0  0  0  0  0  0  0
  188.2210  178.6540  140.6560 C   0  0  0  0  0  0  0  0  0  0  0  0
  183.9280  178.6610  140.4550 C   0  0  0  0  0  2  0  0  0  0  0  0
  186.8390  178.5000  140.5160 C   0  0  0  0  0  3  0  0  0  0  0  0
  181.9220  177.3390  139.6910 C   0  0  1  0  0  3  0  0  0  0  0  0
  187.1270  177.2210  137.8370 C   0  0  0  0  0  2  0  0  0  0  0  0
  181.7000  175.9650  139.0300 C   0  0  0  0  0  2  0  0  0  0  0  0
  185.8020  177.7450  137.2810 C   0  0  2  0  0  3  0  0  0  0  0  0
  185.4370  177.0920  135.9610 C   0  0  0  0  0  2  0  0  0  0  0  0
  188.0840  177.7100  142.8830 C   0  0  0  0  0  3  0  0  0  0  0  0
  188.3370  178.0500  137.4020 C   0  0  1  0  0  3  0  0  0  0  0  0
  186.0710  177.9510  141.5520 C   0  0  0  0  0  0  0  0  0  0  0  0
  183.9520  175.4590  137.0610 N   0  0  0  0  0  0  0  0  0  0  0  0
  183.2610  177.9550  139.2840 C   0  0  0  0  0  2  0  0  0  0  0  0
  189.3930  178.1340  138.5050 C   0  0  0  0  0  2  0  0  0  0  0  0
  189.0330  179.2090  139.5300 C   0  0  0  0  0  2  0  0  0  0  0  0
  188.8430  178.2590  141.8440 C   0  0  0  0  0  3  0  0  0  0  0  0
  181.4590  181.5720  137.9210 C   0  0  0  0  0  0  0  0  0  0  0  0
  179.9130  178.1870  138.3540 C   0  0  0  0  0  2  0  0  0  0  0  0
  181.2650  181.9970  136.5780 N   0  0  0  0  0  1  0  0  0  0  0  0
  180.9690  180.2990  138.3560 N   0  0  0  0  0  0  0  0  0  0  0  0
  179.8070  178.1310  140.8450 C   0  0  0  0  0  1  0  0  0  0  0  0
  181.2240  179.7600  139.6770 C   0  0  0  0  0  2  0  0  0  0  0  0
  182.0670  182.3250  138.7240 O   0  0  0  0  0  0  0  0  0  0  0  0
  180.2520  179.3900  137.4910 C   0  0  0  0  0  2  0  0  0  0  0  0
  180.7220  178.3250  139.6470 C   0  0  1  0  0  0  0  0  0  0  0  0
  188.8990  177.5710  136.1370 N   0  0  0  0  0  2  0  0  0  0  0  0
  188.6900  176.1330  135.9880 C   0  0  0  0  0  2  0  0  0  0  0  0
  192.5330  172.6150  134.5940 C   0  0  0  0  0  1  0  0  0  0  0  0
  192.2690  174.5560  137.8490 C   0  0  0  0  0  2  0  0  0  0  0  0
  192.9680  173.5730  136.9380 C   0  0  2  0  0  0  0  0  0  0  0  0
  189.9750  174.1150  135.3160 C   0  0  0  0  0  2  0  0  0  0  0  0
  192.4780  175.5800  135.4760 C   0  0  1  0  0  3  0  0  0  0  0  0
  193.1840  175.0790  136.7420 C   0  0  1  0  0  3  0  0  0  0  0  0
  190.0110  175.4020  136.1310 C   0  0  1  0  0  3  0  0  0  0  0  0
  189.7690  171.6840  135.7900 C   0  0  0  0  0  1  0  0  0  0  0  0
  191.1610  176.3220  135.7140 C   0  0  0  0  0  2  0  0  0  0  0  0
  192.0320  172.7340  136.0290 C   0  0  1  0  0  3  0  0  0  0  0  0
  190.5110  172.9550  136.1540 C   0  0  1  0  0  3  0  0  0  0  0  0
  194.0960  172.8450  137.6580 C   0  0  0  0  0  2  0  0  0  0  0  0
  195.9900  171.3320  137.4050 N   0  0  0  0  0  1  0  0  0  0  0  0
  194.8070  171.8590  136.7480 C   0  0  0  0  0  2  0  0  0  0  0  0
  193.4340  176.4630  134.6930 C   0  0  0  0  0  2  0  0  0  0  0  0
  195.5710  176.9930  134.8440 C   0  0  0  0  0  1  0  0  0  0  0  0
  194.7130  175.9040  134.6970 O   0  0  0  0  0  0  0  0  0  0  0  0
  1 22  1  0  0  0  0
  3 23  1  0  0  0  0
  4 11  1  0  0  0  0
  5  4  2  0  0  0  0
  5  9  1  0  0  0  0
  6 17  1  0  0  0  0
  7  6  1  0  0  0  0
  9  7  2  0  0  0  0
 10 20  1  0  0  0  0
 11 23  1  0  0  0  0
 11  6  2  0  0  0  0
 12 27  1  0  0  0  0
 13  1  1  0  0  0  0
 14 12  2  0  0  0  0
 14 22  1  0  0  0  0
 15 17  1  6  0  0  0
 18  2  1  6  0  0  0
 18 16  1  0  0  0  0
 19  3  1  0  0  0  0
 19 18  1  0  0  0  0
 21 37  1  6  0  0  0
 21 16  1  0  0  0  0
 21 25  1  0  0  0  0
 22 10  2  0  0  0  0
 23  8  1  0  0  0  0
 24 15  1  0  0  0  0
 24 13  1  0  0  0  0
 25 26  1  0  0  0  0
 26 12  1  0  0  0  0
 27 20  2  0  0  0  0
 28 31  1  0  0  0  0
 28 34  2  0  0  0  0
 29 36  1  0  0  0  0
 30 28  1  0  0  0  0
 31 33  1  0  0  0  0
 35 29  1  0  0  0  0
 35 31  1  0  0  0  0
 36 33  1  0  0  0  0
 36 15  1  0  0  0  0
 36 32  1  1  0  0  0
 38 37  1  0  0  0  0
 41 50  1  1  0  0  0
 41 40  1  0  0  0  0
 42 45  1  0  0  0  0
 42 49  1  0  0  0  0
 43 53  1  1  0  0  0
 43 47  1  0  0  0  0
 43 44  1  0  0  0  0
 44 41  1  0  0  0  0
 44 40  1  1  0  0  0
 45 38  1  6  0  0  0
 47 45  1  0  0  0  0
 48 39  1  6  0  0  0
 48 49  1  0  0  0  0
 48 41  1  0  0  0  0
 49 46  1  6  0  0  0
 52 51  1  0  0  0  0
 52 50  1  0  0  0  0
 53 55  1  0  0  0  0
 55 54  1  0  0  0  0
M  END
>  <MODEL>
6

>  <REMARK>
 VINA RESULT:      -3.0      1.747      2.802
  Name = 
  8 active torsions:
  status: ('A' for Active; 'I' for Inactive)
    1  A    between atoms: C_6  and  C_25
    2  A    between atoms: C_8  and  C_20
    3  A    between atoms: C_8  and  N_22
    4  A    between atoms: C_12  and  C_30
    5  A    between atoms: N_22  and  C_43
    6  A    between atoms: C_25  and  C_38
    7  A    between atoms: C_30  and  O_50
    8  A    between atoms: C_33  and  C_52
                            x       y       z     vdW  Elec       q    Type
                         _______ _______ _______ _____ _____    ______ ____

>  <TORSDO>
F 8

$$$$
