=
 OpenBabel11052412213D

 30 32  0  0  1  0  0  0  0  0999 V2000
  182.6380  178.3170  140.2270 C   0  0  2  0  0  0  0  0  0  0  0  0
  182.9890  177.4730  138.9800 C   0  0  1  0  0  3  0  0  0  0  0  0
  181.1660  177.0470  137.0920 C   0  0  1  0  0  3  0  0  0  0  0  0
  181.4030  177.7570  140.9940 C   0  0  2  0  0  3  0  0  0  0  0  0
  182.3720  179.6400  139.8520 O   0  0  0  0  0  1  0  0  0  0  0  0
  183.8770  178.2780  141.1610 C   0  0  2  0  0  3  0  0  0  0  0  0
  179.8560  176.9940  137.8830 C   0  0  2  0  0  3  0  0  0  0  0  0
  183.6020  178.5040  142.6530 C   0  0  0  0  0  2  0  0  0  0  0  0
  183.4080  175.1130  138.0980 C   0  0  0  0  0  2  0  0  0  0  0  0
  183.0120  175.9610  139.2870 C   0  0  0  0  0  2  0  0  0  0  0  0
  181.4610  175.5060  135.3380 O   0  0  0  0  0  0  0  0  0  0  0  0
  182.1550  174.6370  137.4000 C   0  0  0  0  0  2  0  0  0  0  0  0
  182.2900  177.9310  137.6700 C   0  0  2  0  0  3  0  0  0  0  0  0
  180.1210  177.7490  140.1740 C   0  0  0  0  0  2  0  0  0  0  0  0
  179.1590  178.2080  137.7660 O   0  0  0  0  0  1  0  0  0  0  0  0
  180.0890  176.5940  139.2790 N   0  0  0  0  0  0  0  0  0  0  0  0
  181.1190  178.4720  142.3250 C   0  0  0  0  0  2  0  0  0  0  0  0
  181.5980  175.7180  136.5310 C   0  0  0  0  0  0  0  0  0  0  0  0
  183.2600  178.1840  136.6870 O   0  0  0  0  0  1  0  0  0  0  0  0
  182.3050  179.2700  142.8650 C   0  0  0  0  0  2  0  0  0  0  0  0
  178.9790  175.7430  139.6860 C   0  0  0  0  0  2  0  0  0  0  0  0
  179.4590  174.3080  139.8490 C   0  0  2  0  0  3  0  0  0  0  0  0
  178.9450  173.4850  138.6810 C   0  0  0  0  0  1  0  0  0  0  0  0
  178.9310  173.7500  141.1280 C   0  0  0  0  0  3  0  0  0  0  0  0
  179.0150  174.3780  142.1730 O   0  0  0  0  0  0  0  0  0  0  0  0
  185.0620  179.1110  140.6620 C   0  0  0  0  0  2  0  0  0  0  0  0
  187.6930  178.5790  139.7010 O   0  0  0  0  0  0  0  0  0  0  0  0
  186.2360  178.9050  141.5000 N   0  0  0  0  0  2  0  0  0  0  0  0
  188.6610  178.3090  141.8540 C   0  0  0  0  0  1  0  0  0  0  0  0
  187.5160  178.5910  140.9470 C   0  0  0  0  0  0  0  0  0  0  0  0
  1  5  1  6  0  0  0
  1  4  1  0  0  0  0
  1  6  1  0  0  0  0
  2 10  1  1  0  0  0
  2  1  1  0  0  0  0
  3 18  1  1  0  0  0
  3 13  1  0  0  0  0
  3  7  1  0  0  0  0
  4 14  1  6  0  0  0
  4 17  1  0  0  0  0
  6 26  1  6  0  0  0
  6  8  1  0  0  0  0
  7 15  1  1  0  0  0
  7 16  1  0  0  0  0
  8 20  1  0  0  0  0
  9 10  1  0  0  0  0
 11 18  2  0  0  0  0
 12  9  1  0  0  0  0
 13 19  1  6  0  0  0
 13  2  1  0  0  0  0
 16 21  1  0  0  0  0
 16 14  1  0  0  0  0
 17 20  1  0  0  0  0
 18 12  1  0  0  0  0
 21 22  1  0  0  0  0
 22 23  1  6  0  0  0
 22 24  1  0  0  0  0
 24 25  2  0  0  0  0
 26 28  1  0  0  0  0
 27 30  2  0  0  0  0
 30 28  1  0  0  0  0
 30 29  1  0  0  0  0
M  END
>  <MODEL>
1

>  <REMARK>
 VINA RESULT:      -5.3      0.000      0.000
  Name = 
  5 active torsions:
  status: ('A' for Active; 'I' for Inactive)
    1  A    between atoms: C_7  and  C_10
    2  A    between atoms: C_7  and  C_15
    3  A    between atoms: C_8  and  C_12
    4  A    between atoms: N_9  and  C_12
    5  A    between atoms: C_10  and  N_25
                            x       y       z     vdW  Elec       q    Type
                         _______ _______ _______ _____ _____    ______ ____

>  <TORSDO>
F 5

$$$$
=
 OpenBabel11052412213D

 30 32  0  0  1  0  0  0  0  0999 V2000
  189.4090  177.3240  140.9020 C   0  0  2  0  0  0  0  0  0  0  0  0
  190.2990  177.3910  142.1650 C   0  0  1  0  0  3  0  0  0  0  0  0
  189.3180  176.6960  144.5360 C   0  0  1  0  0  3  0  0  0  0  0  0
  188.1070  178.1650  141.0480 C   0  0  2  0  0  3  0  0  0  0  0  0
  189.0600  175.9950  140.6320 O   0  0  0  0  0  1  0  0  0  0  0  0
  190.2520  177.8910  139.7270 C   0  0  2  0  0  3  0  0  0  0  0  0
  187.8480  177.1170  144.4380 C   0  0  2  0  0  3  0  0  0  0  0  0
  189.4580  178.4790  138.5540 C   0  0  0  0  0  2  0  0  0  0  0  0
  191.3920  178.9400  143.8770 C   0  0  0  0  0  2  0  0  0  0  0  0
  190.4800  178.8370  142.6740 C   0  0  0  0  0  2  0  0  0  0  0  0
  190.4450  177.0850  146.5640 O   0  0  0  0  0  0  0  0  0  0  0  0
  190.5480  178.9340  145.1300 C   0  0  0  0  0  2  0  0  0  0  0  0
  190.0110  176.2880  143.2200 C   0  0  2  0  0  3  0  0  0  0  0  0
  187.1960  177.6970  142.1740 C   0  0  0  0  0  2  0  0  0  0  0  0
  187.0320  176.0030  144.1830 O   0  0  0  0  0  1  0  0  0  0  0  0
  187.6660  178.2020  143.4610 N   0  0  0  0  0  0  0  0  0  0  0  0
  187.2740  178.2530  139.7580 C   0  0  0  0  0  2  0  0  0  0  0  0
  190.1360  177.5400  145.4770 C   0  0  0  0  0  0  0  0  0  0  0  0
  191.1940  175.5850  143.4950 O   0  0  0  0  0  1  0  0  0  0  0  0
  188.0530  177.9000  138.4920 C   0  0  0  0  0  2  0  0  0  0  0  0
  186.6500  179.1030  143.9880 C   0  0  0  0  0  2  0  0  0  0  0  0
  185.3600  178.3370  144.2470 C   0  0  2  0  0  3  0  0  0  0  0  0
  184.3130  178.7920  143.2450 C   0  0  0  0  0  1  0  0  0  0  0  0
  184.8860  178.6180  145.6330 C   0  0  0  0  0  3  0  0  0  0  0  0
  183.7460  179.0030  145.8440 O   0  0  0  0  0  0  0  0  0  0  0  0
  191.3710  176.9590  139.2550 C   0  0  0  0  0  2  0  0  0  0  0  0
  190.7190  174.4990  137.9680 O   0  0  0  0  0  0  0  0  0  0  0  0
  191.3100  176.7560  137.8120 N   0  0  0  0  0  2  0  0  0  0  0  0
  191.0590  175.3110  135.7610 C   0  0  0  0  0  1  0  0  0  0  0  0
  191.0260  175.4780  137.2380 C   0  0  0  0  0  0  0  0  0  0  0  0
  1  5  1  6  0  0  0
  1  4  1  0  0  0  0
  1  2  1  0  0  0  0
  2 10  1  1  0  0  0
  2 13  1  0  0  0  0
  3 18  1  6  0  0  0
  4 17  1  6  0  0  0
  4 14  1  0  0  0  0
  6 26  1  6  0  0  0
  6  1  1  0  0  0  0
  7 15  1  6  0  0  0
  7  3  1  0  0  0  0
  8  6  1  0  0  0  0
  9 12  1  0  0  0  0
 10  9  1  0  0  0  0
 12 18  1  0  0  0  0
 13 19  1  1  0  0  0
 13  3  1  0  0  0  0
 14 16  1  0  0  0  0
 16 21  1  0  0  0  0
 16  7  1  0  0  0  0
 18 11  2  0  0  0  0
 20  8  1  0  0  0  0
 20 17  1  0  0  0  0
 21 22  1  0  0  0  0
 22 23  1  6  0  0  0
 22 24  1  0  0  0  0
 24 25  2  0  0  0  0
 28 26  1  0  0  0  0
 29 30  1  0  0  0  0
 30 28  1  0  0  0  0
 30 27  2  0  0  0  0
M  END
>  <MODEL>
2

>  <REMARK>
 VINA RESULT:      -5.1      5.870      8.882
  Name = 
  5 active torsions:
  status: ('A' for Active; 'I' for Inactive)
    1  A    between atoms: C_7  and  C_10
    2  A    between atoms: C_7  and  C_15
    3  A    between atoms: C_8  and  C_12
    4  A    between atoms: N_9  and  C_12
    5  A    between atoms: C_10  and  N_25
                            x       y       z     vdW  Elec       q    Type
                         _______ _______ _______ _____ _____    ______ ____

>  <TORSDO>
F 5

$$$$
=
 OpenBabel11052412213D

 30 32  0  0  1  0  0  0  0  0999 V2000
  181.3450  178.9550  141.8020 C   0  0  2  0  0  0  0  0  0  0  0  0
  182.3550  178.6680  140.6660 C   0  0  1  0  0  3  0  0  0  0  0  0
  181.6000  178.8410  138.1230 C   0  0  1  0  0  3  0  0  0  0  0  0
  180.0770  178.0560  141.7080 C   0  0  2  0  0  3  0  0  0  0  0  0
  180.9490  180.2970  141.7630 O   0  0  0  0  0  1  0  0  0  0  0  0
  182.0760  178.6650  143.1400 C   0  0  2  0  0  3  0  0  0  0  0  0
  180.1350  178.3950  138.1670 C   0  0  2  0  0  3  0  0  0  0  0  0
  181.1810  178.2950  144.3280 C   0  0  0  0  0  2  0  0  0  0  0  0
  183.6360  176.8480  139.4130 C   0  0  0  0  0  2  0  0  0  0  0  0
  182.6090  177.1570  140.4790 C   0  0  0  0  0  2  0  0  0  0  0  0
  182.9280  178.0950  136.3290 O   0  0  0  0  0  0  0  0  0  0  0  0
  182.9200  176.5740  138.1110 C   0  0  0  0  0  2  0  0  0  0  0  0
  182.1550  179.5280  139.3870 C   0  0  2  0  0  3  0  0  0  0  0  0
  179.2730  178.2570  140.4310 C   0  0  0  0  0  2  0  0  0  0  0  0
  179.2800  179.5080  138.1140 O   0  0  0  0  0  1  0  0  0  0  0  0
  179.8750  177.5220  139.3220 N   0  0  0  0  0  0  0  0  0  0  0  0
  179.1220  178.1970  142.9050 C   0  0  0  0  0  2  0  0  0  0  0  0
  182.5210  177.8550  137.4530 C   0  0  0  0  0  0  0  0  0  0  0  0
  183.3480  180.2030  139.0870 O   0  0  0  0  0  1  0  0  0  0  0  0
  179.7680  178.8230  144.1410 C   0  0  0  0  0  2  0  0  0  0  0  0
  178.9310  176.4980  138.8960 C   0  0  0  0  0  2  0  0  0  0  0  0
  179.6450  175.1620  138.7500 C   0  0  2  0  0  3  0  0  0  0  0  0
  179.5890  174.7350  137.2940 C   0  0  0  0  0  1  0  0  0  0  0  0
  178.9660  174.1410  139.6000 C   0  0  0  0  0  3  0  0  0  0  0  0
  179.3510  173.9070  140.7360 O   0  0  0  0  0  0  0  0  0  0  0  0
  183.1290  179.7110  143.5160 C   0  0  0  0  0  2  0  0  0  0  0  0
  184.0870  178.9660  146.0960 O   0  0  0  0  0  0  0  0  0  0  0  0
  184.4180  179.0850  143.7840 N   0  0  0  0  0  2  0  0  0  0  0  0
  186.2120  178.2240  145.3330 C   0  0  0  0  0  1  0  0  0  0  0  0
  184.8530  178.7860  145.1130 C   0  0  0  0  0  0  0  0  0  0  0  0
  1  5  1  6  0  0  0
  1  6  1  0  0  0  0
  2 10  1  6  0  0  0
  2  1  1  0  0  0  0
  3 18  1  1  0  0  0
  3  7  1  0  0  0  0
  3 13  1  0  0  0  0
  4 14  1  6  0  0  0
  4  1  1  0  0  0  0
  4 17  1  0  0  0  0
  6 26  1  1  0  0  0
  6  8  1  0  0  0  0
  7 15  1  1  0  0  0
  7 16  1  0  0  0  0
  9 10  1  0  0  0  0
 11 18  2  0  0  0  0
 12  9  1  0  0  0  0
 13 19  1  6  0  0  0
 13  2  1  0  0  0  0
 16 14  1  0  0  0  0
 17 20  1  0  0  0  0
 18 12  1  0  0  0  0
 20  8  1  0  0  0  0
 21 16  1  0  0  0  0
 22 23  1  6  0  0  0
 22 21  1  0  0  0  0
 22 24  1  0  0  0  0
 24 25  2  0  0  0  0
 26 28  1  0  0  0  0
 28 30  1  0  0  0  0
 30 29  1  0  0  0  0
 30 27  2  0  0  0  0
M  END
>  <MODEL>
3

>  <REMARK>
 VINA RESULT:      -5.0      2.062      2.770
  Name = 
  5 active torsions:
  status: ('A' for Active; 'I' for Inactive)
    1  A    between atoms: C_7  and  C_10
    2  A    between atoms: C_7  and  C_15
    3  A    between atoms: C_8  and  C_12
    4  A    between atoms: N_9  and  C_12
    5  A    between atoms: C_10  and  N_25
                            x       y       z     vdW  Elec       q    Type
                         _______ _______ _______ _____ _____    ______ ____

>  <TORSDO>
F 5

$$$$
=
 OpenBabel11052412213D

 30 32  0  0  1  0  0  0  0  0999 V2000
  184.0540  176.7240  137.1800 C   0  0  2  0  0  0  0  0  0  0  0  0
  182.6290  176.4650  137.7220 C   0  0  1  0  0  3  0  0  0  0  0  0
  181.1340  178.4880  138.5840 C   0  0  1  0  0  3  0  0  0  0  0  0
  184.9560  177.4650  138.2110 C   0  0  2  0  0  3  0  0  0  0  0  0
  183.9890  177.4870  136.0070 O   0  0  0  0  0  1  0  0  0  0  0  0
  184.6750  175.3360  136.8660 C   0  0  2  0  0  3  0  0  0  0  0  0
  182.1670  179.4540  139.1720 C   0  0  2  0  0  3  0  0  0  0  0  0
  186.2070  175.2640  136.8950 C   0  0  0  0  0  2  0  0  0  0  0  0
  181.2670  175.5650  139.6860 C   0  0  0  0  0  2  0  0  0  0  0  0
  182.6460  175.8810  139.1510 C   0  0  0  0  0  2  0  0  0  0  0  0
  179.1100  178.1930  139.7470 O   0  0  0  0  0  0  0  0  0  0  0  0
  180.7820  176.7390  140.5060 C   0  0  0  0  0  2  0  0  0  0  0  0
  181.6050  177.5940  137.4190 C   0  0  2  0  0  3  0  0  0  0  0  0
  184.4440  178.8470  138.5940 C   0  0  0  0  0  2  0  0  0  0  0  0
  182.4240  180.5060  138.2780 O   0  0  0  0  0  1  0  0  0  0  0  0
  183.3850  178.7450  139.5940 N   0  0  0  0  0  0  0  0  0  0  0  0
  186.4230  177.5990  137.7720 C   0  0  0  0  0  2  0  0  0  0  0  0
  180.2630  177.8200  139.6150 C   0  0  0  0  0  0  0  0  0  0  0  0
  180.4990  177.0520  136.7470 O   0  0  0  0  0  1  0  0  0  0  0  0
  186.8290  176.6310  136.6620 C   0  0  0  0  0  2  0  0  0  0  0  0
  183.8610  179.3760  140.8180 C   0  0  0  0  0  2  0  0  0  0  0  0
  184.0510  178.3250  141.9030 C   0  0  2  0  0  3  0  0  0  0  0  0
  183.1390  178.6600  143.0710 C   0  0  0  0  0  1  0  0  0  0  0  0
  185.4720  178.3320  142.3560 C   0  0  0  0  0  3  0  0  0  0  0  0
  186.3650  178.7370  141.6280 O   0  0  0  0  0  0  0  0  0  0  0  0
  184.0900  174.6560  135.6260 C   0  0  0  0  0  2  0  0  0  0  0  0
  182.1230  173.0650  136.9410 O   0  0  0  0  0  0  0  0  0  0  0  0
  184.1330  173.2040  135.7550 N   0  0  0  0  0  2  0  0  0  0  0  0
  183.2740  171.0070  136.6460 C   0  0  0  0  0  1  0  0  0  0  0  0
  183.1350  172.4780  136.4750 C   0  0  0  0  0  0  0  0  0  0  0  0
  1  5  1  6  0  0  0
  1  2  1  0  0  0  0
  1  4  1  0  0  0  0
  2 10  1  1  0  0  0
  3  7  1  0  0  0  0
  3 18  1  1  0  0  0
  4 17  1  6  0  0  0
  4 14  1  0  0  0  0
  6 26  1  6  0  0  0
  6  8  1  0  0  0  0
  6  1  1  0  0  0  0
  7 15  1  6  0  0  0
  7 16  1  0  0  0  0
  9 12  1  0  0  0  0
 10  9  1  0  0  0  0
 13 19  1  1  0  0  0
 13  2  1  0  0  0  0
 13  3  1  0  0  0  0
 14 16  1  0  0  0  0
 16 21  1  0  0  0  0
 18 11  2  0  0  0  0
 18 12  1  0  0  0  0
 20  8  1  0  0  0  0
 20 17  1  0  0  0  0
 21 22  1  0  0  0  0
 22 24  1  0  0  0  0
 22 23  1  1  0  0  0
 25 24  2  0  0  0  0
 26 28  1  0  0  0  0
 28 30  1  0  0  0  0
 30 29  1  0  0  0  0
 30 27  2  0  0  0  0
M  END
>  <MODEL>
4

>  <REMARK>
 VINA RESULT:      -4.8      2.451      5.940
  Name = 
  5 active torsions:
  status: ('A' for Active; 'I' for Inactive)
    1  A    between atoms: C_7  and  C_10
    2  A    between atoms: C_7  and  C_15
    3  A    between atoms: C_8  and  C_12
    4  A    between atoms: N_9  and  C_12
    5  A    between atoms: C_10  and  N_25
                            x       y       z     vdW  Elec       q    Type
                         _______ _______ _______ _____ _____    ______ ____

>  <TORSDO>
F 5

$$$$
=
 OpenBabel11052412213D

 30 32  0  0  1  0  0  0  0  0999 V2000
  189.4320  177.2560  140.6050 C   0  0  2  0  0  0  0  0  0  0  0  0
  188.8000  177.4900  139.2130 C   0  0  1  0  0  3  0  0  0  0  0  0
  189.5000  175.9660  137.1500 C   0  0  1  0  0  3  0  0  0  0  0  0
  190.9870  177.3340  140.5710 C   0  0  2  0  0  3  0  0  0  0  0  0
  189.0550  176.0020  141.0990 O   0  0  0  0  0  1  0  0  0  0  0  0
  188.8880  178.3710  141.5390 C   0  0  2  0  0  3  0  0  0  0  0  0
  190.9720  175.6520  137.4370 C   0  0  2  0  0  3  0  0  0  0  0  0
  189.7690  178.7280  142.7420 C   0  0  0  0  0  2  0  0  0  0  0  0
  188.7630  179.0050  137.1570 C   0  0  0  0  0  2  0  0  0  0  0  0
  189.4010  178.7180  138.4980 C   0  0  0  0  0  2  0  0  0  0  0  0
  188.8840  176.4390  134.9280 O   0  0  0  0  0  0  0  0  0  0  0  0
  189.5930  178.3560  136.0730 C   0  0  0  0  0  2  0  0  0  0  0  0
  188.5900  176.2000  138.3720 C   0  0  2  0  0  3  0  0  0  0  0  0
  191.6360  176.2810  139.6840 C   0  0  0  0  0  2  0  0  0  0  0  0
  191.1050  174.3580  137.9660 O   0  0  0  0  0  1  0  0  0  0  0  0
  191.5860  176.6870  138.2810 N   0  0  0  0  0  0  0  0  0  0  0  0
  191.6450  177.2660  141.9590 C   0  0  0  0  0  2  0  0  0  0  0  0
  189.2880  176.8960  135.9840 C   0  0  0  0  0  0  0  0  0  0  0  0
  187.2410  176.1030  137.9970 O   0  0  0  0  0  1  0  0  0  0  0  0
  190.6930  177.5780  143.1120 C   0  0  0  0  0  2  0  0  0  0  0  0
  192.9540  176.8780  137.8200 C   0  0  0  0  0  2  0  0  0  0  0  0
  193.3890  175.6880  136.9770 C   0  0  2  0  0  3  0  0  0  0  0  0
  194.4040  174.8770  137.7640 C   0  0  0  0  0  1  0  0  0  0  0  0
  194.0090  176.1770  135.7110 C   0  0  0  0  0  3  0  0  0  0  0  0
  195.0670  176.7870  135.7210 O   0  0  0  0  0  0  0  0  0  0  0  0
  187.4190  178.1920  141.9340 C   0  0  0  0  0  2  0  0  0  0  0  0
  184.9830  178.2680  143.4140 O   0  0  0  0  0  0  0  0  0  0  0  0
  187.2910  177.9000  143.3570 N   0  0  0  0  0  2  0  0  0  0  0  0
  185.9870  177.7800  145.5120 C   0  0  0  0  0  1  0  0  0  0  0  0
  186.0420  178.0100  144.0440 C   0  0  0  0  0  0  0  0  0  0  0  0
  1  5  1  1  0  0  0
  1  6  1  0  0  0  0
  2 10  1  6  0  0  0
  2  1  1  0  0  0  0
  3 18  1  6  0  0  0
  3  7  1  0  0  0  0
  3 13  1  0  0  0  0
  4 14  1  6  0  0  0
  4  1  1  0  0  0  0
  4 17  1  0  0  0  0
  6 26  1  1  0  0  0
  6  8  1  0  0  0  0
  7 15  1  1  0  0  0
  7 16  1  0  0  0  0
  8 20  1  0  0  0  0
  9 10  1  0  0  0  0
 11 18  2  0  0  0  0
 12  9  1  0  0  0  0
 13 19  1  6  0  0  0
 13  2  1  0  0  0  0
 16 14  1  0  0  0  0
 17 20  1  0  0  0  0
 18 12  1  0  0  0  0
 21 16  1  0  0  0  0
 22 23  1  1  0  0  0
 22 21  1  0  0  0  0
 24 25  2  0  0  0  0
 24 22  1  0  0  0  0
 26 28  1  0  0  0  0
 27 30  2  0  0  0  0
 28 30  1  0  0  0  0
 30 29  1  0  0  0  0
M  END
>  <MODEL>
5

>  <REMARK>
 VINA RESULT:      -4.8      6.207      9.543
  Name = 
  5 active torsions:
  status: ('A' for Active; 'I' for Inactive)
    1  A    between atoms: C_7  and  C_10
    2  A    between atoms: C_7  and  C_15
    3  A    between atoms: C_8  and  C_12
    4  A    between atoms: N_9  and  C_12
    5  A    between atoms: C_10  and  N_25
                            x       y       z     vdW  Elec       q    Type
                         _______ _______ _______ _____ _____    ______ ____

>  <TORSDO>
F 5

$$$$
=
 OpenBabel11052412213D

 30 32  0  0  1  0  0  0  0  0999 V2000
  183.9840  178.5240  139.9090 C   0  0  2  0  0  0  0  0  0  0  0  0
  183.2810  177.6660  138.8310 C   0  0  1  0  0  3  0  0  0  0  0  0
  180.7250  178.0920  138.2320 C   0  0  1  0  0  3  0  0  0  0  0  0
  183.2470  178.4740  141.2800 C   0  0  2  0  0  3  0  0  0  0  0  0
  184.0580  179.8570  139.4860 O   0  0  0  0  0  1  0  0  0  0  0  0
  185.4150  177.9490  140.0790 C   0  0  2  0  0  3  0  0  0  0  0  0
  180.1270  178.5340  139.5710 C   0  0  2  0  0  3  0  0  0  0  0  0
  186.0830  178.2010  141.4370 C   0  0  0  0  0  2  0  0  0  0  0  0
  182.2770  175.3780  138.3020 C   0  0  0  0  0  2  0  0  0  0  0  0
  182.9150  176.2600  139.3510 C   0  0  0  0  0  2  0  0  0  0  0  0
  179.4570  176.6410  136.8810 O   0  0  0  0  0  0  0  0  0  0  0  0
  180.7740  175.4770  138.4300 C   0  0  0  0  0  2  0  0  0  0  0  0
  182.2130  178.4230  137.9940 C   0  0  2  0  0  3  0  0  0  0  0  0
  181.8260  179.0180  141.2350 C   0  0  0  0  0  2  0  0  0  0  0  0
  179.9710  179.9300  139.6040 O   0  0  0  0  0  1  0  0  0  0  0  0
  180.9060  178.0140  140.7050 N   0  0  0  0  0  0  0  0  0  0  0  0
  183.9990  179.1830  142.4180 C   0  0  0  0  0  2  0  0  0  0  0  0
  180.2750  176.7270  137.7810 C   0  0  0  0  0  0  0  0  0  0  0  0
  182.5210  178.3080  136.6300 O   0  0  0  0  0  1  0  0  0  0  0  0
  185.4820  179.4120  142.1310 C   0  0  0  0  0  2  0  0  0  0  0  0
  179.9670  177.6630  141.7620 C   0  0  0  0  0  2  0  0  0  0  0  0
  180.0870  178.6530  142.9110 C   0  0  2  0  0  3  0  0  0  0  0  0
  180.0800  177.8830  144.2210 C   0  0  0  0  0  1  0  0  0  0  0  0
  178.9310  179.5950  142.8770 C   0  0  0  0  0  3  0  0  0  0  0  0
  179.0920  180.7850  142.6520 O   0  0  0  0  0  0  0  0  0  0  0  0
  186.3550  178.2570  138.9100 C   0  0  0  0  0  2  0  0  0  0  0  0
  188.4750  176.6080  137.9500 O   0  0  0  0  0  0  0  0  0  0  0  0
  187.7410  178.3260  139.3560 N   0  0  0  0  0  2  0  0  0  0  0  0
  190.1200  177.4930  139.4180 C   0  0  0  0  0  1  0  0  0  0  0  0
  188.7410  177.4300  138.8660 C   0  0  0  0  0  0  0  0  0  0  0  0
  1  5  1  6  0  0  0
  1  6  1  0  0  0  0
  1  4  1  0  0  0  0
  2 10  1  1  0  0  0
  2  1  1  0  0  0  0
  3 18  1  1  0  0  0
  3  7  1  0  0  0  0
  4 14  1  6  0  0  0
  4 17  1  0  0  0  0
  6 26  1  6  0  0  0
  6  8  1  0  0  0  0
  7 15  1  6  0  0  0
  7 16  1  0  0  0  0
  8 20  1  0  0  0  0
  9 12  1  0  0  0  0
  9 10  1  0  0  0  0
 11 18  2  0  0  0  0
 13 19  1  6  0  0  0
 13  3  1  0  0  0  0
 13  2  1  0  0  0  0
 16 14  1  0  0  0  0
 16 21  1  0  0  0  0
 18 12  1  0  0  0  0
 20 17  1  0  0  0  0
 21 22  1  0  0  0  0
 22 23  1  1  0  0  0
 24 22  1  0  0  0  0
 25 24  2  0  0  0  0
 26 28  1  0  0  0  0
 27 30  2  0  0  0  0
 30 28  1  0  0  0  0
 30 29  1  0  0  0  0
M  END
>  <MODEL>
6

>  <REMARK>
 VINA RESULT:      -4.7      2.066      3.092
  Name = 
  5 active torsions:
  status: ('A' for Active; 'I' for Inactive)
    1  A    between atoms: C_7  and  C_10
    2  A    between atoms: C_7  and  C_15
    3  A    between atoms: C_8  and  C_12
    4  A    between atoms: N_9  and  C_12
    5  A    between atoms: C_10  and  N_25
                            x       y       z     vdW  Elec       q    Type
                         _______ _______ _______ _____ _____    ______ ____

>  <TORSDO>
F 5

$$$$
=
 OpenBabel11052412213D

 30 32  0  0  1  0  0  0  0  0999 V2000
  189.3010  177.3440  140.5260 C   0  0  2  0  0  0  0  0  0  0  0  0
  189.8770  176.6240  139.2840 C   0  0  1  0  0  3  0  0  0  0  0  0
  189.8430  177.8150  136.9070 C   0  0  1  0  0  3  0  0  0  0  0  0
  187.8180  177.7760  140.3260 C   0  0  2  0  0  3  0  0  0  0  0  0
  190.0650  178.4800  140.8190 O   0  0  0  0  0  1  0  0  0  0  0  0
  189.3830  176.3400  141.7070 C   0  0  2  0  0  3  0  0  0  0  0  0
  188.5590  178.6480  136.9570 C   0  0  2  0  0  3  0  0  0  0  0  0
  188.3770  176.5570  142.8440 C   0  0  0  0  0  2  0  0  0  0  0  0
  189.4840  174.7790  137.5630 C   0  0  0  0  0  2  0  0  0  0  0  0
  188.9220  175.5380  138.7440 C   0  0  0  0  0  2  0  0  0  0  0  0
  190.3600  176.7020  134.8990 O   0  0  0  0  0  0  0  0  0  0  0  0
  188.9810  175.4160  136.2880 C   0  0  0  0  0  2  0  0  0  0  0  0
  190.5590  177.5620  138.2490 C   0  0  2  0  0  3  0  0  0  0  0  0
  187.6140  178.7680  139.1890 C   0  0  0  0  0  2  0  0  0  0  0  0
  188.8560  179.9960  137.2190 O   0  0  0  0  0  1  0  0  0  0  0  0
  187.5870  178.0780  137.9010 N   0  0  0  0  0  0  0  0  0  0  0  0
  187.1600  178.3510  141.5910 C   0  0  0  0  0  2  0  0  0  0  0  0
  189.7750  176.6400  135.9670 C   0  0  0  0  0  0  0  0  0  0  0  0
  191.8740  177.1280  138.0220 O   0  0  0  0  0  1  0  0  0  0  0  0
  187.8920  177.9980  142.8840 C   0  0  0  0  0  2  0  0  0  0  0  0
  186.2590  178.2530  137.3270 C   0  0  0  0  0  2  0  0  0  0  0  0
  185.4120  177.0170  137.5930 C   0  0  2  0  0  3  0  0  0  0  0  0
  185.3240  176.2020  136.3150 C   0  0  0  0  0  1  0  0  0  0  0  0
  184.0450  177.4350  138.0180 C   0  0  0  0  0  3  0  0  0  0  0  0
  183.8820  178.2140  138.9450 O   0  0  0  0  0  0  0  0  0  0  0  0
  190.8030  176.1060  142.2300 C   0  0  0  0  0  2  0  0  0  0  0  0
  191.6800  178.0970  144.0730 O   0  0  0  0  0  0  0  0  0  0  0  0
  190.8090  175.9630  143.6810 N   0  0  0  0  0  2  0  0  0  0  0  0
  191.3720  176.7530  146.0090 C   0  0  0  0  0  1  0  0  0  0  0  0
  191.3140  176.9870  144.5410 C   0  0  0  0  0  0  0  0  0  0  0  0
  1  5  1  1  0  0  0
  1  6  1  0  0  0  0
  2 10  1  6  0  0  0
  2  1  1  0  0  0  0
  3 18  1  1  0  0  0
  3  7  1  0  0  0  0
  3 13  1  0  0  0  0
  4 14  1  6  0  0  0
  4  1  1  0  0  0  0
  4 17  1  0  0  0  0
  6 26  1  1  0  0  0
  6  8  1  0  0  0  0
  7 15  1  1  0  0  0
  7 16  1  0  0  0  0
  8 20  1  0  0  0  0
  9 10  1  0  0  0  0
 11 18  2  0  0  0  0
 12  9  1  0  0  0  0
 13 19  1  6  0  0  0
 13  2  1  0  0  0  0
 16 14  1  0  0  0  0
 17 20  1  0  0  0  0
 18 12  1  0  0  0  0
 21 22  1  0  0  0  0
 21 16  1  0  0  0  0
 22 23  1  6  0  0  0
 22 24  1  0  0  0  0
 24 25  2  0  0  0  0
 26 28  1  0  0  0  0
 27 30  2  0  0  0  0
 28 30  1  0  0  0  0
 30 29  1  0  0  0  0
M  END
>  <MODEL>
7

>  <REMARK>
 VINA RESULT:      -4.1      4.265      7.189
  Name = 
  5 active torsions:
  status: ('A' for Active; 'I' for Inactive)
    1  A    between atoms: C_7  and  C_10
    2  A    between atoms: C_7  and  C_15
    3  A    between atoms: C_8  and  C_12
    4  A    between atoms: N_9  and  C_12
    5  A    between atoms: C_10  and  N_25
                            x       y       z     vdW  Elec       q    Type
                         _______ _______ _______ _____ _____    ______ ____

>  <TORSDO>
F 5

$$$$
=
 OpenBabel11052412213D

 30 32  0  0  1  0  0  0  0  0999 V2000
  188.4000  177.7890  138.9630 C   0  0  2  0  0  0  0  0  0  0  0  0
  187.6120  177.2930  137.7270 C   0  0  1  0  0  3  0  0  0  0  0  0
  185.2750  178.3910  137.0950 C   0  0  1  0  0  3  0  0  0  0  0  0
  187.5610  177.7060  140.2730 C   0  0  2  0  0  3  0  0  0  0  0  0
  188.8050  179.1160  138.7720 O   0  0  0  0  0  1  0  0  0  0  0  0
  189.6470  176.8750  139.0990 C   0  0  2  0  0  3  0  0  0  0  0  0
  184.6840  178.7540  138.4610 C   0  0  2  0  0  3  0  0  0  0  0  0
  190.2410  176.7550  140.5080 C   0  0  0  0  0  2  0  0  0  0  0  0
  186.1680  175.4110  136.7820 C   0  0  0  0  0  2  0  0  0  0  0  0
  186.9000  175.9500  137.9910 C   0  0  0  0  0  2  0  0  0  0  0  0
  183.8290  177.5000  135.4670 O   0  0  0  0  0  0  0  0  0  0  0  0
  184.7200  175.8390  136.8570 C   0  0  0  0  0  2  0  0  0  0  0  0
  186.8130  178.3970  136.9820 C   0  0  2  0  0  3  0  0  0  0  0  0
  186.3070  178.5680  140.2560 C   0  0  0  0  0  2  0  0  0  0  0  0
  184.8430  180.1260  138.7180 O   0  0  0  0  0  1  0  0  0  0  0  0
  185.2320  177.9000  139.5260 N   0  0  0  0  0  0  0  0  0  0  0  0
  188.3580  178.0390  141.5450 C   0  0  0  0  0  2  0  0  0  0  0  0
  184.5690  177.2550  136.4040 C   0  0  0  0  0  0  0  0  0  0  0  0
  187.1980  178.4210  135.6320 O   0  0  0  0  0  1  0  0  0  0  0  0
  189.8730  177.9540  141.3670 C   0  0  0  0  0  2  0  0  0  0  0  0
  184.1550  177.6230  140.4670 C   0  0  0  0  0  2  0  0  0  0  0  0
  182.8300  177.5230  139.7240 C   0  0  2  0  0  3  0  0  0  0  0  0
  181.7720  178.2790  140.5100 C   0  0  0  0  0  1  0  0  0  0  0  0
  182.4370  176.0890  139.6030 C   0  0  0  0  0  3  0  0  0  0  0  0
  181.2960  175.7250  139.8430 O   0  0  0  0  0  0  0  0  0  0  0  0
  190.7240  177.1270  138.0400 C   0  0  0  0  0  2  0  0  0  0  0  0
  193.5240  176.8150  138.4770 O   0  0  0  0  0  0  0  0  0  0  0  0
  191.4860  175.9140  137.7690 N   0  0  0  0  0  2  0  0  0  0  0  0
  193.6380  174.6120  137.5930 C   0  0  0  0  0  1  0  0  0  0  0  0
  192.9000  175.8480  137.9650 C   0  0  0  0  0  0  0  0  0  0  0  0
  1  5  1  6  0  0  0
  1  6  1  0  0  0  0
  1  4  1  0  0  0  0
  2 10  1  1  0  0  0
  2  1  1  0  0  0  0
  3 18  1  1  0  0  0
  3  7  1  0  0  0  0
  4 14  1  6  0  0  0
  4 17  1  0  0  0  0
  6 26  1  6  0  0  0
  6  8  1  0  0  0  0
  7 15  1  1  0  0  0
  7 16  1  0  0  0  0
  8 20  1  0  0  0  0
  9 12  1  0  0  0  0
  9 10  1  0  0  0  0
 11 18  2  0  0  0  0
 13 19  1  6  0  0  0
 13  3  1  0  0  0  0
 13  2  1  0  0  0  0
 16 14  1  0  0  0  0
 16 21  1  0  0  0  0
 18 12  1  0  0  0  0
 20 17  1  0  0  0  0
 22 21  1  0  0  0  0
 22 23  1  1  0  0  0
 24 22  1  0  0  0  0
 24 25  2  0  0  0  0
 28 30  1  0  0  0  0
 28 26  1  0  0  0  0
 29 30  1  0  0  0  0
 30 27  2  0  0  0  0
M  END
>  <MODEL>
8

>  <REMARK>
 VINA RESULT:      -4.1      3.459      5.601
  Name = 
  5 active torsions:
  status: ('A' for Active; 'I' for Inactive)
    1  A    between atoms: C_7  and  C_10
    2  A    between atoms: C_7  and  C_15
    3  A    between atoms: C_8  and  C_12
    4  A    between atoms: N_9  and  C_12
    5  A    between atoms: C_10  and  N_25
                            x       y       z     vdW  Elec       q    Type
                         _______ _______ _______ _____ _____    ______ ____

>  <TORSDO>
F 5

$$$$
=
 OpenBabel11052412213D

 30 32  0  0  1  0  0  0  0  0999 V2000
  183.1660  178.4540  140.5530 C   0  0  2  0  0  0  0  0  0  0  0  0
  183.6260  177.5290  139.4010 C   0  0  1  0  0  3  0  0  0  0  0  0
  182.6650  177.8650  136.9450 C   0  0  1  0  0  3  0  0  0  0  0  0
  181.6190  178.4500  140.7340 C   0  0  2  0  0  3  0  0  0  0  0  0
  183.5870  179.7670  140.3110 O   0  0  0  0  0  1  0  0  0  0  0  0
  183.8310  177.9220  141.8510 C   0  0  2  0  0  3  0  0  0  0  0  0
  181.2360  178.3560  137.1980 C   0  0  2  0  0  3  0  0  0  0  0  0
  183.1060  178.2530  143.1610 C   0  0  0  0  0  2  0  0  0  0  0  0
  183.4290  175.1960  138.3820 C   0  0  0  0  0  2  0  0  0  0  0  0
  182.9550  176.1410  139.4640 C   0  0  0  0  0  2  0  0  0  0  0  0
  183.0110  176.3230  135.2020 O   0  0  0  0  0  0  0  0  0  0  0  0
  182.4670  175.2650  137.2190 C   0  0  0  0  0  2  0  0  0  0  0  0
  183.7200  178.2210  138.0130 C   0  0  2  0  0  3  0  0  0  0  0  0
  180.8560  178.9570  139.5180 C   0  0  0  0  0  2  0  0  0  0  0  0
  181.1550  179.7480  137.0240 O   0  0  0  0  0  1  0  0  0  0  0  0
  180.7400  177.9080  138.5080 N   0  0  0  0  0  0  0  0  0  0  0  0
  181.1340  179.2300  141.9670 C   0  0  0  0  0  2  0  0  0  0  0  0
  182.7440  176.4710  136.3820 C   0  0  0  0  0  0  0  0  0  0  0  0
  185.0120  178.0490  137.4920 O   0  0  0  0  0  1  0  0  0  0  0  0
  182.2230  179.4810  143.0090 C   0  0  0  0  0  2  0  0  0  0  0  0
  179.3280  177.5850  138.3570 C   0  0  0  0  0  2  0  0  0  0  0  0
  179.0610  176.1760  138.8680 C   0  0  2  0  0  3  0  0  0  0  0  0
  180.0030  175.8890  140.0240 C   0  0  0  0  0  1  0  0  0  0  0  0
  179.3020  175.1960  137.7690 C   0  0  0  0  0  3  0  0  0  0  0  0
  179.3150  173.9940  137.9860 O   0  0  0  0  0  0  0  0  0  0  0  0
  185.3350  178.1970  141.9390 C   0  0  0  0  0  2  0  0  0  0  0  0
  187.4350  176.7540  143.2180 O   0  0  0  0  0  0  0  0  0  0  0  0
  185.7540  178.3750  143.3240 N   0  0  0  0  0  2  0  0  0  0  0  0
  187.1120  177.7460  145.3540 C   0  0  0  0  0  1  0  0  0  0  0  0
  186.7830  177.5770  143.9130 C   0  0  0  0  0  0  0  0  0  0  0  0
  1  5  1  6  0  0  0
  1  4  1  0  0  0  0
  1  6  1  0  0  0  0
  2 10  1  6  0  0  0
  2  1  1  0  0  0  0
  3 18  1  1  0  0  0
  3  7  1  0  0  0  0
  3 13  1  0  0  0  0
  4 14  1  6  0  0  0
  4 17  1  0  0  0  0
  6 26  1  1  0  0  0
  6  8  1  0  0  0  0
  7 15  1  1  0  0  0
  7 16  1  0  0  0  0
  9 10  1  0  0  0  0
 11 18  2  0  0  0  0
 12  9  1  0  0  0  0
 13 19  1  6  0  0  0
 13  2  1  0  0  0  0
 16 14  1  0  0  0  0
 17 20  1  0  0  0  0
 18 12  1  0  0  0  0
 20  8  1  0  0  0  0
 21 16  1  0  0  0  0
 21 22  1  0  0  0  0
 22 23  1  1  0  0  0
 24 25  2  0  0  0  0
 24 22  1  0  0  0  0
 26 28  1  0  0  0  0
 27 30  2  0  0  0  0
 28 30  1  0  0  0  0
 30 29  1  0  0  0  0
M  END
>  <MODEL>
9

>  <REMARK>
 VINA RESULT:      -3.9      1.796      2.109
  Name = 
  5 active torsions:
  status: ('A' for Active; 'I' for Inactive)
    1  A    between atoms: C_7  and  C_10
    2  A    between atoms: C_7  and  C_15
    3  A    between atoms: C_8  and  C_12
    4  A    between atoms: N_9  and  C_12
    5  A    between atoms: C_10  and  N_25
                            x       y       z     vdW  Elec       q    Type
                         _______ _______ _______ _____ _____    ______ ____

>  <TORSDO>
F 5

$$$$
