=
 OpenBabel11052412223D

 30 32  0  0  1  0  0  0  0  0999 V2000
  182.7270  178.5300  140.0220 C   0  0  1  0  0  3  0  0  0  0  0  0
  183.7180  177.3080  137.9630 C   0  0  2  0  0  3  0  0  0  0  0  0
  183.2780  179.6790  139.4280 O   0  0  0  0  0  0  0  0  0  0  0  0
  180.9080  179.6270  136.4910 C   0  0  0  0  0  2  0  0  0  0  0  0
  181.7410  178.9260  137.5530 C   0  0  2  0  0  3  0  0  0  0  0  0
  181.4580  181.4310  138.5480 S   0  0  0  0  0  0  0  0  0  0  0  0
  182.5670  180.0310  138.2500 C   0  0  1  0  0  3  0  0  0  0  0  0
  182.5770  177.7450  137.0050 C   0  0  2  0  0  3  0  0  0  0  0  0
  180.7010  181.0160  136.9860 C   0  0  0  0  0  0  0  0  0  0  0  0
  180.1270  181.8540  136.3120 O   0  0  0  0  0  0  0  0  0  0  0  0
  183.3700  177.2450  139.4670 C   0  0  2  0  0  3  0  0  0  0  0  0
  181.7460  178.9520  142.3470 C   0  0  0  0  0  0  0  0  0  0  0  0
  181.9230  179.0100  143.7340 C   0  0  0  0  0  3  0  0  0  0  0  0
  180.1520  179.3140  141.7010 Cl  0  0  0  0  0  0  0  0  0  0  0  0
  184.0800  178.3300  142.0940 C   0  0  0  0  0  3  0  0  0  0  0  0
  185.4550  178.1180  144.0280 F   0  0  0  0  0  0  0  0  0  0  0  0
  182.8360  178.6080  141.5160 C   0  0  0  0  0  0  0  0  0  0  0  0
  183.1690  178.7290  144.2990 C   0  0  0  0  0  3  0  0  0  0  0  0
  184.2460  178.3890  143.4790 C   0  0  0  0  0  0  0  0  0  0  0  0
  186.2090  176.3150  136.9550 O   0  0  0  0  0  0  0  0  0  0  0  0
  186.1290  177.5430  137.2240 C   0  0  0  0  0  0  0  0  0  0  0  0
  187.3070  178.4220  137.0010 C   0  0  0  0  0  1  0  0  0  0  0  0
  184.9230  178.0990  137.7460 N   0  0  0  0  0  2  0  0  0  0  0  0
  182.5060  175.2600  136.4250 C   0  0  0  0  0  1  0  0  0  0  0  0
  181.6910  176.5320  136.6310 C   0  0  2  0  0  3  0  0  0  0  0  0
  180.8440  176.7730  135.3840 C   0  0  0  0  0  2  0  0  0  0  0  0
  179.5070  176.4460  135.6210 O   0  0  0  0  0  1  0  0  0  0  0  0
  182.4960  176.0370  139.7830 C   0  0  0  0  0  2  0  0  0  0  0  0
  180.2170  175.3290  139.6890 O   0  0  0  0  0  1  0  0  0  0  0  0
  181.0350  176.4400  139.8960 C   0  0  0  0  0  2  0  0  0  0  0  0
  1 17  1  1  0  0  0
  2 23  1  1  0  0  0
  2 11  1  0  0  0  0
  3  1  1  0  0  0  0
  4  9  1  0  0  0  0
  5  4  1  6  0  0  0
  5  7  1  0  0  0  0
  7  6  1  1  0  0  0
  7  3  1  0  0  0  0
  8 25  1  1  0  0  0
  8  5  1  0  0  0  0
  8  2  1  0  0  0  0
  9  6  1  0  0  0  0
 10  9  2  0  0  0  0
 11 28  1  6  0  0  0
 11  1  1  0  0  0  0
 12 13  1  0  0  0  0
 13 18  2  0  0  0  0
 14 12  1  0  0  0  0
 15 19  2  0  0  0  0
 17 15  1  0  0  0  0
 17 12  2  0  0  0  0
 19 16  1  0  0  0  0
 19 18  1  0  0  0  0
 20 21  2  0  0  0  0
 21 23  1  0  0  0  0
 22 21  1  0  0  0  0
 25 24  1  6  0  0  0
 26 27  1  0  0  0  0
 26 25  1  0  0  0  0
 28 30  1  0  0  0  0
 29 30  1  0  0  0  0
M  END
>  <MODEL>
1

>  <REMARK>
 VINA RESULT:      -5.7      0.000      0.000
  Name = 
  6 active torsions:
  status: ('A' for Active; 'I' for Inactive)
    1  A    between atoms: C_1  and  C_22
    2  A    between atoms: C_4  and  N_25
    3  A    between atoms: C_7  and  C_30
    4  A    between atoms: C_10  and  C_23
    5  A    between atoms: C_10  and  C_26
    6  A    between atoms: C_13  and  C_30
                            x       y       z     vdW  Elec       q    Type
                         _______ _______ _______ _____ _____    ______ ____

>  <TORSDO>
F 6

$$$$
=
 OpenBabel11052412223D

 30 32  0  0  1  0  0  0  0  0999 V2000
  182.5090  178.2790  140.0690 C   0  0  1  0  0  3  0  0  0  0  0  0
  180.0820  177.8860  139.2560 C   0  0  2  0  0  3  0  0  0  0  0  0
  182.7100  176.9460  139.6670 O   0  0  0  0  0  0  0  0  0  0  0  0
  182.2690  177.7030  135.9960 C   0  0  0  0  0  2  0  0  0  0  0  0
  181.9460  177.9460  137.4620 C   0  0  2  0  0  3  0  0  0  0  0  0
  184.3370  176.6750  137.5620 S   0  0  0  0  0  0  0  0  0  0  0  0
  182.6710  176.8330  138.2530 C   0  0  1  0  0  3  0  0  0  0  0  0
  180.4300  178.0590  137.7520 C   0  0  2  0  0  3  0  0  0  0  0  0
  183.5880  177.0150  135.9770 C   0  0  0  0  0  0  0  0  0  0  0  0
  184.0870  176.6170  134.9380 O   0  0  0  0  0  0  0  0  0  0  0  0
  181.0150  178.5900  140.2650 C   0  0  2  0  0  3  0  0  0  0  0  0
  184.6970  178.8460  141.2690 C   0  0  0  0  0  0  0  0  0  0  0  0
  185.3790  179.1160  142.4600 C   0  0  0  0  0  3  0  0  0  0  0  0
  185.6160  178.8510  139.7700 Cl  0  0  0  0  0  0  0  0  0  0  0  0
  182.6360  178.5940  142.5280 C   0  0  0  0  0  3  0  0  0  0  0  0
  182.6640  178.8740  144.8940 F   0  0  0  0  0  0  0  0  0  0  0  0
  183.3100  178.5810  141.3010 C   0  0  0  0  0  0  0  0  0  0  0  0
  184.6960  179.1250  143.6790 C   0  0  0  0  0  3  0  0  0  0  0  0
  183.3260  178.8650  143.7120 C   0  0  0  0  0  0  0  0  0  0  0  0
  178.9500  176.8860  141.6900 O   0  0  0  0  0  0  0  0  0  0  0  0
  179.3270  176.0490  140.8280 C   0  0  0  0  0  0  0  0  0  0  0  0
  179.1650  174.5960  141.0940 C   0  0  0  0  0  1  0  0  0  0  0  0
  179.9160  176.4800  139.6010 N   0  0  0  0  0  2  0  0  0  0  0  0
  178.9310  179.1530  135.9990 C   0  0  0  0  0  1  0  0  0  0  0  0
  179.8330  179.3790  137.2080 C   0  0  2  0  0  3  0  0  0  0  0  0
  180.8970  180.4070  136.8340 C   0  0  0  0  0  2  0  0  0  0  0  0
  180.5300  181.1070  135.6820 O   0  0  0  0  0  1  0  0  0  0  0  0
  180.7830  180.0970  140.2750 C   0  0  0  0  0  2  0  0  0  0  0  0
  179.8940  180.8070  142.3740 O   0  0  0  0  0  1  0  0  0  0  0  0
  179.5390  180.4480  141.0730 C   0  0  0  0  0  2  0  0  0  0  0  0
  1 11  1  0  0  0  0
  1 17  1  1  0  0  0
  2 23  1  1  0  0  0
  2 11  1  0  0  0  0
  3  1  1  0  0  0  0
  5  4  1  6  0  0  0
  5  8  1  0  0  0  0
  5  7  1  0  0  0  0
  7  6  1  6  0  0  0
  7  3  1  0  0  0  0
  8 25  1  1  0  0  0
  8  2  1  0  0  0  0
  9  4  1  0  0  0  0
  9  6  1  0  0  0  0
 10  9  2  0  0  0  0
 11 28  1  6  0  0  0
 12 17  2  0  0  0  0
 12 13  1  0  0  0  0
 13 18  2  0  0  0  0
 14 12  1  0  0  0  0
 15 19  2  0  0  0  0
 17 15  1  0  0  0  0
 18 19  1  0  0  0  0
 19 16  1  0  0  0  0
 21 22  1  0  0  0  0
 21 20  2  0  0  0  0
 23 21  1  0  0  0  0
 25 24  1  6  0  0  0
 26 25  1  0  0  0  0
 27 26  1  0  0  0  0
 28 30  1  0  0  0  0
 30 29  1  0  0  0  0
M  END
>  <MODEL>
2

>  <REMARK>
 VINA RESULT:      -5.6      2.655      4.652
  Name = 
  6 active torsions:
  status: ('A' for Active; 'I' for Inactive)
    1  A    between atoms: C_1  and  C_22
    2  A    between atoms: C_4  and  N_25
    3  A    between atoms: C_7  and  C_30
    4  A    between atoms: C_10  and  C_23
    5  A    between atoms: C_10  and  C_26
    6  A    between atoms: C_13  and  C_30
                            x       y       z     vdW  Elec       q    Type
                         _______ _______ _______ _____ _____    ______ ____

>  <TORSDO>
F 6

$$$$
=
 OpenBabel11052412223D

 30 32  0  0  1  0  0  0  0  0999 V2000
  183.1750  177.0680  138.5890 C   0  0  1  0  0  3  0  0  0  0  0  0
  182.1230  178.9900  139.9700 C   0  0  2  0  0  3  0  0  0  0  0  0
  183.9540  178.0930  138.0210 O   0  0  0  0  0  0  0  0  0  0  0  0
  185.8470  178.7920  141.2100 C   0  0  0  0  0  2  0  0  0  0  0  0
  184.5890  178.3790  140.4620 C   0  0  2  0  0  3  0  0  0  0  0  0
  186.5520  177.9600  138.6420 S   0  0  0  0  0  0  0  0  0  0  0  0
  184.8880  178.5990  138.9620 C   0  0  1  0  0  3  0  0  0  0  0  0
  183.3060  179.0790  140.9720 C   0  0  2  0  0  3  0  0  0  0  0  0
  186.9740  178.5720  140.2650 C   0  0  0  0  0  0  0  0  0  0  0  0
  188.1180  178.8840  140.5510 O   0  0  0  0  0  0  0  0  0  0  0  0
  181.9140  177.6300  139.2680 C   0  0  2  0  0  3  0  0  0  0  0  0
  182.0830  176.3170  136.4000 C   0  0  0  0  0  0  0  0  0  0  0  0
  181.8050  175.2980  135.4840 C   0  0  0  0  0  3  0  0  0  0  0  0
  181.4660  177.9280  136.0580 Cl  0  0  0  0  0  0  0  0  0  0  0  0
  183.3030  174.7280  137.7710 C   0  0  0  0  0  3  0  0  0  0  0  0
  183.4740  172.4580  137.0670 F   0  0  0  0  0  0  0  0  0  0  0  0
  182.8400  176.0310  137.5580 C   0  0  0  0  0  0  0  0  0  0  0  0
  182.2720  174.0010  135.7070 C   0  0  0  0  0  3  0  0  0  0  0  0
  183.0210  173.7160  136.8500 C   0  0  0  0  0  0  0  0  0  0  0  0
  180.2260  181.1250  139.7410 O   0  0  0  0  0  0  0  0  0  0  0  0
  181.2030  181.1160  138.9450 C   0  0  0  0  0  0  0  0  0  0  0  0
  181.3420  182.2010  137.9400 C   0  0  0  0  0  1  0  0  0  0  0  0
  182.1740  180.0710  138.9950 N   0  0  0  0  0  2  0  0  0  0  0  0
  181.4650  178.9980  142.7390 C   0  0  0  0  0  1  0  0  0  0  0  0
  182.8760  178.5570  142.3650 C   0  0  2  0  0  3  0  0  0  0  0  0
  183.8280  178.9770  143.4810 C   0  0  0  0  0  2  0  0  0  0  0  0
  183.2240  178.8330  144.7320 O   0  0  0  0  0  1  0  0  0  0  0  0
  181.3230  176.5990  140.2240 C   0  0  0  0  0  2  0  0  0  0  0  0
  179.3060  176.4630  141.4940 O   0  0  0  0  0  1  0  0  0  0  0  0
  179.8040  176.6520  140.2050 C   0  0  0  0  0  2  0  0  0  0  0  0
  1 17  1  6  0  0  0
  1 11  1  0  0  0  0
  2 23  1  6  0  0  0
  2  8  1  0  0  0  0
  3  1  1  0  0  0  0
  5  8  1  0  0  0  0
  5  4  1  1  0  0  0
  6  7  1  0  0  0  0
  6  9  1  0  0  0  0
  7  3  1  6  0  0  0
  7  5  1  0  0  0  0
  8 25  1  1  0  0  0
  9 10  2  0  0  0  0
  9  4  1  0  0  0  0
 11  2  1  0  0  0  0
 11 28  1  1  0  0  0
 12 17  1  0  0  0  0
 13 18  1  0  0  0  0
 13 12  2  0  0  0  0
 14 12  1  0  0  0  0
 17 15  2  0  0  0  0
 18 19  2  0  0  0  0
 19 16  1  0  0  0  0
 19 15  1  0  0  0  0
 21 23  1  0  0  0  0
 21 20  2  0  0  0  0
 22 21  1  0  0  0  0
 25 24  1  1  0  0  0
 25 26  1  0  0  0  0
 26 27  1  0  0  0  0
 30 28  1  0  0  0  0
 30 29  1  0  0  0  0
M  END
>  <MODEL>
3

>  <REMARK>
 VINA RESULT:      -5.2      3.118      6.360
  Name = 
  6 active torsions:
  status: ('A' for Active; 'I' for Inactive)
    1  A    between atoms: C_1  and  C_22
    2  A    between atoms: C_4  and  N_25
    3  A    between atoms: C_7  and  C_30
    4  A    between atoms: C_10  and  C_23
    5  A    between atoms: C_10  and  C_26
    6  A    between atoms: C_13  and  C_30
                            x       y       z     vdW  Elec       q    Type
                         _______ _______ _______ _____ _____    ______ ____

>  <TORSDO>
F 6

$$$$
=
 OpenBabel11052412223D

 30 32  0  0  1  0  0  0  0  0999 V2000
  183.2710  175.2470  137.1450 C   0  0  1  0  0  3  0  0  0  0  0  0
  182.3280  177.5600  137.8350 C   0  0  2  0  0  3  0  0  0  0  0  0
  183.6450  175.9110  135.9630 O   0  0  0  0  0  0  0  0  0  0  0  0
  186.2210  178.0750  137.6740 C   0  0  0  0  0  2  0  0  0  0  0  0
  184.8990  177.3230  137.6600 C   0  0  2  0  0  3  0  0  0  0  0  0
  186.2890  176.1620  135.6450 S   0  0  0  0  0  0  0  0  0  0  0  0
  184.7020  176.8260  136.2100 C   0  0  1  0  0  3  0  0  0  0  0  0
  183.7140  178.1410  138.2270 C   0  0  2  0  0  3  0  0  0  0  0  0
  187.0450  177.4720  136.5920 C   0  0  0  0  0  0  0  0  0  0  0  0
  188.1430  177.9160  136.3030 O   0  0  0  0  0  0  0  0  0  0  0  0
  182.1800  176.0230  137.9050 C   0  0  2  0  0  3  0  0  0  0  0  0
  183.6610  172.7180  137.1240 C   0  0  0  0  0  0  0  0  0  0  0  0
  183.2030  171.4340  136.8120 C   0  0  0  0  0  3  0  0  0  0  0  0
  185.2510  172.8730  137.8600 Cl  0  0  0  0  0  0  0  0  0  0  0  0
  181.5910  173.6480  136.2590 C   0  0  0  0  0  3  0  0  0  0  0  0
  179.9240  172.1880  135.3840 F   0  0  0  0  0  0  0  0  0  0  0  0
  182.8480  173.8390  136.8450 C   0  0  0  0  0  0  0  0  0  0  0  0
  181.9470  171.2560  136.2270 C   0  0  0  0  0  3  0  0  0  0  0  0
  181.1420  172.3620  135.9510 C   0  0  0  0  0  0  0  0  0  0  0  0
  180.7650  179.9200  137.3970 O   0  0  0  0  0  0  0  0  0  0  0  0
  181.1260  179.2560  136.3890 C   0  0  0  0  0  0  0  0  0  0  0  0
  180.7450  179.7190  135.0300 C   0  0  0  0  0  1  0  0  0  0  0  0
  181.8920  178.0610  136.5380 N   0  0  0  0  0  2  0  0  0  0  0  0
  182.5240  178.8620  140.3670 C   0  0  0  0  0  1  0  0  0  0  0  0
  183.8120  178.3170  139.7610 C   0  0  2  0  0  3  0  0  0  0  0  0
  184.9680  179.2190  140.1860 C   0  0  0  0  0  2  0  0  0  0  0  0
  184.9790  179.3940  141.5720 O   0  0  0  0  0  1  0  0  0  0  0  0
  182.0950  175.5410  139.3490 C   0  0  0  0  0  2  0  0  0  0  0  0
  180.0620  174.2910  139.4330 O   0  0  0  0  0  1  0  0  0  0  0  0
  180.6510  175.4950  139.8200 C   0  0  0  0  0  2  0  0  0  0  0  0
  1 17  1  6  0  0  0
  1 11  1  0  0  0  0
  2 23  1  6  0  0  0
  2 11  1  0  0  0  0
  2  8  1  0  0  0  0
  3  7  1  0  0  0  0
  3  1  1  0  0  0  0
  5  4  1  6  0  0  0
  5  8  1  0  0  0  0
  6  9  1  0  0  0  0
  7  6  1  1  0  0  0
  7  5  1  0  0  0  0
  8 25  1  1  0  0  0
  9  4  1  0  0  0  0
 10  9  2  0  0  0  0
 11 28  1  1  0  0  0
 12 14  1  0  0  0  0
 13 12  2  0  0  0  0
 15 17  2  0  0  0  0
 16 19  1  0  0  0  0
 17 12  1  0  0  0  0
 18 13  1  0  0  0  0
 19 18  2  0  0  0  0
 19 15  1  0  0  0  0
 21 23  1  0  0  0  0
 21 20  2  0  0  0  0
 22 21  1  0  0  0  0
 25 26  1  0  0  0  0
 25 24  1  6  0  0  0
 26 27  1  0  0  0  0
 28 30  1  0  0  0  0
 29 30  1  0  0  0  0
M  END
>  <MODEL>
4

>  <REMARK>
 VINA RESULT:      -5.2      3.692      6.690
  Name = 
  6 active torsions:
  status: ('A' for Active; 'I' for Inactive)
    1  A    between atoms: C_1  and  C_22
    2  A    between atoms: C_4  and  N_25
    3  A    between atoms: C_7  and  C_30
    4  A    between atoms: C_10  and  C_23
    5  A    between atoms: C_10  and  C_26
    6  A    between atoms: C_13  and  C_30
                            x       y       z     vdW  Elec       q    Type
                         _______ _______ _______ _____ _____    ______ ____

>  <TORSDO>
F 6

$$$$
=
 OpenBabel11052412223D

 30 32  0  0  1  0  0  0  0  0999 V2000
  190.3240  176.5070  138.9490 C   0  0  1  0  0  3  0  0  0  0  0  0
  188.5960  175.8000  137.1540 C   0  0  2  0  0  3  0  0  0  0  0  0
  190.8740  175.2330  138.7180 O   0  0  0  0  0  0  0  0  0  0  0  0
  192.0040  176.0580  135.2130 C   0  0  0  0  0  2  0  0  0  0  0  0
  191.0320  176.1960  136.3750 C   0  0  2  0  0  3  0  0  0  0  0  0
  193.2870  175.2790  137.5650 S   0  0  0  0  0  0  0  0  0  0  0  0
  191.4840  175.1690  137.4380 C   0  0  1  0  0  3  0  0  0  0  0  0
  189.5460  176.0790  135.9570 C   0  0  2  0  0  3  0  0  0  0  0  0
  193.2780  175.5680  135.8040 C   0  0  0  0  0  0  0  0  0  0  0  0
  194.2380  175.2860  135.1070 O   0  0  0  0  0  0  0  0  0  0  0  0
  188.8700  176.5920  138.4520 C   0  0  2  0  0  3  0  0  0  0  0  0
  191.6460  177.3240  140.9820 C   0  0  0  0  0  0  0  0  0  0  0  0
  191.6800  177.6440  142.3440 C   0  0  0  0  0  3  0  0  0  0  0  0
  193.1270  177.5040  140.0520 Cl  0  0  0  0  0  0  0  0  0  0  0  0
  189.2950  176.7530  141.1950 C   0  0  0  0  0  3  0  0  0  0  0  0
  188.2250  176.9550  143.3140 F   0  0  0  0  0  0  0  0  0  0  0  0
  190.4400  176.8730  140.4000 C   0  0  0  0  0  0  0  0  0  0  0  0
  190.5310  177.5200  143.1280 C   0  0  0  0  0  3  0  0  0  0  0  0
  189.3400  177.0750  142.5540 C   0  0  0  0  0  0  0  0  0  0  0  0
  186.7590  173.9780  135.9230 O   0  0  0  0  0  0  0  0  0  0  0  0
  187.5710  173.5160  136.7680 C   0  0  0  0  0  0  0  0  0  0  0  0
  187.5560  172.0640  137.0840 C   0  0  0  0  0  1  0  0  0  0  0  0
  188.5010  174.3720  137.4310 N   0  0  0  0  0  2  0  0  0  0  0  0
  189.4300  178.6280  135.8580 C   0  0  0  0  0  1  0  0  0  0  0  0
  189.0670  177.3190  135.1650 C   0  0  2  0  0  3  0  0  0  0  0  0
  187.5640  177.3130  134.8960 C   0  0  0  0  0  2  0  0  0  0  0  0
  187.0250  178.5910  135.0590 O   0  0  0  0  0  1  0  0  0  0  0  0
  188.4420  178.0480  138.3120 C   0  0  0  0  0  2  0  0  0  0  0  0
  186.7040  178.6280  139.8440 O   0  0  0  0  0  1  0  0  0  0  0  0
  186.9470  178.1970  138.5390 C   0  0  0  0  0  2  0  0  0  0  0  0
  1 17  1  1  0  0  0
  2 23  1  1  0  0  0
  2 11  1  0  0  0  0
  3  1  1  0  0  0  0
  4  9  1  0  0  0  0
  5  4  1  6  0  0  0
  5  7  1  0  0  0  0
  7  6  1  1  0  0  0
  7  3  1  0  0  0  0
  8 25  1  1  0  0  0
  8  5  1  0  0  0  0
  8  2  1  0  0  0  0
  9  6  1  0  0  0  0
 10  9  2  0  0  0  0
 11 28  1  6  0  0  0
 11  1  1  0  0  0  0
 12 13  1  0  0  0  0
 13 18  2  0  0  0  0
 14 12  1  0  0  0  0
 15 19  2  0  0  0  0
 17 12  2  0  0  0  0
 17 15  1  0  0  0  0
 19 18  1  0  0  0  0
 19 16  1  0  0  0  0
 20 21  2  0  0  0  0
 21 22  1  0  0  0  0
 21 23  1  0  0  0  0
 25 24  1  1  0  0  0
 26 27  1  0  0  0  0
 26 25  1  0  0  0  0
 28 30  1  0  0  0  0
 30 29  1  0  0  0  0
M  END
>  <MODEL>
5

>  <REMARK>
 VINA RESULT:      -4.9      6.287      8.592
  Name = 
  6 active torsions:
  status: ('A' for Active; 'I' for Inactive)
    1  A    between atoms: C_1  and  C_22
    2  A    between atoms: C_4  and  N_25
    3  A    between atoms: C_7  and  C_30
    4  A    between atoms: C_10  and  C_23
    5  A    between atoms: C_10  and  C_26
    6  A    between atoms: C_13  and  C_30
                            x       y       z     vdW  Elec       q    Type
                         _______ _______ _______ _____ _____    ______ ____

>  <TORSDO>
F 6

$$$$
=
 OpenBabel11052412223D

 30 32  0  0  1  0  0  0  0  0999 V2000
  182.1840  177.6980  139.4800 C   0  0  1  0  0  3  0  0  0  0  0  0
  180.4680  179.5180  140.1550 C   0  0  2  0  0  3  0  0  0  0  0  0
  183.1250  178.7350  139.6160 O   0  0  0  0  0  0  0  0  0  0  0  0
  182.6910  179.0040  143.3550 C   0  0  0  0  0  2  0  0  0  0  0  0
  182.1500  178.7350  141.9600 C   0  0  2  0  0  3  0  0  0  0  0  0
  184.8230  178.4080  141.6560 S   0  0  0  0  0  0  0  0  0  0  0  0
  183.2890  179.0930  140.9790 C   0  0  1  0  0  3  0  0  0  0  0  0
  180.8040  179.4420  141.6700 C   0  0  2  0  0  3  0  0  0  0  0  0
  184.1650  178.8250  143.2620 C   0  0  0  0  0  0  0  0  0  0  0  0
  184.8970  179.0480  144.2120 O   0  0  0  0  0  0  0  0  0  0  0  0
  180.7560  178.2500  139.3210 C   0  0  2  0  0  3  0  0  0  0  0  0
  182.3820  177.1440  136.9890 C   0  0  0  0  0  0  0  0  0  0  0  0
  182.7550  176.2450  135.9840 C   0  0  0  0  0  3  0  0  0  0  0  0
  181.6980  178.6900  136.5050 Cl  0  0  0  0  0  0  0  0  0  0  0  0
  183.1140  175.5460  138.6640 C   0  0  0  0  0  3  0  0  0  0  0  0
  184.0160  173.4520  137.9740 F   0  0  0  0  0  0  0  0  0  0  0  0
  182.5630  176.7920  138.3450 C   0  0  0  0  0  0  0  0  0  0  0  0
  183.3040  175.0040  136.3150 C   0  0  0  0  0  3  0  0  0  0  0  0
  183.4840  174.6550  137.6540 C   0  0  0  0  0  0  0  0  0  0  0  0
  179.3000  181.1010  138.0730 O   0  0  0  0  0  0  0  0  0  0  0  0
  180.4290  181.4460  138.5130 C   0  0  0  0  0  0  0  0  0  0  0  0
  181.1000  182.6480  137.9540 C   0  0  0  0  0  1  0  0  0  0  0  0
  181.0750  180.6900  139.5370 N   0  0  0  0  0  2  0  0  0  0  0  0
  179.0610  179.7370  143.5120 C   0  0  0  0  0  1  0  0  0  0  0  0
  179.6320  178.8010  142.4520 C   0  0  2  0  0  3  0  0  0  0  0  0
  180.0100  177.4820  143.1210 C   0  0  0  0  0  2  0  0  0  0  0  0
  179.6770  177.4990  144.4770 O   0  0  0  0  0  1  0  0  0  0  0  0
  179.7310  177.1570  139.6030 C   0  0  0  0  0  2  0  0  0  0  0  0
  179.2040  175.5060  137.9600 O   0  0  0  0  0  1  0  0  0  0  0  0
  178.9410  176.8190  138.3500 C   0  0  0  0  0  2  0  0  0  0  0  0
  1 17  1  6  0  0  0
  1  3  1  0  0  0  0
  2 23  1  6  0  0  0
  2  8  1  0  0  0  0
  5  4  1  1  0  0  0
  6  9  1  0  0  0  0
  7  3  1  6  0  0  0
  7  6  1  0  0  0  0
  7  5  1  0  0  0  0
  8  5  1  0  0  0  0
  8 25  1  1  0  0  0
  9  4  1  0  0  0  0
  9 10  2  0  0  0  0
 11  1  1  0  0  0  0
 11 28  1  1  0  0  0
 11  2  1  0  0  0  0
 12 17  1  0  0  0  0
 13 18  1  0  0  0  0
 13 12  2  0  0  0  0
 14 12  1  0  0  0  0
 17 15  2  0  0  0  0
 18 19  2  0  0  0  0
 19 16  1  0  0  0  0
 19 15  1  0  0  0  0
 20 21  2  0  0  0  0
 21 23  1  0  0  0  0
 22 21  1  0  0  0  0
 25 26  1  0  0  0  0
 25 24  1  1  0  0  0
 26 27  1  0  0  0  0
 29 30  1  0  0  0  0
 30 28  1  0  0  0  0
M  END
>  <MODEL>
6

>  <REMARK>
 VINA RESULT:      -4.9      2.980      6.210
  Name = 
  6 active torsions:
  status: ('A' for Active; 'I' for Inactive)
    1  A    between atoms: C_1  and  C_22
    2  A    between atoms: C_4  and  N_25
    3  A    between atoms: C_7  and  C_30
    4  A    between atoms: C_10  and  C_23
    5  A    between atoms: C_10  and  C_26
    6  A    between atoms: C_13  and  C_30
                            x       y       z     vdW  Elec       q    Type
                         _______ _______ _______ _____ _____    ______ ____

>  <TORSDO>
F 6

$$$$
=
 OpenBabel11052412223D

 30 32  0  0  1  0  0  0  0  0999 V2000
  185.1360  178.3820  139.1800 C   0  0  1  0  0  3  0  0  0  0  0  0
  182.6390  178.8390  138.6660 C   0  0  2  0  0  3  0  0  0  0  0  0
  185.0580  179.5790  139.9140 O   0  0  0  0  0  0  0  0  0  0  0  0
  182.7510  178.1400  142.5320 C   0  0  0  0  0  2  0  0  0  0  0  0
  183.2640  178.2330  141.1030 C   0  0  2  0  0  3  0  0  0  0  0  0
  185.3090  179.2560  142.5570 S   0  0  0  0  0  0  0  0  0  0  0  0
  184.2700  179.4060  141.0810 C   0  0  1  0  0  3  0  0  0  0  0  0
  182.1380  178.3300  140.0450 C   0  0  2  0  0  3  0  0  0  0  0  0
  183.8410  178.6770  143.3910 C   0  0  0  0  0  0  0  0  0  0  0  0
  183.6990  178.8040  144.5960 O   0  0  0  0  0  0  0  0  0  0  0  0
  183.9840  178.2660  138.1660 C   0  0  2  0  0  3  0  0  0  0  0  0
  187.6790  178.0950  139.2430 C   0  0  0  0  0  0  0  0  0  0  0  0
  188.8930  177.9910  138.5580 C   0  0  0  0  0  3  0  0  0  0  0  0
  187.7100  178.0140  140.9990 Cl  0  0  0  0  0  0  0  0  0  0  0  0
  186.5210  178.3140  137.1200 C   0  0  0  0  0  3  0  0  0  0  0  0
  187.7690  178.2650  135.0910 F   0  0  0  0  0  0  0  0  0  0  0  0
  186.4770  178.2580  138.5180 C   0  0  0  0  0  0  0  0  0  0  0  0
  188.9240  178.0480  137.1620 C   0  0  0  0  0  3  0  0  0  0  0  0
  187.7380  178.2090  136.4450 C   0  0  0  0  0  0  0  0  0  0  0  0
  180.4750  180.4880  137.7690 O   0  0  0  0  0  0  0  0  0  0  0  0
  181.5250  181.0580  138.1670 C   0  0  0  0  0  0  0  0  0  0  0  0
  181.6000  182.5420  138.1680 C   0  0  0  0  0  1  0  0  0  0  0  0
  182.6470  180.2950  138.6100 N   0  0  0  0  0  2  0  0  0  0  0  0
  182.3140  175.7920  139.8380 C   0  0  0  0  0  1  0  0  0  0  0  0
  181.3760  176.9930  139.8840 C   0  0  2  0  0  3  0  0  0  0  0  0
  180.4830  176.9600  138.6460 C   0  0  0  0  0  2  0  0  0  0  0  0
  179.2020  177.4310  138.9440 O   0  0  0  0  0  1  0  0  0  0  0  0
  183.8310  176.8220  137.7000 C   0  0  0  0  0  2  0  0  0  0  0  0
  184.2900  176.2900  135.4180 O   0  0  0  0  0  1  0  0  0  0  0  0
  183.3000  176.7670  136.2770 C   0  0  0  0  0  2  0  0  0  0  0  0
  1 17  1  6  0  0  0
  1  3  1  0  0  0  0
  2 23  1  1  0  0  0
  2  8  1  0  0  0  0
  4  9  1  0  0  0  0
  5  4  1  1  0  0  0
  6  9  1  0  0  0  0
  7  3  1  6  0  0  0
  7  5  1  0  0  0  0
  7  6  1  0  0  0  0
  8 25  1  6  0  0  0
  8  5  1  0  0  0  0
  9 10  2  0  0  0  0
 11 28  1  1  0  0  0
 11  2  1  0  0  0  0
 11  1  1  0  0  0  0
 12 14  1  0  0  0  0
 13 12  1  0  0  0  0
 15 17  1  0  0  0  0
 16 19  1  0  0  0  0
 17 12  2  0  0  0  0
 18 13  2  0  0  0  0
 19 15  2  0  0  0  0
 19 18  1  0  0  0  0
 20 21  2  0  0  0  0
 21 22  1  0  0  0  0
 21 23  1  0  0  0  0
 25 24  1  6  0  0  0
 26 27  1  0  0  0  0
 26 25  1  0  0  0  0
 29 30  1  0  0  0  0
 30 28  1  0  0  0  0
M  END
>  <MODEL>
7

>  <REMARK>
 VINA RESULT:      -4.8      3.045      5.767
  Name = 
  6 active torsions:
  status: ('A' for Active; 'I' for Inactive)
    1  A    between atoms: C_1  and  C_22
    2  A    between atoms: C_4  and  N_25
    3  A    between atoms: C_7  and  C_30
    4  A    between atoms: C_10  and  C_23
    5  A    between atoms: C_10  and  C_26
    6  A    between atoms: C_13  and  C_30
                            x       y       z     vdW  Elec       q    Type
                         _______ _______ _______ _____ _____    ______ ____

>  <TORSDO>
F 6

$$$$
=
 OpenBabel11052412223D

 30 32  0  0  1  0  0  0  0  0999 V2000
  183.6750  177.9620  138.6620 C   0  0  1  0  0  3  0  0  0  0  0  0
  181.6230  179.5420  138.7200 C   0  0  2  0  0  3  0  0  0  0  0  0
  184.3350  179.0250  139.3050 O   0  0  0  0  0  0  0  0  0  0  0  0
  182.3380  178.6950  142.4910 C   0  0  0  0  0  2  0  0  0  0  0  0
  182.4720  178.6060  140.9780 C   0  0  2  0  0  3  0  0  0  0  0  0
  185.0420  178.5030  141.8310 S   0  0  0  0  0  0  0  0  0  0  0  0
  183.8640  179.1820  140.6350 C   0  0  1  0  0  3  0  0  0  0  0  0
  181.2970  179.2600  140.2120 C   0  0  2  0  0  3  0  0  0  0  0  0
  183.7240  178.6290  143.0280 C   0  0  0  0  0  0  0  0  0  0  0  0
  183.9530  178.7520  144.2190 O   0  0  0  0  0  0  0  0  0  0  0  0
  182.3900  178.4370  137.9600 C   0  0  2  0  0  3  0  0  0  0  0  0
  184.5800  175.8670  137.5030 C   0  0  0  0  0  0  0  0  0  0  0  0
  185.4820  175.2860  136.6050 C   0  0  0  0  0  3  0  0  0  0  0  0
  183.4450  174.8140  138.3360 Cl  0  0  0  0  0  0  0  0  0  0  0  0
  185.5330  178.0480  137.0180 C   0  0  0  0  0  3  0  0  0  0  0  0
  187.3230  178.2260  135.4560 F   0  0  0  0  0  0  0  0  0  0  0  0
  184.6050  177.2640  137.7140 C   0  0  0  0  0  0  0  0  0  0  0  0
  186.4040  176.0780  135.9170 C   0  0  0  0  0  3  0  0  0  0  0  0
  186.4290  177.4580  136.1240 C   0  0  0  0  0  0  0  0  0  0  0  0
  180.3080  182.0450  138.2590 O   0  0  0  0  0  0  0  0  0  0  0  0
  181.5650  182.0470  138.3470 C   0  0  0  0  0  0  0  0  0  0  0  0
  182.3090  183.3270  138.2220 C   0  0  0  0  0  1  0  0  0  0  0  0
  182.2830  180.8320  138.5580 N   0  0  0  0  0  2  0  0  0  0  0  0
  178.9310  179.1440  141.1620 C   0  0  0  0  0  1  0  0  0  0  0  0
  179.9940  178.4330  140.3330 C   0  0  2  0  0  3  0  0  0  0  0  0
  180.2210  177.0430  140.9220 C   0  0  0  0  0  2  0  0  0  0  0  0
  179.0120  176.4690  141.3220 O   0  0  0  0  0  1  0  0  0  0  0  0
  181.4860  177.2500  137.6490 C   0  0  0  0  0  2  0  0  0  0  0  0
  181.9170  178.1500  135.4800 O   0  0  0  0  0  1  0  0  0  0  0  0
  181.2650  177.1150  136.1520 C   0  0  0  0  0  2  0  0  0  0  0  0
  1 17  1  6  0  0  0
  1  3  1  0  0  0  0
  2 23  1  1  0  0  0
  2  8  1  0  0  0  0
  4  9  1  0  0  0  0
  5  4  1  1  0  0  0
  6  9  1  0  0  0  0
  7  3  1  6  0  0  0
  7  5  1  0  0  0  0
  7  6  1  0  0  0  0
  8 25  1  6  0  0  0
  8  5  1  0  0  0  0
  9 10  2  0  0  0  0
 11 28  1  1  0  0  0
 11  1  1  0  0  0  0
 11  2  1  0  0  0  0
 12 17  1  0  0  0  0
 12 14  1  0  0  0  0
 13 12  2  0  0  0  0
 15 17  2  0  0  0  0
 16 19  1  0  0  0  0
 18 19  2  0  0  0  0
 18 13  1  0  0  0  0
 19 15  1  0  0  0  0
 20 21  2  0  0  0  0
 21 23  1  0  0  0  0
 22 21  1  0  0  0  0
 25 26  1  0  0  0  0
 25 24  1  1  0  0  0
 26 27  1  0  0  0  0
 29 30  1  0  0  0  0
 30 28  1  0  0  0  0
M  END
>  <MODEL>
8

>  <REMARK>
 VINA RESULT:      -4.8      2.986      5.937
  Name = 
  6 active torsions:
  status: ('A' for Active; 'I' for Inactive)
    1  A    between atoms: C_1  and  C_22
    2  A    between atoms: C_4  and  N_25
    3  A    between atoms: C_7  and  C_30
    4  A    between atoms: C_10  and  C_23
    5  A    between atoms: C_10  and  C_26
    6  A    between atoms: C_13  and  C_30
                            x       y       z     vdW  Elec       q    Type
                         _______ _______ _______ _____ _____    ______ ____

>  <TORSDO>
F 6

$$$$
=
 OpenBabel11052412223D

 30 32  0  0  1  0  0  0  0  0999 V2000
  182.8160  177.5170  138.2420 C   0  0  1  0  0  3  0  0  0  0  0  0
  182.4110  178.9300  140.3750 C   0  0  2  0  0  3  0  0  0  0  0  0
  183.0580  176.4710  139.1510 O   0  0  0  0  0  0  0  0  0  0  0  0
  179.4790  176.3130  140.3380 C   0  0  0  0  0  2  0  0  0  0  0  0
  180.6870  177.0800  139.8230 C   0  0  2  0  0  3  0  0  0  0  0  0
  181.2220  174.5270  139.0910 S   0  0  0  0  0  0  0  0  0  0  0  0
  181.8570  176.0710  139.7930 C   0  0  1  0  0  3  0  0  0  0  0  0
  180.9780  178.3800  140.6110 C   0  0  2  0  0  3  0  0  0  0  0  0
  179.7030  174.8930  139.9540 C   0  0  0  0  0  0  0  0  0  0  0  0
  178.9350  174.0100  140.2950 O   0  0  0  0  0  0  0  0  0  0  0  0
  182.9320  178.8930  138.9210 C   0  0  2  0  0  3  0  0  0  0  0  0
  183.2520  177.1780  135.7430 C   0  0  0  0  0  0  0  0  0  0  0  0
  184.1610  177.0760  134.6850 C   0  0  0  0  0  3  0  0  0  0  0  0
  181.5380  177.0240  135.3800 Cl  0  0  0  0  0  0  0  0  0  0  0  0
  185.1040  177.5160  137.2770 C   0  0  0  0  0  3  0  0  0  0  0  0
  187.3340  177.5260  136.4410 F   0  0  0  0  0  0  0  0  0  0  0  0
  183.7270  177.4000  137.0550 C   0  0  0  0  0  0  0  0  0  0  0  0
  185.5330  177.1930  134.9190 C   0  0  0  0  0  3  0  0  0  0  0  0
  186.0040  177.4130  136.2140 C   0  0  0  0  0  0  0  0  0  0  0  0
  185.1610  179.6790  140.6600 O   0  0  0  0  0  0  0  0  0  0  0  0
  184.7260  178.7470  141.3870 C   0  0  0  0  0  0  0  0  0  0  0  0
  185.6350  178.0870  142.3580 C   0  0  0  0  0  1  0  0  0  0  0  0
  183.3700  178.3130  141.2820 N   0  0  0  0  0  2  0  0  0  0  0  0
  179.1340  179.8610  141.5750 C   0  0  0  0  0  1  0  0  0  0  0  0
  179.9240  179.4780  140.3280 C   0  0  2  0  0  3  0  0  0  0  0  0
  178.9390  179.0910  139.2280 C   0  0  0  0  0  2  0  0  0  0  0  0
  179.0500  179.9530  138.1350 O   0  0  0  0  0  1  0  0  0  0  0  0
  182.2640  179.9640  138.0660 C   0  0  0  0  0  2  0  0  0  0  0  0
  181.3370  182.1470  138.3420 O   0  0  0  0  0  1  0  0  0  0  0  0
  182.4120  181.3350  138.7040 C   0  0  0  0  0  2  0  0  0  0  0  0
  1 17  1  6  0  0  0
  1 11  1  0  0  0  0
  1  3  1  0  0  0  0
  2  8  1  0  0  0  0
  2 23  1  1  0  0  0
  3  7  1  0  0  0  0
  5  4  1  1  0  0  0
  5  8  1  0  0  0  0
  6  9  1  0  0  0  0
  7  6  1  6  0  0  0
  7  5  1  0  0  0  0
  8 25  1  6  0  0  0
  9 10  2  0  0  0  0
  9  4  1  0  0  0  0
 11 28  1  6  0  0  0
 11  2  1  0  0  0  0
 12 17  1  0  0  0  0
 13 18  1  0  0  0  0
 13 12  2  0  0  0  0
 14 12  1  0  0  0  0
 17 15  2  0  0  0  0
 18 19  2  0  0  0  0
 19 16  1  0  0  0  0
 19 15  1  0  0  0  0
 20 21  2  0  0  0  0
 21 22  1  0  0  0  0
 23 21  1  0  0  0  0
 25 24  1  1  0  0  0
 26 25  1  0  0  0  0
 27 26  1  0  0  0  0
 28 30  1  0  0  0  0
 29 30  1  0  0  0  0
M  END
>  <MODEL>
9

>  <REMARK>
 VINA RESULT:      -4.6      3.088      5.882
  Name = 
  6 active torsions:
  status: ('A' for Active; 'I' for Inactive)
    1  A    between atoms: C_1  and  C_22
    2  A    between atoms: C_4  and  N_25
    3  A    between atoms: C_7  and  C_30
    4  A    between atoms: C_10  and  C_23
    5  A    between atoms: C_10  and  C_26
    6  A    between atoms: C_13  and  C_30
                            x       y       z     vdW  Elec       q    Type
                         _______ _______ _______ _____ _____    ______ ____

>  <TORSDO>
F 6

$$$$
