=
 OpenBabel11052414323D

 32 35  0  0  1  0  0  0  0  0999 V2000
  190.5060  177.3710  141.0530 C   0  0  1  0  0  3  0  0  0  0  0  0
  188.7440  176.5440  139.2690 C   0  0  0  0  0  2  0  0  0  0  0  0
  191.9900  177.3280  141.4160 C   0  0  0  0  0  2  0  0  0  0  0  0
  190.1580  177.0050  139.5820 C   0  0  2  0  0  0  0  0  0  0  0  0
  189.7500  175.5510  136.8200 C   0  0  0  0  0  2  0  0  0  0  0  0
  188.6960  177.8110  136.5330 N   0  0  0  0  0  0  0  0  0  0  0  0
  191.2970  176.7260  138.5370 C   0  0  2  0  0  3  0  0  0  0  0  0
  189.6050  176.8070  135.9580 C   0  0  0  0  0  2  0  0  0  0  0  0
  191.0690  175.5060  137.6050 C   0  0  2  0  0  3  0  0  0  0  0  0
  192.6900  176.6700  139.1730 C   0  0  0  0  0  2  0  0  0  0  0  0
  189.0960  178.0110  139.0920 C   0  0  1  0  0  3  0  0  0  0  0  0
  192.8590  177.7260  140.2440 C   0  0  0  0  0  2  0  0  0  0  0  0
  189.3500  178.5210  137.6480 C   0  0  0  0  0  2  0  0  0  0  0  0
  192.9080  174.0220  136.9480 N   0  0  0  0  0  2  0  0  0  0  0  0
  191.9930  174.1110  135.8040 C   0  0  0  0  0  2  0  0  0  0  0  0
  192.2310  175.2910  136.6330 C   0  0  1  0  0  3  0  0  0  0  0  0
  186.4130  178.4840  137.1690 C   0  0  0  0  0  1  0  0  0  0  0  0
  187.3280  177.3240  136.7970 C   0  0  1  0  0  3  0  0  0  0  0  0
  186.0980  175.3160  135.9640 C   0  0  0  0  0  1  0  0  0  0  0  0
  186.7480  176.6290  135.5690 C   0  0  0  0  0  2  0  0  0  0  0  0
  190.5220  175.6840  142.8840 C   0  0  0  0  0  1  0  0  0  0  0  0
  189.6580  176.7120  142.1610 C   0  0  1  0  0  3  0  0  0  0  0  0
  189.0400  177.6830  143.0970 N   0  0  0  0  0  0  0  0  0  0  0  0
  189.1600  177.9370  145.5520 C   0  0  0  0  0  1  0  0  0  0  0  0
  189.9160  178.0080  144.2390 C   0  0  2  0  0  3  0  0  0  0  0  0
  190.5470  179.2490  144.0930 O   0  0  0  0  0  1  0  0  0  0  0  0
  187.8330  177.0870  143.6690 C   0  0  0  0  0  2  0  0  0  0  0  0
  186.5690  177.6760  143.0390 C   0  0  1  0  0  3  0  0  0  0  0  0
  185.6530  178.3210  144.0710 C   0  0  0  0  0  2  0  0  0  0  0  0
  185.7990  177.6900  145.2910 F   0  0  0  0  0  0  0  0  0  0  0  0
  185.4470  178.9710  140.9860 S   0  0  0  0  0  1  0  0  0  0  0  0
  186.8930  178.5950  141.9470 N   0  0  0  0  0  2  0  0  0  0  0  0
  1  3  1  0  0  0  0
  1 22  1  1  0  0  0
  4  2  1  1  0  0  0
  4  1  1  0  0  0  0
  6 18  1  0  0  0  0
  6 13  1  0  0  0  0
  7 10  1  1  0  0  0
  7  4  1  0  0  0  0
  8  6  1  0  0  0  0
  8  5  1  0  0  0  0
  9  5  1  6  0  0  0
  9  7  1  0  0  0  0
 10 12  1  0  0  0  0
 11 13  1  6  0  0  0
 11  2  1  0  0  0  0
 11  4  1  0  0  0  0
 12  3  1  0  0  0  0
 15 14  1  0  0  0  0
 16 15  1  6  0  0  0
 16 14  1  0  0  0  0
 16  9  1  0  0  0  0
 18 17  1  6  0  0  0
 20 19  1  0  0  0  0
 20 18  1  0  0  0  0
 22 21  1  1  0  0  0
 22 23  1  0  0  0  0
 23 27  1  0  0  0  0
 23 25  1  0  0  0  0
 25 24  1  1  0  0  0
 26 25  1  0  0  0  0
 28 27  1  1  0  0  0
 28 29  1  0  0  0  0
 29 30  1  0  0  0  0
 31 32  1  0  0  0  0
 32 28  1  0  0  0  0
M  END
>  <MODEL>
1

>  <REMARK>
 VINA RESULT:      -5.9      0.000      0.000
  Name = 
  10 active torsions:
  status: ('A' for Active; 'I' for Inactive)
    1  A    between atoms: C_1  and  C_27
    2  A    between atoms: C_3  and  C_7
    3  A    between atoms: C_7  and  C_20
    4  A    between atoms: C_7  and  N_26
    5  A    between atoms: N_10  and  C_12
    6  A    between atoms: C_12  and  C_31
    7  A    between atoms: N_16  and  C_20
    8  A    between atoms: N_16  and  C_22
    9  A    between atoms: N_16  and  C_27
   10  A    between atoms: C_18  and  C_29
                            x       y       z     vdW  Elec       q    Type
                         _______ _______ _______ _____ _____    ______ ____

>  <TORSDO>
F 10

$$$$
=
 OpenBabel11052414323D

 32 35  0  0  1  0  0  0  0  0999 V2000
  183.4070  178.4060  143.1800 C   0  0  1  0  0  3  0  0  0  0  0  0
  183.9220  178.6440  140.6010 C   0  0  0  0  0  2  0  0  0  0  0  0
  182.4160  178.8110  144.2700 C   0  0  0  0  0  2  0  0  0  0  0  0
  182.8960  178.5400  141.7170 C   0  0  2  0  0  0  0  0  0  0  0  0
  181.8330  179.5870  138.9450 C   0  0  0  0  0  2  0  0  0  0  0  0
  182.2410  177.1330  138.6050 N   0  0  0  0  0  0  0  0  0  0  0  0
  181.4110  178.9570  141.4240 C   0  0  2  0  0  3  0  0  0  0  0  0
  181.3010  178.2510  138.4230 C   0  0  0  0  0  2  0  0  0  0  0  0
  181.2170  179.9990  140.2900 C   0  0  2  0  0  3  0  0  0  0  0  0
  180.6500  179.3810  142.6850 C   0  0  0  0  0  2  0  0  0  0  0  0
  183.3510  177.2810  140.9490 C   0  0  1  0  0  3  0  0  0  0  0  0
  180.9910  178.5000  143.8670 C   0  0  0  0  0  2  0  0  0  0  0  0
  182.2580  176.6990  140.0150 C   0  0  0  0  0  2  0  0  0  0  0  0
  179.5090  181.7370  140.5650 N   0  0  0  0  0  2  0  0  0  0  0  0
  179.6240  181.4660  139.1270 C   0  0  0  0  0  2  0  0  0  0  0  0
  179.7460  180.3670  140.0820 C   0  0  1  0  0  3  0  0  0  0  0  0
  184.3030  176.0040  137.8700 C   0  0  0  0  0  1  0  0  0  0  0  0
  183.5630  177.3310  137.9800 C   0  0  1  0  0  3  0  0  0  0  0  0
  183.8000  176.8900  135.5330 C   0  0  0  0  0  1  0  0  0  0  0  0
  183.4230  177.9220  136.5810 C   0  0  0  0  0  2  0  0  0  0  0  0
  184.6620  180.4180  143.9390 C   0  0  0  0  0  1  0  0  0  0  0  0
  184.8100  178.9690  143.4880 C   0  0  1  0  0  3  0  0  0  0  0  0
  185.5800  178.1550  144.4600 N   0  0  0  0  0  0  0  0  0  0  0  0
  186.7940  178.3820  146.6010 C   0  0  0  0  0  1  0  0  0  0  0  0
  185.5290  178.7060  145.8280 C   0  0  2  0  0  3  0  0  0  0  0  0
  184.3940  178.2870  146.5320 O   0  0  0  0  0  1  0  0  0  0  0  0
  186.9900  178.1620  144.0730 C   0  0  0  0  0  2  0  0  0  0  0  0
  187.2410  177.2540  142.8670 C   0  0  1  0  0  3  0  0  0  0  0  0
  187.9590  177.9780  141.7360 C   0  0  0  0  0  2  0  0  0  0  0  0
  187.1700  179.0060  141.2560 F   0  0  0  0  0  0  0  0  0  0  0  0
  189.6760  176.1510  142.9300 S   0  0  0  0  0  1  0  0  0  0  0  0
  187.9350  176.0250  143.2560 N   0  0  0  0  0  2  0  0  0  0  0  0
  1 22  1  6  0  0  0
  1  3  1  0  0  0  0
  2 11  1  0  0  0  0
  4  2  1  6  0  0  0
  4  1  1  0  0  0  0
  6 13  1  0  0  0  0
  7  4  1  0  0  0  0
  7 10  1  1  0  0  0
  8  6  1  0  0  0  0
  8  5  1  0  0  0  0
  9  5  1  6  0  0  0
  9  7  1  0  0  0  0
 10 12  1  0  0  0  0
 11 13  1  6  0  0  0
 11  4  1  0  0  0  0
 12  3  1  0  0  0  0
 15 14  1  0  0  0  0
 16 15  1  6  0  0  0
 16  9  1  0  0  0  0
 16 14  1  0  0  0  0
 18 17  1  6  0  0  0
 18  6  1  0  0  0  0
 19 20  1  0  0  0  0
 20 18  1  0  0  0  0
 22 21  1  1  0  0  0
 22 23  1  0  0  0  0
 23 25  1  0  0  0  0
 25 26  1  0  0  0  0
 25 24  1  1  0  0  0
 27 23  1  0  0  0  0
 28 29  1  6  0  0  0
 28 32  1  0  0  0  0
 28 27  1  0  0  0  0
 30 29  1  0  0  0  0
 31 32  1  0  0  0  0
M  END
>  <MODEL>
2

>  <REMARK>
 VINA RESULT:      -5.2      4.542      8.035
  Name = 
  10 active torsions:
  status: ('A' for Active; 'I' for Inactive)
    1  A    between atoms: C_1  and  C_27
    2  A    between atoms: C_3  and  C_7
    3  A    between atoms: C_7  and  C_20
    4  A    between atoms: C_7  and  N_26
    5  A    between atoms: N_10  and  C_12
    6  A    between atoms: C_12  and  C_31
    7  A    between atoms: N_16  and  C_20
    8  A    between atoms: N_16  and  C_22
    9  A    between atoms: N_16  and  C_27
   10  A    between atoms: C_18  and  C_29
                            x       y       z     vdW  Elec       q    Type
                         _______ _______ _______ _____ _____    ______ ____

>  <TORSDO>
F 10

$$$$
=
 OpenBabel11052414323D

 32 35  0  0  1  0  0  0  0  0999 V2000
  190.4700  176.8610  142.1730 C   0  0  1  0  0  3  0  0  0  0  0  0
  188.5450  178.4360  143.0610 C   0  0  0  0  0  2  0  0  0  0  0  0
  191.6790  176.0410  142.6180 C   0  0  0  0  0  2  0  0  0  0  0  0
  189.4650  177.2500  143.2960 C   0  0  2  0  0  0  0  0  0  0  0  0
  188.0610  178.4460  145.8470 C   0  0  0  0  0  2  0  0  0  0  0  0
  186.2430  177.2440  144.6020 N   0  0  0  0  0  0  0  0  0  0  0  0
  189.6580  176.7160  144.7600 C   0  0  2  0  0  3  0  0  0  0  0  0
  186.8920  177.4620  145.9050 C   0  0  0  0  0  2  0  0  0  0  0  0
  189.4340  177.7570  145.8890 C   0  0  2  0  0  3  0  0  0  0  0  0
  190.9870  175.9800  144.9570 C   0  0  0  0  0  2  0  0  0  0  0  0
  188.0420  177.0400  142.7380 C   0  0  1  0  0  3  0  0  0  0  0  0
  191.3310  175.1160  143.7630 C   0  0  0  0  0  2  0  0  0  0  0  0
  187.0750  176.3710  143.7510 C   0  0  0  0  0  2  0  0  0  0  0  0
  190.7870  177.8510  147.9320 N   0  0  0  0  0  2  0  0  0  0  0  0
  189.4050  178.1670  148.3130 C   0  0  0  0  0  2  0  0  0  0  0  0
  189.6600  177.1640  147.2820 C   0  0  1  0  0  3  0  0  0  0  0  0
  184.8810  178.1120  142.7410 C   0  0  0  0  0  1  0  0  0  0  0  0
  185.7300  178.4670  143.9560 C   0  0  1  0  0  3  0  0  0  0  0  0
  183.4000  179.0040  144.6750 C   0  0  0  0  0  1  0  0  0  0  0  0
  184.8720  179.2770  144.9220 C   0  0  0  0  0  2  0  0  0  0  0  0
  192.4190  178.1110  141.2570 C   0  0  0  0  0  1  0  0  0  0  0  0
  190.9010  177.9780  141.1990 C   0  0  1  0  0  3  0  0  0  0  0  0
  190.4070  177.7840  139.8130 N   0  0  0  0  0  0  0  0  0  0  0  0
  188.0570  177.2740  139.2430 C   0  0  0  0  0  1  0  0  0  0  0  0
  189.0620  178.3520  139.6050 C   0  0  2  0  0  3  0  0  0  0  0  0
  189.0560  179.3790  138.6530 O   0  0  0  0  0  1  0  0  0  0  0  0
  190.2870  176.3510  139.5490 C   0  0  0  0  0  2  0  0  0  0  0  0
  190.8390  175.9910  138.1680 C   0  0  1  0  0  3  0  0  0  0  0  0
  192.1880  176.6420  137.8950 C   0  0  0  0  0  2  0  0  0  0  0  0
  193.1480  176.1100  138.7340 F   0  0  0  0  0  0  0  0  0  0  0  0
  191.4270  174.1430  136.3270 S   0  0  0  0  0  1  0  0  0  0  0  0
  190.8830  174.5410  137.9700 N   0  0  0  0  0  2  0  0  0  0  0  0
  1 22  1  1  0  0  0
  1  3  1  0  0  0  0
  1  4  1  0  0  0  0
  3 12  1  0  0  0  0
  4  2  1  1  0  0  0
  4  7  1  0  0  0  0
  5  8  1  0  0  0  0
  6  8  1  0  0  0  0
  7 10  1  6  0  0  0
  7  9  1  0  0  0  0
  9  5  1  1  0  0  0
  9 16  1  0  0  0  0
 11  2  1  1  0  0  0
 11  4  1  0  0  0  0
 11 13  1  0  0  0  0
 12 10  1  0  0  0  0
 13  6  1  0  0  0  0
 14 15  1  0  0  0  0
 16 14  1  0  0  0  0
 16 15  1  1  0  0  0
 18 17  1  6  0  0  0
 18  6  1  0  0  0  0
 18 20  1  0  0  0  0
 19 20  1  0  0  0  0
 22 21  1  6  0  0  0
 23 22  1  0  0  0  0
 25 24  1  6  0  0  0
 25 23  1  0  0  0  0
 26 25  1  0  0  0  0
 27 23  1  0  0  0  0
 28 29  1  1  0  0  0
 28 27  1  0  0  0  0
 29 30  1  0  0  0  0
 31 32  1  0  0  0  0
 32 28  1  0  0  0  0
M  END
>  <MODEL>
3

>  <REMARK>
 VINA RESULT:      -5.0      3.274      7.454
  Name = 
  10 active torsions:
  status: ('A' for Active; 'I' for Inactive)
    1  A    between atoms: C_1  and  C_27
    2  A    between atoms: C_3  and  C_7
    3  A    between atoms: C_7  and  C_20
    4  A    between atoms: C_7  and  N_26
    5  A    between atoms: N_10  and  C_12
    6  A    between atoms: C_12  and  C_31
    7  A    between atoms: N_16  and  C_20
    8  A    between atoms: N_16  and  C_22
    9  A    between atoms: N_16  and  C_27
   10  A    between atoms: C_18  and  C_29
                            x       y       z     vdW  Elec       q    Type
                         _______ _______ _______ _____ _____    ______ ____

>  <TORSDO>
F 10

$$$$
=
 OpenBabel11052414323D

 32 35  0  0  1  0  0  0  0  0999 V2000
  180.6760  177.6080  140.2790 C   0  0  1  0  0  3  0  0  0  0  0  0
  183.2630  177.0830  140.1930 C   0  0  0  0  0  2  0  0  0  0  0  0
  179.5720  178.1640  141.1760 C   0  0  0  0  0  2  0  0  0  0  0  0
  182.1320  177.9640  140.6970 C   0  0  2  0  0  0  0  0  0  0  0  0
  184.8880  178.2520  142.1900 C   0  0  0  0  0  2  0  0  0  0  0  0
  185.2320  179.3550  139.9620 N   0  0  0  0  0  0  0  0  0  0  0  0
  182.4020  178.9310  141.9040 C   0  0  2  0  0  3  0  0  0  0  0  0
  185.4010  179.4690  141.4190 C   0  0  0  0  0  2  0  0  0  0  0  0
  183.5340  178.4960  142.8730 C   0  0  2  0  0  3  0  0  0  0  0  0
  181.1300  179.2870  142.6810 C   0  0  0  0  0  2  0  0  0  0  0  0
  182.9050  178.3370  139.4150 C   0  0  1  0  0  3  0  0  0  0  0  0
  179.9530  179.5080  141.7560 C   0  0  0  0  0  2  0  0  0  0  0  0
  183.8230  179.5770  139.5870 C   0  0  0  0  0  2  0  0  0  0  0  0
  183.4000  178.8100  145.3010 N   0  0  0  0  0  2  0  0  0  0  0  0
  184.7970  179.0340  144.9120 C   0  0  0  0  0  2  0  0  0  0  0  0
  183.7200  179.4800  144.0310 C   0  0  1  0  0  3  0  0  0  0  0  0
  185.8120  178.2500  137.8370 C   0  0  0  0  0  1  0  0  0  0  0  0
  185.8770  178.1730  139.3580 C   0  0  1  0  0  3  0  0  0  0  0  0
  188.2380  178.0920  138.5470 C   0  0  0  0  0  1  0  0  0  0  0  0
  187.3420  178.0780  139.7710 C   0  0  0  0  0  2  0  0  0  0  0  0
  179.4890  175.5390  140.9920 C   0  0  0  0  0  1  0  0  0  0  0  0
  180.3900  176.1360  139.9160 C   0  0  1  0  0  3  0  0  0  0  0  0
  179.8310  175.9540  138.5540 N   0  0  0  0  0  0  0  0  0  0  0  0
  181.7650  174.9220  137.4130 C   0  0  0  0  0  1  0  0  0  0  0  0
  180.3370  174.7380  137.8900 C   0  0  2  0  0  3  0  0  0  0  0  0
  179.5110  174.3190  136.8400 O   0  0  0  0  0  1  0  0  0  0  0  0
  180.2510  177.0770  137.7160 C   0  0  0  0  0  2  0  0  0  0  0  0
  179.0490  177.7800  137.0820 C   0  0  1  0  0  3  0  0  0  0  0  0
  179.0590  179.2820  137.3280 C   0  0  0  0  0  2  0  0  0  0  0  0
  180.2850  179.6700  137.8320 F   0  0  0  0  0  0  0  0  0  0  0  0
  180.5190  177.5090  134.8650 S   0  0  0  0  0  1  0  0  0  0  0  0
  178.9310  177.4600  135.6580 N   0  0  0  0  0  2  0  0  0  0  0  0
  1 22  1  1  0  0  0
  1  4  1  0  0  0  0
  1  3  1  0  0  0  0
  3 12  1  0  0  0  0
  4  2  1  1  0  0  0
  4  7  1  0  0  0  0
  6  8  1  0  0  0  0
  7 10  1  1  0  0  0
  7  9  1  0  0  0  0
  8  5  1  0  0  0  0
  9  5  1  6  0  0  0
  9 16  1  0  0  0  0
 11 13  1  1  0  0  0
 11  2  1  0  0  0  0
 11  4  1  0  0  0  0
 12 10  1  0  0  0  0
 13  6  1  0  0  0  0
 15 14  1  0  0  0  0
 16 15  1  1  0  0  0
 16 14  1  0  0  0  0
 18 17  1  6  0  0  0
 18 20  1  0  0  0  0
 18  6  1  0  0  0  0
 19 20  1  0  0  0  0
 22 21  1  1  0  0  0
 23 22  1  0  0  0  0
 25 24  1  6  0  0  0
 25 23  1  0  0  0  0
 26 25  1  0  0  0  0
 27 23  1  0  0  0  0
 28 29  1  6  0  0  0
 28 27  1  0  0  0  0
 29 30  1  0  0  0  0
 31 32  1  0  0  0  0
 32 28  1  0  0  0  0
M  END
>  <MODEL>
4

>  <REMARK>
 VINA RESULT:      -5.0      5.949      9.591
  Name = 
  10 active torsions:
  status: ('A' for Active; 'I' for Inactive)
    1  A    between atoms: C_1  and  C_27
    2  A    between atoms: C_3  and  C_7
    3  A    between atoms: C_7  and  C_20
    4  A    between atoms: C_7  and  N_26
    5  A    between atoms: N_10  and  C_12
    6  A    between atoms: C_12  and  C_31
    7  A    between atoms: N_16  and  C_20
    8  A    between atoms: N_16  and  C_22
    9  A    between atoms: N_16  and  C_27
   10  A    between atoms: C_18  and  C_29
                            x       y       z     vdW  Elec       q    Type
                         _______ _______ _______ _____ _____    ______ ____

>  <TORSDO>
F 10

$$$$
=
 OpenBabel11052414323D

 32 35  0  0  1  0  0  0  0  0999 V2000
  190.4740  177.1300  141.1390 C   0  0  1  0  0  3  0  0  0  0  0  0
  188.8990  176.3250  139.1790 C   0  0  0  0  0  2  0  0  0  0  0  0
  191.9320  177.1760  141.5950 C   0  0  0  0  0  2  0  0  0  0  0  0
  190.2470  176.8680  139.6230 C   0  0  2  0  0  0  0  0  0  0  0  0
  190.1310  175.6370  136.7280 C   0  0  0  0  0  2  0  0  0  0  0  0
  188.9040  177.8200  136.5600 N   0  0  0  0  0  0  0  0  0  0  0  0
  191.4650  176.7770  138.6360 C   0  0  2  0  0  3  0  0  0  0  0  0
  189.9290  176.9470  135.9660 C   0  0  0  0  0  2  0  0  0  0  0  0
  191.4000  175.6290  137.5930 C   0  0  2  0  0  3  0  0  0  0  0  0
  192.8180  176.7780  139.3560 C   0  0  0  0  0  2  0  0  0  0  0  0
  189.1330  177.8240  139.1480 C   0  0  1  0  0  3  0  0  0  0  0  0
  192.8310  177.7450  140.5200 C   0  0  0  0  0  2  0  0  0  0  0  0
  189.4260  178.4790  137.7720 C   0  0  0  0  0  2  0  0  0  0  0  0
  193.3940  174.3630  136.9360 N   0  0  0  0  0  2  0  0  0  0  0  0
  192.5450  174.4800  135.7450 C   0  0  0  0  0  2  0  0  0  0  0  0
  192.6320  175.5960  136.6850 C   0  0  1  0  0  3  0  0  0  0  0  0
  186.5260  178.2580  137.0350 C   0  0  0  0  0  1  0  0  0  0  0  0
  187.5700  177.2020  136.6920 C   0  0  1  0  0  3  0  0  0  0  0  0
  186.3850  175.2450  135.6900 C   0  0  0  0  0  1  0  0  0  0  0  0
  187.1530  176.5190  135.3930 C   0  0  0  0  0  2  0  0  0  0  0  0
  190.5430  175.3590  142.8870 C   0  0  0  0  0  1  0  0  0  0  0  0
  189.6220  176.3090  142.1290 C   0  0  1  0  0  3  0  0  0  0  0  0
  188.8010  177.1410  143.0420 N   0  0  0  0  0  0  0  0  0  0  0  0
  187.7070  179.0190  141.8650 C   0  0  0  0  0  1  0  0  0  0  0  0
  187.5520  177.6130  142.4130 C   0  0  2  0  0  3  0  0  0  0  0  0
  186.4540  177.5330  143.2780 O   0  0  0  0  0  1  0  0  0  0  0  0
  189.5550  178.3430  143.3960 C   0  0  0  0  0  2  0  0  0  0  0  0
  189.9640  178.3310  144.8700 C   0  0  1  0  0  3  0  0  0  0  0  0
  189.0650  177.4370  145.7140 C   0  0  0  0  0  2  0  0  0  0  0  0
  188.5270  178.1620  146.7600 F   0  0  0  0  0  0  0  0  0  0  0  0
  191.5820  176.6730  146.2050 S   0  0  0  0  0  1  0  0  0  0  0  0
  191.3790  177.9900  145.0310 N   0  0  0  0  0  2  0  0  0  0  0  0
  1  3  1  0  0  0  0
  1 22  1  1  0  0  0
  4  2  1  6  0  0  0
  4  1  1  0  0  0  0
  6 18  1  0  0  0  0
  6 13  1  0  0  0  0
  7 10  1  1  0  0  0
  7  4  1  0  0  0  0
  8  6  1  0  0  0  0
  8  5  1  0  0  0  0
  9  5  1  6  0  0  0
  9  7  1  0  0  0  0
 10 12  1  0  0  0  0
 11 13  1  6  0  0  0
 11  2  1  0  0  0  0
 11  4  1  0  0  0  0
 12  3  1  0  0  0  0
 15 14  1  0  0  0  0
 16 15  1  6  0  0  0
 16 14  1  0  0  0  0
 16  9  1  0  0  0  0
 18 17  1  6  0  0  0
 20 19  1  0  0  0  0
 20 18  1  0  0  0  0
 22 21  1  1  0  0  0
 22 23  1  0  0  0  0
 23 27  1  0  0  0  0
 25 24  1  1  0  0  0
 25 23  1  0  0  0  0
 25 26  1  0  0  0  0
 28 27  1  6  0  0  0
 28 32  1  0  0  0  0
 28 29  1  0  0  0  0
 29 30  1  0  0  0  0
 32 31  1  0  0  0  0
M  END
>  <MODEL>
5

>  <REMARK>
 VINA RESULT:      -5.0      1.948      2.465
  Name = 
  10 active torsions:
  status: ('A' for Active; 'I' for Inactive)
    1  A    between atoms: C_1  and  C_27
    2  A    between atoms: C_3  and  C_7
    3  A    between atoms: C_7  and  C_20
    4  A    between atoms: C_7  and  N_26
    5  A    between atoms: N_10  and  C_12
    6  A    between atoms: C_12  and  C_31
    7  A    between atoms: N_16  and  C_20
    8  A    between atoms: N_16  and  C_22
    9  A    between atoms: N_16  and  C_27
   10  A    between atoms: C_18  and  C_29
                            x       y       z     vdW  Elec       q    Type
                         _______ _______ _______ _____ _____    ______ ____

>  <TORSDO>
F 10

$$$$
=
 OpenBabel11052414323D

 32 35  0  0  1  0  0  0  0  0999 V2000
  180.8610  177.6780  140.2420 C   0  0  1  0  0  3  0  0  0  0  0  0
  183.4430  177.1250  140.2600 C   0  0  0  0  0  2  0  0  0  0  0  0
  179.7220  178.2180  141.1050 C   0  0  0  0  0  2  0  0  0  0  0  0
  182.2990  178.0030  140.7390 C   0  0  2  0  0  0  0  0  0  0  0  0
  184.9850  178.2100  142.3670 C   0  0  0  0  0  2  0  0  0  0  0  0
  185.4450  179.3800  140.1940 N   0  0  0  0  0  0  0  0  0  0  0  0
  182.5230  178.9270  141.9880 C   0  0  2  0  0  3  0  0  0  0  0  0
  185.5470  179.4450  141.6610 C   0  0  0  0  0  2  0  0  0  0  0  0
  183.6030  178.4470  142.9940 C   0  0  2  0  0  3  0  0  0  0  0  0
  181.2200  179.2720  142.7160 C   0  0  0  0  0  2  0  0  0  0  0  0
  183.1360  178.4070  139.5070 C   0  0  1  0  0  3  0  0  0  0  0  0
  180.0890  179.5370  141.7460 C   0  0  0  0  0  2  0  0  0  0  0  0
  184.0570  179.6300  139.7620 C   0  0  0  0  0  2  0  0  0  0  0  0
  183.4550  178.6560  145.4330 N   0  0  0  0  0  2  0  0  0  0  0  0
  184.8410  178.9580  145.0560 C   0  0  0  0  0  2  0  0  0  0  0  0
  183.7450  179.3910  144.1910 C   0  0  1  0  0  3  0  0  0  0  0  0
  186.0610  178.3090  138.0620 C   0  0  0  0  0  1  0  0  0  0  0  0
  186.1050  178.2100  139.5820 C   0  0  1  0  0  3  0  0  0  0  0  0
  188.4810  178.2510  138.8130 C   0  0  0  0  0  1  0  0  0  0  0  0
  187.5650  178.1180  140.0150 C   0  0  0  0  0  2  0  0  0  0  0  0
  179.1920  175.8320  140.3240 C   0  0  0  0  0  1  0  0  0  0  0  0
  180.5770  176.2220  139.8180 C   0  0  1  0  0  3  0  0  0  0  0  0
  180.7290  175.9830  138.3620 N   0  0  0  0  0  0  0  0  0  0  0  0
  178.9340  176.2620  136.6870 C   0  0  0  0  0  1  0  0  0  0  0  0
  179.9760  176.9540  137.5450 C   0  0  2  0  0  3  0  0  0  0  0  0
  180.8130  177.7580  136.7630 O   0  0  0  0  0  1  0  0  0  0  0  0
  180.1790  174.6680  138.0370 C   0  0  0  0  0  2  0  0  0  0  0  0
  181.2810  173.6910  137.6200 C   0  0  1  0  0  3  0  0  0  0  0  0
  180.7210  172.4120  137.0110 C   0  0  0  0  0  2  0  0  0  0  0  0
  179.7710  171.8650  137.8510 F   0  0  0  0  0  0  0  0  0  0  0  0
  183.8710  174.3400  137.4860 S   0  0  0  0  0  1  0  0  0  0  0  0
  182.2600  174.3310  136.7400 N   0  0  0  0  0  2  0  0  0  0  0  0
  1 22  1  1  0  0  0
  1  4  1  0  0  0  0
  1  3  1  0  0  0  0
  3 12  1  0  0  0  0
  4  2  1  1  0  0  0
  4  7  1  0  0  0  0
  6  8  1  0  0  0  0
  7 10  1  1  0  0  0
  7  9  1  0  0  0  0
  8  5  1  0  0  0  0
  9  5  1  6  0  0  0
  9 16  1  0  0  0  0
 11 13  1  1  0  0  0
 11  2  1  0  0  0  0
 11  4  1  0  0  0  0
 12 10  1  0  0  0  0
 13  6  1  0  0  0  0
 15 14  1  0  0  0  0
 16 15  1  1  0  0  0
 16 14  1  0  0  0  0
 18 17  1  6  0  0  0
 18 20  1  0  0  0  0
 18  6  1  0  0  0  0
 19 20  1  0  0  0  0
 22 21  1  6  0  0  0
 23 22  1  0  0  0  0
 25 24  1  6  0  0  0
 25 23  1  0  0  0  0
 26 25  1  0  0  0  0
 27 23  1  0  0  0  0
 28 29  1  6  0  0  0
 28 27  1  0  0  0  0
 29 30  1  0  0  0  0
 32 31  1  0  0  0  0
 32 28  1  0  0  0  0
M  END
>  <MODEL>
6

>  <REMARK>
 VINA RESULT:      -4.9      5.654      9.534
  Name = 
  10 active torsions:
  status: ('A' for Active; 'I' for Inactive)
    1  A    between atoms: C_1  and  C_27
    2  A    between atoms: C_3  and  C_7
    3  A    between atoms: C_7  and  C_20
    4  A    between atoms: C_7  and  N_26
    5  A    between atoms: N_10  and  C_12
    6  A    between atoms: C_12  and  C_31
    7  A    between atoms: N_16  and  C_20
    8  A    between atoms: N_16  and  C_22
    9  A    between atoms: N_16  and  C_27
   10  A    between atoms: C_18  and  C_29
                            x       y       z     vdW  Elec       q    Type
                         _______ _______ _______ _____ _____    ______ ____

>  <TORSDO>
F 10

$$$$
=
 OpenBabel11052414323D

 32 35  0  0  1  0  0  0  0  0999 V2000
  183.8260  178.6230  143.1690 C   0  0  1  0  0  3  0  0  0  0  0  0
  183.8460  178.9490  140.5480 C   0  0  0  0  0  2  0  0  0  0  0  0
  182.9810  178.8500  144.4210 C   0  0  0  0  0  2  0  0  0  0  0  0
  183.0570  178.6690  141.8170 C   0  0  2  0  0  0  0  0  0  0  0  0
  181.3760  179.5230  139.2960 C   0  0  0  0  0  2  0  0  0  0  0  0
  182.1270  177.1760  138.8180 N   0  0  0  0  0  0  0  0  0  0  0  0
  181.4950  178.8270  141.7900 C   0  0  2  0  0  3  0  0  0  0  0  0
  180.9960  178.1170  138.8300 C   0  0  0  0  0  2  0  0  0  0  0  0
  180.9380  179.8220  140.7370 C   0  0  2  0  0  3  0  0  0  0  0  0
  180.9010  179.1130  143.1730 C   0  0  0  0  0  2  0  0  0  0  0  0
  183.5800  177.5080  140.9450 C   0  0  1  0  0  3  0  0  0  0  0  0
  181.5820  178.3010  144.2540 C   0  0  0  0  0  2  0  0  0  0  0  0
  182.4570  176.7480  140.1910 C   0  0  0  0  0  2  0  0  0  0  0  0
  179.0330  181.3110  141.1430 N   0  0  0  0  0  2  0  0  0  0  0  0
  178.9310  180.8450  139.7550 C   0  0  0  0  0  2  0  0  0  0  0  0
  179.4130  179.9340  140.7900 C   0  0  1  0  0  3  0  0  0  0  0  0
  184.2920  176.4730  137.8770 C   0  0  0  0  0  1  0  0  0  0  0  0
  183.2710  177.5980  137.9860 C   0  0  1  0  0  3  0  0  0  0  0  0
  183.4360  177.0360  135.5580 C   0  0  0  0  0  1  0  0  0  0  0  0
  182.8150  177.9710  136.5790 C   0  0  0  0  0  2  0  0  0  0  0  0
  184.9380  180.6020  144.1900 C   0  0  0  0  0  1  0  0  0  0  0  0
  185.1460  179.4170  143.2530 C   0  0  1  0  0  3  0  0  0  0  0  0
  186.3150  178.5910  143.6450 N   0  0  0  0  0  0  0  0  0  0  0  0
  187.7220  176.6290  143.1210 C   0  0  0  0  0  1  0  0  0  0  0  0
  186.7070  177.6280  142.5990 C   0  0  2  0  0  3  0  0  0  0  0  0
  187.1780  178.2590  141.4410 O   0  0  0  0  0  1  0  0  0  0  0  0
  185.9590  177.7920  144.8180 C   0  0  0  0  0  2  0  0  0  0  0  0
  186.7720  178.2100  146.0450 C   0  0  1  0  0  3  0  0  0  0  0  0
  185.8870  178.6410  147.2070 C   0  0  0  0  0  2  0  0  0  0  0  0
  184.5720  178.3070  146.9490 F   0  0  0  0  0  0  0  0  0  0  0  0
  189.3930  177.7470  146.2920 S   0  0  0  0  0  1  0  0  0  0  0  0
  187.7220  177.1680  146.4390 N   0  0  0  0  0  2  0  0  0  0  0  0
  1 22  1  6  0  0  0
  1  3  1  0  0  0  0
  2 11  1  0  0  0  0
  4  2  1  6  0  0  0
  4  1  1  0  0  0  0
  6  8  1  0  0  0  0
  6 13  1  0  0  0  0
  7  4  1  0  0  0  0
  7 10  1  1  0  0  0
  8  5  1  0  0  0  0
  9  5  1  6  0  0  0
  9 16  1  0  0  0  0
  9  7  1  0  0  0  0
 10 12  1  0  0  0  0
 11 13  1  6  0  0  0
 11  4  1  0  0  0  0
 12  3  1  0  0  0  0
 15 14  1  0  0  0  0
 16 15  1  6  0  0  0
 16 14  1  0  0  0  0
 18 17  1  6  0  0  0
 18  6  1  0  0  0  0
 19 20  1  0  0  0  0
 20 18  1  0  0  0  0
 22 23  1  0  0  0  0
 22 21  1  1  0  0  0
 23 27  1  0  0  0  0
 25 24  1  1  0  0  0
 25 23  1  0  0  0  0
 26 25  1  0  0  0  0
 28 27  1  6  0  0  0
 28 32  1  0  0  0  0
 28 29  1  0  0  0  0
 30 29  1  0  0  0  0
 31 32  1  0  0  0  0
M  END
>  <MODEL>
7

>  <REMARK>
 VINA RESULT:      -4.9      4.919      8.068
  Name = 
  10 active torsions:
  status: ('A' for Active; 'I' for Inactive)
    1  A    between atoms: C_1  and  C_27
    2  A    between atoms: C_3  and  C_7
    3  A    between atoms: C_7  and  C_20
    4  A    between atoms: C_7  and  N_26
    5  A    between atoms: N_10  and  C_12
    6  A    between atoms: C_12  and  C_31
    7  A    between atoms: N_16  and  C_20
    8  A    between atoms: N_16  and  C_22
    9  A    between atoms: N_16  and  C_27
   10  A    between atoms: C_18  and  C_29
                            x       y       z     vdW  Elec       q    Type
                         _______ _______ _______ _____ _____    ______ ____

>  <TORSDO>
F 10

$$$$
=
 OpenBabel11052414323D

 32 35  0  0  1  0  0  0  0  0999 V2000
  184.1480  178.3170  142.4730 C   0  0  1  0  0  3  0  0  0  0  0  0
  183.7590  178.5760  139.8740 C   0  0  0  0  0  2  0  0  0  0  0  0
  183.5550  178.6630  143.8380 C   0  0  0  0  0  2  0  0  0  0  0  0
  183.1710  178.4130  141.2660 C   0  0  2  0  0  0  0  0  0  0  0  0
  181.1840  179.3800  139.0250 C   0  0  0  0  0  2  0  0  0  0  0  0
  181.6020  176.9560  138.5270 N   0  0  0  0  0  0  0  0  0  0  0  0
  181.6510  178.7350  141.4920 C   0  0  2  0  0  3  0  0  0  0  0  0
  180.5900  178.0120  138.6870 C   0  0  0  0  0  2  0  0  0  0  0  0
  181.0280  179.7590  140.5050 C   0  0  2  0  0  3  0  0  0  0  0  0
  181.3310  179.1160  142.9410 C   0  0  0  0  0  2  0  0  0  0  0  0
  183.4200  177.1820  140.3690 C   0  0  1  0  0  3  0  0  0  0  0  0
  182.0990  178.2620  143.9270 C   0  0  0  0  0  2  0  0  0  0  0  0
  182.1140  176.5280  139.8430 C   0  0  0  0  0  2  0  0  0  0  0  0
  179.4050  181.3970  141.3370 N   0  0  0  0  0  2  0  0  0  0  0  0
  179.0460  181.1010  139.9450 C   0  0  0  0  0  2  0  0  0  0  0  0
  179.5530  180.0330  140.8050 C   0  0  1  0  0  3  0  0  0  0  0  0
  183.3830  175.9590  137.1460 C   0  0  0  0  0  1  0  0  0  0  0  0
  182.6260  177.2340  137.5010 C   0  0  1  0  0  3  0  0  0  0  0  0
  182.8680  177.4860  135.0280 C   0  0  0  0  0  1  0  0  0  0  0  0
  181.9890  177.7840  136.2280 C   0  0  0  0  0  2  0  0  0  0  0  0
  185.6480  180.1310  143.2850 C   0  0  0  0  0  1  0  0  0  0  0  0
  185.5370  178.9670  142.3060 C   0  0  1  0  0  3  0  0  0  0  0  0
  186.6640  178.0120  142.4410 N   0  0  0  0  0  0  0  0  0  0  0  0
  188.5710  178.0180  144.0130 C   0  0  0  0  0  1  0  0  0  0  0  0
  187.0770  177.8150  143.8430 C   0  0  2  0  0  3  0  0  0  0  0  0
  186.6830  176.5690  144.3470 O   0  0  0  0  0  1  0  0  0  0  0  0
  187.8310  178.5550  141.7470 C   0  0  0  0  0  2  0  0  0  0  0  0
  188.3040  177.6180  140.6330 C   0  0  1  0  0  3  0  0  0  0  0  0
  188.1550  178.2390  139.2510 C   0  0  0  0  0  2  0  0  0  0  0  0
  186.8670  178.0540  138.7870 F   0  0  0  0  0  0  0  0  0  0  0  0
  190.4990  176.8020  139.3430 S   0  0  0  0  0  1  0  0  0  0  0  0
  189.6680  177.1430  140.8750 N   0  0  0  0  0  2  0  0  0  0  0  0
  1 22  1  6  0  0  0
  1  3  1  0  0  0  0
  2 11  1  0  0  0  0
  3 12  1  0  0  0  0
  4  2  1  6  0  0  0
  4  7  1  0  0  0  0
  4  1  1  0  0  0  0
  6  8  1  0  0  0  0
  6 13  1  0  0  0  0
  7 10  1  1  0  0  0
  8  5  1  0  0  0  0
  9  5  1  6  0  0  0
  9 16  1  0  0  0  0
  9  7  1  0  0  0  0
 10 12  1  0  0  0  0
 11 13  1  6  0  0  0
 11  4  1  0  0  0  0
 15 14  1  0  0  0  0
 16 15  1  6  0  0  0
 16 14  1  0  0  0  0
 18 17  1  6  0  0  0
 18  6  1  0  0  0  0
 19 20  1  0  0  0  0
 20 18  1  0  0  0  0
 22 23  1  0  0  0  0
 22 21  1  1  0  0  0
 23 25  1  0  0  0  0
 25 24  1  6  0  0  0
 25 26  1  0  0  0  0
 27 23  1  0  0  0  0
 28 29  1  6  0  0  0
 28 32  1  0  0  0  0
 28 27  1  0  0  0  0
 30 29  1  0  0  0  0
 31 32  1  0  0  0  0
M  END
>  <MODEL>
8

>  <REMARK>
 VINA RESULT:      -4.7      4.526      8.016
  Name = 
  10 active torsions:
  status: ('A' for Active; 'I' for Inactive)
    1  A    between atoms: C_1  and  C_27
    2  A    between atoms: C_3  and  C_7
    3  A    between atoms: C_7  and  C_20
    4  A    between atoms: C_7  and  N_26
    5  A    between atoms: N_10  and  C_12
    6  A    between atoms: C_12  and  C_31
    7  A    between atoms: N_16  and  C_20
    8  A    between atoms: N_16  and  C_22
    9  A    between atoms: N_16  and  C_27
   10  A    between atoms: C_18  and  C_29
                            x       y       z     vdW  Elec       q    Type
                         _______ _______ _______ _____ _____    ______ ____

>  <TORSDO>
F 10

$$$$
=
 OpenBabel11052414323D

 32 35  0  0  1  0  0  0  0  0999 V2000
  183.0610  177.8970  138.5420 C   0  0  1  0  0  3  0  0  0  0  0  0
  182.2760  180.4140  138.3890 C   0  0  0  0  0  2  0  0  0  0  0  0
  182.9270  176.6250  139.3770 C   0  0  0  0  0  2  0  0  0  0  0  0
  181.9650  178.9770  138.7740 C   0  0  2  0  0  0  0  0  0  0  0  0
  180.0660  181.1810  139.9770 C   0  0  0  0  0  2  0  0  0  0  0  0
  179.4490  181.0400  137.5480 N   0  0  0  0  0  0  0  0  0  0  0  0
  180.7520  178.6920  139.7280 C   0  0  2  0  0  3  0  0  0  0  0  0
  178.9540  181.0700  138.9340 C   0  0  0  0  0  2  0  0  0  0  0  0
  180.3650  179.8510  140.6860 C   0  0  2  0  0  3  0  0  0  0  0  0
  180.8950  177.3760  140.5000 C   0  0  0  0  0  2  0  0  0  0  0  0
  181.5540  179.5260  137.3910 C   0  0  1  0  0  3  0  0  0  0  0  0
  181.4770  176.2800  139.6340 C   0  0  0  0  0  2  0  0  0  0  0  0
  180.0220  179.7170  137.2340 C   0  0  0  0  0  2  0  0  0  0  0  0
  179.6610  179.3620  142.9840 N   0  0  0  0  0  2  0  0  0  0  0  0
  178.9310  180.5600  142.5530 C   0  0  0  0  0  2  0  0  0  0  0  0
  179.1890  179.4870  141.5960 C   0  0  1  0  0  3  0  0  0  0  0  0
  180.4300  182.2630  135.6480 C   0  0  0  0  0  1  0  0  0  0  0  0
  180.2720  182.2030  137.1630 C   0  0  1  0  0  3  0  0  0  0  0  0
  180.5390  184.6810  137.3210 C   0  0  0  0  0  1  0  0  0  0  0  0
  179.6310  183.5050  137.6320 C   0  0  0  0  0  2  0  0  0  0  0  0
  184.9760  178.6310  139.9520 C   0  0  0  0  0  1  0  0  0  0  0  0
  184.5270  178.3780  138.5170 C   0  0  1  0  0  3  0  0  0  0  0  0
  185.4430  177.4610  137.7960 N   0  0  0  0  0  0  0  0  0  0  0  0
  187.2100  178.4050  136.3490 C   0  0  0  0  0  1  0  0  0  0  0  0
  186.8300  177.9640  137.7500 C   0  0  2  0  0  3  0  0  0  0  0  0
  187.7520  177.0370  138.2490 O   0  0  0  0  0  1  0  0  0  0  0  0
  185.0060  177.3500  136.4050 C   0  0  0  0  0  2  0  0  0  0  0  0
  184.7550  175.8920  136.0140 C   0  0  1  0  0  3  0  0  0  0  0  0
  185.2400  174.9150  137.0770 C   0  0  0  0  0  2  0  0  0  0  0  0
  184.1670  174.2340  137.6180 F   0  0  0  0  0  0  0  0  0  0  0  0
  182.7000  177.0350  134.7400 S   0  0  0  0  0  1  0  0  0  0  0  0
  183.3510  175.6650  135.6640 N   0  0  0  0  0  2  0  0  0  0  0  0
  1 22  1  1  0  0  0
  1  4  1  0  0  0  0
  1  3  1  0  0  0  0
  3 12  1  0  0  0  0
  4  2  1  1  0  0  0
  4  7  1  0  0  0  0
  6  8  1  0  0  0  0
  7 10  1  1  0  0  0
  7  9  1  0  0  0  0
  8  5  1  0  0  0  0
  9  5  1  6  0  0  0
  9 16  1  0  0  0  0
 11 13  1  1  0  0  0
 11  2  1  0  0  0  0
 11  4  1  0  0  0  0
 12 10  1  0  0  0  0
 13  6  1  0  0  0  0
 15 14  1  0  0  0  0
 16 15  1  1  0  0  0
 16 14  1  0  0  0  0
 18 17  1  6  0  0  0
 18  6  1  0  0  0  0
 18 20  1  0  0  0  0
 19 20  1  0  0  0  0
 22 21  1  1  0  0  0
 23 22  1  0  0  0  0
 25 24  1  6  0  0  0
 25 23  1  0  0  0  0
 25 26  1  0  0  0  0
 27 23  1  0  0  0  0
 28 27  1  1  0  0  0
 28 29  1  0  0  0  0
 29 30  1  0  0  0  0
 31 32  1  0  0  0  0
 32 28  1  0  0  0  0
M  END
>  <MODEL>
9

>  <REMARK>
 VINA RESULT:      -4.4      5.984      9.801
  Name = 
  10 active torsions:
  status: ('A' for Active; 'I' for Inactive)
    1  A    between atoms: C_1  and  C_27
    2  A    between atoms: C_3  and  C_7
    3  A    between atoms: C_7  and  C_20
    4  A    between atoms: C_7  and  N_26
    5  A    between atoms: N_10  and  C_12
    6  A    between atoms: C_12  and  C_31
    7  A    between atoms: N_16  and  C_20
    8  A    between atoms: N_16  and  C_22
    9  A    between atoms: N_16  and  C_27
   10  A    between atoms: C_18  and  C_29
                            x       y       z     vdW  Elec       q    Type
                         _______ _______ _______ _____ _____    ______ ____

>  <TORSDO>
F 10

$$$$
