=
 OpenBabel11052415593D

 34 38  0  0  1  0  0  0  0  0999 V2000
  182.6210  176.8820  139.2380 C   0  0  1  0  0  3  0  0  0  0  0  0
  185.0240  176.3090  136.1760 C   0  0  0  0  0  2  0  0  0  0  0  0
  182.7940  177.5040  136.3480 C   0  0  0  0  0  2  0  0  0  0  0  0
  182.7120  178.6340  141.0690 C   0  0  1  0  0  3  0  0  0  0  0  0
  182.6970  177.1400  140.7450 C   0  0  0  0  0  2  0  0  0  0  0  0
  181.4690  179.1840  138.9400 C   0  0  2  0  0  3  0  0  0  0  0  0
  182.5060  179.9060  138.3440 O   0  0  0  0  0  1  0  0  0  0  0  0
  181.5060  179.3520  140.4580 C   0  0  0  0  0  2  0  0  0  0  0  0
  181.4320  177.4090  137.0300 C   0  0  1  0  0  3  0  0  0  0  0  0
  181.5020  177.6950  138.5440 C   0  0  1  0  0  3  0  0  0  0  0  0
  180.4080  178.2710  136.3140 C   0  0  0  0  0  1  0  0  0  0  0  0
  186.3060  176.2410  137.0080 C   0  0  0  0  0  2  0  0  0  0  0  0
  186.8260  177.6410  137.3440 C   0  0  1  0  0  3  0  0  0  0  0  0
  185.7220  178.6550  137.6700 C   0  0  0  0  0  2  0  0  0  0  0  0
  183.7630  176.5410  137.0260 C   0  0  2  0  0  3  0  0  0  0  0  0
  184.7720  178.2080  138.7820 C   0  0  0  0  0  2  0  0  0  0  0  0
  183.9800  176.9090  138.5110 C   0  0  1  0  0  3  0  0  0  0  0  0
  187.8700  177.5680  138.4480 C   0  0  0  0  0  2  0  0  0  0  0  0
  189.0130  179.2810  137.8280 O   0  0  0  0  0  1  0  0  0  0  0  0
  188.2620  178.8570  138.8220 O   0  0  0  0  0  0  0  0  0  0  0  0
  182.8290  178.8820  142.5740 C   0  0  0  0  0  2  0  0  0  0  0  0
  186.4670  177.8090  142.8230 C   0  0  0  0  0  3  0  0  0  0  0  0
  184.3840  178.5880  144.5180 C   0  0  0  0  0  3  0  0  0  0  0  0
  188.2560  177.9250  146.1770 C   0  0  1  0  0  3  0  0  0  0  0  0
  188.0300  177.4620  144.7340 C   0  0  0  0  0  2  0  0  0  0  0  0
  186.6900  177.8840  144.2000 C   0  0  0  0  0  0  0  0  0  0  0  0
  185.8380  178.4150  146.5370 C   0  0  0  0  0  2  0  0  0  0  0  0
  185.6300  178.2550  145.0580 C   0  0  0  0  0  0  0  0  0  0  0  0
  187.0370  177.6160  147.0410 C   0  0  0  0  0  2  0  0  0  0  0  0
  184.1710  178.5220  143.1390 C   0  0  0  0  0  0  0  0  0  0  0  0
  185.2160  178.1330  142.2920 C   0  0  0  0  0  3  0  0  0  0  0  0
  189.5240  177.3170  146.7710 C   0  0  0  0  0  2  0  0  0  0  0  0
  190.6360  177.1660  145.7430 C   0  0  0  0  0  2  0  0  0  0  0  0
  191.8680  176.7920  146.4140 N   0  0  0  0  0  1  0  0  0  0  0  0
  1  5  1  1  0  0  0
  2 12  1  0  0  0  0
  2 15  1  0  0  0  0
  3 15  1  0  0  0  0
  3  9  1  0  0  0  0
  4 21  1  1  0  0  0
  5  4  1  0  0  0  0
  6  7  1  6  0  0  0
  6  8  1  0  0  0  0
  8  4  1  0  0  0  0
  9 11  1  6  0  0  0
  9 10  1  0  0  0  0
 10  6  1  0  0  0  0
 10  1  1  0  0  0  0
 12 13  1  0  0  0  0
 13 14  1  0  0  0  0
 13 18  1  0  0  0  0
 14 16  1  0  0  0  0
 15 17  1  0  0  0  0
 17 16  1  0  0  0  0
 17  1  1  0  0  0  0
 18 20  1  0  0  0  0
 19 20  1  0  0  0  0
 21 30  1  0  0  0  0
 22 26  1  0  0  0  0
 23 28  1  0  0  0  0
 24 32  1  0  0  0  0
 24 29  1  0  0  0  0
 25 24  1  0  0  0  0
 26 25  1  0  0  0  0
 26 28  2  0  0  0  0
 27 29  1  0  0  0  0
 28 27  1  0  0  0  0
 30 23  2  0  0  0  0
 31 22  2  0  0  0  0
 31 30  1  0  0  0  0
 33 34  1  0  0  0  0
 33 32  1  0  0  0  0
M  END
>  <MODEL>
1

>  <REMARK>
 VINA RESULT:      -9.1      0.000      0.000
  Name = 
  6 active torsions:
  status: ('A' for Active; 'I' for Inactive)
    1  A    between atoms: C_3  and  O_24
    2  A    between atoms: C_3  and  C_25
    3  A    between atoms: C_7  and  C_11
    4  A    between atoms: C_8  and  C_18
    5  A    between atoms: C_11  and  C_15
    6  A    between atoms: C_18  and  C_30
                            x       y       z     vdW  Elec       q    Type
                         _______ _______ _______ _____ _____    ______ ____

>  <TORSDO>
F 6

$$$$
=
 OpenBabel11052415593D

 34 38  0  0  1  0  0  0  0  0999 V2000
  189.0340  176.3450  143.6170 C   0  0  1  0  0  3  0  0  0  0  0  0
  185.4570  177.7890  144.3900 C   0  0  0  0  0  2  0  0  0  0  0  0
  187.6530  178.0130  145.6360 C   0  0  0  0  0  2  0  0  0  0  0  0
  190.8350  177.2140  142.0580 C   0  0  1  0  0  3  0  0  0  0  0  0
  189.9290  176.0350  142.4150 C   0  0  0  0  0  2  0  0  0  0  0  0
  190.7920  178.0640  144.4350 C   0  0  2  0  0  3  0  0  0  0  0  0
  190.1220  179.2570  144.1560 O   0  0  0  0  0  1  0  0  0  0  0  0
  191.6750  177.6580  143.2570 C   0  0  0  0  0  2  0  0  0  0  0  0
  188.9010  177.2210  146.0210 C   0  0  1  0  0  3  0  0  0  0  0  0
  189.8180  176.9310  144.8150 C   0  0  1  0  0  3  0  0  0  0  0  0
  189.6320  177.8900  147.1700 C   0  0  0  0  0  1  0  0  0  0  0  0
  185.0070  177.8510  142.9300 C   0  0  0  0  0  2  0  0  0  0  0  0
  185.5290  179.1130  142.2390 C   0  0  1  0  0  3  0  0  0  0  0  0
  186.9570  179.5010  142.6460 C   0  0  0  0  0  2  0  0  0  0  0  0
  186.8890  177.2520  144.5580 C   0  0  2  0  0  3  0  0  0  0  0  0
  187.9840  178.3830  142.4600 C   0  0  0  0  0  2  0  0  0  0  0  0
  187.7310  177.0930  143.2730 C   0  0  1  0  0  3  0  0  0  0  0  0
  185.3860  178.9900  140.7300 C   0  0  0  0  0  2  0  0  0  0  0  0
  184.5250  180.0660  139.0780 O   0  0  0  0  0  1  0  0  0  0  0  0
  184.2410  179.6700  140.3010 O   0  0  0  0  0  0  0  0  0  0  0  0
  191.6960  176.9100  140.8300 C   0  0  0  0  0  2  0  0  0  0  0  0
  190.7250  176.2750  137.2110 C   0  0  0  0  0  3  0  0  0  0  0  0
  189.6780  177.5300  139.4790 C   0  0  0  0  0  3  0  0  0  0  0  0
  187.2720  177.2750  135.9670 C   0  0  1  0  0  3  0  0  0  0  0  0
  188.7540  176.9110  135.8230 C   0  0  0  0  0  2  0  0  0  0  0  0
  189.4690  176.8830  137.1440 C   0  0  0  0  0  0  0  0  0  0  0  0
  187.5780  178.1470  138.2840 C   0  0  0  0  0  2  0  0  0  0  0  0
  188.9500  177.5380  138.2850 C   0  0  0  0  0  0  0  0  0  0  0  0
  187.1000  178.4900  136.8750 C   0  0  0  0  0  2  0  0  0  0  0  0
  190.9280  176.9110  139.5420 C   0  0  0  0  0  0  0  0  0  0  0  0
  191.4490  176.2820  138.4060 C   0  0  0  0  0  3  0  0  0  0  0  0
  186.6130  177.5000  134.6090 C   0  0  0  0  0  2  0  0  0  0  0  0
  185.1480  177.0870  134.5950 C   0  0  0  0  0  2  0  0  0  0  0  0
  184.9410  176.0080  135.5440 N   0  0  0  0  0  1  0  0  0  0  0  0
  1  5  1  6  0  0  0
  1 10  1  0  0  0  0
  2 15  1  0  0  0  0
  3  9  1  0  0  0  0
  4 21  1  6  0  0  0
  4  5  1  0  0  0  0
  4  8  1  0  0  0  0
  6  7  1  6  0  0  0
  6 10  1  0  0  0  0
  8  6  1  0  0  0  0
  9 11  1  1  0  0  0
 10  9  1  0  0  0  0
 12  2  1  0  0  0  0
 13 14  1  0  0  0  0
 13 12  1  0  0  0  0
 15  3  1  0  0  0  0
 16 14  1  0  0  0  0
 16 17  1  0  0  0  0
 17  1  1  0  0  0  0
 17 15  1  0  0  0  0
 18 13  1  0  0  0  0
 19 20  1  0  0  0  0
 20 18  1  0  0  0  0
 22 31  1  0  0  0  0
 23 30  1  0  0  0  0
 24 29  1  0  0  0  0
 25 24  1  0  0  0  0
 25 26  1  0  0  0  0
 26 22  2  0  0  0  0
 26 28  1  0  0  0  0
 27 28  1  0  0  0  0
 28 23  2  0  0  0  0
 29 27  1  0  0  0  0
 30 21  1  0  0  0  0
 31 30  2  0  0  0  0
 32 24  1  0  0  0  0
 33 32  1  0  0  0  0
 33 34  1  0  0  0  0
M  END
>  <MODEL>
2

>  <REMARK>
 VINA RESULT:      -8.8      3.474      8.880
  Name = 
  6 active torsions:
  status: ('A' for Active; 'I' for Inactive)
    1  A    between atoms: C_3  and  O_24
    2  A    between atoms: C_3  and  C_25
    3  A    between atoms: C_7  and  C_11
    4  A    between atoms: C_8  and  C_18
    5  A    between atoms: C_11  and  C_15
    6  A    between atoms: C_18  and  C_30
                            x       y       z     vdW  Elec       q    Type
                         _______ _______ _______ _____ _____    ______ ____

>  <TORSDO>
F 6

$$$$
=
 OpenBabel11052415593D

 34 38  0  0  1  0  0  0  0  0999 V2000
  186.5810  177.4080  136.0300 C   0  0  1  0  0  3  0  0  0  0  0  0
  182.6560  177.1500  135.9230 C   0  0  0  0  0  2  0  0  0  0  0  0
  184.4560  175.4160  135.4970 C   0  0  0  0  0  2  0  0  0  0  0  0
  188.1630  177.2920  138.0080 C   0  0  1  0  0  3  0  0  0  0  0  0
  187.6790  178.1240  136.8200 C   0  0  0  0  0  2  0  0  0  0  0  0
  187.5170  175.1380  136.8590 C   0  0  2  0  0  3  0  0  0  0  0  0
  186.5210  174.7760  137.7690 O   0  0  0  0  0  1  0  0  0  0  0  0
  188.6330  175.9050  137.5650 C   0  0  0  0  0  2  0  0  0  0  0  0
  185.8370  175.2490  134.8670 C   0  0  1  0  0  3  0  0  0  0  0  0
  186.9490  175.9480  135.6760 C   0  0  1  0  0  3  0  0  0  0  0  0
  186.1350  173.7860  134.5970 C   0  0  0  0  0  1  0  0  0  0  0  0
  182.4100  178.2530  136.9540 C   0  0  0  0  0  2  0  0  0  0  0  0
  182.5540  177.7230  138.3820 C   0  0  1  0  0  3  0  0  0  0  0  0
  183.6940  176.7110  138.5600 C   0  0  0  0  0  2  0  0  0  0  0  0
  184.1490  176.9020  135.6490 C   0  0  2  0  0  3  0  0  0  0  0  0
  185.0580  177.2190  138.0890 C   0  0  0  0  0  2  0  0  0  0  0  0
  185.1580  177.5940  136.5930 C   0  0  1  0  0  3  0  0  0  0  0  0
  182.6630  178.8760  139.3680 C   0  0  0  0  0  2  0  0  0  0  0  0
  184.2230  180.3280  139.0790 O   0  0  0  0  0  1  0  0  0  0  0  0
  182.9950  180.0540  138.6920 O   0  0  0  0  0  0  0  0  0  0  0  0
  189.2310  178.0330  138.8150 C   0  0  0  0  0  2  0  0  0  0  0  0
  190.0750  177.2900  142.4460 C   0  0  0  0  0  3  0  0  0  0  0  0
  187.8720  178.0890  140.9210 C   0  0  0  0  0  3  0  0  0  0  0  0
  187.4950  177.9350  145.1650 C   0  0  1  0  0  3  0  0  0  0  0  0
  188.7440  177.2920  144.5550 C   0  0  0  0  0  2  0  0  0  0  0  0
  188.8540  177.5400  143.0770 C   0  0  0  0  0  0  0  0  0  0  0  0
  186.4190  178.2680  142.9400 C   0  0  0  0  0  2  0  0  0  0  0  0
  187.7340  177.9220  142.3020 C   0  0  0  0  0  0  0  0  0  0  0  0
  186.2620  177.6310  144.3180 C   0  0  0  0  0  2  0  0  0  0  0  0
  189.0980  177.8490  140.2970 C   0  0  0  0  0  0  0  0  0  0  0  0
  190.2000  177.4500  141.0640 C   0  0  0  0  0  3  0  0  0  0  0  0
  187.2910  177.5030  146.6150 C   0  0  0  0  0  2  0  0  0  0  0  0
  188.5510  177.6600  147.4540 C   0  0  0  0  0  2  0  0  0  0  0  0
  188.1830  177.9160  148.8350 N   0  0  0  0  0  1  0  0  0  0  0  0
  1 17  1  0  0  0  0
  1  5  1  1  0  0  0
  2 12  1  0  0  0  0
  3 15  1  0  0  0  0
  4 21  1  6  0  0  0
  5  4  1  0  0  0  0
  6  8  1  0  0  0  0
  6  7  1  1  0  0  0
  8  4  1  0  0  0  0
  9 11  1  1  0  0  0
  9  3  1  0  0  0  0
  9 10  1  0  0  0  0
 10  1  1  0  0  0  0
 10  6  1  0  0  0  0
 12 13  1  0  0  0  0
 13 14  1  0  0  0  0
 13 18  1  0  0  0  0
 15  2  1  0  0  0  0
 15 17  1  0  0  0  0
 16 14  1  0  0  0  0
 17 16  1  0  0  0  0
 20 19  1  0  0  0  0
 20 18  1  0  0  0  0
 21 30  1  0  0  0  0
 22 26  1  0  0  0  0
 23 28  1  0  0  0  0
 24 32  1  0  0  0  0
 25 24  1  0  0  0  0
 26 25  1  0  0  0  0
 27 29  1  0  0  0  0
 28 27  1  0  0  0  0
 28 26  2  0  0  0  0
 29 24  1  0  0  0  0
 30 23  2  0  0  0  0
 30 31  1  0  0  0  0
 31 22  2  0  0  0  0
 32 33  1  0  0  0  0
 33 34  1  0  0  0  0
M  END
>  <MODEL>
3

>  <REMARK>
 VINA RESULT:      -8.1      1.982      4.818
  Name = 
  6 active torsions:
  status: ('A' for Active; 'I' for Inactive)
    1  A    between atoms: C_3  and  O_24
    2  A    between atoms: C_3  and  C_25
    3  A    between atoms: C_7  and  C_11
    4  A    between atoms: C_8  and  C_18
    5  A    between atoms: C_11  and  C_15
    6  A    between atoms: C_18  and  C_30
                            x       y       z     vdW  Elec       q    Type
                         _______ _______ _______ _____ _____    ______ ____

>  <TORSDO>
F 6

$$$$
=
 OpenBabel11052415593D

 34 38  0  0  1  0  0  0  0  0999 V2000
  185.5850  177.1980  135.5710 C   0  0  1  0  0  3  0  0  0  0  0  0
  181.7760  177.0380  136.5410 C   0  0  0  0  0  2  0  0  0  0  0  0
  183.3970  175.2200  135.8370 C   0  0  0  0  0  2  0  0  0  0  0  0
  187.6400  177.2410  137.0560 C   0  0  1  0  0  3  0  0  0  0  0  0
  186.8540  177.9600  135.9590 C   0  0  0  0  0  2  0  0  0  0  0  0
  186.7110  175.0000  136.3560 C   0  0  2  0  0  3  0  0  0  0  0  0
  185.9960  174.7600  137.5320 O   0  0  0  0  0  1  0  0  0  0  0  0
  187.9750  175.8030  136.6540 C   0  0  0  0  0  2  0  0  0  0  0  0
  184.5590  174.9530  134.8830 C   0  0  1  0  0  3  0  0  0  0  0  0
  185.8460  175.6990  135.2880 C   0  0  1  0  0  3  0  0  0  0  0  0
  184.7750  173.4620  134.7000 C   0  0  0  0  0  1  0  0  0  0  0  0
  181.8130  178.2460  137.4780 C   0  0  0  0  0  2  0  0  0  0  0  0
  182.3360  177.8620  138.8640 C   0  0  1  0  0  3  0  0  0  0  0  0
  183.4820  176.8430  138.8370 C   0  0  0  0  0  2  0  0  0  0  0  0
  183.1410  176.7220  135.9070 C   0  0  2  0  0  3  0  0  0  0  0  0
  184.6700  177.2620  137.9690 C   0  0  0  0  0  2  0  0  0  0  0  0
  184.3650  177.4790  136.4690 C   0  0  1  0  0  3  0  0  0  0  0  0
  182.7030  179.1060  139.6570 C   0  0  0  0  0  2  0  0  0  0  0  0
  184.1960  180.4870  138.9540 O   0  0  0  0  0  1  0  0  0  0  0  0
  182.9270  180.1790  138.7880 O   0  0  0  0  0  0  0  0  0  0  0  0
  188.8840  178.0310  137.4660 C   0  0  0  0  0  2  0  0  0  0  0  0
  191.0310  177.2120  140.4940 C   0  0  0  0  0  3  0  0  0  0  0  0
  188.3880  177.9240  139.9210 C   0  0  0  0  0  3  0  0  0  0  0  0
  189.5980  177.5910  143.9960 C   0  0  1  0  0  3  0  0  0  0  0  0
  190.5660  177.0520  142.9380 C   0  0  0  0  0  2  0  0  0  0  0  0
  190.1150  177.3600  141.5380 C   0  0  0  0  0  0  0  0  0  0  0  0
  187.7690  177.9360  142.3370 C   0  0  0  0  0  2  0  0  0  0  0  0
  188.7740  177.6980  141.2460 C   0  0  0  0  0  0  0  0  0  0  0  0
  188.1570  177.2400  143.6390 C   0  0  0  0  0  2  0  0  0  0  0  0
  189.3120  177.7850  138.8820 C   0  0  0  0  0  0  0  0  0  0  0  0
  190.6340  177.4290  139.1720 C   0  0  0  0  0  3  0  0  0  0  0  0
  189.9590  177.0940  145.3940 C   0  0  0  0  0  2  0  0  0  0  0  0
  191.4630  177.0320  145.6210 C   0  0  0  0  0  2  0  0  0  0  0  0
  191.7280  176.6880  147.0070 N   0  0  0  0  0  1  0  0  0  0  0  0
  1  5  1  1  0  0  0
  1 17  1  0  0  0  0
  2 12  1  0  0  0  0
  3 15  1  0  0  0  0
  4 21  1  6  0  0  0
  5  4  1  0  0  0  0
  6  8  1  0  0  0  0
  6  7  1  1  0  0  0
  8  4  1  0  0  0  0
  9 11  1  1  0  0  0
  9 10  1  0  0  0  0
  9  3  1  0  0  0  0
 10  1  1  0  0  0  0
 10  6  1  0  0  0  0
 12 13  1  0  0  0  0
 13 18  1  0  0  0  0
 14 13  1  0  0  0  0
 15 17  1  0  0  0  0
 15  2  1  0  0  0  0
 16 14  1  0  0  0  0
 17 16  1  0  0  0  0
 20 19  1  0  0  0  0
 20 18  1  0  0  0  0
 21 30  1  0  0  0  0
 22 26  1  0  0  0  0
 23 28  1  0  0  0  0
 24 32  1  0  0  0  0
 25 24  1  0  0  0  0
 26 25  1  0  0  0  0
 27 29  1  0  0  0  0
 28 26  2  0  0  0  0
 28 27  1  0  0  0  0
 29 24  1  0  0  0  0
 30 31  1  0  0  0  0
 30 23  2  0  0  0  0
 31 22  2  0  0  0  0
 32 33  1  0  0  0  0
 33 34  1  0  0  0  0
M  END
>  <MODEL>
4

>  <REMARK>
 VINA RESULT:      -7.8      2.243      4.979
  Name = 
  6 active torsions:
  status: ('A' for Active; 'I' for Inactive)
    1  A    between atoms: C_3  and  O_24
    2  A    between atoms: C_3  and  C_25
    3  A    between atoms: C_7  and  C_11
    4  A    between atoms: C_8  and  C_18
    5  A    between atoms: C_11  and  C_15
    6  A    between atoms: C_18  and  C_30
                            x       y       z     vdW  Elec       q    Type
                         _______ _______ _______ _____ _____    ______ ____

>  <TORSDO>
F 6

$$$$
=
 OpenBabel11052415593D

 34 38  0  0  1  0  0  0  0  0999 V2000
  181.9220  178.1940  139.6080 C   0  0  1  0  0  3  0  0  0  0  0  0
  180.4640  179.5850  136.2290 C   0  0  0  0  0  2  0  0  0  0  0  0
  179.8400  177.5480  137.6040 C   0  0  0  0  0  2  0  0  0  0  0  0
  181.4190  178.8770  141.9980 C   0  0  1  0  0  3  0  0  0  0  0  0
  182.4990  178.7120  140.9280 C   0  0  0  0  0  2  0  0  0  0  0  0
  179.9840  177.0930  140.9310 C   0  0  2  0  0  3  0  0  0  0  0  0
  178.9310  177.9400  140.5790 O   0  0  0  0  0  1  0  0  0  0  0  0
  180.6480  177.5740  142.2200 C   0  0  0  0  0  2  0  0  0  0  0  0
  180.4570  176.4380  138.4520 C   0  0  1  0  0  3  0  0  0  0  0  0
  181.0160  176.9540  139.7940 C   0  0  1  0  0  3  0  0  0  0  0  0
  179.4860  175.2840  138.6220 C   0  0  0  0  0  1  0  0  0  0  0  0
  180.7990  181.0490  136.5180 C   0  0  0  0  0  2  0  0  0  0  0  0
  179.7410  181.6970  137.4140 C   0  0  1  0  0  3  0  0  0  0  0  0
  179.2070  180.7730  138.5160 C   0  0  0  0  0  2  0  0  0  0  0  0
  180.8830  178.6340  137.3630 C   0  0  2  0  0  3  0  0  0  0  0  0
  180.2950  180.1700  139.4060 C   0  0  0  0  0  2  0  0  0  0  0  0
  181.3390  179.2850  138.6880 C   0  0  1  0  0  3  0  0  0  0  0  0
  180.2560  183.0120  137.9780 C   0  0  0  0  0  2  0  0  0  0  0  0
  181.9170  184.2310  137.3600 O   0  0  0  0  0  1  0  0  0  0  0  0
  181.6510  183.0570  137.8920 O   0  0  0  0  0  0  0  0  0  0  0  0
  181.9980  179.4340  143.3000 C   0  0  0  0  0  2  0  0  0  0  0  0
  185.5560  178.1860  142.8170 C   0  0  0  0  0  3  0  0  0  0  0  0
  183.8330  178.8680  144.9110 C   0  0  0  0  0  3  0  0  0  0  0  0
  187.8800  177.8700  145.8110 C   0  0  1  0  0  3  0  0  0  0  0  0
  187.3910  177.5720  144.3900 C   0  0  0  0  0  2  0  0  0  0  0  0
  186.0080  178.1050  144.1360 C   0  0  0  0  0  0  0  0  0  0  0  0
  185.5890  178.4210  146.6250 C   0  0  0  0  0  2  0  0  0  0  0  0
  185.1290  178.4280  145.1950 C   0  0  0  0  0  0  0  0  0  0  0  0
  186.8040  177.5230  146.8360 C   0  0  0  0  0  2  0  0  0  0  0  0
  183.3910  178.9590  143.5890 C   0  0  0  0  0  0  0  0  0  0  0  0
  184.2560  178.6180  142.5430 C   0  0  0  0  0  3  0  0  0  0  0  0
  189.1900  177.1480  146.1170 C   0  0  0  0  0  2  0  0  0  0  0  0
  189.7730  177.5430  147.4660 C   0  0  0  0  0  2  0  0  0  0  0  0
  191.0070  176.8130  147.6930 N   0  0  0  0  0  1  0  0  0  0  0  0
  1 10  1  0  0  0  0
  1  5  1  1  0  0  0
  2 12  1  0  0  0  0
  2 15  1  0  0  0  0
  3  9  1  0  0  0  0
  4  8  1  0  0  0  0
  4 21  1  1  0  0  0
  5  4  1  0  0  0  0
  6  7  1  6  0  0  0
  6  8  1  0  0  0  0
  9 11  1  1  0  0  0
  9 10  1  0  0  0  0
 10  6  1  0  0  0  0
 12 13  1  0  0  0  0
 13 18  1  0  0  0  0
 13 14  1  0  0  0  0
 14 16  1  0  0  0  0
 15  3  1  0  0  0  0
 15 17  1  0  0  0  0
 17 16  1  0  0  0  0
 17  1  1  0  0  0  0
 19 20  1  0  0  0  0
 20 18  1  0  0  0  0
 21 30  1  0  0  0  0
 22 26  1  0  0  0  0
 23 28  1  0  0  0  0
 24 32  1  0  0  0  0
 24 29  1  0  0  0  0
 25 24  1  0  0  0  0
 26 25  1  0  0  0  0
 26 28  2  0  0  0  0
 27 29  1  0  0  0  0
 28 27  1  0  0  0  0
 30 23  2  0  0  0  0
 31 22  2  0  0  0  0
 31 30  1  0  0  0  0
 32 33  1  0  0  0  0
 33 34  1  0  0  0  0
M  END
>  <MODEL>
5

>  <REMARK>
 VINA RESULT:      -7.7      3.091      4.082
  Name = 
  6 active torsions:
  status: ('A' for Active; 'I' for Inactive)
    1  A    between atoms: C_3  and  O_24
    2  A    between atoms: C_3  and  C_25
    3  A    between atoms: C_7  and  C_11
    4  A    between atoms: C_8  and  C_18
    5  A    between atoms: C_11  and  C_15
    6  A    between atoms: C_18  and  C_30
                            x       y       z     vdW  Elec       q    Type
                         _______ _______ _______ _____ _____    ______ ____

>  <TORSDO>
F 6

$$$$
=
 OpenBabel11052415593D

 34 38  0  0  1  0  0  0  0  0999 V2000
  188.1120  176.3820  142.9430 C   0  0  1  0  0  3  0  0  0  0  0  0
  191.8510  175.4980  143.7890 C   0  0  0  0  0  2  0  0  0  0  0  0
  190.8370  176.7930  141.8600 C   0  0  0  0  0  2  0  0  0  0  0  0
  186.6450  178.2520  143.8250 C   0  0  1  0  0  3  0  0  0  0  0  0
  186.8100  176.7410  143.6620 C   0  0  0  0  0  2  0  0  0  0  0  0
  188.0730  178.7040  141.7920 C   0  0  2  0  0  3  0  0  0  0  0  0
  189.1120  179.3380  142.4770 O   0  0  0  0  0  1  0  0  0  0  0  0
  186.7360  178.9750  142.4800 C   0  0  0  0  0  2  0  0  0  0  0  0
  189.6320  176.8030  140.9230 C   0  0  1  0  0  3  0  0  0  0  0  0
  188.3230  177.1900  141.6400 C   0  0  1  0  0  3  0  0  0  0  0  0
  189.9070  177.6540  139.6970 C   0  0  0  0  0  1  0  0  0  0  0  0
  191.6460  175.4360  145.3040 C   0  0  0  0  0  2  0  0  0  0  0  0
  191.6790  176.8320  145.9290 C   0  0  1  0  0  3  0  0  0  0  0  0
  190.9950  177.9120  145.0790 C   0  0  0  0  0  2  0  0  0  0  0  0
  190.5650  175.8410  143.0190 C   0  0  2  0  0  3  0  0  0  0  0  0
  189.5510  177.5830  144.6980 C   0  0  0  0  0  2  0  0  0  0  0  0
  189.3510  176.3020  143.8570 C   0  0  1  0  0  3  0  0  0  0  0  0
  191.1270  176.7930  147.3450 C   0  0  0  0  0  2  0  0  0  0  0  0
  192.7950  176.0110  148.4560 O   0  0  0  0  0  1  0  0  0  0  0  0
  192.1300  177.1300  148.2590 O   0  0  0  0  0  0  0  0  0  0  0  0
  185.3610  178.5990  144.5810 C   0  0  0  0  0  2  0  0  0  0  0  0
  181.7650  179.0180  143.4230 C   0  0  0  0  0  3  0  0  0  0  0  0
  184.2370  178.2480  142.3680 C   0  0  0  0  0  3  0  0  0  0  0  0
  180.8920  178.5920  139.7460 C   0  0  1  0  0  3  0  0  0  0  0  0
  180.6030  178.6370  141.2500 C   0  0  0  0  0  2  0  0  0  0  0  0
  181.8590  178.6660  142.0750 C   0  0  0  0  0  0  0  0  0  0  0  0
  183.2720  177.9330  140.0900 C   0  0  0  0  0  2  0  0  0  0  0  0
  183.1050  178.2550  141.5470 C   0  0  0  0  0  0  0  0  0  0  0  0
  181.9530  177.5410  139.4310 C   0  0  0  0  0  2  0  0  0  0  0  0
  184.1380  178.6120  143.7130 C   0  0  0  0  0  0  0  0  0  0  0  0
  182.8990  178.9980  144.2380 C   0  0  0  0  0  3  0  0  0  0  0  0
  179.6200  178.3550  138.9360 C   0  0  0  0  0  2  0  0  0  0  0  0
  179.8280  178.5720  137.4440 C   0  0  0  0  0  2  0  0  0  0  0  0
  180.2830  179.9310  137.2120 N   0  0  0  0  0  1  0  0  0  0  0  0
  1  5  1  1  0  0  0
  1 17  1  0  0  0  0
  2 12  1  0  0  0  0
  3 15  1  0  0  0  0
  4 21  1  6  0  0  0
  5  4  1  0  0  0  0
  6  7  1  1  0  0  0
  6  8  1  0  0  0  0
  8  4  1  0  0  0  0
  9 11  1  6  0  0  0
  9 10  1  0  0  0  0
  9  3  1  0  0  0  0
 10  6  1  0  0  0  0
 10  1  1  0  0  0  0
 12 13  1  0  0  0  0
 13 18  1  0  0  0  0
 14 13  1  0  0  0  0
 15  2  1  0  0  0  0
 15 17  1  0  0  0  0
 16 14  1  0  0  0  0
 17 16  1  0  0  0  0
 18 20  1  0  0  0  0
 20 19  1  0  0  0  0
 22 31  1  0  0  0  0
 23 30  1  0  0  0  0
 24 25  1  0  0  0  0
 25 26  1  0  0  0  0
 26 22  2  0  0  0  0
 27 28  1  0  0  0  0
 28 26  1  0  0  0  0
 28 23  2  0  0  0  0
 29 24  1  0  0  0  0
 29 27  1  0  0  0  0
 30 31  2  0  0  0  0
 30 21  1  0  0  0  0
 32 24  1  0  0  0  0
 33 32  1  0  0  0  0
 34 33  1  0  0  0  0
M  END
>  <MODEL>
6

>  <REMARK>
 VINA RESULT:      -7.6      4.101      8.511
  Name = 
  6 active torsions:
  status: ('A' for Active; 'I' for Inactive)
    1  A    between atoms: C_3  and  O_24
    2  A    between atoms: C_3  and  C_25
    3  A    between atoms: C_7  and  C_11
    4  A    between atoms: C_8  and  C_18
    5  A    between atoms: C_11  and  C_15
    6  A    between atoms: C_18  and  C_30
                            x       y       z     vdW  Elec       q    Type
                         _______ _______ _______ _____ _____    ______ ____

>  <TORSDO>
F 6

$$$$
=
 OpenBabel11052415593D

 34 38  0  0  1  0  0  0  0  0999 V2000
  189.8360  178.3960  146.1680 C   0  0  1  0  0  3  0  0  0  0  0  0
  191.9050  177.0480  143.1050 C   0  0  0  0  0  2  0  0  0  0  0  0
  191.7870  176.2660  145.5140 C   0  0  0  0  0  2  0  0  0  0  0  0
  187.4270  177.9540  146.8220 C   0  0  1  0  0  3  0  0  0  0  0  0
  188.4690  179.0150  146.4670 C   0  0  0  0  0  2  0  0  0  0  0  0
  189.2090  176.3790  147.6690 C   0  0  2  0  0  3  0  0  0  0  0  0
  189.0150  175.3960  146.6960 O   0  0  0  0  0  1  0  0  0  0  0  0
  187.8920  177.0810  147.9890 C   0  0  0  0  0  2  0  0  0  0  0  0
  191.6800  176.7930  146.9430 C   0  0  1  0  0  3  0  0  0  0  0  0
  190.2940  177.3940  147.2540 C   0  0  1  0  0  3  0  0  0  0  0  0
  192.1010  175.7330  147.9430 C   0  0  0  0  0  1  0  0  0  0  0  0
  190.9030  177.5010  142.0420 C   0  0  0  0  0  2  0  0  0  0  0  0
  189.7540  176.5000  141.8970 C   0  0  1  0  0  3  0  0  0  0  0  0
  189.2830  175.8950  143.2260 C   0  0  0  0  0  2  0  0  0  0  0  0
  191.4640  177.3920  144.5380 C   0  0  2  0  0  3  0  0  0  0  0  0
  188.8940  176.9320  144.2810 C   0  0  0  0  0  2  0  0  0  0  0  0
  190.0160  177.9010  144.7190 C   0  0  1  0  0  3  0  0  0  0  0  0
  188.6050  177.1200  141.1190 C   0  0  0  0  0  2  0  0  0  0  0  0
  188.2300  178.6820  139.6880 O   0  0  0  0  0  1  0  0  0  0  0  0
  188.9070  178.4450  140.7920 O   0  0  0  0  0  0  0  0  0  0  0  0
  186.0540  178.5780  147.0790 C   0  0  0  0  0  2  0  0  0  0  0  0
  183.0070  178.9770  144.8410 C   0  0  0  0  0  3  0  0  0  0  0  0
  185.7310  178.3940  144.6000 C   0  0  0  0  0  3  0  0  0  0  0  0
  183.4000  178.8620  141.0600 C   0  0  1  0  0  3  0  0  0  0  0  0
  182.6380  178.7590  142.3850 C   0  0  0  0  0  2  0  0  0  0  0  0
  183.5550  178.7550  143.5760 C   0  0  0  0  0  0  0  0  0  0  0  0
  185.5770  178.2570  142.1140 C   0  0  0  0  0  2  0  0  0  0  0  0
  184.9280  178.4370  143.4560 C   0  0  0  0  0  0  0  0  0  0  0  0
  184.5690  177.8820  141.0310 C   0  0  0  0  0  2  0  0  0  0  0  0
  185.1800  178.6280  145.8610 C   0  0  0  0  0  0  0  0  0  0  0  0
  183.8160  178.9210  145.9790 C   0  0  0  0  0  3  0  0  0  0  0  0
  182.4760  178.6570  139.8620 C   0  0  0  0  0  2  0  0  0  0  0  0
  182.6010  179.7690  138.8310 C   0  0  0  0  0  2  0  0  0  0  0  0
  183.8340  180.5010  139.0560 N   0  0  0  0  0  1  0  0  0  0  0  0
  1  5  1  1  0  0  0
  1 10  1  0  0  0  0
  2 15  1  0  0  0  0
  3  9  1  0  0  0  0
  4 21  1  1  0  0  0
  4  8  1  0  0  0  0
  5  4  1  0  0  0  0
  6  7  1  6  0  0  0
  6  8  1  0  0  0  0
  9 10  1  0  0  0  0
  9 11  1  1  0  0  0
 10  6  1  0  0  0  0
 12  2  1  0  0  0  0
 13 12  1  0  0  0  0
 13 14  1  0  0  0  0
 14 16  1  0  0  0  0
 15 17  1  0  0  0  0
 15  3  1  0  0  0  0
 16 17  1  0  0  0  0
 17  1  1  0  0  0  0
 18 13  1  0  0  0  0
 19 20  1  0  0  0  0
 20 18  1  0  0  0  0
 22 31  1  0  0  0  0
 23 30  1  0  0  0  0
 24 25  1  0  0  0  0
 25 26  1  0  0  0  0
 26 22  2  0  0  0  0
 27 28  1  0  0  0  0
 28 26  1  0  0  0  0
 28 23  2  0  0  0  0
 29 24  1  0  0  0  0
 29 27  1  0  0  0  0
 30 31  2  0  0  0  0
 30 21  1  0  0  0  0
 32 24  1  0  0  0  0
 33 34  1  0  0  0  0
 33 32  1  0  0  0  0
M  END
>  <MODEL>
7

>  <REMARK>
 VINA RESULT:      -7.5      3.187      8.542
  Name = 
  6 active torsions:
  status: ('A' for Active; 'I' for Inactive)
    1  A    between atoms: C_3  and  O_24
    2  A    between atoms: C_3  and  C_25
    3  A    between atoms: C_7  and  C_11
    4  A    between atoms: C_8  and  C_18
    5  A    between atoms: C_11  and  C_15
    6  A    between atoms: C_18  and  C_30
                            x       y       z     vdW  Elec       q    Type
                         _______ _______ _______ _____ _____    ______ ____

>  <TORSDO>
F 6

$$$$
=
 OpenBabel11052415593D

 34 38  0  0  1  0  0  0  0  0999 V2000
  190.4620  174.6530  137.5660 C   0  0  1  0  0  3  0  0  0  0  0  0
  193.3850  173.1590  135.3970 C   0  0  0  0  0  2  0  0  0  0  0  0
  190.8700  173.0940  135.0820 C   0  0  0  0  0  2  0  0  0  0  0  0
  189.5180  177.0050  137.6200 C   0  0  1  0  0  3  0  0  0  0  0  0
  190.1640  175.8810  138.4290 C   0  0  0  0  0  2  0  0  0  0  0  0
  188.5500  175.3600  135.9660 C   0  0  2  0  0  3  0  0  0  0  0  0
  189.2940  175.7970  134.8680 O   0  0  0  0  0  1  0  0  0  0  0  0
  188.2510  176.5260  136.9070 C   0  0  0  0  0  2  0  0  0  0  0  0
  189.5660  172.9600  135.8640 C   0  0  1  0  0  3  0  0  0  0  0  0
  189.2500  174.2080  136.7140 C   0  0  1  0  0  3  0  0  0  0  0  0
  188.4230  172.5680  134.9460 C   0  0  0  0  0  1  0  0  0  0  0  0
  194.4180  174.2110  135.8010 C   0  0  0  0  0  2  0  0  0  0  0  0
  194.2620  175.4920  134.9770 C   0  0  1  0  0  3  0  0  0  0  0  0
  192.8040  175.8780  134.6970 C   0  0  0  0  0  2  0  0  0  0  0  0
  192.0110  173.3780  136.0530 C   0  0  2  0  0  3  0  0  0  0  0  0
  191.9380  175.9980  135.9520 C   0  0  0  0  0  2  0  0  0  0  0  0
  191.7980  174.7140  136.8000 C   0  0  1  0  0  3  0  0  0  0  0  0
  195.0370  176.6330  135.6170 C   0  0  0  0  0  2  0  0  0  0  0  0
  195.8890  178.5870  135.3320 O   0  0  0  0  0  1  0  0  0  0  0  0
  195.0750  177.7300  134.7520 O   0  0  0  0  0  0  0  0  0  0  0  0
  189.2610  178.2430  138.4810 C   0  0  0  0  0  2  0  0  0  0  0  0
  190.7300  177.4960  141.9070 C   0  0  0  0  0  3  0  0  0  0  0  0
  188.2340  178.0140  140.7570 C   0  0  0  0  0  3  0  0  0  0  0  0
  188.5150  177.6410  144.9950 C   0  0  1  0  0  3  0  0  0  0  0  0
  189.7400  177.2170  144.1780 C   0  0  0  0  0  2  0  0  0  0  0  0
  189.5920  177.5350  142.7160 C   0  0  0  0  0  0  0  0  0  0  0  0
  187.0860  177.8940  142.9680 C   0  0  0  0  0  2  0  0  0  0  0  0
  188.3280  177.7750  142.1310 C   0  0  0  0  0  0  0  0  0  0  0  0
  187.2270  177.1880  144.3130 C   0  0  0  0  0  2  0  0  0  0  0  0
  189.3770  177.9840  139.9540 C   0  0  0  0  0  0  0  0  0  0  0  0
  190.6250  177.7260  140.5320 C   0  0  0  0  0  3  0  0  0  0  0  0
  188.5920  177.1270  146.4310 C   0  0  0  0  0  2  0  0  0  0  0  0
  187.8190  178.0030  147.4060 C   0  0  0  0  0  2  0  0  0  0  0  0
  188.3720  177.8450  148.7400 N   0  0  0  0  0  1  0  0  0  0  0  0
  1  5  1  6  0  0  0
  2 12  1  0  0  0  0
  2 15  1  0  0  0  0
  3  9  1  0  0  0  0
  3 15  1  0  0  0  0
  4  5  1  0  0  0  0
  4 21  1  1  0  0  0
  6  7  1  6  0  0  0
  6 10  1  0  0  0  0
  6  8  1  0  0  0  0
  8  4  1  0  0  0  0
  9 11  1  6  0  0  0
  9 10  1  0  0  0  0
 10  1  1  0  0  0  0
 13 18  1  0  0  0  0
 13 12  1  0  0  0  0
 14 13  1  0  0  0  0
 14 16  1  0  0  0  0
 15 17  1  0  0  0  0
 16 17  1  0  0  0  0
 17  1  1  0  0  0  0
 20 19  1  0  0  0  0
 20 18  1  0  0  0  0
 21 30  1  0  0  0  0
 22 26  1  0  0  0  0
 23 28  1  0  0  0  0
 24 32  1  0  0  0  0
 25 24  1  0  0  0  0
 26 25  1  0  0  0  0
 27 29  1  0  0  0  0
 28 26  2  0  0  0  0
 28 27  1  0  0  0  0
 29 24  1  0  0  0  0
 30 31  1  0  0  0  0
 30 23  2  0  0  0  0
 31 22  2  0  0  0  0
 32 33  1  0  0  0  0
 33 34  1  0  0  0  0
M  END
>  <MODEL>
8

>  <REMARK>
 VINA RESULT:      -7.5      4.538      7.054
  Name = 
  6 active torsions:
  status: ('A' for Active; 'I' for Inactive)
    1  A    between atoms: C_3  and  O_24
    2  A    between atoms: C_3  and  C_25
    3  A    between atoms: C_7  and  C_11
    4  A    between atoms: C_8  and  C_18
    5  A    between atoms: C_11  and  C_15
    6  A    between atoms: C_18  and  C_30
                            x       y       z     vdW  Elec       q    Type
                         _______ _______ _______ _____ _____    ______ ____

>  <TORSDO>
F 6

$$$$
=
 OpenBabel11052415593D

 34 38  0  0  1  0  0  0  0  0999 V2000
  188.5970  176.1000  135.5710 C   0  0  1  0  0  3  0  0  0  0  0  0
  186.8720  172.7020  134.5940 C   0  0  0  0  0  2  0  0  0  0  0  0
  189.3140  173.3030  134.9140 C   0  0  0  0  0  2  0  0  0  0  0  0
  188.9430  177.1490  137.8530 C   0  0  1  0  0  3  0  0  0  0  0  0
  188.3430  177.3210  136.4580 C   0  0  0  0  0  2  0  0  0  0  0  0
  190.7020  175.5590  136.9830 C   0  0  2  0  0  3  0  0  0  0  0  0
  190.2500  174.4390  137.6840 O   0  0  0  0  0  1  0  0  0  0  0  0
  190.4380  176.8320  137.7850 C   0  0  0  0  0  2  0  0  0  0  0  0
  190.3150  174.4280  134.6650 C   0  0  1  0  0  3  0  0  0  0  0  0
  190.0770  175.6500  135.5760 C   0  0  1  0  0  3  0  0  0  0  0  0
  191.7400  173.9090  134.7350 C   0  0  0  0  0  1  0  0  0  0  0  0
  185.5610  172.9880  135.3270 C   0  0  0  0  0  2  0  0  0  0  0  0
  185.6760  172.6720  136.8200 C   0  0  1  0  0  3  0  0  0  0  0  0
  187.0290  173.0530  137.4350 C   0  0  0  0  0  2  0  0  0  0  0  0
  187.8990  173.8390  134.7260 C   0  0  2  0  0  3  0  0  0  0  0  0
  187.4250  174.5140  137.2150 C   0  0  0  0  0  2  0  0  0  0  0  0
  187.5770  174.9570  135.7420 C   0  0  1  0  0  3  0  0  0  0  0  0
  184.5140  173.2860  137.5840 C   0  0  0  0  0  2  0  0  0  0  0  0
  182.9570  171.8450  137.2310 O   0  0  0  0  0  1  0  0  0  0  0  0
  183.3170  173.0660  136.8950 O   0  0  0  0  0  0  0  0  0  0  0  0
  188.6490  178.3570  138.7450 C   0  0  0  0  0  2  0  0  0  0  0  0
  189.9680  177.3180  142.1550 C   0  0  0  0  0  3  0  0  0  0  0  0
  187.5880  178.2400  141.0130 C   0  0  0  0  0  3  0  0  0  0  0  0
  187.7870  177.7370  145.2430 C   0  0  1  0  0  3  0  0  0  0  0  0
  188.9350  177.1460  144.4180 C   0  0  0  0  0  2  0  0  0  0  0  0
  188.8460  177.5150  142.9640 C   0  0  0  0  0  0  0  0  0  0  0  0
  186.4240  178.2510  143.2190 C   0  0  0  0  0  2  0  0  0  0  0  0
  187.6360  177.9600  142.3820 C   0  0  0  0  0  0  0  0  0  0  0  0
  186.4470  177.5030  144.5490 C   0  0  0  0  0  2  0  0  0  0  0  0
  188.7160  178.0510  140.2120 C   0  0  0  0  0  0  0  0  0  0  0  0
  189.9060  177.5910  140.7860 C   0  0  0  0  0  3  0  0  0  0  0  0
  187.7760  177.1860  146.6670 C   0  0  0  0  0  2  0  0  0  0  0  0
  187.4630  178.2560  147.7040 C   0  0  0  0  0  2  0  0  0  0  0  0
  187.9310  177.8180  149.0060 N   0  0  0  0  0  1  0  0  0  0  0  0
  1 10  1  0  0  0  0
  1 17  1  0  0  0  0
  1  5  1  1  0  0  0
  2 15  1  0  0  0  0
  2 12  1  0  0  0  0
  4 21  1  1  0  0  0
  5  4  1  0  0  0  0
  6  7  1  1  0  0  0
  6  8  1  0  0  0  0
  8  4  1  0  0  0  0
  9 11  1  1  0  0  0
  9  3  1  0  0  0  0
  9 10  1  0  0  0  0
 10  6  1  0  0  0  0
 12 13  1  0  0  0  0
 13 14  1  0  0  0  0
 13 18  1  0  0  0  0
 15  3  1  0  0  0  0
 15 17  1  0  0  0  0
 16 14  1  0  0  0  0
 17 16  1  0  0  0  0
 20 19  1  0  0  0  0
 20 18  1  0  0  0  0
 21 30  1  0  0  0  0
 22 26  1  0  0  0  0
 23 28  1  0  0  0  0
 24 32  1  0  0  0  0
 25 24  1  0  0  0  0
 26 25  1  0  0  0  0
 27 29  1  0  0  0  0
 28 26  2  0  0  0  0
 28 27  1  0  0  0  0
 29 24  1  0  0  0  0
 30 31  1  0  0  0  0
 30 23  2  0  0  0  0
 31 22  2  0  0  0  0
 32 33  1  0  0  0  0
 33 34  1  0  0  0  0
M  END
>  <MODEL>
9

>  <REMARK>
 VINA RESULT:      -7.3      3.787      6.419
  Name = 
  6 active torsions:
  status: ('A' for Active; 'I' for Inactive)
    1  A    between atoms: C_3  and  O_24
    2  A    between atoms: C_3  and  C_25
    3  A    between atoms: C_7  and  C_11
    4  A    between atoms: C_8  and  C_18
    5  A    between atoms: C_11  and  C_15
    6  A    between atoms: C_18  and  C_30
                            x       y       z     vdW  Elec       q    Type
                         _______ _______ _______ _____ _____    ______ ____

>  <TORSDO>
F 6

$$$$
