=
 OpenBabel11052413393D

 27 31  0  0  0  0  0  0  0  0999 V2000
  187.6180  178.5090  140.9650 C   0  0  0  0  0  3  0  0  0  0  0  0
  189.5830  177.6110  142.2010 C   0  0  0  0  0  0  0  0  0  0  0  0
  187.6140  177.4080  143.7500 N   0  0  0  0  0  0  0  0  0  0  0  0
  191.9070  177.2610  145.5850 N   0  0  0  0  0  0  0  0  0  0  0  0
  191.0730  176.9500  147.8570 N   0  0  0  0  0  1  0  0  0  0  0  0
  190.9940  177.6820  142.0560 C   0  0  0  0  0  3  0  0  0  0  0  0
  189.6560  177.1510  145.8750 N   0  0  0  0  0  0  0  0  0  0  0  0
  184.2590  178.5740  143.3490 C   0  0  0  0  0  0  0  0  0  0  0  0
  188.3690  177.0330  146.5420 C   0  0  0  0  0  1  0  0  0  0  0  0
  182.7630  178.5270  144.2550 Cl  0  0  0  0  0  0  0  0  0  0  0  0
  189.9140  177.3220  144.5660 C   0  0  0  0  0  0  0  0  0  0  0  0
  188.7620  177.6530  141.0280 N   0  0  0  0  0  0  0  0  0  0  0  0
  190.8770  177.1170  146.4560 C   0  0  0  0  0  0  0  0  0  0  0  0
  191.2710  177.3880  144.4040 C   0  0  0  0  0  0  0  0  0  0  0  0
  186.6550  178.6140  141.8800 C   0  0  0  0  0  0  0  0  0  0  0  0
  189.0220  177.4520  143.4890 C   0  0  0  0  0  0  0  0  0  0  0  0
  185.3750  177.8750  143.8080 C   0  0  0  0  0  3  0  0  0  0  0  0
  191.8530  177.5770  143.1600 C   0  0  0  0  0  3  0  0  0  0  0  0
  184.3540  179.3470  142.1970 C   0  0  0  0  0  3  0  0  0  0  0  0
  185.5410  179.3560  141.4660 C   0  0  0  0  0  3  0  0  0  0  0  0
  186.5930  177.9090  143.1160 C   0  0  0  0  0  0  0  0  0  0  0  0
  190.0550  175.7910  137.4540 C   0  0  0  0  0  3  0  0  0  0  0  0
  189.1870  177.0030  139.8080 C   0  0  0  0  0  0  0  0  0  0  0  0
  190.4080  176.3140  139.7420 C   0  0  0  0  0  3  0  0  0  0  0  0
  190.8090  175.7270  138.5830 N   0  0  0  0  0  0  0  0  0  0  0  0
  188.8380  176.4740  137.4630 C   0  0  0  0  0  3  0  0  0  0  0  0
  188.4080  177.0820  138.6430 C   0  0  0  0  0  3  0  0  0  0  0  0
  1 12  1  0  0  0  0
  1 15  2  0  0  0  0
  2 16  1  0  0  0  0
  4 13  2  0  0  0  0
  6  2  2  0  0  0  0
  6 18  1  0  0  0  0
  7 13  1  0  0  0  0
  7  9  1  0  0  0  0
  8 17  2  0  0  0  0
  8 10  1  0  0  0  0
 11  7  1  0  0  0  0
 12  2  1  0  0  0  0
 13  5  1  0  0  0  0
 14 11  1  0  0  0  0
 14  4  1  0  0  0  0
 15 21  1  0  0  0  0
 16  3  1  0  0  0  0
 16 11  2  0  0  0  0
 18 14  2  0  0  0  0
 19  8  1  0  0  0  0
 20 15  1  0  0  0  0
 20 19  2  0  0  0  0
 21  3  2  0  0  0  0
 21 17  1  0  0  0  0
 22 26  2  0  0  0  0
 22 25  1  0  0  0  0
 23 12  1  0  0  0  0
 24 23  1  0  0  0  0
 25 24  2  0  0  0  0
 26 27  1  0  0  0  0
 27 23  2  0  0  0  0
M  END
>  <MODEL>
1

>  <REMARK>
 VINA RESULT:      -9.2      0.000      0.000
  Name = 
  1 active torsions:
  status: ('A' for Active; 'I' for Inactive)
    1  A    between atoms: C_9  and  N_15
                            x       y       z     vdW  Elec       q    Type
                         _______ _______ _______ _____ _____    ______ ____

>  <TORSDO>
F 1

$$$$
=
 OpenBabel11052413393D

 27 31  0  0  0  0  0  0  0  0999 V2000
  184.9490  177.7630  143.2480 C   0  0  0  0  0  3  0  0  0  0  0  0
  187.4040  177.4070  143.0450 C   0  0  0  0  0  0  0  0  0  0  0  0
  186.6860  178.6180  140.9640 N   0  0  0  0  0  0  0  0  0  0  0  0
  190.7650  176.3440  140.9140 N   0  0  0  0  0  0  0  0  0  0  0  0
  191.2620  177.0060  138.6180 N   0  0  0  0  0  1  0  0  0  0  0  0
  188.3660  176.5770  143.6800 C   0  0  0  0  0  3  0  0  0  0  0  0
  189.2540  177.6630  139.8470 N   0  0  0  0  0  0  0  0  0  0  0  0
  183.4080  179.4930  139.8420 C   0  0  0  0  0  0  0  0  0  0  0  0
  188.6310  178.4510  138.7960 C   0  0  0  0  0  1  0  0  0  0  0  0
  182.6930  180.3310  138.4820 Cl  0  0  0  0  0  0  0  0  0  0  0  0
  188.8040  177.4100  141.0900 C   0  0  0  0  0  0  0  0  0  0  0  0
  186.2670  177.8500  143.7960 N   0  0  0  0  0  0  0  0  0  0  0  0
  190.4350  177.0070  139.7780 C   0  0  0  0  0  0  0  0  0  0  0  0
  189.7210  176.6140  141.7210 C   0  0  0  0  0  0  0  0  0  0  0  0
  184.5620  178.1810  142.0430 C   0  0  0  0  0  0  0  0  0  0  0  0
  187.6100  177.8160  141.7080 C   0  0  0  0  0  0  0  0  0  0  0  0
  184.7940  179.4550  139.9870 C   0  0  0  0  0  3  0  0  0  0  0  0
  189.5340  176.1670  143.0200 C   0  0  0  0  0  3  0  0  0  0  0  0
  182.5980  178.8230  140.7530 C   0  0  0  0  0  3  0  0  0  0  0  0
  183.1740  178.1820  141.8480 C   0  0  0  0  0  3  0  0  0  0  0  0
  185.3970  178.7750  141.0540 C   0  0  0  0  0  0  0  0  0  0  0  0
  186.6570  178.9010  147.8770 C   0  0  0  0  0  3  0  0  0  0  0  0
  186.3960  178.1890  145.1960 C   0  0  0  0  0  0  0  0  0  0  0  0
  185.5190  179.1020  145.8040 C   0  0  0  0  0  3  0  0  0  0  0  0
  185.6640  179.4320  147.1150 N   0  0  0  0  0  0  0  0  0  0  0  0
  187.5600  177.9970  147.3180 C   0  0  0  0  0  3  0  0  0  0  0  0
  187.4280  177.6450  145.9750 C   0  0  0  0  0  3  0  0  0  0  0  0
  1 12  1  0  0  0  0
  2  6  1  0  0  0  0
  2 12  1  0  0  0  0
  3 21  2  0  0  0  0
  3 16  1  0  0  0  0
  4 14  1  0  0  0  0
  5 13  1  0  0  0  0
  7 11  1  0  0  0  0
  8 17  2  0  0  0  0
  8 19  1  0  0  0  0
  9  7  1  0  0  0  0
 10  8  1  0  0  0  0
 11 16  1  0  0  0  0
 11 14  2  0  0  0  0
 12 23  1  0  0  0  0
 13  7  1  0  0  0  0
 13  4  2  0  0  0  0
 14 18  1  0  0  0  0
 15  1  2  0  0  0  0
 16  2  2  0  0  0  0
 17 21  1  0  0  0  0
 18  6  2  0  0  0  0
 19 20  2  0  0  0  0
 20 15  1  0  0  0  0
 21 15  1  0  0  0  0
 23 24  2  0  0  0  0
 23 27  1  0  0  0  0
 24 25  1  0  0  0  0
 25 22  2  0  0  0  0
 26 22  1  0  0  0  0
 27 26  2  0  0  0  0
M  END
>  <MODEL>
2

>  <REMARK>
 VINA RESULT:      -9.2      2.575      5.899
  Name = 
  1 active torsions:
  status: ('A' for Active; 'I' for Inactive)
    1  A    between atoms: C_9  and  N_15
                            x       y       z     vdW  Elec       q    Type
                         _______ _______ _______ _____ _____    ______ ____

>  <TORSDO>
F 1

$$$$
=
 OpenBabel11052413393D

 27 31  0  0  0  0  0  0  0  0999 V2000
  184.8090  179.0770  143.5620 C   0  0  0  0  0  3  0  0  0  0  0  0
  185.9600  178.4080  141.4580 C   0  0  0  0  0  0  0  0  0  0  0  0
  187.3230  177.4640  143.3480 N   0  0  0  0  0  0  0  0  0  0  0  0
  189.3410  177.9090  139.1590 N   0  0  0  0  0  0  0  0  0  0  0  0
  191.4580  176.9680  139.9280 N   0  0  0  0  0  1  0  0  0  0  0  0
  185.9140  178.8200  140.1010 C   0  0  0  0  0  3  0  0  0  0  0  0
  189.4740  177.2440  141.3280 N   0  0  0  0  0  0  0  0  0  0  0  0
  186.9610  177.9090  146.8750 C   0  0  0  0  0  0  0  0  0  0  0  0
  190.0290  176.7100  142.5610 C   0  0  0  0  0  1  0  0  0  0  0  0
  187.7510  177.3490  148.3320 Cl  0  0  0  0  0  0  0  0  0  0  0  0
  188.2390  177.7290  141.1000 C   0  0  0  0  0  0  0  0  0  0  0  0
  184.7710  178.5020  142.2530 N   0  0  0  0  0  0  0  0  0  0  0  0
  190.1070  177.3670  140.1390 C   0  0  0  0  0  0  0  0  0  0  0  0
  188.1720  178.1270  139.7930 C   0  0  0  0  0  0  0  0  0  0  0  0
  185.6700  178.7770  144.5350 C   0  0  0  0  0  0  0  0  0  0  0  0
  187.1580  177.8720  141.9850 C   0  0  0  0  0  0  0  0  0  0  0  0
  187.3400  177.3980  145.6350 C   0  0  0  0  0  3  0  0  0  0  0  0
  187.0250  178.6870  139.2540 C   0  0  0  0  0  3  0  0  0  0  0  0
  185.9870  178.9010  146.9470 C   0  0  0  0  0  3  0  0  0  0  0  0
  185.3430  179.3210  145.7850 C   0  0  0  0  0  3  0  0  0  0  0  0
  186.7400  177.8420  144.4480 C   0  0  0  0  0  0  0  0  0  0  0  0
  180.9630  177.6580  140.6110 C   0  0  0  0  0  3  0  0  0  0  0  0
  183.4750  178.2240  141.6740 C   0  0  0  0  0  0  0  0  0  0  0  0
  182.3030  178.7630  142.2280 C   0  0  0  0  0  3  0  0  0  0  0  0
  181.0880  178.4750  141.6900 N   0  0  0  0  0  0  0  0  0  0  0  0
  182.0960  177.0880  140.0300 C   0  0  0  0  0  3  0  0  0  0  0  0
  183.3520  177.3710  140.5670 C   0  0  0  0  0  3  0  0  0  0  0  0
  1 15  2  0  0  0  0
  2 16  1  0  0  0  0
  2 12  1  0  0  0  0
  3 21  2  0  0  0  0
  4 14  1  0  0  0  0
  4 13  2  0  0  0  0
  5 13  1  0  0  0  0
  6  2  2  0  0  0  0
  7  9  1  0  0  0  0
  8 19  1  0  0  0  0
  8 10  1  0  0  0  0
 11  7  1  0  0  0  0
 11 16  2  0  0  0  0
 12  1  1  0  0  0  0
 13  7  1  0  0  0  0
 14 11  1  0  0  0  0
 15 20  1  0  0  0  0
 16  3  1  0  0  0  0
 17  8  2  0  0  0  0
 18 14  2  0  0  0  0
 18  6  1  0  0  0  0
 20 19  2  0  0  0  0
 21 15  1  0  0  0  0
 21 17  1  0  0  0  0
 22 25  1  0  0  0  0
 23 24  1  0  0  0  0
 23 12  1  0  0  0  0
 25 24  2  0  0  0  0
 26 27  1  0  0  0  0
 26 22  2  0  0  0  0
 27 23  2  0  0  0  0
M  END
>  <MODEL>
3

>  <REMARK>
 VINA RESULT:      -8.9      2.677      5.746
  Name = 
  1 active torsions:
  status: ('A' for Active; 'I' for Inactive)
    1  A    between atoms: C_9  and  N_15
                            x       y       z     vdW  Elec       q    Type
                         _______ _______ _______ _____ _____    ______ ____

>  <TORSDO>
F 1

$$$$
=
 OpenBabel11052413393D

 27 31  0  0  0  0  0  0  0  0999 V2000
  184.8710  179.3000  144.3640 C   0  0  0  0  0  3  0  0  0  0  0  0
  185.6800  178.5940  142.1180 C   0  0  0  0  0  0  0  0  0  0  0  0
  187.1730  177.4710  143.8000 N   0  0  0  0  0  0  0  0  0  0  0  0
  188.6840  177.8580  139.3970 N   0  0  0  0  0  0  0  0  0  0  0  0
  190.7820  176.7040  139.8710 N   0  0  0  0  0  1  0  0  0  0  0  0
  185.5040  179.0490  140.7850 C   0  0  0  0  0  3  0  0  0  0  0  0
  189.0230  177.1170  141.5180 N   0  0  0  0  0  0  0  0  0  0  0  0
  187.3010  177.8390  147.3530 C   0  0  0  0  0  0  0  0  0  0  0  0
  189.6760  176.4970  142.6600 C   0  0  0  0  0  1  0  0  0  0  0  0
  188.2110  177.1640  148.6850 Cl  0  0  0  0  0  0  0  0  0  0  0  0
  187.8220  177.7200  141.4590 C   0  0  0  0  0  0  0  0  0  0  0  0
  184.6150  178.7720  143.0600 N   0  0  0  0  0  0  0  0  0  0  0  0
  189.5110  177.2180  140.2600 C   0  0  0  0  0  0  0  0  0  0  0  0
  187.6290  178.1620  140.1790 C   0  0  0  0  0  0  0  0  0  0  0  0
  185.8140  178.8930  145.2130 C   0  0  0  0  0  0  0  0  0  0  0  0
  186.8780  177.9340  142.4770 C   0  0  0  0  0  0  0  0  0  0  0  0
  187.4710  177.3340  146.0640 C   0  0  0  0  0  3  0  0  0  0  0  0
  186.4810  178.8420  139.8010 C   0  0  0  0  0  3  0  0  0  0  0  0
  186.4420  178.9130  147.5670 C   0  0  0  0  0  3  0  0  0  0  0  0
  185.7000  179.4250  146.5040 C   0  0  0  0  0  3  0  0  0  0  0  0
  186.7710  177.8660  144.9730 C   0  0  0  0  0  0  0  0  0  0  0  0
  180.5880  178.4040  141.8080 C   0  0  0  0  0  3  0  0  0  0  0  0
  183.2360  178.6310  142.6470 C   0  0  0  0  0  0  0  0  0  0  0  0
  182.9090  178.1850  141.3560 C   0  0  0  0  0  3  0  0  0  0  0  0
  181.6090  178.0790  140.9700 N   0  0  0  0  0  0  0  0  0  0  0  0
  180.8610  178.8620  143.0970 C   0  0  0  0  0  3  0  0  0  0  0  0
  182.1870  178.9770  143.5130 C   0  0  0  0  0  3  0  0  0  0  0  0
  1 15  2  0  0  0  0
  2 16  1  0  0  0  0
  2 12  1  0  0  0  0
  3 21  2  0  0  0  0
  4 14  1  0  0  0  0
  4 13  2  0  0  0  0
  5 13  1  0  0  0  0
  6  2  2  0  0  0  0
  7  9  1  0  0  0  0
  8 19  1  0  0  0  0
  8 10  1  0  0  0  0
 11  7  1  0  0  0  0
 11 16  2  0  0  0  0
 12  1  1  0  0  0  0
 13  7  1  0  0  0  0
 14 11  1  0  0  0  0
 15 20  1  0  0  0  0
 16  3  1  0  0  0  0
 17  8  2  0  0  0  0
 18 14  2  0  0  0  0
 18  6  1  0  0  0  0
 20 19  2  0  0  0  0
 21 15  1  0  0  0  0
 21 17  1  0  0  0  0
 22 26  1  0  0  0  0
 23 12  1  0  0  0  0
 23 27  1  0  0  0  0
 24 23  2  0  0  0  0
 25 24  1  0  0  0  0
 25 22  2  0  0  0  0
 26 27  2  0  0  0  0
M  END
>  <MODEL>
4

>  <REMARK>
 VINA RESULT:      -8.9      2.671      6.156
  Name = 
  1 active torsions:
  status: ('A' for Active; 'I' for Inactive)
    1  A    between atoms: C_9  and  N_15
                            x       y       z     vdW  Elec       q    Type
                         _______ _______ _______ _____ _____    ______ ____

>  <TORSDO>
F 1

$$$$
=
 OpenBabel11052413393D

 27 31  0  0  0  0  0  0  0  0999 V2000
  184.3310  179.3200  144.2740 C   0  0  0  0  0  3  0  0  0  0  0  0
  184.9510  178.8030  141.9190 C   0  0  0  0  0  0  0  0  0  0  0  0
  186.6820  177.7010  143.3710 N   0  0  0  0  0  0  0  0  0  0  0  0
  187.7030  178.4460  138.8740 N   0  0  0  0  0  0  0  0  0  0  0  0
  189.9110  177.4260  139.0650 N   0  0  0  0  0  1  0  0  0  0  0  0
  184.6080  179.3190  140.6420 C   0  0  0  0  0  3  0  0  0  0  0  0
  188.3080  177.6150  140.9000 N   0  0  0  0  0  0  0  0  0  0  0  0
  187.1480  177.8760  146.9100 C   0  0  0  0  0  0  0  0  0  0  0  0
  189.1150  176.9810  141.9300 C   0  0  0  0  0  1  0  0  0  0  0  0
  188.2350  177.1960  148.1010 Cl  0  0  0  0  0  0  0  0  0  0  0  0
  187.0680  178.1290  140.9980 C   0  0  0  0  0  0  0  0  0  0  0  0
  183.9790  178.8480  142.9700 N   0  0  0  0  0  0  0  0  0  0  0  0
  188.6560  177.8220  139.6090 C   0  0  0  0  0  0  0  0  0  0  0  0
  186.7160  178.6280  139.7730 C   0  0  0  0  0  0  0  0  0  0  0  0
  185.3820  178.9370  144.9980 C   0  0  0  0  0  0  0  0  0  0  0  0
  186.2220  178.2150  142.1150 C   0  0  0  0  0  0  0  0  0  0  0  0
  187.2190  177.4590  145.5810 C   0  0  0  0  0  3  0  0  0  0  0  0
  185.4910  179.2400  139.5550 C   0  0  0  0  0  3  0  0  0  0  0  0
  186.2450  178.8700  147.2750 C   0  0  0  0  0  3  0  0  0  0  0  0
  185.3650  179.3850  146.3260 C   0  0  0  0  0  3  0  0  0  0  0  0
  186.3770  177.9990  144.6000 C   0  0  0  0  0  0  0  0  0  0  0  0
  179.8790  178.1590  142.1770 C   0  0  0  0  0  3  0  0  0  0  0  0
  182.5780  178.6290  142.6860 C   0  0  0  0  0  0  0  0  0  0  0  0
  181.6070  178.7470  143.6940 C   0  0  0  0  0  3  0  0  0  0  0  0
  180.2950  178.5160  143.4210 N   0  0  0  0  0  0  0  0  0  0  0  0
  180.8050  178.0180  141.1430 C   0  0  0  0  0  3  0  0  0  0  0  0
  182.1550  178.2520  141.4030 C   0  0  0  0  0  3  0  0  0  0  0  0
  1 15  2  0  0  0  0
  2 16  1  0  0  0  0
  2 12  1  0  0  0  0
  3 21  2  0  0  0  0
  4 13  2  0  0  0  0
  4 14  1  0  0  0  0
  5 13  1  0  0  0  0
  6  2  2  0  0  0  0
  7 11  1  0  0  0  0
  7  9  1  0  0  0  0
  8 19  1  0  0  0  0
  8 10  1  0  0  0  0
 11 16  2  0  0  0  0
 12  1  1  0  0  0  0
 13  7  1  0  0  0  0
 14 11  1  0  0  0  0
 15 20  1  0  0  0  0
 16  3  1  0  0  0  0
 17  8  2  0  0  0  0
 18 14  2  0  0  0  0
 18  6  1  0  0  0  0
 20 19  2  0  0  0  0
 21 15  1  0  0  0  0
 21 17  1  0  0  0  0
 22 25  1  0  0  0  0
 23 12  1  0  0  0  0
 23 24  1  0  0  0  0
 25 24  2  0  0  0  0
 26 27  1  0  0  0  0
 26 22  2  0  0  0  0
 27 23  2  0  0  0  0
M  END
>  <MODEL>
5

>  <REMARK>
 VINA RESULT:      -8.4      2.876      6.646
  Name = 
  1 active torsions:
  status: ('A' for Active; 'I' for Inactive)
    1  A    between atoms: C_9  and  N_15
                            x       y       z     vdW  Elec       q    Type
                         _______ _______ _______ _____ _____    ______ ____

>  <TORSDO>
F 1

$$$$
=
 OpenBabel11052413393D

 27 31  0  0  0  0  0  0  0  0999 V2000
  184.5360  179.1350  141.6620 C   0  0  0  0  0  3  0  0  0  0  0  0
  186.0890  178.3360  139.8890 C   0  0  0  0  0  0  0  0  0  0  0  0
  187.1060  177.6590  142.0860 N   0  0  0  0  0  0  0  0  0  0  0  0
  189.8610  177.8160  138.3170 N   0  0  0  0  0  0  0  0  0  0  0  0
  191.8300  177.0790  139.5570 N   0  0  0  0  0  1  0  0  0  0  0  0
  186.2850  178.6110  138.5100 C   0  0  0  0  0  3  0  0  0  0  0  0
  189.6070  177.3720  140.5300 N   0  0  0  0  0  0  0  0  0  0  0  0
  186.0670  178.4200  145.4190 C   0  0  0  0  0  0  0  0  0  0  0  0
  189.9400  176.9930  141.8940 C   0  0  0  0  0  1  0  0  0  0  0  0
  186.5890  178.0500  147.0470 Cl  0  0  0  0  0  0  0  0  0  0  0  0
  188.4200  177.7590  140.0290 C   0  0  0  0  0  0  0  0  0  0  0  0
  184.7690  178.4360  140.4370 N   0  0  0  0  0  0  0  0  0  0  0  0
  190.4480  177.4170  139.4720 C   0  0  0  0  0  0  0  0  0  0  0  0
  188.5850  178.0250  138.6980 C   0  0  0  0  0  0  0  0  0  0  0  0
  185.2080  178.9820  142.8020 C   0  0  0  0  0  0  0  0  0  0  0  0
  187.1860  177.9240  140.6800 C   0  0  0  0  0  0  0  0  0  0  0  0
  186.6930  177.8150  144.3300 C   0  0  0  0  0  3  0  0  0  0  0  0
  187.5390  178.4630  137.9000 C   0  0  0  0  0  3  0  0  0  0  0  0
  185.0590  179.3550  145.2050 C   0  0  0  0  0  3  0  0  0  0  0  0
  184.6300  179.6230  143.9070 C   0  0  0  0  0  3  0  0  0  0  0  0
  186.3110  178.1060  143.0140 C   0  0  0  0  0  0  0  0  0  0  0  0
  181.3650  177.2780  138.2040 C   0  0  0  0  0  3  0  0  0  0  0  0
  183.6180  178.0280  139.6620 C   0  0  0  0  0  0  0  0  0  0  0  0
  182.9260  178.9440  138.8540 C   0  0  0  0  0  3  0  0  0  0  0  0
  181.8310  178.5550  138.1490 N   0  0  0  0  0  0  0  0  0  0  0  0
  182.0100  176.3320  139.0000 C   0  0  0  0  0  3  0  0  0  0  0  0
  183.1360  176.7110  139.7310 C   0  0  0  0  0  3  0  0  0  0  0  0
  1 15  2  0  0  0  0
  2 12  1  0  0  0  0
  2 16  1  0  0  0  0
  3 21  2  0  0  0  0
  4 14  1  0  0  0  0
  4 13  2  0  0  0  0
  6  2  2  0  0  0  0
  7  9  1  0  0  0  0
  8 10  1  0  0  0  0
 11  7  1  0  0  0  0
 11 16  2  0  0  0  0
 12  1  1  0  0  0  0
 13  5  1  0  0  0  0
 13  7  1  0  0  0  0
 14 11  1  0  0  0  0
 15 21  1  0  0  0  0
 15 20  1  0  0  0  0
 16  3  1  0  0  0  0
 17  8  2  0  0  0  0
 18  6  1  0  0  0  0
 18 14  2  0  0  0  0
 19  8  1  0  0  0  0
 20 19  2  0  0  0  0
 21 17  1  0  0  0  0
 22 26  1  0  0  0  0
 23 27  1  0  0  0  0
 23 12  1  0  0  0  0
 24 23  2  0  0  0  0
 25 22  2  0  0  0  0
 25 24  1  0  0  0  0
 26 27  2  0  0  0  0
M  END
>  <MODEL>
6

>  <REMARK>
 VINA RESULT:      -7.8      2.926      5.535
  Name = 
  1 active torsions:
  status: ('A' for Active; 'I' for Inactive)
    1  A    between atoms: C_9  and  N_15
                            x       y       z     vdW  Elec       q    Type
                         _______ _______ _______ _____ _____    ______ ____

>  <TORSDO>
F 1

$$$$
=
 OpenBabel11052413393D

 27 31  0  0  0  0  0  0  0  0999 V2000
  183.1600  178.2090  137.7670 C   0  0  0  0  0  3  0  0  0  0  0  0
  182.9950  178.8760  140.1600 C   0  0  0  0  0  0  0  0  0  0  0  0
  185.4460  178.6480  139.6510 N   0  0  0  0  0  0  0  0  0  0  0  0
  184.0840  178.5360  144.1180 N   0  0  0  0  0  0  0  0  0  0  0  0
  186.3650  178.2920  144.9490 N   0  0  0  0  0  1  0  0  0  0  0  0
  181.9690  178.8930  141.1410 C   0  0  0  0  0  3  0  0  0  0  0  0
  185.7640  178.4930  142.5890 N   0  0  0  0  0  0  0  0  0  0  0  0
  187.0690  177.4790  136.6900 C   0  0  0  0  0  0  0  0  0  0  0  0
  187.1070  178.4080  142.0370 C   0  0  0  0  0  1  0  0  0  0  0  0
  188.7090  177.2620  136.1200 Cl  0  0  0  0  0  0  0  0  0  0  0  0
  184.5940  178.6330  141.9400 C   0  0  0  0  0  0  0  0  0  0  0  0
  182.6430  179.0710  138.7840 N   0  0  0  0  0  0  0  0  0  0  0  0
  185.4180  178.4400  143.8960 C   0  0  0  0  0  0  0  0  0  0  0  0
  183.5900  178.6570  142.8690 C   0  0  0  0  0  0  0  0  0  0  0  0
  184.4360  177.8630  137.5940 C   0  0  0  0  0  0  0  0  0  0  0  0
  184.3410  178.7170  140.5610 C   0  0  0  0  0  0  0  0  0  0  0  0
  186.8320  178.0960  137.9170 C   0  0  0  0  0  3  0  0  0  0  0  0
  182.2570  178.7770  142.5090 C   0  0  0  0  0  3  0  0  0  0  0  0
  186.0000  176.9910  135.9440 C   0  0  0  0  0  3  0  0  0  0  0  0
  184.6960  177.1930  136.3910 C   0  0  0  0  0  3  0  0  0  0  0  0
  185.5310  178.2660  138.4100 C   0  0  0  0  0  0  0  0  0  0  0  0
  179.5750  181.7570  137.6500 C   0  0  0  0  0  3  0  0  0  0  0  0
  181.5940  179.9960  138.4160 C   0  0  0  0  0  0  0  0  0  0  0  0
  180.3420  179.5350  137.9800 C   0  0  0  0  0  3  0  0  0  0  0  0
  179.3700  180.4130  137.6140 N   0  0  0  0  0  0  0  0  0  0  0  0
  180.8050  182.2660  138.0660 C   0  0  0  0  0  3  0  0  0  0  0  0
  181.8140  181.3810  138.4470 C   0  0  0  0  0  3  0  0  0  0  0  0
  1 12  1  0  0  0  0
  2 16  2  0  0  0  0
  2  6  1  0  0  0  0
  3 16  1  0  0  0  0
  6 18  2  0  0  0  0
  7 13  1  0  0  0  0
  8 17  2  0  0  0  0
  9  7  1  0  0  0  0
 10  8  1  0  0  0  0
 11  7  1  0  0  0  0
 11 14  2  0  0  0  0
 12  2  1  0  0  0  0
 13  4  2  0  0  0  0
 13  5  1  0  0  0  0
 14  4  1  0  0  0  0
 15  1  2  0  0  0  0
 15 21  1  0  0  0  0
 16 11  1  0  0  0  0
 17 21  1  0  0  0  0
 18 14  1  0  0  0  0
 19 20  2  0  0  0  0
 19  8  1  0  0  0  0
 20 15  1  0  0  0  0
 21  3  2  0  0  0  0
 22 26  1  0  0  0  0
 23 27  1  0  0  0  0
 23 12  1  0  0  0  0
 24 23  2  0  0  0  0
 25 22  2  0  0  0  0
 25 24  1  0  0  0  0
 26 27  2  0  0  0  0
M  END
>  <MODEL>
7

>  <REMARK>
 VINA RESULT:      -7.7      4.593      7.712
  Name = 
  1 active torsions:
  status: ('A' for Active; 'I' for Inactive)
    1  A    between atoms: C_9  and  N_15
                            x       y       z     vdW  Elec       q    Type
                         _______ _______ _______ _____ _____    ______ ____

>  <TORSDO>
F 1

$$$$
=
 OpenBabel11052413393D

 27 31  0  0  0  0  0  0  0  0999 V2000
  190.0570  175.9590  142.6650 C   0  0  0  0  0  3  0  0  0  0  0  0
  187.9900  177.3230  142.9160 C   0  0  0  0  0  0  0  0  0  0  0  0
  189.1850  177.4270  145.1250 N   0  0  0  0  0  0  0  0  0  0  0  0
  184.6430  178.5110  145.0020 N   0  0  0  0  0  0  0  0  0  0  0  0
  184.5560  179.0030  147.3910 N   0  0  0  0  0  1  0  0  0  0  0  0
  186.7690  177.4570  142.2040 C   0  0  0  0  0  3  0  0  0  0  0  0
  186.5670  178.3020  146.1920 N   0  0  0  0  0  0  0  0  0  0  0  0
  192.1130  175.7000  146.2260 C   0  0  0  0  0  0  0  0  0  0  0  0
  187.4810  178.3080  147.3230 C   0  0  0  0  0  1  0  0  0  0  0  0
  193.1060  175.6350  147.6650 Cl  0  0  0  0  0  0  0  0  0  0  0  0
  186.8190  177.9920  144.9070 C   0  0  0  0  0  0  0  0  0  0  0  0
  189.1810  176.9860  142.1940 N   0  0  0  0  0  0  0  0  0  0  0  0
  185.2500  178.6110  146.2100 C   0  0  0  0  0  0  0  0  0  0  0  0
  185.6530  178.1190  144.2010 C   0  0  0  0  0  0  0  0  0  0  0  0
  190.5380  175.8330  143.9020 C   0  0  0  0  0  0  0  0  0  0  0  0
  188.0170  177.5700  144.3070 C   0  0  0  0  0  0  0  0  0  0  0  0
  191.0730  176.6240  146.1350 C   0  0  0  0  0  3  0  0  0  0  0  0
  185.5840  177.8520  142.8430 C   0  0  0  0  0  3  0  0  0  0  0  0
  192.3270  174.7960  145.1900 C   0  0  0  0  0  3  0  0  0  0  0  0
  191.5500  174.8730  144.0350 C   0  0  0  0  0  3  0  0  0  0  0  0
  190.2480  176.6870  145.0040 C   0  0  0  0  0  0  0  0  0  0  0  0
  189.8050  178.5160  138.2970 C   0  0  0  0  0  3  0  0  0  0  0  0
  189.4130  177.5160  140.8680 C   0  0  0  0  0  0  0  0  0  0  0  0
  188.5960  178.5280  140.3390 C   0  0  0  0  0  3  0  0  0  0  0  0
  188.8090  179.0030  139.0830 N   0  0  0  0  0  0  0  0  0  0  0  0
  190.6380  177.5020  138.7710 C   0  0  0  0  0  3  0  0  0  0  0  0
  190.4370  177.0030  140.0580 C   0  0  0  0  0  3  0  0  0  0  0  0
  1 15  2  0  0  0  0
  2 16  1  0  0  0  0
  4 13  2  0  0  0  0
  6 18  1  0  0  0  0
  6  2  2  0  0  0  0
  7 13  1  0  0  0  0
  7  9  1  0  0  0  0
  8 10  1  0  0  0  0
 11  7  1  0  0  0  0
 12  1  1  0  0  0  0
 12  2  1  0  0  0  0
 13  5  1  0  0  0  0
 14 11  1  0  0  0  0
 14  4  1  0  0  0  0
 15 20  1  0  0  0  0
 15 21  1  0  0  0  0
 16 11  2  0  0  0  0
 16  3  1  0  0  0  0
 17  8  2  0  0  0  0
 18 14  2  0  0  0  0
 19  8  1  0  0  0  0
 20 19  2  0  0  0  0
 21  3  2  0  0  0  0
 21 17  1  0  0  0  0
 22 26  2  0  0  0  0
 22 25  1  0  0  0  0
 23 12  1  0  0  0  0
 24 23  1  0  0  0  0
 25 24  2  0  0  0  0
 26 27  1  0  0  0  0
 27 23  2  0  0  0  0
M  END
>  <MODEL>
8

>  <REMARK>
 VINA RESULT:      -7.2      2.943      5.330
  Name = 
  1 active torsions:
  status: ('A' for Active; 'I' for Inactive)
    1  A    between atoms: C_9  and  N_15
                            x       y       z     vdW  Elec       q    Type
                         _______ _______ _______ _____ _____    ______ ____

>  <TORSDO>
F 1

$$$$
=
 OpenBabel11052413393D

 27 31  0  0  0  0  0  0  0  0999 V2000
  187.1250  177.5920  142.4900 C   0  0  0  0  0  3  0  0  0  0  0  0
  188.9760  177.4690  140.8300 C   0  0  0  0  0  0  0  0  0  0  0  0
  187.0640  178.6280  139.6810 N   0  0  0  0  0  0  0  0  0  0  0  0
  190.4290  176.7460  137.0440 N   0  0  0  0  0  0  0  0  0  0  0  0
  189.3900  177.4740  134.9580 N   0  0  0  0  0  1  0  0  0  0  0  0
  190.1800  176.7280  140.7040 C   0  0  0  0  0  3  0  0  0  0  0  0
  188.4930  177.9280  137.1870 N   0  0  0  0  0  0  0  0  0  0  0  0
  183.7230  179.2020  140.8130 C   0  0  0  0  0  0  0  0  0  0  0  0
  187.3090  178.6640  136.7740 C   0  0  0  0  0  1  0  0  0  0  0  0
  182.2760  179.9810  140.2140 Cl  0  0  0  0  0  0  0  0  0  0  0  0
  188.9050  177.6220  138.4310 C   0  0  0  0  0  0  0  0  0  0  0  0
  188.4960  177.7970  142.1400 N   0  0  0  0  0  0  0  0  0  0  0  0
  189.4350  177.3870  136.3800 C   0  0  0  0  0  0  0  0  0  0  0  0
  190.0690  176.9100  138.3320 C   0  0  0  0  0  0  0  0  0  0  0  0
  186.0610  177.9830  141.7890 C   0  0  0  0  0  0  0  0  0  0  0  0
  188.3030  177.9090  139.6670 C   0  0  0  0  0  0  0  0  0  0  0  0
  184.9140  179.2920  140.0940 C   0  0  0  0  0  3  0  0  0  0  0  0
  190.7370  176.4360  139.4500 C   0  0  0  0  0  3  0  0  0  0  0  0
  183.6770  178.4490  141.9830 C   0  0  0  0  0  3  0  0  0  0  0  0
  184.8410  177.8560  142.4680 C   0  0  0  0  0  3  0  0  0  0  0  0
  186.0850  178.6620  140.5380 C   0  0  0  0  0  0  0  0  0  0  0  0
  191.2470  178.7540  145.2100 C   0  0  0  0  0  3  0  0  0  0  0  0
  189.4210  178.1340  143.2000 C   0  0  0  0  0  0  0  0  0  0  0  0
  190.4990  179.0030  142.9710 C   0  0  0  0  0  3  0  0  0  0  0  0
  191.3760  179.2940  143.9690 N   0  0  0  0  0  0  0  0  0  0  0  0
  190.1990  177.8760  145.4860 C   0  0  0  0  0  3  0  0  0  0  0  0
  189.2880  177.5660  144.4760 C   0  0  0  0  0  3  0  0  0  0  0  0
  2 12  1  0  0  0  0
  3 21  2  0  0  0  0
  4 14  1  0  0  0  0
  5 13  1  0  0  0  0
  6  2  1  0  0  0  0
  7 11  1  0  0  0  0
  8 19  1  0  0  0  0
  9  7  1  0  0  0  0
 10  8  1  0  0  0  0
 11 16  1  0  0  0  0
 12  1  1  0  0  0  0
 12 23  1  0  0  0  0
 13  4  2  0  0  0  0
 13  7  1  0  0  0  0
 14 11  2  0  0  0  0
 14 18  1  0  0  0  0
 15 20  1  0  0  0  0
 15  1  2  0  0  0  0
 16  3  1  0  0  0  0
 16  2  2  0  0  0  0
 17 21  1  0  0  0  0
 17  8  2  0  0  0  0
 18  6  2  0  0  0  0
 19 20  2  0  0  0  0
 21 15  1  0  0  0  0
 22 26  1  0  0  0  0
 23 27  1  0  0  0  0
 24 23  2  0  0  0  0
 24 25  1  0  0  0  0
 25 22  2  0  0  0  0
 27 26  2  0  0  0  0
M  END
>  <MODEL>
9

>  <REMARK>
 VINA RESULT:      -7.1      1.943      5.976
  Name = 
  1 active torsions:
  status: ('A' for Active; 'I' for Inactive)
    1  A    between atoms: C_9  and  N_15
                            x       y       z     vdW  Elec       q    Type
                         _______ _______ _______ _____ _____    ______ ____

>  <TORSDO>
F 1

$$$$
