=
 OpenBabel11052415493D

 34 38  0  0  1  0  0  0  0  0999 V2000
  181.0340  178.2030  142.9040 C   0  0  1  0  0  3  0  0  0  0  0  0
  179.7730  177.9090  143.6950 C   0  0  0  0  0  1  0  0  0  0  0  0
  181.2200  179.4480  140.7950 N   0  0  0  0  0  0  0  0  0  0  0  0
  180.1580  178.6930  137.4020 C   0  0  0  0  0  2  0  0  0  0  0  0
  179.7110  177.6700  139.4030 N   0  0  0  0  0  0  0  0  0  0  0  0
  179.9160  177.4670  140.7270 C   0  0  0  0  0  0  0  0  0  0  0  0
  180.7430  178.3510  141.4360 C   0  0  0  0  0  0  0  0  0  0  0  0
  179.3170  176.3410  141.3640 N   0  0  0  0  0  1  0  0  0  0  0  0
  180.9320  179.5420  136.4530 C   0  0  0  0  0  2  0  0  0  0  0  0
  180.6750  180.9960  136.6240 C   0  0  0  0  0  0  0  0  0  0  0  0
  180.9410  181.5970  137.7830 C   0  0  0  0  0  3  0  0  0  0  0  0
  180.2520  178.7240  138.7360 C   0  0  0  0  0  0  0  0  0  0  0  0
  181.2830  180.9350  139.0560 C   0  0  0  0  0  2  0  0  0  0  0  0
  180.9730  179.7000  139.4810 C   0  0  0  0  0  0  0  0  0  0  0  0
  180.3000  181.7790  135.4820 N   0  0  0  0  0  0  0  0  0  0  0  0
  180.8880  183.0030  135.2610 O   0  0  0  0  0  0  0  0  0  0  0  0
  179.4570  181.3540  134.6620 O   0  0  0  0  0  0  0  0  0  0  0  0
  181.7550  179.4180  143.4780 C   0  0  0  0  0  2  0  0  0  0  0  0
  186.8200  177.8840  143.7780 C   0  0  0  0  0  3  0  0  0  0  0  0
  185.7410  178.4360  146.3460 C   0  0  0  0  0  3  0  0  0  0  0  0
  189.7240  177.1120  145.9510 C   0  0  0  0  0  0  0  0  0  0  0  0
  183.1580  179.0780  143.8550 C   0  0  0  0  0  0  0  0  0  0  0  0
  184.3540  178.5970  142.7600 S   0  0  0  0  0  0  0  0  0  0  0  0
  188.9280  177.2800  144.8100 C   0  0  0  0  0  3  0  0  0  0  0  0
  187.6070  177.7190  144.9260 C   0  0  0  0  0  0  0  0  0  0  0  0
  183.6390  179.0190  145.1630 C   0  0  0  0  0  3  0  0  0  0  0  0
  187.8630  177.8260  147.3480 C   0  0  0  0  0  3  0  0  0  0  0  0
  187.0680  177.9960  146.2130 C   0  0  0  0  0  0  0  0  0  0  0  0
  189.1830  177.3870  147.2170 C   0  0  0  0  0  3  0  0  0  0  0  0
  184.9700  178.5970  145.1940 C   0  0  0  0  0  0  0  0  0  0  0  0
  185.5090  178.3250  143.9440 C   0  0  0  0  0  0  0  0  0  0  0  0
  191.1140  176.6500  145.8180 C   0  0  0  0  0  0  0  0  0  0  0  0
  191.5270  176.1730  144.7280 O   0  0  0  0  0  0  0  0  0  0  0  0
  191.9880  176.7380  146.8960 O   0  0  0  0  0  1  0  0  0  0  0  0
  1 18  1  0  0  0  0
  1  2  1  1  0  0  0
  3  7  1  0  0  0  0
  4 12  1  0  0  0  0
  5  6  1  0  0  0  0
  6  8  1  0  0  0  0
  6  7  2  0  0  0  0
  7  1  1  0  0  0  0
  9 10  1  0  0  0  0
  9  4  1  0  0  0  0
 10 11  2  0  0  0  0
 11 13  1  0  0  0  0
 12  5  2  0  0  0  0
 12 14  1  0  0  0  0
 13 14  1  0  0  0  0
 14  3  2  0  0  0  0
 15 10  1  0  0  0  0
 16 15  2  0  0  0  0
 17 15  2  0  0  0  0
 18 22  1  0  0  0  0
 19 31  2  0  0  0  0
 19 25  1  0  0  0  0
 21 29  1  0  0  0  0
 22 26  2  0  0  0  0
 23 22  1  0  0  0  0
 23 31  1  0  0  0  0
 24 25  1  0  0  0  0
 24 21  2  0  0  0  0
 25 28  2  0  0  0  0
 26 30  1  0  0  0  0
 28 20  1  0  0  0  0
 28 27  1  0  0  0  0
 29 27  2  0  0  0  0
 30 20  2  0  0  0  0
 31 30  1  0  0  0  0
 32 21  1  0  0  0  0
 32 34  1  0  0  0  0
 33 32  2  0  0  0  0
M  END
>  <MODEL>
1

>  <REMARK>
 VINA RESULT:     -10.1      0.000      0.000
  Name = 
  5 active torsions:
  status: ('A' for Active; 'I' for Inactive)
    1  A    between atoms: N_3  and  C_25
    2  A    between atoms: C_7  and  C_11
    3  A    between atoms: C_8  and  C_17
    4  A    between atoms: C_10  and  C_17
    5  A    between atoms: C_10  and  C_20
                            x       y       z     vdW  Elec       q    Type
                         _______ _______ _______ _____ _____    ______ ____

>  <TORSDO>
F 5

$$$$
=
 OpenBabel11052415493D

 34 38  0  0  1  0  0  0  0  0999 V2000
  189.1500  178.1810  147.0420 C   0  0  1  0  0  3  0  0  0  0  0  0
  190.0660  178.1590  148.2510 C   0  0  0  0  0  1  0  0  0  0  0  0
  189.4030  178.1860  144.5980 N   0  0  0  0  0  0  0  0  0  0  0  0
  191.9220  176.7720  142.3930 C   0  0  0  0  0  2  0  0  0  0  0  0
  191.5340  176.5030  144.6350 N   0  0  0  0  0  0  0  0  0  0  0  0
  190.9350  176.8330  145.8050 C   0  0  0  0  0  0  0  0  0  0  0  0
  189.8710  177.7480  145.7950 C   0  0  0  0  0  0  0  0  0  0  0  0
  191.4190  176.2740  147.0230 N   0  0  0  0  0  1  0  0  0  0  0  0
  191.8590  177.4690  141.0770 C   0  0  0  0  0  2  0  0  0  0  0  0
  190.5670  177.2660  140.3690 C   0  0  0  0  0  0  0  0  0  0  0  0
  189.4230  177.6600  140.9250 C   0  0  0  0  0  3  0  0  0  0  0  0
  191.1210  177.0000  143.4390 C   0  0  0  0  0  0  0  0  0  0  0  0
  189.2340  178.1110  142.3170 C   0  0  0  0  0  2  0  0  0  0  0  0
  189.9540  177.8150  143.4110 C   0  0  0  0  0  0  0  0  0  0  0  0
  190.5800  176.7980  139.0130 N   0  0  0  0  0  0  0  0  0  0  0  0
  191.0580  175.5400  138.7220 O   0  0  0  0  0  0  0  0  0  0  0  0
  190.1400  177.5090  138.0850 O   0  0  0  0  0  0  0  0  0  0  0  0
  187.8970  177.3510  147.3050 C   0  0  0  0  0  2  0  0  0  0  0  0
  183.3960  178.9910  145.0370 C   0  0  0  0  0  3  0  0  0  0  0  0
  185.1860  177.8870  143.1290 C   0  0  0  0  0  3  0  0  0  0  0  0
  181.4050  179.3090  141.9250 C   0  0  0  0  0  0  0  0  0  0  0  0
  186.7830  177.7650  146.4040 C   0  0  0  0  0  0  0  0  0  0  0  0
  185.3390  178.4730  146.9290 S   0  0  0  0  0  0  0  0  0  0  0  0
  181.7800  179.3810  143.2740 C   0  0  0  0  0  3  0  0  0  0  0  0
  183.0300  178.9140  143.6860 C   0  0  0  0  0  0  0  0  0  0  0  0
  186.7440  177.5370  145.0290 C   0  0  0  0  0  3  0  0  0  0  0  0
  183.5480  178.2900  141.3870 C   0  0  0  0  0  3  0  0  0  0  0  0
  183.9270  178.3610  142.7290 C   0  0  0  0  0  0  0  0  0  0  0  0
  182.2950  178.7620  140.9880 C   0  0  0  0  0  3  0  0  0  0  0  0
  185.5360  177.9710  144.4770 C   0  0  0  0  0  0  0  0  0  0  0  0
  184.6530  178.5130  145.4000 C   0  0  0  0  0  0  0  0  0  0  0  0
  180.0860  179.8040  141.5000 C   0  0  0  0  0  0  0  0  0  0  0  0
  179.6870  180.9450  141.8580 O   0  0  0  0  0  1  0  0  0  0  0  0
  179.2680  179.0180  140.6970 O   0  0  0  0  0  0  0  0  0  0  0  0
  1 18  1  0  0  0  0
  1  2  1  1  0  0  0
  3  7  1  0  0  0  0
  4 12  1  0  0  0  0
  5  6  1  0  0  0  0
  6  8  1  0  0  0  0
  7  6  2  0  0  0  0
  7  1  1  0  0  0  0
  9  4  1  0  0  0  0
 10 11  2  0  0  0  0
 10  9  1  0  0  0  0
 11 13  1  0  0  0  0
 12  5  2  0  0  0  0
 13 14  1  0  0  0  0
 14 12  1  0  0  0  0
 14  3  2  0  0  0  0
 15 10  1  0  0  0  0
 16 15  2  0  0  0  0
 17 15  2  0  0  0  0
 19 31  1  0  0  0  0
 20 30  1  0  0  0  0
 21 24  2  0  0  0  0
 22 23  1  0  0  0  0
 22 18  1  0  0  0  0
 24 25  1  0  0  0  0
 25 19  2  0  0  0  0
 26 22  2  0  0  0  0
 27 28  1  0  0  0  0
 28 20  2  0  0  0  0
 28 25  1  0  0  0  0
 29 27  2  0  0  0  0
 29 21  1  0  0  0  0
 30 26  1  0  0  0  0
 30 31  2  0  0  0  0
 31 23  1  0  0  0  0
 32 33  1  0  0  0  0
 32 21  1  0  0  0  0
 34 32  2  0  0  0  0
M  END
>  <MODEL>
2

>  <REMARK>
 VINA RESULT:      -9.7      4.867      9.710
  Name = 
  5 active torsions:
  status: ('A' for Active; 'I' for Inactive)
    1  A    between atoms: N_3  and  C_25
    2  A    between atoms: C_7  and  C_11
    3  A    between atoms: C_8  and  C_17
    4  A    between atoms: C_10  and  C_17
    5  A    between atoms: C_10  and  C_20
                            x       y       z     vdW  Elec       q    Type
                         _______ _______ _______ _____ _____    ______ ____

>  <TORSDO>
F 5

$$$$
=
 OpenBabel11052415493D

 34 38  0  0  1  0  0  0  0  0999 V2000
  181.0590  178.2900  142.9430 C   0  0  1  0  0  3  0  0  0  0  0  0
  179.7880  178.2050  143.7680 C   0  0  0  0  0  1  0  0  0  0  0  0
  181.2310  179.4310  140.7740 N   0  0  0  0  0  0  0  0  0  0  0  0
  180.1440  178.5160  137.4300 C   0  0  0  0  0  2  0  0  0  0  0  0
  179.7110  177.5910  139.4810 N   0  0  0  0  0  0  0  0  0  0  0  0
  179.9250  177.4510  140.8120 C   0  0  0  0  0  0  0  0  0  0  0  0
  180.7570  178.3680  141.4710 C   0  0  0  0  0  0  0  0  0  0  0  0
  179.3300  176.3580  141.5070 N   0  0  0  0  0  1  0  0  0  0  0  0
  180.9120  179.3170  136.4350 C   0  0  0  0  0  2  0  0  0  0  0  0
  180.6570  180.7780  136.5380 C   0  0  0  0  0  0  0  0  0  0  0  0
  180.9310  181.4340  137.6650 C   0  0  0  0  0  3  0  0  0  0  0  0
  180.2470  178.6110  138.7600 C   0  0  0  0  0  0  0  0  0  0  0  0
  181.2820  180.8330  138.9660 C   0  0  0  0  0  2  0  0  0  0  0  0
  180.9740  179.6200  139.4520 C   0  0  0  0  0  0  0  0  0  0  0  0
  180.2740  181.5050  135.3620 N   0  0  0  0  0  0  0  0  0  0  0  0
  180.8970  182.6920  135.0520 O   0  0  0  0  0  0  0  0  0  0  0  0
  179.3930  181.0640  134.5940 O   0  0  0  0  0  0  0  0  0  0  0  0
  181.9300  179.4480  143.4180 C   0  0  0  0  0  2  0  0  0  0  0  0
  186.4310  178.1320  145.8880 C   0  0  0  0  0  3  0  0  0  0  0  0
  186.6480  177.8070  143.0760 C   0  0  0  0  0  3  0  0  0  0  0  0
  189.9390  176.9720  145.5740 C   0  0  0  0  0  0  0  0  0  0  0  0
  183.2770  178.9650  143.8390 C   0  0  0  0  0  0  0  0  0  0  0  0
  183.8290  178.9390  145.4380 S   0  0  0  0  0  0  0  0  0  0  0  0
  188.7320  177.4120  146.1350 C   0  0  0  0  0  3  0  0  0  0  0  0
  187.6340  177.6920  145.3180 C   0  0  0  0  0  0  0  0  0  0  0  0
  184.2880  178.5650  142.9650 C   0  0  0  0  0  3  0  0  0  0  0  0
  188.9480  177.0900  143.3550 C   0  0  0  0  0  3  0  0  0  0  0  0
  187.7440  177.5280  143.9090 C   0  0  0  0  0  0  0  0  0  0  0  0
  190.0390  176.8130  144.1840 C   0  0  0  0  0  3  0  0  0  0  0  0
  185.4580  178.2420  143.6580 C   0  0  0  0  0  0  0  0  0  0  0  0
  185.3640  178.3970  145.0340 C   0  0  0  0  0  0  0  0  0  0  0  0
  191.0910  176.6790  146.4430 C   0  0  0  0  0  0  0  0  0  0  0  0
  192.1060  176.0930  145.9810 O   0  0  0  0  0  0  0  0  0  0  0  0
  191.0690  177.0500  147.7830 O   0  0  0  0  0  1  0  0  0  0  0  0
  1 18  1  0  0  0  0
  1  2  1  1  0  0  0
  3  7  1  0  0  0  0
  4 12  1  0  0  0  0
  5  6  1  0  0  0  0
  6  7  2  0  0  0  0
  6  8  1  0  0  0  0
  7  1  1  0  0  0  0
  9 10  1  0  0  0  0
  9  4  1  0  0  0  0
 10 11  2  0  0  0  0
 11 13  1  0  0  0  0
 12 14  1  0  0  0  0
 12  5  2  0  0  0  0
 13 14  1  0  0  0  0
 14  3  2  0  0  0  0
 15 10  1  0  0  0  0
 16 15  2  0  0  0  0
 17 15  2  0  0  0  0
 18 22  1  0  0  0  0
 20 30  2  0  0  0  0
 20 28  1  0  0  0  0
 21 24  1  0  0  0  0
 21 32  1  0  0  0  0
 22 23  1  0  0  0  0
 25 19  1  0  0  0  0
 25 24  2  0  0  0  0
 26 30  1  0  0  0  0
 26 22  2  0  0  0  0
 27 28  2  0  0  0  0
 27 29  1  0  0  0  0
 28 25  1  0  0  0  0
 29 21  2  0  0  0  0
 30 31  1  0  0  0  0
 31 23  1  0  0  0  0
 31 19  2  0  0  0  0
 32 34  1  0  0  0  0
 33 32  2  0  0  0  0
M  END
>  <MODEL>
3

>  <REMARK>
 VINA RESULT:      -9.6      0.802      1.479
  Name = 
  5 active torsions:
  status: ('A' for Active; 'I' for Inactive)
    1  A    between atoms: N_3  and  C_25
    2  A    between atoms: C_7  and  C_11
    3  A    between atoms: C_8  and  C_17
    4  A    between atoms: C_10  and  C_17
    5  A    between atoms: C_10  and  C_20
                            x       y       z     vdW  Elec       q    Type
                         _______ _______ _______ _____ _____    ______ ____

>  <TORSDO>
F 5

$$$$
=
 OpenBabel11052415493D

 34 38  0  0  1  0  0  0  0  0999 V2000
  181.1990  178.3020  143.0810 C   0  0  1  0  0  3  0  0  0  0  0  0
  179.7900  178.1790  143.6320 C   0  0  0  0  0  1  0  0  0  0  0  0
  181.8430  177.3480  140.9110 N   0  0  0  0  0  0  0  0  0  0  0  0
  181.0570  178.2900  137.4900 C   0  0  0  0  0  2  0  0  0  0  0  0
  180.7050  179.3590  139.4850 N   0  0  0  0  0  0  0  0  0  0  0  0
  180.6660  179.4080  140.8400 C   0  0  0  0  0  0  0  0  0  0  0  0
  181.2020  178.3410  141.5770 C   0  0  0  0  0  0  0  0  0  0  0  0
  180.0530  180.5200  141.4850 N   0  0  0  0  0  1  0  0  0  0  0  0
  181.2950  177.1190  136.5990 C   0  0  0  0  0  2  0  0  0  0  0  0
  182.7180  176.6890  136.5650 C   0  0  0  0  0  0  0  0  0  0  0  0
  183.3310  176.2940  137.6790 C   0  0  0  0  0  3  0  0  0  0  0  0
  181.2760  178.3280  138.8090 C   0  0  0  0  0  0  0  0  0  0  0  0
  182.8190  176.4280  139.0560 C   0  0  0  0  0  2  0  0  0  0  0  0
  181.9450  177.3170  139.5550 C   0  0  0  0  0  0  0  0  0  0  0  0
  183.3720  176.5420  135.2970 N   0  0  0  0  0  0  0  0  0  0  0  0
  183.2570  175.3640  134.5940 O   0  0  0  0  0  0  0  0  0  0  0  0
  184.0330  177.4800  134.8030 O   0  0  0  0  0  0  0  0  0  0  0  0
  181.9110  179.5030  143.6940 C   0  0  0  0  0  2  0  0  0  0  0  0
  186.9740  177.9880  144.1020 C   0  0  0  0  0  3  0  0  0  0  0  0
  185.7840  178.3530  146.6530 C   0  0  0  0  0  3  0  0  0  0  0  0
  189.7920  177.0870  146.3380 C   0  0  0  0  0  0  0  0  0  0  0  0
  183.3000  179.1480  144.1060 C   0  0  0  0  0  0  0  0  0  0  0  0
  184.5460  178.7510  143.0320 S   0  0  0  0  0  0  0  0  0  0  0  0
  189.0430  177.3280  145.1780 C   0  0  0  0  0  3  0  0  0  0  0  0
  187.7140  177.7490  145.2680 C   0  0  0  0  0  0  0  0  0  0  0  0
  183.7270  179.0020  145.4260 C   0  0  0  0  0  3  0  0  0  0  0  0
  187.8680  177.6900  147.7000 C   0  0  0  0  0  3  0  0  0  0  0  0
  187.1190  177.9320  146.5470 C   0  0  0  0  0  0  0  0  0  0  0  0
  189.1970  177.2700  147.5950 C   0  0  0  0  0  3  0  0  0  0  0  0
  185.0600  178.5880  145.4840 C   0  0  0  0  0  0  0  0  0  0  0  0
  185.6530  178.4060  144.2420 C   0  0  0  0  0  0  0  0  0  0  0  0
  191.1910  176.6450  146.2320 C   0  0  0  0  0  0  0  0  0  0  0  0
  191.6350  176.1830  145.1470 O   0  0  0  0  0  0  0  0  0  0  0  0
  192.0390  176.7350  147.3310 O   0  0  0  0  0  1  0  0  0  0  0  0
  1  2  1  1  0  0  0
  1 18  1  0  0  0  0
  3  7  1  0  0  0  0
  4 12  1  0  0  0  0
  5  6  1  0  0  0  0
  6  8  1  0  0  0  0
  6  7  2  0  0  0  0
  7  1  1  0  0  0  0
  9  4  1  0  0  0  0
 10  9  1  0  0  0  0
 10 11  2  0  0  0  0
 11 13  1  0  0  0  0
 12  5  2  0  0  0  0
 12 14  1  0  0  0  0
 13 14  1  0  0  0  0
 14  3  2  0  0  0  0
 15 10  1  0  0  0  0
 16 15  2  0  0  0  0
 17 15  2  0  0  0  0
 18 22  1  0  0  0  0
 19 31  2  0  0  0  0
 19 25  1  0  0  0  0
 21 29  1  0  0  0  0
 22 26  2  0  0  0  0
 23 22  1  0  0  0  0
 23 31  1  0  0  0  0
 24 25  1  0  0  0  0
 24 21  2  0  0  0  0
 25 28  2  0  0  0  0
 26 30  1  0  0  0  0
 28 20  1  0  0  0  0
 28 27  1  0  0  0  0
 29 27  2  0  0  0  0
 30 20  2  0  0  0  0
 31 30  1  0  0  0  0
 32 21  1  0  0  0  0
 32 34  1  0  0  0  0
 33 32  2  0  0  0  0
M  END
>  <MODEL>
4

>  <REMARK>
 VINA RESULT:      -9.5      2.320      2.792
  Name = 
  5 active torsions:
  status: ('A' for Active; 'I' for Inactive)
    1  A    between atoms: N_3  and  C_25
    2  A    between atoms: C_7  and  C_11
    3  A    between atoms: C_8  and  C_17
    4  A    between atoms: C_10  and  C_17
    5  A    between atoms: C_10  and  C_20
                            x       y       z     vdW  Elec       q    Type
                         _______ _______ _______ _____ _____    ______ ____

>  <TORSDO>
F 5

$$$$
=
 OpenBabel11052415493D

 34 38  0  0  1  0  0  0  0  0999 V2000
  188.3750  177.3710  145.6170 C   0  0  1  0  0  3  0  0  0  0  0  0
  188.6720  176.9700  147.0500 C   0  0  0  0  0  1  0  0  0  0  0  0
  186.3350  177.6570  144.2780 N   0  0  0  0  0  0  0  0  0  0  0  0
  183.0510  178.9950  145.0710 C   0  0  0  0  0  2  0  0  0  0  0  0
  185.0260  179.0140  146.2310 N   0  0  0  0  0  0  0  0  0  0  0  0
  186.3030  178.6160  146.4480 C   0  0  0  0  0  0  0  0  0  0  0  0
  186.9620  177.8630  145.4640 C   0  0  0  0  0  0  0  0  0  0  0  0
  186.9380  178.9370  147.6830 N   0  0  0  0  0  1  0  0  0  0  0  0
  182.0690  178.4950  144.0680 C   0  0  0  0  0  2  0  0  0  0  0  0
  182.3550  178.9640  142.6860 C   0  0  0  0  0  0  0  0  0  0  0  0
  183.5080  178.6590  142.0930 C   0  0  0  0  0  3  0  0  0  0  0  0
  184.3640  178.7420  145.0760 C   0  0  0  0  0  0  0  0  0  0  0  0
  184.6910  178.0560  142.7360 C   0  0  0  0  0  2  0  0  0  0  0  0
  185.0760  178.1040  144.0220 C   0  0  0  0  0  0  0  0  0  0  0  0
  181.3120  179.6020  141.9350 N   0  0  0  0  0  0  0  0  0  0  0  0
  180.4070  180.4220  142.5710 O   0  0  0  0  0  0  0  0  0  0  0  0
  181.2220  179.4440  140.6990 O   0  0  0  0  0  0  0  0  0  0  0  0
  189.3990  178.3860  145.1210 C   0  0  0  0  0  2  0  0  0  0  0  0
  192.3360  177.2460  140.8590 C   0  0  0  0  0  3  0  0  0  0  0  0
  189.5600  177.1380  140.2740 C   0  0  0  0  0  3  0  0  0  0  0  0
  192.4010  176.3820  137.2530 C   0  0  0  0  0  0  0  0  0  0  0  0
  189.9580  177.9790  143.7990 C   0  0  0  0  0  0  0  0  0  0  0  0
  191.6090  177.8820  143.4450 S   0  0  0  0  0  0  0  0  0  0  0  0
  192.8290  176.6890  138.5520 C   0  0  0  0  0  3  0  0  0  0  0  0
  191.8980  176.9410  139.5630 C   0  0  0  0  0  0  0  0  0  0  0  0
  189.1970  177.7200  142.6590 C   0  0  0  0  0  3  0  0  0  0  0  0
  190.0850  176.5810  137.9730 C   0  0  0  0  0  3  0  0  0  0  0  0
  190.5070  176.8860  139.2680 C   0  0  0  0  0  0  0  0  0  0  0  0
  191.0270  176.3310  136.9720 C   0  0  0  0  0  3  0  0  0  0  0  0
  190.0110  177.4390  141.5590 C   0  0  0  0  0  0  0  0  0  0  0  0
  191.3710  177.4890  141.8330 C   0  0  0  0  0  0  0  0  0  0  0  0
  193.3890  176.1180  136.1950 C   0  0  0  0  0  0  0  0  0  0  0  0
  193.0200  175.6800  135.0720 O   0  0  0  0  0  0  0  0  0  0  0  0
  194.7400  176.3510  136.4250 O   0  0  0  0  0  1  0  0  0  0  0  0
  1  2  1  1  0  0  0
  3  7  1  0  0  0  0
  4 12  1  0  0  0  0
  5  6  1  0  0  0  0
  6  8  1  0  0  0  0
  7  1  1  0  0  0  0
  7  6  2  0  0  0  0
  9  4  1  0  0  0  0
 10  9  1  0  0  0  0
 11 10  2  0  0  0  0
 11 13  1  0  0  0  0
 12  5  2  0  0  0  0
 13 14  1  0  0  0  0
 14  3  2  0  0  0  0
 14 12  1  0  0  0  0
 15 16  2  0  0  0  0
 15 10  1  0  0  0  0
 17 15  2  0  0  0  0
 18  1  1  0  0  0  0
 19 31  1  0  0  0  0
 20 30  1  0  0  0  0
 21 24  2  0  0  0  0
 22 18  1  0  0  0  0
 23 22  1  0  0  0  0
 24 25  1  0  0  0  0
 25 19  2  0  0  0  0
 26 22  2  0  0  0  0
 27 28  1  0  0  0  0
 28 25  1  0  0  0  0
 28 20  2  0  0  0  0
 29 21  1  0  0  0  0
 29 27  2  0  0  0  0
 30 31  2  0  0  0  0
 30 26  1  0  0  0  0
 31 23  1  0  0  0  0
 32 34  1  0  0  0  0
 32 21  1  0  0  0  0
 33 32  2  0  0  0  0
M  END
>  <MODEL>
5

>  <REMARK>
 VINA RESULT:      -9.4      5.410      7.913
  Name = 
  5 active torsions:
  status: ('A' for Active; 'I' for Inactive)
    1  A    between atoms: N_3  and  C_25
    2  A    between atoms: C_7  and  C_11
    3  A    between atoms: C_8  and  C_17
    4  A    between atoms: C_10  and  C_17
    5  A    between atoms: C_10  and  C_20
                            x       y       z     vdW  Elec       q    Type
                         _______ _______ _______ _____ _____    ______ ____

>  <TORSDO>
F 5

$$$$
=
 OpenBabel11052415493D

 34 38  0  0  1  0  0  0  0  0999 V2000
  190.2750  177.7990  145.0700 C   0  0  1  0  0  3  0  0  0  0  0  0
  191.6240  177.5520  145.7170 C   0  0  0  0  0  1  0  0  0  0  0  0
  189.5300  178.1470  142.7550 N   0  0  0  0  0  0  0  0  0  0  0  0
  190.4310  176.5390  139.6230 C   0  0  0  0  0  2  0  0  0  0  0  0
  190.9000  176.0060  141.8010 N   0  0  0  0  0  0  0  0  0  0  0  0
  190.9400  176.2750  143.1290 C   0  0  0  0  0  0  0  0  0  0  0  0
  190.2810  177.4150  143.6150 C   0  0  0  0  0  0  0  0  0  0  0  0
  191.6770  175.4190  143.9970 N   0  0  0  0  0  1  0  0  0  0  0  0
  190.0620  177.4380  138.4940 C   0  0  0  0  0  2  0  0  0  0  0  0
  188.5980  177.6830  138.3960 C   0  0  0  0  0  0  0  0  0  0  0  0
  187.9390  178.2510  139.4040 C   0  0  0  0  0  3  0  0  0  0  0  0
  190.2150  176.7810  140.9200 C   0  0  0  0  0  0  0  0  0  0  0  0
  188.4590  178.4980  140.7620 C   0  0  0  0  0  2  0  0  0  0  0  0
  189.4300  177.8540  141.4300 C   0  0  0  0  0  0  0  0  0  0  0  0
  187.9350  177.4590  137.1440 N   0  0  0  0  0  0  0  0  0  0  0  0
  187.5780  178.5250  136.3500 O   0  0  0  0  0  0  0  0  0  0  0  0
  187.6930  176.2990  136.7450 O   0  0  0  0  0  0  0  0  0  0  0  0
  189.1690  177.0970  145.8510 C   0  0  0  0  0  2  0  0  0  0  0  0
  184.1730  178.7820  145.3110 C   0  0  0  0  0  3  0  0  0  0  0  0
  185.2550  177.9090  142.8350 C   0  0  0  0  0  3  0  0  0  0  0  0
  181.2840  179.3070  143.0460 C   0  0  0  0  0  0  0  0  0  0  0  0
  187.8230  177.5520  145.3980 C   0  0  0  0  0  0  0  0  0  0  0  0
  186.6230  178.1630  146.4220 S   0  0  0  0  0  0  0  0  0  0  0  0
  182.0740  179.2730  144.2030 C   0  0  0  0  0  3  0  0  0  0  0  0
  183.3910  178.8120  144.1470 C   0  0  0  0  0  0  0  0  0  0  0  0
  187.3440  177.4450  144.0930 C   0  0  0  0  0  3  0  0  0  0  0  0
  183.1420  178.4110  141.7550 C   0  0  0  0  0  3  0  0  0  0  0  0
  183.9330  178.3760  142.9060 C   0  0  0  0  0  0  0  0  0  0  0  0
  181.8260  178.8750  141.8260 C   0  0  0  0  0  3  0  0  0  0  0  0
  186.0210  177.8860  144.0010 C   0  0  0  0  0  0  0  0  0  0  0  0
  185.4810  178.3160  145.2050 C   0  0  0  0  0  0  0  0  0  0  0  0
  179.8970  179.7950  143.1150 C   0  0  0  0  0  0  0  0  0  0  0  0
  179.5730  180.8770  142.5580 O   0  0  0  0  0  0  0  0  0  0  0  0
  178.9310  179.0620  143.7940 O   0  0  0  0  0  1  0  0  0  0  0  0
  1  2  1  1  0  0  0
  1 18  1  0  0  0  0
  3  7  1  0  0  0  0
  4 12  1  0  0  0  0
  5  6  1  0  0  0  0
  6  7  2  0  0  0  0
  6  8  1  0  0  0  0
  7  1  1  0  0  0  0
  9  4  1  0  0  0  0
 10  9  1  0  0  0  0
 10 11  2  0  0  0  0
 11 13  1  0  0  0  0
 12 14  1  0  0  0  0
 12  5  2  0  0  0  0
 13 14  1  0  0  0  0
 14  3  2  0  0  0  0
 15 10  1  0  0  0  0
 16 15  2  0  0  0  0
 17 15  2  0  0  0  0
 20 28  2  0  0  0  0
 20 30  1  0  0  0  0
 21 32  1  0  0  0  0
 21 24  2  0  0  0  0
 22 18  1  0  0  0  0
 22 23  1  0  0  0  0
 25 24  1  0  0  0  0
 25 19  2  0  0  0  0
 26 22  2  0  0  0  0
 27 29  2  0  0  0  0
 27 28  1  0  0  0  0
 28 25  1  0  0  0  0
 29 21  1  0  0  0  0
 30 26  1  0  0  0  0
 30 31  2  0  0  0  0
 31 19  1  0  0  0  0
 31 23  1  0  0  0  0
 32 34  1  0  0  0  0
 33 32  2  0  0  0  0
M  END
>  <MODEL>
6

>  <REMARK>
 VINA RESULT:      -9.4      5.098      8.805
  Name = 
  5 active torsions:
  status: ('A' for Active; 'I' for Inactive)
    1  A    between atoms: N_3  and  C_25
    2  A    between atoms: C_7  and  C_11
    3  A    between atoms: C_8  and  C_17
    4  A    between atoms: C_10  and  C_17
    5  A    between atoms: C_10  and  C_20
                            x       y       z     vdW  Elec       q    Type
                         _______ _______ _______ _____ _____    ______ ____

>  <TORSDO>
F 5

$$$$
=
 OpenBabel11052415493D

 34 38  0  0  1  0  0  0  0  0999 V2000
  188.8940  177.7230  137.4690 C   0  0  1  0  0  3  0  0  0  0  0  0
  189.3990  178.1370  136.1000 C   0  0  0  0  0  1  0  0  0  0  0  0
  187.9420  175.4870  137.1110 N   0  0  0  0  0  0  0  0  0  0  0  0
  184.5430  174.2130  137.2870 C   0  0  0  0  0  2  0  0  0  0  0  0
  185.3760  176.3470  137.3230 N   0  0  0  0  0  0  0  0  0  0  0  0
  186.3830  177.2490  137.4170 C   0  0  0  0  0  0  0  0  0  0  0  0
  187.7110  176.7990  137.3660 C   0  0  0  0  0  0  0  0  0  0  0  0
  186.0750  178.6280  137.6010 N   0  0  0  0  0  1  0  0  0  0  0  0
  184.5900  172.7340  137.4590 C   0  0  0  0  0  2  0  0  0  0  0  0
  185.2070  172.0290  136.3040 C   0  0  0  0  0  0  0  0  0  0  0  0
  186.4650  172.2870  135.9490 C   0  0  0  0  0  3  0  0  0  0  0  0
  185.6010  175.0180  137.1460 C   0  0  0  0  0  0  0  0  0  0  0  0
  187.3090  173.3880  136.4500 C   0  0  0  0  0  2  0  0  0  0  0  0
  186.9420  174.5790  136.9520 C   0  0  0  0  0  0  0  0  0  0  0  0
  184.4960  170.9490  135.6830 N   0  0  0  0  0  0  0  0  0  0  0  0
  183.1450  171.0620  135.4400 O   0  0  0  0  0  0  0  0  0  0  0  0
  185.0890  169.9070  135.3330 O   0  0  0  0  0  0  0  0  0  0  0  0
  190.0260  177.1250  138.2980 C   0  0  0  0  0  2  0  0  0  0  0  0
  190.1070  177.3240  143.5940 C   0  0  0  0  0  3  0  0  0  0  0  0
  187.4830  177.6970  142.5740 C   0  0  0  0  0  3  0  0  0  0  0  0
  188.1670  177.6930  146.7330 C   0  0  0  0  0  0  0  0  0  0  0  0
  189.7610  177.2830  139.7580 C   0  0  0  0  0  0  0  0  0  0  0  0
  190.9330  177.1280  140.9670 S   0  0  0  0  0  0  0  0  0  0  0  0
  189.2400  177.5090  145.8500 C   0  0  0  0  0  3  0  0  0  0  0  0
  189.0270  177.5090  144.4690 C   0  0  0  0  0  0  0  0  0  0  0  0
  188.5000  177.4820  140.3200 C   0  0  0  0  0  3  0  0  0  0  0  0
  186.6460  177.8780  144.8430 C   0  0  0  0  0  3  0  0  0  0  0  0
  187.7120  177.6960  143.9590 C   0  0  0  0  0  0  0  0  0  0  0  0
  186.8740  177.8770  146.2220 C   0  0  0  0  0  3  0  0  0  0  0  0
  188.5680  177.5130  141.7150 C   0  0  0  0  0  0  0  0  0  0  0  0
  189.8450  177.3320  142.2260 C   0  0  0  0  0  0  0  0  0  0  0  0
  188.4010  177.6930  148.1860 C   0  0  0  0  0  0  0  0  0  0  0  0
  187.5550  177.1840  148.9690 O   0  0  0  0  0  1  0  0  0  0  0  0
  189.5620  178.2530  148.7090 O   0  0  0  0  0  0  0  0  0  0  0  0
  1  2  1  6  0  0  0
  1 18  1  0  0  0  0
  3  7  1  0  0  0  0
  4  9  1  0  0  0  0
  5  6  1  0  0  0  0
  6  8  1  0  0  0  0
  7  6  2  0  0  0  0
  7  1  1  0  0  0  0
 10  9  1  0  0  0  0
 11 10  2  0  0  0  0
 11 13  1  0  0  0  0
 12  4  1  0  0  0  0
 12  5  2  0  0  0  0
 13 14  1  0  0  0  0
 14  3  2  0  0  0  0
 14 12  1  0  0  0  0
 15 10  1  0  0  0  0
 16 15  2  0  0  0  0
 17 15  2  0  0  0  0
 18 22  1  0  0  0  0
 19 25  1  0  0  0  0
 20 28  1  0  0  0  0
 21 32  1  0  0  0  0
 22 26  2  0  0  0  0
 22 23  1  0  0  0  0
 23 31  1  0  0  0  0
 24 21  2  0  0  0  0
 25 24  1  0  0  0  0
 26 30  1  0  0  0  0
 27 29  2  0  0  0  0
 28 25  2  0  0  0  0
 28 27  1  0  0  0  0
 29 21  1  0  0  0  0
 30 31  1  0  0  0  0
 30 20  2  0  0  0  0
 31 19  2  0  0  0  0
 32 34  2  0  0  0  0
 32 33  1  0  0  0  0
M  END
>  <MODEL>
7

>  <REMARK>
 VINA RESULT:      -9.3      6.214      7.569
  Name = 
  5 active torsions:
  status: ('A' for Active; 'I' for Inactive)
    1  A    between atoms: N_3  and  C_25
    2  A    between atoms: C_7  and  C_11
    3  A    between atoms: C_8  and  C_17
    4  A    between atoms: C_10  and  C_17
    5  A    between atoms: C_10  and  C_20
                            x       y       z     vdW  Elec       q    Type
                         _______ _______ _______ _____ _____    ______ ____

>  <TORSDO>
F 5

$$$$
=
 OpenBabel11052415493D

 34 38  0  0  1  0  0  0  0  0999 V2000
  188.1050  178.4190  138.0730 C   0  0  1  0  0  3  0  0  0  0  0  0
  188.5590  179.0370  136.7630 C   0  0  0  0  0  1  0  0  0  0  0  0
  185.8870  178.6320  139.1060 N   0  0  0  0  0  0  0  0  0  0  0  0
  182.5680  177.6320  138.0130 C   0  0  0  0  0  2  0  0  0  0  0  0
  184.6530  177.1580  137.1880 N   0  0  0  0  0  0  0  0  0  0  0  0
  185.9940  177.3420  137.1170 C   0  0  0  0  0  0  0  0  0  0  0  0
  186.6250  178.1520  138.0740 C   0  0  0  0  0  0  0  0  0  0  0  0
  186.7290  176.7410  136.0550 N   0  0  0  0  0  1  0  0  0  0  0  0
  181.5530  178.4160  138.7700 C   0  0  0  0  0  2  0  0  0  0  0  0
  181.5760  178.1470  140.2320 C   0  0  0  0  0  0  0  0  0  0  0  0
  182.6740  178.3890  140.9470 C   0  0  0  0  0  3  0  0  0  0  0  0
  183.8940  177.7030  138.1760 C   0  0  0  0  0  0  0  0  0  0  0  0
  184.0110  178.7150  140.4160 C   0  0  0  0  0  2  0  0  0  0  0  0
  184.5510  178.4050  139.2250 C   0  0  0  0  0  0  0  0  0  0  0  0
  180.3560  177.7860  140.8950 N   0  0  0  0  0  0  0  0  0  0  0  0
  179.6710  176.6550  140.5120 O   0  0  0  0  0  0  0  0  0  0  0  0
  179.9120  178.4720  141.8400 O   0  0  0  0  0  0  0  0  0  0  0  0
  188.9210  177.1690  138.3860 C   0  0  0  0  0  2  0  0  0  0  0  0
  191.4060  176.6900  143.0430 C   0  0  0  0  0  3  0  0  0  0  0  0
  188.6840  177.4220  143.3820 C   0  0  0  0  0  3  0  0  0  0  0  0
  191.1610  176.8320  146.7410 C   0  0  0  0  0  0  0  0  0  0  0  0
  189.3660  177.1650  139.8100 C   0  0  0  0  0  0  0  0  0  0  0  0
  190.9240  176.7540  140.3260 S   0  0  0  0  0  0  0  0  0  0  0  0
  191.6840  176.6660  145.4510 C   0  0  0  0  0  3  0  0  0  0  0  0
  190.8740  176.8590  144.3290 C   0  0  0  0  0  0  0  0  0  0  0  0
  188.5350  177.4040  140.9050 C   0  0  0  0  0  3  0  0  0  0  0  0
  188.9930  177.3900  145.7870 C   0  0  0  0  0  3  0  0  0  0  0  0
  189.5100  177.2260  144.5000 C   0  0  0  0  0  0  0  0  0  0  0  0
  189.8150  177.1940  146.9000 C   0  0  0  0  0  3  0  0  0  0  0  0
  189.2280  177.2520  142.1090 C   0  0  0  0  0  0  0  0  0  0  0  0
  190.5610  176.8940  141.9560 C   0  0  0  0  0  0  0  0  0  0  0  0
  192.0230  176.6270  147.9160 C   0  0  0  0  0  0  0  0  0  0  0  0
  192.0890  177.5030  148.8200 O   0  0  0  0  0  1  0  0  0  0  0  0
  192.7710  175.4620  148.0420 O   0  0  0  0  0  0  0  0  0  0  0  0
  1  2  1  6  0  0  0
  1  7  1  0  0  0  0
  1 18  1  0  0  0  0
  3 14  1  0  0  0  0
  4 12  1  0  0  0  0
  4  9  1  0  0  0  0
  5 12  1  0  0  0  0
  6  5  2  0  0  0  0
  6  7  1  0  0  0  0
  7  3  2  0  0  0  0
  8  6  1  0  0  0  0
  9 10  1  0  0  0  0
 10 15  1  0  0  0  0
 10 11  2  0  0  0  0
 12 14  2  0  0  0  0
 13 11  1  0  0  0  0
 14 13  1  0  0  0  0
 15 17  2  0  0  0  0
 16 15  2  0  0  0  0
 18 22  1  0  0  0  0
 19 25  1  0  0  0  0
 20 28  1  0  0  0  0
 21 29  1  0  0  0  0
 21 32  1  0  0  0  0
 22 23  1  0  0  0  0
 22 26  2  0  0  0  0
 23 31  1  0  0  0  0
 24 21  2  0  0  0  0
 25 28  2  0  0  0  0
 25 24  1  0  0  0  0
 26 30  1  0  0  0  0
 27 29  2  0  0  0  0
 28 27  1  0  0  0  0
 30 20  2  0  0  0  0
 31 30  1  0  0  0  0
 31 19  2  0  0  0  0
 32 34  2  0  0  0  0
 32 33  1  0  0  0  0
M  END
>  <MODEL>
8

>  <REMARK>
 VINA RESULT:      -9.0      4.228      5.731
  Name = 
  5 active torsions:
  status: ('A' for Active; 'I' for Inactive)
    1  A    between atoms: N_3  and  C_25
    2  A    between atoms: C_7  and  C_11
    3  A    between atoms: C_8  and  C_17
    4  A    between atoms: C_10  and  C_17
    5  A    between atoms: C_10  and  C_20
                            x       y       z     vdW  Elec       q    Type
                         _______ _______ _______ _____ _____    ______ ____

>  <TORSDO>
F 5

$$$$
=
 OpenBabel11052415493D

 34 38  0  0  1  0  0  0  0  0999 V2000
  189.9340  176.9530  139.8270 C   0  0  1  0  0  3  0  0  0  0  0  0
  191.1220  176.6080  138.9480 C   0  0  0  0  0  1  0  0  0  0  0  0
  189.3870  176.8470  142.2190 N   0  0  0  0  0  0  0  0  0  0  0  0
  191.4190  177.1750  145.2150 C   0  0  0  0  0  2  0  0  0  0  0  0
  191.8810  177.5770  143.0070 N   0  0  0  0  0  0  0  0  0  0  0  0
  191.6030  177.5050  141.6820 C   0  0  0  0  0  0  0  0  0  0  0  0
  190.3330  177.0720  141.2720 C   0  0  0  0  0  0  0  0  0  0  0  0
  192.6140  177.8350  140.7340 N   0  0  0  0  0  1  0  0  0  0  0  0
  190.6950  176.5550  146.3600 C   0  0  0  0  0  2  0  0  0  0  0  0
  189.4160  177.2410  146.6840 C   0  0  0  0  0  0  0  0  0  0  0  0
  188.4430  177.3200  145.7770 C   0  0  0  0  0  3  0  0  0  0  0  0
  190.9620  177.2760  143.9620 C   0  0  0  0  0  0  0  0  0  0  0  0
  188.5500  176.9780  144.3460 C   0  0  0  0  0  2  0  0  0  0  0  0
  189.6320  176.9750  143.5510 C   0  0  0  0  0  0  0  0  0  0  0  0
  189.1730  177.6660  148.0320 N   0  0  0  0  0  0  0  0  0  0  0  0
  187.9610  177.4040  148.6310 O   0  0  0  0  0  0  0  0  0  0  0  0
  190.0580  178.2550  148.6880 O   0  0  0  0  0  0  0  0  0  0  0  0
  189.2350  178.2070  139.3130 C   0  0  0  0  0  2  0  0  0  0  0  0
  183.9890  178.5410  139.9940 C   0  0  0  0  0  3  0  0  0  0  0  0
  185.3780  178.7340  142.4630 C   0  0  0  0  0  3  0  0  0  0  0  0
  181.1710  178.9950  142.3620 C   0  0  0  0  0  0  0  0  0  0  0  0
  187.8270  178.2720  139.8030 C   0  0  0  0  0  0  0  0  0  0  0  0
  186.4630  178.2520  138.8030 S   0  0  0  0  0  0  0  0  0  0  0  0
  181.8880  178.8120  141.1710 C   0  0  0  0  0  3  0  0  0  0  0  0
  183.2820  178.7240  141.1900 C   0  0  0  0  0  0  0  0  0  0  0  0
  187.4550  178.4540  141.1350 C   0  0  0  0  0  3  0  0  0  0  0  0
  183.2590  179.0030  143.6120 C   0  0  0  0  0  3  0  0  0  0  0  0
  183.9770  178.8200  142.4290 C   0  0  0  0  0  0  0  0  0  0  0  0
  181.8650  179.0890  143.5780 C   0  0  0  0  0  3  0  0  0  0  0  0
  186.0670  178.5510  141.2640 C   0  0  0  0  0  0  0  0  0  0  0  0
  185.3770  178.4570  140.0630 C   0  0  0  0  0  0  0  0  0  0  0  0
  179.7030  179.0870  142.3320 C   0  0  0  0  0  0  0  0  0  0  0  0
  179.1330  180.2100  142.3610 O   0  0  0  0  0  1  0  0  0  0  0  0
  178.9310  177.9330  142.2680 O   0  0  0  0  0  0  0  0  0  0  0  0
  1  2  1  6  0  0  0
  1  7  1  0  0  0  0
  3 14  1  0  0  0  0
  4  9  1  0  0  0  0
  5 12  1  0  0  0  0
  6  5  2  0  0  0  0
  7  6  1  0  0  0  0
  7  3  2  0  0  0  0
  8  6  1  0  0  0  0
  9 10  1  0  0  0  0
 10 15  1  0  0  0  0
 11 10  2  0  0  0  0
 12  4  1  0  0  0  0
 13 11  1  0  0  0  0
 14 12  2  0  0  0  0
 14 13  1  0  0  0  0
 15 16  2  0  0  0  0
 15 17  2  0  0  0  0
 18 22  1  0  0  0  0
 18  1  1  0  0  0  0
 19 31  2  0  0  0  0
 19 25  1  0  0  0  0
 21 29  1  0  0  0  0
 22 26  2  0  0  0  0
 23 22  1  0  0  0  0
 23 31  1  0  0  0  0
 24 25  1  0  0  0  0
 24 21  2  0  0  0  0
 25 28  2  0  0  0  0
 26 30  1  0  0  0  0
 28 20  1  0  0  0  0
 28 27  1  0  0  0  0
 29 27  2  0  0  0  0
 30 20  2  0  0  0  0
 31 30  1  0  0  0  0
 32 33  1  0  0  0  0
 32 21  1  0  0  0  0
 34 32  2  0  0  0  0
M  END
>  <MODEL>
9

>  <REMARK>
 VINA RESULT:      -8.9      4.957     10.649
  Name = 
  5 active torsions:
  status: ('A' for Active; 'I' for Inactive)
    1  A    between atoms: N_3  and  C_25
    2  A    between atoms: C_7  and  C_11
    3  A    between atoms: C_8  and  C_17
    4  A    between atoms: C_10  and  C_17
    5  A    between atoms: C_10  and  C_20
                            x       y       z     vdW  Elec       q    Type
                         _______ _______ _______ _____ _____    ______ ____

>  <TORSDO>
F 5

$$$$
