=
 OpenBabel11052413593D

 34 38  0  0  1  0  0  0  0  0999 V2000
  184.0630  177.7090  138.8060 C   0  0  0  0  0  0  0  0  0  0  0  0
  182.3020  176.1200  138.6580 C   0  0  1  0  0  3  0  0  0  0  0  0
  182.5060  177.9040  140.6840 C   0  0  0  0  0  0  0  0  0  0  0  0
  181.2520  179.3090  143.1790 C   0  0  0  0  0  3  0  0  0  0  0  0
  185.3510  177.2590  136.8510 O   0  0  0  0  0  0  0  0  0  0  0  0
  183.5630  175.3840  137.5470 S   0  0  0  0  0  0  0  0  0  0  0  0
  180.2410  176.8740  140.5810 C   0  0  0  0  0  1  0  0  0  0  0  0
  182.9610  177.2610  139.3990 C   0  0  0  0  0  0  0  0  0  0  0  0
  180.6550  178.8540  142.0780 C   0  0  0  0  0  0  0  0  0  0  0  0
  184.4730  176.9050  137.6790 C   0  0  0  0  0  0  0  0  0  0  0  0
  183.5680  178.6680  141.4110 C   0  0  0  0  0  0  0  0  0  0  0  0
  184.7430  178.9730  139.2400 C   0  0  0  0  0  2  0  0  0  0  0  0
  181.1850  176.6540  137.7740 C   0  0  0  0  0  1  0  0  0  0  0  0
  182.5980  178.9840  143.6520 C   0  0  0  0  0  3  0  0  0  0  0  0
  183.6480  178.6610  142.8950 C   0  0  0  0  0  0  0  0  0  0  0  0
  181.2270  177.8490  141.1400 C   0  0  0  0  0  0  0  0  0  0  0  0
  184.6300  179.1250  140.7270 C   0  0  0  0  0  3  0  0  0  0  0  0
  186.2800  178.2610  145.6070 C   0  0  0  0  0  0  0  0  0  0  0  0
  187.3430  177.7110  144.8870 C   0  0  0  0  0  3  0  0  0  0  0  0
  184.9240  178.3170  143.5850 C   0  0  0  0  0  0  0  0  0  0  0  0
  187.2080  177.4690  143.5190 C   0  0  0  0  0  3  0  0  0  0  0  0
  185.0800  178.5640  144.9590 C   0  0  0  0  0  3  0  0  0  0  0  0
  186.0070  177.7720  142.8710 C   0  0  0  0  0  3  0  0  0  0  0  0
  186.4490  178.5690  147.3210 Cl  0  0  0  0  0  0  0  0  0  0  0  0
  179.2720  179.3610  141.8260 C   0  0  0  0  0  2  0  0  0  0  0  0
  179.3330  180.7830  141.3040 C   0  0  0  0  0  2  0  0  0  0  0  0
  179.2820  180.7690  139.7890 C   0  0  0  0  0  2  0  0  0  0  0  0
  181.5410  180.3620  137.8790 C   0  0  0  0  0  1  0  0  0  0  0  0
  179.9730  182.0050  139.2310 C   0  0  1  0  0  3  0  0  0  0  0  0
  180.8990  181.7000  138.0580 C   0  0  0  0  0  0  0  0  0  0  0  0
  180.6070  184.0530  137.3450 C   0  0  0  0  0  2  0  0  0  0  0  0
  179.2260  183.9810  137.9450 C   0  0  0  0  0  3  0  0  0  0  0  0
  178.9310  183.0220  138.8340 C   0  0  0  0  0  3  0  0  0  0  0  0
  181.1830  182.6710  137.1740 C   0  0  0  0  0  3  0  0  0  0  0  0
  1 12  1  0  0  0  0
  1  8  2  0  0  0  0
  2 13  1  6  0  0  0
  2  8  1  0  0  0  0
  3 16  2  0  0  0  0
  3 11  1  0  0  0  0
  4 14  1  0  0  0  0
  5 10  2  0  0  0  0
  6 10  1  0  0  0  0
  6  2  1  0  0  0  0
  7 16  1  0  0  0  0
  8  3  1  0  0  0  0
  9  4  2  0  0  0  0
 10  1  1  0  0  0  0
 11 15  1  0  0  0  0
 12 17  1  0  0  0  0
 15 20  1  0  0  0  0
 15 14  2  0  0  0  0
 16  9  1  0  0  0  0
 17 11  2  0  0  0  0
 18 24  1  0  0  0  0
 19 18  2  0  0  0  0
 20 22  2  0  0  0  0
 21 19  1  0  0  0  0
 22 18  1  0  0  0  0
 23 21  2  0  0  0  0
 23 20  1  0  0  0  0
 25  9  1  0  0  0  0
 26 25  1  0  0  0  0
 27 26  1  0  0  0  0
 28 30  1  0  0  0  0
 29 27  1  6  0  0  0
 30 29  1  0  0  0  0
 31 32  1  0  0  0  0
 32 33  2  0  0  0  0
 33 29  1  0  0  0  0
 34 31  1  0  0  0  0
 34 30  2  0  0  0  0
M  END
>  <MODEL>
1

>  <REMARK>
 VINA RESULT:      -8.6      0.000      0.000
  Name = 
  5 active torsions:
  status: ('A' for Active; 'I' for Inactive)
    1  A    between atoms: C_3  and  C_13
    2  A    between atoms: C_3  and  C_17
    3  A    between atoms: C_12  and  C_28
    4  A    between atoms: C_17  and  C_29
    5  A    between atoms: C_18  and  C_29
                            x       y       z     vdW  Elec       q    Type
                         _______ _______ _______ _____ _____    ______ ____

>  <TORSDO>
F 5

$$$$
=
 OpenBabel11052413593D

 34 38  0  0  1  0  0  0  0  0999 V2000
  191.7440  174.4200  136.6680 C   0  0  0  0  0  0  0  0  0  0  0  0
  193.5500  175.8620  137.2230 C   0  0  1  0  0  3  0  0  0  0  0  0
  191.0760  176.1280  138.2890 C   0  0  0  0  0  0  0  0  0  0  0  0
  189.1740  177.4230  140.4050 C   0  0  0  0  0  3  0  0  0  0  0  0
  192.7320  172.9020  135.1180 O   0  0  0  0  0  0  0  0  0  0  0  0
  194.1270  175.1330  135.6410 S   0  0  0  0  0  0  0  0  0  0  0  0
  192.7810  177.4100  139.5730 C   0  0  0  0  0  1  0  0  0  0  0  0
  192.1010  175.4700  137.4010 C   0  0  0  0  0  0  0  0  0  0  0  0
  190.4650  177.1100  140.5110 C   0  0  0  0  0  0  0  0  0  0  0  0
  192.7700  173.9910  135.7480 C   0  0  0  0  0  0  0  0  0  0  0  0
  189.6540  175.8350  137.9260 C   0  0  0  0  0  0  0  0  0  0  0  0
  190.4290  173.7250  136.8600 C   0  0  0  0  0  2  0  0  0  0  0  0
  194.3920  175.2460  138.3300 C   0  0  0  0  0  1  0  0  0  0  0  0
  188.3930  177.5420  139.1740 C   0  0  0  0  0  3  0  0  0  0  0  0
  188.5970  176.8740  138.0370 C   0  0  0  0  0  0  0  0  0  0  0  0
  191.3950  176.8890  139.3680 C   0  0  2  0  0  3  0  0  0  0  0  0
  189.3740  174.7280  137.2190 C   0  0  0  0  0  2  0  0  0  0  0  0
  185.4950  177.1950  135.8660 C   0  0  0  0  0  0  0  0  0  0  0  0
  186.0310  177.7170  134.6860 C   0  0  0  0  0  3  0  0  0  0  0  0
  187.7090  177.1810  136.8800 C   0  0  0  0  0  0  0  0  0  0  0  0
  187.4020  177.9670  134.5940 C   0  0  0  0  0  3  0  0  0  0  0  0
  186.3290  176.9270  136.9530 C   0  0  0  0  0  3  0  0  0  0  0  0
  188.2360  177.6990  135.6830 C   0  0  0  0  0  3  0  0  0  0  0  0
  183.7790  176.8780  135.9820 Cl  0  0  0  0  0  0  0  0  0  0  0  0
  191.0120  177.0470  141.9000 C   0  0  0  0  0  2  0  0  0  0  0  0
  190.0890  176.2250  142.7790 C   0  0  0  0  0  2  0  0  0  0  0  0
  189.9860  176.8710  144.1470 C   0  0  0  0  0  2  0  0  0  0  0  0
  189.4850  177.5300  147.0150 C   0  0  0  0  0  1  0  0  0  0  0  0
  188.5530  176.7950  144.6540 C   0  0  1  0  0  3  0  0  0  0  0  0
  188.3660  177.4270  146.0300 C   0  0  0  0  0  0  0  0  0  0  0  0
  185.9790  177.7390  145.4520 C   0  0  0  0  0  2  0  0  0  0  0  0
  186.4250  177.8850  144.0200 C   0  0  0  0  0  3  0  0  0  0  0  0
  187.6330  177.4380  143.6450 C   0  0  0  0  0  3  0  0  0  0  0  0
  187.1520  177.8740  146.3900 C   0  0  0  0  0  3  0  0  0  0  0  0
  1 12  1  0  0  0  0
  1  8  2  0  0  0  0
  2  8  1  0  0  0  0
  2 13  1  1  0  0  0
  3 16  1  0  0  0  0
  4  9  2  0  0  0  0
  5 10  2  0  0  0  0
  6 10  1  0  0  0  0
  6  2  1  0  0  0  0
  8  3  1  0  0  0  0
  9 25  1  0  0  0  0
 10  1  1  0  0  0  0
 11 15  1  0  0  0  0
 11  3  2  0  0  0  0
 12 17  1  0  0  0  0
 14  4  1  0  0  0  0
 15 14  2  0  0  0  0
 16  7  1  1  0  0  0
 16  9  1  0  0  0  0
 17 11  1  0  0  0  0
 18 24  1  0  0  0  0
 18 22  1  0  0  0  0
 19 18  2  0  0  0  0
 20 22  2  0  0  0  0
 20 15  1  0  0  0  0
 21 19  1  0  0  0  0
 21 23  2  0  0  0  0
 23 20  1  0  0  0  0
 25 26  1  0  0  0  0
 26 27  1  0  0  0  0
 29 27  1  6  0  0  0
 29 30  1  0  0  0  0
 30 34  2  0  0  0  0
 30 28  1  0  0  0  0
 31 34  1  0  0  0  0
 32 31  1  0  0  0  0
 33 32  2  0  0  0  0
 33 29  1  0  0  0  0
M  END
>  <MODEL>
2

>  <REMARK>
 VINA RESULT:      -8.5      6.158     10.201
  Name = 
  5 active torsions:
  status: ('A' for Active; 'I' for Inactive)
    1  A    between atoms: C_3  and  C_13
    2  A    between atoms: C_3  and  C_17
    3  A    between atoms: C_12  and  C_28
    4  A    between atoms: C_17  and  C_29
    5  A    between atoms: C_18  and  C_29
                            x       y       z     vdW  Elec       q    Type
                         _______ _______ _______ _____ _____    ______ ____

>  <TORSDO>
F 5

$$$$
=
 OpenBabel11052413593D

 34 38  0  0  1  0  0  0  0  0999 V2000
  181.0470  179.5920  139.4750 C   0  0  0  0  0  0  0  0  0  0  0  0
  180.2590  178.2410  141.2650 C   0  0  1  0  0  3  0  0  0  0  0  0
  182.8460  179.0020  141.0260 C   0  0  0  0  0  0  0  0  0  0  0  0
  185.7120  179.2460  142.2510 C   0  0  0  0  0  3  0  0  0  0  0  0
  179.0730  179.9860  138.1980 O   0  0  0  0  0  0  0  0  0  0  0  0
  178.9310  178.0220  140.0190 S   0  0  0  0  0  0  0  0  0  0  0  0
  182.3390  178.1470  143.3090 C   0  0  0  0  0  1  0  0  0  0  0  0
  181.4060  178.9530  140.5850 C   0  0  0  0  0  0  0  0  0  0  0  0
  184.5270  179.3060  142.8580 C   0  0  0  0  0  0  0  0  0  0  0  0
  179.6830  179.3300  139.0820 C   0  0  0  0  0  0  0  0  0  0  0  0
  183.8180  179.3730  139.9500 C   0  0  0  0  0  0  0  0  0  0  0  0
  181.9670  180.5450  138.7720 C   0  0  0  0  0  2  0  0  0  0  0  0
  179.6920  179.1160  142.3730 C   0  0  0  0  0  1  0  0  0  0  0  0
  185.9920  178.7300  140.9110 C   0  0  0  0  0  3  0  0  0  0  0  0
  185.1610  178.7400  139.8680 C   0  0  0  0  0  0  0  0  0  0  0  0
  183.2480  178.7810  142.3050 C   0  0  2  0  0  3  0  0  0  0  0  0
  183.3810  180.0580  138.8810 C   0  0  0  0  0  2  0  0  0  0  0  0
  187.3920  177.7400  136.9580 C   0  0  0  0  0  0  0  0  0  0  0  0
  186.5140  176.9820  136.1790 C   0  0  0  0  0  3  0  0  0  0  0  0
  185.6300  178.1170  138.5970 C   0  0  0  0  0  0  0  0  0  0  0  0
  185.1950  176.7930  136.5980 C   0  0  0  0  0  3  0  0  0  0  0  0
  186.9510  178.3050  138.1570 C   0  0  0  0  0  3  0  0  0  0  0  0
  184.7550  177.3590  137.7980 C   0  0  0  0  0  3  0  0  0  0  0  0
  189.0430  177.9810  136.4340 Cl  0  0  0  0  0  0  0  0  0  0  0  0
  184.5240  179.8940  144.2320 C   0  0  0  0  0  2  0  0  0  0  0  0
  185.7120  179.3720  145.0170 C   0  0  0  0  0  2  0  0  0  0  0  0
  185.6140  177.8640  145.1410 C   0  0  0  0  0  2  0  0  0  0  0  0
  188.2080  177.0530  143.9060 C   0  0  0  0  0  1  0  0  0  0  0  0
  186.7070  177.3430  146.0620 C   0  0  1  0  0  3  0  0  0  0  0  0
  188.0690  177.2380  145.3830 C   0  0  0  0  0  0  0  0  0  0  0  0
  189.0920  177.4030  147.6320 C   0  0  0  0  0  2  0  0  0  0  0  0
  187.9110  178.2550  148.0210 C   0  0  0  0  0  3  0  0  0  0  0  0
  186.7900  178.2230  147.2850 C   0  0  0  0  0  3  0  0  0  0  0  0
  189.1830  177.2760  146.1320 C   0  0  0  0  0  3  0  0  0  0  0  0
  1  8  2  0  0  0  0
  2 13  1  1  0  0  0
  3 16  1  0  0  0  0
  4  9  2  0  0  0  0
  5 10  2  0  0  0  0
  6  2  1  0  0  0  0
  8  3  1  0  0  0  0
  8  2  1  0  0  0  0
  9 25  1  0  0  0  0
 10  1  1  0  0  0  0
 10  6  1  0  0  0  0
 11  3  2  0  0  0  0
 12 17  1  0  0  0  0
 12  1  1  0  0  0  0
 14  4  1  0  0  0  0
 15 11  1  0  0  0  0
 15 14  2  0  0  0  0
 16  9  1  0  0  0  0
 16  7  1  1  0  0  0
 17 11  1  0  0  0  0
 18 22  1  0  0  0  0
 19 21  1  0  0  0  0
 19 18  2  0  0  0  0
 20 15  1  0  0  0  0
 21 23  2  0  0  0  0
 22 20  2  0  0  0  0
 23 20  1  0  0  0  0
 24 18  1  0  0  0  0
 25 26  1  0  0  0  0
 26 27  1  0  0  0  0
 28 30  1  0  0  0  0
 29 27  1  6  0  0  0
 29 33  1  0  0  0  0
 30 29  1  0  0  0  0
 30 34  2  0  0  0  0
 31 32  1  0  0  0  0
 33 32  2  0  0  0  0
 34 31  1  0  0  0  0
M  END
>  <MODEL>
3

>  <REMARK>
 VINA RESULT:      -8.5      3.126      7.630
  Name = 
  5 active torsions:
  status: ('A' for Active; 'I' for Inactive)
    1  A    between atoms: C_3  and  C_13
    2  A    between atoms: C_3  and  C_17
    3  A    between atoms: C_12  and  C_28
    4  A    between atoms: C_17  and  C_29
    5  A    between atoms: C_18  and  C_29
                            x       y       z     vdW  Elec       q    Type
                         _______ _______ _______ _____ _____    ______ ____

>  <TORSDO>
F 5

$$$$
=
 OpenBabel11052413593D

 34 38  0  0  1  0  0  0  0  0999 V2000
  186.1250  177.5360  137.3030 C   0  0  0  0  0  0  0  0  0  0  0  0
  187.8450  178.6140  138.5390 C   0  0  1  0  0  3  0  0  0  0  0  0
  185.3060  178.3830  139.4480 C   0  0  0  0  0  0  0  0  0  0  0  0
  183.2400  178.6370  141.7810 C   0  0  0  0  0  3  0  0  0  0  0  0
  187.2530  176.8320  135.3240 O   0  0  0  0  0  0  0  0  0  0  0  0
  188.5370  178.6350  136.8400 S   0  0  0  0  0  0  0  0  0  0  0  0
  186.8880  179.0030  141.2670 C   0  0  0  0  0  1  0  0  0  0  0  0
  186.4030  178.1730  138.4350 C   0  0  0  0  0  0  0  0  0  0  0  0
  184.5330  178.3170  141.8290 C   0  0  0  0  0  0  0  0  0  0  0  0
  187.2160  177.5470  136.3580 C   0  0  0  0  0  0  0  0  0  0  0  0
  183.9180  178.2640  138.9000 C   0  0  0  0  0  0  0  0  0  0  0  0
  184.8260  176.8170  137.0910 C   0  0  0  0  0  2  0  0  0  0  0  0
  188.6420  177.5890  139.3320 C   0  0  0  0  0  1  0  0  0  0  0  0
  182.5290  179.2660  140.6680 C   0  0  0  0  0  3  0  0  0  0  0  0
  182.8210  179.1490  139.3720 C   0  0  0  0  0  0  0  0  0  0  0  0
  185.5350  178.6110  140.7670 C   0  0  2  0  0  3  0  0  0  0  0  0
  183.7170  177.5630  137.7720 C   0  0  0  0  0  2  0  0  0  0  0  0
  181.1800  182.0440  137.5360 C   0  0  0  0  0  0  0  0  0  0  0  0
  180.3970  181.3710  136.5940 C   0  0  0  0  0  3  0  0  0  0  0  0
  181.9920  179.9150  138.3990 C   0  0  0  0  0  0  0  0  0  0  0  0
  180.4010  179.9760  136.5530 C   0  0  0  0  0  3  0  0  0  0  0  0
  181.9690  181.3200  138.4330 C   0  0  0  0  0  3  0  0  0  0  0  0
  181.1910  179.2520  137.4510 C   0  0  0  0  0  3  0  0  0  0  0  0
  181.1740  183.7920  137.5920 Cl  0  0  0  0  0  0  0  0  0  0  0  0
  185.0000  177.6690  143.0930 C   0  0  0  0  0  2  0  0  0  0  0  0
  184.6780  178.5600  144.2770 C   0  0  0  0  0  2  0  0  0  0  0  0
  185.9650  179.1040  144.8660 C   0  0  0  0  0  2  0  0  0  0  0  0
  188.4280  177.6190  144.0640 C   0  0  0  0  0  1  0  0  0  0  0  0
  186.5490  178.1060  145.8560 C   0  0  1  0  0  3  0  0  0  0  0  0
  187.9470  177.6290  145.4790 C   0  0  0  0  0  0  0  0  0  0  0  0
  188.3050  177.1030  147.8720 C   0  0  0  0  0  2  0  0  0  0  0  0
  187.3790  178.2500  148.1820 C   0  0  0  0  0  3  0  0  0  0  0  0
  186.5510  178.7180  147.2360 C   0  0  0  0  0  3  0  0  0  0  0  0
  188.7660  177.1660  146.4380 C   0  0  0  0  0  3  0  0  0  0  0  0
  1  8  2  0  0  0  0
  2 13  1  1  0  0  0
  3 16  1  0  0  0  0
  4  9  2  0  0  0  0
  5 10  2  0  0  0  0
  6  2  1  0  0  0  0
  8  2  1  0  0  0  0
  8  3  1  0  0  0  0
  9 25  1  0  0  0  0
 10  6  1  0  0  0  0
 10  1  1  0  0  0  0
 11 15  1  0  0  0  0
 11  3  2  0  0  0  0
 12  1  1  0  0  0  0
 12 17  1  0  0  0  0
 14  4  1  0  0  0  0
 15 14  2  0  0  0  0
 16  7  1  1  0  0  0
 16  9  1  0  0  0  0
 17 11  1  0  0  0  0
 18 24  1  0  0  0  0
 18 22  1  0  0  0  0
 19 18  2  0  0  0  0
 20 22  2  0  0  0  0
 20 15  1  0  0  0  0
 21 19  1  0  0  0  0
 21 23  2  0  0  0  0
 23 20  1  0  0  0  0
 25 26  1  0  0  0  0
 26 27  1  0  0  0  0
 28 30  1  0  0  0  0
 29 27  1  6  0  0  0
 29 33  1  0  0  0  0
 30 29  1  0  0  0  0
 30 34  2  0  0  0  0
 31 32  1  0  0  0  0
 33 32  2  0  0  0  0
 34 31  1  0  0  0  0
M  END
>  <MODEL>
4

>  <REMARK>
 VINA RESULT:      -8.2      3.009      7.989
  Name = 
  5 active torsions:
  status: ('A' for Active; 'I' for Inactive)
    1  A    between atoms: C_3  and  C_13
    2  A    between atoms: C_3  and  C_17
    3  A    between atoms: C_12  and  C_28
    4  A    between atoms: C_17  and  C_29
    5  A    between atoms: C_18  and  C_29
                            x       y       z     vdW  Elec       q    Type
                         _______ _______ _______ _____ _____    ______ ____

>  <TORSDO>
F 5

$$$$
=
 OpenBabel11052413593D

 34 38  0  0  1  0  0  0  0  0999 V2000
  190.6090  178.0670  142.8210 C   0  0  0  0  0  0  0  0  0  0  0  0
  188.9050  176.6770  141.9180 C   0  0  1  0  0  3  0  0  0  0  0  0
  188.8710  177.5740  144.4720 C   0  0  0  0  0  0  0  0  0  0  0  0
  187.3490  177.9700  147.1740 C   0  0  0  0  0  3  0  0  0  0  0  0
  192.0920  178.3560  140.9770 O   0  0  0  0  0  0  0  0  0  0  0  0
  190.2850  176.3870  140.7440 S   0  0  0  0  0  0  0  0  0  0  0  0
  186.6500  176.6950  143.7700 C   0  0  0  0  0  1  0  0  0  0  0  0
  189.4640  177.4490  143.0920 C   0  0  0  0  0  0  0  0  0  0  0  0
  186.8720  177.9680  145.9290 C   0  0  0  0  0  0  0  0  0  0  0  0
  191.1440  177.7340  141.5230 C   0  0  0  0  0  0  0  0  0  0  0  0
  189.8400  177.9950  145.5330 C   0  0  0  0  0  0  0  0  0  0  0  0
  191.2160  179.0670  143.7590 C   0  0  0  0  0  2  0  0  0  0  0  0
  187.8700  177.5210  141.1900 C   0  0  0  0  0  1  0  0  0  0  0  0
  188.6480  177.4690  147.6220 C   0  0  0  0  0  3  0  0  0  0  0  0
  189.7740  177.4340  146.9080 C   0  0  0  0  0  0  0  0  0  0  0  0
  187.5560  177.3750  144.7460 C   0  0  0  0  0  0  0  0  0  0  0  0
  190.9540  178.6550  145.1770 C   0  0  0  0  0  3  0  0  0  0  0  0
  192.7710  176.9460  149.1930 C   0  0  0  0  0  0  0  0  0  0  0  0
  193.2910  175.7390  148.7190 C   0  0  0  0  0  3  0  0  0  0  0  0
  190.9830  176.8370  147.5420 C   0  0  0  0  0  0  0  0  0  0  0  0
  192.6690  175.0800  147.6570 C   0  0  0  0  0  3  0  0  0  0  0  0
  191.6280  177.4920  148.6060 C   0  0  0  0  0  3  0  0  0  0  0  0
  191.5230  175.6270  147.0710 C   0  0  0  0  0  3  0  0  0  0  0  0
  193.5520  177.7760  150.5200 Cl  0  0  0  0  0  0  0  0  0  0  0  0
  185.5100  178.5550  145.7480 C   0  0  0  0  0  2  0  0  0  0  0  0
  185.5070  179.4890  144.5530 C   0  0  0  0  0  2  0  0  0  0  0  0
  184.0880  179.6630  144.0510 C   0  0  0  0  0  2  0  0  0  0  0  0
  181.2540  179.0720  143.3190 C   0  0  0  0  0  1  0  0  0  0  0  0
  183.8360  178.7440  142.8640 C   0  0  1  0  0  3  0  0  0  0  0  0
  182.3840  178.7440  142.3970 C   0  0  0  0  0  0  0  0  0  0  0  0
  183.2010  178.0090  140.1790 C   0  0  0  0  0  2  0  0  0  0  0  0
  184.4580  178.7870  140.4700 C   0  0  0  0  0  3  0  0  0  0  0  0
  184.7580  179.1290  141.7320 C   0  0  0  0  0  3  0  0  0  0  0  0
  182.1000  178.4030  141.1300 C   0  0  0  0  0  3  0  0  0  0  0  0
  1  8  2  0  0  0  0
  1 12  1  0  0  0  0
  2 13  1  6  0  0  0
  2  8  1  0  0  0  0
  3 16  2  0  0  0  0
  3 11  1  0  0  0  0
  4 14  1  0  0  0  0
  5 10  2  0  0  0  0
  6 10  1  0  0  0  0
  6  2  1  0  0  0  0
  7 16  1  0  0  0  0
  8  3  1  0  0  0  0
  9  4  2  0  0  0  0
 10  1  1  0  0  0  0
 11 15  1  0  0  0  0
 12 17  1  0  0  0  0
 15 20  1  0  0  0  0
 15 14  2  0  0  0  0
 16  9  1  0  0  0  0
 17 11  2  0  0  0  0
 18 24  1  0  0  0  0
 19 18  1  0  0  0  0
 20 22  1  0  0  0  0
 21 19  2  0  0  0  0
 22 18  2  0  0  0  0
 23 20  2  0  0  0  0
 23 21  1  0  0  0  0
 25  9  1  0  0  0  0
 26 25  1  0  0  0  0
 27 26  1  0  0  0  0
 29 27  1  1  0  0  0
 30 29  1  0  0  0  0
 30 28  1  0  0  0  0
 31 32  1  0  0  0  0
 31 34  1  0  0  0  0
 32 33  2  0  0  0  0
 33 29  1  0  0  0  0
 34 30  2  0  0  0  0
M  END
>  <MODEL>
5

>  <REMARK>
 VINA RESULT:      -7.9      3.951      7.287
  Name = 
  5 active torsions:
  status: ('A' for Active; 'I' for Inactive)
    1  A    between atoms: C_3  and  C_13
    2  A    between atoms: C_3  and  C_17
    3  A    between atoms: C_12  and  C_28
    4  A    between atoms: C_17  and  C_29
    5  A    between atoms: C_18  and  C_29
                            x       y       z     vdW  Elec       q    Type
                         _______ _______ _______ _____ _____    ______ ____

>  <TORSDO>
F 5

$$$$
=
 OpenBabel11052413593D

 34 38  0  0  1  0  0  0  0  0999 V2000
  192.8510  175.9910  138.4640 C   0  0  0  0  0  0  0  0  0  0  0  0
  191.5120  174.5250  137.1580 C   0  0  1  0  0  3  0  0  0  0  0  0
  190.4660  176.4870  138.7020 C   0  0  0  0  0  0  0  0  0  0  0  0
  188.0170  178.2280  139.5650 C   0  0  0  0  0  3  0  0  0  0  0  0
  195.0670  175.2520  137.9880 O   0  0  0  0  0  0  0  0  0  0  0  0
  193.0870  173.5910  137.2690 S   0  0  0  0  0  0  0  0  0  0  0  0
  188.8080  175.6170  137.0620 C   0  0  0  0  0  1  0  0  0  0  0  0
  191.6030  175.6860  138.1210 C   0  0  0  0  0  0  0  0  0  0  0  0
  188.3030  177.7050  138.3720 C   0  0  0  0  0  0  0  0  0  0  0  0
  193.8260  175.0480  137.9680 C   0  0  0  0  0  0  0  0  0  0  0  0
  190.8070  177.2450  139.9470 C   0  0  0  0  0  0  0  0  0  0  0  0
  193.1860  177.2410  139.2210 C   0  0  0  0  0  2  0  0  0  0  0  0
  191.4010  175.0450  135.7320 C   0  0  0  0  0  1  0  0  0  0  0  0
  188.6010  177.8560  140.8530 C   0  0  0  0  0  3  0  0  0  0  0  0
  189.8310  177.3840  141.0600 C   0  0  0  0  0  0  0  0  0  0  0  0
  189.2380  176.5710  138.1290 C   0  0  0  0  0  0  0  0  0  0  0  0
  192.0900  177.5520  140.1960 C   0  0  0  0  0  3  0  0  0  0  0  0
  189.8620  177.2200  144.8560 C   0  0  0  0  0  0  0  0  0  0  0  0
  190.9520  176.3790  145.0920 C   0  0  0  0  0  3  0  0  0  0  0  0
  190.2130  177.0220  142.4540 C   0  0  0  0  0  0  0  0  0  0  0  0
  191.6800  175.8620  144.0180 C   0  0  0  0  0  3  0  0  0  0  0  0
  189.4980  177.5410  143.5470 C   0  0  0  0  0  3  0  0  0  0  0  0
  191.3140  176.1840  142.7080 C   0  0  0  0  0  3  0  0  0  0  0  0
  188.9520  177.8720  146.2010 Cl  0  0  0  0  0  0  0  0  0  0  0  0
  187.5610  178.2820  137.2100 C   0  0  0  0  0  2  0  0  0  0  0  0
  186.1310  178.5870  137.6120 C   0  0  0  0  0  2  0  0  0  0  0  0
  185.2320  177.4410  137.1920 C   0  0  0  0  0  2  0  0  0  0  0  0
  183.7870  174.8680  137.6480 C   0  0  0  0  0  1  0  0  0  0  0  0
  183.9270  177.4870  137.9740 C   0  0  1  0  0  3  0  0  0  0  0  0
  183.4300  176.1090  138.4000 C   0  0  0  0  0  0  0  0  0  0  0  0
  182.1800  177.2330  140.2180 C   0  0  0  0  0  2  0  0  0  0  0  0
  183.2790  178.2650  140.2310 C   0  0  0  0  0  3  0  0  0  0  0  0
  184.0960  178.3860  139.1740 C   0  0  0  0  0  3  0  0  0  0  0  0
  182.6150  176.0030  139.4630 C   0  0  0  0  0  3  0  0  0  0  0  0
  1 12  1  0  0  0  0
  2 13  1  6  0  0  0
  2  6  1  0  0  0  0
  2  8  1  0  0  0  0
  3 11  1  0  0  0  0
  4 14  1  0  0  0  0
  6 10  1  0  0  0  0
  7 16  1  0  0  0  0
  8  1  2  0  0  0  0
  8  3  1  0  0  0  0
  9  4  2  0  0  0  0
 10  5  2  0  0  0  0
 10  1  1  0  0  0  0
 11 17  2  0  0  0  0
 11 15  1  0  0  0  0
 12 17  1  0  0  0  0
 14 15  2  0  0  0  0
 15 20  1  0  0  0  0
 16  9  1  0  0  0  0
 16  3  2  0  0  0  0
 18 19  1  0  0  0  0
 18 24  1  0  0  0  0
 20 23  2  0  0  0  0
 20 22  1  0  0  0  0
 21 19  2  0  0  0  0
 22 18  2  0  0  0  0
 23 21  1  0  0  0  0
 25 26  1  0  0  0  0
 25  9  1  0  0  0  0
 27 26  1  0  0  0  0
 28 30  1  0  0  0  0
 29 27  1  1  0  0  0
 29 30  1  0  0  0  0
 29 33  1  0  0  0  0
 30 34  2  0  0  0  0
 31 32  1  0  0  0  0
 33 32  2  0  0  0  0
 34 31  1  0  0  0  0
M  END
>  <MODEL>
6

>  <REMARK>
 VINA RESULT:      -7.4      5.007      7.598
  Name = 
  5 active torsions:
  status: ('A' for Active; 'I' for Inactive)
    1  A    between atoms: C_3  and  C_13
    2  A    between atoms: C_3  and  C_17
    3  A    between atoms: C_12  and  C_28
    4  A    between atoms: C_17  and  C_29
    5  A    between atoms: C_18  and  C_29
                            x       y       z     vdW  Elec       q    Type
                         _______ _______ _______ _____ _____    ______ ____

>  <TORSDO>
F 5

$$$$
=
 OpenBabel11052413593D

 34 38  0  0  1  0  0  0  0  0999 V2000
  188.7110  177.5430  138.5950 C   0  0  0  0  0  0  0  0  0  0  0  0
  187.3260  176.1490  137.2570 C   0  0  1  0  0  3  0  0  0  0  0  0
  186.3370  177.8770  139.0910 C   0  0  0  0  0  0  0  0  0  0  0  0
  183.8990  179.3770  140.3470 C   0  0  0  0  0  3  0  0  0  0  0  0
  190.9050  176.9830  137.8510 O   0  0  0  0  0  0  0  0  0  0  0  0
  188.9470  175.2990  137.1290 S   0  0  0  0  0  0  0  0  0  0  0  0
  184.5770  177.0920  137.5150 C   0  0  0  0  0  1  0  0  0  0  0  0
  187.4520  177.2060  138.3300 C   0  0  0  0  0  0  0  0  0  0  0  0
  184.0980  179.0000  139.0840 C   0  0  0  0  0  0  0  0  0  0  0  0
  189.6780  176.7140  137.9170 C   0  0  0  0  0  0  0  0  0  0  0  0
  186.7550  178.5180  140.3780 C   0  0  0  0  0  0  0  0  0  0  0  0
  189.0550  178.7240  139.4520 C   0  0  0  0  0  2  0  0  0  0  0  0
  187.0610  176.8080  135.9110 C   0  0  0  0  0  1  0  0  0  0  0  0
  184.6160  178.9060  141.5320 C   0  0  0  0  0  3  0  0  0  0  0  0
  185.8810  178.4850  141.5790 C   0  0  0  0  0  0  0  0  0  0  0  0
  185.0580  177.9520  138.6390 C   0  0  0  0  0  0  0  0  0  0  0  0
  188.0400  178.8690  140.5470 C   0  0  0  0  0  3  0  0  0  0  0  0
  186.2730  177.9340  145.3180 C   0  0  0  0  0  0  0  0  0  0  0  0
  187.4130  177.1280  145.3650 C   0  0  0  0  0  3  0  0  0  0  0  0
  186.4050  178.0010  142.8870 C   0  0  0  0  0  0  0  0  0  0  0  0
  188.0570  176.7600  144.1810 C   0  0  0  0  0  3  0  0  0  0  0  0
  185.7750  178.3690  144.0880 C   0  0  0  0  0  3  0  0  0  0  0  0
  187.5570  177.1960  142.9500 C   0  0  0  0  0  3  0  0  0  0  0  0
  185.4680  178.3980  146.8000 Cl  0  0  0  0  0  0  0  0  0  0  0  0
  183.2270  179.6520  138.0600 C   0  0  0  0  0  2  0  0  0  0  0  0
  182.0800  180.3720  138.7440 C   0  0  0  0  0  2  0  0  0  0  0  0
  180.7700  179.7060  138.3720 C   0  0  0  0  0  2  0  0  0  0  0  0
  181.0230  176.8030  139.0200 C   0  0  0  0  0  1  0  0  0  0  0  0
  180.0710  179.1930  139.6220 C   0  0  1  0  0  3  0  0  0  0  0  0
  180.5000  177.7840  140.0180 C   0  0  0  0  0  0  0  0  0  0  0  0
  179.7950  178.3270  142.3290 C   0  0  0  0  0  2  0  0  0  0  0  0
  180.1820  179.7520  142.0290 C   0  0  0  0  0  3  0  0  0  0  0  0
  180.3070  180.1590  140.7570 C   0  0  0  0  0  3  0  0  0  0  0  0
  180.3720  177.3920  141.2970 C   0  0  0  0  0  3  0  0  0  0  0  0
  1 12  1  0  0  0  0
  2 13  1  6  0  0  0
  2  8  1  0  0  0  0
  3 11  1  0  0  0  0
  4 14  1  0  0  0  0
  5 10  2  0  0  0  0
  6  2  1  0  0  0  0
  6 10  1  0  0  0  0
  7 16  1  0  0  0  0
  8  1  2  0  0  0  0
  8  3  1  0  0  0  0
  9  4  2  0  0  0  0
 10  1  1  0  0  0  0
 11 17  2  0  0  0  0
 11 15  1  0  0  0  0
 12 17  1  0  0  0  0
 14 15  2  0  0  0  0
 15 20  1  0  0  0  0
 16  9  1  0  0  0  0
 16  3  2  0  0  0  0
 18 19  1  0  0  0  0
 18 24  1  0  0  0  0
 20 23  2  0  0  0  0
 20 22  1  0  0  0  0
 21 19  2  0  0  0  0
 22 18  2  0  0  0  0
 23 21  1  0  0  0  0
 25 26  1  0  0  0  0
 25  9  1  0  0  0  0
 27 26  1  0  0  0  0
 28 30  1  0  0  0  0
 29 27  1  6  0  0  0
 29 30  1  0  0  0  0
 29 33  1  0  0  0  0
 30 34  2  0  0  0  0
 32 31  1  0  0  0  0
 33 32  2  0  0  0  0
 34 31  1  0  0  0  0
M  END
>  <MODEL>
7

>  <REMARK>
 VINA RESULT:      -7.3      2.423      4.238
  Name = 
  5 active torsions:
  status: ('A' for Active; 'I' for Inactive)
    1  A    between atoms: C_3  and  C_13
    2  A    between atoms: C_3  and  C_17
    3  A    between atoms: C_12  and  C_28
    4  A    between atoms: C_17  and  C_29
    5  A    between atoms: C_18  and  C_29
                            x       y       z     vdW  Elec       q    Type
                         _______ _______ _______ _____ _____    ______ ____

>  <TORSDO>
F 5

$$$$
=
 OpenBabel11052413593D

 34 38  0  0  1  0  0  0  0  0999 V2000
  188.7000  177.4920  137.1710 C   0  0  0  0  0  0  0  0  0  0  0  0
  186.8140  176.2700  136.3970 C   0  0  1  0  0  3  0  0  0  0  0  0
  186.7510  177.8210  138.6150 C   0  0  0  0  0  0  0  0  0  0  0  0
  185.1190  179.2320  140.8770 C   0  0  0  0  0  3  0  0  0  0  0  0
  190.3720  176.9680  135.5540 O   0  0  0  0  0  0  0  0  0  0  0  0
  188.1920  175.4050  135.5500 S   0  0  0  0  0  0  0  0  0  0  0  0
  184.4620  177.2360  137.8300 C   0  0  0  0  0  1  0  0  0  0  0  0
  187.4240  177.2090  137.4130 C   0  0  0  0  0  0  0  0  0  0  0  0
  184.7700  178.9820  139.6150 C   0  0  0  0  0  0  0  0  0  0  0  0
  189.2620  176.7180  136.0900 C   0  0  0  0  0  0  0  0  0  0  0  0
  187.6890  178.3180  139.6710 C   0  0  0  0  0  0  0  0  0  0  0  0
  189.4300  178.5720  137.9120 C   0  0  0  0  0  2  0  0  0  0  0  0
  186.0700  177.0680  135.3370 C   0  0  0  0  0  1  0  0  0  0  0  0
  186.2230  178.6290  141.6230 C   0  0  0  0  0  3  0  0  0  0  0  0
  187.3720  178.1800  141.1160 C   0  0  0  0  0  0  0  0  0  0  0  0
  185.4060  177.9660  138.7300 C   0  0  0  0  0  0  0  0  0  0  0  0
  188.9520  178.6240  139.3320 C   0  0  0  0  0  3  0  0  0  0  0  0
  189.1810  177.2130  144.3150 C   0  0  0  0  0  0  0  0  0  0  0  0
  190.2140  176.4130  143.8220 C   0  0  0  0  0  3  0  0  0  0  0  0
  188.3490  177.5540  142.0510 C   0  0  0  0  0  0  0  0  0  0  0  0
  190.3260  176.1850  142.4490 C   0  0  0  0  0  3  0  0  0  0  0  0
  188.2570  177.7820  143.4350 C   0  0  0  0  0  3  0  0  0  0  0  0
  189.4010  176.7540  141.5690 C   0  0  0  0  0  3  0  0  0  0  0  0
  189.0410  177.5030  146.0350 Cl  0  0  0  0  0  0  0  0  0  0  0  0
  183.6010  179.7530  139.0930 C   0  0  0  0  0  2  0  0  0  0  0  0
  182.3520  179.3800  139.8690 C   0  0  0  0  0  2  0  0  0  0  0  0
  181.1520  179.4120  138.9430 C   0  0  0  0  0  2  0  0  0  0  0  0
  181.1300  178.3950  136.1360 C   0  0  0  0  0  1  0  0  0  0  0  0
  180.6400  177.9990  138.7030 C   0  0  1  0  0  3  0  0  0  0  0  0
  180.9430  177.4780  137.3020 C   0  0  0  0  0  0  0  0  0  0  0  0
  180.7690  175.1870  138.2240 C   0  0  0  0  0  2  0  0  0  0  0  0
  181.2800  175.7550  139.5230 C   0  0  0  0  0  3  0  0  0  0  0  0
  181.2160  177.0750  139.7490 C   0  0  0  0  0  3  0  0  0  0  0  0
  181.0080  176.1530  137.0920 C   0  0  0  0  0  3  0  0  0  0  0  0
  1  8  2  0  0  0  0
  1 12  1  0  0  0  0
  2 13  1  6  0  0  0
  2  8  1  0  0  0  0
  3 16  2  0  0  0  0
  3 11  1  0  0  0  0
  4 14  1  0  0  0  0
  5 10  2  0  0  0  0
  6 10  1  0  0  0  0
  6  2  1  0  0  0  0
  7 16  1  0  0  0  0
  8  3  1  0  0  0  0
  9  4  2  0  0  0  0
 10  1  1  0  0  0  0
 11 15  1  0  0  0  0
 12 17  1  0  0  0  0
 15 14  2  0  0  0  0
 15 20  1  0  0  0  0
 16  9  1  0  0  0  0
 17 11  2  0  0  0  0
 18 24  1  0  0  0  0
 19 18  1  0  0  0  0
 20 22  1  0  0  0  0
 21 19  2  0  0  0  0
 22 18  2  0  0  0  0
 23 20  2  0  0  0  0
 23 21  1  0  0  0  0
 25  9  1  0  0  0  0
 25 26  1  0  0  0  0
 27 26  1  0  0  0  0
 28 30  1  0  0  0  0
 29 27  1  6  0  0  0
 29 33  1  0  0  0  0
 30 29  1  0  0  0  0
 31 32  1  0  0  0  0
 32 33  2  0  0  0  0
 34 30  2  0  0  0  0
 34 31  1  0  0  0  0
M  END
>  <MODEL>
8

>  <REMARK>
 VINA RESULT:      -7.3      2.874      4.872
  Name = 
  5 active torsions:
  status: ('A' for Active; 'I' for Inactive)
    1  A    between atoms: C_3  and  C_13
    2  A    between atoms: C_3  and  C_17
    3  A    between atoms: C_12  and  C_28
    4  A    between atoms: C_17  and  C_29
    5  A    between atoms: C_18  and  C_29
                            x       y       z     vdW  Elec       q    Type
                         _______ _______ _______ _____ _____    ______ ____

>  <TORSDO>
F 5

$$$$
=
 OpenBabel11052413593D

 34 38  0  0  1  0  0  0  0  0999 V2000
  185.3050  177.2840  137.8560 C   0  0  0  0  0  0  0  0  0  0  0  0
  187.0880  178.6560  138.6240 C   0  0  1  0  0  3  0  0  0  0  0  0
  184.7580  178.3820  139.9740 C   0  0  0  0  0  0  0  0  0  0  0  0
  183.0720  178.8340  142.5680 C   0  0  0  0  0  3  0  0  0  0  0  0
  186.1680  176.3750  135.8290 O   0  0  0  0  0  0  0  0  0  0  0  0
  187.4970  178.4720  136.8450 S   0  0  0  0  0  0  0  0  0  0  0  0
  186.5410  179.3810  141.3970 C   0  0  0  0  0  1  0  0  0  0  0  0
  185.6960  178.1030  138.8280 C   0  0  0  0  0  0  0  0  0  0  0  0
  184.3810  178.6180  142.4390 C   0  0  0  0  0  0  0  0  0  0  0  0
  186.2270  177.2330  136.7470 C   0  0  0  0  0  0  0  0  0  0  0  0
  183.3180  178.0830  139.6920 C   0  0  0  0  0  0  0  0  0  0  0  0
  184.0630  176.4510  137.9680 C   0  0  0  0  0  2  0  0  0  0  0  0
  188.0950  177.8220  139.4010 C   0  0  0  0  0  1  0  0  0  0  0  0
  182.1370  179.2360  141.5180 C   0  0  0  0  0  3  0  0  0  0  0  0
  182.2300  178.9480  140.2190 C   0  0  0  0  0  0  0  0  0  0  0  0
  185.1700  178.8220  141.1920 C   0  0  2  0  0  3  0  0  0  0  0  0
  183.0100  177.2090  138.7200 C   0  0  0  0  0  2  0  0  0  0  0  0
  180.4660  181.1840  137.7030 C   0  0  0  0  0  0  0  0  0  0  0  0
  179.2140  180.5710  137.6120 C   0  0  0  0  0  3  0  0  0  0  0  0
  181.1880  179.4980  139.3060 C   0  0  0  0  0  0  0  0  0  0  0  0
  178.9400  179.4290  138.3680 C   0  0  0  0  0  3  0  0  0  0  0  0
  181.4450  180.6520  138.5460 C   0  0  0  0  0  3  0  0  0  0  0  0
  179.9200  178.8980  139.2110 C   0  0  0  0  0  3  0  0  0  0  0  0
  180.8110  182.6160  136.7600 Cl  0  0  0  0  0  0  0  0  0  0  0  0
  185.1020  178.2030  143.6810 C   0  0  0  0  0  2  0  0  0  0  0  0
  186.2810  177.3200  143.3200 C   0  0  0  0  0  2  0  0  0  0  0  0
  187.1720  177.1450  144.5330 C   0  0  0  0  0  2  0  0  0  0  0  0
  189.1820  177.4260  146.7230 C   0  0  0  0  0  1  0  0  0  0  0  0
  188.6320  177.3220  144.1400 C   0  0  1  0  0  3  0  0  0  0  0  0
  189.5960  177.1600  145.3110 C   0  0  0  0  0  0  0  0  0  0  0  0
  191.3480  176.5830  143.6600 C   0  0  0  0  0  2  0  0  0  0  0  0
  190.2470  176.0010  142.8110 C   0  0  0  0  0  3  0  0  0  0  0  0
  188.9720  176.3520  143.0350 C   0  0  0  0  0  3  0  0  0  0  0  0
  190.8690  176.8050  145.0720 C   0  0  0  0  0  3  0  0  0  0  0  0
  1 12  1  0  0  0  0
  1  8  2  0  0  0  0
  2  8  1  0  0  0  0
  2 13  1  1  0  0  0
  3 16  1  0  0  0  0
  5 10  2  0  0  0  0
  6  2  1  0  0  0  0
  8  3  1  0  0  0  0
  9  4  2  0  0  0  0
  9 25  1  0  0  0  0
 10  6  1  0  0  0  0
 10  1  1  0  0  0  0
 11  3  2  0  0  0  0
 11 15  1  0  0  0  0
 12 17  1  0  0  0  0
 14  4  1  0  0  0  0
 15 14  2  0  0  0  0
 16  7  1  1  0  0  0
 16  9  1  0  0  0  0
 17 11  1  0  0  0  0
 18 22  1  0  0  0  0
 19 18  2  0  0  0  0
 19 21  1  0  0  0  0
 20 15  1  0  0  0  0
 21 23  2  0  0  0  0
 22 20  2  0  0  0  0
 23 20  1  0  0  0  0
 24 18  1  0  0  0  0
 26 25  1  0  0  0  0
 26 27  1  0  0  0  0
 29 27  1  1  0  0  0
 29 30  1  0  0  0  0
 30 28  1  0  0  0  0
 31 34  1  0  0  0  0
 32 33  2  0  0  0  0
 32 31  1  0  0  0  0
 33 29  1  0  0  0  0
 34 30  2  0  0  0  0
M  END
>  <MODEL>
9

>  <REMARK>
 VINA RESULT:      -7.2      2.997      8.173
  Name = 
  5 active torsions:
  status: ('A' for Active; 'I' for Inactive)
    1  A    between atoms: C_3  and  C_13
    2  A    between atoms: C_3  and  C_17
    3  A    between atoms: C_12  and  C_28
    4  A    between atoms: C_17  and  C_29
    5  A    between atoms: C_18  and  C_29
                            x       y       z     vdW  Elec       q    Type
                         _______ _______ _______ _____ _____    ______ ____

>  <TORSDO>
F 5

$$$$
