=
 OpenBabel11052414383D

 32 37  0  0  1  0  0  0  0  0999 V2000
  187.0250  178.3120  141.8750 C   0  0  0  0  0  0  0  0  0  0  0  0
  188.5130  177.5100  143.8020 C   0  0  1  0  0  3  0  0  0  0  0  0
  186.8480  178.6170  140.5180 C   0  0  0  0  0  3  0  0  0  0  0  0
  188.2340  177.6940  142.3070 C   0  0  0  0  0  0  0  0  0  0  0  0
  189.8650  178.0910  144.2860 C   0  0  2  0  0  3  0  0  0  0  0  0
  186.9200  178.4670  148.5140 C   0  0  0  0  0  2  0  0  0  0  0  0
  187.4350  178.1470  144.6980 C   0  0  1  0  0  3  0  0  0  0  0  0
  189.2610  177.6330  148.0820 C   0  0  0  0  0  2  0  0  0  0  0  0
  188.9940  178.1340  146.6570 C   0  0  1  0  0  3  0  0  0  0  0  0
  191.0900  177.6980  143.4710 C   0  0  2  0  0  3  0  0  0  0  0  0
  189.1170  177.1810  141.3140 C   0  0  0  0  0  0  0  0  0  0  0  0
  190.1090  177.6530  145.7320 C   0  0  0  0  0  2  0  0  0  0  0  0
  190.2450  176.2130  141.5640 C   0  0  0  0  0  2  0  0  0  0  0  0
  188.8850  177.4700  139.9660 C   0  0  0  0  0  3  0  0  0  0  0  0
  186.0490  177.8870  144.1500 C   0  0  0  0  0  2  0  0  0  0  0  0
  191.3730  178.6480  142.4870 O   0  0  0  0  0  1  0  0  0  0  0  0
  185.9240  178.6730  142.8530 C   0  0  2  0  0  3  0  0  0  0  0  0
  187.6070  177.7000  146.1520 C   0  0  1  0  0  3  0  0  0  0  0  0
  190.9750  176.2900  142.9020 C   0  0  0  0  0  2  0  0  0  0  0  0
  187.7790  178.2120  139.5700 C   0  0  0  0  0  3  0  0  0  0  0  0
  187.9860  177.4520  148.9150 C   0  0  0  0  0  2  0  0  0  0  0  0
  186.5020  178.2900  147.0480 C   0  0  0  0  0  2  0  0  0  0  0  0
  182.1530  178.8780  142.3970 C   0  0  0  0  0  0  0  0  0  0  0  0
  180.9520  179.4460  143.0700 C   0  0  0  0  0  1  0  0  0  0  0  0
  184.5410  178.4970  142.2860 C   0  0  0  0  0  0  0  0  0  0  0  0
  181.9990  178.1880  141.2350 N   0  0  0  0  0  0  0  0  0  0  0  0
  184.3480  177.7910  141.0910 C   0  0  0  0  0  3  0  0  0  0  0  0
  183.4320  179.0470  142.9470 C   0  0  0  0  0  0  0  0  0  0  0  0
  183.6000  179.7540  144.1350 O   0  0  0  0  0  1  0  0  0  0  0  0
  183.0590  177.6490  140.5760 C   0  0  0  0  0  0  0  0  0  0  0  0
  184.1020  177.6750  138.1910 C   0  0  0  0  0  1  0  0  0  0  0  0
  182.8010  176.7490  139.0550 S   0  0  0  0  0  0  0  0  0  0  0  0
  1  4  1  0  0  0  0
  1 17  1  0  0  0  0
  2  4  1  6  0  0  0
  2  5  1  0  0  0  0
  2  7  1  0  0  0  0
  3  1  2  0  0  0  0
  5 12  1  1  0  0  0
  6 21  1  0  0  0  0
  7 15  1  6  0  0  0
  7 18  1  0  0  0  0
  8 21  1  0  0  0  0
  9 12  1  6  0  0  0
  9  8  1  0  0  0  0
 10 16  1  6  0  0  0
 10  5  1  0  0  0  0
 11 13  1  0  0  0  0
 11  4  2  0  0  0  0
 13 19  1  0  0  0  0
 14 11  1  0  0  0  0
 17 25  1  6  0  0  0
 17 15  1  0  0  0  0
 18  9  1  0  0  0  0
 18 22  1  1  0  0  0
 19 10  1  0  0  0  0
 20 14  2  0  0  0  0
 20  3  1  0  0  0  0
 22  6  1  0  0  0  0
 23 28  1  0  0  0  0
 23 24  1  0  0  0  0
 25 28  2  0  0  0  0
 26 23  2  0  0  0  0
 27 25  1  0  0  0  0
 28 29  1  0  0  0  0
 30 27  2  0  0  0  0
 30 26  1  0  0  0  0
 31 32  1  0  0  0  0
 32 30  1  0  0  0  0
M  END
>  <MODEL>
1

>  <REMARK>
 VINA RESULT:     -10.3      0.000      0.000
  Name = 
  2 active torsions:
  status: ('A' for Active; 'I' for Inactive)
    1  A    between atoms: S_15  and  C_26
    2  A    between atoms: C_16  and  C_27
                            x       y       z     vdW  Elec       q    Type
                         _______ _______ _______ _____ _____    ______ ____

>  <TORSDO>
F 2

$$$$
=
 OpenBabel11052414383D

 32 37  0  0  1  0  0  0  0  0999 V2000
  189.5950  178.0730  143.6720 C   0  0  0  0  0  0  0  0  0  0  0  0
  187.4950  177.7610  145.1090 C   0  0  1  0  0  3  0  0  0  0  0  0
  190.9900  178.1350  143.5500 C   0  0  0  0  0  3  0  0  0  0  0  0
  189.0110  177.6710  144.9080 C   0  0  0  0  0  0  0  0  0  0  0  0
  187.0520  178.5610  146.3600 C   0  0  2  0  0  3  0  0  0  0  0  0
  183.0840  179.2730  143.1290 C   0  0  0  0  0  2  0  0  0  0  0  0
  186.7680  178.4080  143.9160 C   0  0  1  0  0  3  0  0  0  0  0  0
  183.2650  178.6500  145.5670 C   0  0  0  0  0  2  0  0  0  0  0  0
  184.7640  178.8830  145.3410 C   0  0  1  0  0  3  0  0  0  0  0  0
  187.7340  178.1830  147.6690 C   0  0  2  0  0  3  0  0  0  0  0  0
  189.8640  177.1100  145.9010 C   0  0  0  0  0  0  0  0  0  0  0  0
  185.5440  178.3890  146.5560 C   0  0  0  0  0  2  0  0  0  0  0  0
  189.4060  176.3270  147.1060 C   0  0  0  0  0  2  0  0  0  0  0  0
  191.2500  177.1510  145.7270 C   0  0  0  0  0  3  0  0  0  0  0  0
  187.3270  177.9090  142.6030 C   0  0  0  0  0  2  0  0  0  0  0  0
  188.8480  178.9900  147.9130 O   0  0  0  0  0  1  0  0  0  0  0  0
  188.7410  178.4590  142.4790 C   0  0  2  0  0  3  0  0  0  0  0  0
  185.2530  178.2200  144.0410 C   0  0  1  0  0  3  0  0  0  0  0  0
  188.0670  176.6990  147.7370 C   0  0  0  0  0  2  0  0  0  0  0  0
  191.8140  177.6910  144.5770 C   0  0  0  0  0  3  0  0  0  0  0  0
  182.4730  178.4620  144.2670 C   0  0  0  0  0  2  0  0  0  0  0  0
  184.5180  178.8180  142.8260 C   0  0  0  0  0  2  0  0  0  0  0  0
  189.1310  177.6910  138.7740 C   0  0  0  0  0  0  0  0  0  0  0  0
  188.3360  177.7190  137.5140 C   0  0  0  0  0  1  0  0  0  0  0  0
  189.3340  178.0390  141.1600 C   0  0  0  0  0  0  0  0  0  0  0  0
  190.4280  177.2850  138.7320 N   0  0  0  0  0  0  0  0  0  0  0  0
  190.6670  177.6150  141.0840 C   0  0  0  0  0  3  0  0  0  0  0  0
  188.5560  178.0790  139.9930 C   0  0  0  0  0  0  0  0  0  0  0  0
  187.2300  178.4990  140.0450 O   0  0  0  0  0  1  0  0  0  0  0  0
  191.2010  177.2420  139.8500 C   0  0  0  0  0  0  0  0  0  0  0  0
  192.7780  176.4130  137.9530 C   0  0  0  0  0  1  0  0  0  0  0  0
  192.8980  176.6970  139.7420 S   0  0  0  0  0  0  0  0  0  0  0  0
  1  4  1  0  0  0  0
  2  4  1  6  0  0  0
  2  5  1  0  0  0  0
  3  1  2  0  0  0  0
  3 20  1  0  0  0  0
  4 11  2  0  0  0  0
  5 12  1  1  0  0  0
  5 10  1  0  0  0  0
  6 21  1  0  0  0  0
  7 15  1  6  0  0  0
  7 18  1  0  0  0  0
  7  2  1  0  0  0  0
  9  8  1  1  0  0  0
  9 12  1  0  0  0  0
 10 19  1  0  0  0  0
 10 16  1  6  0  0  0
 11 13  1  0  0  0  0
 13 19  1  0  0  0  0
 14 11  1  0  0  0  0
 17 25  1  6  0  0  0
 17 15  1  0  0  0  0
 17  1  1  0  0  0  0
 18 22  1  6  0  0  0
 18  9  1  0  0  0  0
 20 14  2  0  0  0  0
 21  8  1  0  0  0  0
 22  6  1  0  0  0  0
 23 28  1  0  0  0  0
 24 23  1  0  0  0  0
 26 23  2  0  0  0  0
 26 30  1  0  0  0  0
 27 25  1  0  0  0  0
 28 29  1  0  0  0  0
 28 25  2  0  0  0  0
 30 27  2  0  0  0  0
 31 32  1  0  0  0  0
 32 30  1  0  0  0  0
M  END
>  <MODEL>
2

>  <REMARK>
 VINA RESULT:     -10.0      3.093      5.932
  Name = 
  2 active torsions:
  status: ('A' for Active; 'I' for Inactive)
    1  A    between atoms: S_15  and  C_26
    2  A    between atoms: C_16  and  C_27
                            x       y       z     vdW  Elec       q    Type
                         _______ _______ _______ _____ _____    ______ ____

>  <TORSDO>
F 2

$$$$
=
 OpenBabel11052414383D

 32 37  0  0  1  0  0  0  0  0999 V2000
  188.5560  178.0960  140.9070 C   0  0  0  0  0  0  0  0  0  0  0  0
  188.5920  177.4870  143.3970 C   0  0  1  0  0  3  0  0  0  0  0  0
  189.2200  178.2710  139.6850 C   0  0  0  0  0  3  0  0  0  0  0  0
  189.2500  177.5280  142.0130 C   0  0  0  0  0  0  0  0  0  0  0  0
  189.4340  178.1180  144.5340 C   0  0  2  0  0  3  0  0  0  0  0  0
  184.5970  178.8750  146.1830 C   0  0  0  0  0  2  0  0  0  0  0  0
  187.2290  178.2000  143.4350 C   0  0  1  0  0  3  0  0  0  0  0  0
  186.7030  178.0170  147.2750 C   0  0  0  0  0  2  0  0  0  0  0  0
  187.3450  178.3800  145.9300 C   0  0  1  0  0  3  0  0  0  0  0  0
  190.8830  177.6570  144.6270 C   0  0  2  0  0  3  0  0  0  0  0  0
  190.5190  176.9290  141.7710 C   0  0  0  0  0  0  0  0  0  0  0  0
  188.7640  177.8190  145.8770 C   0  0  0  0  0  2  0  0  0  0  0  0
  191.2380  175.9940  142.7120 C   0  0  0  0  0  2  0  0  0  0  0  0
  191.1340  177.0880  140.5270 C   0  0  0  0  0  3  0  0  0  0  0  0
  186.4140  177.8820  142.2020 C   0  0  0  0  0  2  0  0  0  0  0  0
  191.7350  178.5120  143.9240 O   0  0  0  0  0  1  0  0  0  0  0  0
  187.1100  178.5420  141.0200 C   0  0  2  0  0  3  0  0  0  0  0  0
  186.4950  177.8920  144.7440 C   0  0  1  0  0  3  0  0  0  0  0  0
  191.0500  176.2010  144.2130 C   0  0  0  0  0  2  0  0  0  0  0  0
  190.5080  177.7840  139.5000 C   0  0  0  0  0  3  0  0  0  0  0  0
  185.1740  177.9080  147.2120 C   0  0  0  0  0  2  0  0  0  0  0  0
  185.1070  178.5590  144.7710 C   0  0  0  0  0  2  0  0  0  0  0  0
  184.2740  178.5570  138.4850 C   0  0  0  0  0  0  0  0  0  0  0  0
  182.8740  179.0450  138.3440 C   0  0  0  0  0  1  0  0  0  0  0  0
  186.3120  178.3060  139.7660 C   0  0  0  0  0  0  0  0  0  0  0  0
  184.8510  177.8870  137.4530 N   0  0  0  0  0  0  0  0  0  0  0  0
  186.8780  177.6180  138.6840 C   0  0  0  0  0  3  0  0  0  0  0  0
  184.9960  178.7810  139.6670 C   0  0  0  0  0  0  0  0  0  0  0  0
  184.4150  179.4680  140.7290 O   0  0  0  0  0  1  0  0  0  0  0  0
  186.1260  177.4200  137.5250 C   0  0  0  0  0  0  0  0  0  0  0  0
  188.0110  175.6540  137.2020 C   0  0  0  0  0  1  0  0  0  0  0  0
  186.8360  176.5430  136.1410 S   0  0  0  0  0  0  0  0  0  0  0  0
  1 17  1  0  0  0  0
  1  4  1  0  0  0  0
  2  4  1  6  0  0  0
  2  7  1  0  0  0  0
  2  5  1  0  0  0  0
  3  1  2  0  0  0  0
  5 10  1  0  0  0  0
  5 12  1  1  0  0  0
  6 21  1  0  0  0  0
  7 15  1  6  0  0  0
  7 18  1  0  0  0  0
  9 12  1  1  0  0  0
  9  8  1  0  0  0  0
 10 16  1  6  0  0  0
 11  4  2  0  0  0  0
 11 13  1  0  0  0  0
 13 19  1  0  0  0  0
 14 11  1  0  0  0  0
 17 25  1  6  0  0  0
 17 15  1  0  0  0  0
 18 22  1  6  0  0  0
 18  9  1  0  0  0  0
 19 10  1  0  0  0  0
 20  3  1  0  0  0  0
 20 14  2  0  0  0  0
 21  8  1  0  0  0  0
 22  6  1  0  0  0  0
 23 28  1  0  0  0  0
 24 23  1  0  0  0  0
 26 30  1  0  0  0  0
 26 23  2  0  0  0  0
 27 25  1  0  0  0  0
 28 25  2  0  0  0  0
 28 29  1  0  0  0  0
 30 27  2  0  0  0  0
 32 31  1  0  0  0  0
 32 30  1  0  0  0  0
M  END
>  <MODEL>
3

>  <REMARK>
 VINA RESULT:      -9.6      2.119      2.903
  Name = 
  2 active torsions:
  status: ('A' for Active; 'I' for Inactive)
    1  A    between atoms: S_15  and  C_26
    2  A    between atoms: C_16  and  C_27
                            x       y       z     vdW  Elec       q    Type
                         _______ _______ _______ _____ _____    ______ ____

>  <TORSDO>
F 2

$$$$
=
 OpenBabel11052414383D

 32 37  0  0  1  0  0  0  0  0999 V2000
  187.4000  178.4930  142.3700 C   0  0  0  0  0  0  0  0  0  0  0  0
  185.1530  178.2260  143.5750 C   0  0  1  0  0  3  0  0  0  0  0  0
  188.7970  178.6000  142.4060 C   0  0  0  0  0  3  0  0  0  0  0  0
  186.6850  178.1800  143.5620 C   0  0  0  0  0  0  0  0  0  0  0  0
  184.5410  179.1150  144.6860 C   0  0  2  0  0  3  0  0  0  0  0  0
  180.9690  179.3760  140.9630 C   0  0  0  0  0  2  0  0  0  0  0  0
  184.5560  178.7340  142.2510 C   0  0  1  0  0  3  0  0  0  0  0  0
  180.8740  178.9800  143.4520 C   0  0  0  0  0  2  0  0  0  0  0  0
  182.3820  179.2530  143.3810 C   0  0  1  0  0  3  0  0  0  0  0  0
  185.0720  178.8840  146.0950 C   0  0  2  0  0  3  0  0  0  0  0  0
  187.4290  177.7440  144.6950 C   0  0  0  0  0  0  0  0  0  0  0  0
  183.0260  178.9010  144.7200 C   0  0  0  0  0  2  0  0  0  0  0  0
  186.8530  177.0530  145.9060 C   0  0  0  0  0  2  0  0  0  0  0  0
  188.8240  177.8260  144.6800 C   0  0  0  0  0  3  0  0  0  0  0  0
  185.2830  178.1430  141.0640 C   0  0  0  0  0  2  0  0  0  0  0  0
  186.1240  179.7530  146.3910 O   0  0  0  0  0  1  0  0  0  0  0  0
  186.6840  178.7360  141.0540 C   0  0  2  0  0  3  0  0  0  0  0  0
  183.0430  178.4970  142.2150 C   0  0  1  0  0  3  0  0  0  0  0  0
  185.4380  177.4250  146.3390 C   0  0  0  0  0  2  0  0  0  0  0  0
  189.5050  178.2840  143.5590 C   0  0  0  0  0  3  0  0  0  0  0  0
  180.2500  178.6450  142.0920 C   0  0  0  0  0  2  0  0  0  0  0  0
  182.4420  178.9540  140.8730 C   0  0  0  0  0  2  0  0  0  0  0  0
  187.6410  177.9050  137.4680 C   0  0  0  0  0  0  0  0  0  0  0  0
  187.1110  178.0510  136.0840 C   0  0  0  0  0  1  0  0  0  0  0  0
  187.4430  178.2260  139.8590 C   0  0  0  0  0  0  0  0  0  0  0  0
  188.8450  177.3030  137.6580 N   0  0  0  0  0  0  0  0  0  0  0  0
  188.6860  177.5990  140.0210 C   0  0  0  0  0  3  0  0  0  0  0  0
  186.9140  178.3810  138.5690 C   0  0  0  0  0  0  0  0  0  0  0  0
  185.6810  179.0020  138.3840 O   0  0  0  0  0  1  0  0  0  0  0  0
  189.3790  177.1440  138.8990 C   0  0  0  0  0  0  0  0  0  0  0  0
  191.4830  177.5030  140.3890 C   0  0  0  0  0  1  0  0  0  0  0  0
  190.9620  176.3420  139.0940 S   0  0  0  0  0  0  0  0  0  0  0  0
  1  3  2  0  0  0  0
  1  4  1  0  0  0  0
  2  4  1  6  0  0  0
  2  5  1  0  0  0  0
  3 20  1  0  0  0  0
  4 11  2  0  0  0  0
  5 12  1  1  0  0  0
  5 10  1  0  0  0  0
  6 21  1  0  0  0  0
  7 15  1  6  0  0  0
  7  2  1  0  0  0  0
  9  8  1  1  0  0  0
  9 12  1  0  0  0  0
 10 19  1  0  0  0  0
 10 16  1  6  0  0  0
 11 13  1  0  0  0  0
 13 19  1  0  0  0  0
 14 11  1  0  0  0  0
 17 25  1  6  0  0  0
 17 15  1  0  0  0  0
 17  1  1  0  0  0  0
 18 22  1  6  0  0  0
 18  7  1  0  0  0  0
 18  9  1  0  0  0  0
 20 14  2  0  0  0  0
 21  8  1  0  0  0  0
 22  6  1  0  0  0  0
 23 26  2  0  0  0  0
 23 28  1  0  0  0  0
 24 23  1  0  0  0  0
 25 27  1  0  0  0  0
 26 30  1  0  0  0  0
 28 25  2  0  0  0  0
 29 28  1  0  0  0  0
 30 32  1  0  0  0  0
 30 27  2  0  0  0  0
 32 31  1  0  0  0  0
M  END
>  <MODEL>
4

>  <REMARK>
 VINA RESULT:      -9.2      2.843      6.310
  Name = 
  2 active torsions:
  status: ('A' for Active; 'I' for Inactive)
    1  A    between atoms: S_15  and  C_26
    2  A    between atoms: C_16  and  C_27
                            x       y       z     vdW  Elec       q    Type
                         _______ _______ _______ _____ _____    ______ ____

>  <TORSDO>
F 2

$$$$
=
 OpenBabel11052414383D

 32 37  0  0  1  0  0  0  0  0999 V2000
  184.3380  179.0460  142.3660 C   0  0  0  0  0  0  0  0  0  0  0  0
  182.1520  178.4130  141.1860 C   0  0  1  0  0  3  0  0  0  0  0  0
  185.0200  179.5320  143.4910 C   0  0  0  0  0  3  0  0  0  0  0  0
  182.9410  178.7810  142.4470 C   0  0  0  0  0  0  0  0  0  0  0  0
  180.9080  179.2950  140.9190 C   0  0  2  0  0  3  0  0  0  0  0  0
  182.3050  177.8780  136.1520 C   0  0  0  0  0  2  0  0  0  0  0  0
  183.0020  178.4820  139.9040 C   0  0  1  0  0  3  0  0  0  0  0  0
  180.1040  177.9450  137.3810 C   0  0  0  0  0  2  0  0  0  0  0  0
  180.9380  178.5980  138.4910 C   0  0  1  0  0  3  0  0  0  0  0  0
  179.9580  179.4850  142.0950 C   0  0  2  0  0  3  0  0  0  0  0  0
  182.3320  178.7830  143.7350 C   0  0  0  0  0  0  0  0  0  0  0  0
  180.1030  178.6900  139.7660 C   0  0  0  0  0  2  0  0  0  0  0  0
  180.9790  178.2030  144.0630 C   0  0  0  0  0  2  0  0  0  0  0  0
  183.0560  179.2350  144.8420 C   0  0  0  0  0  3  0  0  0  0  0  0
  184.3780  177.8980  140.1320 C   0  0  0  0  0  2  0  0  0  0  0  0
  180.2600  180.6460  142.8110 O   0  0  0  0  0  1  0  0  0  0  0  0
  185.1130  178.8360  141.0790 C   0  0  2  0  0  3  0  0  0  0  0  0
  182.2580  177.8430  138.7280 C   0  0  1  0  0  3  0  0  0  0  0  0
  179.8970  178.2530  142.9880 C   0  0  0  0  0  2  0  0  0  0  0  0
  184.3790  179.6410  144.7180 C   0  0  0  0  0  3  0  0  0  0  0  0
  180.9490  177.2050  136.3370 C   0  0  0  0  0  2  0  0  0  0  0  0
  183.1200  177.8610  137.4520 C   0  0  0  0  0  2  0  0  0  0  0  0
  188.7180  177.7900  140.4590 C   0  0  0  0  0  0  0  0  0  0  0  0
  189.6990  177.6880  139.3430 C   0  0  0  0  0  1  0  0  0  0  0  0
  186.5150  178.3340  141.3020 C   0  0  0  0  0  0  0  0  0  0  0  0
  189.0980  177.4280  141.7130 N   0  0  0  0  0  0  0  0  0  0  0  0
  186.9380  177.9530  142.5820 C   0  0  0  0  0  3  0  0  0  0  0  0
  187.4140  178.2530  140.2280 C   0  0  0  0  0  0  0  0  0  0  0  0
  187.0160  178.6280  138.9470 O   0  0  0  0  0  1  0  0  0  0  0  0
  188.2450  177.5020  142.7700 C   0  0  0  0  0  0  0  0  0  0  0  0
  190.1210  178.2500  144.4120 C   0  0  0  0  0  1  0  0  0  0  0  0
  188.7940  177.0110  144.3970 S   0  0  0  0  0  0  0  0  0  0  0  0
  1  4  2  0  0  0  0
  1  3  1  0  0  0  0
  2  4  1  1  0  0  0
  3 20  2  0  0  0  0
  4 11  1  0  0  0  0
  5 12  1  6  0  0  0
  5  2  1  0  0  0  0
  5 10  1  0  0  0  0
  6 21  1  0  0  0  0
  6 22  1  0  0  0  0
  7 15  1  1  0  0  0
  7  2  1  0  0  0  0
  9  8  1  6  0  0  0
  9 18  1  0  0  0  0
  9 12  1  0  0  0  0
 10 16  1  1  0  0  0
 10 19  1  0  0  0  0
 11 13  1  0  0  0  0
 11 14  2  0  0  0  0
 15 17  1  0  0  0  0
 17 25  1  1  0  0  0
 17  1  1  0  0  0  0
 18 22  1  6  0  0  0
 18  7  1  0  0  0  0
 19 13  1  0  0  0  0
 20 14  1  0  0  0  0
 21  8  1  0  0  0  0
 23 26  1  0  0  0  0
 24 23  1  0  0  0  0
 25 27  2  0  0  0  0
 26 30  2  0  0  0  0
 27 30  1  0  0  0  0
 28 23  2  0  0  0  0
 28 25  1  0  0  0  0
 29 28  1  0  0  0  0
 30 32  1  0  0  0  0
 32 31  1  0  0  0  0
M  END
>  <MODEL>
5

>  <REMARK>
 VINA RESULT:      -8.7      3.009      8.606
  Name = 
  2 active torsions:
  status: ('A' for Active; 'I' for Inactive)
    1  A    between atoms: S_15  and  C_26
    2  A    between atoms: C_16  and  C_27
                            x       y       z     vdW  Elec       q    Type
                         _______ _______ _______ _____ _____    ______ ____

>  <TORSDO>
F 2

$$$$
=
 OpenBabel11052414383D

 32 37  0  0  1  0  0  0  0  0999 V2000
  184.9290  178.7480  140.3500 C   0  0  0  0  0  0  0  0  0  0  0  0
  187.1560  177.8410  141.2390 C   0  0  1  0  0  3  0  0  0  0  0  0
  184.1440  179.2280  139.2920 C   0  0  0  0  0  3  0  0  0  0  0  0
  186.2210  178.2110  140.0820 C   0  0  0  0  0  0  0  0  0  0  0  0
  188.5600  178.4910  141.1710 C   0  0  2  0  0  3  0  0  0  0  0  0
  187.8510  177.9120  146.2550 C   0  0  0  0  0  2  0  0  0  0  0  0
  186.5830  178.2160  142.6180 C   0  0  1  0  0  3  0  0  0  0  0  0
  189.7650  177.4160  144.6890 C   0  0  0  0  0  2  0  0  0  0  0  0
  188.8630  178.0880  143.6460 C   0  0  1  0  0  3  0  0  0  0  0  0
  189.2930  178.3620  139.8420 C   0  0  2  0  0  3  0  0  0  0  0  0
  186.5720  177.9520  138.7270 C   0  0  0  0  0  0  0  0  0  0  0  0
  189.4490  177.8750  142.2540 C   0  0  0  0  0  2  0  0  0  0  0  0
  187.7210  177.0890  138.2710 C   0  0  0  0  0  2  0  0  0  0  0  0
  185.7430  178.4080  137.6980 C   0  0  0  0  0  3  0  0  0  0  0  0
  185.1100  177.8870  142.7030 C   0  0  0  0  0  2  0  0  0  0  0  0
  189.0650  179.4720  139.0250 O   0  0  0  0  0  1  0  0  0  0  0  0
  184.3820  178.8370  141.7620 C   0  0  2  0  0  3  0  0  0  0  0  0
  187.4130  177.5810  143.7380 C   0  0  1  0  0  3  0  0  0  0  0  0
  188.9770  177.0490  139.1380 C   0  0  0  0  0  2  0  0  0  0  0  0
  184.5540  179.0730  137.9740 C   0  0  0  0  0  3  0  0  0  0  0  0
  189.0150  176.9740  145.9520 C   0  0  0  0  0  2  0  0  0  0  0  0
  186.8180  177.9070  145.1210 C   0  0  0  0  0  2  0  0  0  0  0  0
  180.8010  178.7460  143.0410 C   0  0  0  0  0  0  0  0  0  0  0  0
  180.0080  179.1370  144.2400 C   0  0  0  0  0  1  0  0  0  0  0  0
  182.8990  178.5930  141.8440 C   0  0  0  0  0  0  0  0  0  0  0  0
  180.1690  178.1620  141.9890 N   0  0  0  0  0  0  0  0  0  0  0  0
  182.2180  177.9920  140.7770 C   0  0  0  0  0  3  0  0  0  0  0  0
  182.1840  178.9750  142.9890 C   0  0  0  0  0  0  0  0  0  0  0  0
  182.8400  179.5750  144.0600 O   0  0  0  0  0  1  0  0  0  0  0  0
  180.8410  177.7860  140.8670 C   0  0  0  0  0  0  0  0  0  0  0  0
  181.3120  175.8460  139.1970 C   0  0  0  0  0  1  0  0  0  0  0  0
  179.9630  177.0190  139.5140 S   0  0  0  0  0  0  0  0  0  0  0  0
  1 17  1  0  0  0  0
  2  4  1  6  0  0  0
  2  7  1  0  0  0  0
  3  1  2  0  0  0  0
  4  1  1  0  0  0  0
  5  2  1  0  0  0  0
  5 12  1  1  0  0  0
  7 15  1  6  0  0  0
  7 18  1  0  0  0  0
  8 21  1  0  0  0  0
  9 12  1  6  0  0  0
  9 18  1  0  0  0  0
  9  8  1  0  0  0  0
 10 16  1  6  0  0  0
 10  5  1  0  0  0  0
 11  4  2  0  0  0  0
 13 11  1  0  0  0  0
 13 19  1  0  0  0  0
 14 20  2  0  0  0  0
 14 11  1  0  0  0  0
 17 25  1  6  0  0  0
 17 15  1  0  0  0  0
 18 22  1  1  0  0  0
 19 10  1  0  0  0  0
 20  3  1  0  0  0  0
 21  6  1  0  0  0  0
 22  6  1  0  0  0  0
 23 24  1  0  0  0  0
 25 28  2  0  0  0  0
 26 23  2  0  0  0  0
 27 30  2  0  0  0  0
 27 25  1  0  0  0  0
 28 23  1  0  0  0  0
 28 29  1  0  0  0  0
 30 26  1  0  0  0  0
 31 32  1  0  0  0  0
 32 30  1  0  0  0  0
M  END
>  <MODEL>
6

>  <REMARK>
 VINA RESULT:      -8.6      1.642      2.934
  Name = 
  2 active torsions:
  status: ('A' for Active; 'I' for Inactive)
    1  A    between atoms: S_15  and  C_26
    2  A    between atoms: C_16  and  C_27
                            x       y       z     vdW  Elec       q    Type
                         _______ _______ _______ _____ _____    ______ ____

>  <TORSDO>
F 2

$$$$
=
 OpenBabel11052414383D

 32 37  0  0  1  0  0  0  0  0999 V2000
  189.8500  177.6140  141.0430 C   0  0  0  0  0  0  0  0  0  0  0  0
  189.2640  177.3160  143.5210 C   0  0  1  0  0  3  0  0  0  0  0  0
  190.8010  177.6900  140.0160 C   0  0  0  0  0  3  0  0  0  0  0  0
  190.2570  177.2410  142.3570 C   0  0  0  0  0  0  0  0  0  0  0  0
  189.7510  178.1460  144.7350 C   0  0  2  0  0  3  0  0  0  0  0  0
  184.6230  178.7140  144.9910 C   0  0  0  0  0  2  0  0  0  0  0  0
  187.9070  177.9190  143.1160 C   0  0  1  0  0  3  0  0  0  0  0  0
  186.4070  178.1630  146.6860 C   0  0  0  0  0  2  0  0  0  0  0  0
  187.3610  178.4100  145.5100 C   0  0  1  0  0  3  0  0  0  0  0  0
  191.1440  177.8150  145.2540 C   0  0  2  0  0  3  0  0  0  0  0  0
  191.5700  176.7190  142.5280 C   0  0  0  0  0  0  0  0  0  0  0  0
  188.7680  177.9610  145.8940 C   0  0  0  0  0  2  0  0  0  0  0  0
  192.0610  175.9650  143.7390 C   0  0  0  0  0  2  0  0  0  0  0  0
  192.4810  176.7730  141.4690 C   0  0  0  0  0  3  0  0  0  0  0  0
  187.4560  177.3900  141.7730 C   0  0  0  0  0  2  0  0  0  0  0  0
  192.1110  178.6430  144.6780 O   0  0  0  0  0  1  0  0  0  0  0  0
  188.4050  177.9540  140.7260 C   0  0  2  0  0  3  0  0  0  0  0  0
  186.8720  177.7160  144.2260 C   0  0  1  0  0  3  0  0  0  0  0  0
  191.4800  176.3370  145.1000 C   0  0  0  0  0  2  0  0  0  0  0  0
  192.1130  177.2870  140.2310 C   0  0  0  0  0  3  0  0  0  0  0  0
  184.9540  177.9280  146.2550 C   0  0  0  0  0  2  0  0  0  0  0  0
  185.4960  178.2690  143.8100 C   0  0  0  0  0  2  0  0  0  0  0  0
  186.3910  177.5460  137.5250 C   0  0  0  0  0  0  0  0  0  0  0  0
  185.1190  178.0190  136.9110 C   0  0  0  0  0  1  0  0  0  0  0  0
  187.9740  177.5050  139.3560 C   0  0  0  0  0  0  0  0  0  0  0  0
  187.1870  176.6930  136.8290 N   0  0  0  0  0  0  0  0  0  0  0  0
  188.7720  176.6250  138.6130 C   0  0  0  0  0  3  0  0  0  0  0  0
  186.7700  177.9710  138.8070 C   0  0  0  0  0  0  0  0  0  0  0  0
  185.9620  178.8470  139.5270 O   0  0  0  0  0  1  0  0  0  0  0  0
  188.3610  176.2300  137.3390 C   0  0  0  0  0  0  0  0  0  0  0  0
  190.4040  176.4540  135.7430 C   0  0  0  0  0  1  0  0  0  0  0  0
  189.3690  175.1070  136.3840 S   0  0  0  0  0  0  0  0  0  0  0  0
  1  4  1  0  0  0  0
  2  4  1  6  0  0  0
  2  5  1  0  0  0  0
  3 20  1  0  0  0  0
  3  1  2  0  0  0  0
  4 11  2  0  0  0  0
  5 10  1  0  0  0  0
  5 12  1  1  0  0  0
  6 21  1  0  0  0  0
  7 15  1  6  0  0  0
  7  2  1  0  0  0  0
  7 18  1  0  0  0  0
  9 12  1  1  0  0  0
  9  8  1  0  0  0  0
 10 16  1  6  0  0  0
 11 13  1  0  0  0  0
 13 19  1  0  0  0  0
 14 11  1  0  0  0  0
 17 25  1  6  0  0  0
 17  1  1  0  0  0  0
 17 15  1  0  0  0  0
 18 22  1  6  0  0  0
 18  9  1  0  0  0  0
 19 10  1  0  0  0  0
 20 14  2  0  0  0  0
 21  8  1  0  0  0  0
 22  6  1  0  0  0  0
 23 28  1  0  0  0  0
 24 23  1  0  0  0  0
 26 30  1  0  0  0  0
 26 23  2  0  0  0  0
 27 25  1  0  0  0  0
 28 25  2  0  0  0  0
 28 29  1  0  0  0  0
 30 27  2  0  0  0  0
 31 32  1  0  0  0  0
 32 30  1  0  0  0  0
M  END
>  <MODEL>
7

>  <REMARK>
 VINA RESULT:      -8.5      2.724      4.258
  Name = 
  2 active torsions:
  status: ('A' for Active; 'I' for Inactive)
    1  A    between atoms: S_15  and  C_26
    2  A    between atoms: C_16  and  C_27
                            x       y       z     vdW  Elec       q    Type
                         _______ _______ _______ _____ _____    ______ ____

>  <TORSDO>
F 2

$$$$
=
 OpenBabel11052414383D

 32 37  0  0  1  0  0  0  0  0999 V2000
  187.9090  178.3750  140.9330 C   0  0  0  0  0  0  0  0  0  0  0  0
  188.5110  177.3310  138.6700 C   0  0  1  0  0  3  0  0  0  0  0  0
  187.0340  179.1170  141.7380 C   0  0  0  0  0  3  0  0  0  0  0  0
  187.5080  177.9920  139.6200 C   0  0  0  0  0  0  0  0  0  0  0  0
  188.6550  178.0260  137.2930 C   0  0  2  0  0  3  0  0  0  0  0  0
  193.3290  175.9320  137.9700 C   0  0  0  0  0  2  0  0  0  0  0  0
  189.9330  177.2560  139.2550 C   0  0  1  0  0  3  0  0  0  0  0  0
  191.7060  175.9990  136.0410 C   0  0  0  0  0  2  0  0  0  0  0  0
  190.9010  176.9160  136.9710 C   0  0  1  0  0  3  0  0  0  0  0  0
  187.3550  178.3260  136.5580 C   0  0  2  0  0  3  0  0  0  0  0  0
  186.1400  178.1620  139.2620 C   0  0  0  0  0  0  0  0  0  0  0  0
  189.5140  177.1500  136.3780 C   0  0  0  0  0  2  0  0  0  0  0  0
  185.4600  177.5190  138.0800 C   0  0  0  0  0  2  0  0  0  0  0  0
  185.2850  178.8720  140.1100 C   0  0  0  0  0  3  0  0  0  0  0  0
  189.9010  176.8600  140.7140 C   0  0  0  0  0  2  0  0  0  0  0  0
  186.9030  179.6200  136.8310 O   0  0  0  0  0  1  0  0  0  0  0  0
  189.2780  178.0180  141.4810 C   0  0  2  0  0  3  0  0  0  0  0  0
  190.8220  176.3490  138.3990 C   0  0  1  0  0  3  0  0  0  0  0  0
  186.2890  177.2710  136.8220 C   0  0  0  0  0  2  0  0  0  0  0  0
  185.7340  179.3770  141.3240 C   0  0  0  0  0  3  0  0  0  0  0  0
  192.7720  175.1730  136.7710 C   0  0  0  0  0  2  0  0  0  0  0  0
  192.2330  176.2250  139.0040 C   0  0  0  0  0  2  0  0  0  0  0  0
  190.4320  177.0970  144.9860 C   0  0  0  0  0  0  0  0  0  0  0  0
  191.6800  176.7460  145.7200 C   0  0  0  0  0  1  0  0  0  0  0  0
  189.2680  177.7040  142.9530 C   0  0  0  0  0  0  0  0  0  0  0  0
  189.2540  177.1430  145.6630 N   0  0  0  0  0  0  0  0  0  0  0  0
  188.0710  177.7420  143.6790 C   0  0  0  0  0  3  0  0  0  0  0  0
  190.4630  177.3780  143.6120 C   0  0  0  0  0  0  0  0  0  0  0  0
  191.6650  177.3360  142.9110 O   0  0  0  0  0  1  0  0  0  0  0  0
  188.0840  177.4600  145.0450 C   0  0  0  0  0  0  0  0  0  0  0  0
  187.4310  177.8820  147.5290 C   0  0  0  0  0  1  0  0  0  0  0  0
  186.5630  177.5030  145.9800 S   0  0  0  0  0  0  0  0  0  0  0  0
  1 17  1  0  0  0  0
  1  3  1  0  0  0  0
  2  7  1  0  0  0  0
  2  4  1  1  0  0  0
  4  1  2  0  0  0  0
  5 12  1  6  0  0  0
  5  2  1  0  0  0  0
  6 22  1  0  0  0  0
  7 15  1  1  0  0  0
  8 21  1  0  0  0  0
  9  8  1  6  0  0  0
  9 18  1  0  0  0  0
 10 19  1  0  0  0  0
 10 16  1  1  0  0  0
 10  5  1  0  0  0  0
 11  4  1  0  0  0  0
 11 14  2  0  0  0  0
 12  9  1  0  0  0  0
 13 11  1  0  0  0  0
 14 20  1  0  0  0  0
 15 17  1  0  0  0  0
 17 25  1  1  0  0  0
 18 22  1  1  0  0  0
 18  7  1  0  0  0  0
 19 13  1  0  0  0  0
 20  3  2  0  0  0  0
 21  6  1  0  0  0  0
 23 26  1  0  0  0  0
 23 24  1  0  0  0  0
 25 28  1  0  0  0  0
 25 27  2  0  0  0  0
 27 30  1  0  0  0  0
 28 23  2  0  0  0  0
 29 28  1  0  0  0  0
 30 26  2  0  0  0  0
 30 32  1  0  0  0  0
 32 31  1  0  0  0  0
M  END
>  <MODEL>
8

>  <REMARK>
 VINA RESULT:      -8.3      3.361      7.747
  Name = 
  2 active torsions:
  status: ('A' for Active; 'I' for Inactive)
    1  A    between atoms: S_15  and  C_26
    2  A    between atoms: C_16  and  C_27
                            x       y       z     vdW  Elec       q    Type
                         _______ _______ _______ _____ _____    ______ ____

>  <TORSDO>
F 2

$$$$
=
 OpenBabel11052414383D

 32 37  0  0  1  0  0  0  0  0999 V2000
  188.3910  177.3410  141.3810 C   0  0  0  0  0  0  0  0  0  0  0  0
  186.7570  178.4260  139.7310 C   0  0  1  0  0  3  0  0  0  0  0  0
  189.6290  176.7440  141.6550 C   0  0  0  0  0  3  0  0  0  0  0  0
  188.1560  177.9230  140.1020 C   0  0  0  0  0  0  0  0  0  0  0  0
  186.1880  177.8470  138.4120 C   0  0  2  0  0  3  0  0  0  0  0  0
  181.9080  178.7660  141.1540 C   0  0  0  0  0  2  0  0  0  0  0  0
  185.7030  178.1260  140.8130 C   0  0  1  0  0  3  0  0  0  0  0  0
  182.5960  179.2430  138.7750 C   0  0  0  0  0  2  0  0  0  0  0  0
  183.8510  178.4490  139.1590 C   0  0  1  0  0  3  0  0  0  0  0  0
  187.1090  177.9150  137.2010 C   0  0  2  0  0  3  0  0  0  0  0  0
  189.2680  178.0980  139.2310 C   0  0  0  0  0  0  0  0  0  0  0  0
  184.8970  178.5880  138.0560 C   0  0  0  0  0  2  0  0  0  0  0  0
  189.2910  178.9840  138.0100 C   0  0  0  0  0  2  0  0  0  0  0  0
  190.5000  177.5240  139.5570 C   0  0  0  0  0  3  0  0  0  0  0  0
  186.2560  178.3840  142.1970 C   0  0  0  0  0  2  0  0  0  0  0  0
  187.8450  176.7370  137.0540 O   0  0  0  0  0  1  0  0  0  0  0  0
  187.3220  177.3300  142.4580 C   0  0  2  0  0  3  0  0  0  0  0  0
  184.4040  178.8850  140.5270 C   0  0  1  0  0  3  0  0  0  0  0  0
  187.9960  179.1540  137.2220 C   0  0  0  0  0  2  0  0  0  0  0  0
  190.6740  176.8210  140.7430 C   0  0  0  0  0  3  0  0  0  0  0  0
  181.7940  179.7380  139.9850 C   0  0  0  0  0  2  0  0  0  0  0  0
  183.3600  178.6330  141.6310 C   0  0  0  0  0  2  0  0  0  0  0  0
  187.5550  177.9900  146.1970 C   0  0  0  0  0  0  0  0  0  0  0  0
  186.6800  178.3540  147.3470 C   0  0  0  0  0  1  0  0  0  0  0  0
  187.8740  177.5010  143.8480 C   0  0  0  0  0  0  0  0  0  0  0  0
  188.8840  177.8000  146.4080 N   0  0  0  0  0  0  0  0  0  0  0  0
  189.2400  177.3140  144.0980 C   0  0  0  0  0  3  0  0  0  0  0  0
  187.0210  177.8430  144.9080 C   0  0  0  0  0  0  0  0  0  0  0  0
  185.6600  178.0330  144.6830 O   0  0  0  0  0  1  0  0  0  0  0  0
  189.7300  177.4650  145.3960 C   0  0  0  0  0  0  0  0  0  0  0  0
  191.1470  176.5440  147.3750 C   0  0  0  0  0  1  0  0  0  0  0  0
  191.4690  177.2300  145.7260 S   0  0  0  0  0  0  0  0  0  0  0  0
  1  3  1  0  0  0  0
  1 17  1  0  0  0  0
  2  4  1  1  0  0  0
  2  7  1  0  0  0  0
  4  1  2  0  0  0  0
  5 12  1  6  0  0  0
  5  2  1  0  0  0  0
  6 22  1  0  0  0  0
  7 15  1  1  0  0  0
  8  9  1  0  0  0  0
  8 21  1  0  0  0  0
  9 12  1  6  0  0  0
  9 18  1  0  0  0  0
 10 16  1  1  0  0  0
 10 19  1  0  0  0  0
 10  5  1  0  0  0  0
 11 14  2  0  0  0  0
 11  4  1  0  0  0  0
 13 11  1  0  0  0  0
 14 20  1  0  0  0  0
 15 17  1  0  0  0  0
 17 25  1  1  0  0  0
 18  7  1  0  0  0  0
 18 22  1  1  0  0  0
 19 13  1  0  0  0  0
 20  3  2  0  0  0  0
 21  6  1  0  0  0  0
 23 26  1  0  0  0  0
 23 24  1  0  0  0  0
 25 27  2  0  0  0  0
 25 28  1  0  0  0  0
 27 30  1  0  0  0  0
 28 23  2  0  0  0  0
 29 28  1  0  0  0  0
 30 32  1  0  0  0  0
 30 26  2  0  0  0  0
 32 31  1  0  0  0  0
M  END
>  <MODEL>
9

>  <REMARK>
 VINA RESULT:      -8.1      3.093      6.760
  Name = 
  2 active torsions:
  status: ('A' for Active; 'I' for Inactive)
    1  A    between atoms: S_15  and  C_26
    2  A    between atoms: C_16  and  C_27
                            x       y       z     vdW  Elec       q    Type
                         _______ _______ _______ _____ _____    ______ ____

>  <TORSDO>
F 2

$$$$
