=
 OpenBabel11052412443D

 25 29  0  0  1  0  0  0  0  0999 V2000
  185.9780  178.4060  143.1240 C   0  0  0  0  0  0  0  0  0  0  0  0
  187.0130  178.2810  142.1680 C   0  0  0  0  0  0  0  0  0  0  0  0
  184.3720  178.7540  141.3360 C   0  0  0  0  0  3  0  0  0  0  0  0
  185.3920  178.6400  140.3920 C   0  0  0  0  0  3  0  0  0  0  0  0
  184.6650  178.6360  142.6950 C   0  0  0  0  0  3  0  0  0  0  0  0
  186.7080  178.4020  140.7970 C   0  0  0  0  0  0  0  0  0  0  0  0
  186.2350  178.2860  144.5730 C   0  0  0  0  0  0  0  0  0  0  0  0
  186.8100  178.0450  147.3090 C   0  0  0  0  0  3  0  0  0  0  0  0
  185.2510  178.5980  145.5360 C   0  0  0  0  0  0  0  0  0  0  0  0
  185.5470  178.4750  146.8960 C   0  0  0  0  0  3  0  0  0  0  0  0
  187.7830  177.7250  146.3610 C   0  0  0  0  0  3  0  0  0  0  0  0
  183.8760  179.0280  145.1430 C   0  0  0  0  0  1  0  0  0  0  0  0
  187.4950  177.8430  144.9990 C   0  0  0  0  0  3  0  0  0  0  0  0
  187.7240  178.2770  139.8040 N   0  0  0  0  0  0  0  0  0  0  0  0
  188.3630  177.5760  138.6520 C   0  0  0  0  0  2  0  0  0  0  0  0
  188.9630  178.7310  139.1060 C   0  0  0  0  0  2  0  0  0  0  0  0
  188.4130  177.9550  142.5930 C   0  0  0  0  0  2  0  0  0  0  0  0
  190.0810  176.3130  141.7020 C   0  0  2  0  0  3  0  0  0  0  0  0
  189.8880  176.0100  143.1440 C   0  0  1  0  0  3  0  0  0  0  0  0
  191.1840  176.5080  142.6570 N   0  0  0  0  0  0  0  0  0  0  0  0
  188.7130  176.4890  142.3210 C   0  0  1  0  0  3  0  0  0  0  0  0
  191.6880  179.7990  144.5220 C   0  0  0  0  0  1  0  0  0  0  0  0
  191.5670  178.3400  144.2640 C   0  0  0  0  0  0  0  0  0  0  0  0
  191.7380  177.5030  145.2340 N   0  0  0  0  0  2  0  0  0  0  0  0
  191.2650  177.8780  142.9480 N   0  0  0  0  0  2  0  0  0  0  0  0
  1  7  1  0  0  0  0
  2 17  1  0  0  0  0
  2  1  2  0  0  0  0
  3  5  2  0  0  0  0
  4  6  2  0  0  0  0
  4  3  1  0  0  0  0
  5  1  1  0  0  0  0
  6  2  1  0  0  0  0
  7 13  2  0  0  0  0
  7  9  1  0  0  0  0
  9 10  2  0  0  0  0
 10  8  1  0  0  0  0
 11  8  2  0  0  0  0
 12  9  1  0  0  0  0
 13 11  1  0  0  0  0
 14  6  1  0  0  0  0
 15 16  1  0  0  0  0
 15 14  1  0  0  0  0
 16 14  1  0  0  0  0
 18 21  1  0  0  0  0
 18 20  1  1  0  0  0
 18 19  1  0  0  0  0
 19 20  1  1  0  0  0
 20 25  1  0  0  0  0
 21 17  1  1  0  0  0
 21 19  1  0  0  0  0
 23 22  1  0  0  0  0
 23 24  2  0  0  0  0
 25 23  1  0  0  0  0
M  END
>  <MODEL>
1

>  <REMARK>
 VINA RESULT:      -8.6      0.000      0.000
  Name = 
  5 active torsions:
  status: ('A' for Active; 'I' for Inactive)
    1  A    between atoms: C_1  and  C_5
    2  A    between atoms: C_3  and  C_16
    3  A    between atoms: N_13  and  C_24
    4  A    between atoms: N_15  and  N_25
    5  A    between atoms: C_16  and  C_23
                            x       y       z     vdW  Elec       q    Type
                         _______ _______ _______ _____ _____    ______ ____

>  <TORSDO>
F 5

$$$$
=
 OpenBabel11052412443D

 25 29  0  0  1  0  0  0  0  0999 V2000
  185.5210  178.2900  144.8200 C   0  0  0  0  0  0  0  0  0  0  0  0
  185.4260  178.2370  143.4100 C   0  0  0  0  0  0  0  0  0  0  0  0
  183.1690  178.8750  144.9530 C   0  0  0  0  0  3  0  0  0  0  0  0
  183.0740  178.8330  143.5630 C   0  0  0  0  0  3  0  0  0  0  0  0
  184.3860  178.6030  145.5780 C   0  0  0  0  0  3  0  0  0  0  0  0
  184.1920  178.5130  142.7870 C   0  0  0  0  0  0  0  0  0  0  0  0
  186.7850  178.0080  145.5290 C   0  0  0  0  0  0  0  0  0  0  0  0
  189.2230  177.4460  146.7990 C   0  0  0  0  0  3  0  0  0  0  0  0
  186.9940  178.3950  146.8700 C   0  0  0  0  0  0  0  0  0  0  0  0
  188.2110  178.1110  147.4940 C   0  0  0  0  0  3  0  0  0  0  0  0
  189.0190  177.0510  145.4750 C   0  0  0  0  0  3  0  0  0  0  0  0
  185.9290  179.0760  147.6650 C   0  0  0  0  0  1  0  0  0  0  0  0
  187.8030  177.3290  144.8450 C   0  0  0  0  0  3  0  0  0  0  0  0
  184.0570  178.4650  141.3680 N   0  0  0  0  0  0  0  0  0  0  0  0
  184.0510  179.1080  140.0220 C   0  0  0  0  0  2  0  0  0  0  0  0
  183.8170  177.7500  140.0800 C   0  0  0  0  0  2  0  0  0  0  0  0
  186.6040  177.8250  142.5780 C   0  0  0  0  0  2  0  0  0  0  0  0
  188.3960  179.0960  141.3760 C   0  0  2  0  0  3  0  0  0  0  0  0
  187.6540  178.3090  140.3580 C   0  0  1  0  0  3  0  0  0  0  0  0
  189.0620  178.0010  140.6530 N   0  0  0  0  0  0  0  0  0  0  0  0
  186.9070  178.8910  141.5370 C   0  0  1  0  0  3  0  0  0  0  0  0
  190.2960  175.3100  143.0610 C   0  0  0  0  0  1  0  0  0  0  0  0
  190.3090  176.4710  142.1340 C   0  0  0  0  0  0  0  0  0  0  0  0
  191.4170  177.0960  141.9070 N   0  0  0  0  0  2  0  0  0  0  0  0
  189.0980  176.8840  141.5020 N   0  0  0  0  0  2  0  0  0  0  0  0
  1  7  1  0  0  0  0
  1  5  1  0  0  0  0
  2  1  2  0  0  0  0
  3  5  2  0  0  0  0
  4  3  1  0  0  0  0
  6  2  1  0  0  0  0
  6  4  2  0  0  0  0
  7  9  1  0  0  0  0
  8 10  1  0  0  0  0
  9 10  2  0  0  0  0
  9 12  1  0  0  0  0
 11  8  2  0  0  0  0
 13 11  1  0  0  0  0
 13  7  2  0  0  0  0
 14  6  1  0  0  0  0
 15 16  1  0  0  0  0
 15 14  1  0  0  0  0
 16 14  1  0  0  0  0
 17  2  1  0  0  0  0
 18 20  1  1  0  0  0
 18 21  1  0  0  0  0
 19 20  1  1  0  0  0
 19 18  1  0  0  0  0
 19 21  1  0  0  0  0
 20 25  1  0  0  0  0
 21 17  1  1  0  0  0
 23 22  1  0  0  0  0
 24 23  2  0  0  0  0
 25 23  1  0  0  0  0
M  END
>  <MODEL>
2

>  <REMARK>
 VINA RESULT:      -8.5      1.632      3.239
  Name = 
  5 active torsions:
  status: ('A' for Active; 'I' for Inactive)
    1  A    between atoms: C_1  and  C_5
    2  A    between atoms: C_3  and  C_16
    3  A    between atoms: N_13  and  C_24
    4  A    between atoms: N_15  and  N_25
    5  A    between atoms: C_16  and  C_23
                            x       y       z     vdW  Elec       q    Type
                         _______ _______ _______ _____ _____    ______ ____

>  <TORSDO>
F 5

$$$$
=
 OpenBabel11052412443D

 25 29  0  0  1  0  0  0  0  0999 V2000
  185.8970  178.2960  145.4950 C   0  0  0  0  0  0  0  0  0  0  0  0
  186.0980  178.3830  144.0980 C   0  0  0  0  0  0  0  0  0  0  0  0
  183.5150  178.6260  145.1720 C   0  0  0  0  0  3  0  0  0  0  0  0
  183.7100  178.7220  143.7950 C   0  0  0  0  0  3  0  0  0  0  0  0
  184.6030  178.4120  146.0170 C   0  0  0  0  0  3  0  0  0  0  0  0
  184.9920  178.6000  143.2520 C   0  0  0  0  0  0  0  0  0  0  0  0
  187.0170  178.0670  146.4310 C   0  0  0  0  0  0  0  0  0  0  0  0
  189.1780  177.5780  148.1520 C   0  0  0  0  0  3  0  0  0  0  0  0
  187.1900  178.8480  147.5950 C   0  0  0  0  0  0  0  0  0  0  0  0
  188.2700  178.5970  148.4460 C   0  0  0  0  0  3  0  0  0  0  0  0
  189.0070  176.7960  147.0070 C   0  0  0  0  0  3  0  0  0  0  0  0
  186.2250  179.9230  147.9700 C   0  0  0  0  0  1  0  0  0  0  0  0
  187.9280  177.0390  146.1530 C   0  0  0  0  0  3  0  0  0  0  0  0
  185.1540  178.6890  141.8370 N   0  0  0  0  0  0  0  0  0  0  0  0
  184.6360  178.5870  140.4420 C   0  0  0  0  0  2  0  0  0  0  0  0
  185.9550  178.9510  140.6060 C   0  0  0  0  0  2  0  0  0  0  0  0
  187.4600  178.1810  143.5050 C   0  0  0  0  0  2  0  0  0  0  0  0
  188.6270  176.7280  141.8320 C   0  0  2  0  0  3  0  0  0  0  0  0
  188.9310  176.1820  143.1810 C   0  0  1  0  0  3  0  0  0  0  0  0
  190.0010  176.7660  142.3570 N   0  0  0  0  0  0  0  0  0  0  0  0
  187.5700  176.7850  142.9120 C   0  0  1  0  0  3  0  0  0  0  0  0
  191.3980  179.7060  144.3500 C   0  0  0  0  0  1  0  0  0  0  0  0
  191.1260  178.3090  143.9190 C   0  0  0  0  0  0  0  0  0  0  0  0
  191.6850  177.3260  144.5450 N   0  0  0  0  0  2  0  0  0  0  0  0
  190.2500  178.0680  142.8190 N   0  0  0  0  0  2  0  0  0  0  0  0
  1  5  1  0  0  0  0
  1  7  1  0  0  0  0
  2  1  2  0  0  0  0
  3  5  2  0  0  0  0
  4  3  1  0  0  0  0
  6  4  2  0  0  0  0
  6  2  1  0  0  0  0
  7  9  1  0  0  0  0
  8 10  1  0  0  0  0
  9 12  1  0  0  0  0
  9 10  2  0  0  0  0
 11  8  2  0  0  0  0
 13  7  2  0  0  0  0
 13 11  1  0  0  0  0
 14  6  1  0  0  0  0
 15 16  1  0  0  0  0
 15 14  1  0  0  0  0
 16 14  1  0  0  0  0
 17  2  1  0  0  0  0
 18 20  1  1  0  0  0
 18 21  1  0  0  0  0
 18 19  1  0  0  0  0
 19 20  1  1  0  0  0
 20 25  1  0  0  0  0
 21 19  1  0  0  0  0
 21 17  1  1  0  0  0
 23 22  1  0  0  0  0
 23 24  2  0  0  0  0
 25 23  1  0  0  0  0
M  END
>  <MODEL>
3

>  <REMARK>
 VINA RESULT:      -8.5      1.469      2.520
  Name = 
  5 active torsions:
  status: ('A' for Active; 'I' for Inactive)
    1  A    between atoms: C_1  and  C_5
    2  A    between atoms: C_3  and  C_16
    3  A    between atoms: N_13  and  C_24
    4  A    between atoms: N_15  and  N_25
    5  A    between atoms: C_16  and  C_23
                            x       y       z     vdW  Elec       q    Type
                         _______ _______ _______ _____ _____    ______ ____

>  <TORSDO>
F 5

$$$$
=
 OpenBabel11052412443D

 25 29  0  0  1  0  0  0  0  0999 V2000
  185.2760  178.5170  144.0750 C   0  0  0  0  0  0  0  0  0  0  0  0
  186.5110  178.1600  144.6640 C   0  0  0  0  0  0  0  0  0  0  0  0
  184.2810  178.7000  146.2820 C   0  0  0  0  0  3  0  0  0  0  0  0
  185.4950  178.3390  146.8650 C   0  0  0  0  0  3  0  0  0  0  0  0
  184.1730  178.7900  144.8940 C   0  0  0  0  0  3  0  0  0  0  0  0
  186.6100  178.0710  146.0670 C   0  0  0  0  0  0  0  0  0  0  0  0
  185.1110  178.6290  142.6120 C   0  0  0  0  0  0  0  0  0  0  0  0
  184.8860  178.8300  139.8230 C   0  0  0  0  0  3  0  0  0  0  0  0
  183.8390  178.6330  142.0000 C   0  0  0  0  0  0  0  0  0  0  0  0
  183.7370  178.7330  140.6100 C   0  0  0  0  0  3  0  0  0  0  0  0
  186.1460  178.8370  140.4230 C   0  0  0  0  0  3  0  0  0  0  0  0
  182.5820  178.5680  142.8030 C   0  0  0  0  0  1  0  0  0  0  0  0
  186.2570  178.7400  141.8120 C   0  0  0  0  0  3  0  0  0  0  0  0
  187.8410  177.7180  146.6960 N   0  0  0  0  0  0  0  0  0  0  0  0
  188.8200  176.7160  147.2080 C   0  0  0  0  0  2  0  0  0  0  0  0
  189.1410  178.0480  147.3510 C   0  0  0  0  0  2  0  0  0  0  0  0
  187.7290  177.9410  143.8160 C   0  0  0  0  0  2  0  0  0  0  0  0
  188.8300  176.2630  142.3190 C   0  0  2  0  0  3  0  0  0  0  0  0
  189.2650  175.9690  143.7090 C   0  0  1  0  0  3  0  0  0  0  0  0
  190.2380  176.4380  142.7100 N   0  0  0  0  0  0  0  0  0  0  0  0
  187.8600  176.4690  143.4590 C   0  0  1  0  0  3  0  0  0  0  0  0
  191.4870  179.7270  144.1890 C   0  0  0  0  0  1  0  0  0  0  0  0
  191.2400  178.2710  144.0240 C   0  0  0  0  0  0  0  0  0  0  0  0
  191.7350  177.4370  144.8780 N   0  0  0  0  0  2  0  0  0  0  0  0
  190.4580  177.8080  142.9240 N   0  0  0  0  0  2  0  0  0  0  0  0
  1  2  2  0  0  0  0
  1  5  1  0  0  0  0
  2  6  1  0  0  0  0
  3  4  1  0  0  0  0
  5  3  2  0  0  0  0
  6 14  1  0  0  0  0
  6  4  2  0  0  0  0
  7  1  1  0  0  0  0
  8 11  2  0  0  0  0
  8 10  1  0  0  0  0
  9  7  1  0  0  0  0
  9 12  1  0  0  0  0
 10  9  2  0  0  0  0
 11 13  1  0  0  0  0
 13  7  2  0  0  0  0
 14 15  1  0  0  0  0
 14 16  1  0  0  0  0
 15 16  1  0  0  0  0
 17  2  1  0  0  0  0
 18 20  1  1  0  0  0
 18 21  1  0  0  0  0
 18 19  1  0  0  0  0
 19 20  1  1  0  0  0
 20 25  1  0  0  0  0
 21 19  1  0  0  0  0
 21 17  1  1  0  0  0
 23 22  1  0  0  0  0
 23 24  2  0  0  0  0
 25 23  1  0  0  0  0
M  END
>  <MODEL>
4

>  <REMARK>
 VINA RESULT:      -8.3      1.467      4.420
  Name = 
  5 active torsions:
  status: ('A' for Active; 'I' for Inactive)
    1  A    between atoms: C_1  and  C_5
    2  A    between atoms: C_3  and  C_16
    3  A    between atoms: N_13  and  C_24
    4  A    between atoms: N_15  and  N_25
    5  A    between atoms: C_16  and  C_23
                            x       y       z     vdW  Elec       q    Type
                         _______ _______ _______ _____ _____    ______ ____

>  <TORSDO>
F 5

$$$$
=
 OpenBabel11052412443D

 25 29  0  0  1  0  0  0  0  0999 V2000
  188.3520  177.6370  145.1140 C   0  0  0  0  0  0  0  0  0  0  0  0
  187.0990  177.9790  144.5540 C   0  0  0  0  0  0  0  0  0  0  0  0
  187.5110  178.1790  147.3250 C   0  0  0  0  0  3  0  0  0  0  0  0
  186.2770  178.5250  146.7760 C   0  0  0  0  0  3  0  0  0  0  0  0
  188.5420  177.7350  146.4970 C   0  0  0  0  0  3  0  0  0  0  0  0
  186.0630  178.4260  145.3990 C   0  0  0  0  0  0  0  0  0  0  0  0
  189.4740  177.1600  144.2810 C   0  0  0  0  0  0  0  0  0  0  0  0
  191.5580  176.1820  142.6760 C   0  0  0  0  0  3  0  0  0  0  0  0
  190.6000  177.9670  144.0080 C   0  0  0  0  0  0  0  0  0  0  0  0
  191.6330  177.4720  143.2070 C   0  0  0  0  0  3  0  0  0  0  0  0
  190.4530  175.3760  142.9510 C   0  0  0  0  0  3  0  0  0  0  0  0
  190.7410  179.3370  144.5830 C   0  0  0  0  0  1  0  0  0  0  0  0
  189.4170  175.8620  143.7520 C   0  0  0  0  0  3  0  0  0  0  0  0
  184.7840  178.7750  144.8720 N   0  0  0  0  0  0  0  0  0  0  0  0
  183.8850  179.6510  144.0660 C   0  0  0  0  0  2  0  0  0  0  0  0
  183.3180  178.5620  144.6920 C   0  0  0  0  0  2  0  0  0  0  0  0
  186.8420  177.8060  143.0870 C   0  0  0  0  0  2  0  0  0  0  0  0
  187.8860  178.0040  140.8200 C   0  0  2  0  0  3  0  0  0  0  0  0
  187.5430  179.3770  141.2700 C   0  0  1  0  0  3  0  0  0  0  0  0
  186.8520  178.7810  140.1160 N   0  0  0  0  0  0  0  0  0  0  0  0
  188.0100  178.3570  142.2840 C   0  0  1  0  0  3  0  0  0  0  0  0
  183.0810  178.3800  140.5400 C   0  0  0  0  0  1  0  0  0  0  0  0
  184.3890  178.9270  140.0970 C   0  0  0  0  0  0  0  0  0  0  0  0
  184.4200  179.9500  139.3070 N   0  0  0  0  0  2  0  0  0  0  0  0
  185.5990  178.3190  140.5470 N   0  0  0  0  0  2  0  0  0  0  0  0
  1  5  1  0  0  0  0
  2  1  2  0  0  0  0
  2  6  1  0  0  0  0
  4  3  1  0  0  0  0
  5  3  2  0  0  0  0
  6  4  2  0  0  0  0
  7  1  1  0  0  0  0
  8 11  2  0  0  0  0
  8 10  1  0  0  0  0
  9  7  1  0  0  0  0
  9 12  1  0  0  0  0
 10  9  2  0  0  0  0
 11 13  1  0  0  0  0
 13  7  2  0  0  0  0
 14  6  1  0  0  0  0
 15 16  1  0  0  0  0
 15 14  1  0  0  0  0
 16 14  1  0  0  0  0
 17  2  1  0  0  0  0
 18 20  1  1  0  0  0
 18 19  1  0  0  0  0
 18 21  1  0  0  0  0
 19 20  1  1  0  0  0
 19 21  1  0  0  0  0
 20 25  1  0  0  0  0
 21 17  1  1  0  0  0
 23 22  1  0  0  0  0
 23 25  1  0  0  0  0
 24 23  2  0  0  0  0
M  END
>  <MODEL>
5

>  <REMARK>
 VINA RESULT:      -8.2      2.388      5.966
  Name = 
  5 active torsions:
  status: ('A' for Active; 'I' for Inactive)
    1  A    between atoms: C_1  and  C_5
    2  A    between atoms: C_3  and  C_16
    3  A    between atoms: N_13  and  C_24
    4  A    between atoms: N_15  and  N_25
    5  A    between atoms: C_16  and  C_23
                            x       y       z     vdW  Elec       q    Type
                         _______ _______ _______ _____ _____    ______ ____

>  <TORSDO>
F 5

$$$$
=
 OpenBabel11052412443D

 25 29  0  0  1  0  0  0  0  0999 V2000
  186.1590  178.3010  144.1520 C   0  0  0  0  0  0  0  0  0  0  0  0
  187.3080  177.9070  144.8760 C   0  0  0  0  0  0  0  0  0  0  0  0
  184.9340  178.5480  146.2330 C   0  0  0  0  0  3  0  0  0  0  0  0
  186.0620  178.1510  146.9500 C   0  0  0  0  0  3  0  0  0  0  0  0
  184.9840  178.6240  144.8410 C   0  0  0  0  0  3  0  0  0  0  0  0
  187.2480  177.8330  146.2830 C   0  0  0  0  0  0  0  0  0  0  0  0
  186.1610  178.3990  142.6780 C   0  0  0  0  0  0  0  0  0  0  0  0
  186.2510  178.5650  139.8790 C   0  0  0  0  0  3  0  0  0  0  0  0
  184.9690  178.5470  141.9370 C   0  0  0  0  0  0  0  0  0  0  0  0
  185.0240  178.6290  140.5420 C   0  0  0  0  0  3  0  0  0  0  0  0
  187.4340  178.4280  140.6080 C   0  0  0  0  0  3  0  0  0  0  0  0
  183.6380  178.6570  142.6030 C   0  0  0  0  0  1  0  0  0  0  0  0
  187.3880  178.3490  142.0020 C   0  0  0  0  0  3  0  0  0  0  0  0
  188.3880  177.4440  147.0480 N   0  0  0  0  0  0  0  0  0  0  0  0
  189.4110  176.4460  147.4740 C   0  0  0  0  0  2  0  0  0  0  0  0
  189.4790  177.7040  148.0330 C   0  0  0  0  0  2  0  0  0  0  0  0
  188.6030  177.6330  144.1700 C   0  0  0  0  0  2  0  0  0  0  0  0
  191.0850  177.7900  144.4600 C   0  0  2  0  0  3  0  0  0  0  0  0
  190.6240  179.0820  143.8900 C   0  0  1  0  0  3  0  0  0  0  0  0
  191.4880  178.1890  143.1020 N   0  0  0  0  0  0  0  0  0  0  0  0
  189.7440  178.3480  144.8770 C   0  0  1  0  0  3  0  0  0  0  0  0
  190.2650  176.4270  139.9460 C   0  0  0  0  0  1  0  0  0  0  0  0
  191.1310  177.2090  140.8660 C   0  0  0  0  0  0  0  0  0  0  0  0
  192.2840  177.6270  140.4590 N   0  0  0  0  0  2  0  0  0  0  0  0
  190.6820  177.4900  142.1910 N   0  0  0  0  0  2  0  0  0  0  0  0
  1  5  2  0  0  0  0
  1  2  1  0  0  0  0
  2  6  2  0  0  0  0
  3  4  2  0  0  0  0
  5  3  1  0  0  0  0
  6  4  1  0  0  0  0
  6 14  1  0  0  0  0
  7  1  1  0  0  0  0
  8 10  2  0  0  0  0
  8 11  1  0  0  0  0
  9 12  1  0  0  0  0
  9  7  2  0  0  0  0
 10  9  1  0  0  0  0
 11 13  2  0  0  0  0
 13  7  1  0  0  0  0
 14 15  1  0  0  0  0
 14 16  1  0  0  0  0
 15 16  1  0  0  0  0
 17  2  1  0  0  0  0
 18 20  1  6  0  0  0
 18 21  1  0  0  0  0
 19 20  1  6  0  0  0
 19 18  1  0  0  0  0
 19 21  1  0  0  0  0
 21 17  1  6  0  0  0
 22 23  1  0  0  0  0
 23 25  1  0  0  0  0
 24 23  2  0  0  0  0
 25 20  1  0  0  0  0
M  END
>  <MODEL>
6

>  <REMARK>
 VINA RESULT:      -8.0      1.482      4.896
  Name = 
  5 active torsions:
  status: ('A' for Active; 'I' for Inactive)
    1  A    between atoms: C_1  and  C_5
    2  A    between atoms: C_3  and  C_16
    3  A    between atoms: N_13  and  C_24
    4  A    between atoms: N_15  and  N_25
    5  A    between atoms: C_16  and  C_23
                            x       y       z     vdW  Elec       q    Type
                         _______ _______ _______ _____ _____    ______ ____

>  <TORSDO>
F 5

$$$$
=
 OpenBabel11052412443D

 25 29  0  0  1  0  0  0  0  0999 V2000
  187.1450  177.8720  145.5340 C   0  0  0  0  0  0  0  0  0  0  0  0
  188.4760  177.4180  145.6890 C   0  0  0  0  0  0  0  0  0  0  0  0
  186.8250  177.7470  147.9360 C   0  0  0  0  0  3  0  0  0  0  0  0
  188.1330  177.2920  148.0920 C   0  0  0  0  0  3  0  0  0  0  0  0
  186.3350  178.0380  146.6630 C   0  0  0  0  0  3  0  0  0  0  0  0
  188.9630  177.1270  146.9790 C   0  0  0  0  0  0  0  0  0  0  0  0
  186.5810  178.1950  144.2080 C   0  0  0  0  0  0  0  0  0  0  0  0
  185.5770  178.7700  141.6510 C   0  0  0  0  0  3  0  0  0  0  0  0
  185.2760  178.7120  144.0560 C   0  0  0  0  0  0  0  0  0  0  0  0
  184.7840  178.9950  142.7790 C   0  0  0  0  0  3  0  0  0  0  0  0
  186.8720  178.2680  141.7960 C   0  0  0  0  0  3  0  0  0  0  0  0
  184.4050  179.0030  145.2330 C   0  0  0  0  0  1  0  0  0  0  0  0
  187.3710  177.9860  143.0690 C   0  0  0  0  0  3  0  0  0  0  0  0
  190.3000  176.6730  147.1750 N   0  0  0  0  0  0  0  0  0  0  0  0
  191.6810  176.8320  147.7180 C   0  0  0  0  0  2  0  0  0  0  0  0
  191.4060  175.6840  147.0070 C   0  0  0  0  0  2  0  0  0  0  0  0
  189.3910  177.3090  144.5060 C   0  0  0  0  0  2  0  0  0  0  0  0
  191.7810  177.6190  143.8250 C   0  0  2  0  0  3  0  0  0  0  0  0
  191.0880  178.9150  143.6080 C   0  0  1  0  0  3  0  0  0  0  0  0
  191.6050  178.1490  142.4630 N   0  0  0  0  0  0  0  0  0  0  0  0
  190.6910  178.0480  144.7820 C   0  0  1  0  0  3  0  0  0  0  0  0
  189.3980  176.3780  139.9030 C   0  0  0  0  0  1  0  0  0  0  0  0
  190.5340  177.1410  140.4820 C   0  0  0  0  0  0  0  0  0  0  0  0
  191.5150  177.5030  139.7230 N   0  0  0  0  0  2  0  0  0  0  0  0
  190.5310  177.4670  141.8710 N   0  0  0  0  0  2  0  0  0  0  0  0
  1  2  2  0  0  0  0
  1  5  1  0  0  0  0
  2  6  1  0  0  0  0
  3  4  1  0  0  0  0
  5  3  2  0  0  0  0
  6 14  1  0  0  0  0
  6  4  2  0  0  0  0
  7  1  1  0  0  0  0
  8 11  2  0  0  0  0
  8 10  1  0  0  0  0
  9  7  1  0  0  0  0
  9 12  1  0  0  0  0
 10  9  2  0  0  0  0
 11 13  1  0  0  0  0
 13  7  2  0  0  0  0
 14 15  1  0  0  0  0
 16 14  1  0  0  0  0
 16 15  1  0  0  0  0
 17  2  1  0  0  0  0
 18 20  1  6  0  0  0
 18 21  1  0  0  0  0
 19 20  1  6  0  0  0
 19 18  1  0  0  0  0
 19 21  1  0  0  0  0
 21 17  1  6  0  0  0
 22 23  1  0  0  0  0
 23 25  1  0  0  0  0
 24 23  2  0  0  0  0
 25 20  1  0  0  0  0
M  END
>  <MODEL>
7

>  <REMARK>
 VINA RESULT:      -8.0      1.703      5.091
  Name = 
  5 active torsions:
  status: ('A' for Active; 'I' for Inactive)
    1  A    between atoms: C_1  and  C_5
    2  A    between atoms: C_3  and  C_16
    3  A    between atoms: N_13  and  C_24
    4  A    between atoms: N_15  and  N_25
    5  A    between atoms: C_16  and  C_23
                            x       y       z     vdW  Elec       q    Type
                         _______ _______ _______ _____ _____    ______ ____

>  <TORSDO>
F 5

$$$$
=
 OpenBabel11052412443D

 25 29  0  0  1  0  0  0  0  0999 V2000
  189.0330  177.8440  141.8710 C   0  0  0  0  0  0  0  0  0  0  0  0
  189.4890  177.3220  140.6380 C   0  0  0  0  0  0  0  0  0  0  0  0
  191.3190  177.9150  142.6840 C   0  0  0  0  0  3  0  0  0  0  0  0
  191.7710  177.3920  141.4740 C   0  0  0  0  0  3  0  0  0  0  0  0
  189.9570  178.1420  142.8800 C   0  0  0  0  0  3  0  0  0  0  0  0
  190.8670  177.0960  140.4490 C   0  0  0  0  0  0  0  0  0  0  0  0
  187.6020  178.1050  142.1260 C   0  0  0  0  0  0  0  0  0  0  0  0
  184.8780  178.6390  142.5340 C   0  0  0  0  0  3  0  0  0  0  0  0
  186.9180  177.5220  143.2160 C   0  0  0  0  0  0  0  0  0  0  0  0
  185.5610  177.7940  143.4100 C   0  0  0  0  0  3  0  0  0  0  0  0
  185.5510  179.2260  141.4610 C   0  0  0  0  0  3  0  0  0  0  0  0
  187.6150  176.6410  144.1990 C   0  0  0  0  0  1  0  0  0  0  0  0
  186.9080  178.9620  141.2610 C   0  0  0  0  0  3  0  0  0  0  0  0
  191.3650  176.5750  139.2190 N   0  0  0  0  0  0  0  0  0  0  0  0
  192.2420  176.6490  138.0140 C   0  0  0  0  0  2  0  0  0  0  0  0
  191.4240  175.5470  138.1380 C   0  0  0  0  0  2  0  0  0  0  0  0
  188.5320  177.0710  139.5110 C   0  0  0  0  0  2  0  0  0  0  0  0
  188.6810  177.7090  137.0950 C   0  0  2  0  0  3  0  0  0  0  0  0
  187.3780  178.2090  137.6050 C   0  0  1  0  0  3  0  0  0  0  0  0
  187.4200  177.1440  136.5900 N   0  0  0  0  0  0  0  0  0  0  0  0
  188.5860  178.2180  138.5150 C   0  0  1  0  0  3  0  0  0  0  0  0
  186.1720  173.6250  137.3800 C   0  0  0  0  0  1  0  0  0  0  0  0
  186.3330  174.9310  136.6900 C   0  0  0  0  0  0  0  0  0  0  0  0
  185.6760  175.1640  135.6010 N   0  0  0  0  0  2  0  0  0  0  0  0
  187.2100  175.9150  137.2350 N   0  0  0  0  0  2  0  0  0  0  0  0
  1  7  1  0  0  0  0
  1  5  1  0  0  0  0
  2  1  2  0  0  0  0
  3  5  2  0  0  0  0
  4  3  1  0  0  0  0
  6  2  1  0  0  0  0
  6  4  2  0  0  0  0
  7  9  1  0  0  0  0
  8 10  1  0  0  0  0
  9 10  2  0  0  0  0
  9 12  1  0  0  0  0
 11  8  2  0  0  0  0
 13 11  1  0  0  0  0
 13  7  2  0  0  0  0
 14  6  1  0  0  0  0
 15 16  1  0  0  0  0
 15 14  1  0  0  0  0
 16 14  1  0  0  0  0
 17  2  1  0  0  0  0
 18 20  1  1  0  0  0
 18 19  1  0  0  0  0
 18 21  1  0  0  0  0
 19 20  1  1  0  0  0
 19 21  1  0  0  0  0
 20 25  1  0  0  0  0
 21 17  1  1  0  0  0
 23 25  1  0  0  0  0
 23 22  1  0  0  0  0
 24 23  2  0  0  0  0
M  END
>  <MODEL>
8

>  <REMARK>
 VINA RESULT:      -8.0      2.558      5.954
  Name = 
  5 active torsions:
  status: ('A' for Active; 'I' for Inactive)
    1  A    between atoms: C_1  and  C_5
    2  A    between atoms: C_3  and  C_16
    3  A    between atoms: N_13  and  C_24
    4  A    between atoms: N_15  and  N_25
    5  A    between atoms: C_16  and  C_23
                            x       y       z     vdW  Elec       q    Type
                         _______ _______ _______ _____ _____    ______ ____

>  <TORSDO>
F 5

$$$$
=
 OpenBabel11052412443D

 25 29  0  0  1  0  0  0  0  0999 V2000
  187.8260  177.6190  143.3220 C   0  0  0  0  0  0  0  0  0  0  0  0
  187.2100  177.8850  142.0760 C   0  0  0  0  0  0  0  0  0  0  0  0
  185.8730  178.4910  144.4700 C   0  0  0  0  0  3  0  0  0  0  0  0
  185.2670  178.7620  143.2440 C   0  0  0  0  0  3  0  0  0  0  0  0
  187.1450  177.9200  144.5080 C   0  0  0  0  0  3  0  0  0  0  0  0
  185.9250  178.4620  142.0480 C   0  0  0  0  0  0  0  0  0  0  0  0
  189.1700  177.0140  143.4150 C   0  0  0  0  0  0  0  0  0  0  0  0
  191.6900  175.7880  143.5610 C   0  0  0  0  0  3  0  0  0  0  0  0
  190.3190  177.7830  143.7010 C   0  0  0  0  0  0  0  0  0  0  0  0
  191.5700  177.1640  143.7710 C   0  0  0  0  0  3  0  0  0  0  0  0
  190.5560  175.0210  143.2880 C   0  0  0  0  0  3  0  0  0  0  0  0
  190.2350  179.2490  143.9680 C   0  0  0  0  0  1  0  0  0  0  0  0
  189.3010  175.6320  143.2190 C   0  0  0  0  0  3  0  0  0  0  0  0
  185.2700  178.7400  140.8120 N   0  0  0  0  0  0  0  0  0  0  0  0
  184.1650  179.3430  140.0110 C   0  0  0  0  0  2  0  0  0  0  0  0
  185.1490  178.6620  139.3260 C   0  0  0  0  0  2  0  0  0  0  0  0
  187.8820  177.4980  140.7920 C   0  0  0  0  0  2  0  0  0  0  0  0
  190.0730  177.8790  139.6410 C   0  0  2  0  0  3  0  0  0  0  0  0
  189.0550  178.7050  138.9410 C   0  0  1  0  0  3  0  0  0  0  0  0
  189.7000  177.5780  138.2500 N   0  0  0  0  0  0  0  0  0  0  0  0
  188.9560  178.5140  140.4380 C   0  0  1  0  0  3  0  0  0  0  0  0
  187.0330  175.0510  137.2190 C   0  0  0  0  0  1  0  0  0  0  0  0
  187.9230  176.2400  137.1810 C   0  0  0  0  0  0  0  0  0  0  0  0
  187.8830  177.0380  136.1660 N   0  0  0  0  0  2  0  0  0  0  0  0
  188.8140  176.4890  138.2680 N   0  0  0  0  0  2  0  0  0  0  0  0
  1  7  1  0  0  0  0
  1  5  1  0  0  0  0
  2  1  2  0  0  0  0
  3  5  2  0  0  0  0
  4  3  1  0  0  0  0
  6  2  1  0  0  0  0
  6  4  2  0  0  0  0
  7  9  1  0  0  0  0
  8 10  1  0  0  0  0
  9 10  2  0  0  0  0
  9 12  1  0  0  0  0
 11  8  2  0  0  0  0
 13 11  1  0  0  0  0
 13  7  2  0  0  0  0
 14  6  1  0  0  0  0
 15 14  1  0  0  0  0
 16 15  1  0  0  0  0
 16 14  1  0  0  0  0
 17  2  1  0  0  0  0
 18 20  1  6  0  0  0
 18 21  1  0  0  0  0
 19 20  1  6  0  0  0
 19 18  1  0  0  0  0
 19 21  1  0  0  0  0
 20 25  1  0  0  0  0
 21 17  1  6  0  0  0
 23 22  1  0  0  0  0
 23 25  1  0  0  0  0
 24 23  2  0  0  0  0
M  END
>  <MODEL>
9

>  <REMARK>
 VINA RESULT:      -8.0      2.462      5.098
  Name = 
  5 active torsions:
  status: ('A' for Active; 'I' for Inactive)
    1  A    between atoms: C_1  and  C_5
    2  A    between atoms: C_3  and  C_16
    3  A    between atoms: N_13  and  C_24
    4  A    between atoms: N_15  and  N_25
    5  A    between atoms: C_16  and  C_23
                            x       y       z     vdW  Elec       q    Type
                         _______ _______ _______ _____ _____    ______ ____

>  <TORSDO>
F 5

$$$$
