=
 OpenBabel11052412533D

 25 28  0  0  1  0  0  0  0  0999 V2000
  186.2530  178.1060  145.0430 C   0  0  0  0  0  0  0  0  0  0  0  0
  186.1190  177.8340  143.7440 C   0  0  0  0  0  0  0  0  0  0  0  0
  184.1100  179.0450  145.2790 N   0  0  0  0  0  0  0  0  0  0  0  0
  187.2990  177.9240  145.9210 C   0  0  0  0  0  0  0  0  0  0  0  0
  188.9870  177.8770  148.1170 C   0  0  0  0  0  3  0  0  0  0  0  0
  183.7390  178.7180  143.8930 C   0  0  0  0  0  2  0  0  0  0  0  0
  186.8780  178.4470  147.1270 C   0  0  0  0  0  0  0  0  0  0  0  0
  187.7030  178.4380  148.2500 C   0  0  0  0  0  3  0  0  0  0  0  0
  189.4160  177.3480  146.8820 C   0  0  0  0  0  3  0  0  0  0  0  0
  185.2640  178.7220  145.7770 C   0  0  0  0  0  0  0  0  0  0  0  0
  185.6250  178.9490  147.0600 N   0  0  0  0  0  2  0  0  0  0  0  0
  188.5680  177.3690  145.7610 C   0  0  0  0  0  3  0  0  0  0  0  0
  184.8840  178.2280  143.1040 N   0  0  0  0  0  0  0  0  0  0  0  0
  184.6750  178.0270  141.6770 C   0  0  0  0  0  2  0  0  0  0  0  0
  184.7880  179.7300  140.0200 O   0  0  0  0  0  1  0  0  0  0  0  0
  184.0060  179.2450  141.0670 C   0  0  0  0  0  2  0  0  0  0  0  0
  187.2110  177.1520  142.9730 C   0  0  0  0  0  2  0  0  0  0  0  0
  188.9020  177.6230  140.0010 C   0  0  0  0  0  0  0  0  0  0  0  0
  187.9350  178.1180  142.1590 N   0  0  0  0  0  0  0  0  0  0  0  0
  188.7280  176.5150  138.9820 C   0  0  0  0  0  1  0  0  0  0  0  0
  189.2950  178.9160  139.2990 C   0  0  0  0  0  1  0  0  0  0  0  0
  189.3580  177.8440  142.3410 C   0  0  0  0  0  2  0  0  0  0  0  0
  191.1870  177.6280  140.8130 O   0  0  0  0  0  1  0  0  0  0  0  0
  187.6130  177.8410  140.7580 C   0  0  0  0  0  2  0  0  0  0  0  0
  189.8810  177.2040  141.0750 C   0  0  2  0  0  3  0  0  0  0  0  0
  1 10  1  0  0  0  0
  1  4  1  0  0  0  0
  2  1  2  0  0  0  0
  3 10  2  0  0  0  0
  4  7  1  0  0  0  0
  5  8  1  0  0  0  0
  6  3  1  0  0  0  0
  7  8  2  0  0  0  0
  9  5  2  0  0  0  0
 10 11  1  0  0  0  0
 11  7  1  0  0  0  0
 12  4  2  0  0  0  0
 12  9  1  0  0  0  0
 13  2  1  0  0  0  0
 13  6  1  0  0  0  0
 14 13  1  0  0  0  0
 15 16  1  0  0  0  0
 16 14  1  0  0  0  0
 17  2  1  0  0  0  0
 18 24  1  0  0  0  0
 18 25  1  0  0  0  0
 19 22  1  0  0  0  0
 19 17  1  0  0  0  0
 20 18  1  0  0  0  0
 21 18  1  0  0  0  0
 24 19  1  0  0  0  0
 25 23  1  6  0  0  0
 25 22  1  0  0  0  0
M  END
>  <MODEL>
1

>  <REMARK>
 VINA RESULT:      -8.5      0.000      0.000
  Name = 
  4 active torsions:
  status: ('A' for Active; 'I' for Inactive)
    1  A    between atoms: C_3  and  C_16
    2  A    between atoms: N_6  and  C_16
    3  A    between atoms: C_13  and  C_20
    4  A    between atoms: C_13  and  N_24
                            x       y       z     vdW  Elec       q    Type
                         _______ _______ _______ _____ _____    ______ ____

>  <TORSDO>
F 4

$$$$
=
 OpenBabel11052412533D

 25 28  0  0  1  0  0  0  0  0999 V2000
  186.7240  177.8980  144.7830 C   0  0  0  0  0  0  0  0  0  0  0  0
  187.8430  177.2830  144.3950 C   0  0  0  0  0  0  0  0  0  0  0  0
  187.4600  178.2950  146.9820 N   0  0  0  0  0  0  0  0  0  0  0  0
  185.5440  178.1700  144.1250 C   0  0  0  0  0  0  0  0  0  0  0  0
  182.9860  178.9560  143.4100 C   0  0  0  0  0  3  0  0  0  0  0  0
  188.8000  177.7540  146.7030 C   0  0  0  0  0  2  0  0  0  0  0  0
  184.7250  178.7820  145.0520 C   0  0  0  0  0  0  0  0  0  0  0  0
  183.4340  179.1890  144.7230 C   0  0  0  0  0  3  0  0  0  0  0  0
  183.8250  178.3250  142.4660 C   0  0  0  0  0  3  0  0  0  0  0  0
  186.5450  178.3690  146.0640 C   0  0  0  0  0  0  0  0  0  0  0  0
  185.3210  178.9120  146.2580 N   0  0  0  0  0  2  0  0  0  0  0  0
  185.1230  177.9210  142.8200 C   0  0  0  0  0  3  0  0  0  0  0  0
  188.8830  177.1040  145.3840 N   0  0  0  0  0  0  0  0  0  0  0  0
  190.1120  176.3900  145.0650 C   0  0  0  0  0  2  0  0  0  0  0  0
  192.0570  176.6330  146.4120 O   0  0  0  0  0  1  0  0  0  0  0  0
  191.3180  177.2460  145.4010 C   0  0  0  0  0  2  0  0  0  0  0  0
  188.0140  176.7900  142.9880 C   0  0  0  0  0  2  0  0  0  0  0  0
  188.9530  177.6250  139.7730 C   0  0  0  0  0  0  0  0  0  0  0  0
  188.5760  177.8400  142.1500 N   0  0  0  0  0  0  0  0  0  0  0  0
  188.4640  176.6780  138.6960 C   0  0  0  0  0  1  0  0  0  0  0  0
  189.2430  178.9930  139.1680 C   0  0  0  0  0  1  0  0  0  0  0  0
  189.9810  177.5010  141.9320 C   0  0  0  0  0  2  0  0  0  0  0  0
  191.3620  177.4490  139.9780 O   0  0  0  0  0  1  0  0  0  0  0  0
  187.9050  177.7720  140.8510 C   0  0  0  0  0  2  0  0  0  0  0  0
  190.1360  177.0310  140.5030 C   0  0  2  0  0  3  0  0  0  0  0  0
  1 10  1  0  0  0  0
  2  1  2  0  0  0  0
  2 13  1  0  0  0  0
  4  1  1  0  0  0  0
  4  7  1  0  0  0  0
  5  8  1  0  0  0  0
  6  3  1  0  0  0  0
  7 11  1  0  0  0  0
  8  7  2  0  0  0  0
  9 12  1  0  0  0  0
  9  5  2  0  0  0  0
 10 11  1  0  0  0  0
 10  3  2  0  0  0  0
 12  4  2  0  0  0  0
 13  6  1  0  0  0  0
 14 13  1  0  0  0  0
 14 16  1  0  0  0  0
 16 15  1  0  0  0  0
 17  2  1  0  0  0  0
 18 25  1  0  0  0  0
 18 24  1  0  0  0  0
 19 17  1  0  0  0  0
 20 18  1  0  0  0  0
 21 18  1  0  0  0  0
 22 19  1  0  0  0  0
 24 19  1  0  0  0  0
 25 23  1  6  0  0  0
 25 22  1  0  0  0  0
M  END
>  <MODEL>
2

>  <REMARK>
 VINA RESULT:      -8.5      1.815      4.397
  Name = 
  4 active torsions:
  status: ('A' for Active; 'I' for Inactive)
    1  A    between atoms: C_3  and  C_16
    2  A    between atoms: N_6  and  C_16
    3  A    between atoms: C_13  and  C_20
    4  A    between atoms: C_13  and  N_24
                            x       y       z     vdW  Elec       q    Type
                         _______ _______ _______ _____ _____    ______ ____

>  <TORSDO>
F 4

$$$$
=
 OpenBabel11052412533D

 25 28  0  0  1  0  0  0  0  0999 V2000
  186.4260  178.1610  145.1200 C   0  0  0  0  0  0  0  0  0  0  0  0
  186.4630  177.7640  143.8480 C   0  0  0  0  0  0  0  0  0  0  0  0
  184.6110  179.6280  144.8250 N   0  0  0  0  0  0  0  0  0  0  0  0
  187.2050  177.8400  146.2110 C   0  0  0  0  0  0  0  0  0  0  0  0
  188.3860  177.6610  148.7100 C   0  0  0  0  0  3  0  0  0  0  0  0
  184.4260  179.2250  143.4220 C   0  0  0  0  0  2  0  0  0  0  0  0
  186.7280  178.6050  147.2560 C   0  0  0  0  0  0  0  0  0  0  0  0
  187.3000  178.5370  148.5250 C   0  0  0  0  0  3  0  0  0  0  0  0
  188.8740  176.8840  147.6380 C   0  0  0  0  0  3  0  0  0  0  0  0
  185.5240  179.0950  145.5790 C   0  0  0  0  0  0  0  0  0  0  0  0
  185.6920  179.3900  146.8870 N   0  0  0  0  0  2  0  0  0  0  0  0
  188.2830  176.9700  146.3660 C   0  0  0  0  0  3  0  0  0  0  0  0
  185.5200  178.3660  142.9330 N   0  0  0  0  0  0  0  0  0  0  0  0
  185.5290  178.0380  141.5140 C   0  0  0  0  0  2  0  0  0  0  0  0
  184.8910  179.6830  139.9190 O   0  0  0  0  0  1  0  0  0  0  0  0
  184.3830  178.7360  140.8060 C   0  0  0  0  0  2  0  0  0  0  0  0
  187.4510  176.7350  143.3800 C   0  0  0  0  0  2  0  0  0  0  0  0
  190.8490  177.0350  142.8490 C   0  0  0  0  0  0  0  0  0  0  0  0
  188.4730  177.3570  142.5500 N   0  0  0  0  0  0  0  0  0  0  0  0
  191.7040  176.0260  143.5890 C   0  0  0  0  0  1  0  0  0  0  0  0
  191.6010  177.5620  141.6340 C   0  0  0  0  0  1  0  0  0  0  0  0
  189.0020  178.4890  143.3050 C   0  0  0  0  0  2  0  0  0  0  0  0
  191.2250  179.2470  143.7670 O   0  0  0  0  0  1  0  0  0  0  0  0
  189.5610  176.3900  142.3940 C   0  0  0  0  0  2  0  0  0  0  0  0
  190.3890  178.1270  143.7880 C   0  0  2  0  0  3  0  0  0  0  0  0
  1 10  1  0  0  0  0
  1  4  1  0  0  0  0
  2  1  2  0  0  0  0
  3 10  2  0  0  0  0
  4 12  2  0  0  0  0
  4  7  1  0  0  0  0
  6  3  1  0  0  0  0
  7  8  2  0  0  0  0
  8  5  1  0  0  0  0
  9  5  2  0  0  0  0
 10 11  1  0  0  0  0
 11  7  1  0  0  0  0
 12  9  1  0  0  0  0
 13  6  1  0  0  0  0
 13  2  1  0  0  0  0
 14 13  1  0  0  0  0
 15 16  1  0  0  0  0
 16 14  1  0  0  0  0
 17  2  1  0  0  0  0
 18 20  1  0  0  0  0
 18 25  1  0  0  0  0
 19 22  1  0  0  0  0
 19 17  1  0  0  0  0
 21 18  1  0  0  0  0
 22 25  1  0  0  0  0
 24 19  1  0  0  0  0
 24 18  1  0  0  0  0
 25 23  1  6  0  0  0
M  END
>  <MODEL>
3

>  <REMARK>
 VINA RESULT:      -8.4      1.566      1.933
  Name = 
  4 active torsions:
  status: ('A' for Active; 'I' for Inactive)
    1  A    between atoms: C_3  and  C_16
    2  A    between atoms: N_6  and  C_16
    3  A    between atoms: C_13  and  C_20
    4  A    between atoms: C_13  and  N_24
                            x       y       z     vdW  Elec       q    Type
                         _______ _______ _______ _____ _____    ______ ____

>  <TORSDO>
F 4

$$$$
=
 OpenBabel11052412533D

 25 28  0  0  1  0  0  0  0  0999 V2000
  188.1940  177.4000  144.9880 C   0  0  0  0  0  0  0  0  0  0  0  0
  187.5600  177.3700  143.8160 C   0  0  0  0  0  0  0  0  0  0  0  0
  186.4310  178.4360  146.1500 N   0  0  0  0  0  0  0  0  0  0  0  0
  189.4550  176.9920  145.3670 C   0  0  0  0  0  0  0  0  0  0  0  0
  191.8070  176.4410  146.7230 C   0  0  0  0  0  3  0  0  0  0  0  0
  185.5390  178.3840  144.9810 C   0  0  0  0  0  2  0  0  0  0  0  0
  189.5780  177.3260  146.7000 C   0  0  0  0  0  0  0  0  0  0  0  0
  190.7470  177.0610  147.4100 C   0  0  0  0  0  3  0  0  0  0  0  0
  191.6800  176.1050  145.3580 C   0  0  0  0  0  3  0  0  0  0  0  0
  187.6330  177.9480  146.1200 C   0  0  0  0  0  0  0  0  0  0  0  0
  188.4660  177.9210  147.1850 N   0  0  0  0  0  2  0  0  0  0  0  0
  190.4910  176.3840  144.6600 C   0  0  0  0  0  3  0  0  0  0  0  0
  186.2400  177.9580  143.7560 N   0  0  0  0  0  0  0  0  0  0  0  0
  185.4990  178.0250  142.5040 C   0  0  0  0  0  2  0  0  0  0  0  0
  185.1600  179.4940  140.6650 O   0  0  0  0  0  1  0  0  0  0  0  0
  185.3780  179.4640  142.0410 C   0  0  0  0  0  2  0  0  0  0  0  0
  188.1930  176.7550  142.6010 C   0  0  0  0  0  2  0  0  0  0  0  0
  189.0950  177.5160  139.3580 C   0  0  0  0  0  0  0  0  0  0  0  0
  188.7260  177.7920  141.7300 N   0  0  0  0  0  0  0  0  0  0  0  0
  188.6220  176.5260  138.3120 C   0  0  0  0  0  1  0  0  0  0  0  0
  189.3510  178.8720  138.7120 C   0  0  0  0  0  1  0  0  0  0  0  0
  190.1370  177.4790  141.5130 C   0  0  0  0  0  2  0  0  0  0  0  0
  191.5090  177.4010  139.5540 O   0  0  0  0  0  1  0  0  0  0  0  0
  188.0490  177.6710  140.4380 C   0  0  0  0  0  2  0  0  0  0  0  0
  190.2950  176.9710  140.0980 C   0  0  2  0  0  3  0  0  0  0  0  0
  1  4  1  0  0  0  0
  1 10  1  0  0  0  0
  2  1  2  0  0  0  0
  4  7  1  0  0  0  0
  5  8  1  0  0  0  0
  6  3  1  0  0  0  0
  7 11  1  0  0  0  0
  7  8  2  0  0  0  0
  9  5  2  0  0  0  0
 10  3  2  0  0  0  0
 10 11  1  0  0  0  0
 12  9  1  0  0  0  0
 12  4  2  0  0  0  0
 13  2  1  0  0  0  0
 13  6  1  0  0  0  0
 14 13  1  0  0  0  0
 15 16  1  0  0  0  0
 16 14  1  0  0  0  0
 17  2  1  0  0  0  0
 18 25  1  0  0  0  0
 18 24  1  0  0  0  0
 19 17  1  0  0  0  0
 20 18  1  0  0  0  0
 21 18  1  0  0  0  0
 22 19  1  0  0  0  0
 24 19  1  0  0  0  0
 25 23  1  6  0  0  0
 25 22  1  0  0  0  0
M  END
>  <MODEL>
4

>  <REMARK>
 VINA RESULT:      -8.3      1.442      2.016
  Name = 
  4 active torsions:
  status: ('A' for Active; 'I' for Inactive)
    1  A    between atoms: C_3  and  C_16
    2  A    between atoms: N_6  and  C_16
    3  A    between atoms: C_13  and  C_20
    4  A    between atoms: C_13  and  N_24
                            x       y       z     vdW  Elec       q    Type
                         _______ _______ _______ _____ _____    ______ ____

>  <TORSDO>
F 4

$$$$
=
 OpenBabel11052412533D

 25 28  0  0  1  0  0  0  0  0999 V2000
  186.9120  178.0670  142.8400 C   0  0  0  0  0  0  0  0  0  0  0  0
  186.7880  178.3970  141.5530 C   0  0  0  0  0  0  0  0  0  0  0  0
  188.9850  176.9860  142.5760 N   0  0  0  0  0  0  0  0  0  0  0  0
  186.0910  178.2670  143.9280 C   0  0  0  0  0  0  0  0  0  0  0  0
  184.9120  178.3040  146.4340 C   0  0  0  0  0  3  0  0  0  0  0  0
  189.0770  177.3610  141.1560 C   0  0  0  0  0  2  0  0  0  0  0  0
  186.7180  177.6560  144.9950 C   0  0  0  0  0  0  0  0  0  0  0  0
  186.1520  177.6580  146.2680 C   0  0  0  0  0  3  0  0  0  0  0  0
  184.2710  178.9220  145.3400 C   0  0  0  0  0  3  0  0  0  0  0  0
  187.9870  177.3530  143.3210 C   0  0  0  0  0  0  0  0  0  0  0  0
  187.8890  177.0830  144.6420 N   0  0  0  0  0  2  0  0  0  0  0  0
  184.8600  178.9070  144.0640 C   0  0  0  0  0  3  0  0  0  0  0  0
  187.8290  177.9610  140.6490 N   0  0  0  0  0  0  0  0  0  0  0  0
  187.7460  178.2240  139.2190 C   0  0  0  0  0  2  0  0  0  0  0  0
  188.9570  179.5320  137.6450 O   0  0  0  0  0  1  0  0  0  0  0  0
  189.1100  178.6050  138.6750 C   0  0  0  0  0  2  0  0  0  0  0  0
  185.6100  179.1860  141.0600 C   0  0  0  0  0  2  0  0  0  0  0  0
  182.8150  179.1640  139.0350 C   0  0  0  0  0  0  0  0  0  0  0  0
  184.7810  178.3640  140.1910 N   0  0  0  0  0  0  0  0  0  0  0  0
  182.2610  180.5320  138.6930 C   0  0  0  0  0  1  0  0  0  0  0  0
  182.3840  178.1510  137.9820 C   0  0  0  0  0  1  0  0  0  0  0  0
  183.6010  177.9840  140.9650 C   0  0  0  0  0  2  0  0  0  0  0  0
  181.2580  177.9930  140.4790 O   0  0  0  0  0  1  0  0  0  0  0  0
  184.3240  179.2120  139.0890 C   0  0  0  0  0  2  0  0  0  0  0  0
  182.4200  178.7690  140.4410 C   0  0  2  0  0  3  0  0  0  0  0  0
  1 10  1  0  0  0  0
  1  4  1  0  0  0  0
  2  1  2  0  0  0  0
  3 10  2  0  0  0  0
  4 12  2  0  0  0  0
  4  7  1  0  0  0  0
  6  3  1  0  0  0  0
  7  8  2  0  0  0  0
  8  5  1  0  0  0  0
  9  5  2  0  0  0  0
 10 11  1  0  0  0  0
 11  7  1  0  0  0  0
 12  9  1  0  0  0  0
 13  6  1  0  0  0  0
 13  2  1  0  0  0  0
 14 13  1  0  0  0  0
 15 16  1  0  0  0  0
 16 14  1  0  0  0  0
 17  2  1  0  0  0  0
 18 24  1  0  0  0  0
 18 25  1  0  0  0  0
 19 22  1  0  0  0  0
 19 17  1  0  0  0  0
 20 18  1  0  0  0  0
 21 18  1  0  0  0  0
 24 19  1  0  0  0  0
 25 23  1  6  0  0  0
 25 22  1  0  0  0  0
M  END
>  <MODEL>
5

>  <REMARK>
 VINA RESULT:      -8.2      2.294      5.167
  Name = 
  4 active torsions:
  status: ('A' for Active; 'I' for Inactive)
    1  A    between atoms: C_3  and  C_16
    2  A    between atoms: N_6  and  C_16
    3  A    between atoms: C_13  and  C_20
    4  A    between atoms: C_13  and  N_24
                            x       y       z     vdW  Elec       q    Type
                         _______ _______ _______ _____ _____    ______ ____

>  <TORSDO>
F 4

$$$$
=
 OpenBabel11052412533D

 25 28  0  0  1  0  0  0  0  0999 V2000
  188.2300  177.7610  143.9650 C   0  0  0  0  0  0  0  0  0  0  0  0
  188.0140  178.1800  142.7180 C   0  0  0  0  0  0  0  0  0  0  0  0
  185.9620  177.7870  144.5870 N   0  0  0  0  0  0  0  0  0  0  0  0
  189.3860  177.4540  144.6490 C   0  0  0  0  0  0  0  0  0  0  0  0
  191.2830  176.7520  146.5420 C   0  0  0  0  0  3  0  0  0  0  0  0
  185.5230  178.1390  143.2270 C   0  0  0  0  0  2  0  0  0  0  0  0
  188.9940  177.1290  145.9310 C   0  0  0  0  0  0  0  0  0  0  0  0
  189.9240  176.7700  146.9060 C   0  0  0  0  0  3  0  0  0  0  0  0
  191.6810  177.0900  145.2310 C   0  0  0  0  0  3  0  0  0  0  0  0
  187.2120  177.5940  144.8770 C   0  0  0  0  0  0  0  0  0  0  0  0
  187.6560  177.2120  146.0960 N   0  0  0  0  0  2  0  0  0  0  0  0
  190.7260  177.4500  144.2640 C   0  0  0  0  0  3  0  0  0  0  0  0
  186.6500  178.4800  142.3410 N   0  0  0  0  0  0  0  0  0  0  0  0
  186.3290  179.0020  141.0200 C   0  0  0  0  0  2  0  0  0  0  0  0
  184.5180  179.7530  139.6740 O   0  0  0  0  0  1  0  0  0  0  0  0
  184.8270  179.0030  140.8070 C   0  0  0  0  0  2  0  0  0  0  0  0
  189.1430  178.3410  141.7420 C   0  0  0  0  0  2  0  0  0  0  0  0
  190.8450  176.8250  139.1500 C   0  0  0  0  0  0  0  0  0  0  0  0
  189.0640  177.3210  140.7060 N   0  0  0  0  0  0  0  0  0  0  0  0
  192.3290  177.1270  139.0940 C   0  0  0  0  0  1  0  0  0  0  0  0
  190.5550  175.5150  138.4290 C   0  0  0  0  0  1  0  0  0  0  0  0
  188.7880  178.0140  139.4490 C   0  0  0  0  0  2  0  0  0  0  0  0
  189.7340  177.8560  137.2570 O   0  0  0  0  0  1  0  0  0  0  0  0
  190.3910  176.7130  140.5860 C   0  0  0  0  0  2  0  0  0  0  0  0
  190.0470  177.9920  138.6120 C   0  0  2  0  0  3  0  0  0  0  0  0
  1  4  1  0  0  0  0
  1 10  1  0  0  0  0
  2  1  2  0  0  0  0
  3 10  2  0  0  0  0
  4  7  1  0  0  0  0
  5  8  1  0  0  0  0
  6  3  1  0  0  0  0
  7 11  1  0  0  0  0
  7  8  2  0  0  0  0
  9  5  2  0  0  0  0
 10 11  1  0  0  0  0
 12  4  2  0  0  0  0
 12  9  1  0  0  0  0
 13  2  1  0  0  0  0
 13  6  1  0  0  0  0
 14 13  1  0  0  0  0
 15 16  1  0  0  0  0
 16 14  1  0  0  0  0
 17  2  1  0  0  0  0
 18 24  1  0  0  0  0
 19 17  1  0  0  0  0
 20 18  1  0  0  0  0
 21 18  1  0  0  0  0
 22 19  1  0  0  0  0
 24 19  1  0  0  0  0
 25 23  1  6  0  0  0
 25 18  1  0  0  0  0
 25 22  1  0  0  0  0
M  END
>  <MODEL>
6

>  <REMARK>
 VINA RESULT:      -7.9      1.852      2.621
  Name = 
  4 active torsions:
  status: ('A' for Active; 'I' for Inactive)
    1  A    between atoms: C_3  and  C_16
    2  A    between atoms: N_6  and  C_16
    3  A    between atoms: C_13  and  C_20
    4  A    between atoms: C_13  and  N_24
                            x       y       z     vdW  Elec       q    Type
                         _______ _______ _______ _____ _____    ______ ____

>  <TORSDO>
F 4

$$$$
=
 OpenBabel11052412533D

 25 28  0  0  1  0  0  0  0  0999 V2000
  186.8810  178.0370  142.6970 C   0  0  0  0  0  0  0  0  0  0  0  0
  188.0010  177.3410  142.8990 C   0  0  0  0  0  0  0  0  0  0  0  0
  187.4020  178.6250  140.4790 N   0  0  0  0  0  0  0  0  0  0  0  0
  185.8140  178.3280  143.5180 C   0  0  0  0  0  0  0  0  0  0  0  0
  183.4650  179.2800  144.6370 C   0  0  0  0  0  3  0  0  0  0  0  0
  188.6270  177.8090  140.4790 C   0  0  0  0  0  2  0  0  0  0  0  0
  184.9730  179.1340  142.7770 C   0  0  0  0  0  0  0  0  0  0  0  0
  183.7840  179.6270  143.3110 C   0  0  0  0  0  3  0  0  0  0  0  0
  184.3300  178.4600  145.3930 C   0  0  0  0  0  3  0  0  0  0  0  0
  186.6130  178.6800  141.5090 C   0  0  0  0  0  0  0  0  0  0  0  0
  185.4490  179.3670  141.5340 N   0  0  0  0  0  2  0  0  0  0  0  0
  185.5250  177.9740  144.8350 C   0  0  0  0  0  3  0  0  0  0  0  0
  188.9610  177.2930  141.8180 N   0  0  0  0  0  0  0  0  0  0  0  0
  190.2370  176.6090  141.9720 C   0  0  0  0  0  2  0  0  0  0  0  0
  192.1490  177.5370  140.9040 O   0  0  0  0  0  1  0  0  0  0  0  0
  191.3670  177.6180  142.0550 C   0  0  0  0  0  2  0  0  0  0  0  0
  188.2600  176.6410  144.2010 C   0  0  0  0  0  2  0  0  0  0  0  0
  190.1830  176.8330  147.0610 C   0  0  0  0  0  0  0  0  0  0  0  0
  188.8980  177.5490  145.1440 N   0  0  0  0  0  0  0  0  0  0  0  0
  190.8320  175.5310  147.4850 C   0  0  0  0  0  1  0  0  0  0  0  0
  190.9600  178.0110  147.6350 C   0  0  0  0  0  1  0  0  0  0  0  0
  188.0400  177.6060  146.3250 C   0  0  0  0  0  2  0  0  0  0  0  0
  188.4810  177.4550  148.6720 O   0  0  0  0  0  1  0  0  0  0  0  0
  190.1640  176.9380  145.5540 C   0  0  0  0  0  2  0  0  0  0  0  0
  188.7190  176.8410  147.4390 C   0  0  2  0  0  3  0  0  0  0  0  0
  1  2  2  0  0  0  0
  1  4  1  0  0  0  0
  2 17  1  0  0  0  0
  3  6  1  0  0  0  0
  3 10  2  0  0  0  0
  4 12  1  0  0  0  0
  5  9  1  0  0  0  0
  6 13  1  0  0  0  0
  7  8  1  0  0  0  0
  7  4  2  0  0  0  0
  8  5  2  0  0  0  0
 10 11  1  0  0  0  0
 10  1  1  0  0  0  0
 11  7  1  0  0  0  0
 12  9  2  0  0  0  0
 13 14  1  0  0  0  0
 13  2  1  0  0  0  0
 14 16  1  0  0  0  0
 15 16  1  0  0  0  0
 17 19  1  0  0  0  0
 18 25  1  0  0  0  0
 18 20  1  0  0  0  0
 18 21  1  0  0  0  0
 19 24  1  0  0  0  0
 19 22  1  0  0  0  0
 22 25  1  0  0  0  0
 24 18  1  0  0  0  0
 25 23  1  1  0  0  0
M  END
>  <MODEL>
7

>  <REMARK>
 VINA RESULT:      -7.8      2.298      5.773
  Name = 
  4 active torsions:
  status: ('A' for Active; 'I' for Inactive)
    1  A    between atoms: C_3  and  C_16
    2  A    between atoms: N_6  and  C_16
    3  A    between atoms: C_13  and  C_20
    4  A    between atoms: C_13  and  N_24
                            x       y       z     vdW  Elec       q    Type
                         _______ _______ _______ _____ _____    ______ ____

>  <TORSDO>
F 4

$$$$
=
 OpenBabel11052412533D

 25 28  0  0  1  0  0  0  0  0999 V2000
  187.3270  177.9950  142.1750 C   0  0  0  0  0  0  0  0  0  0  0  0
  186.6110  177.8750  143.2940 C   0  0  0  0  0  0  0  0  0  0  0  0
  185.7280  179.2980  141.0460 N   0  0  0  0  0  0  0  0  0  0  0  0
  188.5590  177.4970  141.8100 C   0  0  0  0  0  0  0  0  0  0  0  0
  190.8840  176.7870  140.4820 C   0  0  0  0  0  3  0  0  0  0  0  0
  184.8540  179.3730  142.2280 C   0  0  0  0  0  2  0  0  0  0  0  0
  188.7620  177.9060  140.5080 C   0  0  0  0  0  0  0  0  0  0  0  0
  189.9220  177.5660  139.8130 C   0  0  0  0  0  3  0  0  0  0  0  0
  190.6700  176.3660  141.8120 C   0  0  0  0  0  3  0  0  0  0  0  0
  186.8680  178.6790  141.0720 C   0  0  0  0  0  0  0  0  0  0  0  0
  187.7290  178.6340  140.0300 N   0  0  0  0  0  2  0  0  0  0  0  0
  189.4930  176.7190  142.4930 C   0  0  0  0  0  3  0  0  0  0  0  0
  185.2990  178.4820  143.3150 N   0  0  0  0  0  0  0  0  0  0  0  0
  184.4230  178.3490  144.4710 C   0  0  0  0  0  2  0  0  0  0  0  0
  182.0680  178.6280  144.2910 O   0  0  0  0  0  1  0  0  0  0  0  0
  183.2690  179.3300  144.3710 C   0  0  0  0  0  2  0  0  0  0  0  0
  187.1430  177.1330  144.4860 C   0  0  0  0  0  2  0  0  0  0  0  0
  189.2960  177.5080  147.1570 C   0  0  0  0  0  0  0  0  0  0  0  0
  187.6510  178.0690  145.4780 N   0  0  0  0  0  0  0  0  0  0  0  0
  190.2880  176.3780  147.3440 C   0  0  0  0  0  1  0  0  0  0  0  0
  189.8280  178.7780  147.8080 C   0  0  0  0  0  1  0  0  0  0  0  0
  186.9560  177.7800  146.7290 C   0  0  0  0  0  2  0  0  0  0  0  0
  187.7030  177.5010  148.9860 O   0  0  0  0  0  1  0  0  0  0  0  0
  189.0680  177.7620  145.6860 C   0  0  0  0  0  2  0  0  0  0  0  0
  187.9310  177.1020  147.6660 C   0  0  2  0  0  3  0  0  0  0  0  0
  1  2  2  0  0  0  0
  2 13  1  0  0  0  0
  2 17  1  0  0  0  0
  3 10  2  0  0  0  0
  3  6  1  0  0  0  0
  4  1  1  0  0  0  0
  4 12  1  0  0  0  0
  5  9  1  0  0  0  0
  6 13  1  0  0  0  0
  7  4  2  0  0  0  0
  8  5  2  0  0  0  0
  8  7  1  0  0  0  0
  9 12  2  0  0  0  0
 10  1  1  0  0  0  0
 11  7  1  0  0  0  0
 11 10  1  0  0  0  0
 13 14  1  0  0  0  0
 15 16  1  0  0  0  0
 16 14  1  0  0  0  0
 17 19  1  0  0  0  0
 18 20  1  0  0  0  0
 18 25  1  0  0  0  0
 18 21  1  0  0  0  0
 19 24  1  0  0  0  0
 19 22  1  0  0  0  0
 22 25  1  0  0  0  0
 24 18  1  0  0  0  0
 25 23  1  1  0  0  0
M  END
>  <MODEL>
8

>  <REMARK>
 VINA RESULT:      -7.7      2.451      5.636
  Name = 
  4 active torsions:
  status: ('A' for Active; 'I' for Inactive)
    1  A    between atoms: C_3  and  C_16
    2  A    between atoms: N_6  and  C_16
    3  A    between atoms: C_13  and  C_20
    4  A    between atoms: C_13  and  N_24
                            x       y       z     vdW  Elec       q    Type
                         _______ _______ _______ _____ _____    ______ ____

>  <TORSDO>
F 4

$$$$
=
 OpenBabel11052412533D

 25 28  0  0  1  0  0  0  0  0999 V2000
  185.9850  178.2840  142.8250 C   0  0  0  0  0  0  0  0  0  0  0  0
  186.9850  177.8410  142.0620 C   0  0  0  0  0  0  0  0  0  0  0  0
  184.8520  179.3670  141.0710 N   0  0  0  0  0  0  0  0  0  0  0  0
  185.7310  178.1670  144.1740 C   0  0  0  0  0  0  0  0  0  0  0  0
  184.6940  178.3330  146.7380 C   0  0  0  0  0  3  0  0  0  0  0  0
  185.8000  178.8700  140.0610 C   0  0  0  0  0  2  0  0  0  0  0  0
  184.5710  178.8780  144.4050 C   0  0  0  0  0  0  0  0  0  0  0  0
  184.0230  178.9790  145.6830 C   0  0  0  0  0  3  0  0  0  0  0  0
  185.8840  177.6120  146.4990 C   0  0  0  0  0  3  0  0  0  0  0  0
  184.9560  179.0520  142.3250 C   0  0  0  0  0  0  0  0  0  0  0  0
  184.0760  179.4350  143.2780 N   0  0  0  0  0  2  0  0  0  0  0  0
  186.4190  177.5240  145.2020 C   0  0  0  0  0  3  0  0  0  0  0  0
  186.9720  178.2110  140.6640 N   0  0  0  0  0  0  0  0  0  0  0  0
  188.0560  177.8240  139.7710 C   0  0  0  0  0  2  0  0  0  0  0  0
  188.6020  179.0490  137.8070 O   0  0  0  0  0  1  0  0  0  0  0  0
  187.6880  178.1380  138.3330 C   0  0  0  0  0  2  0  0  0  0  0  0
  188.0860  176.9960  142.6320 C   0  0  0  0  0  2  0  0  0  0  0  0
  191.3550  177.9220  143.2410 C   0  0  0  0  0  0  0  0  0  0  0  0
  188.9530  177.8010  143.4800 N   0  0  0  0  0  0  0  0  0  0  0  0
  192.3390  177.5570  142.1480 C   0  0  0  0  0  1  0  0  0  0  0  0
  191.9010  179.0820  144.0650 C   0  0  0  0  0  1  0  0  0  0  0  0
  189.5620  176.8940  144.4490 C   0  0  0  0  0  2  0  0  0  0  0  0
  191.8080  176.5930  145.2190 O   0  0  0  0  0  1  0  0  0  0  0  0
  190.0300  178.3230  142.6360 C   0  0  0  0  0  2  0  0  0  0  0  0
  191.0140  176.7060  144.0740 C   0  0  2  0  0  3  0  0  0  0  0  0
  1  4  1  0  0  0  0
  2 17  1  0  0  0  0
  2  1  2  0  0  0  0
  3 10  2  0  0  0  0
  4  7  2  0  0  0  0
  4 12  1  0  0  0  0
  6 13  1  0  0  0  0
  6  3  1  0  0  0  0
  7  8  1  0  0  0  0
  8  5  2  0  0  0  0
  9  5  1  0  0  0  0
 10  1  1  0  0  0  0
 10 11  1  0  0  0  0
 11  7  1  0  0  0  0
 12  9  2  0  0  0  0
 13  2  1  0  0  0  0
 14 13  1  0  0  0  0
 15 16  1  0  0  0  0
 16 14  1  0  0  0  0
 17 19  1  0  0  0  0
 18 21  1  0  0  0  0
 18 25  1  0  0  0  0
 19 22  1  0  0  0  0
 20 18  1  0  0  0  0
 24 18  1  0  0  0  0
 24 19  1  0  0  0  0
 25 22  1  0  0  0  0
 25 23  1  1  0  0  0
M  END
>  <MODEL>
9

>  <REMARK>
 VINA RESULT:      -7.6      2.155      3.689
  Name = 
  4 active torsions:
  status: ('A' for Active; 'I' for Inactive)
    1  A    between atoms: C_3  and  C_16
    2  A    between atoms: N_6  and  C_16
    3  A    between atoms: C_13  and  C_20
    4  A    between atoms: C_13  and  N_24
                            x       y       z     vdW  Elec       q    Type
                         _______ _______ _______ _____ _____    ______ ____

>  <TORSDO>
F 4

$$$$
