=
 OpenBabel11052413383D

 27 31  0  0  1  0  0  0  0  0999 V2000
  188.4730  176.3570  142.8900 N   0  0  0  0  0  2  0  0  0  0  0  0
  187.2880  178.1090  144.1020 C   0  0  0  0  0  0  0  0  0  0  0  0
  186.7210  178.3230  141.7130 N   0  0  0  0  0  2  0  0  0  0  0  0
  183.4420  179.3510  145.0930 N   0  0  0  0  0  0  0  0  0  0  0  0
  181.4730  178.5300  143.9060 C   0  0  0  0  0  1  0  0  0  0  0  0
  186.8420  178.1960  145.5280 C   0  0  0  0  0  3  0  0  0  0  0  0
  183.9210  178.5900  142.9980 C   0  0  2  0  0  3  0  0  0  0  0  0
  189.2290  178.9720  139.4720 C   0  0  0  0  0  2  0  0  0  0  0  0
  183.7110  177.7630  141.7740 C   0  0  0  0  0  1  0  0  0  0  0  0
  190.2500  177.9800  138.9060 C   0  0  0  0  0  2  0  0  0  0  0  0
  185.0880  178.9390  143.5180 C   0  0  1  0  0  3  0  0  0  0  0  0
  188.6400  177.5130  143.7700 C   0  0  1  0  0  3  0  0  0  0  0  0
  182.9190  178.8660  144.0150 C   0  0  0  0  0  0  0  0  0  0  0  0
  184.8710  179.5350  144.8690 C   0  0  2  0  0  3  0  0  0  0  0  0
  188.6220  176.7420  141.4820 C   0  0  2  0  0  3  0  0  0  0  0  0
  186.4210  178.4560  143.1140 C   0  0  0  0  0  0  0  0  0  0  0  0
  188.0180  178.3380  139.7690 O   0  0  0  0  0  0  0  0  0  0  0  0
  185.7040  178.8090  145.8870 C   0  0  0  0  0  3  0  0  0  0  0  0
  190.1950  176.5850  139.5390 C   0  0  0  0  0  2  0  0  0  0  0  0
  190.0850  176.6210  141.0600 C   0  0  0  0  0  2  0  0  0  0  0  0
  188.0560  178.1410  141.1550 C   0  0  1  0  0  3  0  0  0  0  0  0
  191.1060  176.5350  147.1560 C   0  0  0  0  0  3  0  0  0  0  0  0
  189.4840  177.1600  144.9600 C   0  0  0  0  0  0  0  0  0  0  0  0
  190.8370  176.8590  144.7720 C   0  0  0  0  0  3  0  0  0  0  0  0
  191.6470  176.5450  145.8680 C   0  0  0  0  0  3  0  0  0  0  0  0
  189.7560  176.8400  147.3510 C   0  0  0  0  0  3  0  0  0  0  0  0
  188.9460  177.1540  146.2570 C   0  0  0  0  0  3  0  0  0  0  0  0
  1 12  1  0  0  0  0
  2  6  1  0  0  0  0
  3 16  1  0  0  0  0
  5 13  1  0  0  0  0
  6 18  2  0  0  0  0
  7  9  1  1  0  0  0
  7 11  1  0  0  0  0
  7 13  1  0  0  0  0
  8 17  1  0  0  0  0
 10  8  1  0  0  0  0
 10 19  1  0  0  0  0
 11 16  1  1  0  0  0
 11 14  1  0  0  0  0
 12  2  1  0  0  0  0
 12 23  1  1  0  0  0
 13  4  2  0  0  0  0
 14  4  1  0  0  0  0
 14 18  1  1  0  0  0
 15 20  1  1  0  0  0
 15  1  1  0  0  0  0
 16  2  2  0  0  0  0
 19 20  1  0  0  0  0
 21 17  1  6  0  0  0
 21 15  1  0  0  0  0
 21  3  1  0  0  0  0
 22 26  1  0  0  0  0
 23 27  1  0  0  0  0
 24 23  2  0  0  0  0
 24 25  1  0  0  0  0
 25 22  2  0  0  0  0
 27 26  2  0  0  0  0
M  END
>  <MODEL>
1

>  <REMARK>
 VINA RESULT:     -10.5      0.000      0.000
  Name = 
  1 active torsions:
  status: ('A' for Active; 'I' for Inactive)
    1  A    between atoms: C_9  and  C_15
                            x       y       z     vdW  Elec       q    Type
                         _______ _______ _______ _____ _____    ______ ____

>  <TORSDO>
F 1

$$$$
=
 OpenBabel11052413383D

 27 31  0  0  1  0  0  0  0  0999 V2000
  187.4740  176.8640  143.1210 N   0  0  0  0  0  2  0  0  0  0  0  0
  186.8680  178.2520  141.2100 C   0  0  0  0  0  0  0  0  0  0  0  0
  189.2670  177.7160  141.0280 N   0  0  0  0  0  2  0  0  0  0  0  0
  186.5560  178.1240  137.0630 N   0  0  0  0  0  0  0  0  0  0  0  0
  187.6400  176.3820  135.7390 C   0  0  0  0  0  1  0  0  0  0  0  0
  185.5570  178.4680  140.5230 C   0  0  0  0  0  3  0  0  0  0  0  0
  188.3290  177.1700  138.1320 C   0  0  2  0  0  3  0  0  0  0  0  0
  191.3880  178.7680  143.5030 C   0  0  0  0  0  2  0  0  0  0  0  0
  189.3050  176.0820  138.4380 C   0  0  0  0  0  1  0  0  0  0  0  0
  191.5870  178.1410  144.8860 C   0  0  0  0  0  2  0  0  0  0  0  0
  187.8280  178.0380  138.9960 C   0  0  1  0  0  3  0  0  0  0  0  0
  186.9200  178.1570  142.7210 C   0  0  1  0  0  3  0  0  0  0  0  0
  187.5070  177.2560  136.9360 C   0  0  0  0  0  0  0  0  0  0  0  0
  186.7040  178.7830  138.3550 C   0  0  2  0  0  3  0  0  0  0  0  0
  188.9160  176.9640  143.3690 C   0  0  2  0  0  3  0  0  0  0  0  0
  187.9790  178.0230  140.4620 C   0  0  0  0  0  0  0  0  0  0  0  0
  191.0330  177.8020  142.5550 O   0  0  0  0  0  0  0  0  0  0  0  0
  185.4660  178.6650  139.1990 C   0  0  0  0  0  3  0  0  0  0  0  0
  190.6140  177.0010  145.2100 C   0  0  0  0  0  2  0  0  0  0  0  0
  189.1720  177.3200  144.8320 C   0  0  0  0  0  2  0  0  0  0  0  0
  189.6460  177.9380  142.4180 C   0  0  1  0  0  3  0  0  0  0  0  0
  183.2080  178.9370  144.7500 C   0  0  0  0  0  3  0  0  0  0  0  0
  185.6140  178.4170  143.4150 C   0  0  0  0  0  0  0  0  0  0  0  0
  185.5880  178.4970  144.8110 C   0  0  0  0  0  3  0  0  0  0  0  0
  184.3860  178.7550  145.4790 C   0  0  0  0  0  3  0  0  0  0  0  0
  183.2290  178.8640  143.3550 C   0  0  0  0  0  3  0  0  0  0  0  0
  184.4290  178.6050  142.6870 C   0  0  0  0  0  3  0  0  0  0  0  0
  1 15  1  0  0  0  0
  2 12  1  0  0  0  0
  4 14  1  0  0  0  0
  5 13  1  0  0  0  0
  6  2  1  0  0  0  0
  7  9  1  1  0  0  0
  7 11  1  0  0  0  0
  8 10  1  0  0  0  0
 10 19  1  0  0  0  0
 11 16  1  1  0  0  0
 12  1  1  0  0  0  0
 12 23  1  1  0  0  0
 13  4  2  0  0  0  0
 13  7  1  0  0  0  0
 14 11  1  0  0  0  0
 14 18  1  1  0  0  0
 15 20  1  1  0  0  0
 16  3  1  0  0  0  0
 16  2  2  0  0  0  0
 17  8  1  0  0  0  0
 18  6  2  0  0  0  0
 20 19  1  0  0  0  0
 21  3  1  6  0  0  0
 21 17  1  0  0  0  0
 21 15  1  0  0  0  0
 22 25  1  0  0  0  0
 23 24  1  0  0  0  0
 24 25  2  0  0  0  0
 26 22  2  0  0  0  0
 27 26  1  0  0  0  0
 27 23  2  0  0  0  0
M  END
>  <MODEL>
2

>  <REMARK>
 VINA RESULT:      -9.1      2.195      5.893
  Name = 
  1 active torsions:
  status: ('A' for Active; 'I' for Inactive)
    1  A    between atoms: C_9  and  C_15
                            x       y       z     vdW  Elec       q    Type
                         _______ _______ _______ _____ _____    ______ ____

>  <TORSDO>
F 1

$$$$
=
 OpenBabel11052413383D

 27 31  0  0  1  0  0  0  0  0999 V2000
  187.4740  179.2480  140.9430 N   0  0  0  0  0  2  0  0  0  0  0  0
  186.7130  177.9230  142.8430 C   0  0  0  0  0  0  0  0  0  0  0  0
  189.1010  177.4300  142.4820 N   0  0  0  0  0  2  0  0  0  0  0  0
  187.2760  177.4900  146.9430 N   0  0  0  0  0  0  0  0  0  0  0  0
  189.2230  178.4210  148.0850 C   0  0  0  0  0  1  0  0  0  0  0  0
  185.5900  178.1350  143.8080 C   0  0  0  0  0  3  0  0  0  0  0  0
  189.0490  177.8240  145.5490 C   0  0  2  0  0  3  0  0  0  0  0  0
  190.0690  176.0410  139.5040 C   0  0  0  0  0  2  0  0  0  0  0  0
  190.3140  178.4710  145.0940 C   0  0  0  0  0  1  0  0  0  0  0  0
  190.2480  176.7530  138.1600 C   0  0  0  0  0  2  0  0  0  0  0  0
  188.0730  177.3780  144.7720 C   0  0  1  0  0  3  0  0  0  0  0  0
  186.5140  178.2340  141.3740 C   0  0  1  0  0  3  0  0  0  0  0  0
  188.5090  177.8770  146.8980 C   0  0  0  0  0  0  0  0  0  0  0  0
  186.8840  177.0450  145.6100 C   0  0  2  0  0  3  0  0  0  0  0  0
  188.6640  178.6270  140.3500 C   0  0  2  0  0  3  0  0  0  0  0  0
  187.9370  177.5690  143.3170 C   0  0  0  0  0  0  0  0  0  0  0  0
  190.3410  176.9010  140.5740 O   0  0  0  0  0  0  0  0  0  0  0  0
  185.6770  177.7780  145.0990 C   0  0  0  0  0  3  0  0  0  0  0  0
  189.8060  178.2210  138.1580 C   0  0  0  0  0  2  0  0  0  0  0  0
  188.4630  178.4420  138.8480 C   0  0  0  0  0  2  0  0  0  0  0  0
  189.0800  177.3040  141.0290 C   0  0  1  0  0  3  0  0  0  0  0  0
  182.5190  179.3530  140.2340 C   0  0  0  0  0  3  0  0  0  0  0  0
  185.1150  178.6280  140.9970 C   0  0  0  0  0  0  0  0  0  0  0  0
  184.9040  179.3520  139.8180 C   0  0  0  0  0  3  0  0  0  0  0  0
  183.6080  179.7160  139.4380 C   0  0  0  0  0  3  0  0  0  0  0  0
  182.7230  178.6250  141.4100 C   0  0  0  0  0  3  0  0  0  0  0  0
  184.0170  178.2620  141.7910 C   0  0  0  0  0  3  0  0  0  0  0  0
  1 12  1  0  0  0  0
  2 16  2  0  0  0  0
  2  6  1  0  0  0  0
  3 16  1  0  0  0  0
  6 18  2  0  0  0  0
  7  9  1  6  0  0  0
  7 13  1  0  0  0  0
  8 17  1  0  0  0  0
 10  8  1  0  0  0  0
 11 16  1  6  0  0  0
 11  7  1  0  0  0  0
 11 14  1  0  0  0  0
 12 23  1  1  0  0  0
 12  2  1  0  0  0  0
 13  4  2  0  0  0  0
 13  5  1  0  0  0  0
 14 18  1  6  0  0  0
 14  4  1  0  0  0  0
 15 20  1  6  0  0  0
 15  1  1  0  0  0  0
 15 21  1  0  0  0  0
 19 10  1  0  0  0  0
 19 20  1  0  0  0  0
 21 17  1  6  0  0  0
 21  3  1  0  0  0  0
 22 26  1  0  0  0  0
 23 27  1  0  0  0  0
 24 23  2  0  0  0  0
 25 24  1  0  0  0  0
 25 22  2  0  0  0  0
 26 27  2  0  0  0  0
M  END
>  <MODEL>
3

>  <REMARK>
 VINA RESULT:      -8.8      1.798      5.503
  Name = 
  1 active torsions:
  status: ('A' for Active; 'I' for Inactive)
    1  A    between atoms: C_9  and  C_15
                            x       y       z     vdW  Elec       q    Type
                         _______ _______ _______ _____ _____    ______ ____

>  <TORSDO>
F 1

$$$$
=
 OpenBabel11052413383D

 27 31  0  0  1  0  0  0  0  0999 V2000
  188.2090  176.6500  142.4120 N   0  0  0  0  0  2  0  0  0  0  0  0
  188.2110  178.0180  140.3950 C   0  0  0  0  0  0  0  0  0  0  0  0
  190.5460  177.4250  140.9100 N   0  0  0  0  0  2  0  0  0  0  0  0
  189.0910  177.8260  136.3320 N   0  0  0  0  0  0  0  0  0  0  0  0
  190.4610  176.0380  135.3900 C   0  0  0  0  0  1  0  0  0  0  0  0
  187.1570  178.2520  139.3590 C   0  0  0  0  0  3  0  0  0  0  0  0
  190.4600  176.8510  137.8720 C   0  0  2  0  0  3  0  0  0  0  0  0
  191.9010  178.4710  143.8770 C   0  0  0  0  0  2  0  0  0  0  0  0
  191.2780  175.7470  138.4550 C   0  0  0  0  0  1  0  0  0  0  0  0
  191.6800  177.8640  145.2660 C   0  0  0  0  0  2  0  0  0  0  0  0
  189.7560  177.7450  138.5490 C   0  0  1  0  0  3  0  0  0  0  0  0
  187.8270  177.9480  141.8580 C   0  0  1  0  0  3  0  0  0  0  0  0
  190.0150  176.9350  136.4910 C   0  0  0  0  0  0  0  0  0  0  0  0
  188.8820  178.5040  137.6060 C   0  0  2  0  0  3  0  0  0  0  0  0
  189.5230  176.7220  143.0610 C   0  0  2  0  0  3  0  0  0  0  0  0
  189.4820  177.7510  139.9970 C   0  0  0  0  0  0  0  0  0  0  0  0
  191.8050  177.4970  142.8770 O   0  0  0  0  0  0  0  0  0  0  0  0
  187.4520  178.4280  138.0620 C   0  0  0  0  0  3  0  0  0  0  0  0
  190.6260  176.7520  145.3100 C   0  0  0  0  0  2  0  0  0  0  0  0
  189.3600  177.0960  144.5320 C   0  0  0  0  0  2  0  0  0  0  0  0
  190.5190  177.6620  142.3480 C   0  0  1  0  0  3  0  0  0  0  0  0
  183.6790  178.7860  142.6340 C   0  0  0  0  0  3  0  0  0  0  0  0
  186.3850  178.2490  142.1480 C   0  0  0  0  0  0  0  0  0  0  0  0
  185.5560  178.6830  141.1070 C   0  0  0  0  0  3  0  0  0  0  0  0
  184.2050  178.9530  141.3500 C   0  0  0  0  0  3  0  0  0  0  0  0
  184.5010  178.3480  143.6760 C   0  0  0  0  0  3  0  0  0  0  0  0
  185.8510  178.0780  143.4340 C   0  0  0  0  0  3  0  0  0  0  0  0
  1 15  1  0  0  0  0
  2 12  1  0  0  0  0
  4 13  2  0  0  0  0
  4 14  1  0  0  0  0
  5 13  1  0  0  0  0
  6  2  1  0  0  0  0
  7  9  1  1  0  0  0
  7 11  1  0  0  0  0
  8 10  1  0  0  0  0
 10 19  1  0  0  0  0
 11 16  1  1  0  0  0
 12 23  1  6  0  0  0
 12  1  1  0  0  0  0
 13  7  1  0  0  0  0
 14 18  1  1  0  0  0
 14 11  1  0  0  0  0
 15 20  1  1  0  0  0
 16  2  2  0  0  0  0
 16  3  1  0  0  0  0
 17  8  1  0  0  0  0
 18  6  2  0  0  0  0
 20 19  1  0  0  0  0
 21  3  1  6  0  0  0
 21 17  1  0  0  0  0
 21 15  1  0  0  0  0
 22 26  1  0  0  0  0
 23 27  1  0  0  0  0
 24 25  1  0  0  0  0
 24 23  2  0  0  0  0
 25 22  2  0  0  0  0
 27 26  2  0  0  0  0
M  END
>  <MODEL>
4

>  <REMARK>
 VINA RESULT:      -8.7      2.241      6.777
  Name = 
  1 active torsions:
  status: ('A' for Active; 'I' for Inactive)
    1  A    between atoms: C_9  and  C_15
                            x       y       z     vdW  Elec       q    Type
                         _______ _______ _______ _____ _____    ______ ____

>  <TORSDO>
F 1

$$$$
=
 OpenBabel11052413383D

 27 31  0  0  1  0  0  0  0  0999 V2000
  188.4920  176.6450  140.9000 N   0  0  0  0  0  2  0  0  0  0  0  0
  187.4190  178.2530  142.3850 C   0  0  0  0  0  0  0  0  0  0  0  0
  186.5100  178.5890  140.1200 N   0  0  0  0  0  2  0  0  0  0  0  0
  183.7040  179.2290  143.9860 N   0  0  0  0  0  0  0  0  0  0  0  0
  181.6230  178.3850  143.0300 C   0  0  0  0  0  1  0  0  0  0  0  0
  187.1780  178.2260  143.8620 C   0  0  0  0  0  3  0  0  0  0  0  0
  183.9120  178.6290  141.7970 C   0  0  2  0  0  3  0  0  0  0  0  0
  188.6440  179.5070  137.6030 C   0  0  0  0  0  2  0  0  0  0  0  0
  183.5650  177.8710  140.5590 C   0  0  0  0  0  1  0  0  0  0  0  0
  189.6150  178.6080  136.8320 C   0  0  0  0  0  2  0  0  0  0  0  0
  185.1260  179.0040  142.1720 C   0  0  1  0  0  3  0  0  0  0  0  0
  188.7340  177.7500  141.8270 C   0  0  1  0  0  3  0  0  0  0  0  0
  183.0540  178.7870  142.9600 C   0  0  0  0  0  0  0  0  0  0  0  0
  185.0780  179.5000  143.5790 C   0  0  2  0  0  3  0  0  0  0  0  0
  188.4240  177.1260  139.5160 C   0  0  2  0  0  3  0  0  0  0  0  0
  186.4070  178.6170  141.5550 C   0  0  0  0  0  0  0  0  0  0  0  0
  187.5150  178.7940  138.0200 O   0  0  0  0  0  0  0  0  0  0  0  0
  186.0780  178.7550  144.4180 C   0  0  0  0  0  3  0  0  0  0  0  0
  189.7090  177.1740  137.3670 C   0  0  0  0  0  2  0  0  0  0  0  0
  189.8150  177.1080  138.8870 C   0  0  0  0  0  2  0  0  0  0  0  0
  187.7580  178.5120  139.3700 C   0  0  1  0  0  3  0  0  0  0  0  0
  191.6810  176.6140  144.7490 C   0  0  0  0  0  3  0  0  0  0  0  0
  189.7530  177.3660  142.8610 C   0  0  0  0  0  0  0  0  0  0  0  0
  190.1860  176.0380  142.9320 C   0  0  0  0  0  3  0  0  0  0  0  0
  191.1480  175.6610  143.8760 C   0  0  0  0  0  3  0  0  0  0  0  0
  191.2550  177.9430  144.6790 C   0  0  0  0  0  3  0  0  0  0  0  0
  190.2950  178.3210  143.7370 C   0  0  0  0  0  3  0  0  0  0  0  0
  1 12  1  0  0  0  0
  2  6  1  0  0  0  0
  3 16  1  0  0  0  0
  6 18  2  0  0  0  0
  7  9  1  1  0  0  0
  7 11  1  0  0  0  0
  7 13  1  0  0  0  0
  8 17  1  0  0  0  0
 10 19  1  0  0  0  0
 10  8  1  0  0  0  0
 11 16  1  1  0  0  0
 11 14  1  0  0  0  0
 12  2  1  0  0  0  0
 12 23  1  1  0  0  0
 13  5  1  0  0  0  0
 13  4  2  0  0  0  0
 14  4  1  0  0  0  0
 14 18  1  1  0  0  0
 15 20  1  1  0  0  0
 15  1  1  0  0  0  0
 16  2  2  0  0  0  0
 19 20  1  0  0  0  0
 21 17  1  6  0  0  0
 21 15  1  0  0  0  0
 21  3  1  0  0  0  0
 23 24  2  0  0  0  0
 23 27  1  0  0  0  0
 24 25  1  0  0  0  0
 25 22  2  0  0  0  0
 26 22  1  0  0  0  0
 27 26  2  0  0  0  0
M  END
>  <MODEL>
5

>  <REMARK>
 VINA RESULT:      -8.3      1.558      1.941
  Name = 
  1 active torsions:
  status: ('A' for Active; 'I' for Inactive)
    1  A    between atoms: C_9  and  C_15
                            x       y       z     vdW  Elec       q    Type
                         _______ _______ _______ _____ _____    ______ ____

>  <TORSDO>
F 1

$$$$
=
 OpenBabel11052413383D

 27 31  0  0  1  0  0  0  0  0999 V2000
  186.5580  176.8880  144.6610 N   0  0  0  0  0  2  0  0  0  0  0  0
  187.2230  178.2080  142.7220 C   0  0  0  0  0  0  0  0  0  0  0  0
  189.2570  177.6650  144.0040 N   0  0  0  0  0  2  0  0  0  0  0  0
  189.4120  177.9340  139.1940 N   0  0  0  0  0  0  0  0  0  0  0  0
  191.0310  176.1470  138.8130 C   0  0  0  0  0  1  0  0  0  0  0  0
  186.5740  178.4000  141.3880 C   0  0  0  0  0  3  0  0  0  0  0  0
  190.1950  177.0180  141.1280 C   0  0  2  0  0  3  0  0  0  0  0  0
  189.5350  178.8040  147.2220 C   0  0  0  0  0  2  0  0  0  0  0  0
  190.7800  175.9420  141.9810 C   0  0  0  0  0  1  0  0  0  0  0  0
  188.8680  178.2260  148.4740 C   0  0  0  0  0  2  0  0  0  0  0  0
  189.2980  177.9170  141.5060 C   0  0  1  0  0  3  0  0  0  0  0  0
  186.3730  178.1660  143.9750 C   0  0  1  0  0  3  0  0  0  0  0  0
  190.2360  177.0630  139.6760 C   0  0  0  0  0  0  0  0  0  0  0  0
  188.7830  178.6380  140.3050 C   0  0  2  0  0  3  0  0  0  0  0  0
  187.5800  176.9970  145.7080 C   0  0  2  0  0  3  0  0  0  0  0  0
  188.5570  177.9530  142.7800 C   0  0  0  0  0  0  0  0  0  0  0  0
  189.7860  177.8050  146.2750 O   0  0  0  0  0  0  0  0  0  0  0  0
  187.2840  178.5500  140.2600 C   0  0  0  0  0  3  0  0  0  0  0  0
  187.8680  177.0980  148.1940 C   0  0  0  0  0  2  0  0  0  0  0  0
  186.9320  177.4030  147.0300 C   0  0  0  0  0  2  0  0  0  0  0  0
  188.7500  177.9360  145.3430 C   0  0  1  0  0  3  0  0  0  0  0  0
  182.1990  179.0280  143.3920 C   0  0  0  0  0  3  0  0  0  0  0  0
  184.9150  178.4500  143.7580 C   0  0  0  0  0  0  0  0  0  0  0  0
  184.1370  178.8840  144.8370 C   0  0  0  0  0  3  0  0  0  0  0  0
  182.7800  179.1710  144.6550 C   0  0  0  0  0  3  0  0  0  0  0  0
  182.9730  178.6000  142.3100 C   0  0  0  0  0  3  0  0  0  0  0  0
  184.3280  178.3120  142.4910 C   0  0  0  0  0  3  0  0  0  0  0  0
  1 15  1  0  0  0  0
  2 16  2  0  0  0  0
  2 12  1  0  0  0  0
  4 13  2  0  0  0  0
  4 14  1  0  0  0  0
  5 13  1  0  0  0  0
  6  2  1  0  0  0  0
  7 11  1  0  0  0  0
  7  9  1  6  0  0  0
  8 10  1  0  0  0  0
 11 16  1  6  0  0  0
 12 23  1  6  0  0  0
 12  1  1  0  0  0  0
 13  7  1  0  0  0  0
 14 18  1  6  0  0  0
 14 11  1  0  0  0  0
 15 20  1  1  0  0  0
 16  3  1  0  0  0  0
 17  8  1  0  0  0  0
 18  6  2  0  0  0  0
 19 10  1  0  0  0  0
 20 19  1  0  0  0  0
 21  3  1  6  0  0  0
 21 15  1  0  0  0  0
 21 17  1  0  0  0  0
 22 25  1  0  0  0  0
 23 24  1  0  0  0  0
 25 24  2  0  0  0  0
 26 27  1  0  0  0  0
 26 22  2  0  0  0  0
 27 23  2  0  0  0  0
M  END
>  <MODEL>
6

>  <REMARK>
 VINA RESULT:      -8.2      2.160      6.796
  Name = 
  1 active torsions:
  status: ('A' for Active; 'I' for Inactive)
    1  A    between atoms: C_9  and  C_15
                            x       y       z     vdW  Elec       q    Type
                         _______ _______ _______ _____ _____    ______ ____

>  <TORSDO>
F 1

$$$$
=
 OpenBabel11052413383D

 27 31  0  0  1  0  0  0  0  0999 V2000
  187.0420  176.9290  142.6630 N   0  0  0  0  0  2  0  0  0  0  0  0
  189.2100  177.7850  143.3760 C   0  0  0  0  0  0  0  0  0  0  0  0
  187.6230  178.0940  145.2370 N   0  0  0  0  0  2  0  0  0  0  0  0
  192.2480  177.0680  146.1280 N   0  0  0  0  0  0  0  0  0  0  0  0
  191.9040  175.6650  148.0960 C   0  0  0  0  0  1  0  0  0  0  0  0
  190.5980  177.4520  142.9310 C   0  0  0  0  0  3  0  0  0  0  0  0
  190.0580  176.9190  146.7400 C   0  0  2  0  0  3  0  0  0  0  0  0
  184.8880  180.1000  144.7610 C   0  0  0  0  0  2  0  0  0  0  0  0
  188.8650  176.2800  147.3700 C   0  0  0  0  0  1  0  0  0  0  0  0
  183.5950  179.7490  144.0180 C   0  0  0  0  0  2  0  0  0  0  0  0
  190.0620  177.6570  145.6400 C   0  0  1  0  0  3  0  0  0  0  0  0
  188.0960  177.8940  142.3560 C   0  0  1  0  0  3  0  0  0  0  0  0
  191.4440  176.5740  147.0110 C   0  0  0  0  0  0  0  0  0  0  0  0
  191.4710  177.8850  145.2030 C   0  0  2  0  0  3  0  0  0  0  0  0
  185.9770  177.5510  143.4590 C   0  0  2  0  0  3  0  0  0  0  0  0
  188.9420  177.8680  144.7060 C   0  0  0  0  0  0  0  0  0  0  0  0
  185.4590  178.9660  145.3490 O   0  0  0  0  0  0  0  0  0  0  0  0
  191.6410  177.4470  143.7760 C   0  0  0  0  0  3  0  0  0  0  0  0
  183.6220  178.3900  143.3100 C   0  0  0  0  0  2  0  0  0  0  0  0
  184.9130  178.1430  142.5370 C   0  0  0  0  0  2  0  0  0  0  0  0
  186.4870  178.5960  144.4740 C   0  0  1  0  0  3  0  0  0  0  0  0
  189.3400  177.5860  138.2490 C   0  0  0  0  0  3  0  0  0  0  0  0
  188.5360  177.7660  140.9260 C   0  0  0  0  0  0  0  0  0  0  0  0
  187.7730  178.3700  139.9210 C   0  0  0  0  0  3  0  0  0  0  0  0
  188.1730  178.2790  138.5830 C   0  0  0  0  0  3  0  0  0  0  0  0
  190.1090  176.9850  139.2490 C   0  0  0  0  0  3  0  0  0  0  0  0
  189.7100  177.0750  140.5850 C   0  0  0  0  0  3  0  0  0  0  0  0
  1 15  1  0  0  0  0
  2 16  2  0  0  0  0
  4 13  2  0  0  0  0
  6  2  1  0  0  0  0
  6 18  2  0  0  0  0
  7 13  1  0  0  0  0
  7  9  1  6  0  0  0
  8 17  1  0  0  0  0
 10  8  1  0  0  0  0
 11 16  1  6  0  0  0
 11  7  1  0  0  0  0
 12 23  1  6  0  0  0
 12  1  1  0  0  0  0
 12  2  1  0  0  0  0
 13  5  1  0  0  0  0
 14 18  1  6  0  0  0
 14 11  1  0  0  0  0
 14  4  1  0  0  0  0
 15 20  1  6  0  0  0
 15 21  1  0  0  0  0
 16  3  1  0  0  0  0
 19 10  1  0  0  0  0
 20 19  1  0  0  0  0
 21  3  1  1  0  0  0
 21 17  1  0  0  0  0
 22 25  2  0  0  0  0
 22 26  1  0  0  0  0
 24 23  2  0  0  0  0
 25 24  1  0  0  0  0
 26 27  2  0  0  0  0
 27 23  1  0  0  0  0
M  END
>  <MODEL>
7

>  <REMARK>
 VINA RESULT:      -8.1      1.948      6.588
  Name = 
  1 active torsions:
  status: ('A' for Active; 'I' for Inactive)
    1  A    between atoms: C_9  and  C_15
                            x       y       z     vdW  Elec       q    Type
                         _______ _______ _______ _____ _____    ______ ____

>  <TORSDO>
F 1

$$$$
=
 OpenBabel11052413383D

 27 31  0  0  1  0  0  0  0  0999 V2000
  184.5020  177.2190  138.2130 N   0  0  0  0  0  2  0  0  0  0  0  0
  186.5250  178.1580  139.1980 C   0  0  0  0  0  0  0  0  0  0  0  0
  184.5890  179.0980  140.4000 N   0  0  0  0  0  2  0  0  0  0  0  0
  188.7040  178.1960  142.7420 N   0  0  0  0  0  0  0  0  0  0  0  0
  187.7300  177.4890  144.8660 C   0  0  0  0  0  1  0  0  0  0  0  0
  187.9280  177.6420  139.2530 C   0  0  0  0  0  3  0  0  0  0  0  0
  186.4300  178.3410  142.7680 C   0  0  2  0  0  3  0  0  0  0  0  0
  182.3150  180.9750  138.6580 C   0  0  0  0  0  2  0  0  0  0  0  0
  185.0510  177.9820  143.2140 C   0  0  0  0  0  1  0  0  0  0  0  0
  181.2040  180.4680  137.7330 C   0  0  0  0  0  2  0  0  0  0  0  0
  186.7880  178.7000  141.5440 C   0  0  1  0  0  3  0  0  0  0  0  0
  185.7100  177.9930  137.9320 C   0  0  1  0  0  3  0  0  0  0  0  0
  187.6570  178.0360  143.4840 C   0  0  0  0  0  0  0  0  0  0  0  0
  188.2780  178.7200  141.4500 C   0  0  2  0  0  3  0  0  0  0  0  0
  183.3620  178.1020  138.4840 C   0  0  2  0  0  3  0  0  0  0  0  0
  185.9580  178.6610  140.3260 C   0  0  0  0  0  0  0  0  0  0  0  0
  182.5840  180.0550  139.6770 O   0  0  0  0  0  0  0  0  0  0  0  0
  188.7290  177.8540  140.3080 C   0  0  0  0  0  3  0  0  0  0  0  0
  181.2330  178.9560  137.4790 C   0  0  0  0  0  2  0  0  0  0  0  0
  182.6310  178.4260  137.1830 C   0  0  0  0  0  2  0  0  0  0  0  0
  183.7390  179.3880  139.2520 C   0  0  1  0  0  3  0  0  0  0  0  0
  187.8150  176.2800  134.5940 C   0  0  0  0  0  3  0  0  0  0  0  0
  186.4610  177.4090  136.7700 C   0  0  0  0  0  0  0  0  0  0  0  0
  186.4300  176.0260  136.5640 C   0  0  0  0  0  3  0  0  0  0  0  0
  187.1070  175.4610  135.4780 C   0  0  0  0  0  3  0  0  0  0  0  0
  187.8450  177.6630  134.7920 C   0  0  0  0  0  3  0  0  0  0  0  0
  187.1680  178.2280  135.8760 C   0  0  0  0  0  3  0  0  0  0  0  0
  1 15  1  0  0  0  0
  2  6  1  0  0  0  0
  2 16  2  0  0  0  0
  4 13  2  0  0  0  0
  6 18  2  0  0  0  0
  7  9  1  6  0  0  0
  7 13  1  0  0  0  0
  8 17  1  0  0  0  0
 10  8  1  0  0  0  0
 11 16  1  6  0  0  0
 11  7  1  0  0  0  0
 12 23  1  6  0  0  0
 12  1  1  0  0  0  0
 12  2  1  0  0  0  0
 13  5  1  0  0  0  0
 14 18  1  6  0  0  0
 14 11  1  0  0  0  0
 14  4  1  0  0  0  0
 15 20  1  6  0  0  0
 15 21  1  0  0  0  0
 16  3  1  0  0  0  0
 19 10  1  0  0  0  0
 20 19  1  0  0  0  0
 21 17  1  1  0  0  0
 21  3  1  0  0  0  0
 22 26  2  0  0  0  0
 22 25  1  0  0  0  0
 24 23  1  0  0  0  0
 25 24  2  0  0  0  0
 26 27  1  0  0  0  0
 27 23  2  0  0  0  0
M  END
>  <MODEL>
8

>  <REMARK>
 VINA RESULT:      -7.8      3.627      7.404
  Name = 
  1 active torsions:
  status: ('A' for Active; 'I' for Inactive)
    1  A    between atoms: C_9  and  C_15
                            x       y       z     vdW  Elec       q    Type
                         _______ _______ _______ _____ _____    ______ ____

>  <TORSDO>
F 1

$$$$
