=
 OpenBabel11052415583D

 34 39  0  0  1  0  0  0  0  0999 V2000
  180.3420  177.8660  139.1190 C   0  0  1  0  0  3  0  0  0  0  0  0
  182.7970  176.8780  136.3130 C   0  0  0  0  0  2  0  0  0  0  0  0
  180.7840  178.4020  136.3700 N   0  0  0  0  0  2  0  0  0  0  0  0
  181.2470  179.0700  141.1360 C   0  0  1  0  0  3  0  0  0  0  0  0
  180.4570  177.8620  140.6440 C   0  0  0  0  0  2  0  0  0  0  0  0
  180.6400  180.3870  139.1140 N   0  0  0  0  0  0  0  0  0  0  0  0
  182.0200  180.4260  138.6300 C   0  0  0  0  0  1  0  0  0  0  0  0
  180.6500  180.3690  140.5810 C   0  0  0  0  0  2  0  0  0  0  0  0
  179.8520  179.2230  137.0800 C   0  0  0  0  0  0  0  0  0  0  0  0
  179.8760  179.2370  138.5810 C   0  0  1  0  0  3  0  0  0  0  0  0
  179.0490  179.9580  136.4500 O   0  0  0  0  0  0  0  0  0  0  0  0
  184.1310  177.4440  136.7080 C   0  0  0  0  0  3  0  0  0  0  0  0
  184.6230  177.5340  137.9600 C   0  0  0  0  0  0  0  0  0  0  0  0
  183.8840  177.1800  139.2400 C   0  0  0  0  0  2  0  0  0  0  0  0
  181.6800  177.5240  137.0660 C   0  0  0  0  0  0  0  0  0  0  0  0
  182.5500  176.4500  139.0960 C   0  0  0  0  0  2  0  0  0  0  0  0
  181.5490  177.3140  138.3880 C   0  0  0  0  0  0  0  0  0  0  0  0
  185.9760  178.1500  138.1150 C   0  0  0  0  0  2  0  0  0  0  0  0
  187.6910  179.2440  136.8580 O   0  0  0  0  0  1  0  0  0  0  0  0
  186.6660  178.3010  136.7690 C   0  0  0  0  0  2  0  0  0  0  0  0
  181.3500  179.0960  142.6620 C   0  0  0  0  0  2  0  0  0  0  0  0
  185.0350  178.2260  142.7450 C   0  0  0  0  0  3  0  0  0  0  0  0
  182.9980  178.8950  144.5000 N   0  0  0  0  0  0  0  0  0  0  0  0
  186.8030  178.0990  145.9980 C   0  0  0  0  0  0  0  0  0  0  0  0
  186.5640  178.0360  144.6180 C   0  0  0  0  0  3  0  0  0  0  0  0
  185.2890  178.2980  144.1140 C   0  0  0  0  0  0  0  0  0  0  0  0
  184.4810  178.7210  146.3660 C   0  0  0  0  0  3  0  0  0  0  0  0
  184.2390  178.6410  144.9930 C   0  0  0  0  0  0  0  0  0  0  0  0
  185.7600  178.4570  146.8660 C   0  0  0  0  0  3  0  0  0  0  0  0
  182.7350  178.8280  143.1660 C   0  0  0  0  0  0  0  0  0  0  0  0
  183.7510  178.4910  142.2640 C   0  0  0  0  0  3  0  0  0  0  0  0
  188.1790  177.8620  146.5390 C   0  0  1  0  0  3  0  0  0  0  0  0
  188.2130  178.0820  147.9840 C   0  0  0  0  0  2  0  0  0  0  0  0
  188.1670  176.7120  147.4600 N   0  0  0  0  0  2  0  0  0  0  0  0
  1  5  1  1  0  0  0
  2 12  1  0  0  0  0
  2 15  1  0  0  0  0
  3 15  1  0  0  0  0
  3  9  1  0  0  0  0
  4 21  1  1  0  0  0
  5  4  1  0  0  0  0
  6  8  1  0  0  0  0
  7  6  1  0  0  0  0
  8  4  1  0  0  0  0
 10  9  1  6  0  0  0
 10  6  1  0  0  0  0
 10  1  1  0  0  0  0
 11  9  2  0  0  0  0
 12 13  2  0  0  0  0
 13 18  1  0  0  0  0
 13 14  1  0  0  0  0
 15 17  2  0  0  0  0
 16 14  1  0  0  0  0
 17 16  1  0  0  0  0
 17  1  1  0  0  0  0
 20 19  1  0  0  0  0
 20 18  1  0  0  0  0
 21 30  1  0  0  0  0
 22 26  1  0  0  0  0
 23 28  1  0  0  0  0
 24 29  1  0  0  0  0
 25 24  2  0  0  0  0
 26 25  1  0  0  0  0
 26 28  2  0  0  0  0
 27 29  2  0  0  0  0
 28 27  1  0  0  0  0
 30 23  2  0  0  0  0
 31 22  2  0  0  0  0
 31 30  1  0  0  0  0
 32 24  1  1  0  0  0
 32 34  1  0  0  0  0
 32 33  1  0  0  0  0
 34 33  1  0  0  0  0
M  END
>  <MODEL>
1

>  <REMARK>
 VINA RESULT:      -8.3      0.000      0.000
  Name = 
  5 active torsions:
  status: ('A' for Active; 'I' for Inactive)
    1  A    between atoms: C_3  and  C_24
    2  A    between atoms: C_3  and  C_25
    3  A    between atoms: C_7  and  C_11
    4  A    between atoms: C_8  and  C_18
    5  A    between atoms: C_18  and  C_30
                            x       y       z     vdW  Elec       q    Type
                         _______ _______ _______ _____ _____    ______ ____

>  <TORSDO>
F 5

$$$$
=
 OpenBabel11052415583D

 34 39  0  0  1  0  0  0  0  0999 V2000
  189.9340  176.1390  143.9740 C   0  0  1  0  0  3  0  0  0  0  0  0
  187.2450  177.0690  146.5790 C   0  0  0  0  0  2  0  0  0  0  0  0
  189.7690  177.0440  146.6560 N   0  0  0  0  0  2  0  0  0  0  0  0
  190.0640  177.4850  141.8500 C   0  0  1  0  0  3  0  0  0  0  0  0
  189.9210  176.0890  142.4450 C   0  0  0  0  0  2  0  0  0  0  0  0
  191.2430  178.3130  143.8790 N   0  0  0  0  0  0  0  0  0  0  0  0
  190.1530  179.2200  144.2380 C   0  0  0  0  0  1  0  0  0  0  0  0
  191.3010  178.1910  142.4180 C   0  0  0  0  0  2  0  0  0  0  0  0
  191.0450  177.0710  146.0080 C   0  0  0  0  0  0  0  0  0  0  0  0
  191.1130  176.9810  144.5110 C   0  0  1  0  0  3  0  0  0  0  0  0
  192.0960  177.2120  146.6850 O   0  0  0  0  0  0  0  0  0  0  0  0
  186.5610  178.2970  146.0510 C   0  0  0  0  0  3  0  0  0  0  0  0
  186.2940  178.5710  144.7570 C   0  0  0  0  0  0  0  0  0  0  0  0
  186.7270  177.7430  143.5590 C   0  0  0  0  0  2  0  0  0  0  0  0
  188.5620  176.8420  145.9090 C   0  0  0  0  0  0  0  0  0  0  0  0
  187.3240  176.3660  143.8420 C   0  0  0  0  0  2  0  0  0  0  0  0
  188.6060  176.4940  144.6110 C   0  0  0  0  0  0  0  0  0  0  0  0
  185.6120  179.8690  144.4650 C   0  0  0  0  0  2  0  0  0  0  0  0
  183.4680  179.1870  145.2750 O   0  0  0  0  0  1  0  0  0  0  0  0
  184.1410  179.6550  144.1450 C   0  0  0  0  0  2  0  0  0  0  0  0
  190.0790  177.4510  140.3210 C   0  0  0  0  0  2  0  0  0  0  0  0
  187.2290  177.4310  137.8270 C   0  0  0  0  0  3  0  0  0  0  0  0
  187.7250  178.2140  140.4380 N   0  0  0  0  0  0  0  0  0  0  0  0
  183.9440  178.8360  138.8050 C   0  0  0  0  0  0  0  0  0  0  0  0
  184.9480  178.2280  138.0380 C   0  0  0  0  0  3  0  0  0  0  0  0
  186.2170  178.0220  138.5830 C   0  0  0  0  0  0  0  0  0  0  0  0
  185.4820  179.0030  140.6800 C   0  0  0  0  0  3  0  0  0  0  0  0
  186.4880  178.4150  139.9110 C   0  0  0  0  0  0  0  0  0  0  0  0
  184.2130  179.2080  140.1310 C   0  0  0  0  0  3  0  0  0  0  0  0
  188.7230  177.6380  139.7130 C   0  0  0  0  0  0  0  0  0  0  0  0
  188.4920  177.2370  138.3920 C   0  0  0  0  0  3  0  0  0  0  0  0
  182.5680  179.0170  138.2400 C   0  0  1  0  0  3  0  0  0  0  0  0
  181.6360  179.4530  139.2790 C   0  0  0  0  0  2  0  0  0  0  0  0
  182.1720  180.4340  138.3280 N   0  0  0  0  0  2  0  0  0  0  0  0
  1  5  1  6  0  0  0
  1 10  1  0  0  0  0
  1 17  1  0  0  0  0
  4 21  1  6  0  0  0
  4  8  1  0  0  0  0
  4  5  1  0  0  0  0
  6  7  1  0  0  0  0
  6 10  1  0  0  0  0
  8  6  1  0  0  0  0
  9  3  1  0  0  0  0
  9 11  2  0  0  0  0
 10  9  1  1  0  0  0
 12  2  1  0  0  0  0
 13 12  2  0  0  0  0
 14 16  1  0  0  0  0
 14 13  1  0  0  0  0
 15  2  1  0  0  0  0
 15  3  1  0  0  0  0
 16 17  1  0  0  0  0
 17 15  2  0  0  0  0
 18 13  1  0  0  0  0
 20 18  1  0  0  0  0
 20 19  1  0  0  0  0
 22 31  2  0  0  0  0
 22 26  1  0  0  0  0
 24 29  1  0  0  0  0
 25 26  1  0  0  0  0
 25 24  2  0  0  0  0
 26 28  2  0  0  0  0
 28 23  1  0  0  0  0
 28 27  1  0  0  0  0
 29 27  2  0  0  0  0
 30 21  1  0  0  0  0
 30 23  2  0  0  0  0
 31 30  1  0  0  0  0
 32 34  1  0  0  0  0
 32 24  1  1  0  0  0
 32 33  1  0  0  0  0
 34 33  1  0  0  0  0
M  END
>  <MODEL>
2

>  <REMARK>
 VINA RESULT:      -8.1      3.736      9.552
  Name = 
  5 active torsions:
  status: ('A' for Active; 'I' for Inactive)
    1  A    between atoms: C_3  and  C_24
    2  A    between atoms: C_3  and  C_25
    3  A    between atoms: C_7  and  C_11
    4  A    between atoms: C_8  and  C_18
    5  A    between atoms: C_18  and  C_30
                            x       y       z     vdW  Elec       q    Type
                         _______ _______ _______ _____ _____    ______ ____

>  <TORSDO>
F 5

$$$$
=
 OpenBabel11052415583D

 34 39  0  0  1  0  0  0  0  0999 V2000
  190.4150  176.2230  144.1130 C   0  0  1  0  0  3  0  0  0  0  0  0
  186.8670  177.0170  145.4050 C   0  0  0  0  0  2  0  0  0  0  0  0
  189.1620  177.2890  146.4230 N   0  0  0  0  0  2  0  0  0  0  0  0
  191.2410  177.4220  142.0600 C   0  0  1  0  0  3  0  0  0  0  0  0
  190.9930  176.0640  142.7070 C   0  0  0  0  0  2  0  0  0  0  0  0
  191.4820  178.5210  144.2800 N   0  0  0  0  0  0  0  0  0  0  0  0
  190.2690  179.3190  144.1030 C   0  0  0  0  0  1  0  0  0  0  0  0
  192.1050  178.3040  142.9690 C   0  0  0  0  0  2  0  0  0  0  0  0
  190.5820  177.4170  146.3020 C   0  0  0  0  0  0  0  0  0  0  0  0
  191.2260  177.2300  144.9580 C   0  0  1  0  0  3  0  0  0  0  0  0
  191.2780  177.7250  147.3030 O   0  0  0  0  0  0  0  0  0  0  0  0
  186.3430  178.1180  144.5290 C   0  0  0  0  0  3  0  0  0  0  0  0
  186.5700  178.2670  143.2080 C   0  0  0  0  0  0  0  0  0  0  0  0
  187.4950  177.4120  142.3570 C   0  0  0  0  0  2  0  0  0  0  0  0
  188.3540  176.8970  145.3060 C   0  0  0  0  0  0  0  0  0  0  0  0
  188.0460  176.1370  142.9900 C   0  0  0  0  0  2  0  0  0  0  0  0
  188.9200  176.4660  144.1650 C   0  0  0  0  0  0  0  0  0  0  0  0
  185.9520  179.4540  142.5420 C   0  0  0  0  0  2  0  0  0  0  0  0
  184.9600  179.7370  140.3850 O   0  0  0  0  0  1  0  0  0  0  0  0
  184.8500  179.0310  141.5830 C   0  0  0  0  0  2  0  0  0  0  0  0
  191.8430  177.2820  140.6610 C   0  0  0  0  0  2  0  0  0  0  0  0
  190.1490  175.8380  137.5980 C   0  0  0  0  0  3  0  0  0  0  0  0
  189.6320  177.6660  139.6140 N   0  0  0  0  0  0  0  0  0  0  0  0
  186.7580  177.0070  136.6710 C   0  0  0  0  0  0  0  0  0  0  0  0
  187.9690  176.3010  136.6400 C   0  0  0  0  0  3  0  0  0  0  0  0
  188.9350  176.5230  137.6240 C   0  0  0  0  0  0  0  0  0  0  0  0
  187.4750  178.1410  138.6990 C   0  0  0  0  0  3  0  0  0  0  0  0
  188.6890  177.4510  138.6590 C   0  0  0  0  0  0  0  0  0  0  0  0
  186.5110  177.9160  137.7120 C   0  0  0  0  0  3  0  0  0  0  0  0
  190.8220  177.0040  139.6020 C   0  0  0  0  0  0  0  0  0  0  0  0
  191.1010  176.0770  138.5910 C   0  0  0  0  0  3  0  0  0  0  0  0
  185.7010  176.7390  135.6440 C   0  0  1  0  0  3  0  0  0  0  0  0
  185.8550  175.3980  135.0810 C   0  0  0  0  0  2  0  0  0  0  0  0
  184.8250  175.6440  136.0980 N   0  0  0  0  0  2  0  0  0  0  0  0
  1  5  1  6  0  0  0
  1 17  1  0  0  0  0
  1 10  1  0  0  0  0
  4 21  1  6  0  0  0
  4  5  1  0  0  0  0
  4  8  1  0  0  0  0
  6 10  1  0  0  0  0
  7  6  1  0  0  0  0
  8  6  1  0  0  0  0
  9  3  1  0  0  0  0
  9 11  2  0  0  0  0
 10  9  1  1  0  0  0
 12  2  1  0  0  0  0
 13 12  2  0  0  0  0
 14 16  1  0  0  0  0
 14 13  1  0  0  0  0
 15  2  1  0  0  0  0
 15  3  1  0  0  0  0
 16 17  1  0  0  0  0
 17 15  2  0  0  0  0
 18 13  1  0  0  0  0
 19 20  1  0  0  0  0
 20 18  1  0  0  0  0
 22 26  2  0  0  0  0
 22 31  1  0  0  0  0
 24 29  1  0  0  0  0
 25 24  2  0  0  0  0
 25 26  1  0  0  0  0
 26 28  1  0  0  0  0
 28 27  1  0  0  0  0
 28 23  2  0  0  0  0
 29 27  2  0  0  0  0
 30 23  1  0  0  0  0
 30 21  1  0  0  0  0
 31 30  2  0  0  0  0
 32 34  1  0  0  0  0
 32 24  1  1  0  0  0
 33 32  1  0  0  0  0
 33 34  1  0  0  0  0
M  END
>  <MODEL>
3

>  <REMARK>
 VINA RESULT:      -8.0      4.121      9.960
  Name = 
  5 active torsions:
  status: ('A' for Active; 'I' for Inactive)
    1  A    between atoms: C_3  and  C_24
    2  A    between atoms: C_3  and  C_25
    3  A    between atoms: C_7  and  C_11
    4  A    between atoms: C_8  and  C_18
    5  A    between atoms: C_18  and  C_30
                            x       y       z     vdW  Elec       q    Type
                         _______ _______ _______ _____ _____    ______ ____

>  <TORSDO>
F 5

$$$$
=
 OpenBabel11052415583D

 34 39  0  0  1  0  0  0  0  0999 V2000
  190.4400  176.1860  144.0230 C   0  0  1  0  0  3  0  0  0  0  0  0
  187.0100  176.9970  145.5900 C   0  0  0  0  0  2  0  0  0  0  0  0
  189.3760  177.1940  146.4500 N   0  0  0  0  0  2  0  0  0  0  0  0
  191.1420  177.4410  141.9560 C   0  0  1  0  0  3  0  0  0  0  0  0
  190.9140  176.0660  142.5740 C   0  0  0  0  0  2  0  0  0  0  0  0
  191.5610  178.4590  144.1880 N   0  0  0  0  0  0  0  0  0  0  0  0
  190.3550  179.2830  144.1250 C   0  0  0  0  0  1  0  0  0  0  0  0
  192.0860  178.2770  142.8300 C   0  0  0  0  0  2  0  0  0  0  0  0
  190.7860  177.3020  146.2320 C   0  0  0  0  0  0  0  0  0  0  0  0
  191.3290  177.1510  144.8400 C   0  0  1  0  0  3  0  0  0  0  0  0
  191.5570  177.5640  147.1900 O   0  0  0  0  0  0  0  0  0  0  0  0
  186.4460  178.1360  144.7910 C   0  0  0  0  0  3  0  0  0  0  0  0
  186.5820  178.3260  143.4620 C   0  0  0  0  0  0  0  0  0  0  0  0
  187.4270  177.4850  142.5200 C   0  0  0  0  0  2  0  0  0  0  0  0
  188.4830  176.8550  145.3810 C   0  0  0  0  0  0  0  0  0  0  0  0
  187.9970  176.1800  143.0700 C   0  0  0  0  0  2  0  0  0  0  0  0
  188.9580  176.4530  144.1890 C   0  0  0  0  0  0  0  0  0  0  0  0
  185.9410  179.5460  142.8820 C   0  0  0  0  0  2  0  0  0  0  0  0
  185.3150  179.5460  140.5740 O   0  0  0  0  0  1  0  0  0  0  0  0
  184.8890  179.1720  141.8490 C   0  0  0  0  0  2  0  0  0  0  0  0
  191.6410  177.3390  140.5140 C   0  0  0  0  0  2  0  0  0  0  0  0
  188.4140  177.4140  138.5350 C   0  0  0  0  0  3  0  0  0  0  0  0
  190.6900  175.8540  138.7750 N   0  0  0  0  0  0  0  0  0  0  0  0
  187.7140  174.7210  136.0890 C   0  0  0  0  0  0  0  0  0  0  0  0
  187.5620  175.8860  136.8550 C   0  0  0  0  0  3  0  0  0  0  0  0
  188.5570  176.2650  137.7580 C   0  0  0  0  0  0  0  0  0  0  0  0
  189.8820  174.3320  137.1180 C   0  0  0  0  0  3  0  0  0  0  0  0
  189.7240  175.4820  137.8940 C   0  0  0  0  0  0  0  0  0  0  0  0
  188.8840  173.9550  136.2150 C   0  0  0  0  0  3  0  0  0  0  0  0
  190.5640  176.9730  139.5400 C   0  0  0  0  0  0  0  0  0  0  0  0
  189.4200  177.7730  139.4330 C   0  0  0  0  0  3  0  0  0  0  0  0
  186.6710  174.3340  135.0860 C   0  0  1  0  0  3  0  0  0  0  0  0
  186.9000  172.9750  134.5980 C   0  0  0  0  0  2  0  0  0  0  0  0
  185.8620  173.2170  135.6070 N   0  0  0  0  0  2  0  0  0  0  0  0
  1  5  1  6  0  0  0
  1 17  1  0  0  0  0
  1 10  1  0  0  0  0
  4 21  1  6  0  0  0
  4  5  1  0  0  0  0
  4  8  1  0  0  0  0
  6 10  1  0  0  0  0
  7  6  1  0  0  0  0
  8  6  1  0  0  0  0
  9  3  1  0  0  0  0
  9 11  2  0  0  0  0
 10  9  1  1  0  0  0
 12  2  1  0  0  0  0
 13 12  2  0  0  0  0
 14 16  1  0  0  0  0
 14 13  1  0  0  0  0
 15  2  1  0  0  0  0
 15  3  1  0  0  0  0
 16 17  1  0  0  0  0
 17 15  2  0  0  0  0
 18 13  1  0  0  0  0
 19 20  1  0  0  0  0
 20 18  1  0  0  0  0
 22 31  1  0  0  0  0
 23 30  1  0  0  0  0
 24 29  1  0  0  0  0
 24 25  2  0  0  0  0
 25 26  1  0  0  0  0
 26 28  1  0  0  0  0
 26 22  2  0  0  0  0
 27 28  1  0  0  0  0
 28 23  2  0  0  0  0
 29 27  2  0  0  0  0
 30 21  1  0  0  0  0
 31 30  2  0  0  0  0
 32 34  1  0  0  0  0
 32 24  1  1  0  0  0
 33 32  1  0  0  0  0
 33 34  1  0  0  0  0
M  END
>  <MODEL>
4

>  <REMARK>
 VINA RESULT:      -7.8      4.547     10.295
  Name = 
  5 active torsions:
  status: ('A' for Active; 'I' for Inactive)
    1  A    between atoms: C_3  and  C_24
    2  A    between atoms: C_3  and  C_25
    3  A    between atoms: C_7  and  C_11
    4  A    between atoms: C_8  and  C_18
    5  A    between atoms: C_18  and  C_30
                            x       y       z     vdW  Elec       q    Type
                         _______ _______ _______ _____ _____    ______ ____

>  <TORSDO>
F 5

$$$$
=
 OpenBabel11052415583D

 34 39  0  0  1  0  0  0  0  0999 V2000
  181.7150  177.4790  139.8470 C   0  0  1  0  0  3  0  0  0  0  0  0
  181.2550  179.1010  136.3770 C   0  0  0  0  0  2  0  0  0  0  0  0
  180.1200  177.1580  137.5250 N   0  0  0  0  0  2  0  0  0  0  0  0
  181.2760  178.8780  141.8930 C   0  0  1  0  0  3  0  0  0  0  0  0
  182.2870  178.0000  141.1660 C   0  0  0  0  0  2  0  0  0  0  0  0
  179.3670  177.7330  140.7800 N   0  0  0  0  0  0  0  0  0  0  0  0
  178.9830  178.9310  140.0340 C   0  0  0  0  0  1  0  0  0  0  0  0
  179.9430  178.1380  142.0670 C   0  0  0  0  0  2  0  0  0  0  0  0
  179.7500  176.4410  138.7060 C   0  0  0  0  0  0  0  0  0  0  0  0
  180.3080  176.8690  140.0330 C   0  0  1  0  0  3  0  0  0  0  0  0
  178.9310  175.4890  138.6380 O   0  0  0  0  0  0  0  0  0  0  0  0
  180.7290  180.4840  136.6310 C   0  0  0  0  0  3  0  0  0  0  0  0
  181.0670  181.2940  137.6550 C   0  0  0  0  0  0  0  0  0  0  0  0
  181.9690  180.9310  138.8230 C   0  0  0  0  0  2  0  0  0  0  0  0
  181.0840  178.2200  137.5720 C   0  0  0  0  0  0  0  0  0  0  0  0
  182.7410  179.6170  138.7260 C   0  0  0  0  0  2  0  0  0  0  0  0
  181.7980  178.4510  138.6880 C   0  0  0  0  0  0  0  0  0  0  0  0
  180.4010  182.6310  137.7120 C   0  0  0  0  0  2  0  0  0  0  0  0
  181.9370  184.3880  137.1900 O   0  0  0  0  0  1  0  0  0  0  0  0
  180.9530  183.5630  136.6440 C   0  0  0  0  0  2  0  0  0  0  0  0
  181.8220  179.3880  143.2270 C   0  0  0  0  0  2  0  0  0  0  0  0
  185.4020  178.2900  142.6640 C   0  0  0  0  0  3  0  0  0  0  0  0
  183.6810  178.8300  144.7660 N   0  0  0  0  0  0  0  0  0  0  0  0
  187.5760  177.5990  145.5830 C   0  0  0  0  0  0  0  0  0  0  0  0
  187.1500  177.7450  144.2550 C   0  0  0  0  0  3  0  0  0  0  0  0
  185.8440  178.1530  143.9790 C   0  0  0  0  0  0  0  0  0  0  0  0
  185.3830  178.3050  146.3600 C   0  0  0  0  0  3  0  0  0  0  0  0
  184.9530  178.4330  145.0380 C   0  0  0  0  0  0  0  0  0  0  0  0
  186.6920  177.8950  146.6320 C   0  0  0  0  0  3  0  0  0  0  0  0
  183.2360  178.9680  143.4870 C   0  0  0  0  0  0  0  0  0  0  0  0
  184.0910  178.6980  142.4120 C   0  0  0  0  0  3  0  0  0  0  0  0
  188.9900  177.2040  145.8830 C   0  0  1  0  0  3  0  0  0  0  0  0
  189.7320  176.9580  144.6480 C   0  0  0  0  0  2  0  0  0  0  0  0
  189.9180  178.2250  145.3640 N   0  0  0  0  0  2  0  0  0  0  0  0
  1 10  1  0  0  0  0
  1  5  1  1  0  0  0
  2 12  1  0  0  0  0
  2 15  1  0  0  0  0
  3 15  1  0  0  0  0
  3  9  1  0  0  0  0
  4  8  1  0  0  0  0
  4 21  1  1  0  0  0
  5  4  1  0  0  0  0
  6  8  1  0  0  0  0
  7  6  1  0  0  0  0
 10  9  1  6  0  0  0
 10  6  1  0  0  0  0
 11  9  2  0  0  0  0
 12 13  2  0  0  0  0
 13 18  1  0  0  0  0
 13 14  1  0  0  0  0
 15 17  2  0  0  0  0
 16 14  1  0  0  0  0
 17 16  1  0  0  0  0
 17  1  1  0  0  0  0
 20 19  1  0  0  0  0
 20 18  1  0  0  0  0
 21 30  1  0  0  0  0
 22 26  1  0  0  0  0
 23 28  1  0  0  0  0
 24 29  1  0  0  0  0
 25 24  2  0  0  0  0
 26 25  1  0  0  0  0
 26 28  2  0  0  0  0
 27 29  2  0  0  0  0
 28 27  1  0  0  0  0
 30 23  2  0  0  0  0
 31 22  2  0  0  0  0
 31 30  1  0  0  0  0
 32 24  1  6  0  0  0
 33 34  1  0  0  0  0
 33 32  1  0  0  0  0
 34 32  1  0  0  0  0
M  END
>  <MODEL>
5

>  <REMARK>
 VINA RESULT:      -7.8      2.442      3.322
  Name = 
  5 active torsions:
  status: ('A' for Active; 'I' for Inactive)
    1  A    between atoms: C_3  and  C_24
    2  A    between atoms: C_3  and  C_25
    3  A    between atoms: C_7  and  C_11
    4  A    between atoms: C_8  and  C_18
    5  A    between atoms: C_18  and  C_30
                            x       y       z     vdW  Elec       q    Type
                         _______ _______ _______ _____ _____    ______ ____

>  <TORSDO>
F 5

$$$$
=
 OpenBabel11052415583D

 34 39  0  0  1  0  0  0  0  0999 V2000
  190.1150  176.9790  136.4360 C   0  0  1  0  0  3  0  0  0  0  0  0
  186.5460  177.5060  135.0680 C   0  0  0  0  0  2  0  0  0  0  0  0
  188.2500  175.6690  134.7490 N   0  0  0  0  0  2  0  0  0  0  0  0
  190.4270  176.7650  138.9240 C   0  0  1  0  0  3  0  0  0  0  0  0
  190.8420  177.5200  137.6670 C   0  0  0  0  0  2  0  0  0  0  0  0
  189.8260  174.7430  137.6040 N   0  0  0  0  0  0  0  0  0  0  0  0
  188.4020  174.8640  137.9210 C   0  0  0  0  0  1  0  0  0  0  0  0
  190.6100  175.2550  138.7340 C   0  0  0  0  0  2  0  0  0  0  0  0
  189.4060  174.9420  135.1750 C   0  0  0  0  0  0  0  0  0  0  0  0
  190.1960  175.4380  136.3510 C   0  0  1  0  0  3  0  0  0  0  0  0
  189.7310  173.8730  134.5960 O   0  0  0  0  0  0  0  0  0  0  0  0
  185.6300  177.4300  136.2550 C   0  0  0  0  0  3  0  0  0  0  0  0
  185.8920  177.8820  137.4980 C   0  0  0  0  0  0  0  0  0  0  0  0
  187.2100  178.4640  137.9800 C   0  0  0  0  0  2  0  0  0  0  0  0
  187.8840  176.9100  135.3660 C   0  0  0  0  0  0  0  0  0  0  0  0
  188.2650  178.7740  136.9200 C   0  0  0  0  0  2  0  0  0  0  0  0
  188.7120  177.5160  136.2360 C   0  0  0  0  0  0  0  0  0  0  0  0
  184.8290  177.6840  138.5300 C   0  0  0  0  0  2  0  0  0  0  0  0
  184.3800  179.9380  139.1890 O   0  0  0  0  0  1  0  0  0  0  0  0
  183.8380  178.8370  138.5240 C   0  0  0  0  0  2  0  0  0  0  0  0
  191.1640  177.2770  140.1630 C   0  0  0  0  0  2  0  0  0  0  0  0
  190.0100  176.9640  143.7560 C   0  0  0  0  0  3  0  0  0  0  0  0
  189.0050  177.7280  141.2900 N   0  0  0  0  0  0  0  0  0  0  0  0
  186.5140  177.8240  144.6280 C   0  0  0  0  0  0  0  0  0  0  0  0
  187.8490  177.4160  144.7600 C   0  0  0  0  0  3  0  0  0  0  0  0
  188.6840  177.3800  143.6420 C   0  0  0  0  0  0  0  0  0  0  0  0
  186.8650  178.1890  142.2490 C   0  0  0  0  0  3  0  0  0  0  0  0
  188.1890  177.7650  142.3770 C   0  0  0  0  0  0  0  0  0  0  0  0
  186.0310  178.2230  143.3720 C   0  0  0  0  0  3  0  0  0  0  0  0
  190.3020  177.3240  141.3870 C   0  0  0  0  0  0  0  0  0  0  0  0
  190.8270  176.9340  142.6240 C   0  0  0  0  0  3  0  0  0  0  0  0
  185.6270  177.9080  145.8320 C   0  0  1  0  0  3  0  0  0  0  0  0
  186.3920  178.3120  147.0110 C   0  0  0  0  0  2  0  0  0  0  0  0
  185.5620  179.3000  146.3120 N   0  0  0  0  0  2  0  0  0  0  0  0
  1  5  1  1  0  0  0
  2 15  1  0  0  0  0
  2 12  1  0  0  0  0
  3  9  1  0  0  0  0
  3 15  1  0  0  0  0
  4 21  1  1  0  0  0
  5  4  1  0  0  0  0
  6  7  1  0  0  0  0
  6  8  1  0  0  0  0
  8  4  1  0  0  0  0
 10  9  1  6  0  0  0
 10  1  1  0  0  0  0
 10  6  1  0  0  0  0
 11  9  2  0  0  0  0
 12 13  2  0  0  0  0
 13 14  1  0  0  0  0
 13 18  1  0  0  0  0
 15 17  2  0  0  0  0
 16 14  1  0  0  0  0
 17  1  1  0  0  0  0
 17 16  1  0  0  0  0
 20 18  1  0  0  0  0
 20 19  1  0  0  0  0
 21 30  1  0  0  0  0
 23 30  2  0  0  0  0
 23 28  1  0  0  0  0
 24 25  1  0  0  0  0
 26 22  1  0  0  0  0
 26 25  2  0  0  0  0
 27 28  2  0  0  0  0
 27 29  1  0  0  0  0
 28 26  1  0  0  0  0
 29 24  2  0  0  0  0
 30 31  1  0  0  0  0
 31 22  2  0  0  0  0
 32 24  1  6  0  0  0
 32 34  1  0  0  0  0
 32 33  1  0  0  0  0
 34 33  1  0  0  0  0
M  END
>  <MODEL>
6

>  <REMARK>
 VINA RESULT:      -7.5      4.008      7.064
  Name = 
  5 active torsions:
  status: ('A' for Active; 'I' for Inactive)
    1  A    between atoms: C_3  and  C_24
    2  A    between atoms: C_3  and  C_25
    3  A    between atoms: C_7  and  C_11
    4  A    between atoms: C_8  and  C_18
    5  A    between atoms: C_18  and  C_30
                            x       y       z     vdW  Elec       q    Type
                         _______ _______ _______ _____ _____    ______ ____

>  <TORSDO>
F 5

$$$$
=
 OpenBabel11052415583D

 34 39  0  0  1  0  0  0  0  0999 V2000
  181.9800  177.4520  139.8440 C   0  0  1  0  0  3  0  0  0  0  0  0
  181.1900  179.0720  136.4330 C   0  0  0  0  0  2  0  0  0  0  0  0
  180.1140  177.1870  137.7250 N   0  0  0  0  0  2  0  0  0  0  0  0
  181.8400  178.8810  141.9120 C   0  0  1  0  0  3  0  0  0  0  0  0
  182.7220  177.9560  141.0820 C   0  0  0  0  0  2  0  0  0  0  0  0
  179.7680  177.8130  141.0390 N   0  0  0  0  0  0  0  0  0  0  0  0
  179.3510  179.0220  140.3290 C   0  0  0  0  0  1  0  0  0  0  0  0
  180.5070  178.2000  142.2460 C   0  0  0  0  0  2  0  0  0  0  0  0
  179.8540  176.4930  138.9490 C   0  0  0  0  0  0  0  0  0  0  0  0
  180.5790  176.9040  140.1980 C   0  0  1  0  0  3  0  0  0  0  0  0
  178.9920  175.5770  138.9860 O   0  0  0  0  0  0  0  0  0  0  0  0
  180.7550  180.4780  136.7310 C   0  0  0  0  0  3  0  0  0  0  0  0
  181.2440  181.2780  137.7000 C   0  0  0  0  0  0  0  0  0  0  0  0
  182.2580  180.8840  138.7600 C   0  0  0  0  0  2  0  0  0  0  0  0
  181.1210  178.2060  137.6490 C   0  0  0  0  0  0  0  0  0  0  0  0
  182.9590  179.5370  138.5890 C   0  0  0  0  0  2  0  0  0  0  0  0
  181.9680  178.4130  138.6730 C   0  0  0  0  0  0  0  0  0  0  0  0
  180.6460  182.6430  137.8190 C   0  0  0  0  0  2  0  0  0  0  0  0
  181.6930  184.5750  136.8760 O   0  0  0  0  0  1  0  0  0  0  0  0
  180.9060  183.4650  136.5660 C   0  0  0  0  0  2  0  0  0  0  0  0
  182.5590  179.3750  143.1690 C   0  0  0  0  0  2  0  0  0  0  0  0
  185.7370  177.8860  144.5890 C   0  0  0  0  0  3  0  0  0  0  0  0
  184.8060  178.9620  142.2130 N   0  0  0  0  0  0  0  0  0  0  0  0
  188.7550  177.6580  142.4520 C   0  0  0  0  0  0  0  0  0  0  0  0
  187.9090  177.5430  143.5650 C   0  0  0  0  0  3  0  0  0  0  0  0
  186.5860  177.9830  143.4870 C   0  0  0  0  0  0  0  0  0  0  0  0
  186.9320  178.6320  141.1720 C   0  0  0  0  0  3  0  0  0  0  0  0
  186.0940  178.5340  142.2840 C   0  0  0  0  0  0  0  0  0  0  0  0
  188.2560  178.1900  141.2540 C   0  0  0  0  0  3  0  0  0  0  0  0
  183.9650  178.8740  143.2800 C   0  0  0  0  0  0  0  0  0  0  0  0
  184.4190  178.3340  144.4900 C   0  0  0  0  0  3  0  0  0  0  0  0
  190.1610  177.1470  142.5170 C   0  0  1  0  0  3  0  0  0  0  0  0
  190.3750  176.3730  143.7400 C   0  0  0  0  0  2  0  0  0  0  0  0
  190.1630  175.6730  142.4670 N   0  0  0  0  0  2  0  0  0  0  0  0
  1 10  1  0  0  0  0
  1  5  1  1  0  0  0
  2 12  1  0  0  0  0
  2 15  1  0  0  0  0
  3  9  1  0  0  0  0
  4  8  1  0  0  0  0
  4 21  1  1  0  0  0
  5  4  1  0  0  0  0
  6  8  1  0  0  0  0
  7  6  1  0  0  0  0
  9 11  2  0  0  0  0
 10  9  1  6  0  0  0
 10  6  1  0  0  0  0
 12 13  2  0  0  0  0
 13 18  1  0  0  0  0
 13 14  1  0  0  0  0
 15  3  1  0  0  0  0
 15 17  2  0  0  0  0
 16 17  1  0  0  0  0
 16 14  1  0  0  0  0
 17  1  1  0  0  0  0
 20 19  1  0  0  0  0
 20 18  1  0  0  0  0
 21 30  1  0  0  0  0
 23 28  2  0  0  0  0
 23 30  1  0  0  0  0
 24 25  2  0  0  0  0
 26 25  1  0  0  0  0
 26 22  2  0  0  0  0
 27 29  2  0  0  0  0
 27 28  1  0  0  0  0
 28 26  1  0  0  0  0
 29 24  1  0  0  0  0
 30 31  2  0  0  0  0
 31 22  1  0  0  0  0
 32 24  1  1  0  0  0
 32 33  1  0  0  0  0
 34 32  1  0  0  0  0
 34 33  1  0  0  0  0
M  END
>  <MODEL>
7

>  <REMARK>
 VINA RESULT:      -7.3      2.777      4.006
  Name = 
  5 active torsions:
  status: ('A' for Active; 'I' for Inactive)
    1  A    between atoms: C_3  and  C_24
    2  A    between atoms: C_3  and  C_25
    3  A    between atoms: C_7  and  C_11
    4  A    between atoms: C_8  and  C_18
    5  A    between atoms: C_18  and  C_30
                            x       y       z     vdW  Elec       q    Type
                         _______ _______ _______ _____ _____    ______ ____

>  <TORSDO>
F 5

$$$$
=
 OpenBabel11052415583D

 34 39  0  0  1  0  0  0  0  0999 V2000
  189.2090  177.0530  136.0940 C   0  0  1  0  0  3  0  0  0  0  0  0
  185.5440  176.9540  134.8910 C   0  0  0  0  0  2  0  0  0  0  0  0
  187.4700  175.3360  134.6550 N   0  0  0  0  0  2  0  0  0  0  0  0
  189.6570  177.1460  138.5690 C   0  0  1  0  0  3  0  0  0  0  0  0
  189.9080  177.8130  137.2220 C   0  0  0  0  0  2  0  0  0  0  0  0
  189.2840  174.9340  137.4910 N   0  0  0  0  0  0  0  0  0  0  0  0
  187.8730  174.8970  137.8770 C   0  0  0  0  0  1  0  0  0  0  0  0
  190.0400  175.6620  138.5170 C   0  0  0  0  0  2  0  0  0  0  0  0
  188.7340  174.8190  135.0830 C   0  0  0  0  0  0  0  0  0  0  0  0
  189.4990  175.5370  136.1560 C   0  0  1  0  0  3  0  0  0  0  0  0
  189.1770  173.7480  134.5940 O   0  0  0  0  0  0  0  0  0  0  0  0
  184.7020  176.8810  136.1320 C   0  0  0  0  0  3  0  0  0  0  0  0
  184.9530  177.4920  137.3080 C   0  0  0  0  0  0  0  0  0  0  0  0
  186.1980  178.2920  137.6520 C   0  0  0  0  0  2  0  0  0  0  0  0
  186.9640  176.5760  135.1690 C   0  0  0  0  0  0  0  0  0  0  0  0
  187.1520  178.6270  136.5080 C   0  0  0  0  0  2  0  0  0  0  0  0
  187.7380  177.3750  135.9250 C   0  0  0  0  0  0  0  0  0  0  0  0
  183.9740  177.2640  138.4140 C   0  0  0  0  0  2  0  0  0  0  0  0
  182.2770  175.7880  139.2270 O   0  0  0  0  0  1  0  0  0  0  0  0
  183.2590  175.9330  138.2460 C   0  0  0  0  0  2  0  0  0  0  0  0
  190.3710  177.8790  139.7060 C   0  0  0  0  0  2  0  0  0  0  0  0
  187.6580  177.5210  142.3230 C   0  0  0  0  0  3  0  0  0  0  0  0
  190.4180  177.6940  142.1760 N   0  0  0  0  0  0  0  0  0  0  0  0
  188.5930  177.3470  145.9040 C   0  0  0  0  0  0  0  0  0  0  0  0
  187.8120  177.3670  144.7390 C   0  0  0  0  0  3  0  0  0  0  0  0
  188.4220  177.4870  143.4890 C   0  0  0  0  0  0  0  0  0  0  0  0
  190.6050  177.5390  144.5530 C   0  0  0  0  0  3  0  0  0  0  0  0
  189.8280  177.5760  143.3940 C   0  0  0  0  0  0  0  0  0  0  0  0
  189.9900  177.4190  145.8030 C   0  0  0  0  0  3  0  0  0  0  0  0
  189.6850  177.7280  141.0290 C   0  0  0  0  0  0  0  0  0  0  0  0
  188.2890  177.6430  141.0840 C   0  0  0  0  0  3  0  0  0  0  0  0
  187.9460  177.1740  147.2440 C   0  0  1  0  0  3  0  0  0  0  0  0
  188.6150  177.9940  148.2520 C   0  0  0  0  0  2  0  0  0  0  0  0
  187.3420  178.4460  147.6790 N   0  0  0  0  0  2  0  0  0  0  0  0
  1 10  1  0  0  0  0
  1  5  1  1  0  0  0
  2 15  1  0  0  0  0
  2 12  1  0  0  0  0
  3  9  1  0  0  0  0
  3 15  1  0  0  0  0
  4 21  1  1  0  0  0
  5  4  1  0  0  0  0
  6  7  1  0  0  0  0
  6  8  1  0  0  0  0
  8  4  1  0  0  0  0
 10  9  1  6  0  0  0
 10  6  1  0  0  0  0
 11  9  2  0  0  0  0
 12 13  2  0  0  0  0
 13 14  1  0  0  0  0
 13 18  1  0  0  0  0
 15 17  2  0  0  0  0
 16 14  1  0  0  0  0
 17  1  1  0  0  0  0
 17 16  1  0  0  0  0
 20 18  1  0  0  0  0
 20 19  1  0  0  0  0
 21 30  1  0  0  0  0
 22 26  1  0  0  0  0
 23 28  1  0  0  0  0
 25 24  2  0  0  0  0
 26 25  1  0  0  0  0
 27 29  2  0  0  0  0
 28 26  2  0  0  0  0
 28 27  1  0  0  0  0
 29 24  1  0  0  0  0
 30 31  1  0  0  0  0
 30 23  2  0  0  0  0
 31 22  2  0  0  0  0
 32 24  1  6  0  0  0
 32 34  1  0  0  0  0
 32 33  1  0  0  0  0
 34 33  1  0  0  0  0
M  END
>  <MODEL>
8

>  <REMARK>
 VINA RESULT:      -7.3      3.963      6.711
  Name = 
  5 active torsions:
  status: ('A' for Active; 'I' for Inactive)
    1  A    between atoms: C_3  and  C_24
    2  A    between atoms: C_3  and  C_25
    3  A    between atoms: C_7  and  C_11
    4  A    between atoms: C_8  and  C_18
    5  A    between atoms: C_18  and  C_30
                            x       y       z     vdW  Elec       q    Type
                         _______ _______ _______ _____ _____    ______ ____

>  <TORSDO>
F 5

$$$$
=
 OpenBabel11052415583D

 34 39  0  0  1  0  0  0  0  0999 V2000
  189.3790  178.2260  137.2720 C   0  0  1  0  0  3  0  0  0  0  0  0
  187.1920  176.5160  134.5940 C   0  0  0  0  0  2  0  0  0  0  0  0
  189.6220  176.2680  135.2360 N   0  0  0  0  0  2  0  0  0  0  0  0
  188.7610  177.9290  139.6940 C   0  0  1  0  0  3  0  0  0  0  0  0
  189.0430  178.9350  138.5850 C   0  0  0  0  0  2  0  0  0  0  0  0
  190.1590  176.1960  138.5830 N   0  0  0  0  0  0  0  0  0  0  0  0
  189.0110  175.3300  138.3150 C   0  0  0  0  0  1  0  0  0  0  0  0
  189.9200  176.9330  139.8290 C   0  0  0  0  0  2  0  0  0  0  0  0
  190.6910  176.4040  136.1770 C   0  0  0  0  0  0  0  0  0  0  0  0
  190.4480  177.1280  137.4700 C   0  0  1  0  0  3  0  0  0  0  0  0
  191.8120  175.8850  135.9400 O   0  0  0  0  0  0  0  0  0  0  0  0
  186.1710  175.7090  135.3430 C   0  0  0  0  0  3  0  0  0  0  0  0
  185.5770  176.0500  136.5050 C   0  0  0  0  0  0  0  0  0  0  0  0
  185.8990  177.2710  137.3500 C   0  0  0  0  0  2  0  0  0  0  0  0
  188.3480  176.8860  135.4660 C   0  0  0  0  0  0  0  0  0  0  0  0
  186.8140  178.3260  136.7320 C   0  0  0  0  0  2  0  0  0  0  0  0
  188.1780  177.7570  136.4760 C   0  0  0  0  0  0  0  0  0  0  0  0
  184.5950  175.0780  137.0770 C   0  0  0  0  0  2  0  0  0  0  0  0
  184.7710  172.7360  137.5260 O   0  0  0  0  0  1  0  0  0  0  0  0
  184.8080  173.6850  136.5040 C   0  0  0  0  0  2  0  0  0  0  0  0
  188.4480  178.6210  141.0220 C   0  0  0  0  0  2  0  0  0  0  0  0
  185.1940  178.2560  142.9240 C   0  0  0  0  0  3  0  0  0  0  0  0
  186.0790  178.9910  140.4030 N   0  0  0  0  0  0  0  0  0  0  0  0
  181.9920  178.9880  141.2110 C   0  0  0  0  0  0  0  0  0  0  0  0
  182.9050  178.6280  142.2120 C   0  0  0  0  0  3  0  0  0  0  0  0
  184.2750  178.6240  141.9420 C   0  0  0  0  0  0  0  0  0  0  0  0
  183.8350  179.3720  139.6720 C   0  0  0  0  0  3  0  0  0  0  0  0
  184.7440  178.9960  140.6630 C   0  0  0  0  0  0  0  0  0  0  0  0
  182.4640  179.3740  139.9470 C   0  0  0  0  0  3  0  0  0  0  0  0
  186.9880  178.6340  141.3520 C   0  0  0  0  0  0  0  0  0  0  0  0
  186.5590  178.2580  142.6310 C   0  0  0  0  0  3  0  0  0  0  0  0
  180.5250  179.0370  141.5090 C   0  0  1  0  0  3  0  0  0  0  0  0
  180.2770  179.7190  142.7790 C   0  0  0  0  0  2  0  0  0  0  0  0
  180.0590  180.4350  141.5170 N   0  0  0  0  0  2  0  0  0  0  0  0
  1 10  1  0  0  0  0
  1  5  1  1  0  0  0
  2 12  1  0  0  0  0
  2 15  1  0  0  0  0
  3 15  1  0  0  0  0
  3  9  1  0  0  0  0
  4  8  1  0  0  0  0
  4 21  1  1  0  0  0
  5  4  1  0  0  0  0
  6  8  1  0  0  0  0
  7  6  1  0  0  0  0
 10  9  1  6  0  0  0
 10  6  1  0  0  0  0
 11  9  2  0  0  0  0
 12 13  2  0  0  0  0
 13 18  1  0  0  0  0
 13 14  1  0  0  0  0
 15 17  2  0  0  0  0
 16 14  1  0  0  0  0
 17 16  1  0  0  0  0
 17  1  1  0  0  0  0
 20 18  1  0  0  0  0
 20 19  1  0  0  0  0
 21 30  1  0  0  0  0
 23 28  2  0  0  0  0
 23 30  1  0  0  0  0
 24 25  2  0  0  0  0
 26 25  1  0  0  0  0
 26 22  2  0  0  0  0
 27 29  2  0  0  0  0
 27 28  1  0  0  0  0
 28 26  1  0  0  0  0
 29 24  1  0  0  0  0
 30 31  2  0  0  0  0
 31 22  1  0  0  0  0
 32 24  1  1  0  0  0
 32 34  1  0  0  0  0
 32 33  1  0  0  0  0
 34 33  1  0  0  0  0
M  END
>  <MODEL>
9

>  <REMARK>
 VINA RESULT:      -7.2      3.722      7.411
  Name = 
  5 active torsions:
  status: ('A' for Active; 'I' for Inactive)
    1  A    between atoms: C_3  and  C_24
    2  A    between atoms: C_3  and  C_25
    3  A    between atoms: C_7  and  C_11
    4  A    between atoms: C_8  and  C_18
    5  A    between atoms: C_18  and  C_30
                            x       y       z     vdW  Elec       q    Type
                         _______ _______ _______ _____ _____    ______ ____

>  <TORSDO>
F 5

$$$$
