=
 OpenBabel11052412483D

 25 29  0  0  1  0  0  0  0  0999 V2000
  187.1260  177.6960  144.3090 C   0  0  0  0  0  0  0  0  0  0  0  0
  188.0560  176.8480  143.4980 C   0  0  0  0  0  0  0  0  0  0  0  0
  188.5150  177.6630  146.3030 C   0  0  0  0  0  3  0  0  0  0  0  0
  185.8740  178.0670  144.1170 C   0  0  0  0  0  0  0  0  0  0  0  0
  183.2560  178.9720  144.2370 C   0  0  0  0  0  3  0  0  0  0  0  0
  189.5890  177.0380  145.4900 C   0  0  0  0  0  3  0  0  0  0  0  0
  185.3780  178.6050  145.3000 C   0  0  0  0  0  0  0  0  0  0  0  0
  184.0660  179.0700  145.3810 C   0  0  0  0  0  3  0  0  0  0  0  0
  190.5200  176.2370  143.3560 C   0  0  0  0  0  0  0  0  0  0  0  0
  191.6830  175.6630  143.9460 N   0  0  0  0  0  1  0  0  0  0  0  0
  188.2270  177.3210  142.0840 C   0  0  0  0  0  2  0  0  0  0  0  0
  183.7580  178.4090  143.0460 C   0  0  0  0  0  3  0  0  0  0  0  0
  187.3740  177.9870  145.6980 C   0  0  0  0  0  0  0  0  0  0  0  0
  186.2230  178.5830  146.2870 N   0  0  0  0  0  0  0  0  0  0  0  0
  190.4660  176.4060  142.0660 N   0  0  0  0  0  0  0  0  0  0  0  0
  185.0810  177.9420  142.9770 C   0  0  0  0  0  3  0  0  0  0  0  0
  189.3520  177.0420  141.4040 C   0  0  0  0  0  0  0  0  0  0  0  0
  189.4030  176.7070  144.1930 C   0  0  0  0  0  0  0  0  0  0  0  0
  189.9760  177.6210  137.4830 C   0  0  1  0  0  3  0  0  0  0  0  0
  189.4820  177.4340  139.9900 C   0  0  0  0  0  0  0  0  0  0  0  0
  190.4150  176.4490  138.8120 S   0  0  0  0  0  0  0  0  0  0  0  0
  189.1340  176.9060  136.4440 C   0  0  0  0  0  1  0  0  0  0  0  0
  188.9330  178.5060  139.5260 N   0  0  0  0  0  0  0  0  0  0  0  0
  189.1760  178.6850  138.1440 C   0  0  0  0  0  0  0  0  0  0  0  0
  188.7510  179.6950  137.5260 O   0  0  0  0  0  0  0  0  0  0  0  0
  1 13  1  0  0  0  0
  2 18  1  0  0  0  0
  2  1  2  0  0  0  0
  4  1  1  0  0  0  0
  4  7  1  0  0  0  0
  5  8  1  0  0  0  0
  6  3  2  0  0  0  0
  7  8  2  0  0  0  0
  7 14  1  0  0  0  0
  9 10  1  0  0  0  0
  9 18  2  0  0  0  0
 11  2  1  0  0  0  0
 12  5  2  0  0  0  0
 13 14  2  0  0  0  0
 13  3  1  0  0  0  0
 15  9  1  0  0  0  0
 16 12  1  0  0  0  0
 16  4  2  0  0  0  0
 17 15  2  0  0  0  0
 17 11  1  0  0  0  0
 18  6  1  0  0  0  0
 19 22  1  6  0  0  0
 19 24  1  0  0  0  0
 19 21  1  0  0  0  0
 20 17  1  0  0  0  0
 21 20  1  0  0  0  0
 23 20  2  0  0  0  0
 24 23  1  0  0  0  0
 25 24  2  0  0  0  0
M  END
>  <MODEL>
1

>  <REMARK>
 VINA RESULT:     -11.3      0.000      0.000
  Name = 
  1 active torsions:
  status: ('A' for Active; 'I' for Inactive)
    1  A    between atoms: C_6  and  C_23
                            x       y       z     vdW  Elec       q    Type
                         _______ _______ _______ _____ _____    ______ ____

>  <TORSDO>
F 1

$$$$
=
 OpenBabel11052412483D

 25 29  0  0  1  0  0  0  0  0999 V2000
  186.6910  178.0040  145.0610 C   0  0  0  0  0  0  0  0  0  0  0  0
  187.8470  177.1390  144.6650 C   0  0  1  0  0  3  0  0  0  0  0  0
  187.4770  178.3570  147.3330 C   0  0  0  0  0  3  0  0  0  0  0  0
  185.5240  178.2360  144.4890 C   0  0  0  0  0  0  0  0  0  0  0  0
  182.9340  178.9190  143.7710 C   0  0  0  0  0  3  0  0  0  0  0  0
  188.7610  177.7250  146.9390 C   0  0  0  0  0  3  0  0  0  0  0  0
  184.6970  178.8820  145.4030 C   0  0  0  0  0  0  0  0  0  0  0  0
  183.3930  179.2370  145.0610 C   0  0  0  0  0  3  0  0  0  0  0  0
  190.2800  176.7300  145.2760 C   0  0  0  0  0  0  0  0  0  0  0  0
  191.2620  176.3430  146.2340 N   0  0  0  0  0  1  0  0  0  0  0  0
  188.3790  177.4330  143.2920 C   0  0  0  0  0  3  0  0  0  0  0  0
  183.7710  178.2470  142.8560 C   0  0  0  0  0  3  0  0  0  0  0  0
  186.5330  178.4980  146.4050 C   0  0  0  0  0  0  0  0  0  0  0  0
  185.2370  179.0650  146.5700 N   0  0  0  0  0  0  0  0  0  0  0  0
  190.5760  176.7210  144.0090 N   0  0  0  0  0  0  0  0  0  0  0  0
  185.0820  177.8920  143.2120 C   0  0  0  0  0  3  0  0  0  0  0  0
  189.6590  177.1640  142.9850 C   0  0  0  0  0  0  0  0  0  0  0  0
  188.9560  177.2090  145.7050 C   0  0  0  0  0  0  0  0  0  0  0  0
  191.5170  177.6060  139.4570 C   0  0  1  0  0  3  0  0  0  0  0  0
  190.1550  177.3750  141.6140 C   0  0  0  0  0  0  0  0  0  0  0  0
  191.9040  177.2910  141.2140 S   0  0  0  0  0  0  0  0  0  0  0  0
  191.9230  176.4000  138.6320 C   0  0  0  0  0  1  0  0  0  0  0  0
  189.3580  177.6300  140.6320 N   0  0  0  0  0  0  0  0  0  0  0  0
  190.0430  177.7860  139.4050 C   0  0  0  0  0  0  0  0  0  0  0  0
  189.4340  178.0770  138.3420 O   0  0  0  0  0  0  0  0  0  0  0  0
  1 13  1  0  0  0  0
  2 11  1  6  0  0  0
  2  1  1  0  0  0  0
  2 18  1  0  0  0  0
  4  1  2  0  0  0  0
  4  7  1  0  0  0  0
  5  8  2  0  0  0  0
  6  3  1  0  0  0  0
  7 14  2  0  0  0  0
  8  7  1  0  0  0  0
  9 18  1  0  0  0  0
  9 10  1  0  0  0  0
 12 16  2  0  0  0  0
 12  5  1  0  0  0  0
 13 14  1  0  0  0  0
 13  3  2  0  0  0  0
 15  9  2  0  0  0  0
 16  4  1  0  0  0  0
 17 11  2  0  0  0  0
 17 15  1  0  0  0  0
 18  6  2  0  0  0  0
 19 22  1  6  0  0  0
 19 21  1  0  0  0  0
 20 17  1  0  0  0  0
 21 20  1  0  0  0  0
 23 20  2  0  0  0  0
 24 19  1  0  0  0  0
 24 23  1  0  0  0  0
 25 24  2  0  0  0  0
M  END
>  <MODEL>
2

>  <REMARK>
 VINA RESULT:     -10.4      1.425      1.713
  Name = 
  1 active torsions:
  status: ('A' for Active; 'I' for Inactive)
    1  A    between atoms: C_6  and  C_23
                            x       y       z     vdW  Elec       q    Type
                         _______ _______ _______ _____ _____    ______ ____

>  <TORSDO>
F 1

$$$$
=
 OpenBabel11052412483D

 25 29  0  0  1  0  0  0  0  0999 V2000
  185.6120  178.2930  143.6820 C   0  0  0  0  0  0  0  0  0  0  0  0
  186.8250  177.5110  143.2850 C   0  0  1  0  0  3  0  0  0  0  0  0
  186.3580  178.6710  145.9640 C   0  0  0  0  0  3  0  0  0  0  0  0
  184.4350  178.4540  143.1050 C   0  0  0  0  0  0  0  0  0  0  0  0
  181.8110  178.9720  142.3760 C   0  0  0  0  0  3  0  0  0  0  0  0
  187.6840  178.1290  145.5720 C   0  0  0  0  0  3  0  0  0  0  0  0
  183.5610  179.0330  144.0190 C   0  0  0  0  0  0  0  0  0  0  0  0
  182.2390  179.3050  143.6720 C   0  0  0  0  0  3  0  0  0  0  0  0
  189.2760  177.2580  143.9090 C   0  0  0  0  0  0  0  0  0  0  0  0
  190.2750  176.9250  144.8690 N   0  0  0  0  0  1  0  0  0  0  0  0
  187.3450  177.8550  141.9200 C   0  0  0  0  0  3  0  0  0  0  0  0
  182.6960  178.3680  141.4590 C   0  0  0  0  0  3  0  0  0  0  0  0
  185.4130  178.7590  145.0310 C   0  0  0  0  0  0  0  0  0  0  0  0
  184.0800  179.2370  145.1930 N   0  0  0  0  0  0  0  0  0  0  0  0
  189.5800  177.2820  142.6440 N   0  0  0  0  0  0  0  0  0  0  0  0
  184.0260  178.0960  141.8210 C   0  0  0  0  0  3  0  0  0  0  0  0
  188.6420  177.6760  141.6190 C   0  0  0  0  0  0  0  0  0  0  0  0
  187.9200  177.6420  144.3340 C   0  0  0  0  0  0  0  0  0  0  0  0
  190.2980  177.9250  137.9740 C   0  0  1  0  0  3  0  0  0  0  0  0
  189.1320  177.9350  140.2540 C   0  0  0  0  0  0  0  0  0  0  0  0
  190.4490  176.9600  139.5160 S   0  0  0  0  0  0  0  0  0  0  0  0
  189.8570  177.0060  136.8500 C   0  0  0  0  0  1  0  0  0  0  0  0
  188.6400  178.8750  139.5190 N   0  0  0  0  0  0  0  0  0  0  0  0
  189.2480  178.9400  138.2440 C   0  0  0  0  0  0  0  0  0  0  0  0
  188.9240  179.8200  137.4040 O   0  0  0  0  0  0  0  0  0  0  0  0
  1 13  1  0  0  0  0
  2 11  1  6  0  0  0
  2  1  1  0  0  0  0
  2 18  1  0  0  0  0
  4  1  2  0  0  0  0
  4  7  1  0  0  0  0
  5  8  2  0  0  0  0
  6  3  1  0  0  0  0
  7 14  2  0  0  0  0
  8  7  1  0  0  0  0
  9 18  1  0  0  0  0
  9 10  1  0  0  0  0
 12 16  2  0  0  0  0
 12  5  1  0  0  0  0
 13 14  1  0  0  0  0
 13  3  2  0  0  0  0
 15  9  2  0  0  0  0
 16  4  1  0  0  0  0
 17 11  2  0  0  0  0
 17 15  1  0  0  0  0
 18  6  2  0  0  0  0
 19 22  1  6  0  0  0
 19 24  1  0  0  0  0
 19 21  1  0  0  0  0
 20 17  1  0  0  0  0
 21 20  1  0  0  0  0
 23 20  2  0  0  0  0
 24 23  1  0  0  0  0
 25 24  2  0  0  0  0
M  END
>  <MODEL>
3

>  <REMARK>
 VINA RESULT:     -10.0      1.148      1.675
  Name = 
  1 active torsions:
  status: ('A' for Active; 'I' for Inactive)
    1  A    between atoms: C_6  and  C_23
                            x       y       z     vdW  Elec       q    Type
                         _______ _______ _______ _____ _____    ______ ____

>  <TORSDO>
F 1

$$$$
=
 OpenBabel11052412483D

 25 29  0  0  1  0  0  0  0  0999 V2000
  188.2800  177.6920  144.1570 C   0  0  0  0  0  0  0  0  0  0  0  0
  188.1910  178.3190  142.8020 C   0  0  0  0  0  0  0  0  0  0  0  0
  185.9250  177.9960  144.6730 C   0  0  0  0  0  3  0  0  0  0  0  0
  189.3120  177.3720  144.9180 C   0  0  0  0  0  0  0  0  0  0  0  0
  191.1100  176.6710  146.9080 C   0  0  0  0  0  3  0  0  0  0  0  0
  185.7140  178.3960  143.2580 C   0  0  0  0  0  3  0  0  0  0  0  0
  188.8530  177.0890  146.2000 C   0  0  0  0  0  0  0  0  0  0  0  0
  189.7400  176.7300  147.2150 C   0  0  0  0  0  3  0  0  0  0  0  0
  186.5000  178.7380  140.9500 C   0  0  0  0  0  0  0  0  0  0  0  0
  185.2860  179.3340  140.5020 N   0  0  0  0  0  1  0  0  0  0  0  0
  188.9680  177.5890  141.7450 C   0  0  0  0  0  2  0  0  0  0  0  0
  191.5710  176.9770  145.6100 C   0  0  0  0  0  3  0  0  0  0  0  0
  187.1510  177.6410  145.0500 C   0  0  0  0  0  0  0  0  0  0  0  0
  187.5710  177.2350  146.3500 N   0  0  0  0  0  0  0  0  0  0  0  0
  187.3840  178.3430  140.0810 N   0  0  0  0  0  0  0  0  0  0  0  0
  190.6670  177.3390  144.5970 C   0  0  0  0  0  3  0  0  0  0  0  0
  188.6060  177.6690  140.4540 C   0  0  0  0  0  0  0  0  0  0  0  0
  186.7390  178.4980  142.3830 C   0  0  0  0  0  0  0  0  0  0  0  0
  190.3380  175.8380  137.3330 C   0  0  1  0  0  3  0  0  0  0  0  0
  189.4200  177.0200  139.4120 C   0  0  0  0  0  0  0  0  0  0  0  0
  188.6770  176.2690  137.9570 S   0  0  0  0  0  0  0  0  0  0  0  0
  190.5920  176.5800  136.0350 C   0  0  0  0  0  1  0  0  0  0  0  0
  190.7060  176.9580  139.4900 N   0  0  0  0  0  0  0  0  0  0  0  0
  191.2850  176.3020  138.3790 C   0  0  0  0  0  0  0  0  0  0  0  0
  192.5280  176.1130  138.3000 O   0  0  0  0  0  0  0  0  0  0  0  0
  1  4  1  0  0  0  0
  1 13  1  0  0  0  0
  2  1  2  0  0  0  0
  3 13  1  0  0  0  0
  4  7  1  0  0  0  0
  5  8  1  0  0  0  0
  6  3  2  0  0  0  0
  7 14  1  0  0  0  0
  7  8  2  0  0  0  0
  9 18  2  0  0  0  0
 10  9  1  0  0  0  0
 11  2  1  0  0  0  0
 12  5  2  0  0  0  0
 13 14  2  0  0  0  0
 15 17  2  0  0  0  0
 15  9  1  0  0  0  0
 16  4  2  0  0  0  0
 16 12  1  0  0  0  0
 17 11  1  0  0  0  0
 18  2  1  0  0  0  0
 18  6  1  0  0  0  0
 19 22  1  6  0  0  0
 19 21  1  0  0  0  0
 19 24  1  0  0  0  0
 20 23  2  0  0  0  0
 20 17  1  0  0  0  0
 21 20  1  0  0  0  0
 24 23  1  0  0  0  0
 25 24  2  0  0  0  0
M  END
>  <MODEL>
4

>  <REMARK>
 VINA RESULT:     -10.0      2.047      4.327
  Name = 
  1 active torsions:
  status: ('A' for Active; 'I' for Inactive)
    1  A    between atoms: C_6  and  C_23
                            x       y       z     vdW  Elec       q    Type
                         _______ _______ _______ _____ _____    ______ ____

>  <TORSDO>
F 1

$$$$
=
 OpenBabel11052412483D

 25 29  0  0  1  0  0  0  0  0999 V2000
  188.2880  177.7660  144.0630 C   0  0  0  0  0  0  0  0  0  0  0  0
  188.1120  178.4560  142.7470 C   0  0  0  0  0  0  0  0  0  0  0  0
  185.9350  177.8720  144.6600 C   0  0  0  0  0  3  0  0  0  0  0  0
  189.3630  177.4830  144.7760 C   0  0  0  0  0  0  0  0  0  0  0  0
  191.2690  176.8090  146.6740 C   0  0  0  0  0  3  0  0  0  0  0  0
  185.6510  178.3290  143.2750 C   0  0  0  0  0  3  0  0  0  0  0  0
  188.9670  177.1000  146.0530 C   0  0  0  0  0  0  0  0  0  0  0  0
  189.9080  176.7530  147.0210 C   0  0  0  0  0  3  0  0  0  0  0  0
  186.3380  178.8480  140.9690 C   0  0  0  0  0  0  0  0  0  0  0  0
  185.0710  179.3780  140.5880 N   0  0  0  0  0  1  0  0  0  0  0  0
  188.9050  177.8410  141.6310 C   0  0  0  0  0  2  0  0  0  0  0  0
  191.6650  177.2160  145.3830 C   0  0  0  0  0  3  0  0  0  0  0  0
  187.1940  177.5870  144.9830 C   0  0  0  0  0  0  0  0  0  0  0  0
  187.6820  177.1440  146.2460 N   0  0  0  0  0  0  0  0  0  0  0  0
  187.2200  178.5650  140.0550 N   0  0  0  0  0  0  0  0  0  0  0  0
  190.7070  177.5650  144.4170 C   0  0  0  0  0  3  0  0  0  0  0  0
  188.4970  177.9630  140.3570 C   0  0  0  0  0  0  0  0  0  0  0  0
  186.6380  178.5510  142.3790 C   0  0  0  0  0  0  0  0  0  0  0  0
  191.1080  176.3620  137.7650 C   0  0  1  0  0  3  0  0  0  0  0  0
  189.3220  177.4310  139.2580 C   0  0  0  0  0  0  0  0  0  0  0  0
  190.9610  176.7530  139.5430 S   0  0  0  0  0  0  0  0  0  0  0  0
  191.2140  174.8590  137.5910 C   0  0  0  0  0  1  0  0  0  0  0  0
  188.9080  177.4240  138.0360 N   0  0  0  0  0  0  0  0  0  0  0  0
  189.8530  176.8600  137.1470 C   0  0  0  0  0  0  0  0  0  0  0  0
  189.6390  176.8030  135.9080 O   0  0  0  0  0  0  0  0  0  0  0  0
  1  4  1  0  0  0  0
  1 13  1  0  0  0  0
  2  1  2  0  0  0  0
  3 13  1  0  0  0  0
  4  7  1  0  0  0  0
  5  8  1  0  0  0  0
  6  3  2  0  0  0  0
  7 14  1  0  0  0  0
  7  8  2  0  0  0  0
  9 18  2  0  0  0  0
 10  9  1  0  0  0  0
 11  2  1  0  0  0  0
 12  5  2  0  0  0  0
 13 14  2  0  0  0  0
 15 17  2  0  0  0  0
 15  9  1  0  0  0  0
 16  4  2  0  0  0  0
 16 12  1  0  0  0  0
 17 11  1  0  0  0  0
 18  2  1  0  0  0  0
 18  6  1  0  0  0  0
 19 22  1  1  0  0  0
 19 21  1  0  0  0  0
 20 21  1  0  0  0  0
 20 17  1  0  0  0  0
 23 20  2  0  0  0  0
 24 19  1  0  0  0  0
 24 23  1  0  0  0  0
 25 24  2  0  0  0  0
M  END
>  <MODEL>
5

>  <REMARK>
 VINA RESULT:      -9.9      1.956      4.290
  Name = 
  1 active torsions:
  status: ('A' for Active; 'I' for Inactive)
    1  A    between atoms: C_6  and  C_23
                            x       y       z     vdW  Elec       q    Type
                         _______ _______ _______ _____ _____    ______ ____

>  <TORSDO>
F 1

$$$$
=
 OpenBabel11052412483D

 25 29  0  0  1  0  0  0  0  0999 V2000
  186.5410  177.9420  144.3820 C   0  0  0  0  0  0  0  0  0  0  0  0
  187.5460  177.0290  143.7520 C   0  0  1  0  0  3  0  0  0  0  0  0
  187.7830  178.2050  146.4550 C   0  0  0  0  0  3  0  0  0  0  0  0
  185.2970  178.2450  144.0600 C   0  0  0  0  0  0  0  0  0  0  0  0
  182.6570  179.0730  143.8850 C   0  0  0  0  0  3  0  0  0  0  0  0
  188.9270  177.5170  145.8030 C   0  0  0  0  0  3  0  0  0  0  0  0
  184.7050  178.9110  145.1280 C   0  0  0  0  0  0  0  0  0  0  0  0
  183.3800  179.3390  145.0600 C   0  0  0  0  0  3  0  0  0  0  0  0
  190.0270  176.4850  143.8580 C   0  0  0  0  0  0  0  0  0  0  0  0
  191.1580  176.0280  144.5940 N   0  0  0  0  0  1  0  0  0  0  0  0
  187.8070  177.3260  142.3050 C   0  0  0  0  0  3  0  0  0  0  0  0
  183.2560  178.3810  142.8120 C   0  0  0  0  0  3  0  0  0  0  0  0
  186.6820  178.4130  145.7370 C   0  0  0  0  0  0  0  0  0  0  0  0
  185.4770  179.0410  146.1660 N   0  0  0  0  0  0  0  0  0  0  0  0
  190.0620  176.4890  142.5570 N   0  0  0  0  0  0  0  0  0  0  0  0
  184.5920  177.9520  142.8940 C   0  0  0  0  0  3  0  0  0  0  0  0
  188.9840  177.0000  141.7430 C   0  0  0  0  0  0  0  0  0  0  0  0
  188.8430  177.0200  144.5490 C   0  0  0  0  0  0  0  0  0  0  0  0
  189.0720  177.8100  137.8150 C   0  0  1  0  0  3  0  0  0  0  0  0
  189.2060  177.2160  140.3030 C   0  0  0  0  0  0  0  0  0  0  0  0
  187.9160  177.8560  139.2290 S   0  0  0  0  0  0  0  0  0  0  0  0
  189.3040  179.2230  137.3140 C   0  0  0  0  0  1  0  0  0  0  0  0
  190.3390  176.9570  139.7410 N   0  0  0  0  0  0  0  0  0  0  0  0
  190.3350  177.2480  138.3570 C   0  0  0  0  0  0  0  0  0  0  0  0
  191.3410  177.0230  137.6340 O   0  0  0  0  0  0  0  0  0  0  0  0
  1 13  1  0  0  0  0
  2 11  1  6  0  0  0
  2  1  1  0  0  0  0
  2 18  1  0  0  0  0
  4  1  2  0  0  0  0
  4  7  1  0  0  0  0
  5  8  2  0  0  0  0
  6  3  1  0  0  0  0
  7 14  2  0  0  0  0
  8  7  1  0  0  0  0
  9 18  1  0  0  0  0
  9 10  1  0  0  0  0
 12 16  2  0  0  0  0
 12  5  1  0  0  0  0
 13 14  1  0  0  0  0
 13  3  2  0  0  0  0
 15  9  2  0  0  0  0
 16  4  1  0  0  0  0
 17 11  2  0  0  0  0
 17 15  1  0  0  0  0
 18  6  2  0  0  0  0
 19 22  1  1  0  0  0
 19 24  1  0  0  0  0
 19 21  1  0  0  0  0
 20 17  1  0  0  0  0
 21 20  1  0  0  0  0
 23 20  2  0  0  0  0
 24 23  1  0  0  0  0
 25 24  2  0  0  0  0
M  END
>  <MODEL>
6

>  <REMARK>
 VINA RESULT:      -9.6      1.268      1.368
  Name = 
  1 active torsions:
  status: ('A' for Active; 'I' for Inactive)
    1  A    between atoms: C_6  and  C_23
                            x       y       z     vdW  Elec       q    Type
                         _______ _______ _______ _____ _____    ______ ____

>  <TORSDO>
F 1

$$$$
=
 OpenBabel11052412483D

 25 29  0  0  1  0  0  0  0  0999 V2000
  187.7710  177.7130  142.9860 C   0  0  0  0  0  0  0  0  0  0  0  0
  186.6530  178.5380  143.5410 C   0  0  1  0  0  3  0  0  0  0  0  0
  188.5110  176.8960  145.1520 C   0  0  0  0  0  3  0  0  0  0  0  0
  188.3410  177.6830  141.7950 C   0  0  0  0  0  0  0  0  0  0  0  0
  189.9300  177.3520  139.5470 C   0  0  0  0  0  3  0  0  0  0  0  0
  187.2810  177.4820  145.7420 C   0  0  0  0  0  3  0  0  0  0  0  0
  189.5220  176.9530  141.8800 C   0  0  0  0  0  0  0  0  0  0  0  0
  190.3340  176.7710  140.7610 C   0  0  0  0  0  3  0  0  0  0  0  0
  185.1110  178.6320  145.5610 C   0  0  0  0  0  0  0  0  0  0  0  0
  184.9300  178.7600  146.9680 N   0  0  0  0  0  1  0  0  0  0  0  0
  185.3850  178.4530  142.7430 C   0  0  0  0  0  3  0  0  0  0  0  0
  188.7400  178.1070  139.4710 C   0  0  0  0  0  3  0  0  0  0  0  0
  188.6900  177.0010  143.8370 C   0  0  0  0  0  0  0  0  0  0  0  0
  189.7940  176.5200  143.0750 N   0  0  0  0  0  0  0  0  0  0  0  0
  184.1080  178.8450  144.7590 N   0  0  0  0  0  0  0  0  0  0  0  0
  187.9320  178.2840  140.6060 C   0  0  0  0  0  3  0  0  0  0  0  0
  184.1950  178.6680  143.3280 C   0  0  0  0  0  0  0  0  0  0  0  0
  186.4010  178.1930  145.0020 C   0  0  0  0  0  0  0  0  0  0  0  0
  181.1500  178.4560  140.7250 C   0  0  1  0  0  3  0  0  0  0  0  0
  182.9600  178.6670  142.5250 C   0  0  0  0  0  0  0  0  0  0  0  0
  182.9600  178.2200  140.7850 S   0  0  0  0  0  0  0  0  0  0  0  0
  180.4830  177.1310  140.4100 C   0  0  0  0  0  1  0  0  0  0  0  0
  181.8170  178.9870  143.0310 N   0  0  0  0  0  0  0  0  0  0  0  0
  180.7660  178.9080  142.0870 C   0  0  0  0  0  0  0  0  0  0  0  0
  179.5850  179.2210  142.3900 O   0  0  0  0  0  0  0  0  0  0  0  0
  1  2  1  0  0  0  0
  1 13  1  0  0  0  0
  2 11  1  6  0  0  0
  2 18  1  0  0  0  0
  3  6  1  0  0  0  0
  4  7  1  0  0  0  0
  4  1  2  0  0  0  0
  5  8  2  0  0  0  0
  7 14  2  0  0  0  0
  8  7  1  0  0  0  0
  9 10  1  0  0  0  0
 11 17  2  0  0  0  0
 12  5  1  0  0  0  0
 12 16  2  0  0  0  0
 13  3  2  0  0  0  0
 14 13  1  0  0  0  0
 15  9  2  0  0  0  0
 16  4  1  0  0  0  0
 17 15  1  0  0  0  0
 18  9  1  0  0  0  0
 18  6  2  0  0  0  0
 19 22  1  1  0  0  0
 19 21  1  0  0  0  0
 19 24  1  0  0  0  0
 20 23  2  0  0  0  0
 20 17  1  0  0  0  0
 21 20  1  0  0  0  0
 24 25  2  0  0  0  0
 24 23  1  0  0  0  0
M  END
>  <MODEL>
7

>  <REMARK>
 VINA RESULT:      -9.3      3.268      6.451
  Name = 
  1 active torsions:
  status: ('A' for Active; 'I' for Inactive)
    1  A    between atoms: C_6  and  C_23
                            x       y       z     vdW  Elec       q    Type
                         _______ _______ _______ _____ _____    ______ ____

>  <TORSDO>
F 1

$$$$
=
 OpenBabel11052412483D

 25 29  0  0  1  0  0  0  0  0999 V2000
  187.7430  177.7350  142.9830 C   0  0  0  0  0  0  0  0  0  0  0  0
  186.5990  178.5440  143.5070 C   0  0  1  0  0  3  0  0  0  0  0  0
  188.4070  176.8920  145.1640 C   0  0  0  0  0  3  0  0  0  0  0  0
  188.3570  177.7250  141.8140 C   0  0  0  0  0  0  0  0  0  0  0  0
  190.0310  177.4370  139.6230 C   0  0  0  0  0  3  0  0  0  0  0  0
  187.1510  177.4620  145.7160 C   0  0  0  0  0  3  0  0  0  0  0  0
  189.5400  177.0020  141.9330 C   0  0  0  0  0  0  0  0  0  0  0  0
  190.3940  176.8420  140.8430 C   0  0  0  0  0  3  0  0  0  0  0  0
  184.9810  178.5990  145.4680 C   0  0  0  0  0  0  0  0  0  0  0  0
  184.7470  178.7070  146.8700 N   0  0  0  0  0  1  0  0  0  0  0  0
  185.3620  178.4610  142.6610 C   0  0  0  0  0  3  0  0  0  0  0  0
  188.8400  178.1840  139.5130 C   0  0  0  0  0  3  0  0  0  0  0  0
  188.6350  177.0170  143.8580 C   0  0  0  0  0  0  0  0  0  0  0  0
  189.7690  176.5550  143.1310 N   0  0  0  0  0  0  0  0  0  0  0  0
  184.0070  178.8160  144.6330 N   0  0  0  0  0  0  0  0  0  0  0  0
  187.9880  178.3400  140.6190 C   0  0  0  0  0  3  0  0  0  0  0  0
  184.1490  178.6600  143.2040 C   0  0  0  0  0  0  0  0  0  0  0  0
  186.2940  178.1770  144.9530 C   0  0  0  0  0  0  0  0  0  0  0  0
  180.5990  178.8540  141.3470 C   0  0  1  0  0  3  0  0  0  0  0  0
  182.9450  178.6610  142.3550 C   0  0  0  0  0  0  0  0  0  0  0  0
  181.3210  179.0580  143.0120 S   0  0  0  0  0  0  0  0  0  0  0  0
  180.0320  180.1820  140.8820 C   0  0  0  0  0  1  0  0  0  0  0  0
  182.9970  178.3770  141.0970 N   0  0  0  0  0  0  0  0  0  0  0  0
  181.7300  178.4490  140.4740 C   0  0  0  0  0  0  0  0  0  0  0  0
  181.5780  178.1670  139.2560 O   0  0  0  0  0  0  0  0  0  0  0  0
  1  2  1  0  0  0  0
  1 13  1  0  0  0  0
  2 11  1  6  0  0  0
  2 18  1  0  0  0  0
  3  6  1  0  0  0  0
  4  7  1  0  0  0  0
  4  1  2  0  0  0  0
  5  8  2  0  0  0  0
  7 14  2  0  0  0  0
  8  7  1  0  0  0  0
  9 10  1  0  0  0  0
 11 17  2  0  0  0  0
 12  5  1  0  0  0  0
 12 16  2  0  0  0  0
 13  3  2  0  0  0  0
 14 13  1  0  0  0  0
 15  9  2  0  0  0  0
 16  4  1  0  0  0  0
 17 15  1  0  0  0  0
 18  9  1  0  0  0  0
 18  6  2  0  0  0  0
 19 22  1  6  0  0  0
 19 21  1  0  0  0  0
 20 21  1  0  0  0  0
 20 17  1  0  0  0  0
 23 20  2  0  0  0  0
 24 23  1  0  0  0  0
 24 19  1  0  0  0  0
 25 24  2  0  0  0  0
M  END
>  <MODEL>
8

>  <REMARK>
 VINA RESULT:      -9.3      3.306      6.401
  Name = 
  1 active torsions:
  status: ('A' for Active; 'I' for Inactive)
    1  A    between atoms: C_6  and  C_23
                            x       y       z     vdW  Elec       q    Type
                         _______ _______ _______ _____ _____    ______ ____

>  <TORSDO>
F 1

$$$$
=
 OpenBabel11052412483D

 25 29  0  0  1  0  0  0  0  0999 V2000
  185.7410  178.1970  143.8970 C   0  0  0  0  0  0  0  0  0  0  0  0
  184.7330  178.7490  142.9390 C   0  0  0  0  0  0  0  0  0  0  0  0
  184.3940  178.6280  145.8730 C   0  0  0  0  0  3  0  0  0  0  0  0
  187.0150  177.8780  143.7550 C   0  0  0  0  0  0  0  0  0  0  0  0
  189.6960  177.2160  143.9950 C   0  0  0  0  0  3  0  0  0  0  0  0
  183.2590  178.9550  144.9730 C   0  0  0  0  0  3  0  0  0  0  0  0
  187.5730  177.6870  145.0150 C   0  0  0  0  0  0  0  0  0  0  0  0
  188.9190  177.3500  145.1580 C   0  0  0  0  0  3  0  0  0  0  0  0
  182.2270  179.1320  142.7450 C   0  0  0  0  0  0  0  0  0  0  0  0
  181.0350  179.7520  143.2180 N   0  0  0  0  0  1  0  0  0  0  0  0
  184.5700  177.9280  141.6930 C   0  0  0  0  0  2  0  0  0  0  0  0
  189.1290  177.4290  142.7210 C   0  0  0  0  0  3  0  0  0  0  0  0
  185.5440  178.2440  145.3240 C   0  0  0  0  0  0  0  0  0  0  0  0
  186.7490  177.8950  145.9980 N   0  0  0  0  0  0  0  0  0  0  0  0
  182.2680  178.6520  141.5350 N   0  0  0  0  0  0  0  0  0  0  0  0
  187.7720  177.7700  142.5900 C   0  0  0  0  0  3  0  0  0  0  0  0
  183.4150  177.9500  141.0080 C   0  0  0  0  0  0  0  0  0  0  0  0
  183.3930  178.9640  143.6280 C   0  0  0  0  0  0  0  0  0  0  0  0
  183.4690  176.2780  137.3620 C   0  0  1  0  0  3  0  0  0  0  0  0
  183.2870  177.2100  139.7410 C   0  0  0  0  0  0  0  0  0  0  0  0
  184.1920  177.6900  138.2650 S   0  0  0  0  0  0  0  0  0  0  0  0
  184.5760  175.3240  136.9570 C   0  0  0  0  0  1  0  0  0  0  0  0
  182.5190  176.1790  139.6270 N   0  0  0  0  0  0  0  0  0  0  0  0
  182.5560  175.6170  138.3300 C   0  0  0  0  0  0  0  0  0  0  0  0
  181.8410  174.6280  138.0200 O   0  0  0  0  0  0  0  0  0  0  0  0
  1 13  1  0  0  0  0
  2 18  1  0  0  0  0
  2  1  2  0  0  0  0
  4  1  1  0  0  0  0
  4  7  1  0  0  0  0
  5  8  1  0  0  0  0
  6  3  2  0  0  0  0
  7  8  2  0  0  0  0
  7 14  1  0  0  0  0
  9 10  1  0  0  0  0
  9 18  2  0  0  0  0
 11  2  1  0  0  0  0
 12  5  2  0  0  0  0
 13  3  1  0  0  0  0
 13 14  2  0  0  0  0
 15  9  1  0  0  0  0
 16 12  1  0  0  0  0
 16  4  2  0  0  0  0
 17 15  2  0  0  0  0
 17 11  1  0  0  0  0
 18  6  1  0  0  0  0
 19 22  1  1  0  0  0
 19 21  1  0  0  0  0
 19 24  1  0  0  0  0
 20 17  1  0  0  0  0
 21 20  1  0  0  0  0
 23 20  2  0  0  0  0
 24 23  1  0  0  0  0
 25 24  2  0  0  0  0
M  END
>  <MODEL>
9

>  <REMARK>
 VINA RESULT:      -9.0      3.764      5.974
  Name = 
  1 active torsions:
  status: ('A' for Active; 'I' for Inactive)
    1  A    between atoms: C_6  and  C_23
                            x       y       z     vdW  Elec       q    Type
                         _______ _______ _______ _____ _____    ______ ____

>  <TORSDO>
F 1

$$$$
