=
 OpenBabel11052414323D

 32 34  0  0  1  0  0  0  0  0999 V2000
  188.3600  177.4280  144.5710 N   0  0  0  0  0  0  0  0  0  0  0  0
  190.1410  179.3630  143.6060 C   0  0  0  0  0  2  0  0  0  0  0  0
  188.3050  177.4960  143.1120 C   0  0  2  0  0  3  0  0  0  0  0  0
  191.9190  177.9270  142.7500 C   0  0  0  0  0  2  0  0  0  0  0  0
  190.5980  177.1880  142.5980 C   0  0  1  0  0  0  0  0  0  0  0  0
  189.5400  176.6190  144.9880 C   0  0  1  0  0  3  0  0  0  0  0  0
  191.6420  175.2840  144.1020 C   0  0  0  0  0  1  0  0  0  0  0  0
  190.4390  176.1630  143.7820 C   0  0  2  0  0  3  0  0  0  0  0  0
  189.5490  178.3290  142.6580 C   0  0  2  0  0  0  0  0  0  0  0  0
  191.6460  179.1950  143.5380 C   0  0  0  0  0  2  0  0  0  0  0  0
  188.0810  178.8040  142.4620 C   0  0  1  0  0  3  0  0  0  0  0  0
  190.3330  177.3730  146.0750 C   0  0  2  0  0  3  0  0  0  0  0  0
  191.6960  177.0860  145.9950 O   0  0  0  0  0  1  0  0  0  0  0  0
  189.8340  177.0500  147.4810 C   0  0  0  0  0  2  0  0  0  0  0  0
  189.3200  178.1950  148.0950 O   0  0  0  0  0  1  0  0  0  0  0  0
  187.9820  177.4590  140.4870 C   0  0  0  0  0  1  0  0  0  0  0  0
  187.6190  178.7500  141.0540 N   0  0  0  0  0  0  0  0  0  0  0  0
  186.1860  178.9470  140.8400 C   0  0  0  0  0  2  0  0  0  0  0  0
  185.4960  179.2450  142.1610 C   0  0  0  0  0  2  0  0  0  0  0  0
  184.2560  178.3810  142.3160 C   0  0  0  0  0  2  0  0  0  0  0  0
  183.3640  179.0040  143.1880 O   0  0  0  0  0  1  0  0  0  0  0  0
  187.1780  176.6930  144.9980 C   0  0  0  0  0  2  0  0  0  0  0  0
  186.5390  177.3930  146.1830 C   0  0  0  0  0  2  0  0  0  0  0  0
  185.8540  178.6610  145.7090 C   0  0  0  0  0  1  0  0  0  0  0  0
  190.6130  176.4730  141.2460 C   0  0  0  0  0  2  0  0  0  0  0  0
  191.2630  177.2440  140.2740 O   0  0  0  0  0  0  0  0  0  0  0  0
  191.6330  176.3370  139.2780 C   0  0  1  0  0  3  0  0  0  0  0  0
  190.0320  175.1150  137.9740 O   0  0  0  0  0  0  0  0  0  0  0  0
  190.0890  177.4050  137.5890 N   0  0  0  0  0  1  0  0  0  0  0  0
  190.5460  176.2310  138.2510 C   0  0  0  0  0  0  0  0  0  0  0  0
  192.9180  176.7830  138.6530 C   0  0  0  0  0  3  0  0  0  0  0  0
  193.5470  176.0210  137.7610 C   0  0  0  0  0  2  0  0  0  0  0  0
  1  6  1  0  0  0  0
  1 22  1  0  0  0  0
  3  1  1  1  0  0  0
  4 10  1  0  0  0  0
  5 25  1  6  0  0  0
  5  9  1  0  0  0  0
  5  4  1  0  0  0  0
  5  8  1  0  0  0  0
  6 12  1  1  0  0  0
  8  7  1  1  0  0  0
  8  6  1  0  0  0  0
  9  3  1  0  0  0  0
  9  2  1  1  0  0  0
 10  2  1  0  0  0  0
 11 17  1  6  0  0  0
 11  9  1  0  0  0  0
 11  3  1  0  0  0  0
 12 13  1  1  0  0  0
 12 14  1  0  0  0  0
 14 15  1  0  0  0  0
 16 17  1  0  0  0  0
 18 17  1  0  0  0  0
 18 19  1  0  0  0  0
 19 20  1  0  0  0  0
 20 21  1  0  0  0  0
 22 23  1  0  0  0  0
 24 23  1  0  0  0  0
 26 25  1  0  0  0  0
 27 31  1  6  0  0  0
 27 26  1  0  0  0  0
 28 30  2  0  0  0  0
 29 30  1  0  0  0  0
 30 27  1  0  0  0  0
 32 31  2  0  0  0  0
M  END
>  <MODEL>
1

>  <REMARK>
 VINA RESULT:      -5.5      0.000      0.000
  Name = 
  13 active torsions:
  status: ('A' for Active; 'I' for Inactive)
    1  A    between atoms: C_1  and  C_4
    2  A    between atoms: C_1  and  C_27
    3  A    between atoms: C_2  and  N_5
    4  A    between atoms: C_2  and  C_14
    5  A    between atoms: O_3  and  C_19
    6  A    between atoms: O_3  and  C_22
    7  A    between atoms: C_6  and  C_13
    8  A    between atoms: C_6  and  C_18
    9  A    between atoms: C_12  and  C_22
   10  A    between atoms: C_15  and  C_19
   11  A    between atoms: C_19  and  C_26
   12  A    between atoms: N_24  and  C_27
   13  A    between atoms: N_24  and  C_32
                            x       y       z     vdW  Elec       q    Type
                         _______ _______ _______ _____ _____    ______ ____

>  <TORSDO>
F 13

$$$$
=
 OpenBabel11052414323D

 32 34  0  0  1  0  0  0  0  0999 V2000
  190.3290  177.0280  139.0260 N   0  0  0  0  0  0  0  0  0  0  0  0
  189.2030  178.1400  136.7150 C   0  0  0  0  0  2  0  0  0  0  0  0
  188.8710  176.9470  139.0740 C   0  0  2  0  0  3  0  0  0  0  0  0
  188.5550  176.1080  135.5270 C   0  0  0  0  0  2  0  0  0  0  0  0
  188.4520  175.8380  137.0210 C   0  0  1  0  0  0  0  0  0  0  0  0
  190.8630  175.9260  138.1770 C   0  0  1  0  0  3  0  0  0  0  0  0
  190.1820  173.8770  136.6520 C   0  0  0  0  0  1  0  0  0  0  0  0
  189.7370  175.0640  137.4980 C   0  0  2  0  0  3  0  0  0  0  0  0
  188.3590  177.2620  137.6300 C   0  0  2  0  0  0  0  0  0  0  0  0
  189.1920  177.4750  135.3520 C   0  0  0  0  0  2  0  0  0  0  0  0
  188.0750  178.1730  138.8570 C   0  0  1  0  0  3  0  0  0  0  0  0
  191.8800  176.4900  137.1650 C   0  0  2  0  0  3  0  0  0  0  0  0
  191.9750  175.6730  136.0370 O   0  0  0  0  0  1  0  0  0  0  0  0
  193.2680  176.6630  137.7770 C   0  0  0  0  0  2  0  0  0  0  0  0
  194.2360  176.7640  136.7760 O   0  0  0  0  0  1  0  0  0  0  0  0
  186.5870  178.7580  140.6350 C   0  0  0  0  0  1  0  0  0  0  0  0
  186.6700  178.1180  139.3290 N   0  0  0  0  0  0  0  0  0  0  0  0
  185.6760  178.7420  138.4590 C   0  0  0  0  0  2  0  0  0  0  0  0
  184.2800  178.2820  138.8440 C   0  0  0  0  0  2  0  0  0  0  0  0
  183.3570  179.4760  139.0140 C   0  0  0  0  0  2  0  0  0  0  0  0
  184.1050  180.6520  138.9490 O   0  0  0  0  0  1  0  0  0  0  0  0
  190.8050  176.7810  140.3790 C   0  0  0  0  0  2  0  0  0  0  0  0
  189.6420  176.8440  141.3520 C   0  0  0  0  0  2  0  0  0  0  0  0
  189.9560  177.8450  142.4480 C   0  0  0  0  0  1  0  0  0  0  0  0
  187.1870  175.0120  137.2620 C   0  0  0  0  0  2  0  0  0  0  0  0
  186.0350  175.7590  136.9870 O   0  0  0  0  0  0  0  0  0  0  0  0
  185.1630  174.8660  136.3610 C   0  0  1  0  0  3  0  0  0  0  0  0
  183.5830  174.7760  138.1640 O   0  0  0  0  0  0  0  0  0  0  0  0
  184.4310  172.7240  137.4800 N   0  0  0  0  0  1  0  0  0  0  0  0
  184.3470  174.1410  137.3870 C   0  0  0  0  0  0  0  0  0  0  0  0
  184.2830  175.6160  135.4100 C   0  0  0  0  0  3  0  0  0  0  0  0
  184.2900  176.9470  135.3740 C   0  0  0  0  0  2  0  0  0  0  0  0
  1 22  1  0  0  0  0
  3  1  1  6  0  0  0
  4  5  1  0  0  0  0
  5 25  1  1  0  0  0
  5  8  1  0  0  0  0
  5  9  1  0  0  0  0
  6 12  1  6  0  0  0
  6  1  1  0  0  0  0
  8  7  1  6  0  0  0
  8  6  1  0  0  0  0
  9  2  1  6  0  0  0
  9 11  1  0  0  0  0
  9  3  1  0  0  0  0
 10  4  1  0  0  0  0
 10  2  1  0  0  0  0
 11  3  1  0  0  0  0
 11 17  1  1  0  0  0
 12 13  1  6  0  0  0
 12 14  1  0  0  0  0
 15 14  1  0  0  0  0
 17 16  1  0  0  0  0
 18 19  1  0  0  0  0
 18 17  1  0  0  0  0
 19 20  1  0  0  0  0
 21 20  1  0  0  0  0
 22 23  1  0  0  0  0
 23 24  1  0  0  0  0
 26 25  1  0  0  0  0
 27 31  1  6  0  0  0
 27 26  1  0  0  0  0
 27 30  1  0  0  0  0
 30 29  1  0  0  0  0
 30 28  2  0  0  0  0
 32 31  2  0  0  0  0
M  END
>  <MODEL>
2

>  <REMARK>
 VINA RESULT:      -5.3      3.834      6.880
  Name = 
  13 active torsions:
  status: ('A' for Active; 'I' for Inactive)
    1  A    between atoms: C_1  and  C_4
    2  A    between atoms: C_1  and  C_27
    3  A    between atoms: C_2  and  N_5
    4  A    between atoms: C_2  and  C_14
    5  A    between atoms: O_3  and  C_19
    6  A    between atoms: O_3  and  C_22
    7  A    between atoms: C_6  and  C_13
    8  A    between atoms: C_6  and  C_18
    9  A    between atoms: C_12  and  C_22
   10  A    between atoms: C_15  and  C_19
   11  A    between atoms: C_19  and  C_26
   12  A    between atoms: N_24  and  C_27
   13  A    between atoms: N_24  and  C_32
                            x       y       z     vdW  Elec       q    Type
                         _______ _______ _______ _____ _____    ______ ____

>  <TORSDO>
F 13

$$$$
=
 OpenBabel11052414323D

 32 34  0  0  1  0  0  0  0  0999 V2000
  186.1900  174.9410  136.6360 N   0  0  0  0  0  0  0  0  0  0  0  0
  187.4220  176.7340  134.8720 C   0  0  0  0  0  2  0  0  0  0  0  0
  187.5610  175.2190  137.0590 C   0  0  2  0  0  3  0  0  0  0  0  0
  187.3630  178.7730  136.2140 C   0  0  0  0  0  2  0  0  0  0  0  0
  187.4900  177.5870  137.1580 C   0  0  1  0  0  0  0  0  0  0  0  0
  185.2990  176.0540  137.0680 C   0  0  1  0  0  3  0  0  0  0  0  0
  185.2420  178.4050  138.2770 C   0  0  0  0  0  1  0  0  0  0  0  0
  186.0730  177.2410  137.7500 C   0  0  2  0  0  3  0  0  0  0  0  0
  188.0370  176.4630  136.2380 C   0  0  2  0  0  0  0  0  0  0  0  0
  187.1400  178.2230  134.8160 C   0  0  0  0  0  2  0  0  0  0  0  0
  188.6620  175.0480  136.0890 C   0  0  1  0  0  3  0  0  0  0  0  0
  184.4200  176.5110  135.8870 C   0  0  2  0  0  3  0  0  0  0  0  0
  183.1500  176.8940  136.3210 O   0  0  0  0  0  1  0  0  0  0  0  0
  184.2800  175.4270  134.8200 C   0  0  0  0  0  2  0  0  0  0  0  0
  183.0830  174.7270  134.9880 O   0  0  0  0  0  1  0  0  0  0  0  0
  190.4860  173.5590  136.5060 C   0  0  0  0  0  1  0  0  0  0  0  0
  190.0200  174.9290  136.6720 N   0  0  0  0  0  0  0  0  0  0  0  0
  191.0370  175.8200  136.1180 C   0  0  0  0  0  2  0  0  0  0  0  0
  192.1390  176.0550  137.1370 C   0  0  0  0  0  2  0  0  0  0  0  0
  193.4950  176.0860  136.4530 C   0  0  0  0  0  2  0  0  0  0  0  0
  194.4860  175.7390  137.3720 O   0  0  0  0  0  1  0  0  0  0  0  0
  185.7620  173.7560  137.3640 C   0  0  0  0  0  2  0  0  0  0  0  0
  185.9610  172.5230  136.5020 C   0  0  0  0  0  2  0  0  0  0  0  0
  184.6290  171.8240  136.3070 C   0  0  0  0  0  1  0  0  0  0  0  0
  188.4730  177.9710  138.2640 C   0  0  0  0  0  2  0  0  0  0  0  0
  188.4770  177.0190  139.2910 O   0  0  0  0  0  0  0  0  0  0  0  0
  189.2630  177.5780  140.3020 C   0  0  1  0  0  3  0  0  0  0  0  0
  188.8780  176.6610  142.4860 O   0  0  0  0  0  0  0  0  0  0  0  0
  187.4650  178.4010  141.8740 N   0  0  0  0  0  1  0  0  0  0  0  0
  188.5390  177.5050  141.6130 C   0  0  0  0  0  0  0  0  0  0  0  0
  190.5700  176.8520  140.3720 C   0  0  0  0  0  3  0  0  0  0  0  0
  191.7070  177.5080  140.5990 C   0  0  0  0  0  2  0  0  0  0  0  0
  1  6  1  0  0  0  0
  1 22  1  0  0  0  0
  3  1  1  6  0  0  0
  4  5  1  0  0  0  0
  5  8  1  0  0  0  0
  5 25  1  1  0  0  0
  6 12  1  6  0  0  0
  6  8  1  0  0  0  0
  8  7  1  6  0  0  0
  9  2  1  6  0  0  0
  9  3  1  0  0  0  0
  9  5  1  0  0  0  0
 10  2  1  0  0  0  0
 10  4  1  0  0  0  0
 11  9  1  0  0  0  0
 11 17  1  1  0  0  0
 11  3  1  0  0  0  0
 12 13  1  1  0  0  0
 14 15  1  0  0  0  0
 14 12  1  0  0  0  0
 16 17  1  0  0  0  0
 18 17  1  0  0  0  0
 18 19  1  0  0  0  0
 20 19  1  0  0  0  0
 20 21  1  0  0  0  0
 23 22  1  0  0  0  0
 24 23  1  0  0  0  0
 25 26  1  0  0  0  0
 26 27  1  0  0  0  0
 27 31  1  1  0  0  0
 27 30  1  0  0  0  0
 30 29  1  0  0  0  0
 30 28  2  0  0  0  0
 31 32  2  0  0  0  0
M  END
>  <MODEL>
3

>  <REMARK>
 VINA RESULT:      -5.2      4.219      8.670
  Name = 
  13 active torsions:
  status: ('A' for Active; 'I' for Inactive)
    1  A    between atoms: C_1  and  C_4
    2  A    between atoms: C_1  and  C_27
    3  A    between atoms: C_2  and  N_5
    4  A    between atoms: C_2  and  C_14
    5  A    between atoms: O_3  and  C_19
    6  A    between atoms: O_3  and  C_22
    7  A    between atoms: C_6  and  C_13
    8  A    between atoms: C_6  and  C_18
    9  A    between atoms: C_12  and  C_22
   10  A    between atoms: C_15  and  C_19
   11  A    between atoms: C_19  and  C_26
   12  A    between atoms: N_24  and  C_27
   13  A    between atoms: N_24  and  C_32
                            x       y       z     vdW  Elec       q    Type
                         _______ _______ _______ _____ _____    ______ ____

>  <TORSDO>
F 13

$$$$
=
 OpenBabel11052414323D

 32 34  0  0  1  0  0  0  0  0999 V2000
  184.9650  174.1290  136.8630 N   0  0  0  0  0  0  0  0  0  0  0  0
  184.2070  176.2640  135.2160 C   0  0  0  0  0  2  0  0  0  0  0  0
  185.7550  175.3200  137.1690 C   0  0  2  0  0  3  0  0  0  0  0  0
  182.9160  177.5970  136.8030 C   0  0  0  0  0  2  0  0  0  0  0  0
  184.0130  176.8770  137.5710 C   0  0  1  0  0  0  0  0  0  0  0  0
  183.6340  174.2290  137.5250 C   0  0  1  0  0  3  0  0  0  0  0  0
  182.0970  175.7770  139.0180 C   0  0  0  0  0  1  0  0  0  0  0  0
  183.4090  175.5990  138.2630 C   0  0  2  0  0  3  0  0  0  0  0  0
  185.0410  176.5210  136.4650 C   0  0  2  0  0  0  0  0  0  0  0  0
  182.9330  177.0700  135.3790 C   0  0  0  0  0  2  0  0  0  0  0  0
  186.4590  176.0170  136.0720 C   0  0  1  0  0  3  0  0  0  0  0  0
  182.5200  173.9040  136.5100 C   0  0  2  0  0  3  0  0  0  0  0  0
  181.4230  173.3110  137.1390 O   0  0  0  0  0  1  0  0  0  0  0  0
  183.0090  172.9910  135.3890 C   0  0  0  0  0  2  0  0  0  0  0  0
  182.8650  171.6500  135.7500 O   0  0  0  0  0  1  0  0  0  0  0  0
  187.1770  178.2960  136.1610 C   0  0  0  0  0  1  0  0  0  0  0  0
  187.5530  176.9280  136.4880 N   0  0  0  0  0  0  0  0  0  0  0  0
  187.9190  176.8880  137.9020 C   0  0  0  0  0  2  0  0  0  0  0  0
  188.3720  178.2630  138.3650 C   0  0  0  0  0  2  0  0  0  0  0  0
  188.5620  178.2780  139.8710 C   0  0  0  0  0  2  0  0  0  0  0  0
  189.5980  177.4100  140.2160 O   0  0  0  0  0  1  0  0  0  0  0  0
  185.6540  173.0040  137.4780 C   0  0  0  0  0  2  0  0  0  0  0  0
  186.5340  172.3160  136.4510 C   0  0  0  0  0  2  0  0  0  0  0  0
  187.9750  172.3460  136.9210 C   0  0  0  0  0  1  0  0  0  0  0  0
  184.5780  177.8520  138.6060 C   0  0  0  0  0  2  0  0  0  0  0  0
  183.8720  179.0610  138.6000 O   0  0  0  0  0  0  0  0  0  0  0  0
  183.6750  179.3730  139.9480 C   0  0  1  0  0  3  0  0  0  0  0  0
  182.0310  178.4730  141.4450 O   0  0  0  0  0  0  0  0  0  0  0  0
  181.1920  179.4020  139.4870 N   0  0  0  0  0  1  0  0  0  0  0  0
  182.2680  179.0490  140.3490 C   0  0  0  0  0  0  0  0  0  0  0  0
  184.6580  178.6130  140.7820 C   0  0  0  0  0  3  0  0  0  0  0  0
  185.3990  179.2280  141.7010 C   0  0  0  0  0  2  0  0  0  0  0  0
  1 22  1  0  0  0  0
  1  6  1  0  0  0  0
  2 10  1  0  0  0  0
  3  1  1  6  0  0  0
  4  5  1  0  0  0  0
  5  8  1  0  0  0  0
  5 25  1  1  0  0  0
  6 12  1  6  0  0  0
  6  8  1  0  0  0  0
  8  7  1  6  0  0  0
  9  2  1  6  0  0  0
  9  3  1  0  0  0  0
  9  5  1  0  0  0  0
 10  4  1  0  0  0  0
 11  9  1  0  0  0  0
 11 17  1  1  0  0  0
 11  3  1  0  0  0  0
 12 13  1  1  0  0  0
 14 15  1  0  0  0  0
 14 12  1  0  0  0  0
 16 17  1  0  0  0  0
 17 18  1  0  0  0  0
 18 19  1  0  0  0  0
 19 20  1  0  0  0  0
 20 21  1  0  0  0  0
 23 24  1  0  0  0  0
 23 22  1  0  0  0  0
 26 25  1  0  0  0  0
 26 27  1  0  0  0  0
 27 30  1  0  0  0  0
 27 31  1  1  0  0  0
 29 30  1  0  0  0  0
 30 28  2  0  0  0  0
 31 32  2  0  0  0  0
M  END
>  <MODEL>
4

>  <REMARK>
 VINA RESULT:      -5.1      5.088      9.465
  Name = 
  13 active torsions:
  status: ('A' for Active; 'I' for Inactive)
    1  A    between atoms: C_1  and  C_4
    2  A    between atoms: C_1  and  C_27
    3  A    between atoms: C_2  and  N_5
    4  A    between atoms: C_2  and  C_14
    5  A    between atoms: O_3  and  C_19
    6  A    between atoms: O_3  and  C_22
    7  A    between atoms: C_6  and  C_13
    8  A    between atoms: C_6  and  C_18
    9  A    between atoms: C_12  and  C_22
   10  A    between atoms: C_15  and  C_19
   11  A    between atoms: C_19  and  C_26
   12  A    between atoms: N_24  and  C_27
   13  A    between atoms: N_24  and  C_32
                            x       y       z     vdW  Elec       q    Type
                         _______ _______ _______ _____ _____    ______ ____

>  <TORSDO>
F 13

$$$$
=
 OpenBabel11052414323D

 32 34  0  0  1  0  0  0  0  0999 V2000
  187.9900  178.0420  141.6200 N   0  0  0  0  0  0  0  0  0  0  0  0
  188.6670  175.6270  142.8680 C   0  0  0  0  0  2  0  0  0  0  0  0
  187.6310  178.0760  143.0360 C   0  0  2  0  0  3  0  0  0  0  0  0
  190.6580  176.3190  144.1000 C   0  0  0  0  0  2  0  0  0  0  0  0
  189.7200  177.5130  144.0050 C   0  0  1  0  0  0  0  0  0  0  0  0
  189.4470  178.3160  141.4690 C   0  0  1  0  0  3  0  0  0  0  0  0
  191.6850  178.7930  142.7920 C   0  0  0  0  0  1  0  0  0  0  0  0
  190.1990  178.4580  142.8420 C   0  0  2  0  0  3  0  0  0  0  0  0
  188.3460  176.8570  143.7070 C   0  0  2  0  0  0  0  0  0  0  0  0
  190.0770  175.2120  143.2390 C   0  0  0  0  0  2  0  0  0  0  0  0
  186.8010  176.9880  143.5940 C   0  0  1  0  0  3  0  0  0  0  0  0
  190.0840  177.2610  140.5420 C   0  0  2  0  0  3  0  0  0  0  0  0
  191.4110  177.5830  140.2490 O   0  0  0  0  0  1  0  0  0  0  0  0
  189.3080  177.0960  139.2370 C   0  0  0  0  0  2  0  0  0  0  0  0
  190.0220  176.2970  138.3400 O   0  0  0  0  0  1  0  0  0  0  0  0
  186.9400  176.7580  145.9700 C   0  0  0  0  0  1  0  0  0  0  0  0
  186.1300  177.2880  144.8820 N   0  0  0  0  0  0  0  0  0  0  0  0
  185.8740  178.6990  145.1600 C   0  0  0  0  0  2  0  0  0  0  0  0
  184.4170  178.9030  145.5400 C   0  0  0  0  0  2  0  0  0  0  0  0
  183.6350  179.4580  144.3620 C   0  0  0  0  0  2  0  0  0  0  0  0
  182.5450  178.6290  144.0980 O   0  0  0  0  0  1  0  0  0  0  0  0
  187.2890  179.1480  140.9860 C   0  0  0  0  0  2  0  0  0  0  0  0
  186.0820  178.6250  140.2290 C   0  0  0  0  0  2  0  0  0  0  0  0
  184.8170  179.0020  140.9760 C   0  0  0  0  0  1  0  0  0  0  0  0
  189.7450  178.2370  145.3530 C   0  0  0  0  0  2  0  0  0  0  0  0
  190.9310  177.9720  146.0470 O   0  0  0  0  0  0  0  0  0  0  0  0
  190.5420  177.2180  147.1570 C   0  0  1  0  0  3  0  0  0  0  0  0
  192.4260  177.1250  148.6400 O   0  0  0  0  0  0  0  0  0  0  0  0
  192.0850  175.2280  147.3440 N   0  0  0  0  0  1  0  0  0  0  0  0
  191.7350  176.5420  147.7620 C   0  0  0  0  0  0  0  0  0  0  0  0
  189.8720  178.1120  148.1540 C   0  0  0  0  0  3  0  0  0  0  0  0
  188.6290  177.8700  148.5650 C   0  0  0  0  0  2  0  0  0  0  0  0
  2 10  1  0  0  0  0
  3  1  1  6  0  0  0
  3 11  1  0  0  0  0
  3  9  1  0  0  0  0
  5  4  1  0  0  0  0
  5 25  1  1  0  0  0
  6 12  1  1  0  0  0
  6  1  1  0  0  0  0
  6  8  1  0  0  0  0
  8  7  1  6  0  0  0
  8  5  1  0  0  0  0
  9  2  1  6  0  0  0
  9  5  1  0  0  0  0
 10  4  1  0  0  0  0
 11  9  1  0  0  0  0
 11 17  1  1  0  0  0
 12 13  1  6  0  0  0
 14 12  1  0  0  0  0
 15 14  1  0  0  0  0
 17 18  1  0  0  0  0
 17 16  1  0  0  0  0
 18 19  1  0  0  0  0
 20 19  1  0  0  0  0
 21 20  1  0  0  0  0
 22  1  1  0  0  0  0
 23 24  1  0  0  0  0
 23 22  1  0  0  0  0
 25 26  1  0  0  0  0
 26 27  1  0  0  0  0
 27 30  1  0  0  0  0
 27 31  1  1  0  0  0
 29 30  1  0  0  0  0
 30 28  2  0  0  0  0
 31 32  2  0  0  0  0
M  END
>  <MODEL>
5

>  <REMARK>
 VINA RESULT:      -5.1      1.807      6.094
  Name = 
  13 active torsions:
  status: ('A' for Active; 'I' for Inactive)
    1  A    between atoms: C_1  and  C_4
    2  A    between atoms: C_1  and  C_27
    3  A    between atoms: C_2  and  N_5
    4  A    between atoms: C_2  and  C_14
    5  A    between atoms: O_3  and  C_19
    6  A    between atoms: O_3  and  C_22
    7  A    between atoms: C_6  and  C_13
    8  A    between atoms: C_6  and  C_18
    9  A    between atoms: C_12  and  C_22
   10  A    between atoms: C_15  and  C_19
   11  A    between atoms: C_19  and  C_26
   12  A    between atoms: N_24  and  C_27
   13  A    between atoms: N_24  and  C_32
                            x       y       z     vdW  Elec       q    Type
                         _______ _______ _______ _____ _____    ______ ____

>  <TORSDO>
F 13

$$$$
=
 OpenBabel11052414323D

 32 34  0  0  1  0  0  0  0  0999 V2000
  180.1810  177.6630  139.8080 N   0  0  0  0  0  0  0  0  0  0  0  0
  181.1370  179.7930  138.2610 C   0  0  0  0  0  2  0  0  0  0  0  0
  181.0100  177.1700  138.7100 C   0  0  2  0  0  3  0  0  0  0  0  0
  183.4570  179.8720  139.0180 C   0  0  0  0  0  2  0  0  0  0  0  0
  182.9840  178.4280  139.0870 C   0  0  1  0  0  0  0  0  0  0  0  0
  181.0540  178.1400  140.9170 C   0  0  1  0  0  3  0  0  0  0  0  0
  183.5650  178.4990  141.6620 C   0  0  0  0  0  1  0  0  0  0  0  0
  182.5860  178.0830  140.5710 C   0  0  2  0  0  3  0  0  0  0  0  0
  181.7640  178.4110  138.1290 C   0  0  2  0  0  0  0  0  0  0  0  0
  182.2530  180.7320  138.6780 C   0  0  0  0  0  2  0  0  0  0  0  0
  180.7050  177.6000  137.3300 C   0  0  1  0  0  3  0  0  0  0  0  0
  180.5960  179.5370  141.3800 C   0  0  2  0  0  3  0  0  0  0  0  0
  180.6660  179.6560  142.7700 O   0  0  0  0  0  1  0  0  0  0  0  0
  179.1760  179.8600  140.9210 C   0  0  0  0  0  2  0  0  0  0  0  0
  178.9320  181.2330  141.0090 O   0  0  0  0  0  1  0  0  0  0  0  0
  182.2900  177.5350  135.5400 C   0  0  0  0  0  1  0  0  0  0  0  0
  181.2830  176.7610  136.2530 N   0  0  0  0  0  0  0  0  0  0  0  0
  181.9000  175.5060  136.6770 C   0  0  0  0  0  2  0  0  0  0  0  0
  180.9400  174.3490  136.4570 C   0  0  0  0  0  2  0  0  0  0  0  0
  181.4240  173.1120  137.1930 C   0  0  0  0  0  2  0  0  0  0  0  0
  180.3250  172.3850  137.6510 O   0  0  0  0  0  1  0  0  0  0  0  0
  179.4430  176.5170  140.3190 C   0  0  0  0  0  2  0  0  0  0  0  0
  180.2330  175.2460  140.0730 C   0  0  0  0  0  2  0  0  0  0  0  0
  179.5130  174.0740  140.7110 C   0  0  0  0  0  1  0  0  0  0  0  0
  184.1270  177.5360  138.5990 C   0  0  0  0  0  2  0  0  0  0  0  0
  185.3550  178.2050  138.6660 O   0  0  0  0  0  0  0  0  0  0  0  0
  186.0340  177.8370  137.5030 C   0  0  1  0  0  3  0  0  0  0  0  0
  188.1130  176.9520  138.3110 O   0  0  0  0  0  0  0  0  0  0  0  0
  188.2480  179.0320  137.2860 N   0  0  0  0  0  1  0  0  0  0  0  0
  187.5140  177.8980  137.7320 C   0  0  0  0  0  0  0  0  0  0  0  0
  185.6130  176.4590  137.0970 C   0  0  0  0  0  3  0  0  0  0  0  0
  185.7800  176.0310  135.8470 C   0  0  0  0  0  2  0  0  0  0  0  0
  1 22  1  0  0  0  0
  1  6  1  0  0  0  0
  2 10  1  0  0  0  0
  3  1  1  1  0  0  0
  4  5  1  0  0  0  0
  5 25  1  6  0  0  0
  5  8  1  0  0  0  0
  6 12  1  6  0  0  0
  8  6  1  0  0  0  0
  8  7  1  1  0  0  0
  9  2  1  1  0  0  0
  9  3  1  0  0  0  0
  9  5  1  0  0  0  0
 10  4  1  0  0  0  0
 11 17  1  6  0  0  0
 11  9  1  0  0  0  0
 11  3  1  0  0  0  0
 12 13  1  1  0  0  0
 14 15  1  0  0  0  0
 14 12  1  0  0  0  0
 16 17  1  0  0  0  0
 17 18  1  0  0  0  0
 19 18  1  0  0  0  0
 19 20  1  0  0  0  0
 20 21  1  0  0  0  0
 23 22  1  0  0  0  0
 23 24  1  0  0  0  0
 25 26  1  0  0  0  0
 27 31  1  1  0  0  0
 27 30  1  0  0  0  0
 27 26  1  0  0  0  0
 29 30  1  0  0  0  0
 30 28  2  0  0  0  0
 32 31  2  0  0  0  0
M  END
>  <MODEL>
6

>  <REMARK>
 VINA RESULT:      -5.1      5.756      8.779
  Name = 
  13 active torsions:
  status: ('A' for Active; 'I' for Inactive)
    1  A    between atoms: C_1  and  C_4
    2  A    between atoms: C_1  and  C_27
    3  A    between atoms: C_2  and  N_5
    4  A    between atoms: C_2  and  C_14
    5  A    between atoms: O_3  and  C_19
    6  A    between atoms: O_3  and  C_22
    7  A    between atoms: C_6  and  C_13
    8  A    between atoms: C_6  and  C_18
    9  A    between atoms: C_12  and  C_22
   10  A    between atoms: C_15  and  C_19
   11  A    between atoms: C_19  and  C_26
   12  A    between atoms: N_24  and  C_27
   13  A    between atoms: N_24  and  C_32
                            x       y       z     vdW  Elec       q    Type
                         _______ _______ _______ _____ _____    ______ ____

>  <TORSDO>
F 13

$$$$
=
 OpenBabel11052414323D

 32 34  0  0  1  0  0  0  0  0999 V2000
  180.8030  178.4830  139.1140 N   0  0  0  0  0  0  0  0  0  0  0  0
  182.1830  176.1270  139.7380 C   0  0  0  0  0  2  0  0  0  0  0  0
  182.1120  178.7900  139.6890 C   0  0  2  0  0  3  0  0  0  0  0  0
  183.8010  176.0750  137.9110 C   0  0  0  0  0  2  0  0  0  0  0  0
  183.5020  177.5300  138.2400 C   0  0  1  0  0  0  0  0  0  0  0  0
  180.9590  178.1370  137.6740 C   0  0  1  0  0  3  0  0  0  0  0  0
  182.7210  177.8000  135.7320 C   0  0  0  0  0  1  0  0  0  0  0  0
  182.4590  178.0930  137.2040 C   0  0  2  0  0  3  0  0  0  0  0  0
  182.9260  177.4540  139.6780 C   0  0  2  0  0  0  0  0  0  0  0  0
  182.8450  175.2180  138.7200 C   0  0  0  0  0  2  0  0  0  0  0  0
  182.4900  178.1810  140.9810 C   0  0  1  0  0  3  0  0  0  0  0  0
  180.1950  176.8350  137.3630 C   0  0  2  0  0  3  0  0  0  0  0  0
  179.8350  176.7700  136.0160 O   0  0  0  0  0  1  0  0  0  0  0  0
  178.9430  176.6810  138.2240 C   0  0  0  0  0  2  0  0  0  0  0  0
  178.9310  175.4340  138.8530 O   0  0  0  0  0  1  0  0  0  0  0  0
  183.2120  179.0590  143.0850 C   0  0  0  0  0  1  0  0  0  0  0  0
  183.6060  178.8420  141.7000 N   0  0  0  0  0  0  0  0  0  0  0  0
  184.8810  178.1280  141.7020 C   0  0  0  0  0  2  0  0  0  0  0  0
  185.6500  178.4310  142.9770 C   0  0  0  0  0  2  0  0  0  0  0  0
  187.0240  177.7870  142.9320 C   0  0  0  0  0  2  0  0  0  0  0  0
  187.7550  178.3300  141.8750 O   0  0  0  0  0  1  0  0  0  0  0  0
  180.0270  179.7140  139.1670 C   0  0  0  0  0  2  0  0  0  0  0  0
  180.9490  180.9090  139.0150 C   0  0  0  0  0  2  0  0  0  0  0  0
  180.1940  182.0460  138.3530 C   0  0  0  0  0  1  0  0  0  0  0  0
  184.8200  178.3060  138.1750 C   0  0  0  0  0  2  0  0  0  0  0  0
  185.8800  177.4710  137.8000 O   0  0  0  0  0  0  0  0  0  0  0  0
  186.8190  178.3200  137.2080 C   0  0  1  0  0  3  0  0  0  0  0  0
  188.7460  179.2410  138.3010 O   0  0  0  0  0  0  0  0  0  0  0  0
  188.6860  176.9220  138.1750 N   0  0  0  0  0  1  0  0  0  0  0  0
  188.1320  178.2080  137.9210 C   0  0  0  0  0  0  0  0  0  0  0  0
  186.9640  177.9660  135.7600 C   0  0  0  0  0  3  0  0  0  0  0  0
  186.2010  177.0280  135.2040 C   0  0  0  0  0  2  0  0  0  0  0  0
  1 22  1  0  0  0  0
  3  1  1  1  0  0  0
  3 11  1  0  0  0  0
  4  5  1  0  0  0  0
  4 10  1  0  0  0  0
  5 25  1  6  0  0  0
  5  9  1  0  0  0  0
  6 12  1  1  0  0  0
  6  1  1  0  0  0  0
  8  7  1  6  0  0  0
  8  6  1  0  0  0  0
  8  5  1  0  0  0  0
  9  3  1  0  0  0  0
  9  2  1  6  0  0  0
  9 11  1  0  0  0  0
 10  2  1  0  0  0  0
 11 17  1  6  0  0  0
 12 13  1  6  0  0  0
 12 14  1  0  0  0  0
 14 15  1  0  0  0  0
 17 18  1  0  0  0  0
 17 16  1  0  0  0  0
 18 19  1  0  0  0  0
 20 19  1  0  0  0  0
 21 20  1  0  0  0  0
 23 22  1  0  0  0  0
 24 23  1  0  0  0  0
 26 25  1  0  0  0  0
 27 31  1  6  0  0  0
 27 26  1  0  0  0  0
 27 30  1  0  0  0  0
 30 29  1  0  0  0  0
 30 28  2  0  0  0  0
 32 31  2  0  0  0  0
M  END
>  <MODEL>
7

>  <REMARK>
 VINA RESULT:      -5.1      4.773      8.725
  Name = 
  13 active torsions:
  status: ('A' for Active; 'I' for Inactive)
    1  A    between atoms: C_1  and  C_4
    2  A    between atoms: C_1  and  C_27
    3  A    between atoms: C_2  and  N_5
    4  A    between atoms: C_2  and  C_14
    5  A    between atoms: O_3  and  C_19
    6  A    between atoms: O_3  and  C_22
    7  A    between atoms: C_6  and  C_13
    8  A    between atoms: C_6  and  C_18
    9  A    between atoms: C_12  and  C_22
   10  A    between atoms: C_15  and  C_19
   11  A    between atoms: C_19  and  C_26
   12  A    between atoms: N_24  and  C_27
   13  A    between atoms: N_24  and  C_32
                            x       y       z     vdW  Elec       q    Type
                         _______ _______ _______ _____ _____    ______ ____

>  <TORSDO>
F 13

$$$$
=
 OpenBabel11052414323D

 32 34  0  0  1  0  0  0  0  0999 V2000
  190.1120  176.7690  138.4940 N   0  0  0  0  0  0  0  0  0  0  0  0
  190.0150  177.4780  135.7860 C   0  0  0  0  0  2  0  0  0  0  0  0
  188.7330  177.0020  138.0720 C   0  0  2  0  0  3  0  0  0  0  0  0
  189.1930  175.3910  134.8210 C   0  0  0  0  0  2  0  0  0  0  0  0
  188.6120  175.5280  136.2200 C   0  0  1  0  0  0  0  0  0  0  0  0
  190.5390  175.4050  138.0720 C   0  0  1  0  0  3  0  0  0  0  0  0
  189.7750  173.2250  136.7850 C   0  0  0  0  0  1  0  0  0  0  0  0
  189.4540  174.6510  137.2190 C   0  0  2  0  0  3  0  0  0  0  0  0
  188.7460  177.0470  136.5090 C   0  0  2  0  0  0  0  0  0  0  0  0
  190.2010  176.5120  134.6320 C   0  0  0  0  0  2  0  0  0  0  0  0
  188.3930  178.2720  137.3980 C   0  0  1  0  0  3  0  0  0  0  0  0
  191.9090  175.4790  137.3700 C   0  0  2  0  0  3  0  0  0  0  0  0
  192.5990  174.2700  137.4800 O   0  0  0  0  0  1  0  0  0  0  0  0
  192.7800  176.6050  137.9220 C   0  0  0  0  0  2  0  0  0  0  0  0
  193.9350  176.7540  137.1500 O   0  0  0  0  0  1  0  0  0  0  0  0
  186.4350  178.4410  136.0350 C   0  0  0  0  0  1  0  0  0  0  0  0
  186.9520  178.6260  137.3830 N   0  0  0  0  0  0  0  0  0  0  0  0
  186.0970  177.8750  138.3000 C   0  0  0  0  0  2  0  0  0  0  0  0
  184.8560  178.6830  138.6400 C   0  0  0  0  0  2  0  0  0  0  0  0
  184.6300  178.6990  140.1420 C   0  0  0  0  0  2  0  0  0  0  0  0
  185.6790  179.3790  140.7610 O   0  0  0  0  0  1  0  0  0  0  0  0
  190.1100  176.7740  139.9500 C   0  0  0  0  0  2  0  0  0  0  0  0
  189.2380  177.9070  140.4580 C   0  0  0  0  0  2  0  0  0  0  0  0
  188.5490  177.4760  141.7390 C   0  0  0  0  0  1  0  0  0  0  0  0
  187.1550  175.0660  136.1700 C   0  0  0  0  0  2  0  0  0  0  0  0
  186.7570  174.5140  137.3940 O   0  0  0  0  0  0  0  0  0  0  0  0
  185.7620  173.5890  137.0690 C   0  0  1  0  0  3  0  0  0  0  0  0
  183.9490  174.8960  137.9430 O   0  0  0  0  0  0  0  0  0  0  0  0
  183.7280  174.2450  135.7240 N   0  0  0  0  0  1  0  0  0  0  0  0
  184.4370  174.2800  136.9570 C   0  0  0  0  0  0  0  0  0  0  0  0
  186.1190  172.9050  135.7860 C   0  0  0  0  0  3  0  0  0  0  0  0
  186.0640  171.5800  135.6770 C   0  0  0  0  0  2  0  0  0  0  0  0
  1 22  1  0  0  0  0
  3  1  1  1  0  0  0
  4  5  1  0  0  0  0
  5 25  1  1  0  0  0
  5  9  1  0  0  0  0
  5  8  1  0  0  0  0
  6 12  1  6  0  0  0
  6  1  1  0  0  0  0
  8  7  1  6  0  0  0
  8  6  1  0  0  0  0
  9  2  1  6  0  0  0
  9 11  1  0  0  0  0
  9  3  1  0  0  0  0
 10  4  1  0  0  0  0
 10  2  1  0  0  0  0
 11 17  1  6  0  0  0
 11  3  1  0  0  0  0
 12 13  1  1  0  0  0
 12 14  1  0  0  0  0
 15 14  1  0  0  0  0
 16 17  1  0  0  0  0
 17 18  1  0  0  0  0
 18 19  1  0  0  0  0
 19 20  1  0  0  0  0
 20 21  1  0  0  0  0
 22 23  1  0  0  0  0
 23 24  1  0  0  0  0
 25 26  1  0  0  0  0
 27 31  1  6  0  0  0
 27 26  1  0  0  0  0
 29 30  1  0  0  0  0
 30 27  1  0  0  0  0
 30 28  2  0  0  0  0
 32 31  2  0  0  0  0
M  END
>  <MODEL>
8

>  <REMARK>
 VINA RESULT:      -5.1      3.795      6.967
  Name = 
  13 active torsions:
  status: ('A' for Active; 'I' for Inactive)
    1  A    between atoms: C_1  and  C_4
    2  A    between atoms: C_1  and  C_27
    3  A    between atoms: C_2  and  N_5
    4  A    between atoms: C_2  and  C_14
    5  A    between atoms: O_3  and  C_19
    6  A    between atoms: O_3  and  C_22
    7  A    between atoms: C_6  and  C_13
    8  A    between atoms: C_6  and  C_18
    9  A    between atoms: C_12  and  C_22
   10  A    between atoms: C_15  and  C_19
   11  A    between atoms: C_19  and  C_26
   12  A    between atoms: N_24  and  C_27
   13  A    between atoms: N_24  and  C_32
                            x       y       z     vdW  Elec       q    Type
                         _______ _______ _______ _____ _____    ______ ____

>  <TORSDO>
F 13

$$$$
=
 OpenBabel11052414323D

 32 34  0  0  1  0  0  0  0  0999 V2000
  182.6280  175.0560  136.9560 N   0  0  0  0  0  0  0  0  0  0  0  0
  182.4970  177.8510  136.8260 C   0  0  0  0  0  2  0  0  0  0  0  0
  183.7460  175.6580  137.6800 C   0  0  2  0  0  3  0  0  0  0  0  0
  181.7090  178.3530  139.0810 C   0  0  0  0  0  2  0  0  0  0  0  0
  182.5620  177.0950  139.1450 C   0  0  1  0  0  0  0  0  0  0  0  0
  181.4070  175.0860  137.8090 C   0  0  1  0  0  3  0  0  0  0  0  0
  180.4460  175.8700  140.1430 C   0  0  0  0  0  1  0  0  0  0  0  0
  181.6230  175.8330  139.1760 C   0  0  2  0  0  3  0  0  0  0  0  0
  183.4050  177.1750  137.8450 C   0  0  2  0  0  0  0  0  0  0  0  0
  181.5280  178.7080  137.6160 C   0  0  0  0  0  2  0  0  0  0  0  0
  184.5950  176.6530  136.9930 C   0  0  1  0  0  3  0  0  0  0  0  0
  180.2190  175.6450  137.0010 C   0  0  2  0  0  3  0  0  0  0  0  0
  179.0040  175.1580  137.4890 O   0  0  0  0  0  1  0  0  0  0  0  0
  180.3280  175.3180  135.5140 C   0  0  0  0  0  2  0  0  0  0  0  0
  179.8160  174.0450  135.2520 O   0  0  0  0  0  1  0  0  0  0  0  0
  186.8250  175.8220  137.2220 C   0  0  0  0  0  1  0  0  0  0  0  0
  185.9230  176.8980  137.6060 N   0  0  0  0  0  0  0  0  0  0  0  0
  186.5640  178.1660  137.2640 C   0  0  0  0  0  2  0  0  0  0  0  0
  188.0420  177.9470  136.9840 C   0  0  0  0  0  2  0  0  0  0  0  0
  188.8890  178.7470  137.9580 C   0  0  0  0  0  2  0  0  0  0  0  0
  189.7690  177.8890  138.6190 O   0  0  0  0  0  1  0  0  0  0  0  0
  182.9660  173.6540  136.7590 C   0  0  0  0  0  2  0  0  0  0  0  0
  183.5630  173.4570  135.3780 C   0  0  0  0  0  2  0  0  0  0  0  0
  184.9750  172.9190  135.5120 C   0  0  0  0  0  1  0  0  0  0  0  0
  183.4210  177.1760  140.4080 C   0  0  0  0  0  2  0  0  0  0  0  0
  183.2980  178.4270  141.0250 O   0  0  0  0  0  0  0  0  0  0  0  0
  183.9350  178.2880  142.2600 C   0  0  1  0  0  3  0  0  0  0  0  0
  185.6620  179.7650  141.4890 O   0  0  0  0  0  0  0  0  0  0  0  0
  186.3810  178.0040  142.8230 N   0  0  0  0  0  1  0  0  0  0  0  0
  185.3600  178.7390  142.1560 C   0  0  0  0  0  0  0  0  0  0  0  0
  183.1960  179.0840  143.2910 C   0  0  0  0  0  3  0  0  0  0  0  0
  183.3220  178.8110  144.5880 C   0  0  0  0  0  2  0  0  0  0  0  0
  1  6  1  0  0  0  0
  2 10  1  0  0  0  0
  3  1  1  6  0  0  0
  3  9  1  0  0  0  0
  4  5  1  0  0  0  0
  5  8  1  0  0  0  0
  5 25  1  1  0  0  0
  6 12  1  6  0  0  0
  6  8  1  0  0  0  0
  8  7  1  6  0  0  0
  9  2  1  6  0  0  0
  9  5  1  0  0  0  0
 10  4  1  0  0  0  0
 11 17  1  1  0  0  0
 11  3  1  0  0  0  0
 11  9  1  0  0  0  0
 12 13  1  1  0  0  0
 14 12  1  0  0  0  0
 15 14  1  0  0  0  0
 16 17  1  0  0  0  0
 18 17  1  0  0  0  0
 19 18  1  0  0  0  0
 19 20  1  0  0  0  0
 20 21  1  0  0  0  0
 22  1  1  0  0  0  0
 23 24  1  0  0  0  0
 23 22  1  0  0  0  0
 25 26  1  0  0  0  0
 26 27  1  0  0  0  0
 27 31  1  1  0  0  0
 28 30  2  0  0  0  0
 30 27  1  0  0  0  0
 30 29  1  0  0  0  0
 31 32  2  0  0  0  0
M  END
>  <MODEL>
9

>  <REMARK>
 VINA RESULT:      -4.9      5.194      9.944
  Name = 
  13 active torsions:
  status: ('A' for Active; 'I' for Inactive)
    1  A    between atoms: C_1  and  C_4
    2  A    between atoms: C_1  and  C_27
    3  A    between atoms: C_2  and  N_5
    4  A    between atoms: C_2  and  C_14
    5  A    between atoms: O_3  and  C_19
    6  A    between atoms: O_3  and  C_22
    7  A    between atoms: C_6  and  C_13
    8  A    between atoms: C_6  and  C_18
    9  A    between atoms: C_12  and  C_22
   10  A    between atoms: C_15  and  C_19
   11  A    between atoms: C_19  and  C_26
   12  A    between atoms: N_24  and  C_27
   13  A    between atoms: N_24  and  C_32
                            x       y       z     vdW  Elec       q    Type
                         _______ _______ _______ _____ _____    ______ ____

>  <TORSDO>
F 13

$$$$
