=
 OpenBabel11052417013D

 32 36  0  0  1  0  0  0  0  0999 V2000
  184.0540  178.6430  145.1260 C   0  0  0  0  0  2  0  0  0  0  0  0
  182.7780  178.9300  144.3830 C   0  0  0  0  0  3  0  0  0  0  0  0
  185.2690  179.1390  144.3530 C   0  0  0  0  0  2  0  0  0  0  0  0
  185.2430  178.5570  142.9440 C   0  0  1  0  0  3  0  0  0  0  0  0
  182.7440  179.0710  143.0510 C   0  0  0  0  0  3  0  0  0  0  0  0
  183.9890  179.0470  142.1940 C   0  0  2  0  0  3  0  0  0  0  0  0
  183.6760  177.6430  138.8470 N   0  0  0  0  0  0  0  0  0  0  0  0
  182.0870  176.0240  138.8290 C   0  0  0  0  0  0  0  0  0  0  0  0
  183.7400  178.2410  140.9580 C   0  0  0  0  0  0  0  0  0  0  0  0
  182.2190  176.4550  137.3980 C   0  0  0  0  0  3  0  0  0  0  0  0
  183.2580  177.6110  137.4540 C   0  0  0  0  0  3  0  0  0  0  0  0
  182.9830  177.1120  140.9190 N   0  0  0  0  0  0  0  0  0  0  0  0
  181.2670  175.1810  139.2770 O   0  0  0  0  0  0  0  0  0  0  0  0
  184.1240  178.5930  139.6750 C   0  0  0  0  0  0  0  0  0  0  0  0
  183.0120  176.7930  139.6070 C   0  0  0  0  0  0  0  0  0  0  0  0
  184.7270  179.8250  139.2780 N   0  0  0  0  0  2  0  0  0  0  0  0
  184.0350  180.7710  138.8500 O   0  0  0  0  0  1  0  0  0  0  0  0
  186.5090  178.9860  142.2170 C   0  0  0  0  0  2  0  0  0  0  0  0
  190.5690  178.9260  144.0060 O   0  0  0  0  0  0  0  0  0  0  0  0
  188.6140  176.8250  143.6130 C   0  0  1  0  0  3  0  0  0  0  0  0
  188.6810  178.2670  141.7100 C   0  0  0  0  0  2  0  0  0  0  0  0
  190.8210  177.9380  143.0310 C   0  0  0  0  0  2  0  0  0  0  0  0
  187.2960  177.8220  141.8390 N   0  0  0  0  0  0  0  0  0  0  0  0
  189.9870  178.3150  145.1400 C   0  0  1  0  0  3  0  0  0  0  0  0
  189.5290  177.3090  142.5080 C   0  0  1  0  0  3  0  0  0  0  0  0
  188.5950  177.7740  144.8160 C   0  0  0  0  0  2  0  0  0  0  0  0
  187.2490  176.8760  142.9580 C   0  0  0  0  0  2  0  0  0  0  0  0
  190.8120  177.3170  145.6760 O   0  0  0  0  0  0  0  0  0  0  0  0
  190.0900  176.7840  146.6890 N   0  0  0  0  0  2  0  0  0  0  0  0
  190.4910  177.4800  147.9000 C   0  0  0  0  0  2  0  0  0  0  0  0
  189.2920  178.1660  148.5270 C   0  0  0  0  0  2  0  0  0  0  0  0
  188.0320  177.3630  148.2690 C   0  0  0  0  0  1  0  0  0  0  0  0
  2  1  1  0  0  0  0
  3  1  1  0  0  0  0
  4 18  1  6  0  0  0
  4  3  1  0  0  0  0
  5  2  2  0  0  0  0
  6  9  1  6  0  0  0
  6  4  1  0  0  0  0
  6  5  1  0  0  0  0
  7 15  1  0  0  0  0
  7 14  1  0  0  0  0
  8 13  2  0  0  0  0
  8 15  1  0  0  0  0
 10 11  2  0  0  0  0
 10  8  1  0  0  0  0
 11  7  1  0  0  0  0
 12  9  1  0  0  0  0
 14  9  2  0  0  0  0
 15 12  2  0  0  0  0
 16 14  1  0  0  0  0
 17 16  1  0  0  0  0
 19 24  1  0  0  0  0
 20 27  1  6  0  0  0
 20 26  1  0  0  0  0
 21 23  1  0  0  0  0
 22 19  1  0  0  0  0
 23 18  1  0  0  0  0
 23 27  1  0  0  0  0
 24 28  1  6  0  0  0
 25 21  1  1  0  0  0
 25 22  1  0  0  0  0
 25 20  1  0  0  0  0
 26 24  1  0  0  0  0
 28 29  1  0  0  0  0
 29 30  1  0  0  0  0
 30 31  1  0  0  0  0
 32 31  1  0  0  0  0
M  END
>  <MODEL>
1

>  <REMARK>
 VINA RESULT:      -8.0      0.000      0.000
  Name = 
  8 active torsions:
  status: ('A' for Active; 'I' for Inactive)
    1  A    between atoms: C_1  and  C_20
    2  A    between atoms: C_3  and  N_14
    3  A    between atoms: C_3  and  C_15
    4  A    between atoms: N_6  and  C_31
    5  A    between atoms: N_10  and  C_20
    6  A    between atoms: N_10  and  O_24
    7  A    between atoms: C_16  and  C_26
    8  A    between atoms: C_19  and  O_24
                            x       y       z     vdW  Elec       q    Type
                         _______ _______ _______ _____ _____    ______ ____

>  <TORSDO>
F 8

$$$$
=
 OpenBabel11052417013D

 32 36  0  0  1  0  0  0  0  0999 V2000
  184.1960  178.6460  141.7760 C   0  0  0  0  0  2  0  0  0  0  0  0
  183.7960  178.9510  140.3580 C   0  0  0  0  0  3  0  0  0  0  0  0
  185.6610  178.9830  142.0230 C   0  0  0  0  0  2  0  0  0  0  0  0
  186.5230  178.2750  140.9840 C   0  0  1  0  0  3  0  0  0  0  0  0
  184.6840  178.9690  139.3540 C   0  0  0  0  0  3  0  0  0  0  0  0
  186.1690  178.7780  139.5720 C   0  0  2  0  0  3  0  0  0  0  0  0
  188.0840  177.0380  137.0080 N   0  0  0  0  0  0  0  0  0  0  0  0
  186.7060  175.7490  135.7500 C   0  0  0  0  0  0  0  0  0  0  0  0
  186.7260  177.8800  138.5130 C   0  0  0  0  0  0  0  0  0  0  0  0
  187.9240  175.9610  134.8990 C   0  0  0  0  0  3  0  0  0  0  0  0
  188.8140  176.9060  135.7570 C   0  0  0  0  0  3  0  0  0  0  0  0
  186.0140  176.9130  137.8750 N   0  0  0  0  0  0  0  0  0  0  0  0
  185.6620  175.1340  135.4090 O   0  0  0  0  0  0  0  0  0  0  0  0
  187.9830  177.9880  137.9440 C   0  0  0  0  0  0  0  0  0  0  0  0
  186.9140  176.4290  136.9930 C   0  0  0  0  0  0  0  0  0  0  0  0
  188.9340  179.0290  138.1780 N   0  0  0  0  0  2  0  0  0  0  0  0
  188.9650  180.0460  137.4560 O   0  0  0  0  0  1  0  0  0  0  0  0
  187.9870  178.5450  141.3020 C   0  0  0  0  0  2  0  0  0  0  0  0
  191.1210  178.5300  144.4420 O   0  0  0  0  0  0  0  0  0  0  0  0
  189.2210  176.5060  143.6180 C   0  0  1  0  0  3  0  0  0  0  0  0
  190.1080  177.6390  141.7120 C   0  0  0  0  0  2  0  0  0  0  0  0
  191.5960  177.3940  143.7530 C   0  0  0  0  0  2  0  0  0  0  0  0
  188.7290  177.2960  141.3800 N   0  0  0  0  0  0  0  0  0  0  0  0
  190.1150  178.1290  145.3490 C   0  0  1  0  0  3  0  0  0  0  0  0
  190.5120  176.7660  142.8730 C   0  0  1  0  0  3  0  0  0  0  0  0
  188.8780  177.6240  144.6080 C   0  0  0  0  0  2  0  0  0  0  0  0
  188.1890  176.5330  142.5090 C   0  0  0  0  0  2  0  0  0  0  0  0
  190.5870  177.1790  146.2650 O   0  0  0  0  0  0  0  0  0  0  0  0
  189.5170  176.8950  147.0460 N   0  0  0  0  0  2  0  0  0  0  0  0
  189.5040  177.8830  148.1120 C   0  0  0  0  0  2  0  0  0  0  0  0
  188.1190  177.9690  148.7240 C   0  0  0  0  0  2  0  0  0  0  0  0
  187.0900  178.2880  147.6570 C   0  0  0  0  0  1  0  0  0  0  0  0
  1  3  1  0  0  0  0
  2  1  1  0  0  0  0
  4 18  1  1  0  0  0
  4  3  1  0  0  0  0
  5  6  1  0  0  0  0
  5  2  2  0  0  0  0
  6  9  1  6  0  0  0
  6  4  1  0  0  0  0
  7 14  1  0  0  0  0
  8 15  1  0  0  0  0
 10  8  1  0  0  0  0
 10 11  2  0  0  0  0
 11  7  1  0  0  0  0
 12  9  1  0  0  0  0
 13  8  2  0  0  0  0
 14 16  1  0  0  0  0
 14  9  2  0  0  0  0
 15  7  1  0  0  0  0
 15 12  2  0  0  0  0
 17 16  1  0  0  0  0
 18 23  1  0  0  0  0
 19 24  1  0  0  0  0
 20 27  1  6  0  0  0
 20 26  1  0  0  0  0
 22 19  1  0  0  0  0
 23 21  1  0  0  0  0
 23 27  1  0  0  0  0
 24 28  1  1  0  0  0
 25 21  1  6  0  0  0
 25 20  1  0  0  0  0
 25 22  1  0  0  0  0
 26 24  1  0  0  0  0
 28 29  1  0  0  0  0
 29 30  1  0  0  0  0
 30 31  1  0  0  0  0
 32 31  1  0  0  0  0
M  END
>  <MODEL>
2

>  <REMARK>
 VINA RESULT:      -7.3      2.811      3.400
  Name = 
  8 active torsions:
  status: ('A' for Active; 'I' for Inactive)
    1  A    between atoms: C_1  and  C_20
    2  A    between atoms: C_3  and  N_14
    3  A    between atoms: C_3  and  C_15
    4  A    between atoms: N_6  and  C_31
    5  A    between atoms: N_10  and  C_20
    6  A    between atoms: N_10  and  O_24
    7  A    between atoms: C_16  and  C_26
    8  A    between atoms: C_19  and  O_24
                            x       y       z     vdW  Elec       q    Type
                         _______ _______ _______ _____ _____    ______ ____

>  <TORSDO>
F 8

$$$$
=
 OpenBabel11052417013D

 32 36  0  0  1  0  0  0  0  0999 V2000
  186.8830  177.6310  146.5780 C   0  0  0  0  0  2  0  0  0  0  0  0
  185.9540  178.8130  146.6350 C   0  0  0  0  0  3  0  0  0  0  0  0
  187.5250  177.4960  145.2020 C   0  0  0  0  0  2  0  0  0  0  0  0
  186.4330  177.4630  144.1380 C   0  0  1  0  0  3  0  0  0  0  0  0
  185.3610  179.3090  145.5400 C   0  0  0  0  0  3  0  0  0  0  0  0
  185.6440  178.7870  144.1500 C   0  0  2  0  0  3  0  0  0  0  0  0
  182.9180  178.7540  141.7330 N   0  0  0  0  0  0  0  0  0  0  0  0
  180.9240  178.7450  142.8120 C   0  0  0  0  0  0  0  0  0  0  0  0
  184.3660  178.6700  143.3810 C   0  0  0  0  0  0  0  0  0  0  0  0
  180.6180  179.2570  141.4350 C   0  0  0  0  0  3  0  0  0  0  0  0
  182.0120  179.3210  140.7470 C   0  0  0  0  0  3  0  0  0  0  0  0
  183.1520  178.4260  143.9450 N   0  0  0  0  0  0  0  0  0  0  0  0
  180.1040  178.6370  143.7610 O   0  0  0  0  0  0  0  0  0  0  0  0
  184.2130  178.9200  142.0280 C   0  0  0  0  0  0  0  0  0  0  0  0
  182.3270  178.4670  142.8760 C   0  0  0  0  0  0  0  0  0  0  0  0
  185.2080  179.4360  141.1430 N   0  0  0  0  0  2  0  0  0  0  0  0
  184.9960  179.5180  139.9160 O   0  0  0  0  0  1  0  0  0  0  0  0
  187.0850  177.2350  142.7820 C   0  0  0  0  0  2  0  0  0  0  0  0
  189.4780  176.0360  139.2440 O   0  0  0  0  0  0  0  0  0  0  0  0
  189.1830  178.5850  140.5870 C   0  0  1  0  0  3  0  0  0  0  0  0
  189.3100  176.8140  142.1830 C   0  0  0  0  0  2  0  0  0  0  0  0
  190.5620  176.5370  139.9940 C   0  0  0  0  0  2  0  0  0  0  0  0
  188.4180  177.8170  142.7550 N   0  0  0  0  0  0  0  0  0  0  0  0
  188.8650  177.1050  138.5520 C   0  0  1  0  0  3  0  0  0  0  0  0
  190.1010  177.4950  141.0950 C   0  0  1  0  0  3  0  0  0  0  0  0
  188.2010  178.0790  139.5240 C   0  0  0  0  0  2  0  0  0  0  0  0
  188.3850  178.9480  141.8230 C   0  0  0  0  0  2  0  0  0  0  0  0
  189.7670  177.7630  137.7040 O   0  0  0  0  0  0  0  0  0  0  0  0
  188.9940  178.5720  136.9430 N   0  0  0  0  0  2  0  0  0  0  0  0
  188.5450  177.7790  135.8110 C   0  0  0  0  0  2  0  0  0  0  0  0
  187.1160  178.1440  135.4540 C   0  0  0  0  0  2  0  0  0  0  0  0
  186.1660  177.0490  135.8980 C   0  0  0  0  0  1  0  0  0  0  0  0
  1  2  1  0  0  0  0
  3  1  1  0  0  0  0
  4 18  1  6  0  0  0
  4  6  1  0  0  0  0
  4  3  1  0  0  0  0
  5  2  2  0  0  0  0
  6  9  1  1  0  0  0
  6  5  1  0  0  0  0
  7 14  1  0  0  0  0
  7 15  1  0  0  0  0
  8 15  1  0  0  0  0
  8 13  2  0  0  0  0
  9 12  1  0  0  0  0
 10  8  1  0  0  0  0
 11 10  2  0  0  0  0
 11  7  1  0  0  0  0
 14  9  2  0  0  0  0
 15 12  2  0  0  0  0
 16 14  1  0  0  0  0
 17 16  1  0  0  0  0
 19 22  1  0  0  0  0
 20 26  1  6  0  0  0
 20 25  1  0  0  0  0
 20 27  1  0  0  0  0
 21 23  1  0  0  0  0
 23 18  1  0  0  0  0
 24 28  1  1  0  0  0
 24 19  1  0  0  0  0
 24 26  1  0  0  0  0
 25 22  1  6  0  0  0
 25 21  1  0  0  0  0
 27 23  1  0  0  0  0
 29 28  1  0  0  0  0
 30 29  1  0  0  0  0
 31 30  1  0  0  0  0
 31 32  1  0  0  0  0
M  END
>  <MODEL>
3

>  <REMARK>
 VINA RESULT:      -7.1      2.953      5.612
  Name = 
  8 active torsions:
  status: ('A' for Active; 'I' for Inactive)
    1  A    between atoms: C_1  and  C_20
    2  A    between atoms: C_3  and  N_14
    3  A    between atoms: C_3  and  C_15
    4  A    between atoms: N_6  and  C_31
    5  A    between atoms: N_10  and  C_20
    6  A    between atoms: N_10  and  O_24
    7  A    between atoms: C_16  and  C_26
    8  A    between atoms: C_19  and  O_24
                            x       y       z     vdW  Elec       q    Type
                         _______ _______ _______ _____ _____    ______ ____

>  <TORSDO>
F 8

$$$$
=
 OpenBabel11052417013D

 32 36  0  0  1  0  0  0  0  0999 V2000
  185.6430  179.1600  146.4620 C   0  0  0  0  0  2  0  0  0  0  0  0
  186.6370  178.1570  146.9790 C   0  0  0  0  0  3  0  0  0  0  0  0
  184.9790  178.6740  145.1800 C   0  0  0  0  0  2  0  0  0  0  0  0
  186.0540  178.3060  144.1640 C   0  0  1  0  0  3  0  0  0  0  0  0
  187.2450  177.2740  146.1740 C   0  0  0  0  0  3  0  0  0  0  0  0
  186.9170  177.1480  144.7030 C   0  0  2  0  0  3  0  0  0  0  0  0
  190.3020  177.0300  143.3620 N   0  0  0  0  0  0  0  0  0  0  0  0
  190.2370  176.9350  141.0970 C   0  0  0  0  0  0  0  0  0  0  0  0
  188.1770  176.9880  143.9140 C   0  0  0  0  0  0  0  0  0  0  0  0
  191.6100  177.4460  141.4260 C   0  0  0  0  0  3  0  0  0  0  0  0
  191.5960  177.5690  142.9770 C   0  0  0  0  0  3  0  0  0  0  0  0
  188.2180  176.6930  142.5870 N   0  0  0  0  0  0  0  0  0  0  0  0
  189.7580  176.7880  139.9430 O   0  0  0  0  0  0  0  0  0  0  0  0
  189.4560  177.2430  144.3770 C   0  0  0  0  0  0  0  0  0  0  0  0
  189.5440  176.7110  142.3310 C   0  0  0  0  0  0  0  0  0  0  0  0
  189.8040  177.8040  145.6440 N   0  0  0  0  0  2  0  0  0  0  0  0
  190.6730  177.2730  146.3660 O   0  0  0  0  0  1  0  0  0  0  0  0
  185.3760  177.9110  142.8600 C   0  0  0  0  0  2  0  0  0  0  0  0
  184.4520  177.1910  138.5810 O   0  0  0  0  0  0  0  0  0  0  0  0
  183.0700  178.7270  140.6100 C   0  0  1  0  0  3  0  0  0  0  0  0
  185.4310  179.0300  140.8020 C   0  0  0  0  0  2  0  0  0  0  0  0
  184.4680  178.5990  138.4940 C   0  0  0  0  0  2  0  0  0  0  0  0
  184.8970  179.0940  142.1590 N   0  0  0  0  0  0  0  0  0  0  0  0
  183.1690  176.7710  138.9980 C   0  0  1  0  0  3  0  0  0  0  0  0
  184.2740  179.2570  139.8620 C   0  0  1  0  0  3  0  0  0  0  0  0
  182.8860  177.2160  140.4330 C   0  0  0  0  0  2  0  0  0  0  0  0
  183.4390  178.9840  142.0570 C   0  0  0  0  0  2  0  0  0  0  0  0
  182.1670  177.2050  138.1200 O   0  0  0  0  0  0  0  0  0  0  0  0
  181.0520  176.5500  138.5220 N   0  0  0  0  0  2  0  0  0  0  0  0
  181.1360  175.2070  137.9740 C   0  0  0  0  0  2  0  0  0  0  0  0
  180.1560  174.2930  138.6850 C   0  0  0  0  0  2  0  0  0  0  0  0
  179.9610  174.7440  140.1200 C   0  0  0  0  0  1  0  0  0  0  0  0
  1  2  1  0  0  0  0
  3  1  1  0  0  0  0
  4 18  1  6  0  0  0
  4  6  1  0  0  0  0
  4  3  1  0  0  0  0
  5  2  2  0  0  0  0
  6  9  1  6  0  0  0
  6  5  1  0  0  0  0
  7 14  1  0  0  0  0
  8 10  1  0  0  0  0
  8 15  1  0  0  0  0
  9 14  2  0  0  0  0
 10 11  2  0  0  0  0
 11  7  1  0  0  0  0
 12  9  1  0  0  0  0
 13  8  2  0  0  0  0
 14 16  1  0  0  0  0
 15 12  2  0  0  0  0
 15  7  1  0  0  0  0
 16 17  1  0  0  0  0
 19 24  1  0  0  0  0
 20 26  1  1  0  0  0
 20 27  1  0  0  0  0
 21 23  1  0  0  0  0
 22 19  1  0  0  0  0
 23 18  1  0  0  0  0
 24 28  1  6  0  0  0
 24 26  1  0  0  0  0
 25 22  1  6  0  0  0
 25 20  1  0  0  0  0
 25 21  1  0  0  0  0
 27 23  1  0  0  0  0
 28 29  1  0  0  0  0
 30 29  1  0  0  0  0
 30 31  1  0  0  0  0
 31 32  1  0  0  0  0
M  END
>  <MODEL>
4

>  <REMARK>
 VINA RESULT:      -7.0      1.977      7.993
  Name = 
  8 active torsions:
  status: ('A' for Active; 'I' for Inactive)
    1  A    between atoms: C_1  and  C_20
    2  A    between atoms: C_3  and  N_14
    3  A    between atoms: C_3  and  C_15
    4  A    between atoms: N_6  and  C_31
    5  A    between atoms: N_10  and  C_20
    6  A    between atoms: N_10  and  O_24
    7  A    between atoms: C_16  and  C_26
    8  A    between atoms: C_19  and  O_24
                            x       y       z     vdW  Elec       q    Type
                         _______ _______ _______ _____ _____    ______ ____

>  <TORSDO>
F 8

$$$$
=
 OpenBabel11052417013D

 32 36  0  0  1  0  0  0  0  0999 V2000
  191.4000  176.3220  144.6190 C   0  0  0  0  0  2  0  0  0  0  0  0
  190.8790  177.5010  145.3940 C   0  0  0  0  0  3  0  0  0  0  0  0
  191.0020  176.4040  143.1500 C   0  0  0  0  0  2  0  0  0  0  0  0
  189.4910  176.5770  143.0470 C   0  0  1  0  0  3  0  0  0  0  0  0
  189.7960  178.1880  145.0050 C   0  0  0  0  0  3  0  0  0  0  0  0
  189.0650  177.9000  143.7130 C   0  0  2  0  0  3  0  0  0  0  0  0
  185.4420  178.2620  143.6060 N   0  0  0  0  0  0  0  0  0  0  0  0
  184.6090  178.3670  145.7130 C   0  0  0  0  0  0  0  0  0  0  0  0
  187.5870  177.9470  143.9440 C   0  0  0  0  0  0  0  0  0  0  0  0
  183.5530  178.9880  144.8470 C   0  0  0  0  0  3  0  0  0  0  0  0
  184.1830  178.9680  143.4240 C   0  0  0  0  0  3  0  0  0  0  0  0
  186.9960  177.7790  145.1570 N   0  0  0  0  0  0  0  0  0  0  0  0
  184.5790  178.2760  146.9680 O   0  0  0  0  0  0  0  0  0  0  0  0
  186.6350  178.2920  143.0010 C   0  0  0  0  0  0  0  0  0  0  0  0
  185.6900  177.9600  144.8660 C   0  0  0  0  0  0  0  0  0  0  0  0
  186.8840  178.7700  141.6780 N   0  0  0  0  0  2  0  0  0  0  0  0
  185.9720  179.2800  140.9960 O   0  0  0  0  0  1  0  0  0  0  0  0
  189.1010  176.5630  141.5760 C   0  0  0  0  0  2  0  0  0  0  0  0
  188.9960  175.5540  137.2570 O   0  0  0  0  0  0  0  0  0  0  0  0
  189.3080  178.0850  138.6290 C   0  0  1  0  0  3  0  0  0  0  0  0
  190.5490  176.3770  139.7440 C   0  0  0  0  0  2  0  0  0  0  0  0
  190.2550  176.1890  137.2300 C   0  0  0  0  0  2  0  0  0  0  0  0
  190.0820  177.2890  140.7830 N   0  0  0  0  0  0  0  0  0  0  0  0
  187.9850  176.5320  137.1220 C   0  0  1  0  0  3  0  0  0  0  0  0
  190.4530  177.1160  138.4330 C   0  0  1  0  0  3  0  0  0  0  0  0
  187.9430  177.4490  138.3440 C   0  0  0  0  0  2  0  0  0  0  0  0
  189.3800  178.3870  140.1120 C   0  0  0  0  0  2  0  0  0  0  0  0
  188.1240  177.2660  135.9360 O   0  0  0  0  0  0  0  0  0  0  0  0
  186.9010  177.8070  135.7230 N   0  0  0  0  0  2  0  0  0  0  0  0
  186.0040  176.7060  135.4140 C   0  0  0  0  0  2  0  0  0  0  0  0
  184.5650  177.1260  135.6490 C   0  0  0  0  0  2  0  0  0  0  0  0
  184.2360  177.0730  137.1280 C   0  0  0  0  0  1  0  0  0  0  0  0
  1  2  1  0  0  0  0
  3  1  1  0  0  0  0
  4 18  1  6  0  0  0
  4  3  1  0  0  0  0
  4  6  1  0  0  0  0
  5  2  2  0  0  0  0
  6  9  1  1  0  0  0
  6  5  1  0  0  0  0
  7 15  1  0  0  0  0
  8 13  2  0  0  0  0
  9 12  1  0  0  0  0
 10  8  1  0  0  0  0
 11  7  1  0  0  0  0
 11 10  2  0  0  0  0
 14  7  1  0  0  0  0
 14  9  2  0  0  0  0
 15 12  2  0  0  0  0
 15  8  1  0  0  0  0
 16 14  1  0  0  0  0
 17 16  1  0  0  0  0
 20 26  1  1  0  0  0
 20 27  1  0  0  0  0
 21 23  1  0  0  0  0
 22 19  1  0  0  0  0
 23 18  1  0  0  0  0
 24 28  1  6  0  0  0
 24 19  1  0  0  0  0
 24 26  1  0  0  0  0
 25 22  1  6  0  0  0
 25 20  1  0  0  0  0
 25 21  1  0  0  0  0
 27 23  1  0  0  0  0
 29 28  1  0  0  0  0
 30 31  1  0  0  0  0
 30 29  1  0  0  0  0
 31 32  1  0  0  0  0
M  END
>  <MODEL>
5

>  <REMARK>
 VINA RESULT:      -6.9      3.225      7.327
  Name = 
  8 active torsions:
  status: ('A' for Active; 'I' for Inactive)
    1  A    between atoms: C_1  and  C_20
    2  A    between atoms: C_3  and  N_14
    3  A    between atoms: C_3  and  C_15
    4  A    between atoms: N_6  and  C_31
    5  A    between atoms: N_10  and  C_20
    6  A    between atoms: N_10  and  O_24
    7  A    between atoms: C_16  and  C_26
    8  A    between atoms: C_19  and  O_24
                            x       y       z     vdW  Elec       q    Type
                         _______ _______ _______ _____ _____    ______ ____

>  <TORSDO>
F 8

$$$$
=
 OpenBabel11052417013D

 32 36  0  0  1  0  0  0  0  0999 V2000
  187.3320  178.2940  139.7280 C   0  0  0  0  0  2  0  0  0  0  0  0
  187.5760  178.1330  138.2520 C   0  0  0  0  0  3  0  0  0  0  0  0
  188.6300  178.5650  140.4780 C   0  0  0  0  0  2  0  0  0  0  0  0
  189.6420  177.4740  140.1450 C   0  0  1  0  0  3  0  0  0  0  0  0
  188.7570  177.7320  137.7630 C   0  0  0  0  0  3  0  0  0  0  0  0
  189.9680  177.4980  138.6390 C   0  0  2  0  0  3  0  0  0  0  0  0
  192.2750  174.8360  137.7090 N   0  0  0  0  0  0  0  0  0  0  0  0
  191.2110  173.3000  136.4240 C   0  0  0  0  0  0  0  0  0  0  0  0
  190.6710  176.2490  138.2100 C   0  0  0  0  0  0  0  0  0  0  0  0
  192.6700  173.1110  136.1270 C   0  0  0  0  0  3  0  0  0  0  0  0
  193.3640  174.2240  136.9650 C   0  0  0  0  0  3  0  0  0  0  0  0
  190.0540  175.1780  137.6430 N   0  0  0  0  0  0  0  0  0  0  0  0
  190.2590  172.6870  135.8750 O   0  0  0  0  0  0  0  0  0  0  0  0
  192.0420  176.0570  138.2050 C   0  0  0  0  0  0  0  0  0  0  0  0
  191.0910  174.3510  137.3890 C   0  0  0  0  0  0  0  0  0  0  0  0
  193.0370  177.0380  138.5010 N   0  0  0  0  0  2  0  0  0  0  0  0
  193.8350  176.8790  139.4470 O   0  0  0  0  0  1  0  0  0  0  0  0
  190.8970  177.7070  140.9730 C   0  0  0  0  0  2  0  0  0  0  0  0
  190.6650  178.3510  145.3560 O   0  0  0  0  0  0  0  0  0  0  0  0
  189.8170  176.1360  143.6950 C   0  0  1  0  0  3  0  0  0  0  0  0
  191.9240  176.9760  142.9480 C   0  0  0  0  0  2  0  0  0  0  0  0
  191.3850  177.1400  145.4220 C   0  0  0  0  0  2  0  0  0  0  0  0
  191.2170  176.5220  141.7550 N   0  0  0  0  0  0  0  0  0  0  0  0
  189.2860  178.0620  145.2580 C   0  0  1  0  0  3  0  0  0  0  0  0
  191.2530  176.3270  144.1320 C   0  0  1  0  0  3  0  0  0  0  0  0
  188.9610  177.3860  143.9260 C   0  0  0  0  0  2  0  0  0  0  0  0
  189.9510  175.9330  142.1990 C   0  0  0  0  0  2  0  0  0  0  0  0
  188.8340  177.2990  146.3430 O   0  0  0  0  0  0  0  0  0  0  0  0
  188.5170  178.2090  147.2940 N   0  0  0  0  0  2  0  0  0  0  0  0
  187.1580  177.9140  147.7170 C   0  0  0  0  0  2  0  0  0  0  0  0
  186.2560  177.7700  146.5060 C   0  0  0  0  0  2  0  0  0  0  0  0
  185.3810  178.9980  146.3510 C   0  0  0  0  0  1  0  0  0  0  0  0
  1  3  1  0  0  0  0
  2  1  1  0  0  0  0
  4  3  1  0  0  0  0
  4 18  1  1  0  0  0
  5  2  2  0  0  0  0
  5  6  1  0  0  0  0
  6  9  1  6  0  0  0
  6  4  1  0  0  0  0
  7 14  1  0  0  0  0
  8 15  1  0  0  0  0
 10  8  1  0  0  0  0
 10 11  2  0  0  0  0
 11  7  1  0  0  0  0
 12  9  1  0  0  0  0
 13  8  2  0  0  0  0
 14  9  2  0  0  0  0
 14 16  1  0  0  0  0
 15 12  2  0  0  0  0
 15  7  1  0  0  0  0
 16 17  1  0  0  0  0
 18 23  1  0  0  0  0
 19 22  1  0  0  0  0
 20 27  1  6  0  0  0
 20 26  1  0  0  0  0
 20 25  1  0  0  0  0
 23 27  1  0  0  0  0
 23 21  1  0  0  0  0
 24 19  1  0  0  0  0
 24 28  1  1  0  0  0
 25 21  1  6  0  0  0
 25 22  1  0  0  0  0
 26 24  1  0  0  0  0
 28 29  1  0  0  0  0
 29 30  1  0  0  0  0
 31 30  1  0  0  0  0
 32 31  1  0  0  0  0
M  END
>  <MODEL>
6

>  <REMARK>
 VINA RESULT:      -6.9      4.454      6.557
  Name = 
  8 active torsions:
  status: ('A' for Active; 'I' for Inactive)
    1  A    between atoms: C_1  and  C_20
    2  A    between atoms: C_3  and  N_14
    3  A    between atoms: C_3  and  C_15
    4  A    between atoms: N_6  and  C_31
    5  A    between atoms: N_10  and  C_20
    6  A    between atoms: N_10  and  O_24
    7  A    between atoms: C_16  and  C_26
    8  A    between atoms: C_19  and  O_24
                            x       y       z     vdW  Elec       q    Type
                         _______ _______ _______ _____ _____    ______ ____

>  <TORSDO>
F 8

$$$$
=
 OpenBabel11052417013D

 32 36  0  0  1  0  0  0  0  0999 V2000
  191.4490  176.4410  144.3190 C   0  0  0  0  0  2  0  0  0  0  0  0
  190.9530  177.6080  145.1290 C   0  0  0  0  0  3  0  0  0  0  0  0
  190.9870  176.5350  142.8700 C   0  0  0  0  0  2  0  0  0  0  0  0
  189.4720  176.6980  142.8340 C   0  0  1  0  0  3  0  0  0  0  0  0
  189.8490  178.2910  144.7950 C   0  0  0  0  0  3  0  0  0  0  0  0
  189.0650  178.0110  143.5330 C   0  0  2  0  0  3  0  0  0  0  0  0
  185.4380  178.3410  143.5850 N   0  0  0  0  0  0  0  0  0  0  0  0
  184.6970  178.4340  145.7270 C   0  0  0  0  0  0  0  0  0  0  0  0
  187.5990  178.0440  143.8280 C   0  0  0  0  0  0  0  0  0  0  0  0
  183.5980  179.0480  144.9090 C   0  0  0  0  0  3  0  0  0  0  0  0
  184.1660  179.0360  143.4600 C   0  0  0  0  0  3  0  0  0  0  0  0
  187.0630  177.8680  145.0650 N   0  0  0  0  0  0  0  0  0  0  0  0
  184.7220  178.3400  146.9820 O   0  0  0  0  0  0  0  0  0  0  0  0
  186.6030  178.3830  142.9290 C   0  0  0  0  0  0  0  0  0  0  0  0
  185.7430  178.0390  144.8320 C   0  0  0  0  0  0  0  0  0  0  0  0
  186.7900  178.8650  141.5970 N   0  0  0  0  0  2  0  0  0  0  0  0
  185.8440  179.3670  140.9570 O   0  0  0  0  0  1  0  0  0  0  0  0
  189.0170  176.6970  141.3820 C   0  0  0  0  0  2  0  0  0  0  0  0
  190.2040  174.6030  137.6550 O   0  0  0  0  0  0  0  0  0  0  0  0
  189.5410  177.3740  138.1700 C   0  0  1  0  0  3  0  0  0  0  0  0
  190.8620  176.4910  139.9520 C   0  0  0  0  0  2  0  0  0  0  0  0
  191.2350  175.5650  137.6190 C   0  0  0  0  0  2  0  0  0  0  0  0
  189.9480  177.4540  140.5580 N   0  0  0  0  0  0  0  0  0  0  0  0
  189.0450  175.1480  137.0590 C   0  0  1  0  0  3  0  0  0  0  0  0
  190.9030  176.7900  138.4750 C   0  0  1  0  0  3  0  0  0  0  0  0
  188.4860  176.2960  137.8990 C   0  0  0  0  0  2  0  0  0  0  0  0
  189.1780  178.0630  139.4700 C   0  0  0  0  0  2  0  0  0  0  0  0
  189.2780  175.5480  135.7360 O   0  0  0  0  0  0  0  0  0  0  0  0
  189.1310  174.4180  135.0060 N   0  0  0  0  0  2  0  0  0  0  0  0
  187.7310  174.0390  135.0990 C   0  0  0  0  0  2  0  0  0  0  0  0
  187.5760  172.5510  134.8440 C   0  0  0  0  0  2  0  0  0  0  0  0
  187.8490  171.7680  136.1130 C   0  0  0  0  0  1  0  0  0  0  0  0
  1  2  1  0  0  0  0
  3  1  1  0  0  0  0
  4 18  1  6  0  0  0
  4  3  1  0  0  0  0
  4  6  1  0  0  0  0
  5  2  2  0  0  0  0
  6  9  1  1  0  0  0
  6  5  1  0  0  0  0
  7 15  1  0  0  0  0
  8 13  2  0  0  0  0
  9 12  1  0  0  0  0
 10  8  1  0  0  0  0
 11  7  1  0  0  0  0
 11 10  2  0  0  0  0
 14  7  1  0  0  0  0
 14  9  2  0  0  0  0
 15 12  2  0  0  0  0
 15  8  1  0  0  0  0
 16 14  1  0  0  0  0
 17 16  1  0  0  0  0
 20 26  1  1  0  0  0
 20 25  1  0  0  0  0
 20 27  1  0  0  0  0
 21 23  1  0  0  0  0
 22 19  1  0  0  0  0
 23 18  1  0  0  0  0
 24 28  1  6  0  0  0
 24 19  1  0  0  0  0
 24 26  1  0  0  0  0
 25 22  1  6  0  0  0
 25 21  1  0  0  0  0
 27 23  1  0  0  0  0
 29 30  1  0  0  0  0
 29 28  1  0  0  0  0
 31 30  1  0  0  0  0
 31 32  1  0  0  0  0
M  END
>  <MODEL>
7

>  <REMARK>
 VINA RESULT:      -6.5      4.126      7.558
  Name = 
  8 active torsions:
  status: ('A' for Active; 'I' for Inactive)
    1  A    between atoms: C_1  and  C_20
    2  A    between atoms: C_3  and  N_14
    3  A    between atoms: C_3  and  C_15
    4  A    between atoms: N_6  and  C_31
    5  A    between atoms: N_10  and  C_20
    6  A    between atoms: N_10  and  O_24
    7  A    between atoms: C_16  and  C_26
    8  A    between atoms: C_19  and  O_24
                            x       y       z     vdW  Elec       q    Type
                         _______ _______ _______ _____ _____    ______ ____

>  <TORSDO>
F 8

$$$$
=
 OpenBabel11052417013D

 32 36  0  0  1  0  0  0  0  0999 V2000
  191.5300  176.7730  147.0200 C   0  0  0  0  0  2  0  0  0  0  0  0
  192.0500  175.6850  146.1210 C   0  0  0  0  0  3  0  0  0  0  0  0
  190.1670  177.2710  146.5570 C   0  0  0  0  0  2  0  0  0  0  0  0
  190.2520  177.6840  145.0920 C   0  0  1  0  0  3  0  0  0  0  0  0
  191.6680  175.5730  144.8410 C   0  0  0  0  0  3  0  0  0  0  0  0
  190.6170  176.4670  144.2200 C   0  0  2  0  0  3  0  0  0  0  0  0
  190.9860  177.3660  140.7100 N   0  0  0  0  0  0  0  0  0  0  0  0
  193.1630  177.2110  140.0930 C   0  0  0  0  0  0  0  0  0  0  0  0
  191.0490  176.8830  142.8500 C   0  0  0  0  0  0  0  0  0  0  0  0
  192.3890  177.1280  138.8090 C   0  0  0  0  0  3  0  0  0  0  0  0
  190.9040  177.1630  139.2720 C   0  0  0  0  0  3  0  0  0  0  0  0
  192.3450  177.0430  142.4710 N   0  0  0  0  0  0  0  0  0  0  0  0
  194.4120  177.1050  140.2130 O   0  0  0  0  0  0  0  0  0  0  0  0
  190.2180  177.0340  141.7530 C   0  0  0  0  0  0  0  0  0  0  0  0
  192.2240  177.3610  141.1640 C   0  0  0  0  0  0  0  0  0  0  0  0
  188.8260  176.7190  141.6940 N   0  0  0  0  0  2  0  0  0  0  0  0
  188.0320  177.4350  141.0510 O   0  0  0  0  0  1  0  0  0  0  0  0
  188.9100  178.2650  144.6730 C   0  0  0  0  0  2  0  0  0  0  0  0
  184.9380  180.1330  144.0250 O   0  0  0  0  0  0  0  0  0  0  0  0
  185.7650  177.3580  144.0960 C   0  0  1  0  0  3  0  0  0  0  0  0
  186.8840  178.6040  145.8000 C   0  0  0  0  0  2  0  0  0  0  0  0
  184.5510  179.3380  145.1240 C   0  0  0  0  0  2  0  0  0  0  0  0
  187.8240  177.5790  145.3560 N   0  0  0  0  0  0  0  0  0  0  0  0
  184.8430  179.3630  142.8440 C   0  0  1  0  0  3  0  0  0  0  0  0
  185.5120  178.1680  145.3500 C   0  0  1  0  0  3  0  0  0  0  0  0
  185.8730  178.2330  142.8430 C   0  0  0  0  0  2  0  0  0  0  0  0
  187.1290  176.7550  144.3620 C   0  0  0  0  0  2  0  0  0  0  0  0
  183.5460  178.8730  142.6440 O   0  0  0  0  0  0  0  0  0  0  0  0
  183.5760  178.3200  141.4080 N   0  0  0  0  0  2  0  0  0  0  0  0
  182.3540  178.7310  140.7370 C   0  0  0  0  0  2  0  0  0  0  0  0
  182.6850  179.3970  139.4150 C   0  0  0  0  0  2  0  0  0  0  0  0
  184.1800  179.3540  139.1630 C   0  0  0  0  0  1  0  0  0  0  0  0
  2  1  1  0  0  0  0
  3  1  1  0  0  0  0
  4 18  1  6  0  0  0
  4  3  1  0  0  0  0
  5  2  2  0  0  0  0
  6  9  1  6  0  0  0
  6  5  1  0  0  0  0
  6  4  1  0  0  0  0
  7 15  1  0  0  0  0
  7 14  1  0  0  0  0
  8 13  2  0  0  0  0
  8 15  1  0  0  0  0
 10 11  2  0  0  0  0
 10  8  1  0  0  0  0
 11  7  1  0  0  0  0
 12  9  1  0  0  0  0
 14  9  2  0  0  0  0
 15 12  2  0  0  0  0
 16 14  1  0  0  0  0
 17 16  1  0  0  0  0
 18 23  1  0  0  0  0
 19 22  1  0  0  0  0
 20 26  1  6  0  0  0
 20 27  1  0  0  0  0
 20 25  1  0  0  0  0
 23 21  1  0  0  0  0
 24 28  1  1  0  0  0
 24 19  1  0  0  0  0
 25 22  1  6  0  0  0
 25 21  1  0  0  0  0
 26 24  1  0  0  0  0
 27 23  1  0  0  0  0
 29 28  1  0  0  0  0
 30 29  1  0  0  0  0
 31 30  1  0  0  0  0
 32 31  1  0  0  0  0
M  END
>  <MODEL>
8

>  <REMARK>
 VINA RESULT:      -6.5      2.794      7.781
  Name = 
  8 active torsions:
  status: ('A' for Active; 'I' for Inactive)
    1  A    between atoms: C_1  and  C_20
    2  A    between atoms: C_3  and  N_14
    3  A    between atoms: C_3  and  C_15
    4  A    between atoms: N_6  and  C_31
    5  A    between atoms: N_10  and  C_20
    6  A    between atoms: N_10  and  O_24
    7  A    between atoms: C_16  and  C_26
    8  A    between atoms: C_19  and  O_24
                            x       y       z     vdW  Elec       q    Type
                         _______ _______ _______ _____ _____    ______ ____

>  <TORSDO>
F 8

$$$$
=
 OpenBabel11052417013D

 32 36  0  0  1  0  0  0  0  0999 V2000
  184.0970  178.2170  142.7530 C   0  0  0  0  0  2  0  0  0  0  0  0
  183.3900  178.7390  141.5320 C   0  0  0  0  0  3  0  0  0  0  0  0
  185.5520  178.6680  142.7860 C   0  0  0  0  0  2  0  0  0  0  0  0
  186.2310  178.2780  141.4780 C   0  0  1  0  0  3  0  0  0  0  0  0
  184.0460  179.0510  140.4060 C   0  0  0  0  0  3  0  0  0  0  0  0
  185.5530  178.9970  140.2950 C   0  0  2  0  0  3  0  0  0  0  0  0
  185.8680  177.2000  137.1430 N   0  0  0  0  0  0  0  0  0  0  0  0
  188.0530  177.0300  136.5600 C   0  0  0  0  0  0  0  0  0  0  0  0
  185.9450  178.3900  138.9850 C   0  0  0  0  0  0  0  0  0  0  0  0
  187.3630  175.9350  135.8010 C   0  0  0  0  0  3  0  0  0  0  0  0
  185.8850  176.0320  136.2770 C   0  0  0  0  0  3  0  0  0  0  0  0
  187.1950  178.4540  138.4540 N   0  0  0  0  0  0  0  0  0  0  0  0
  189.2910  177.2560  136.5730 O   0  0  0  0  0  0  0  0  0  0  0  0
  185.1440  177.5770  138.2020 C   0  0  0  0  0  0  0  0  0  0  0  0
  187.0630  177.7290  137.3230 C   0  0  0  0  0  0  0  0  0  0  0  0
  183.8480  177.0810  138.5420 N   0  0  0  0  0  2  0  0  0  0  0  0
  182.9980  176.8440  137.6600 O   0  0  0  0  0  1  0  0  0  0  0  0
  187.7040  178.6510  141.5640 C   0  0  0  0  0  2  0  0  0  0  0  0
  190.9420  178.5270  144.5940 O   0  0  0  0  0  0  0  0  0  0  0  0
  189.1630  176.4690  143.6020 C   0  0  1  0  0  3  0  0  0  0  0  0
  189.8970  177.8670  141.8110 C   0  0  0  0  0  2  0  0  0  0  0  0
  191.4720  177.5130  143.7690 C   0  0  0  0  0  2  0  0  0  0  0  0
  188.5350  177.4600  141.4810 N   0  0  0  0  0  0  0  0  0  0  0  0
  190.0010  177.9560  145.4790 C   0  0  1  0  0  3  0  0  0  0  0  0
  190.4050  176.9050  142.8550 C   0  0  1  0  0  3  0  0  0  0  0  0
  188.7770  177.4430  144.7200 C   0  0  0  0  0  2  0  0  0  0  0  0
  188.0920  176.5400  142.5330 C   0  0  0  0  0  2  0  0  0  0  0  0
  190.5720  176.9490  146.2690 O   0  0  0  0  0  0  0  0  0  0  0  0
  189.6300  176.6690  147.2000 N   0  0  0  0  0  2  0  0  0  0  0  0
  189.4290  177.8840  147.9710 C   0  0  0  0  0  2  0  0  0  0  0  0
  188.0630  177.8620  148.6310 C   0  0  0  0  0  2  0  0  0  0  0  0
  187.0290  178.4960  147.7220 C   0  0  0  0  0  1  0  0  0  0  0  0
  1  3  1  0  0  0  0
  2  1  1  0  0  0  0
  4 18  1  1  0  0  0
  4  3  1  0  0  0  0
  5  2  2  0  0  0  0
  6  9  1  6  0  0  0
  6  5  1  0  0  0  0
  6  4  1  0  0  0  0
  7 15  1  0  0  0  0
  7 14  1  0  0  0  0
  8 13  2  0  0  0  0
  8 15  1  0  0  0  0
 10 11  2  0  0  0  0
 10  8  1  0  0  0  0
 11  7  1  0  0  0  0
 12  9  1  0  0  0  0
 14 16  1  0  0  0  0
 14  9  2  0  0  0  0
 15 12  2  0  0  0  0
 17 16  1  0  0  0  0
 19 24  1  0  0  0  0
 20 27  1  6  0  0  0
 20 26  1  0  0  0  0
 22 19  1  0  0  0  0
 23 18  1  0  0  0  0
 23 21  1  0  0  0  0
 23 27  1  0  0  0  0
 24 28  1  6  0  0  0
 25 21  1  6  0  0  0
 25 20  1  0  0  0  0
 25 22  1  0  0  0  0
 26 24  1  0  0  0  0
 28 29  1  0  0  0  0
 29 30  1  0  0  0  0
 30 31  1  0  0  0  0
 32 31  1  0  0  0  0
M  END
>  <MODEL>
9

>  <REMARK>
 VINA RESULT:      -6.5      2.302      3.089
  Name = 
  8 active torsions:
  status: ('A' for Active; 'I' for Inactive)
    1  A    between atoms: C_1  and  C_20
    2  A    between atoms: C_3  and  N_14
    3  A    between atoms: C_3  and  C_15
    4  A    between atoms: N_6  and  C_31
    5  A    between atoms: N_10  and  C_20
    6  A    between atoms: N_10  and  O_24
    7  A    between atoms: C_16  and  C_26
    8  A    between atoms: C_19  and  O_24
                            x       y       z     vdW  Elec       q    Type
                         _______ _______ _______ _____ _____    ______ ____

>  <TORSDO>
F 8

$$$$
