=
 OpenBabel11052412573D

 31 35  0  0  1  0  0  0  0  0999 V2000
  188.7570  178.0270  147.2600 C   0  0  0  0  0  0  0  0  0  0  0  0
  186.5410  177.7860  144.1400 C   0  0  1  0  0  3  0  0  0  0  0  0
  187.6740  177.8100  143.0890 C   0  0  1  0  0  3  0  0  0  0  0  0
  189.6370  176.3370  142.4110 C   0  0  0  0  0  2  0  0  0  0  0  0
  187.0220  177.9400  145.5630 C   0  0  0  0  0  0  0  0  0  0  0  0
  187.7880  178.2350  148.2450 C   0  0  0  0  0  3  0  0  0  0  0  0
  188.2790  176.4040  143.0900 C   0  0  0  0  0  2  0  0  0  0  0  0
  184.3620  178.9200  144.8720 C   0  0  1  0  0  3  0  0  0  0  0  0
  190.0670  177.9700  147.5990 F   0  0  0  0  0  0  0  0  0  0  0  0
  186.2360  179.3390  141.6950 C   0  0  0  0  0  3  0  0  0  0  0  0
  189.4630  176.3440  140.9030 C   0  0  0  0  0  2  0  0  0  0  0  0
  184.6040  178.1550  146.1840 C   0  0  0  0  0  2  0  0  0  0  0  0
  185.4520  178.7500  143.8900 N   0  0  0  0  0  0  0  0  0  0  0  0
  188.3770  177.8780  145.9230 C   0  0  0  0  0  3  0  0  0  0  0  0
  189.3120  177.7440  140.4040 C   0  0  0  0  0  3  0  0  0  0  0  0
  186.0530  178.1450  146.5600 C   0  0  0  0  0  0  0  0  0  0  0  0
  186.4350  178.2900  147.8960 C   0  0  0  0  0  3  0  0  0  0  0  0
  185.4280  179.5730  142.7190 C   0  0  0  0  0  3  0  0  0  0  0  0
  187.1720  178.1730  141.6740 C   0  0  1  0  0  3  0  0  0  0  0  0
  188.3010  178.5510  140.7530 C   0  0  0  0  0  3  0  0  0  0  0  0
  183.0190  178.4920  144.2840 C   0  0  0  0  0  2  0  0  0  0  0  0
  182.4330  179.5560  143.5830 O   0  0  0  0  0  0  0  0  0  0  0  0
  180.4810  178.0090  143.9110 C   0  0  0  0  0  1  0  0  0  0  0  0
  179.6100  181.0320  142.4010 O   0  0  0  0  0  0  0  0  0  0  0  0
  180.3770  180.0350  142.4510 C   0  0  0  0  0  0  0  0  0  0  0  0
  181.1620  178.9080  141.7670 N   0  0  0  0  0  0  0  0  0  0  0  0
  181.1670  179.1280  143.1440 C   0  0  1  0  0  0  0  0  0  0  0  0
  181.5960  178.2140  140.5620 C   0  0  0  0  0  0  0  0  0  0  0  0
  181.5690  179.1050  139.4860 O   0  0  0  0  0  1  0  0  0  0  0  0
  180.6570  177.0590  140.2790 C   0  0  0  0  0  1  0  0  0  0  0  0
  183.0080  177.6870  140.7420 C   0  0  0  0  0  1  0  0  0  0  0  0
  1  9  1  0  0  0  0
  1  6  1  0  0  0  0
  2  5  1  1  0  0  0
  3  7  1  6  0  0  0
  3  2  1  0  0  0  0
  4  7  1  0  0  0  0
  5 14  1  0  0  0  0
  5 16  2  0  0  0  0
  8 21  1  6  0  0  0
  8 12  1  0  0  0  0
 10 18  2  0  0  0  0
 11  4  1  0  0  0  0
 12 16  1  0  0  0  0
 13  2  1  0  0  0  0
 13  8  1  0  0  0  0
 14  1  2  0  0  0  0
 15 20  2  0  0  0  0
 15 11  1  0  0  0  0
 16 17  1  0  0  0  0
 17  6  2  0  0  0  0
 18 13  1  0  0  0  0
 19 20  1  6  0  0  0
 19 10  1  0  0  0  0
 19  3  1  0  0  0  0
 22 21  1  0  0  0  0
 24 25  2  0  0  0  0
 25 27  1  0  0  0  0
 26 25  1  0  0  0  0
 26 27  1  0  0  0  0
 27 22  1  0  0  0  0
 27 23  1  1  0  0  0
 28 31  1  0  0  0  0
 28 26  1  0  0  0  0
 29 28  1  0  0  0  0
 30 28  1  0  0  0  0
M  END
>  <MODEL>
1

>  <REMARK>
 VINA RESULT:      -9.0      0.000      0.000
  Name = 
  4 active torsions:
  status: ('A' for Active; 'I' for Inactive)
    1  A    between atoms: C_1  and  N_19
    2  A    between atoms: O_9  and  C_22
    3  A    between atoms: O_9  and  C_23
    4  A    between atoms: C_15  and  C_23
                            x       y       z     vdW  Elec       q    Type
                         _______ _______ _______ _____ _____    ______ ____

>  <TORSDO>
F 4

$$$$
=
 OpenBabel11052412573D

 31 35  0  0  1  0  0  0  0  0999 V2000
  186.8500  178.5190  147.0690 C   0  0  0  0  0  0  0  0  0  0  0  0
  186.7700  177.6010  143.3470 C   0  0  1  0  0  3  0  0  0  0  0  0
  188.2970  177.5050  143.1320 C   0  0  1  0  0  3  0  0  0  0  0  0
  190.2200  176.0520  143.9540 C   0  0  0  0  0  2  0  0  0  0  0  0
  186.3720  178.0330  144.7390 C   0  0  0  0  0  0  0  0  0  0  0  0
  185.5070  178.8400  147.2810 C   0  0  0  0  0  3  0  0  0  0  0  0
  188.7210  176.1590  143.7250 C   0  0  0  0  0  2  0  0  0  0  0  0
  184.6200  178.7180  142.5080 C   0  0  1  0  0  3  0  0  0  0  0  0
  187.7360  178.5990  148.0910 F   0  0  0  0  0  0  0  0  0  0  0  0
  187.9780  178.6770  140.9250 C   0  0  0  0  0  3  0  0  0  0  0  0
  190.9280  175.7820  142.6380 C   0  0  0  0  0  2  0  0  0  0  0  0
  184.0400  178.2130  143.8400 C   0  0  0  0  0  2  0  0  0  0  0  0
  186.0630  178.4420  142.3600 N   0  0  0  0  0  0  0  0  0  0  0  0
  187.2830  178.1130  145.8030 C   0  0  0  0  0  3  0  0  0  0  0  0
  191.1580  177.0620  141.9000 C   0  0  0  0  0  3  0  0  0  0  0  0
  185.0220  178.3540  144.9600 C   0  0  0  0  0  0  0  0  0  0  0  0
  184.5920  178.7540  146.2290 C   0  0  0  0  0  3  0  0  0  0  0  0
  186.7470  179.0410  141.2550 C   0  0  0  0  0  3  0  0  0  0  0  0
  188.7000  177.5830  141.6440 C   0  0  1  0  0  3  0  0  0  0  0  0
  190.1700  177.8570  141.4690 C   0  0  0  0  0  3  0  0  0  0  0  0
  183.8220  178.1160  141.3540 C   0  0  0  0  0  2  0  0  0  0  0  0
  182.5150  178.6250  141.3470 O   0  0  0  0  0  0  0  0  0  0  0  0
  180.9110  179.7660  139.7870 C   0  0  0  0  0  1  0  0  0  0  0  0
  184.2590  180.3320  138.9840 O   0  0  0  0  0  0  0  0  0  0  0  0
  183.3480  179.5190  139.2870 C   0  0  0  0  0  0  0  0  0  0  0  0
  182.6100  178.1900  139.0800 N   0  0  0  0  0  0  0  0  0  0  0  0
  182.2620  179.1240  140.0570 C   0  0  1  0  0  0  0  0  0  0  0  0
  182.4680  176.9110  138.4000 C   0  0  0  0  0  0  0  0  0  0  0  0
  183.7360  176.4030  138.1070 O   0  0  0  0  0  1  0  0  0  0  0  0
  181.6990  177.1080  137.1090 C   0  0  0  0  0  1  0  0  0  0  0  0
  181.7250  175.9260  139.2860 C   0  0  0  0  0  1  0  0  0  0  0  0
  1  6  1  0  0  0  0
  1  9  1  0  0  0  0
  2  5  1  1  0  0  0
  3  2  1  0  0  0  0
  3  7  1  6  0  0  0
  5 16  2  0  0  0  0
  5 14  1  0  0  0  0
  7  4  1  0  0  0  0
  8 21  1  6  0  0  0
  8 12  1  0  0  0  0
 10 18  2  0  0  0  0
 11  4  1  0  0  0  0
 12 16  1  0  0  0  0
 13  8  1  0  0  0  0
 13  2  1  0  0  0  0
 14  1  2  0  0  0  0
 15 11  1  0  0  0  0
 16 17  1  0  0  0  0
 17  6  2  0  0  0  0
 18 13  1  0  0  0  0
 19 10  1  1  0  0  0
 19  3  1  0  0  0  0
 20 19  1  0  0  0  0
 20 15  2  0  0  0  0
 22 21  1  0  0  0  0
 24 25  2  0  0  0  0
 25 27  1  0  0  0  0
 26 25  1  0  0  0  0
 26 27  1  0  0  0  0
 27 23  1  6  0  0  0
 27 22  1  0  0  0  0
 28 26  1  0  0  0  0
 28 31  1  0  0  0  0
 29 28  1  0  0  0  0
 30 28  1  0  0  0  0
M  END
>  <MODEL>
2

>  <REMARK>
 VINA RESULT:      -8.8      1.831      2.681
  Name = 
  4 active torsions:
  status: ('A' for Active; 'I' for Inactive)
    1  A    between atoms: C_1  and  N_19
    2  A    between atoms: O_9  and  C_22
    3  A    between atoms: O_9  and  C_23
    4  A    between atoms: C_15  and  C_23
                            x       y       z     vdW  Elec       q    Type
                         _______ _______ _______ _____ _____    ______ ____

>  <TORSDO>
F 4

$$$$
=
 OpenBabel11052412573D

 31 35  0  0  1  0  0  0  0  0999 V2000
  186.5950  178.4680  146.9350 C   0  0  0  0  0  0  0  0  0  0  0  0
  187.0110  177.6250  143.2170 C   0  0  1  0  0  3  0  0  0  0  0  0
  188.5530  177.5220  143.2080 C   0  0  1  0  0  3  0  0  0  0  0  0
  190.3410  176.0390  144.2500 C   0  0  0  0  0  2  0  0  0  0  0  0
  186.4310  178.0320  144.5520 C   0  0  0  0  0  0  0  0  0  0  0  0
  185.2370  178.7950  146.9720 C   0  0  0  0  0  3  0  0  0  0  0  0
  188.8870  176.1620  143.8250 C   0  0  0  0  0  2  0  0  0  0  0  0
  184.9980  178.7740  142.1220 C   0  0  1  0  0  3  0  0  0  0  0  0
  187.3360  178.5220  148.0680 F   0  0  0  0  0  0  0  0  0  0  0  0
  188.5380  178.7400  141.0030 C   0  0  0  0  0  3  0  0  0  0  0  0
  191.2180  175.7900  143.0350 C   0  0  0  0  0  2  0  0  0  0  0  0
  184.2430  178.2470  143.3530 C   0  0  0  0  0  2  0  0  0  0  0  0
  186.4470  178.4900  142.1630 N   0  0  0  0  0  0  0  0  0  0  0  0
  187.1920  178.0850  145.7300 C   0  0  0  0  0  3  0  0  0  0  0  0
  191.5510  177.0820  142.3620 C   0  0  0  0  0  3  0  0  0  0  0  0
  185.0660  178.3590  144.5980 C   0  0  0  0  0  0  0  0  0  0  0  0
  184.4710  178.7370  145.8040 C   0  0  0  0  0  3  0  0  0  0  0  0
  187.2750  179.1060  141.1710 C   0  0  0  0  0  3  0  0  0  0  0  0
  189.1520  177.6260  141.7890 C   0  0  1  0  0  3  0  0  0  0  0  0
  190.6330  177.8930  141.8180 C   0  0  0  0  0  3  0  0  0  0  0  0
  184.3600  178.2010  140.8590 C   0  0  0  0  0  2  0  0  0  0  0  0
  183.1570  177.5510  141.1730 O   0  0  0  0  0  0  0  0  0  0  0  0
  182.5130  179.2560  139.4450 C   0  0  0  0  0  1  0  0  0  0  0  0
  180.7390  176.2640  139.1620 O   0  0  0  0  0  0  0  0  0  0  0  0
  181.1660  177.1990  139.8900 C   0  0  0  0  0  0  0  0  0  0  0  0
  180.9580  178.2380  141.0000 N   0  0  0  0  0  0  0  0  0  0  0  0
  182.1640  178.0630  140.3190 C   0  0  1  0  0  0  0  0  0  0  0  0
  180.1220  178.8560  142.0190 C   0  0  0  0  0  0  0  0  0  0  0  0
  179.0740  177.9900  142.3390 O   0  0  0  0  0  1  0  0  0  0  0  0
  179.5520  180.1550  141.4850 C   0  0  0  0  0  1  0  0  0  0  0  0
  180.9400  179.1380  143.2660 C   0  0  0  0  0  1  0  0  0  0  0  0
  1  6  1  0  0  0  0
  1  9  1  0  0  0  0
  2  5  1  1  0  0  0
  3  2  1  0  0  0  0
  3  7  1  6  0  0  0
  5 16  2  0  0  0  0
  5 14  1  0  0  0  0
  7  4  1  0  0  0  0
  8 21  1  6  0  0  0
  8 13  1  0  0  0  0
  8 12  1  0  0  0  0
 10 18  2  0  0  0  0
 11  4  1  0  0  0  0
 12 16  1  0  0  0  0
 13  2  1  0  0  0  0
 14  1  2  0  0  0  0
 15 11  1  0  0  0  0
 16 17  1  0  0  0  0
 17  6  2  0  0  0  0
 18 13  1  0  0  0  0
 19 10  1  6  0  0  0
 19 20  1  0  0  0  0
 19  3  1  0  0  0  0
 20 15  2  0  0  0  0
 21 22  1  0  0  0  0
 24 25  2  0  0  0  0
 25 27  1  0  0  0  0
 25 26  1  0  0  0  0
 26 28  1  0  0  0  0
 27 23  1  6  0  0  0
 27 26  1  0  0  0  0
 27 22  1  0  0  0  0
 28 29  1  0  0  0  0
 28 31  1  0  0  0  0
 30 28  1  0  0  0  0
M  END
>  <MODEL>
3

>  <REMARK>
 VINA RESULT:      -8.6      1.571      2.902
  Name = 
  4 active torsions:
  status: ('A' for Active; 'I' for Inactive)
    1  A    between atoms: C_1  and  N_19
    2  A    between atoms: O_9  and  C_22
    3  A    between atoms: O_9  and  C_23
    4  A    between atoms: C_15  and  C_23
                            x       y       z     vdW  Elec       q    Type
                         _______ _______ _______ _____ _____    ______ ____

>  <TORSDO>
F 4

$$$$
=
 OpenBabel11052412573D

 31 35  0  0  1  0  0  0  0  0999 V2000
  186.2700  178.6240  146.7060 C   0  0  0  0  0  0  0  0  0  0  0  0
  186.5300  177.6310  143.0120 C   0  0  1  0  0  3  0  0  0  0  0  0
  188.0700  177.5280  142.9410 C   0  0  1  0  0  3  0  0  0  0  0  0
  189.9040  176.0880  143.9660 C   0  0  0  0  0  2  0  0  0  0  0  0
  186.0070  178.0910  144.3520 C   0  0  0  0  0  0  0  0  0  0  0  0
  184.9140  178.9520  146.7870 C   0  0  0  0  0  3  0  0  0  0  0  0
  188.4330  176.1940  143.5980 C   0  0  0  0  0  2  0  0  0  0  0  0
  184.4710  178.7350  141.9560 C   0  0  1  0  0  3  0  0  0  0  0  0
  187.0580  178.7230  147.8040 F   0  0  0  0  0  0  0  0  0  0  0  0
  187.9600  178.6560  140.6910 C   0  0  0  0  0  3  0  0  0  0  0  0
  190.7290  175.7910  142.7260 C   0  0  0  0  0  2  0  0  0  0  0  0
  183.7690  178.2580  143.2380 C   0  0  0  0  0  2  0  0  0  0  0  0
  185.9210  178.4530  141.9480 N   0  0  0  0  0  0  0  0  0  0  0  0
  186.8160  178.1920  145.4940 C   0  0  0  0  0  3  0  0  0  0  0  0
  191.0310  177.0540  141.9880 C   0  0  0  0  0  3  0  0  0  0  0  0
  184.6430  178.4190  144.4420 C   0  0  0  0  0  0  0  0  0  0  0  0
  184.0990  178.8460  145.6560 C   0  0  0  0  0  3  0  0  0  0  0  0
  186.7050  179.0280  140.8980 C   0  0  0  0  0  3  0  0  0  0  0  0
  188.6090  177.5750  141.4950 C   0  0  1  0  0  3  0  0  0  0  0  0
  190.0900  177.8430  141.4510 C   0  0  0  0  0  3  0  0  0  0  0  0
  183.7810  178.1110  140.7460 C   0  0  0  0  0  2  0  0  0  0  0  0
  183.1020  179.0940  140.0100 O   0  0  0  0  0  0  0  0  0  0  0  0
  181.3100  177.3740  139.6430 C   0  0  0  0  0  1  0  0  0  0  0  0
  180.4770  179.7420  142.0660 O   0  0  0  0  0  0  0  0  0  0  0  0
  180.9210  179.4890  140.9160 C   0  0  0  0  0  0  0  0  0  0  0  0
  180.9750  179.7620  139.4070 N   0  0  0  0  0  0  0  0  0  0  0  0
  181.7330  178.7780  140.0430 C   0  0  1  0  0  0  0  0  0  0  0  0
  180.5670  180.5340  138.2420 C   0  0  0  0  0  0  0  0  0  0  0  0
  179.1730  180.6180  138.2130 O   0  0  0  0  0  1  0  0  0  0  0  0
  181.0530  179.8440  136.9840 C   0  0  0  0  0  1  0  0  0  0  0  0
  181.1530  181.9330  138.3100 C   0  0  0  0  0  1  0  0  0  0  0  0
  1  6  1  0  0  0  0
  1  9  1  0  0  0  0
  2  5  1  1  0  0  0
  3  2  1  0  0  0  0
  3  7  1  6  0  0  0
  5 16  2  0  0  0  0
  5 14  1  0  0  0  0
  7  4  1  0  0  0  0
  8 21  1  6  0  0  0
  8 12  1  0  0  0  0
 10 18  2  0  0  0  0
 11  4  1  0  0  0  0
 12 16  1  0  0  0  0
 13  8  1  0  0  0  0
 13  2  1  0  0  0  0
 14  1  2  0  0  0  0
 15 11  1  0  0  0  0
 16 17  1  0  0  0  0
 17  6  2  0  0  0  0
 18 13  1  0  0  0  0
 19 10  1  6  0  0  0
 19  3  1  0  0  0  0
 20 19  1  0  0  0  0
 20 15  2  0  0  0  0
 22 27  1  0  0  0  0
 22 21  1  0  0  0  0
 25 24  2  0  0  0  0
 26 27  1  0  0  0  0
 26 25  1  0  0  0  0
 27 23  1  6  0  0  0
 27 25  1  0  0  0  0
 28 31  1  0  0  0  0
 28 26  1  0  0  0  0
 29 28  1  0  0  0  0
 30 28  1  0  0  0  0
M  END
>  <MODEL>
4

>  <REMARK>
 VINA RESULT:      -8.5      1.851      2.779
  Name = 
  4 active torsions:
  status: ('A' for Active; 'I' for Inactive)
    1  A    between atoms: C_1  and  N_19
    2  A    between atoms: O_9  and  C_22
    3  A    between atoms: O_9  and  C_23
    4  A    between atoms: C_15  and  C_23
                            x       y       z     vdW  Elec       q    Type
                         _______ _______ _______ _____ _____    ______ ____

>  <TORSDO>
F 4

$$$$
=
 OpenBabel11052412573D

 31 35  0  0  1  0  0  0  0  0999 V2000
  184.8870  179.1650  142.3210 C   0  0  0  0  0  0  0  0  0  0  0  0
  188.3280  177.6170  143.0030 C   0  0  1  0  0  3  0  0  0  0  0  0
  188.3560  177.8580  144.5290 C   0  0  1  0  0  3  0  0  0  0  0  0
  187.0550  177.0820  146.5760 C   0  0  0  0  0  2  0  0  0  0  0  0
  187.1050  178.1760  142.3160 C   0  0  0  0  0  0  0  0  0  0  0  0
  184.8880  179.1830  140.9240 C   0  0  0  0  0  3  0  0  0  0  0  0
  187.4580  176.7810  145.1420 C   0  0  0  0  0  2  0  0  0  0  0  0
  189.6000  178.0160  140.8140 C   0  0  1  0  0  3  0  0  0  0  0  0
  183.8160  179.6350  143.0040 F   0  0  0  0  0  0  0  0  0  0  0  0
  190.7780  178.5140  144.2990 C   0  0  0  0  0  3  0  0  0  0  0  0
  188.2050  176.7660  147.5150 C   0  0  0  0  0  2  0  0  0  0  0  0
  188.2630  177.6260  140.1640 C   0  0  0  0  0  2  0  0  0  0  0  0
  189.5350  178.0760  142.2880 N   0  0  0  0  0  0  0  0  0  0  0  0
  185.9900  178.6610  143.0170 C   0  0  0  0  0  3  0  0  0  0  0  0
  189.1610  177.9130  147.5700 C   0  0  0  0  0  3  0  0  0  0  0  0
  187.0970  178.1950  140.9110 C   0  0  0  0  0  0  0  0  0  0  0  0
  185.9910  178.6940  140.2180 C   0  0  0  0  0  3  0  0  0  0  0  0
  190.6620  178.6200  142.9830 C   0  0  0  0  0  3  0  0  0  0  0  0
  189.7770  177.7700  145.1250 C   0  0  1  0  0  3  0  0  0  0  0  0
  189.8490  178.3580  146.5090 C   0  0  0  0  0  3  0  0  0  0  0  0
  190.6840  177.0450  140.3490 C   0  0  0  0  0  2  0  0  0  0  0  0
  190.1210  176.0220  139.5720 O   0  0  0  0  0  0  0  0  0  0  0  0
  192.1810  176.6820  138.2950 C   0  0  0  0  0  1  0  0  0  0  0  0
  190.8330  173.6340  137.2630 O   0  0  0  0  0  0  0  0  0  0  0  0
  190.6560  174.8450  137.5560 C   0  0  0  0  0  0  0  0  0  0  0  0
  190.0340  176.2180  137.2720 N   0  0  0  0  0  0  0  0  0  0  0  0
  190.8500  175.9510  138.3720 C   0  0  1  0  0  0  0  0  0  0  0  0
  189.1790  177.0830  136.4710 C   0  0  0  0  0  0  0  0  0  0  0  0
  187.8610  176.6250  136.5520 O   0  0  0  0  0  1  0  0  0  0  0  0
  189.6340  177.0460  135.0270 C   0  0  0  0  0  1  0  0  0  0  0  0
  189.2470  178.5090  136.9870 C   0  0  0  0  0  1  0  0  0  0  0  0
  1  9  1  0  0  0  0
  1 14  1  0  0  0  0
  2  5  1  6  0  0  0
  2  3  1  0  0  0  0
  3 19  1  0  0  0  0
  3  7  1  1  0  0  0
  4 11  1  0  0  0  0
  5 14  2  0  0  0  0
  6  1  2  0  0  0  0
  7  4  1  0  0  0  0
  8 21  1  1  0  0  0
  8 13  1  0  0  0  0
 11 15  1  0  0  0  0
 12  8  1  0  0  0  0
 12 16  1  0  0  0  0
 13 18  1  0  0  0  0
 13  2  1  0  0  0  0
 16  5  1  0  0  0  0
 17 16  2  0  0  0  0
 17  6  1  0  0  0  0
 18 10  2  0  0  0  0
 19 10  1  6  0  0  0
 19 20  1  0  0  0  0
 20 15  2  0  0  0  0
 22 21  1  0  0  0  0
 24 25  2  0  0  0  0
 25 27  1  0  0  0  0
 26 25  1  0  0  0  0
 26 27  1  0  0  0  0
 27 23  1  6  0  0  0
 27 22  1  0  0  0  0
 28 29  1  0  0  0  0
 28 31  1  0  0  0  0
 28 26  1  0  0  0  0
 30 28  1  0  0  0  0
M  END
>  <MODEL>
5

>  <REMARK>
 VINA RESULT:      -8.0      4.270      7.757
  Name = 
  4 active torsions:
  status: ('A' for Active; 'I' for Inactive)
    1  A    between atoms: C_1  and  N_19
    2  A    between atoms: O_9  and  C_22
    3  A    between atoms: O_9  and  C_23
    4  A    between atoms: C_15  and  C_23
                            x       y       z     vdW  Elec       q    Type
                         _______ _______ _______ _____ _____    ______ ____

>  <TORSDO>
F 4

$$$$
=
 OpenBabel11052412573D

 31 35  0  0  1  0  0  0  0  0999 V2000
  190.5800  176.4280  139.1270 C   0  0  0  0  0  0  0  0  0  0  0  0
  188.5560  178.1170  141.9110 C   0  0  1  0  0  3  0  0  0  0  0  0
  189.3970  177.6090  143.1050 C   0  0  1  0  0  3  0  0  0  0  0  0
  191.7700  177.8890  143.9840 C   0  0  0  0  0  2  0  0  0  0  0  0
  189.0100  177.5880  140.5710 C   0  0  0  0  0  0  0  0  0  0  0  0
  189.7470  176.6620  138.0290 C   0  0  0  0  0  3  0  0  0  0  0  0
  190.6570  178.4770  143.1320 C   0  0  0  0  0  2  0  0  0  0  0  0
  186.1880  178.2310  140.9370 C   0  0  1  0  0  3  0  0  0  0  0  0
  191.7420  175.7520  138.9640 F   0  0  0  0  0  0  0  0  0  0  0  0
  187.2410  177.2170  144.3490 C   0  0  0  0  0  3  0  0  0  0  0  0
  191.4790  178.1290  145.4550 C   0  0  0  0  0  2  0  0  0  0  0  0
  186.9230  178.6150  139.6420 C   0  0  0  0  0  2  0  0  0  0  0  0
  187.1030  177.9010  142.0480 N   0  0  0  0  0  0  0  0  0  0  0  0
  190.2160  176.8910  140.3950 C   0  0  0  0  0  3  0  0  0  0  0  0
  190.5570  177.0770  145.9800 C   0  0  0  0  0  3  0  0  0  0  0  0
  188.1800  177.8230  139.4630 C   0  0  0  0  0  0  0  0  0  0  0  0
  188.5490  177.3630  138.1950 C   0  0  0  0  0  3  0  0  0  0  0  0
  186.5330  177.3400  143.2350 C   0  0  0  0  0  3  0  0  0  0  0  0
  188.6490  177.7110  144.4510 C   0  0  1  0  0  3  0  0  0  0  0  0
  189.3090  176.8920  145.5290 C   0  0  0  0  0  3  0  0  0  0  0  0
  185.2340  179.3590  141.3240 C   0  0  0  0  0  2  0  0  0  0  0  0
  184.0060  178.8330  141.7500 O   0  0  0  0  0  0  0  0  0  0  0  0
  183.3700  179.7380  139.4950 C   0  0  0  0  0  1  0  0  0  0  0  0
  182.7120  176.3300  139.8520 O   0  0  0  0  0  0  0  0  0  0  0  0
  182.6290  177.4970  140.3160 C   0  0  0  0  0  0  0  0  0  0  0  0
  181.8330  178.6190  140.9960 N   0  0  0  0  0  0  0  0  0  0  0  0
  183.1720  178.7380  140.6220 C   0  0  1  0  0  0  0  0  0  0  0  0
  180.6100  179.1120  141.6130 C   0  0  0  0  0  0  0  0  0  0  0  0
  180.3960  180.4340  141.2130 O   0  0  0  0  0  1  0  0  0  0  0  0
  180.7500  179.0630  143.1210 C   0  0  0  0  0  1  0  0  0  0  0  0
  179.4280  178.2610  141.1870 C   0  0  0  0  0  1  0  0  0  0  0  0
  1 14  1  0  0  0  0
  2  5  1  6  0  0  0
  2 13  1  0  0  0  0
  2  3  1  0  0  0  0
  3  7  1  1  0  0  0
  3 19  1  0  0  0  0
  4 11  1  0  0  0  0
  6 17  1  0  0  0  0
  6  1  2  0  0  0  0
  7  4  1  0  0  0  0
  8 21  1  1  0  0  0
  8 13  1  0  0  0  0
  9  1  1  0  0  0  0
 11 15  1  0  0  0  0
 12  8  1  0  0  0  0
 13 18  1  0  0  0  0
 14  5  2  0  0  0  0
 16 12  1  0  0  0  0
 16  5  1  0  0  0  0
 17 16  2  0  0  0  0
 18 10  2  0  0  0  0
 19 10  1  6  0  0  0
 19 20  1  0  0  0  0
 20 15  2  0  0  0  0
 21 22  1  0  0  0  0
 24 25  2  0  0  0  0
 25 27  1  0  0  0  0
 25 26  1  0  0  0  0
 26 28  1  0  0  0  0
 27 23  1  6  0  0  0
 27 26  1  0  0  0  0
 27 22  1  0  0  0  0
 28 30  1  0  0  0  0
 29 28  1  0  0  0  0
 31 28  1  0  0  0  0
M  END
>  <MODEL>
6

>  <REMARK>
 VINA RESULT:      -7.4      2.532      5.262
  Name = 
  4 active torsions:
  status: ('A' for Active; 'I' for Inactive)
    1  A    between atoms: C_1  and  N_19
    2  A    between atoms: O_9  and  C_22
    3  A    between atoms: O_9  and  C_23
    4  A    between atoms: C_15  and  C_23
                            x       y       z     vdW  Elec       q    Type
                         _______ _______ _______ _____ _____    ______ ____

>  <TORSDO>
F 4

$$$$
=
 OpenBabel11052412573D

 31 35  0  0  1  0  0  0  0  0999 V2000
  190.7530  176.4720  139.1260 C   0  0  0  0  0  0  0  0  0  0  0  0
  188.5710  178.1790  141.7780 C   0  0  1  0  0  3  0  0  0  0  0  0
  189.3530  177.6950  143.0200 C   0  0  1  0  0  3  0  0  0  0  0  0
  191.6740  178.0110  144.0170 C   0  0  0  0  0  2  0  0  0  0  0  0
  189.1000  177.6360  140.4710 C   0  0  0  0  0  0  0  0  0  0  0  0
  189.9770  176.6820  137.9830 C   0  0  0  0  0  3  0  0  0  0  0  0
  190.6020  178.5760  143.1000 C   0  0  0  0  0  2  0  0  0  0  0  0
  186.2560  178.2540  140.6800 C   0  0  1  0  0  3  0  0  0  0  0  0
  191.9290  175.8060  139.0330 F   0  0  0  0  0  0  0  0  0  0  0  0
  187.1400  177.2980  144.1560 C   0  0  0  0  0  3  0  0  0  0  0  0
  191.3060  178.2680  145.4670 C   0  0  0  0  0  2  0  0  0  0  0  0
  187.0540  178.6280  139.4190 C   0  0  0  0  0  2  0  0  0  0  0  0
  187.1150  177.9490  141.8420 N   0  0  0  0  0  0  0  0  0  0  0  0
  190.3190  176.9480  140.3660 C   0  0  0  0  0  3  0  0  0  0  0  0
  190.3670  177.2140  145.9590 C   0  0  0  0  0  3  0  0  0  0  0  0
  188.3260  177.8460  139.3170 C   0  0  0  0  0  0  0  0  0  0  0  0
  188.7650  177.3730  138.0770 C   0  0  0  0  0  3  0  0  0  0  0  0
  186.4890  177.3980  143.0060 C   0  0  0  0  0  3  0  0  0  0  0  0
  188.5360  177.8080  144.3250 C   0  0  1  0  0  3  0  0  0  0  0  0
  189.1460  177.0100  145.4460 C   0  0  0  0  0  3  0  0  0  0  0  0
  185.2730  179.3780  141.0010 C   0  0  0  0  0  2  0  0  0  0  0  0
  184.5810  179.7660  139.8430 O   0  0  0  0  0  0  0  0  0  0  0  0
  182.8410  178.6280  141.2530 C   0  0  0  0  0  1  0  0  0  0  0  0
  181.4890  180.6800  138.7760 O   0  0  0  0  0  0  0  0  0  0  0  0
  182.3050  179.7790  139.1000 C   0  0  0  0  0  0  0  0  0  0  0  0
  182.9860  178.4280  138.8420 N   0  0  0  0  0  0  0  0  0  0  0  0
  183.2780  179.2460  139.9340 C   0  0  1  0  0  0  0  0  0  0  0  0
  183.1880  177.2460  138.0170 C   0  0  0  0  0  0  0  0  0  0  0  0
  182.2240  177.2230  137.0060 O   0  0  0  0  0  1  0  0  0  0  0  0
  183.0460  176.0030  138.8720 C   0  0  0  0  0  1  0  0  0  0  0  0
  184.5710  177.2740  137.3910 C   0  0  0  0  0  1  0  0  0  0  0  0
  1 14  1  0  0  0  0
  2  5  1  6  0  0  0
  2 13  1  0  0  0  0
  2  3  1  0  0  0  0
  3  7  1  1  0  0  0
  3 19  1  0  0  0  0
  4 11  1  0  0  0  0
  6 17  1  0  0  0  0
  6  1  2  0  0  0  0
  7  4  1  0  0  0  0
  8 21  1  1  0  0  0
  8 13  1  0  0  0  0
  9  1  1  0  0  0  0
 11 15  1  0  0  0  0
 12  8  1  0  0  0  0
 13 18  1  0  0  0  0
 14  5  2  0  0  0  0
 16 12  1  0  0  0  0
 16  5  1  0  0  0  0
 17 16  2  0  0  0  0
 18 10  2  0  0  0  0
 19 10  1  6  0  0  0
 19 20  1  0  0  0  0
 20 15  2  0  0  0  0
 22 27  1  0  0  0  0
 22 21  1  0  0  0  0
 24 25  2  0  0  0  0
 25 27  1  0  0  0  0
 26 25  1  0  0  0  0
 26 27  1  0  0  0  0
 27 23  1  1  0  0  0
 28 26  1  0  0  0  0
 28 30  1  0  0  0  0
 29 28  1  0  0  0  0
 31 28  1  0  0  0  0
M  END
>  <MODEL>
7

>  <REMARK>
 VINA RESULT:      -7.4      2.950      5.290
  Name = 
  4 active torsions:
  status: ('A' for Active; 'I' for Inactive)
    1  A    between atoms: C_1  and  N_19
    2  A    between atoms: O_9  and  C_22
    3  A    between atoms: O_9  and  C_23
    4  A    between atoms: C_15  and  C_23
                            x       y       z     vdW  Elec       q    Type
                         _______ _______ _______ _____ _____    ______ ____

>  <TORSDO>
F 4

$$$$
=
 OpenBabel11052412573D

 31 35  0  0  1  0  0  0  0  0999 V2000
  185.3080  178.6620  145.8580 C   0  0  0  0  0  0  0  0  0  0  0  0
  186.9230  177.7410  142.5050 C   0  0  1  0  0  3  0  0  0  0  0  0
  188.3840  177.6680  143.0010 C   0  0  1  0  0  3  0  0  0  0  0  0
  189.7520  176.2470  144.6110 C   0  0  0  0  0  2  0  0  0  0  0  0
  185.9350  178.1670  143.5650 C   0  0  0  0  0  0  0  0  0  0  0  0
  184.0080  178.9630  145.4410 C   0  0  0  0  0  3  0  0  0  0  0  0
  188.5150  176.3300  143.7320 C   0  0  0  0  0  2  0  0  0  0  0  0
  185.3650  178.8240  140.7810 C   0  0  1  0  0  3  0  0  0  0  0  0
  185.6380  178.7570  147.1680 F   0  0  0  0  0  0  0  0  0  0  0  0
  189.0770  178.8340  140.8780 C   0  0  0  0  0  3  0  0  0  0  0  0
  190.9790  175.9870  143.7560 C   0  0  0  0  0  2  0  0  0  0  0  0
  184.2550  178.3110  141.7130 C   0  0  0  0  0  2  0  0  0  0  0  0
  186.7240  178.5700  141.3000 N   0  0  0  0  0  0  0  0  0  0  0  0
  186.2690  178.2630  144.9250 C   0  0  0  0  0  3  0  0  0  0  0  0
  191.4990  177.2690  143.1910 C   0  0  0  0  0  3  0  0  0  0  0  0
  184.6260  178.4670  143.1540 C   0  0  0  0  0  0  0  0  0  0  0  0
  183.6650  178.8620  144.0900 C   0  0  0  0  0  3  0  0  0  0  0  0
  187.8240  179.1790  140.6150 C   0  0  0  0  0  3  0  0  0  0  0  0
  189.4130  177.7520  141.8530 C   0  0  1  0  0  3  0  0  0  0  0  0
  190.8000  178.0490  142.3550 C   0  0  0  0  0  3  0  0  0  0  0  0
  185.1800  178.2080  139.3950 C   0  0  0  0  0  2  0  0  0  0  0  0
  186.3640  177.5800  138.9790 O   0  0  0  0  0  0  0  0  0  0  0  0
  185.2120  177.1720  136.7840 C   0  0  0  0  0  1  0  0  0  0  0  0
  187.4850  179.8180  136.6820 O   0  0  0  0  0  0  0  0  0  0  0  0
  187.2300  178.6290  137.0080 C   0  0  0  0  0  0  0  0  0  0  0  0
  187.6160  177.1460  137.0870 N   0  0  0  0  0  0  0  0  0  0  0  0
  186.4140  177.6600  137.5760 C   0  0  1  0  0  0  0  0  0  0  0  0
  188.5700  176.0690  136.8640 C   0  0  0  0  0  0  0  0  0  0  0  0
  189.1890  176.2560  135.6250 O   0  0  0  0  0  1  0  0  0  0  0  0
  187.8420  174.7410  136.8630 C   0  0  0  0  0  1  0  0  0  0  0  0
  189.6240  176.0690  137.9560 C   0  0  0  0  0  1  0  0  0  0  0  0
  1  9  1  0  0  0  0
  2  3  1  0  0  0  0
  2  5  1  1  0  0  0
  3  7  1  6  0  0  0
  5 14  1  0  0  0  0
  6  1  1  0  0  0  0
  7  4  1  0  0  0  0
  8 21  1  6  0  0  0
  8 13  1  0  0  0  0
  8 12  1  0  0  0  0
 11  4  1  0  0  0  0
 12 16  1  0  0  0  0
 13  2  1  0  0  0  0
 14  1  2  0  0  0  0
 15 11  1  0  0  0  0
 16  5  2  0  0  0  0
 16 17  1  0  0  0  0
 17  6  2  0  0  0  0
 18 10  2  0  0  0  0
 18 13  1  0  0  0  0
 19 10  1  6  0  0  0
 19 20  1  0  0  0  0
 19  3  1  0  0  0  0
 20 15  2  0  0  0  0
 22 21  1  0  0  0  0
 24 25  2  0  0  0  0
 25 26  1  0  0  0  0
 25 27  1  0  0  0  0
 26 27  1  0  0  0  0
 27 23  1  6  0  0  0
 27 22  1  0  0  0  0
 28 26  1  0  0  0  0
 28 31  1  0  0  0  0
 29 28  1  0  0  0  0
 30 28  1  0  0  0  0
M  END
>  <MODEL>
8

>  <REMARK>
 VINA RESULT:      -7.4      3.450      5.484
  Name = 
  4 active torsions:
  status: ('A' for Active; 'I' for Inactive)
    1  A    between atoms: C_1  and  N_19
    2  A    between atoms: O_9  and  C_22
    3  A    between atoms: O_9  and  C_23
    4  A    between atoms: C_15  and  C_23
                            x       y       z     vdW  Elec       q    Type
                         _______ _______ _______ _____ _____    ______ ____

>  <TORSDO>
F 4

$$$$
=
 OpenBabel11052412573D

 31 35  0  0  1  0  0  0  0  0999 V2000
  186.8590  178.2300  138.7560 C   0  0  0  0  0  0  0  0  0  0  0  0
  189.9720  176.7870  140.4690 C   0  0  1  0  0  3  0  0  0  0  0  0
  189.7370  177.4080  141.8650 C   0  0  1  0  0  3  0  0  0  0  0  0
  188.0180  177.2260  143.7350 C   0  0  0  0  0  2  0  0  0  0  0  0
  188.9480  177.1950  139.4360 C   0  0  0  0  0  0  0  0  0  0  0  0
  187.1210  177.8910  137.4260 C   0  0  0  0  0  3  0  0  0  0  0  0
  188.6520  176.5550  142.5280 C   0  0  0  0  0  2  0  0  0  0  0  0
  191.6560  176.5680  138.5500 C   0  0  1  0  0  3  0  0  0  0  0  0
  185.7240  178.8960  139.0750 F   0  0  0  0  0  0  0  0  0  0  0  0
  192.2060  177.8960  141.9720 C   0  0  0  0  0  3  0  0  0  0  0  0
  188.9440  177.1190  144.9340 C   0  0  0  0  0  2  0  0  0  0  0  0
  190.4330  176.0730  137.7590 C   0  0  0  0  0  2  0  0  0  0  0  0
  191.3240  177.0050  139.9210 N   0  0  0  0  0  0  0  0  0  0  0  0
  187.7680  177.8820  139.7600 C   0  0  0  0  0  3  0  0  0  0  0  0
  189.9670  178.2080  144.8990 C   0  0  0  0  0  3  0  0  0  0  0  0
  189.2030  176.8550  138.0970 C   0  0  0  0  0  0  0  0  0  0  0  0
  188.2900  177.2000  137.0960 C   0  0  0  0  0  3  0  0  0  0  0  0
  192.3450  177.6680  140.6740 C   0  0  0  0  0  3  0  0  0  0  0  0
  191.0100  177.4240  142.7370 C   0  0  1  0  0  3  0  0  0  0  0  0
  190.8740  178.3420  143.9220 C   0  0  0  0  0  3  0  0  0  0  0  0
  192.7210  175.4740  138.5610 C   0  0  0  0  0  2  0  0  0  0  0  0
  192.4480  174.5170  137.5720 O   0  0  0  0  0  0  0  0  0  0  0  0
  193.4820  173.5620  135.4930 C   0  0  0  0  0  1  0  0  0  0  0  0
  194.5860  176.7890  136.2290 O   0  0  0  0  0  0  0  0  0  0  0  0
  194.3500  175.6160  136.6210 C   0  0  0  0  0  0  0  0  0  0  0  0
  194.7460  174.3560  137.4010 N   0  0  0  0  0  0  0  0  0  0  0  0
  193.5480  174.4860  136.6980 C   0  0  1  0  0  0  0  0  0  0  0  0
  195.6680  173.6390  138.2710 C   0  0  0  0  0  0  0  0  0  0  0  0
  195.0550  172.4670  138.7210 O   0  0  0  0  0  1  0  0  0  0  0  0
  196.0190  174.5080  139.4610 C   0  0  0  0  0  1  0  0  0  0  0  0
  196.9340  173.2850  137.5110 C   0  0  0  0  0  1  0  0  0  0  0  0
  1  9  1  0  0  0  0
  1 14  1  0  0  0  0
  2  5  1  6  0  0  0
  2  3  1  0  0  0  0
  3  7  1  1  0  0  0
  3 19  1  0  0  0  0
  4 11  1  0  0  0  0
  5 14  2  0  0  0  0
  6  1  2  0  0  0  0
  7  4  1  0  0  0  0
  8 21  1  1  0  0  0
  8 13  1  0  0  0  0
 12 16  1  0  0  0  0
 12  8  1  0  0  0  0
 13  2  1  0  0  0  0
 13 18  1  0  0  0  0
 15 11  1  0  0  0  0
 16  5  1  0  0  0  0
 17  6  1  0  0  0  0
 17 16  2  0  0  0  0
 18 10  2  0  0  0  0
 19 10  1  6  0  0  0
 19 20  1  0  0  0  0
 20 15  2  0  0  0  0
 22 21  1  0  0  0  0
 24 25  2  0  0  0  0
 25 27  1  0  0  0  0
 25 26  1  0  0  0  0
 26 28  1  0  0  0  0
 27 23  1  6  0  0  0
 27 26  1  0  0  0  0
 27 22  1  0  0  0  0
 28 29  1  0  0  0  0
 28 30  1  0  0  0  0
 31 28  1  0  0  0  0
M  END
>  <MODEL>
9

>  <REMARK>
 VINA RESULT:      -7.4      6.419     10.594
  Name = 
  4 active torsions:
  status: ('A' for Active; 'I' for Inactive)
    1  A    between atoms: C_1  and  N_19
    2  A    between atoms: O_9  and  C_22
    3  A    between atoms: O_9  and  C_23
    4  A    between atoms: C_15  and  C_23
                            x       y       z     vdW  Elec       q    Type
                         _______ _______ _______ _____ _____    ______ ____

>  <TORSDO>
F 4

$$$$
