=
 OpenBabel11052416413D

 43 48  0  0  1  0  0  0  0  0999 V2000
  190.6940  176.7720  145.5360 O   0  0  0  0  0  0  0  0  0  0  0  0
  187.5990  178.2270  141.9610 C   0  0  2  0  0  3  0  0  0  0  0  0
  189.4690  177.9630  140.3340 C   0  0  0  0  0  2  0  0  0  0  0  0
  189.5210  178.1200  143.9050 C   0  0  2  0  0  3  0  0  0  0  0  0
  191.1940  175.2750  143.7090 C   0  0  0  0  0  2  0  0  0  0  0  0
  191.7350  176.2080  144.7930 C   0  0  0  0  0  2  0  0  0  0  0  0
  189.8410  177.1980  142.7060 C   0  0  1  0  0  3  0  0  0  0  0  0
  190.5610  178.0680  145.0250 C   0  0  0  0  0  2  0  0  0  0  0  0
  189.8550  175.7240  143.1170 C   0  0  0  0  0  2  0  0  0  0  0  0
  188.4750  178.2370  139.2280 C   0  0  0  0  0  0  0  0  0  0  0  0
  188.8150  177.3720  141.5750 C   0  0  1  0  0  3  0  0  0  0  0  0
  187.0530  177.7650  143.3120 C   0  0  0  0  0  2  0  0  0  0  0  0
  186.5540  178.1210  140.8510 C   0  0  2  0  0  3  0  0  0  0  0  0
  187.1650  178.3840  139.4950 C   0  0  0  0  0  3  0  0  0  0  0  0
  188.0890  177.9380  144.4330 C   0  0  0  0  0  2  0  0  0  0  0  0
  188.9750  178.5320  137.8690 C   0  0  0  0  0  0  0  0  0  0  0  0
  189.5480  177.5100  137.0440 N   0  0  0  0  0  2  0  0  0  0  0  0
  188.9470  179.7160  137.4350 O   0  0  0  0  0  0  0  0  0  0  0  0
  189.0880  176.1560  137.0080 C   0  0  0  0  0  0  0  0  0  0  0  0
  187.9240  175.8640  137.3900 O   0  0  0  0  0  0  0  0  0  0  0  0
  189.9950  175.0810  136.5170 C   0  0  0  0  0  2  0  0  0  0  0  0
  189.4280  173.7750  136.8310 N   0  0  0  0  0  2  0  0  0  0  0  0
  187.7440  172.2720  135.8710 C   0  0  0  0  0  3  0  0  0  0  0  0
  188.9750  172.7920  135.8840 C   0  0  0  0  0  0  0  0  0  0  0  0
  189.9220  172.3480  134.8280 C   0  0  0  0  0  1  0  0  0  0  0  0
  186.6450  172.6470  136.8060 C   0  0  0  0  0  2  0  0  0  0  0  0
  184.3130  173.6040  136.5220 C   0  0  2  0  0  0  0  0  0  0  0  0
  184.2150  172.2250  137.1320 C   0  0  0  0  0  2  0  0  0  0  0  0
  185.3020  172.5210  136.1040 C   0  0  2  0  0  3  0  0  0  0  0  0
  183.1930  175.3820  135.1720 C   0  0  0  0  0  3  0  0  0  0  0  0
  184.4390  175.9470  137.2150 C   0  0  0  0  0  3  0  0  0  0  0  0
  183.7370  176.3110  135.9670 C   0  0  0  0  0  3  0  0  0  0  0  0
  184.7070  174.6730  137.5030 C   0  0  0  0  0  3  0  0  0  0  0  0
  183.1930  173.9190  135.5350 C   0  0  0  0  0  2  0  0  0  0  0  0
  185.4060  179.0940  141.0980 C   0  0  0  0  0  2  0  0  0  0  0  0
  182.3160  177.2540  139.9050 C   0  0  0  0  0  3  0  0  0  0  0  0
  181.9230  178.0370  138.8120 C   0  0  0  0  0  0  0  0  0  0  0  0
  183.8150  179.5100  139.2080 C   0  0  0  0  0  3  0  0  0  0  0  0
  183.4520  177.5960  140.6460 C   0  0  0  0  0  3  0  0  0  0  0  0
  184.2040  178.7220  140.2960 C   0  0  0  0  0  0  0  0  0  0  0  0
  182.6800  179.1690  138.4680 C   0  0  0  0  0  3  0  0  0  0  0  0
  180.5560  178.0790  136.7520 C   0  0  0  0  0  1  0  0  0  0  0  0
  180.7830  177.6690  138.0930 O   0  0  0  0  0  0  0  0  0  0  0  0
  2 12  1  1  0  0  0
  4 15  1  1  0  0  0
  4  8  1  0  0  0  0
  5  6  1  0  0  0  0
  6  1  1  0  0  0  0
  7  9  1  1  0  0  0
  7  4  1  0  0  0  0
  8  1  1  0  0  0  0
  9  5  1  0  0  0  0
 10 14  2  0  0  0  0
 10  3  1  0  0  0  0
 11  3  1  6  0  0  0
 11  2  1  0  0  0  0
 11  7  1  0  0  0  0
 12 15  1  0  0  0  0
 13 35  1  1  0  0  0
 13  2  1  0  0  0  0
 14 13  1  0  0  0  0
 16 10  1  0  0  0  0
 17 16  1  0  0  0  0
 18 16  2  0  0  0  0
 19 17  1  0  0  0  0
 19 20  2  0  0  0  0
 21 22  1  0  0  0  0
 21 19  1  0  0  0  0
 23 24  2  0  0  0  0
 23 26  1  0  0  0  0
 24 22  1  0  0  0  0
 25 24  1  0  0  0  0
 27 34  1  6  0  0  0
 27 28  1  0  0  0  0
 27 33  1  0  0  0  0
 29 27  1  0  0  0  0
 29 26  1  1  0  0  0
 29 28  1  0  0  0  0
 30 34  1  0  0  0  0
 30 32  2  0  0  0  0
 31 33  2  0  0  0  0
 32 31  1  0  0  0  0
 36 39  1  0  0  0  0
 37 36  2  0  0  0  0
 38 40  1  0  0  0  0
 40 39  2  0  0  0  0
 40 35  1  0  0  0  0
 41 37  1  0  0  0  0
 41 38  2  0  0  0  0
 42 43  1  0  0  0  0
 43 37  1  0  0  0  0
M  END
>  <MODEL>
1

>  <REMARK>
 VINA RESULT:      -7.6      0.000      0.000
  Name = 
  9 active torsions:
  status: ('A' for Active; 'I' for Inactive)
    1  A    between atoms: C_1  and  C_34
    2  A    between atoms: C_1  and  C_35
    3  A    between atoms: C_2  and  C_27
    4  A    between atoms: C_3  and  N_4
    5  A    between atoms: C_3  and  C_12
    6  A    between atoms: N_4  and  C_15
    7  A    between atoms: C_10  and  C_41
    8  A    between atoms: C_19  and  O_37
    9  A    between atoms: C_22  and  C_41
                            x       y       z     vdW  Elec       q    Type
                         _______ _______ _______ _____ _____    ______ ____

>  <TORSDO>
F 9

$$$$
=
 OpenBabel11052416413D

 43 48  0  0  1  0  0  0  0  0999 V2000
  184.1750  172.1820  135.4680 O   0  0  0  0  0  0  0  0  0  0  0  0
  188.4370  174.6650  135.8480 C   0  0  2  0  0  3  0  0  0  0  0  0
  187.1970  176.4670  137.0430 C   0  0  0  0  0  2  0  0  0  0  0  0
  185.9800  173.7430  135.0730 C   0  0  2  0  0  3  0  0  0  0  0  0
  184.1300  173.0430  137.7230 C   0  0  0  0  0  2  0  0  0  0  0  0
  183.3780  172.8460  136.4060 C   0  0  0  0  0  2  0  0  0  0  0  0
  185.9650  174.3360  136.5020 C   0  0  1  0  0  3  0  0  0  0  0  0
  184.6290  173.1940  134.6150 C   0  0  0  0  0  2  0  0  0  0  0  0
  185.6340  173.2720  137.5500 C   0  0  0  0  0  2  0  0  0  0  0  0
  188.5290  177.1330  137.3080 C   0  0  0  0  0  0  0  0  0  0  0  0
  187.3230  174.9610  136.8630 C   0  0  1  0  0  3  0  0  0  0  0  0
  188.4410  173.1740  135.5080 C   0  0  0  0  0  2  0  0  0  0  0  0
  189.7700  175.1240  136.4360 C   0  0  2  0  0  3  0  0  0  0  0  0
  189.6820  176.5410  136.9530 C   0  0  0  0  0  3  0  0  0  0  0  0
  187.1200  172.7360  134.8560 C   0  0  0  0  0  2  0  0  0  0  0  0
  188.5490  178.5300  137.7910 C   0  0  0  0  0  0  0  0  0  0  0  0
  188.3630  178.8460  139.1760 N   0  0  0  0  0  2  0  0  0  0  0  0
  188.6840  179.4750  136.9680 O   0  0  0  0  0  0  0  0  0  0  0  0
  188.8620  178.0490  140.2550 C   0  0  0  0  0  0  0  0  0  0  0  0
  189.8160  177.2480  140.0730 O   0  0  0  0  0  0  0  0  0  0  0  0
  188.2450  178.1670  141.6060 C   0  0  0  0  0  2  0  0  0  0  0  0
  186.7920  178.2010  141.4850 N   0  0  0  0  0  2  0  0  0  0  0  0
  186.0140  177.8070  143.7790 C   0  0  0  0  0  3  0  0  0  0  0  0
  185.8510  178.3400  142.5630 C   0  0  0  0  0  0  0  0  0  0  0  0
  184.6310  179.1560  142.3260 C   0  0  0  0  0  1  0  0  0  0  0  0
  187.2020  177.0190  144.2160 C   0  0  0  0  0  2  0  0  0  0  0  0
  189.6130  177.4470  144.8770 C   0  0  2  0  0  0  0  0  0  0  0  0
  188.8060  177.1280  146.1140 C   0  0  0  0  0  2  0  0  0  0  0  0
  188.1660  177.9160  144.9760 C   0  0  2  0  0  3  0  0  0  0  0  0
  191.6220  178.5830  143.9220 C   0  0  0  0  0  3  0  0  0  0  0  0
  190.9970  176.3140  143.2080 C   0  0  0  0  0  3  0  0  0  0  0  0
  191.7840  177.5570  143.0760 C   0  0  0  0  0  3  0  0  0  0  0  0
  189.9780  176.2360  144.0640 C   0  0  0  0  0  3  0  0  0  0  0  0
  190.6880  178.5060  145.1020 C   0  0  0  0  0  2  0  0  0  0  0  0
  190.8810  175.0210  135.3970 C   0  0  0  0  0  2  0  0  0  0  0  0
  193.8110  173.8980  137.5200 C   0  0  0  0  0  3  0  0  0  0  0  0
  194.7590  174.8920  137.2470 C   0  0  0  0  0  0  0  0  0  0  0  0
  193.1670  175.9790  135.7670 C   0  0  0  0  0  3  0  0  0  0  0  0
  192.5480  173.9430  136.9220 C   0  0  0  0  0  3  0  0  0  0  0  0
  192.2240  174.9850  136.0470 C   0  0  0  0  0  0  0  0  0  0  0  0
  194.4290  175.9340  136.3640 C   0  0  0  0  0  3  0  0  0  0  0  0
  196.1990  174.2830  139.1620 C   0  0  0  0  0  1  0  0  0  0  0  0
  196.0120  174.8190  137.8600 O   0  0  0  0  0  0  0  0  0  0  0  0
  1  6  1  0  0  0  0
  2 12  1  1  0  0  0
  2 13  1  0  0  0  0
  2 11  1  0  0  0  0
  3 10  1  0  0  0  0
  4  8  1  1  0  0  0
  4  7  1  0  0  0  0
  6  5  1  0  0  0  0
  7 11  1  0  0  0  0
  7  9  1  1  0  0  0
  8  1  1  0  0  0  0
  9  5  1  0  0  0  0
 10 16  1  0  0  0  0
 11  3  1  6  0  0  0
 13 35  1  6  0  0  0
 13 14  1  0  0  0  0
 14 10  2  0  0  0  0
 15  4  1  0  0  0  0
 15 12  1  0  0  0  0
 16 17  1  0  0  0  0
 17 19  1  0  0  0  0
 18 16  2  0  0  0  0
 19 21  1  0  0  0  0
 20 19  2  0  0  0  0
 22 21  1  0  0  0  0
 22 24  1  0  0  0  0
 23 26  1  0  0  0  0
 24 23  2  0  0  0  0
 25 24  1  0  0  0  0
 27 33  1  6  0  0  0
 27 29  1  0  0  0  0
 27 34  1  0  0  0  0
 27 28  1  0  0  0  0
 29 26  1  6  0  0  0
 29 28  1  0  0  0  0
 30 34  1  0  0  0  0
 31 33  2  0  0  0  0
 32 31  1  0  0  0  0
 32 30  2  0  0  0  0
 35 40  1  0  0  0  0
 37 36  1  0  0  0  0
 37 43  1  0  0  0  0
 38 40  2  0  0  0  0
 38 41  1  0  0  0  0
 39 36  2  0  0  0  0
 40 39  1  0  0  0  0
 41 37  2  0  0  0  0
 43 42  1  0  0  0  0
M  END
>  <MODEL>
2

>  <REMARK>
 VINA RESULT:      -7.6      2.779      9.648
  Name = 
  9 active torsions:
  status: ('A' for Active; 'I' for Inactive)
    1  A    between atoms: C_1  and  C_34
    2  A    between atoms: C_1  and  C_35
    3  A    between atoms: C_2  and  C_27
    4  A    between atoms: C_3  and  N_4
    5  A    between atoms: C_3  and  C_12
    6  A    between atoms: N_4  and  C_15
    7  A    between atoms: C_10  and  C_41
    8  A    between atoms: C_19  and  O_37
    9  A    between atoms: C_22  and  C_41
                            x       y       z     vdW  Elec       q    Type
                         _______ _______ _______ _____ _____    ______ ____

>  <TORSDO>
F 9

$$$$
=
 OpenBabel11052416413D

 43 48  0  0  1  0  0  0  0  0999 V2000
  184.7910  172.0950  135.3780 O   0  0  0  0  0  0  0  0  0  0  0  0
  188.8820  174.8370  135.8460 C   0  0  2  0  0  3  0  0  0  0  0  0
  187.5710  176.4240  137.2520 C   0  0  0  0  0  2  0  0  0  0  0  0
  186.4650  173.8140  135.0730 C   0  0  2  0  0  3  0  0  0  0  0  0
  184.7800  172.7370  137.7060 C   0  0  0  0  0  2  0  0  0  0  0  0
  183.9900  172.6090  136.4030 C   0  0  0  0  0  2  0  0  0  0  0  0
  186.4690  174.2690  136.5510 C   0  0  1  0  0  3  0  0  0  0  0  0
  185.1370  173.2130  134.6110 C   0  0  0  0  0  2  0  0  0  0  0  0
  186.2560  173.0900  137.5030 C   0  0  0  0  0  2  0  0  0  0  0  0
  188.8630  177.1580  137.5330 C   0  0  0  0  0  0  0  0  0  0  0  0
  187.7930  174.9540  136.9230 C   0  0  1  0  0  3  0  0  0  0  0  0
  188.9760  173.3890  135.3650 C   0  0  0  0  0  2  0  0  0  0  0  0
  190.2040  175.3360  136.4290 C   0  0  2  0  0  3  0  0  0  0  0  0
  190.0390  176.6880  137.0830 C   0  0  0  0  0  3  0  0  0  0  0  0
  187.6630  172.9180  134.7200 C   0  0  0  0  0  2  0  0  0  0  0  0
  188.8060  178.5010  138.1480 C   0  0  0  0  0  0  0  0  0  0  0  0
  188.7940  178.6740  139.5700 N   0  0  0  0  0  2  0  0  0  0  0  0
  188.7180  179.5220  137.4130 O   0  0  0  0  0  0  0  0  0  0  0  0
  189.5270  177.8540  140.4850 C   0  0  0  0  0  0  0  0  0  0  0  0
  190.5230  177.1900  140.0940 O   0  0  0  0  0  0  0  0  0  0  0  0
  189.1070  177.7820  141.9120 C   0  0  0  0  0  2  0  0  0  0  0  0
  187.6710  177.5400  141.9930 N   0  0  0  0  0  2  0  0  0  0  0  0
  185.6040  178.3490  143.0400 C   0  0  0  0  0  3  0  0  0  0  0  0
  186.8240  177.8080  143.1240 C   0  0  0  0  0  0  0  0  0  0  0  0
  187.3190  177.4300  144.4740 C   0  0  0  0  0  1  0  0  0  0  0  0
  184.9210  178.7270  141.7700 C   0  0  0  0  0  2  0  0  0  0  0  0
  183.2380  177.8010  140.1150 C   0  0  2  0  0  0  0  0  0  0  0  0
  182.5330  178.7290  141.0750 C   0  0  0  0  0  2  0  0  0  0  0  0
  183.6860  177.8630  141.5710 C   0  0  2  0  0  3  0  0  0  0  0  0
  183.0460  175.8530  138.5630 C   0  0  0  0  0  3  0  0  0  0  0  0
  184.3230  177.8550  137.9230 C   0  0  0  0  0  3  0  0  0  0  0  0
  183.9000  176.4530  137.7240 C   0  0  0  0  0  3  0  0  0  0  0  0
  184.0070  178.5140  139.0380 C   0  0  0  0  0  3  0  0  0  0  0  0
  182.4050  176.5870  139.7120 C   0  0  0  0  0  2  0  0  0  0  0  0
  191.2750  175.4120  135.3470 C   0  0  0  0  0  2  0  0  0  0  0  0
  195.0080  175.7300  135.9120 C   0  0  0  0  0  3  0  0  0  0  0  0
  195.1980  174.9080  137.0290 C   0  0  0  0  0  0  0  0  0  0  0  0
  192.8200  174.4070  137.0450 C   0  0  0  0  0  3  0  0  0  0  0  0
  193.7320  175.8900  135.3620 C   0  0  0  0  0  3  0  0  0  0  0  0
  192.6370  175.2260  135.9250 C   0  0  0  0  0  0  0  0  0  0  0  0
  194.0940  174.2470  137.5950 C   0  0  0  0  0  3  0  0  0  0  0  0
  197.6530  174.8160  136.7490 C   0  0  0  0  0  1  0  0  0  0  0  0
  196.4840  174.7700  137.5550 O   0  0  0  0  0  0  0  0  0  0  0  0
  1  6  1  0  0  0  0
  2 12  1  1  0  0  0
  2 13  1  0  0  0  0
  2 11  1  0  0  0  0
  3 10  1  0  0  0  0
  4  8  1  1  0  0  0
  4  7  1  0  0  0  0
  6  5  1  0  0  0  0
  7 11  1  0  0  0  0
  7  9  1  1  0  0  0
  8  1  1  0  0  0  0
  9  5  1  0  0  0  0
 10 16  1  0  0  0  0
 11  3  1  6  0  0  0
 13 35  1  6  0  0  0
 13 14  1  0  0  0  0
 14 10  2  0  0  0  0
 15  4  1  0  0  0  0
 15 12  1  0  0  0  0
 16 17  1  0  0  0  0
 17 19  1  0  0  0  0
 18 16  2  0  0  0  0
 19 21  1  0  0  0  0
 20 19  2  0  0  0  0
 21 22  1  0  0  0  0
 22 24  1  0  0  0  0
 23 24  2  0  0  0  0
 24 25  1  0  0  0  0
 26 23  1  0  0  0  0
 27 33  1  6  0  0  0
 27 28  1  0  0  0  0
 27 29  1  0  0  0  0
 28 29  1  0  0  0  0
 29 26  1  6  0  0  0
 30 34  1  0  0  0  0
 31 33  2  0  0  0  0
 32 31  1  0  0  0  0
 32 30  2  0  0  0  0
 34 27  1  0  0  0  0
 35 40  1  0  0  0  0
 36 37  1  0  0  0  0
 37 43  1  0  0  0  0
 37 41  2  0  0  0  0
 38 41  1  0  0  0  0
 39 36  2  0  0  0  0
 39 40  1  0  0  0  0
 40 38  2  0  0  0  0
 42 43  1  0  0  0  0
M  END
>  <MODEL>
3

>  <REMARK>
 VINA RESULT:      -7.6      2.908      8.814
  Name = 
  9 active torsions:
  status: ('A' for Active; 'I' for Inactive)
    1  A    between atoms: C_1  and  C_34
    2  A    between atoms: C_1  and  C_35
    3  A    between atoms: C_2  and  C_27
    4  A    between atoms: C_3  and  N_4
    5  A    between atoms: C_3  and  C_12
    6  A    between atoms: N_4  and  C_15
    7  A    between atoms: C_10  and  C_41
    8  A    between atoms: C_19  and  O_37
    9  A    between atoms: C_22  and  C_41
                            x       y       z     vdW  Elec       q    Type
                         _______ _______ _______ _____ _____    ______ ____

>  <TORSDO>
F 9

$$$$
=
 OpenBabel11052416413D

 43 48  0  0  1  0  0  0  0  0999 V2000
  195.0110  175.5110  136.7860 O   0  0  0  0  0  0  0  0  0  0  0  0
  190.8250  176.9140  139.0190 C   0  0  2  0  0  3  0  0  0  0  0  0
  189.5610  175.9250  137.1120 C   0  0  0  0  0  2  0  0  0  0  0  0
  193.0270  176.7500  137.4030 C   0  0  2  0  0  3  0  0  0  0  0  0
  193.5450  173.6170  136.4840 C   0  0  0  0  0  2  0  0  0  0  0  0
  194.5330  174.5940  135.8450 C   0  0  0  0  0  2  0  0  0  0  0  0
  192.0540  175.5660  137.1970 C   0  0  1  0  0  3  0  0  0  0  0  0
  194.2840  176.6800  136.5350 C   0  0  0  0  0  2  0  0  0  0  0  0
  192.6940  174.2360  137.5970 C   0  0  0  0  0  2  0  0  0  0  0  0
  188.2900  176.1990  137.8830 C   0  0  0  0  0  0  0  0  0  0  0  0
  190.7690  175.7470  138.0210 C   0  0  1  0  0  3  0  0  0  0  0  0
  192.1350  176.8570  139.8040 C   0  0  0  0  0  2  0  0  0  0  0  0
  189.6030  176.8360  139.9330 C   0  0  2  0  0  3  0  0  0  0  0  0
  188.3300  176.6880  139.1340 C   0  0  0  0  0  3  0  0  0  0  0  0
  193.3570  177.0030  138.8830 C   0  0  0  0  0  2  0  0  0  0  0  0
  186.9910  176.1060  137.1820 C   0  0  0  0  0  0  0  0  0  0  0  0
  185.8850  176.9430  137.5420 N   0  0  0  0  0  2  0  0  0  0  0  0
  186.8260  175.2400  136.2810 O   0  0  0  0  0  0  0  0  0  0  0  0
  186.0110  178.3070  137.9540 C   0  0  0  0  0  0  0  0  0  0  0  0
  187.0380  178.9740  137.6580 O   0  0  0  0  0  0  0  0  0  0  0  0
  184.9210  178.9440  138.7450 C   0  0  0  0  0  2  0  0  0  0  0  0
  184.8050  178.2900  140.0430 N   0  0  0  0  0  2  0  0  0  0  0  0
  183.7610  178.8300  142.1970 C   0  0  0  0  0  3  0  0  0  0  0  0
  183.6860  178.3740  140.9420 C   0  0  0  0  0  0  0  0  0  0  0  0
  182.3500  177.9600  140.4390 C   0  0  0  0  0  1  0  0  0  0  0  0
  184.9980  179.3500  142.8470 C   0  0  0  0  0  2  0  0  0  0  0  0
  185.3530  178.5300  145.2200 C   0  0  2  0  0  0  0  0  0  0  0  0
  183.8800  178.4770  144.8900 C   0  0  0  0  0  2  0  0  0  0  0  0
  184.7410  179.6010  144.3240 C   0  0  2  0  0  3  0  0  0  0  0  0
  187.0950  178.7120  147.0010 C   0  0  0  0  0  3  0  0  0  0  0  0
  187.3320  177.0930  145.1650 C   0  0  0  0  0  3  0  0  0  0  0  0
  187.8540  177.8360  146.3310 C   0  0  0  0  0  3  0  0  0  0  0  0
  186.1450  177.3940  144.6360 C   0  0  0  0  0  3  0  0  0  0  0  0
  185.6440  178.9360  146.6620 C   0  0  0  0  0  2  0  0  0  0  0  0
  189.5150  178.0720  140.8210 C   0  0  0  0  0  2  0  0  0  0  0  0
  190.5990  176.2650  143.9690 C   0  0  0  0  0  3  0  0  0  0  0  0
  191.2100  177.2960  144.6930 C   0  0  0  0  0  0  0  0  0  0  0  0
  190.7060  178.8410  142.8870 C   0  0  0  0  0  3  0  0  0  0  0  0
  190.0430  176.5190  142.7110 C   0  0  0  0  0  3  0  0  0  0  0  0
  190.0940  177.8080  142.1700 C   0  0  0  0  0  0  0  0  0  0  0  0
  191.2620  178.5880  144.1430 C   0  0  0  0  0  3  0  0  0  0  0  0
  192.1280  175.6970  146.3420 C   0  0  0  0  0  1  0  0  0  0  0  0
  191.7550  177.0100  145.9470 O   0  0  0  0  0  0  0  0  0  0  0  0
  2 12  1  1  0  0  0
  2 13  1  0  0  0  0
  3 10  1  0  0  0  0
  4  8  1  6  0  0  0
  4 15  1  0  0  0  0
  5  9  1  0  0  0  0
  6  5  1  0  0  0  0
  6  1  1  0  0  0  0
  7  4  1  0  0  0  0
  7  9  1  1  0  0  0
  7 11  1  0  0  0  0
  8  1  1  0  0  0  0
 10 14  2  0  0  0  0
 11  3  1  6  0  0  0
 11  2  1  0  0  0  0
 13 35  1  6  0  0  0
 14 13  1  0  0  0  0
 15 12  1  0  0  0  0
 16 17  1  0  0  0  0
 16 10  1  0  0  0  0
 17 19  1  0  0  0  0
 18 16  2  0  0  0  0
 19 21  1  0  0  0  0
 20 19  2  0  0  0  0
 21 22  1  0  0  0  0
 22 24  1  0  0  0  0
 23 26  1  0  0  0  0
 24 23  2  0  0  0  0
 25 24  1  0  0  0  0
 27 33  1  6  0  0  0
 27 34  1  0  0  0  0
 28 27  1  0  0  0  0
 29 26  1  6  0  0  0
 29 28  1  0  0  0  0
 29 27  1  0  0  0  0
 31 32  1  0  0  0  0
 32 30  2  0  0  0  0
 33 31  2  0  0  0  0
 34 30  1  0  0  0  0
 35 40  1  0  0  0  0
 36 37  1  0  0  0  0
 37 43  1  0  0  0  0
 38 41  1  0  0  0  0
 39 36  2  0  0  0  0
 40 39  1  0  0  0  0
 40 38  2  0  0  0  0
 41 37  2  0  0  0  0
 43 42  1  0  0  0  0
M  END
>  <MODEL>
4

>  <REMARK>
 VINA RESULT:      -7.4      2.804      8.355
  Name = 
  9 active torsions:
  status: ('A' for Active; 'I' for Inactive)
    1  A    between atoms: C_1  and  C_34
    2  A    between atoms: C_1  and  C_35
    3  A    between atoms: C_2  and  C_27
    4  A    between atoms: C_3  and  N_4
    5  A    between atoms: C_3  and  C_12
    6  A    between atoms: N_4  and  C_15
    7  A    between atoms: C_10  and  C_41
    8  A    between atoms: C_19  and  O_37
    9  A    between atoms: C_22  and  C_41
                            x       y       z     vdW  Elec       q    Type
                         _______ _______ _______ _____ _____    ______ ____

>  <TORSDO>
F 9

$$$$
=
 OpenBabel11052416413D

 43 48  0  0  1  0  0  0  0  0999 V2000
  186.4150  177.3670  135.2390 O   0  0  0  0  0  0  0  0  0  0  0  0
  190.5770  176.9250  137.8760 C   0  0  2  0  0  3  0  0  0  0  0  0
  189.2930  177.6430  139.8880 C   0  0  0  0  0  2  0  0  0  0  0  0
  188.4650  177.8740  136.4180 C   0  0  2  0  0  3  0  0  0  0  0  0
  185.6810  176.3140  137.2840 C   0  0  0  0  0  2  0  0  0  0  0  0
  185.4470  177.4140  136.2470 C   0  0  0  0  0  2  0  0  0  0  0  0
  188.0210  177.2310  137.7530 C   0  0  1  0  0  3  0  0  0  0  0  0
  187.3090  178.3930  135.5630 C   0  0  0  0  0  2  0  0  0  0  0  0
  187.1590  175.9880  137.5190 C   0  0  0  0  0  2  0  0  0  0  0  0
  190.5220  177.3360  140.7150 C   0  0  0  0  0  0  0  0  0  0  0  0
  189.2310  176.8220  138.6080 C   0  0  1  0  0  3  0  0  0  0  0  0
  190.4650  176.2730  136.4980 C   0  0  0  0  0  2  0  0  0  0  0  0
  191.6550  176.2680  138.7370 C   0  0  2  0  0  3  0  0  0  0  0  0
  191.6130  176.7850  140.1560 C   0  0  0  0  0  3  0  0  0  0  0  0
  189.4260  176.9830  135.6150 C   0  0  0  0  0  2  0  0  0  0  0  0
  190.5890  177.8220  142.1090 C   0  0  0  0  0  0  0  0  0  0  0  0
  189.4980  177.6360  143.0200 N   0  0  0  0  0  2  0  0  0  0  0  0
  191.6030  178.4590  142.5030 O   0  0  0  0  0  0  0  0  0  0  0  0
  188.6650  176.4740  143.0480 C   0  0  0  0  0  0  0  0  0  0  0  0
  189.0660  175.3860  142.5560 O   0  0  0  0  0  0  0  0  0  0  0  0
  187.3100  176.5500  143.6630 C   0  0  0  0  0  2  0  0  0  0  0  0
  186.9890  177.9370  143.9800 N   0  0  0  0  0  2  0  0  0  0  0  0
  184.6110  178.4590  143.6720 C   0  0  0  0  0  3  0  0  0  0  0  0
  185.7160  178.4360  144.4250 C   0  0  0  0  0  0  0  0  0  0  0  0
  185.6060  178.9280  145.8230 C   0  0  0  0  0  1  0  0  0  0  0  0
  184.5170  177.9450  142.2750 C   0  0  0  0  0  2  0  0  0  0  0  0
  184.0750  178.7920  139.9260 C   0  0  2  0  0  0  0  0  0  0  0  0
  185.5640  178.6410  140.1290 C   0  0  0  0  0  2  0  0  0  0  0  0
  184.6850  179.0910  141.2900 C   0  0  2  0  0  3  0  0  0  0  0  0
  182.2360  179.9420  138.6870 C   0  0  0  0  0  3  0  0  0  0  0  0
  182.1670  177.5160  139.0800 C   0  0  0  0  0  3  0  0  0  0  0  0
  181.5520  178.7910  138.6580 C   0  0  0  0  0  3  0  0  0  0  0  0
  183.3650  177.4930  139.6650 C   0  0  0  0  0  3  0  0  0  0  0  0
  183.6920  179.9980  139.0730 C   0  0  0  0  0  2  0  0  0  0  0  0
  193.0380  176.5050  138.1420 C   0  0  0  0  0  2  0  0  0  0  0  0
  194.1920  173.0200  137.2020 C   0  0  0  0  0  3  0  0  0  0  0  0
  195.3340  172.8740  137.9990 C   0  0  0  0  0  0  0  0  0  0  0  0
  194.9730  175.1020  138.8970 C   0  0  0  0  0  3  0  0  0  0  0  0
  193.4420  174.2000  137.2530 C   0  0  0  0  0  3  0  0  0  0  0  0
  193.8300  175.2410  138.1020 C   0  0  0  0  0  0  0  0  0  0  0  0
  195.7220  173.9240  138.8480 C   0  0  0  0  0  3  0  0  0  0  0  0
  195.4780  170.4490  137.5320 C   0  0  0  0  0  1  0  0  0  0  0  0
  196.0610  171.6830  137.9250 O   0  0  0  0  0  0  0  0  0  0  0  0
  1  8  1  0  0  0  0
  1  6  1  0  0  0  0
  2 12  1  6  0  0  0
  2 11  1  0  0  0  0
  2 13  1  0  0  0  0
  3 10  1  0  0  0  0
  4  8  1  6  0  0  0
  4  7  1  0  0  0  0
  5  9  1  0  0  0  0
  6  5  1  0  0  0  0
  7  9  1  6  0  0  0
  7 11  1  0  0  0  0
 10 16  1  0  0  0  0
 11  3  1  1  0  0  0
 13 35  1  6  0  0  0
 13 14  1  0  0  0  0
 14 10  2  0  0  0  0
 15  4  1  0  0  0  0
 15 12  1  0  0  0  0
 16 18  2  0  0  0  0
 16 17  1  0  0  0  0
 17 19  1  0  0  0  0
 19 21  1  0  0  0  0
 20 19  2  0  0  0  0
 21 22  1  0  0  0  0
 22 24  1  0  0  0  0
 23 24  2  0  0  0  0
 24 25  1  0  0  0  0
 26 23  1  0  0  0  0
 27 34  1  6  0  0  0
 27 28  1  0  0  0  0
 27 29  1  0  0  0  0
 28 29  1  0  0  0  0
 29 26  1  1  0  0  0
 30 34  1  0  0  0  0
 31 33  2  0  0  0  0
 32 30  2  0  0  0  0
 32 31  1  0  0  0  0
 33 27  1  0  0  0  0
 36 39  2  0  0  0  0
 36 37  1  0  0  0  0
 37 41  2  0  0  0  0
 39 40  1  0  0  0  0
 40 35  1  0  0  0  0
 40 38  2  0  0  0  0
 41 38  1  0  0  0  0
 42 43  1  0  0  0  0
 43 37  1  0  0  0  0
M  END
>  <MODEL>
5

>  <REMARK>
 VINA RESULT:      -7.3      3.437      8.890
  Name = 
  9 active torsions:
  status: ('A' for Active; 'I' for Inactive)
    1  A    between atoms: C_1  and  C_34
    2  A    between atoms: C_1  and  C_35
    3  A    between atoms: C_2  and  C_27
    4  A    between atoms: C_3  and  N_4
    5  A    between atoms: C_3  and  C_12
    6  A    between atoms: N_4  and  C_15
    7  A    between atoms: C_10  and  C_41
    8  A    between atoms: C_19  and  O_37
    9  A    between atoms: C_22  and  C_41
                            x       y       z     vdW  Elec       q    Type
                         _______ _______ _______ _____ _____    ______ ____

>  <TORSDO>
F 9

$$$$
=
 OpenBabel11052416413D

 43 48  0  0  1  0  0  0  0  0999 V2000
  181.4360  175.1820  136.2160 O   0  0  0  0  0  0  0  0  0  0  0  0
  186.3720  175.3100  135.9110 C   0  0  2  0  0  3  0  0  0  0  0  0
  186.3240  177.4520  137.1840 C   0  0  0  0  0  2  0  0  0  0  0  0
  183.6930  175.6980  135.5150 C   0  0  2  0  0  3  0  0  0  0  0  0
  182.1220  175.8980  138.4180 C   0  0  0  0  0  2  0  0  0  0  0  0
  181.1920  176.1210  137.2240 C   0  0  0  0  0  2  0  0  0  0  0  0
  184.1620  176.1870  136.9050 C   0  0  1  0  0  3  0  0  0  0  0  0
  182.1940  175.8760  135.2670 C   0  0  0  0  0  2  0  0  0  0  0  0
  183.5120  175.3830  138.0330 C   0  0  0  0  0  2  0  0  0  0  0  0
  187.8330  177.3920  137.2380 C   0  0  0  0  0  0  0  0  0  0  0  0
  185.6880  176.0750  137.0530 C   0  0  1  0  0  3  0  0  0  0  0  0
  185.6170  174.0090  135.6370 C   0  0  0  0  0  2  0  0  0  0  0  0
  187.8300  175.0590  136.2930 C   0  0  2  0  0  3  0  0  0  0  0  0
  188.5020  176.3300  136.7560 C   0  0  0  0  0  3  0  0  0  0  0  0
  184.1710  174.2750  135.1890 C   0  0  0  0  0  2  0  0  0  0  0  0
  188.5860  178.5940  137.6540 C   0  0  0  0  0  0  0  0  0  0  0  0
  188.5740  179.0530  139.0120 N   0  0  0  0  0  2  0  0  0  0  0  0
  189.2160  179.2670  136.7940 O   0  0  0  0  0  0  0  0  0  0  0  0
  188.5550  178.1880  140.1510 C   0  0  0  0  0  0  0  0  0  0  0  0
  188.9390  176.9920  140.0540 O   0  0  0  0  0  0  0  0  0  0  0  0
  188.0730  178.7040  141.4620 C   0  0  0  0  0  2  0  0  0  0  0  0
  186.9900  177.8620  141.9570 N   0  0  0  0  0  2  0  0  0  0  0  0
  186.1160  177.8270  144.2500 C   0  0  0  0  0  3  0  0  0  0  0  0
  186.0340  178.2130  142.9720 C   0  0  0  0  0  0  0  0  0  0  0  0
  184.8960  179.0890  142.5890 C   0  0  0  0  0  1  0  0  0  0  0  0
  187.2200  177.0070  144.8270 C   0  0  0  0  0  2  0  0  0  0  0  0
  189.7110  177.4770  144.8730 C   0  0  2  0  0  0  0  0  0  0  0  0
  189.2450  177.1290  146.2670 C   0  0  0  0  0  2  0  0  0  0  0  0
  188.3270  177.9160  145.3370 C   0  0  2  0  0  3  0  0  0  0  0  0
  191.3980  178.6650  143.4640 C   0  0  0  0  0  3  0  0  0  0  0  0
  190.6550  176.3910  142.8940 C   0  0  0  0  0  3  0  0  0  0  0  0
  191.3620  177.6520  142.5890 C   0  0  0  0  0  3  0  0  0  0  0  0
  189.8830  176.2830  143.9760 C   0  0  0  0  0  3  0  0  0  0  0  0
  190.7900  178.5560  144.8380 C   0  0  0  0  0  2  0  0  0  0  0  0
  188.6000  174.4650  135.1190 C   0  0  0  0  0  2  0  0  0  0  0  0
  192.2690  175.4070  135.1970 C   0  0  0  0  0  3  0  0  0  0  0  0
  192.8140  174.3680  135.9600 C   0  0  0  0  0  0  0  0  0  0  0  0
  190.6020  173.3830  136.1690 C   0  0  0  0  0  3  0  0  0  0  0  0
  190.8980  175.4360  134.9190 C   0  0  0  0  0  3  0  0  0  0  0  0
  190.0640  174.4230  135.4020 C   0  0  0  0  0  0  0  0  0  0  0  0
  191.9700  173.3540  136.4470 C   0  0  0  0  0  3  0  0  0  0  0  0
  195.0320  175.4580  135.8830 C   0  0  0  0  0  1  0  0  0  0  0  0
  194.1860  174.3670  136.2200 O   0  0  0  0  0  0  0  0  0  0  0  0
  1  6  1  0  0  0  0
  2 12  1  1  0  0  0
  2 13  1  0  0  0  0
  2 11  1  0  0  0  0
  3 10  1  0  0  0  0
  4 15  1  1  0  0  0
  4  7  1  0  0  0  0
  6  5  1  0  0  0  0
  7 11  1  0  0  0  0
  7  9  1  1  0  0  0
  8  4  1  0  0  0  0
  8  1  1  0  0  0  0
  9  5  1  0  0  0  0
 10 16  1  0  0  0  0
 11  3  1  6  0  0  0
 13 35  1  6  0  0  0
 13 14  1  0  0  0  0
 14 10  2  0  0  0  0
 15 12  1  0  0  0  0
 16 17  1  0  0  0  0
 17 19  1  0  0  0  0
 18 16  2  0  0  0  0
 19 21  1  0  0  0  0
 20 19  2  0  0  0  0
 21 22  1  0  0  0  0
 22 24  1  0  0  0  0
 23 26  1  0  0  0  0
 24 23  2  0  0  0  0
 25 24  1  0  0  0  0
 27 33  1  6  0  0  0
 27 29  1  0  0  0  0
 27 28  1  0  0  0  0
 29 26  1  6  0  0  0
 29 28  1  0  0  0  0
 30 34  1  0  0  0  0
 31 33  2  0  0  0  0
 32 31  1  0  0  0  0
 32 30  2  0  0  0  0
 34 27  1  0  0  0  0
 35 40  1  0  0  0  0
 36 37  1  0  0  0  0
 37 43  1  0  0  0  0
 37 41  2  0  0  0  0
 38 41  1  0  0  0  0
 39 36  2  0  0  0  0
 39 40  1  0  0  0  0
 40 38  2  0  0  0  0
 42 43  1  0  0  0  0
M  END
>  <MODEL>
6

>  <REMARK>
 VINA RESULT:      -7.3      2.268      9.393
  Name = 
  9 active torsions:
  status: ('A' for Active; 'I' for Inactive)
    1  A    between atoms: C_1  and  C_34
    2  A    between atoms: C_1  and  C_35
    3  A    between atoms: C_2  and  C_27
    4  A    between atoms: C_3  and  N_4
    5  A    between atoms: C_3  and  C_12
    6  A    between atoms: N_4  and  C_15
    7  A    between atoms: C_10  and  C_41
    8  A    between atoms: C_19  and  O_37
    9  A    between atoms: C_22  and  C_41
                            x       y       z     vdW  Elec       q    Type
                         _______ _______ _______ _____ _____    ______ ____

>  <TORSDO>
F 9

$$$$
=
 OpenBabel11052416413D

 43 48  0  0  1  0  0  0  0  0999 V2000
  186.2570  178.3200  146.7690 O   0  0  0  0  0  0  0  0  0  0  0  0
  183.1080  178.8510  142.9910 C   0  0  2  0  0  3  0  0  0  0  0  0
  185.0690  179.2690  141.5090 C   0  0  0  0  0  2  0  0  0  0  0  0
  184.8250  179.2860  145.0760 C   0  0  2  0  0  3  0  0  0  0  0  0
  187.3370  177.1400  144.9610 C   0  0  0  0  0  2  0  0  0  0  0  0
  187.4730  178.1520  146.1000 C   0  0  0  0  0  2  0  0  0  0  0  0
  185.5070  178.5660  143.8890 C   0  0  1  0  0  3  0  0  0  0  0  0
  185.7480  179.5250  146.2720 C   0  0  0  0  0  2  0  0  0  0  0  0
  185.9680  177.1590  144.2750 C   0  0  0  0  0  2  0  0  0  0  0  0
  184.1160  179.2540  140.3350 C   0  0  0  0  0  0  0  0  0  0  0  0
  184.5580  178.4480  142.6860 C   0  0  1  0  0  3  0  0  0  0  0  0
  182.6500  178.1830  144.2880 C   0  0  0  0  0  2  0  0  0  0  0  0
  182.2310  178.4610  141.8020 C   0  0  2  0  0  3  0  0  0  0  0  0
  182.8150  178.9620  140.5020 C   0  0  0  0  0  3  0  0  0  0  0  0
  183.4970  178.6330  145.4890 C   0  0  0  0  0  2  0  0  0  0  0  0
  184.5850  179.7500  139.0240 C   0  0  0  0  0  0  0  0  0  0  0  0
  185.5040  178.9960  138.2240 N   0  0  0  0  0  2  0  0  0  0  0  0
  184.2130  180.8820  138.6130 O   0  0  0  0  0  0  0  0  0  0  0  0
  185.4990  177.5690  138.1250 C   0  0  0  0  0  0  0  0  0  0  0  0
  184.4650  176.9100  138.4120 O   0  0  0  0  0  0  0  0  0  0  0  0
  186.7300  176.8550  137.6820 C   0  0  0  0  0  2  0  0  0  0  0  0
  187.9100  177.5280  138.2130 N   0  0  0  0  0  2  0  0  0  0  0  0
  190.2730  176.9490  138.5260 C   0  0  0  0  0  3  0  0  0  0  0  0
  189.2630  177.3630  137.7540 C   0  0  0  0  0  0  0  0  0  0  0  0
  189.5560  177.6350  136.3230 C   0  0  0  0  0  1  0  0  0  0  0  0
  190.1530  176.5660  139.9620 C   0  0  0  0  0  2  0  0  0  0  0  0
  189.9190  177.5020  142.3080 C   0  0  2  0  0  0  0  0  0  0  0  0
  188.6340  177.7340  141.5480 C   0  0  0  0  0  2  0  0  0  0  0  0
  189.9690  177.8110  140.8160 C   0  0  2  0  0  3  0  0  0  0  0  0
  191.4170  178.2390  144.1660 C   0  0  0  0  0  3  0  0  0  0  0  0
  190.9270  175.8560  143.8110 C   0  0  0  0  0  3  0  0  0  0  0  0
  191.6810  176.9570  144.4460 C   0  0  0  0  0  3  0  0  0  0  0  0
  190.0780  176.0940  142.8110 C   0  0  0  0  0  3  0  0  0  0  0  0
  190.2890  178.6430  143.2520 C   0  0  0  0  0  2  0  0  0  0  0  0
  180.8160  179.0020  141.9760 C   0  0  0  0  0  2  0  0  0  0  0  0
  179.5280  181.5430  139.4780 C   0  0  0  0  0  3  0  0  0  0  0  0
  179.3980  180.7640  138.3220 C   0  0  0  0  0  0  0  0  0  0  0  0
  180.1890  178.8270  139.5570 C   0  0  0  0  0  3  0  0  0  0  0  0
  179.9850  180.9680  140.6680 C   0  0  0  0  0  3  0  0  0  0  0  0
  180.3130  179.6090  140.7100 C   0  0  0  0  0  0  0  0  0  0  0  0
  179.7330  179.4000  138.3670 C   0  0  0  0  0  3  0  0  0  0  0  0
  179.4580  182.5990  136.6650 C   0  0  0  0  0  1  0  0  0  0  0  0
  178.9390  181.3680  137.1490 O   0  0  0  0  0  0  0  0  0  0  0  0
  2 12  1  1  0  0  0
  4 15  1  1  0  0  0
  4  8  1  0  0  0  0
  5  6  1  0  0  0  0
  6  1  1  0  0  0  0
  7  9  1  1  0  0  0
  7  4  1  0  0  0  0
  8  1  1  0  0  0  0
  9  5  1  0  0  0  0
 10 14  2  0  0  0  0
 10  3  1  0  0  0  0
 11  3  1  6  0  0  0
 11  2  1  0  0  0  0
 11  7  1  0  0  0  0
 12 15  1  0  0  0  0
 13 35  1  1  0  0  0
 13  2  1  0  0  0  0
 14 13  1  0  0  0  0
 16 10  1  0  0  0  0
 17 16  1  0  0  0  0
 18 16  2  0  0  0  0
 19 17  1  0  0  0  0
 19 20  2  0  0  0  0
 21 19  1  0  0  0  0
 21 22  1  0  0  0  0
 23 26  1  0  0  0  0
 24 22  1  0  0  0  0
 24 23  2  0  0  0  0
 25 24  1  0  0  0  0
 27 28  1  1  0  0  0
 27 33  1  0  0  0  0
 27 34  1  0  0  0  0
 29 26  1  6  0  0  0
 29 28  1  0  0  0  0
 29 27  1  0  0  0  0
 30 32  2  0  0  0  0
 31 32  1  0  0  0  0
 33 31  2  0  0  0  0
 34 30  1  0  0  0  0
 36 39  1  0  0  0  0
 37 41  1  0  0  0  0
 37 36  2  0  0  0  0
 38 40  1  0  0  0  0
 39 40  2  0  0  0  0
 40 35  1  0  0  0  0
 41 38  2  0  0  0  0
 42 43  1  0  0  0  0
 43 37  1  0  0  0  0
M  END
>  <MODEL>
7

>  <REMARK>
 VINA RESULT:      -7.3      3.003      5.987
  Name = 
  9 active torsions:
  status: ('A' for Active; 'I' for Inactive)
    1  A    between atoms: C_1  and  C_34
    2  A    between atoms: C_1  and  C_35
    3  A    between atoms: C_2  and  C_27
    4  A    between atoms: C_3  and  N_4
    5  A    between atoms: C_3  and  C_12
    6  A    between atoms: N_4  and  C_15
    7  A    between atoms: C_10  and  C_41
    8  A    between atoms: C_19  and  O_37
    9  A    between atoms: C_22  and  C_41
                            x       y       z     vdW  Elec       q    Type
                         _______ _______ _______ _____ _____    ______ ____

>  <TORSDO>
F 9

$$$$
=
 OpenBabel11052416413D

 43 48  0  0  1  0  0  0  0  0999 V2000
  190.6370  176.7440  145.4930 O   0  0  0  0  0  0  0  0  0  0  0  0
  187.5660  178.1970  141.8960 C   0  0  2  0  0  3  0  0  0  0  0  0
  189.4580  177.9730  140.2890 C   0  0  0  0  0  2  0  0  0  0  0  0
  189.4660  178.0940  143.8620 C   0  0  2  0  0  3  0  0  0  0  0  0
  191.1760  175.2710  143.6570 C   0  0  0  0  0  2  0  0  0  0  0  0
  191.6940  176.2000  144.7560 C   0  0  0  0  0  2  0  0  0  0  0  0
  189.8120  177.1880  142.6570 C   0  0  1  0  0  3  0  0  0  0  0  0
  190.4940  178.0430  144.9930 C   0  0  0  0  0  2  0  0  0  0  0  0
  189.8380  175.7100  143.0540 C   0  0  0  0  0  2  0  0  0  0  0  0
  188.4720  178.2460  139.1750 C   0  0  0  0  0  0  0  0  0  0  0  0
  188.7960  177.3610  141.5160 C   0  0  1  0  0  3  0  0  0  0  0  0
  187.0100  177.7160  143.2360 C   0  0  0  0  0  2  0  0  0  0  0  0
  186.5350  178.0900  140.7740 C   0  0  2  0  0  3  0  0  0  0  0  0
  187.1590  178.3740  139.4280 C   0  0  0  0  0  3  0  0  0  0  0  0
  188.0310  177.8900  144.3720 C   0  0  0  0  0  2  0  0  0  0  0  0
  188.9850  178.5600  137.8240 C   0  0  0  0  0  0  0  0  0  0  0  0
  189.7030  177.5910  137.0510 N   0  0  0  0  0  2  0  0  0  0  0  0
  188.8350  179.7200  137.3520 O   0  0  0  0  0  0  0  0  0  0  0  0
  189.4060  176.1920  137.0420 C   0  0  0  0  0  0  0  0  0  0  0  0
  188.2700  175.7750  137.3940 O   0  0  0  0  0  0  0  0  0  0  0  0
  190.4490  175.2170  136.6160 C   0  0  0  0  0  2  0  0  0  0  0  0
  191.3410  174.9280  137.7330 N   0  0  0  0  0  2  0  0  0  0  0  0
  193.7760  175.0880  137.4730 C   0  0  0  0  0  3  0  0  0  0  0  0
  192.6220  175.5340  137.9800 C   0  0  0  0  0  0  0  0  0  0  0  0
  192.6670  176.7550  138.8260 C   0  0  0  0  0  1  0  0  0  0  0  0
  193.9130  173.9220  136.5530 C   0  0  0  0  0  2  0  0  0  0  0  0
  196.2560  172.9630  136.4070 C   0  0  2  0  0  0  0  0  0  0  0  0
  195.2540  171.8850  136.0650 C   0  0  0  0  0  2  0  0  0  0  0  0
  194.9110  172.9270  137.1230 C   0  0  2  0  0  3  0  0  0  0  0  0
  198.5370  173.5060  137.2690 C   0  0  0  0  0  3  0  0  0  0  0  0
  197.6270  174.6570  135.2950 C   0  0  0  0  0  3  0  0  0  0  0  0
  198.6270  174.4950  136.3710 C   0  0  0  0  0  3  0  0  0  0  0  0
  196.5080  173.9310  135.2850 C   0  0  0  0  0  3  0  0  0  0  0  0
  197.4600  172.4540  137.1950 C   0  0  0  0  0  2  0  0  0  0  0  0
  185.3720  179.0460  141.0170 C   0  0  0  0  0  2  0  0  0  0  0  0
  182.3050  177.1450  139.8610 C   0  0  0  0  0  3  0  0  0  0  0  0
  181.8950  177.9090  138.7620 C   0  0  0  0  0  0  0  0  0  0  0  0
  183.7660  179.4160  139.1300 C   0  0  0  0  0  3  0  0  0  0  0  0
  183.4400  177.5130  140.5920 C   0  0  0  0  0  3  0  0  0  0  0  0
  184.1730  178.6470  140.2260 C   0  0  0  0  0  0  0  0  0  0  0  0
  182.6330  179.0490  138.4000 C   0  0  0  0  0  3  0  0  0  0  0  0
  179.7620  176.6680  138.6070 C   0  0  0  0  0  1  0  0  0  0  0  0
  180.7580  177.5150  138.0520 O   0  0  0  0  0  0  0  0  0  0  0  0
  2 12  1  1  0  0  0
  4 15  1  1  0  0  0
  4  8  1  0  0  0  0
  5  6  1  0  0  0  0
  6  1  1  0  0  0  0
  7  9  1  1  0  0  0
  7  4  1  0  0  0  0
  8  1  1  0  0  0  0
  9  5  1  0  0  0  0
 10 14  2  0  0  0  0
 10  3  1  0  0  0  0
 11  3  1  6  0  0  0
 11  2  1  0  0  0  0
 11  7  1  0  0  0  0
 12 15  1  0  0  0  0
 13 35  1  1  0  0  0
 13  2  1  0  0  0  0
 14 13  1  0  0  0  0
 16 10  1  0  0  0  0
 17 16  1  0  0  0  0
 18 16  2  0  0  0  0
 19 17  1  0  0  0  0
 19 20  2  0  0  0  0
 21 19  1  0  0  0  0
 21 22  1  0  0  0  0
 22 24  1  0  0  0  0
 23 24  2  0  0  0  0
 24 25  1  0  0  0  0
 26 23  1  0  0  0  0
 27 33  1  6  0  0  0
 27 29  1  0  0  0  0
 27 34  1  0  0  0  0
 28 27  1  0  0  0  0
 28 29  1  0  0  0  0
 29 26  1  6  0  0  0
 31 32  1  0  0  0  0
 32 30  2  0  0  0  0
 33 31  2  0  0  0  0
 34 30  1  0  0  0  0
 36 39  1  0  0  0  0
 37 36  2  0  0  0  0
 38 40  1  0  0  0  0
 40 39  2  0  0  0  0
 40 35  1  0  0  0  0
 41 37  1  0  0  0  0
 41 38  2  0  0  0  0
 43 42  1  0  0  0  0
 43 37  1  0  0  0  0
M  END
>  <MODEL>
8

>  <REMARK>
 VINA RESULT:      -7.1      3.371      5.990
  Name = 
  9 active torsions:
  status: ('A' for Active; 'I' for Inactive)
    1  A    between atoms: C_1  and  C_34
    2  A    between atoms: C_1  and  C_35
    3  A    between atoms: C_2  and  C_27
    4  A    between atoms: C_3  and  N_4
    5  A    between atoms: C_3  and  C_12
    6  A    between atoms: N_4  and  C_15
    7  A    between atoms: C_10  and  C_41
    8  A    between atoms: C_19  and  O_37
    9  A    between atoms: C_22  and  C_41
                            x       y       z     vdW  Elec       q    Type
                         _______ _______ _______ _____ _____    ______ ____

>  <TORSDO>
F 9

$$$$
=
 OpenBabel11052416413D

 43 48  0  0  1  0  0  0  0  0999 V2000
  185.6120  176.8780  135.1630 O   0  0  0  0  0  0  0  0  0  0  0  0
  190.1440  175.2740  136.3310 C   0  0  2  0  0  3  0  0  0  0  0  0
  190.2030  176.9830  138.1450 C   0  0  0  0  0  2  0  0  0  0  0  0
  188.0160  176.6750  135.3330 C   0  0  2  0  0  3  0  0  0  0  0  0
  185.5940  176.8350  137.5770 C   0  0  0  0  0  2  0  0  0  0  0  0
  185.2730  177.6160  136.3020 C   0  0  0  0  0  2  0  0  0  0  0  0
  188.0470  176.6680  136.8790 C   0  0  1  0  0  3  0  0  0  0  0  0
  186.8260  177.4280  134.7380 C   0  0  0  0  0  2  0  0  0  0  0  0
  186.8330  175.9420  137.4620 C   0  0  0  0  0  2  0  0  0  0  0  0
  191.5080  176.3710  138.6040 C   0  0  0  0  0  0  0  0  0  0  0  0
  189.3170  175.9850  137.4120 C   0  0  1  0  0  3  0  0  0  0  0  0
  189.2250  174.4180  135.4590 C   0  0  0  0  0  2  0  0  0  0  0  0
  191.2290  174.4410  137.0130 C   0  0  2  0  0  3  0  0  0  0  0  0
  191.9950  175.2610  138.0230 C   0  0  0  0  0  3  0  0  0  0  0  0
  188.1790  175.2730  134.7250 C   0  0  0  0  0  2  0  0  0  0  0  0
  192.3450  177.1100  139.5730 C   0  0  0  0  0  0  0  0  0  0  0  0
  191.7910  177.6580  140.7760 N   0  0  0  0  0  2  0  0  0  0  0  0
  193.5640  177.3090  139.3230 O   0  0  0  0  0  0  0  0  0  0  0  0
  190.7610  177.0300  141.5440 C   0  0  0  0  0  0  0  0  0  0  0  0
  190.5500  175.7920  141.4440 O   0  0  0  0  0  0  0  0  0  0  0  0
  189.9280  177.8470  142.4710 C   0  0  0  0  0  2  0  0  0  0  0  0
  189.3620  176.9940  143.5090 N   0  0  0  0  0  2  0  0  0  0  0  0
  187.9070  177.4600  145.4290 C   0  0  0  0  0  3  0  0  0  0  0  0
  189.1210  177.3640  144.8780 C   0  0  0  0  0  0  0  0  0  0  0  0
  190.2960  177.6240  145.7500 C   0  0  0  0  0  1  0  0  0  0  0  0
  186.6230  177.1700  144.7280 C   0  0  0  0  0  2  0  0  0  0  0  0
  184.6860  178.7970  144.5550 C   0  0  2  0  0  0  0  0  0  0  0  0
  185.7200  179.3530  145.5050 C   0  0  0  0  0  2  0  0  0  0  0  0
  185.4720  177.8500  145.4530 C   0  0  2  0  0  3  0  0  0  0  0  0
  182.2860  178.7530  143.8610 C   0  0  0  0  0  3  0  0  0  0  0  0
  184.0810  178.9000  142.1860 C   0  0  0  0  0  3  0  0  0  0  0  0
  182.6700  178.7020  142.5800 C   0  0  0  0  0  3  0  0  0  0  0  0
  185.0460  178.9640  143.1040 C   0  0  0  0  0  3  0  0  0  0  0  0
  183.2480  179.0930  144.9710 C   0  0  0  0  0  2  0  0  0  0  0  0
  192.1900  173.8600  135.9820 C   0  0  0  0  0  2  0  0  0  0  0  0
  195.6410  173.9480  137.5430 C   0  0  0  0  0  3  0  0  0  0  0  0
  196.2570  174.9710  136.8140 C   0  0  0  0  0  0  0  0  0  0  0  0
  194.2090  175.2770  135.5420 C   0  0  0  0  0  3  0  0  0  0  0  0
  194.3160  173.5900  137.2760 C   0  0  0  0  0  3  0  0  0  0  0  0
  193.5980  174.2560  136.2770 C   0  0  0  0  0  0  0  0  0  0  0  0
  195.5330  175.6350  135.8090 C   0  0  0  0  0  3  0  0  0  0  0  0
  198.4990  174.3840  137.6780 C   0  0  0  0  0  1  0  0  0  0  0  0
  197.5820  175.3060  137.1050 O   0  0  0  0  0  0  0  0  0  0  0  0
  1  6  1  0  0  0  0
  2 12  1  1  0  0  0
  2 13  1  0  0  0  0
  2 11  1  0  0  0  0
  3 10  1  0  0  0  0
  4 15  1  1  0  0  0
  4  7  1  0  0  0  0
  6  5  1  0  0  0  0
  7 11  1  0  0  0  0
  7  9  1  1  0  0  0
  8  1  1  0  0  0  0
  8  4  1  0  0  0  0
  9  5  1  0  0  0  0
 10 16  1  0  0  0  0
 11  3  1  6  0  0  0
 13 35  1  6  0  0  0
 13 14  1  0  0  0  0
 14 10  2  0  0  0  0
 15 12  1  0  0  0  0
 16 17  1  0  0  0  0
 17 19  1  0  0  0  0
 18 16  2  0  0  0  0
 19 21  1  0  0  0  0
 20 19  2  0  0  0  0
 21 22  1  0  0  0  0
 22 24  1  0  0  0  0
 24 23  2  0  0  0  0
 24 25  1  0  0  0  0
 26 23  1  0  0  0  0
 27 33  1  6  0  0  0
 27 34  1  0  0  0  0
 27 29  1  0  0  0  0
 27 28  1  0  0  0  0
 29 26  1  6  0  0  0
 29 28  1  0  0  0  0
 30 34  1  0  0  0  0
 31 32  1  0  0  0  0
 31 33  2  0  0  0  0
 32 30  2  0  0  0  0
 35 40  1  0  0  0  0
 37 43  1  0  0  0  0
 37 36  2  0  0  0  0
 38 41  2  0  0  0  0
 38 40  1  0  0  0  0
 39 36  1  0  0  0  0
 40 39  2  0  0  0  0
 41 37  1  0  0  0  0
 43 42  1  0  0  0  0
M  END
>  <MODEL>
9

>  <REMARK>
 VINA RESULT:      -6.9      3.735      9.656
  Name = 
  9 active torsions:
  status: ('A' for Active; 'I' for Inactive)
    1  A    between atoms: C_1  and  C_34
    2  A    between atoms: C_1  and  C_35
    3  A    between atoms: C_2  and  C_27
    4  A    between atoms: C_3  and  N_4
    5  A    between atoms: C_3  and  C_12
    6  A    between atoms: N_4  and  C_15
    7  A    between atoms: C_10  and  C_41
    8  A    between atoms: C_19  and  O_37
    9  A    between atoms: C_22  and  C_41
                            x       y       z     vdW  Elec       q    Type
                         _______ _______ _______ _____ _____    ______ ____

>  <TORSDO>
F 9

$$$$
