=
 OpenBabel11052413023D

 31 33  0  0  1  0  0  0  0  0999 V2000
  189.7400  176.8380  139.1990 C   0  0  2  0  0  3  0  0  0  0  0  0
  188.2380  177.0140  142.0710 C   0  0  2  0  0  3  0  0  0  0  0  0
  189.2540  175.0930  142.6880 O   0  0  0  0  0  1  0  0  0  0  0  0
  189.4600  176.4290  142.6080 N   0  0  0  0  0  0  0  0  0  0  0  0
  188.6280  178.0860  141.0630 C   0  0  1  0  0  3  0  0  0  0  0  0
  188.8550  179.4530  141.6980 C   0  0  0  0  0  1  0  0  0  0  0  0
  189.9500  177.5890  140.5230 C   0  0  1  0  0  3  0  0  0  0  0  0
  191.7250  177.2290  142.2310 C   0  0  0  0  0  1  0  0  0  0  0  0
  190.4860  176.6360  141.5890 C   0  0  1  0  0  3  0  0  0  0  0  0
  185.1040  178.2530  143.8570 C   0  0  0  0  0  0  0  0  0  0  0  0
  186.8120  177.7750  145.5030 C   0  0  0  0  0  3  0  0  0  0  0  0
  183.4850  178.7870  143.4640 Cl  0  0  0  0  0  0  0  0  0  0  0  0
  185.9810  177.8750  142.8360 C   0  0  0  0  0  3  0  0  0  0  0  0
  187.6910  177.3960  144.4830 C   0  0  0  0  0  3  0  0  0  0  0  0
  187.2830  177.4510  143.1460 C   0  0  0  0  0  0  0  0  0  0  0  0
  185.5200  178.2030  145.1900 C   0  0  0  0  0  3  0  0  0  0  0  0
  190.9920  176.2500  138.5970 C   0  0  0  0  0  0  0  0  0  0  0  0
  193.3840  176.4830  138.2400 C   0  0  0  0  0  3  0  0  0  0  0  0
  192.1810  176.9710  138.7550 C   0  0  0  0  0  3  0  0  0  0  0  0
  189.8410  174.2400  137.7240 N   0  0  0  0  0  1  0  0  0  0  0  0
  193.4080  175.2640  137.5620 C   0  0  0  0  0  0  0  0  0  0  0  0
  194.9150  174.6510  136.9160 Cl  0  0  0  0  0  0  0  0  0  0  0  0
  191.0220  175.0120  137.9140 C   0  0  0  0  0  0  0  0  0  0  0  0
  192.2310  174.5310  137.4000 C   0  0  0  0  0  3  0  0  0  0  0  0
  188.7430  179.6890  137.1160 O   0  0  0  0  0  0  0  0  0  0  0  0
  188.9730  177.6120  138.2160 N   0  0  0  0  0  0  0  0  0  0  0  0
  187.1880  177.6020  136.6850 O   0  0  0  0  0  0  0  0  0  0  0  0
  189.3740  178.9630  137.9300 C   0  0  0  0  0  3  0  0  0  0  0  0
  187.8310  176.9970  137.5830 C   0  0  0  0  0  0  0  0  0  0  0  0
  186.4360  175.1670  137.0520 O   0  0  0  0  0  1  0  0  0  0  0  0
  187.4010  175.6160  137.9540 C   0  0  0  0  0  2  0  0  0  0  0  0
  1 26  1  6  0  0  0
  2  4  1  0  0  0  0
  2 15  1  1  0  0  0
  4  3  1  0  0  0  0
  5  6  1  1  0  0  0
  5  2  1  0  0  0  0
  7  1  1  6  0  0  0
  7  5  1  0  0  0  0
  7  9  1  0  0  0  0
  9  8  1  1  0  0  0
  9  4  1  0  0  0  0
 10 16  1  0  0  0  0
 12 10  1  0  0  0  0
 13 15  1  0  0  0  0
 13 10  2  0  0  0  0
 14 11  1  0  0  0  0
 15 14  2  0  0  0  0
 16 11  2  0  0  0  0
 17 19  1  0  0  0  0
 17  1  1  0  0  0  0
 18 19  2  0  0  0  0
 20 23  1  0  0  0  0
 21 18  1  0  0  0  0
 22 21  1  0  0  0  0
 23 17  2  0  0  0  0
 24 21  2  0  0  0  0
 24 23  1  0  0  0  0
 25 28  2  0  0  0  0
 27 29  2  0  0  0  0
 28 26  1  0  0  0  0
 29 31  1  0  0  0  0
 29 26  1  0  0  0  0
 30 31  1  0  0  0  0
M  END
>  <MODEL>
1

>  <REMARK>
 VINA RESULT:      -6.8      0.000      0.000
  Name = 
  5 active torsions:
  status: ('A' for Active; 'I' for Inactive)
    1  A    between atoms: C_3  and  C_22
    2  A    between atoms: C_4  and  C_5
    3  A    between atoms: C_4  and  N_12
    4  A    between atoms: C_4  and  C_21
    5  A    between atoms: C_27  and  C_28
                            x       y       z     vdW  Elec       q    Type
                         _______ _______ _______ _____ _____    ______ ____

>  <TORSDO>
F 5

$$$$
=
 OpenBabel11052413023D

 31 33  0  0  1  0  0  0  0  0999 V2000
  189.6090  176.8500  139.0770 C   0  0  2  0  0  3  0  0  0  0  0  0
  188.2740  176.9840  142.0330 C   0  0  2  0  0  3  0  0  0  0  0  0
  189.3950  175.1050  142.5930 O   0  0  0  0  0  1  0  0  0  0  0  0
  189.5470  176.4470  142.4970 N   0  0  0  0  0  0  0  0  0  0  0  0
  188.5640  178.0650  141.0010 C   0  0  1  0  0  3  0  0  0  0  0  0
  188.7770  179.4430  141.6170 C   0  0  0  0  0  1  0  0  0  0  0  0
  189.8690  177.6150  140.3840 C   0  0  1  0  0  3  0  0  0  0  0  0
  191.7540  177.3280  141.9840 C   0  0  0  0  0  1  0  0  0  0  0  0
  190.5010  176.6870  141.4190 C   0  0  1  0  0  3  0  0  0  0  0  0
  186.9450  177.7420  145.5260 C   0  0  0  0  0  0  0  0  0  0  0  0
  185.2350  178.2770  143.8990 C   0  0  0  0  0  3  0  0  0  0  0  0
  187.4830  177.6650  147.1890 Cl  0  0  0  0  0  0  0  0  0  0  0  0
  187.7980  177.3350  144.4970 C   0  0  0  0  0  3  0  0  0  0  0  0
  186.0870  177.8700  142.8670 C   0  0  0  0  0  3  0  0  0  0  0  0
  187.3690  177.3910  143.1610 C   0  0  0  0  0  0  0  0  0  0  0  0
  185.6630  178.2130  145.2270 C   0  0  0  0  0  3  0  0  0  0  0  0
  190.8330  176.2350  138.4460 C   0  0  0  0  0  0  0  0  0  0  0  0
  193.2090  176.4440  137.9830 C   0  0  0  0  0  3  0  0  0  0  0  0
  192.0300  176.9560  138.5290 C   0  0  0  0  0  3  0  0  0  0  0  0
  189.6420  174.1980  137.6970 N   0  0  0  0  0  1  0  0  0  0  0  0
  193.2020  175.1990  137.3510 C   0  0  0  0  0  0  0  0  0  0  0  0
  194.6790  174.5570  136.6680 Cl  0  0  0  0  0  0  0  0  0  0  0  0
  190.8310  174.9720  137.8100 C   0  0  0  0  0  0  0  0  0  0  0  0
  192.0170  174.4660  137.2660 C   0  0  0  0  0  3  0  0  0  0  0  0
  188.5800  179.6970  137.0040 O   0  0  0  0  0  0  0  0  0  0  0  0
  188.8250  177.6230  138.1060 N   0  0  0  0  0  0  0  0  0  0  0  0
  187.0110  177.6140  136.6100 O   0  0  0  0  0  0  0  0  0  0  0  0
  189.2250  178.9720  137.8080 C   0  0  0  0  0  3  0  0  0  0  0  0
  187.6690  177.0100  137.4970 C   0  0  0  0  0  0  0  0  0  0  0  0
  186.4030  175.1090  136.8960 O   0  0  0  0  0  1  0  0  0  0  0  0
  187.2420  175.6310  137.8800 C   0  0  0  0  0  2  0  0  0  0  0  0
  1 26  1  6  0  0  0
  2  4  1  0  0  0  0
  2 15  1  1  0  0  0
  4  3  1  0  0  0  0
  5  6  1  1  0  0  0
  5  2  1  0  0  0  0
  7  1  1  6  0  0  0
  7  5  1  0  0  0  0
  7  9  1  0  0  0  0
  9  8  1  1  0  0  0
  9  4  1  0  0  0  0
 10 12  1  0  0  0  0
 11 16  2  0  0  0  0
 13 10  2  0  0  0  0
 14 15  2  0  0  0  0
 14 11  1  0  0  0  0
 15 13  1  0  0  0  0
 16 10  1  0  0  0  0
 17 19  1  0  0  0  0
 17  1  1  0  0  0  0
 18 19  2  0  0  0  0
 20 23  1  0  0  0  0
 21 18  1  0  0  0  0
 22 21  1  0  0  0  0
 23 17  2  0  0  0  0
 24 21  2  0  0  0  0
 24 23  1  0  0  0  0
 25 28  2  0  0  0  0
 27 29  2  0  0  0  0
 28 26  1  0  0  0  0
 29 31  1  0  0  0  0
 29 26  1  0  0  0  0
 30 31  1  0  0  0  0
M  END
>  <MODEL>
2

>  <REMARK>
 VINA RESULT:      -6.8      1.021      1.341
  Name = 
  5 active torsions:
  status: ('A' for Active; 'I' for Inactive)
    1  A    between atoms: C_3  and  C_22
    2  A    between atoms: C_4  and  C_5
    3  A    between atoms: C_4  and  N_12
    4  A    between atoms: C_4  and  C_21
    5  A    between atoms: C_27  and  C_28
                            x       y       z     vdW  Elec       q    Type
                         _______ _______ _______ _____ _____    ______ ____

>  <TORSDO>
F 5

$$$$
=
 OpenBabel11052413023D

 31 33  0  0  1  0  0  0  0  0999 V2000
  189.3880  176.1960  138.7710 C   0  0  2  0  0  3  0  0  0  0  0  0
  188.6720  176.7080  141.8960 C   0  0  2  0  0  3  0  0  0  0  0  0
  190.3020  175.2570  142.4780 O   0  0  0  0  0  1  0  0  0  0  0  0
  190.1030  176.5480  142.1230 N   0  0  0  0  0  0  0  0  0  0  0  0
  188.4820  177.5730  140.6570 C   0  0  1  0  0  3  0  0  0  0  0  0
  188.4730  179.0660  140.9620 C   0  0  0  0  0  1  0  0  0  0  0  0
  189.7090  177.2650  139.8290 C   0  0  1  0  0  3  0  0  0  0  0  0
  191.8850  177.7140  140.9500 C   0  0  0  0  0  1  0  0  0  0  0  0
  190.7390  176.7300  140.8220 C   0  0  1  0  0  3  0  0  0  0  0  0
  187.8820  177.7150  145.4890 C   0  0  0  0  0  0  0  0  0  0  0  0
  185.8910  177.9840  144.1390 C   0  0  0  0  0  3  0  0  0  0  0  0
  188.6920  177.8320  147.0350 Cl  0  0  0  0  0  0  0  0  0  0  0  0
  188.5830  177.2650  144.3670 C   0  0  0  0  0  3  0  0  0  0  0  0
  186.5910  177.5330  143.0150 C   0  0  0  0  0  3  0  0  0  0  0  0
  187.9370  177.1650  143.1240 C   0  0  0  0  0  0  0  0  0  0  0  0
  186.5360  178.0740  145.3750 C   0  0  0  0  0  3  0  0  0  0  0  0
  190.5710  175.7340  137.9570 C   0  0  0  0  0  0  0  0  0  0  0  0
  192.7870  176.2530  137.1070 C   0  0  0  0  0  3  0  0  0  0  0  0
  191.6500  176.6170  137.8310 C   0  0  0  0  0  3  0  0  0  0  0  0
  189.5780  173.5260  137.4420 N   0  0  0  0  0  1  0  0  0  0  0  0
  192.8560  174.9980  136.5020 C   0  0  0  0  0  0  0  0  0  0  0  0
  194.2810  174.5420  135.5940 Cl  0  0  0  0  0  0  0  0  0  0  0  0
  190.6470  174.4610  137.3470 C   0  0  0  0  0  0  0  0  0  0  0  0
  191.7900  174.1040  136.6220 C   0  0  0  0  0  3  0  0  0  0  0  0
  186.1680  175.8520  137.0470 O   0  0  0  0  0  0  0  0  0  0  0  0
  188.2470  176.5540  137.9210 N   0  0  0  0  0  0  0  0  0  0  0  0
  187.2680  178.2000  136.5560 O   0  0  0  0  0  0  0  0  0  0  0  0
  187.1640  175.6170  137.7820 C   0  0  0  0  0  3  0  0  0  0  0  0
  188.2570  177.8260  137.2400 C   0  0  0  0  0  0  0  0  0  0  0  0
  188.9820  180.0450  137.5960 O   0  0  0  0  0  1  0  0  0  0  0  0
  189.4280  178.7470  137.3520 C   0  0  0  0  0  2  0  0  0  0  0  0
  1 26  1  6  0  0  0
  2  4  1  0  0  0  0
  2 15  1  1  0  0  0
  4  3  1  0  0  0  0
  5  6  1  1  0  0  0
  5  2  1  0  0  0  0
  7  1  1  6  0  0  0
  7  5  1  0  0  0  0
  7  9  1  0  0  0  0
  9  8  1  1  0  0  0
  9  4  1  0  0  0  0
 10 12  1  0  0  0  0
 11 16  2  0  0  0  0
 13 10  2  0  0  0  0
 14 15  2  0  0  0  0
 14 11  1  0  0  0  0
 15 13  1  0  0  0  0
 16 10  1  0  0  0  0
 17  1  1  0  0  0  0
 18 19  2  0  0  0  0
 19 17  1  0  0  0  0
 21 24  2  0  0  0  0
 21 18  1  0  0  0  0
 22 21  1  0  0  0  0
 23 20  1  0  0  0  0
 23 17  2  0  0  0  0
 24 23  1  0  0  0  0
 25 28  2  0  0  0  0
 27 29  2  0  0  0  0
 28 26  1  0  0  0  0
 29 31  1  0  0  0  0
 29 26  1  0  0  0  0
 31 30  1  0  0  0  0
M  END
>  <MODEL>
3

>  <REMARK>
 VINA RESULT:      -6.5      1.462      2.351
  Name = 
  5 active torsions:
  status: ('A' for Active; 'I' for Inactive)
    1  A    between atoms: C_3  and  C_22
    2  A    between atoms: C_4  and  C_5
    3  A    between atoms: C_4  and  N_12
    4  A    between atoms: C_4  and  C_21
    5  A    between atoms: C_27  and  C_28
                            x       y       z     vdW  Elec       q    Type
                         _______ _______ _______ _____ _____    ______ ____

>  <TORSDO>
F 5

$$$$
=
 OpenBabel11052413023D

 31 33  0  0  1  0  0  0  0  0999 V2000
  190.2850  176.6990  144.6620 C   0  0  2  0  0  3  0  0  0  0  0  0
  189.7320  177.5040  141.5660 C   0  0  2  0  0  3  0  0  0  0  0  0
  188.0700  178.8710  142.2480 O   0  0  0  0  0  1  0  0  0  0  0  0
  189.4140  178.8240  142.0940 N   0  0  0  0  0  0  0  0  0  0  0  0
  190.9810  176.9980  142.2750 C   0  0  1  0  0  3  0  0  0  0  0  0
  192.2750  177.4410  141.6020 C   0  0  0  0  0  1  0  0  0  0  0  0
  190.9010  177.6590  143.6320 C   0  0  1  0  0  3  0  0  0  0  0  0
  190.7970  180.1460  143.5940 C   0  0  0  0  0  1  0  0  0  0  0  0
  189.9920  178.8710  143.4340 C   0  0  1  0  0  3  0  0  0  0  0  0
  190.3470  176.3730  137.9760 C   0  0  0  0  0  0  0  0  0  0  0  0
  189.2490  178.5300  137.9460 C   0  0  0  0  0  3  0  0  0  0  0  0
  191.0390  175.0130  137.1200 Cl  0  0  0  0  0  0  0  0  0  0  0  0
  190.3340  176.3850  139.3730 C   0  0  0  0  0  3  0  0  0  0  0  0
  189.2350  178.5440  139.3450 C   0  0  0  0  0  3  0  0  0  0  0  0
  189.7830  177.4760  140.0640 C   0  0  0  0  0  0  0  0  0  0  0  0
  189.8050  177.4460  137.2620 C   0  0  0  0  0  3  0  0  0  0  0  0
  188.9180  177.0940  145.1610 C   0  0  0  0  0  0  0  0  0  0  0  0
  187.6290  178.2880  146.8400 C   0  0  0  0  0  3  0  0  0  0  0  0
  188.8580  177.8690  146.3250 C   0  0  0  0  0  3  0  0  0  0  0  0
  187.7200  175.9580  143.3160 N   0  0  0  0  0  1  0  0  0  0  0  0
  186.4450  177.9370  146.1900 C   0  0  0  0  0  0  0  0  0  0  0  0
  184.9050  178.4620  146.8340 Cl  0  0  0  0  0  0  0  0  0  0  0  0
  187.7160  176.7460  144.5020 C   0  0  0  0  0  0  0  0  0  0  0  0
  186.4890  177.1690  145.0240 C   0  0  0  0  0  3  0  0  0  0  0  0
  191.9970  177.0340  147.8890 O   0  0  0  0  0  0  0  0  0  0  0  0
  191.1980  176.3790  145.7660 N   0  0  0  0  0  0  0  0  0  0  0  0
  192.8040  174.8780  146.6000 O   0  0  0  0  0  0  0  0  0  0  0  0
  191.2190  177.2380  146.9200 C   0  0  0  0  0  3  0  0  0  0  0  0
  192.0560  175.2260  145.6480 C   0  0  0  0  0  0  0  0  0  0  0  0
  192.4300  173.0870  144.7190 O   0  0  0  0  0  1  0  0  0  0  0  0
  192.0580  174.3950  144.4070 C   0  0  0  0  0  2  0  0  0  0  0  0
  1 17  1  0  0  0  0
  1 26  1  1  0  0  0
  2 15  1  6  0  0  0
  2  4  1  0  0  0  0
  2  5  1  0  0  0  0
  4  3  1  0  0  0  0
  4  9  1  0  0  0  0
  5  6  1  6  0  0  0
  5  7  1  0  0  0  0
  7  1  1  1  0  0  0
  9  8  1  6  0  0  0
  9  7  1  0  0  0  0
 10 13  1  0  0  0  0
 11 14  2  0  0  0  0
 12 10  1  0  0  0  0
 13 15  2  0  0  0  0
 14 15  1  0  0  0  0
 16 11  1  0  0  0  0
 16 10  2  0  0  0  0
 17 19  1  0  0  0  0
 19 18  2  0  0  0  0
 20 23  1  0  0  0  0
 21 22  1  0  0  0  0
 21 18  1  0  0  0  0
 23 24  1  0  0  0  0
 23 17  2  0  0  0  0
 24 21  2  0  0  0  0
 26 28  1  0  0  0  0
 28 25  2  0  0  0  0
 29 26  1  0  0  0  0
 29 27  2  0  0  0  0
 31 30  1  0  0  0  0
 31 29  1  0  0  0  0
M  END
>  <MODEL>
4

>  <REMARK>
 VINA RESULT:      -5.5      3.022      7.925
  Name = 
  5 active torsions:
  status: ('A' for Active; 'I' for Inactive)
    1  A    between atoms: C_3  and  C_22
    2  A    between atoms: C_4  and  C_5
    3  A    between atoms: C_4  and  N_12
    4  A    between atoms: C_4  and  C_21
    5  A    between atoms: C_27  and  C_28
                            x       y       z     vdW  Elec       q    Type
                         _______ _______ _______ _____ _____    ______ ____

>  <TORSDO>
F 5

$$$$
=
 OpenBabel11052413023D

 31 33  0  0  1  0  0  0  0  0999 V2000
  183.7750  176.6000  138.4130 C   0  0  2  0  0  3  0  0  0  0  0  0
  184.5380  178.0060  141.2370 C   0  0  2  0  0  3  0  0  0  0  0  0
  186.2740  179.0350  140.2230 O   0  0  0  0  0  1  0  0  0  0  0  0
  184.9390  179.1450  140.4210 N   0  0  0  0  0  0  0  0  0  0  0  0
  183.2200  177.4740  140.6930 C   0  0  1  0  0  3  0  0  0  0  0  0
  182.0010  178.1690  141.2870 C   0  0  0  0  0  1  0  0  0  0  0  0
  183.2900  177.8130  139.2220 C   0  0  1  0  0  3  0  0  0  0  0  0
  183.6000  180.2290  138.7060 C   0  0  0  0  0  1  0  0  0  0  0  0
  184.3040  178.9510  139.1210 C   0  0  1  0  0  3  0  0  0  0  0  0
  185.6620  178.2910  144.8710 C   0  0  0  0  0  0  0  0  0  0  0  0
  183.4710  179.2930  144.6420 C   0  0  0  0  0  3  0  0  0  0  0  0
  187.0380  177.8650  145.8650 Cl  0  0  0  0  0  0  0  0  0  0  0  0
  185.6600  177.9750  143.5090 C   0  0  0  0  0  3  0  0  0  0  0  0
  183.4670  178.9770  143.2800 C   0  0  0  0  0  3  0  0  0  0  0  0
  184.5570  178.3110  142.7090 C   0  0  0  0  0  0  0  0  0  0  0  0
  184.5670  178.9500  145.4380 C   0  0  0  0  0  3  0  0  0  0  0  0
  184.8740  176.8940  137.4230 C   0  0  0  0  0  0  0  0  0  0  0  0
  187.2640  176.9570  136.9920 C   0  0  0  0  0  3  0  0  0  0  0  0
  186.1930  176.7210  137.8560 C   0  0  0  0  0  3  0  0  0  0  0  0
  183.3120  177.4970  135.5990 N   0  0  0  0  0  1  0  0  0  0  0  0
  187.0230  177.3680  135.6800 C   0  0  0  0  0  0  0  0  0  0  0  0
  188.3650  177.6640  134.5960 Cl  0  0  0  0  0  0  0  0  0  0  0  0
  184.6340  177.3040  136.0910 C   0  0  0  0  0  0  0  0  0  0  0  0
  185.7120  177.5400  135.2310 C   0  0  0  0  0  3  0  0  0  0  0  0
  180.4100  175.8820  137.1390 O   0  0  0  0  0  0  0  0  0  0  0  0
  182.6770  175.8430  137.8000 N   0  0  0  0  0  0  0  0  0  0  0  0
  182.0150  173.8140  136.8130 O   0  0  0  0  0  0  0  0  0  0  0  0
  181.4000  176.4840  137.6340 C   0  0  0  0  0  3  0  0  0  0  0  0
  182.9090  174.4760  137.4030 C   0  0  0  0  0  0  0  0  0  0  0  0
  184.8590  173.5560  136.4380 O   0  0  0  0  0  1  0  0  0  0  0  0
  184.2270  173.8190  137.6540 C   0  0  0  0  0  2  0  0  0  0  0  0
  1 26  1  6  0  0  0
  2 15  1  1  0  0  0
  3  4  1  0  0  0  0
  4  2  1  0  0  0  0
  5  2  1  0  0  0  0
  5  6  1  1  0  0  0
  7  1  1  6  0  0  0
  7  5  1  0  0  0  0
  9  8  1  1  0  0  0
  9  7  1  0  0  0  0
  9  4  1  0  0  0  0
 10 16  1  0  0  0  0
 10 12  1  0  0  0  0
 11 16  2  0  0  0  0
 13 10  2  0  0  0  0
 14 11  1  0  0  0  0
 15 14  2  0  0  0  0
 15 13  1  0  0  0  0
 17 19  1  0  0  0  0
 17  1  1  0  0  0  0
 18 19  2  0  0  0  0
 20 23  1  0  0  0  0
 21 18  1  0  0  0  0
 22 21  1  0  0  0  0
 23 17  2  0  0  0  0
 24 21  2  0  0  0  0
 24 23  1  0  0  0  0
 25 28  2  0  0  0  0
 27 29  2  0  0  0  0
 28 26  1  0  0  0  0
 29 31  1  0  0  0  0
 29 26  1  0  0  0  0
 30 31  1  0  0  0  0
M  END
>  <MODEL>
5

>  <REMARK>
 VINA RESULT:      -5.3      4.366      5.999
  Name = 
  5 active torsions:
  status: ('A' for Active; 'I' for Inactive)
    1  A    between atoms: C_3  and  C_22
    2  A    between atoms: C_4  and  C_5
    3  A    between atoms: C_4  and  N_12
    4  A    between atoms: C_4  and  C_21
    5  A    between atoms: C_27  and  C_28
                            x       y       z     vdW  Elec       q    Type
                         _______ _______ _______ _____ _____    ______ ____

>  <TORSDO>
F 5

$$$$
=
 OpenBabel11052413023D

 31 33  0  0  1  0  0  0  0  0999 V2000
  187.7980  176.1460  137.6380 C   0  0  2  0  0  3  0  0  0  0  0  0
  189.1360  177.0850  140.4420 C   0  0  2  0  0  3  0  0  0  0  0  0
  191.1590  177.1010  139.4390 O   0  0  0  0  0  1  0  0  0  0  0  0
  190.0480  177.8560  139.6080 N   0  0  0  0  0  0  0  0  0  0  0  0
  187.7290  177.2490  139.8850 C   0  0  1  0  0  3  0  0  0  0  0  0
  187.0030  178.4690  140.4380 C   0  0  0  0  0  1  0  0  0  0  0  0
  187.9650  177.4660  138.4070 C   0  0  1  0  0  3  0  0  0  0  0  0
  189.4210  179.4040  137.8400 C   0  0  0  0  0  1  0  0  0  0  0  0
  189.4070  177.9590  138.3000 C   0  0  1  0  0  3  0  0  0  0  0  0
  190.3430  178.6030  143.7260 C   0  0  0  0  0  0  0  0  0  0  0  0
  188.5660  177.0270  144.1930 C   0  0  0  0  0  3  0  0  0  0  0  0
  191.5220  179.7670  144.2880 Cl  0  0  0  0  0  0  0  0  0  0  0  0
  190.2340  178.3230  142.3610 C   0  0  0  0  0  3  0  0  0  0  0  0
  188.4560  176.7460  142.8270 C   0  0  0  0  0  3  0  0  0  0  0  0
  189.2930  177.3860  141.9060 C   0  0  0  0  0  0  0  0  0  0  0  0
  189.5100  177.9550  144.6420 C   0  0  0  0  0  3  0  0  0  0  0  0
  189.0050  175.7180  136.8410 C   0  0  0  0  0  0  0  0  0  0  0  0
  190.9310  174.2430  136.6960 C   0  0  0  0  0  3  0  0  0  0  0  0
  189.8050  174.7050  137.3820 C   0  0  0  0  0  3  0  0  0  0  0  0
  188.5660  177.3000  134.9890 N   0  0  0  0  0  1  0  0  0  0  0  0
  191.2650  174.7910  135.4560 C   0  0  0  0  0  0  0  0  0  0  0  0
  192.6750  174.2130  134.5960 Cl  0  0  0  0  0  0  0  0  0  0  0  0
  189.3440  176.2660  135.5830 C   0  0  0  0  0  0  0  0  0  0  0  0
  190.4730  175.7990  134.9020 C   0  0  0  0  0  3  0  0  0  0  0  0
  184.9760  177.3660  135.6360 O   0  0  0  0  0  0  0  0  0  0  0  0
  186.5710  176.1020  136.8340 N   0  0  0  0  0  0  0  0  0  0  0  0
  184.9140  174.7390  135.8710 O   0  0  0  0  0  0  0  0  0  0  0  0
  186.0390  177.3320  136.3110 C   0  0  0  0  0  3  0  0  0  0  0  0
  185.9290  174.8290  136.6110 C   0  0  0  0  0  0  0  0  0  0  0  0
  185.5020  173.0040  138.0470 O   0  0  0  0  0  1  0  0  0  0  0  0
  186.4710  173.5800  137.2260 C   0  0  0  0  0  2  0  0  0  0  0  0
  1 26  1  6  0  0  0
  2 15  1  1  0  0  0
  3  4  1  0  0  0  0
  4  2  1  0  0  0  0
  5  6  1  1  0  0  0
  5  2  1  0  0  0  0
  7  1  1  6  0  0  0
  7  5  1  0  0  0  0
  9  8  1  1  0  0  0
  9  7  1  0  0  0  0
  9  4  1  0  0  0  0
 10 12  1  0  0  0  0
 10 16  1  0  0  0  0
 11 16  2  0  0  0  0
 13 10  2  0  0  0  0
 14 11  1  0  0  0  0
 15 13  1  0  0  0  0
 15 14  2  0  0  0  0
 17 19  1  0  0  0  0
 17  1  1  0  0  0  0
 18 19  2  0  0  0  0
 20 23  1  0  0  0  0
 21 18  1  0  0  0  0
 22 21  1  0  0  0  0
 23 17  2  0  0  0  0
 24 21  2  0  0  0  0
 24 23  1  0  0  0  0
 25 28  2  0  0  0  0
 27 29  2  0  0  0  0
 28 26  1  0  0  0  0
 29 26  1  0  0  0  0
 29 31  1  0  0  0  0
 31 30  1  0  0  0  0
M  END
>  <MODEL>
6

>  <REMARK>
 VINA RESULT:      -5.3      2.832      3.678
  Name = 
  5 active torsions:
  status: ('A' for Active; 'I' for Inactive)
    1  A    between atoms: C_3  and  C_22
    2  A    between atoms: C_4  and  C_5
    3  A    between atoms: C_4  and  N_12
    4  A    between atoms: C_4  and  C_21
    5  A    between atoms: C_27  and  C_28
                            x       y       z     vdW  Elec       q    Type
                         _______ _______ _______ _____ _____    ______ ____

>  <TORSDO>
F 5

$$$$
=
 OpenBabel11052413023D

 31 33  0  0  1  0  0  0  0  0999 V2000
  183.2080  176.7100  137.3110 C   0  0  2  0  0  3  0  0  0  0  0  0
  186.3900  176.0740  137.2540 C   0  0  2  0  0  3  0  0  0  0  0  0
  185.9290  173.8840  137.5570 O   0  0  0  0  0  1  0  0  0  0  0  0
  186.0060  174.8330  136.5940 N   0  0  0  0  0  0  0  0  0  0  0  0
  185.5710  177.2060  136.6490 C   0  0  1  0  0  3  0  0  0  0  0  0
  186.2120  177.8140  135.4070 C   0  0  0  0  0  1  0  0  0  0  0  0
  184.2880  176.5220  136.2350 C   0  0  1  0  0  3  0  0  0  0  0  0
  184.5640  174.6250  134.6470 C   0  0  0  0  0  1  0  0  0  0  0  0
  184.6470  175.0440  136.1030 C   0  0  1  0  0  3  0  0  0  0  0  0
  190.1020  175.8190  136.4130 C   0  0  0  0  0  0  0  0  0  0  0  0
  189.8010  177.4640  138.1640 C   0  0  0  0  0  3  0  0  0  0  0  0
  191.1520  174.9390  135.3260 Cl  0  0  0  0  0  0  0  0  0  0  0  0
  188.7240  175.5860  136.3950 C   0  0  0  0  0  3  0  0  0  0  0  0
  188.4220  177.2300  138.1480 C   0  0  0  0  0  3  0  0  0  0  0  0
  187.8780  176.2870  137.2690 C   0  0  0  0  0  0  0  0  0  0  0  0
  190.6410  176.7580  137.2980 C   0  0  0  0  0  3  0  0  0  0  0  0
  182.1300  175.6550  137.3200 C   0  0  0  0  0  0  0  0  0  0  0  0
  180.7460  174.1460  136.0130 C   0  0  0  0  0  3  0  0  0  0  0  0
  181.7260  175.1370  136.0840 C   0  0  0  0  0  3  0  0  0  0  0  0
  181.9110  175.6480  139.7860 N   0  0  0  0  0  1  0  0  0  0  0  0
  180.1600  173.6590  137.1830 C   0  0  0  0  0  0  0  0  0  0  0  0
  178.9310  172.4160  137.0950 Cl  0  0  0  0  0  0  0  0  0  0  0  0
  181.5390  175.1550  138.5040 C   0  0  0  0  0  0  0  0  0  0  0  0
  180.5560  174.1620  138.4240 C   0  0  0  0  0  3  0  0  0  0  0  0
  181.2540  179.6150  136.2150 O   0  0  0  0  0  0  0  0  0  0  0  0
  182.6450  178.0650  137.3280 N   0  0  0  0  0  0  0  0  0  0  0  0
  182.5080  180.1100  138.4830 O   0  0  0  0  0  0  0  0  0  0  0  0
  181.7510  178.4590  136.2720 C   0  0  0  0  0  3  0  0  0  0  0  0
  183.0210  178.9630  138.3930 C   0  0  0  0  0  0  0  0  0  0  0  0
  184.8200  179.6250  139.7720 O   0  0  0  0  0  1  0  0  0  0  0  0
  184.0050  178.5450  139.4360 C   0  0  0  0  0  2  0  0  0  0  0  0
  1 17  1  0  0  0  0
  1 26  1  6  0  0  0
  2 15  1  6  0  0  0
  4  2  1  0  0  0  0
  4  3  1  0  0  0  0
  5  6  1  6  0  0  0
  5  2  1  0  0  0  0
  7  5  1  0  0  0  0
  7  1  1  1  0  0  0
  9  8  1  6  0  0  0
  9  7  1  0  0  0  0
  9  4  1  0  0  0  0
 10 16  1  0  0  0  0
 12 10  1  0  0  0  0
 13 10  2  0  0  0  0
 13 15  1  0  0  0  0
 14 11  1  0  0  0  0
 15 14  2  0  0  0  0
 16 11  2  0  0  0  0
 17 23  1  0  0  0  0
 18 19  1  0  0  0  0
 18 21  2  0  0  0  0
 19 17  2  0  0  0  0
 21 24  1  0  0  0  0
 22 21  1  0  0  0  0
 23 20  1  0  0  0  0
 24 23  2  0  0  0  0
 25 28  2  0  0  0  0
 26 29  1  0  0  0  0
 28 26  1  0  0  0  0
 29 27  2  0  0  0  0
 29 31  1  0  0  0  0
 31 30  1  0  0  0  0
M  END
>  <MODEL>
7

>  <REMARK>
 VINA RESULT:      -4.7      4.941      8.731
  Name = 
  5 active torsions:
  status: ('A' for Active; 'I' for Inactive)
    1  A    between atoms: C_3  and  C_22
    2  A    between atoms: C_4  and  C_5
    3  A    between atoms: C_4  and  N_12
    4  A    between atoms: C_4  and  C_21
    5  A    between atoms: C_27  and  C_28
                            x       y       z     vdW  Elec       q    Type
                         _______ _______ _______ _____ _____    ______ ____

>  <TORSDO>
F 5

$$$$
=
 OpenBabel11052413023D

 31 33  0  0  1  0  0  0  0  0999 V2000
  187.5910  176.6390  137.2320 C   0  0  2  0  0  3  0  0  0  0  0  0
  190.0580  174.5470  136.9570 C   0  0  2  0  0  3  0  0  0  0  0  0
  188.6760  172.8770  137.5870 O   0  0  0  0  0  1  0  0  0  0  0  0
  189.0450  173.6020  136.5050 N   0  0  0  0  0  0  0  0  0  0  0  0
  189.7860  175.8880  136.2890 C   0  0  1  0  0  3  0  0  0  0  0  0
  190.4480  176.0250  134.9230 C   0  0  0  0  0  1  0  0  0  0  0  0
  188.2870  175.8790  136.0920 C   0  0  1  0  0  3  0  0  0  0  0  0
  187.4070  173.9770  134.7480 C   0  0  0  0  0  1  0  0  0  0  0  0
  187.8880  174.4050  136.1210 C   0  0  1  0  0  3  0  0  0  0  0  0
  193.7970  173.9770  137.4460 C   0  0  0  0  0  0  0  0  0  0  0  0
  192.9880  172.4700  135.7340 C   0  0  0  0  0  3  0  0  0  0  0  0
  195.1080  174.5890  138.4300 Cl  0  0  0  0  0  0  0  0  0  0  0  0
  192.5110  174.5030  137.5930 C   0  0  0  0  0  3  0  0  0  0  0  0
  191.6990  172.9960  135.8790 C   0  0  0  0  0  3  0  0  0  0  0  0
  191.4560  174.0180  136.8030 C   0  0  0  0  0  0  0  0  0  0  0  0
  194.0360  172.9610  136.5170 C   0  0  0  0  0  3  0  0  0  0  0  0
  186.1470  176.9890  136.9730 C   0  0  0  0  0  0  0  0  0  0  0  0
  184.2870  176.9360  135.4110 C   0  0  0  0  0  3  0  0  0  0  0  0
  185.6200  176.6590  135.7190 C   0  0  0  0  0  3  0  0  0  0  0  0
  185.7940  177.9590  139.2230 N   0  0  0  0  0  1  0  0  0  0  0  0
  183.4640  177.5460  136.3590 C   0  0  0  0  0  0  0  0  0  0  0  0
  181.7930  177.8940  135.9740 Cl  0  0  0  0  0  0  0  0  0  0  0  0
  185.3090  177.6010  137.9330 C   0  0  0  0  0  0  0  0  0  0  0  0
  183.9740  177.8760  137.6170 C   0  0  0  0  0  3  0  0  0  0  0  0
  189.0560  180.0020  137.2180 O   0  0  0  0  0  0  0  0  0  0  0  0
  188.3580  177.7980  137.7010 N   0  0  0  0  0  0  0  0  0  0  0  0
  189.6770  178.7000  139.4270 O   0  0  0  0  0  0  0  0  0  0  0  0
  188.3950  178.9830  136.8850 C   0  0  0  0  0  3  0  0  0  0  0  0
  189.0640  177.7050  138.9560 C   0  0  0  0  0  0  0  0  0  0  0  0
  190.3670  176.1020  140.1010 O   0  0  0  0  0  1  0  0  0  0  0  0
  189.0600  176.4370  139.7460 C   0  0  0  0  0  2  0  0  0  0  0  0
  1 26  1  6  0  0  0
  2 15  1  6  0  0  0
  4  2  1  0  0  0  0
  4  3  1  0  0  0  0
  5  6  1  6  0  0  0
  5  2  1  0  0  0  0
  7  9  1  0  0  0  0
  7  5  1  0  0  0  0
  7  1  1  1  0  0  0
  9  8  1  6  0  0  0
  9  4  1  0  0  0  0
 10 13  1  0  0  0  0
 10 12  1  0  0  0  0
 11 14  2  0  0  0  0
 11 16  1  0  0  0  0
 14 15  1  0  0  0  0
 15 13  2  0  0  0  0
 16 10  2  0  0  0  0
 17  1  1  0  0  0  0
 17 23  1  0  0  0  0
 18 19  1  0  0  0  0
 18 21  2  0  0  0  0
 19 17  2  0  0  0  0
 21 24  1  0  0  0  0
 22 21  1  0  0  0  0
 23 20  1  0  0  0  0
 24 23  2  0  0  0  0
 26 29  1  0  0  0  0
 28 25  2  0  0  0  0
 28 26  1  0  0  0  0
 29 27  2  0  0  0  0
 29 31  1  0  0  0  0
 31 30  1  0  0  0  0
M  END
>  <MODEL>
8

>  <REMARK>
 VINA RESULT:      -4.5      3.476      7.904
  Name = 
  5 active torsions:
  status: ('A' for Active; 'I' for Inactive)
    1  A    between atoms: C_3  and  C_22
    2  A    between atoms: C_4  and  C_5
    3  A    between atoms: C_4  and  N_12
    4  A    between atoms: C_4  and  C_21
    5  A    between atoms: C_27  and  C_28
                            x       y       z     vdW  Elec       q    Type
                         _______ _______ _______ _____ _____    ______ ____

>  <TORSDO>
F 5

$$$$
=
 OpenBabel11052413023D

 31 33  0  0  1  0  0  0  0  0999 V2000
  182.5470  176.2630  137.2400 C   0  0  2  0  0  3  0  0  0  0  0  0
  181.4270  178.5190  139.2870 C   0  0  2  0  0  3  0  0  0  0  0  0
  183.0570  179.9190  138.5920 O   0  0  0  0  0  1  0  0  0  0  0  0
  181.8230  179.4730  138.2590 N   0  0  0  0  0  0  0  0  0  0  0  0
  180.7450  177.3420  138.6040 C   0  0  1  0  0  3  0  0  0  0  0  0
  179.2500  177.5500  138.3980 C   0  0  0  0  0  1  0  0  0  0  0  0
  181.4100  177.2970  137.2470 C   0  0  1  0  0  3  0  0  0  0  0  0
  181.2210  179.3850  135.9050 C   0  0  0  0  0  1  0  0  0  0  0  0
  181.9730  178.7000  137.0300 C   0  0  1  0  0  3  0  0  0  0  0  0
  179.8780  179.1980  142.7060 C   0  0  0  0  0  0  0  0  0  0  0  0
  179.3050  181.0110  141.2070 C   0  0  0  0  0  3  0  0  0  0  0  0
  179.7960  178.4580  144.2890 Cl  0  0  0  0  0  0  0  0  0  0  0  0
  180.5860  178.5710  141.6780 C   0  0  0  0  0  3  0  0  0  0  0  0
  180.0140  180.3840  140.1760 C   0  0  0  0  0  3  0  0  0  0  0  0
  180.6510  179.1590  140.4040 C   0  0  0  0  0  0  0  0  0  0  0  0
  179.2370  180.4180  142.4710 C   0  0  0  0  0  3  0  0  0  0  0  0
  183.8440  176.7490  136.6420 C   0  0  0  0  0  0  0  0  0  0  0  0
  185.1370  177.1310  134.6210 C   0  0  0  0  0  3  0  0  0  0  0  0
  183.9730  176.6840  135.2490 C   0  0  0  0  0  3  0  0  0  0  0  0
  184.8260  177.3690  138.8270 N   0  0  0  0  0  1  0  0  0  0  0  0
  186.1850  177.6510  135.3820 C   0  0  0  0  0  0  0  0  0  0  0  0
  187.6440  178.2110  134.5940 Cl  0  0  0  0  0  0  0  0  0  0  0  0
  184.9050  177.2820  137.4090 C   0  0  0  0  0  0  0  0  0  0  0  0
  186.0680  177.7270  136.7710 C   0  0  0  0  0  3  0  0  0  0  0  0
  180.5760  173.8270  135.3330 O   0  0  0  0  0  0  0  0  0  0  0  0
  182.1410  174.9670  136.6840 N   0  0  0  0  0  0  0  0  0  0  0  0
  182.6250  172.6710  136.5270 O   0  0  0  0  0  0  0  0  0  0  0  0
  180.9910  174.9110  135.8220 C   0  0  0  0  0  3  0  0  0  0  0  0
  182.8980  173.7900  137.0360 C   0  0  0  0  0  0  0  0  0  0  0  0
  184.8860  172.7750  137.8070 O   0  0  0  0  0  1  0  0  0  0  0  0
  184.0450  173.8730  137.9890 C   0  0  0  0  0  2  0  0  0  0  0  0
  1 26  1  6  0  0  0
  2 15  1  1  0  0  0
  4  3  1  0  0  0  0
  4  2  1  0  0  0  0
  5  6  1  6  0  0  0
  5  2  1  0  0  0  0
  7  1  1  1  0  0  0
  7  5  1  0  0  0  0
  9  8  1  6  0  0  0
  9  7  1  0  0  0  0
  9  4  1  0  0  0  0
 10 12  1  0  0  0  0
 11 16  2  0  0  0  0
 13 10  2  0  0  0  0
 14 15  2  0  0  0  0
 14 11  1  0  0  0  0
 15 13  1  0  0  0  0
 16 10  1  0  0  0  0
 17  1  1  0  0  0  0
 17 23  1  0  0  0  0
 18 19  1  0  0  0  0
 18 21  2  0  0  0  0
 19 17  2  0  0  0  0
 21 24  1  0  0  0  0
 22 21  1  0  0  0  0
 23 20  1  0  0  0  0
 24 23  2  0  0  0  0
 25 28  2  0  0  0  0
 26 29  1  0  0  0  0
 27 29  2  0  0  0  0
 28 26  1  0  0  0  0
 29 31  1  0  0  0  0
 30 31  1  0  0  0  0
M  END
>  <MODEL>
9

>  <REMARK>
 VINA RESULT:      -4.4      5.908      7.980
  Name = 
  5 active torsions:
  status: ('A' for Active; 'I' for Inactive)
    1  A    between atoms: C_3  and  C_22
    2  A    between atoms: C_4  and  C_5
    3  A    between atoms: C_4  and  N_12
    4  A    between atoms: C_4  and  C_21
    5  A    between atoms: C_27  and  C_28
                            x       y       z     vdW  Elec       q    Type
                         _______ _______ _______ _____ _____    ______ ____

>  <TORSDO>
F 5

$$$$
