=
 OpenBabel11052414103D

 34 39  0  0  1  0  0  0  0  0999 V2000
  188.4410  178.0770  139.6450 C   0  0  0  0  0  0  0  0  0  0  0  0
  189.1470  177.8900  142.0920 C   0  0  1  0  0  3  0  0  0  0  0  0
  187.9970  178.3080  145.3860 C   0  0  0  0  0  2  0  0  0  0  0  0
  186.7750  178.3530  141.3610 C   0  0  0  0  0  0  0  0  0  0  0  0
  185.0220  178.5230  143.1040 C   0  0  0  0  0  0  0  0  0  0  0  0
  190.7040  177.1890  140.2450 C   0  0  0  0  0  2  0  0  0  0  0  0
  190.5840  177.9400  141.5650 C   0  0  0  0  0  2  0  0  0  0  0  0
  185.1050  178.7130  146.9560 S   0  0  0  0  0  0  0  0  0  0  0  0
  189.0910  176.0230  147.5700 C   0  0  0  0  0  1  0  0  0  0  0  0
  189.1070  177.3790  145.5460 N   0  0  0  0  0  0  0  0  0  0  0  0
  189.6900  177.2350  146.8810 C   0  0  2  0  0  3  0  0  0  0  0  0
  188.1120  178.1340  141.0120 C   0  0  0  0  0  0  0  0  0  0  0  0
  186.7720  177.6040  145.2620 O   0  0  0  0  0  0  0  0  0  0  0  0
  184.6620  178.5060  144.3530 N   0  0  0  0  0  0  0  0  0  0  0  0
  189.8580  177.8870  139.1880 C   0  0  0  0  0  2  0  0  0  0  0  0
  191.7610  176.6350  145.6810 C   0  0  0  0  0  3  0  0  0  0  0  0
  185.8040  178.5290  140.3630 C   0  0  0  0  0  0  0  0  0  0  0  0
  190.9830  176.3760  144.5040 N   0  0  0  0  0  0  0  0  0  0  0  0
  187.4700  178.2810  138.7170 N   0  0  0  0  0  0  0  0  0  0  0  0
  188.8160  176.3040  142.9360 S   0  0  0  0  0  0  0  0  0  0  0  0
  184.0260  178.7440  142.0480 C   0  0  0  0  0  3  0  0  0  0  0  0
  184.3670  178.7490  140.7450 C   0  0  0  0  0  0  0  0  0  0  0  0
  185.5530  178.2600  145.4520 C   0  0  0  0  0  0  0  0  0  0  0  0
  186.3880  178.3640  142.7320 N   0  0  0  0  0  2  0  0  0  0  0  0
  186.2000  178.4970  139.0620 N   0  0  0  0  0  0  0  0  0  0  0  0
  189.7350  176.7280  144.4220 C   0  0  0  0  0  0  0  0  0  0  0  0
  191.1830  177.0730  146.8010 C   0  0  0  0  0  3  0  0  0  0  0  0
  182.0190  180.4810  138.1920 C   0  0  2  0  0  3  0  0  0  0  0  0
  181.5610  179.2670  137.5070 N   0  0  0  0  0  2  0  0  0  0  0  0
  183.2890  178.9790  139.7380 C   0  0  0  0  0  0  0  0  0  0  0  0
  181.2270  178.2390  138.4920 C   0  0  0  0  0  2  0  0  0  0  0  0
  183.0990  180.1920  139.2020 C   0  0  0  0  0  3  0  0  0  0  0  0
  182.4910  177.8010  139.2230 C   0  0  0  0  0  2  0  0  0  0  0  0
  180.8550  181.2040  138.8480 C   0  0  0  0  0  1  0  0  0  0  0  0
  1 12  1  0  0  0  0
  2  7  1  6  0  0  0
  2 20  1  0  0  0  0
  3 10  1  0  0  0  0
  4 24  1  0  0  0  0
  5 14  2  0  0  0  0
  6  7  1  0  0  0  0
 10 11  1  0  0  0  0
 11  9  1  6  0  0  0
 12  4  2  0  0  0  0
 12  2  1  0  0  0  0
 13  3  1  0  0  0  0
 13 23  1  0  0  0  0
 14 23  1  0  0  0  0
 15  1  1  0  0  0  0
 15  6  1  0  0  0  0
 16 27  2  0  0  0  0
 17 22  1  0  0  0  0
 17  4  1  0  0  0  0
 18 16  1  0  0  0  0
 19 25  1  0  0  0  0
 19  1  2  0  0  0  0
 20 26  1  0  0  0  0
 21  5  1  0  0  0  0
 22 21  2  0  0  0  0
 23  8  2  0  0  0  0
 24  5  1  0  0  0  0
 25 17  2  0  0  0  0
 26 18  2  0  0  0  0
 26 10  1  0  0  0  0
 27 11  1  0  0  0  0
 28 34  1  1  0  0  0
 28 32  1  0  0  0  0
 29 28  1  0  0  0  0
 29 31  1  0  0  0  0
 30 22  1  0  0  0  0
 31 33  1  0  0  0  0
 32 30  2  0  0  0  0
 33 30  1  0  0  0  0
M  END
>  <MODEL>
1

>  <REMARK>
 VINA RESULT:      -9.9      0.000      0.000
  Name = 
  1 active torsions:
  status: ('A' for Active; 'I' for Inactive)
    1  A    between atoms: C_12  and  C_28
                            x       y       z     vdW  Elec       q    Type
                         _______ _______ _______ _____ _____    ______ ____

>  <TORSDO>
F 1

$$$$
=
 OpenBabel11052414103D

 34 39  0  0  1  0  0  0  0  0999 V2000
  191.0680  177.1380  143.1040 C   0  0  0  0  0  0  0  0  0  0  0  0
  188.7220  178.0180  143.5990 C   0  0  1  0  0  3  0  0  0  0  0  0
  185.8120  179.2670  142.0760 C   0  0  0  0  0  2  0  0  0  0  0  0
  189.5740  177.5660  141.2660 C   0  0  0  0  0  0  0  0  0  0  0  0
  188.0150  177.8870  139.3650 C   0  0  0  0  0  0  0  0  0  0  0  0
  190.1820  177.1330  145.4460 C   0  0  0  0  0  2  0  0  0  0  0  0
  189.2300  178.2450  145.0260 C   0  0  0  0  0  2  0  0  0  0  0  0
  184.5020  179.4450  139.0360 S   0  0  0  0  0  0  0  0  0  0  0  0
  182.9420  178.2660  143.4710 C   0  0  0  0  0  1  0  0  0  0  0  0
  185.3210  178.7720  143.3550 N   0  0  0  0  0  0  0  0  0  0  0  0
  184.0270  179.2660  143.8270 C   0  0  2  0  0  3  0  0  0  0  0  0
  189.8170  177.5890  142.6430 C   0  0  0  0  0  0  0  0  0  0  0  0
  185.6700  178.2750  141.0710 O   0  0  0  0  0  0  0  0  0  0  0  0
  186.8480  178.2230  138.9040 N   0  0  0  0  0  0  0  0  0  0  0  0
  191.4220  177.1680  144.5620 C   0  0  0  0  0  2  0  0  0  0  0  0
  184.9210  178.8320  146.0850 C   0  0  0  0  0  3  0  0  0  0  0  0
  190.5680  177.1220  140.3800 C   0  0  0  0  0  0  0  0  0  0  0  0
  185.9210  177.9820  145.5060 N   0  0  0  0  0  0  0  0  0  0  0  0
  192.0070  176.7430  142.2050 N   0  0  0  0  0  0  0  0  0  0  0  0
  187.3550  176.8060  143.5770 S   0  0  0  0  0  0  0  0  0  0  0  0
  189.0810  177.4570  138.4500 C   0  0  0  0  0  3  0  0  0  0  0  0
  190.2940  177.0870  138.9020 C   0  0  0  0  0  0  0  0  0  0  0  0
  185.7350  178.6190  139.7190 C   0  0  0  0  0  0  0  0  0  0  0  0
  188.3030  177.9630  140.7590 N   0  0  0  0  0  2  0  0  0  0  0  0
  191.7660  176.7340  140.8930 N   0  0  0  0  0  0  0  0  0  0  0  0
  186.1280  177.9500  144.2240 C   0  0  0  0  0  0  0  0  0  0  0  0
  184.0400  179.4750  145.3160 C   0  0  0  0  0  3  0  0  0  0  0  0
  191.9450  175.8880  135.6060 C   0  0  2  0  0  3  0  0  0  0  0  0
  193.3140  176.3140  135.9180 N   0  0  0  0  0  2  0  0  0  0  0  0
  191.3150  176.6600  137.9010 C   0  0  0  0  0  0  0  0  0  0  0  0
  193.6500  175.9340  137.2880 C   0  0  0  0  0  2  0  0  0  0  0  0
  190.9570  176.3360  136.6510 C   0  0  0  0  0  3  0  0  0  0  0  0
  192.7820  176.7220  138.2650 C   0  0  0  0  0  2  0  0  0  0  0  0
  191.8760  174.3820  135.4190 C   0  0  0  0  0  1  0  0  0  0  0  0
  1 15  1  0  0  0  0
  2  7  1  1  0  0  0
  3 10  1  0  0  0  0
  4 12  2  0  0  0  0
  5 24  1  0  0  0  0
  7  6  1  0  0  0  0
  8 23  2  0  0  0  0
 10 11  1  0  0  0  0
 10 26  1  0  0  0  0
 11  9  1  1  0  0  0
 11 27  1  0  0  0  0
 12  1  1  0  0  0  0
 12  2  1  0  0  0  0
 13  3  1  0  0  0  0
 14  5  2  0  0  0  0
 14 23  1  0  0  0  0
 15  6  1  0  0  0  0
 17 25  2  0  0  0  0
 17  4  1  0  0  0  0
 18 16  1  0  0  0  0
 19  1  2  0  0  0  0
 20  2  1  0  0  0  0
 20 26  1  0  0  0  0
 21 22  2  0  0  0  0
 21  5  1  0  0  0  0
 22 17  1  0  0  0  0
 23 13  1  0  0  0  0
 24  4  1  0  0  0  0
 25 19  1  0  0  0  0
 26 18  2  0  0  0  0
 27 16  2  0  0  0  0
 28 34  1  1  0  0  0
 28 29  1  0  0  0  0
 28 32  1  0  0  0  0
 29 31  1  0  0  0  0
 30 33  1  0  0  0  0
 30 22  1  0  0  0  0
 31 33  1  0  0  0  0
 32 30  2  0  0  0  0
M  END
>  <MODEL>
2

>  <REMARK>
 VINA RESULT:      -8.7      2.798      6.968
  Name = 
  1 active torsions:
  status: ('A' for Active; 'I' for Inactive)
    1  A    between atoms: C_12  and  C_28
                            x       y       z     vdW  Elec       q    Type
                         _______ _______ _______ _____ _____    ______ ____

>  <TORSDO>
F 1

$$$$
=
 OpenBabel11052414103D

 34 39  0  0  1  0  0  0  0  0999 V2000
  184.1690  178.6710  144.1580 C   0  0  0  0  0  0  0  0  0  0  0  0
  183.2920  178.8860  141.7690 C   0  0  1  0  0  3  0  0  0  0  0  0
  184.3100  179.1080  138.4130 C   0  0  0  0  0  2  0  0  0  0  0  0
  185.7210  178.4860  142.3280 C   0  0  0  0  0  0  0  0  0  0  0  0
  187.3190  178.1740  140.4590 C   0  0  0  0  0  0  0  0  0  0  0  0
  181.7060  178.6270  143.7040 C   0  0  0  0  0  2  0  0  0  0  0  0
  181.9910  179.3780  142.4110 C   0  0  0  0  0  2  0  0  0  0  0  0
  187.0680  178.6280  136.6360 S   0  0  0  0  0  0  0  0  0  0  0  0
  182.3800  177.4620  136.2350 C   0  0  0  0  0  1  0  0  0  0  0  0
  182.9450  178.6130  138.3050 N   0  0  0  0  0  0  0  0  0  0  0  0
  182.2670  178.7570  137.0170 C   0  0  2  0  0  3  0  0  0  0  0  0
  184.4130  178.7020  142.7730 C   0  0  0  0  0  0  0  0  0  0  0  0
  185.2330  178.0300  138.4120 O   0  0  0  0  0  0  0  0  0  0  0  0
  187.5740  178.1190  139.1860 N   0  0  0  0  0  0  0  0  0  0  0  0
  182.8010  178.9340  144.7190 C   0  0  0  0  0  2  0  0  0  0  0  0
  180.1920  178.8050  138.3520 C   0  0  0  0  0  3  0  0  0  0  0  0
  186.7540  178.2650  143.2520 C   0  0  0  0  0  0  0  0  0  0  0  0
  180.9090  178.2270  139.4520 N   0  0  0  0  0  0  0  0  0  0  0  0
  185.2070  178.4810  145.0140 N   0  0  0  0  0  0  0  0  0  0  0  0
  183.0180  177.3380  140.8390 S   0  0  0  0  0  0  0  0  0  0  0  0
  188.3940  177.9840  141.4410 C   0  0  0  0  0  3  0  0  0  0  0  0
  188.1560  178.0180  142.7660 C   0  0  0  0  0  0  0  0  0  0  0  0
  186.5870  178.2540  138.1520 C   0  0  0  0  0  0  0  0  0  0  0  0
  186.0040  178.4560  140.9320 N   0  0  0  0  0  2  0  0  0  0  0  0
  186.4520  178.2830  144.5780 N   0  0  0  0  0  0  0  0  0  0  0  0
  182.2050  178.1380  139.4490 C   0  0  0  0  0  0  0  0  0  0  0  0
  180.8140  179.0970  137.2080 C   0  0  0  0  0  3  0  0  0  0  0  0
  190.4120  176.5910  145.5750 C   0  0  2  0  0  3  0  0  0  0  0  0
  191.6800  177.1560  145.1010 N   0  0  0  0  0  2  0  0  0  0  0  0
  189.3070  177.8110  143.6920 C   0  0  0  0  0  0  0  0  0  0  0  0
  191.4870  178.5530  144.7180 C   0  0  0  0  0  2  0  0  0  0  0  0
  189.2830  176.8350  144.6090 C   0  0  0  0  0  3  0  0  0  0  0  0
  190.5670  178.6280  143.5050 C   0  0  0  0  0  2  0  0  0  0  0  0
  190.0620  177.1280  146.9530 C   0  0  0  0  0  1  0  0  0  0  0  0
  1 15  1  0  0  0  0
  1 19  1  0  0  0  0
  2  7  1  1  0  0  0
  2 12  1  0  0  0  0
  4 12  1  0  0  0  0
  4 17  2  0  0  0  0
  5 24  1  0  0  0  0
  5 21  1  0  0  0  0
  6 15  1  0  0  0  0
  7  6  1  0  0  0  0
  8 23  2  0  0  0  0
 10  3  1  0  0  0  0
 10 26  1  0  0  0  0
 11  9  1  1  0  0  0
 11 27  1  0  0  0  0
 11 10  1  0  0  0  0
 12  1  2  0  0  0  0
 13  3  1  0  0  0  0
 14  5  2  0  0  0  0
 16 18  1  0  0  0  0
 17 25  1  0  0  0  0
 20  2  1  0  0  0  0
 21 22  2  0  0  0  0
 22 17  1  0  0  0  0
 22 30  1  0  0  0  0
 23 13  1  0  0  0  0
 23 14  1  0  0  0  0
 24  4  1  0  0  0  0
 25 19  2  0  0  0  0
 26 18  2  0  0  0  0
 26 20  1  0  0  0  0
 27 16  2  0  0  0  0
 28 34  1  1  0  0  0
 29 28  1  0  0  0  0
 30 32  2  0  0  0  0
 31 29  1  0  0  0  0
 32 28  1  0  0  0  0
 33 30  1  0  0  0  0
 33 31  1  0  0  0  0
M  END
>  <MODEL>
3

>  <REMARK>
 VINA RESULT:      -8.6      2.548      8.914
  Name = 
  1 active torsions:
  status: ('A' for Active; 'I' for Inactive)
    1  A    between atoms: C_12  and  C_28
                            x       y       z     vdW  Elec       q    Type
                         _______ _______ _______ _____ _____    ______ ____

>  <TORSDO>
F 1

$$$$
=
 OpenBabel11052414103D

 34 39  0  0  1  0  0  0  0  0999 V2000
  190.3810  177.6130  141.0160 C   0  0  0  0  0  0  0  0  0  0  0  0
  189.2210  178.0710  143.2450 C   0  0  1  0  0  3  0  0  0  0  0  0
  186.1760  179.0940  144.6680 C   0  0  0  0  0  2  0  0  0  0  0  0
  188.0190  178.0790  141.0250 C   0  0  0  0  0  0  0  0  0  0  0  0
  185.5670  178.4390  141.0200 C   0  0  0  0  0  0  0  0  0  0  0  0
  191.5620  177.1520  143.1750 C   0  0  0  0  0  2  0  0  0  0  0  0
  190.6330  178.1640  143.8310 C   0  0  0  0  0  2  0  0  0  0  0  0
  183.0270  179.5100  143.7190 S   0  0  0  0  0  0  0  0  0  0  0  0
  185.3260  177.5080  147.4870 C   0  0  0  0  0  1  0  0  0  0  0  0
  186.8100  178.3590  145.7540 N   0  0  0  0  0  0  0  0  0  0  0  0
  186.3200  178.5910  147.1130 C   0  0  2  0  0  3  0  0  0  0  0  0
  189.2160  177.9410  141.7340 C   0  0  0  0  0  0  0  0  0  0  0  0
  185.3130  178.2440  143.9290 O   0  0  0  0  0  0  0  0  0  0  0  0
  184.4550  178.6660  141.6540 N   0  0  0  0  0  0  0  0  0  0  0  0
  191.7120  177.4880  141.6970 C   0  0  0  0  0  2  0  0  0  0  0  0
  188.6040  177.9760  147.8160 C   0  0  0  0  0  3  0  0  0  0  0  0
  188.0000  177.9100  139.6320 C   0  0  0  0  0  0  0  0  0  0  0  0
  188.8150  177.3680  146.5350 N   0  0  0  0  0  0  0  0  0  0  0  0
  190.3160  177.4870  139.6650 N   0  0  0  0  0  0  0  0  0  0  0  0
  188.2900  176.6920  143.9990 S   0  0  0  0  0  0  0  0  0  0  0  0
  185.5730  178.2980  139.5580 C   0  0  0  0  0  3  0  0  0  0  0  0
  186.7060  178.0450  138.8770 C   0  0  0  0  0  0  0  0  0  0  0  0
  184.3420  178.7800  143.0810 C   0  0  0  0  0  0  0  0  0  0  0  0
  186.8060  178.3580  141.7190 N   0  0  0  0  0  2  0  0  0  0  0  0
  189.1700  177.6290  138.9980 N   0  0  0  0  0  0  0  0  0  0  0  0
  187.9840  177.5460  145.5510 C   0  0  0  0  0  0  0  0  0  0  0  0
  187.4530  178.5880  148.1020 C   0  0  0  0  0  3  0  0  0  0  0  0
  185.5710  176.9480  135.3370 C   0  0  2  0  0  3  0  0  0  0  0  0
  186.1830  178.0550  134.5940 N   0  0  0  0  0  2  0  0  0  0  0  0
  186.6190  177.9140  137.3930 C   0  0  0  0  0  0  0  0  0  0  0  0
  187.5430  178.2820  135.0770 C   0  0  0  0  0  2  0  0  0  0  0  0
  185.6940  177.1260  136.8270 C   0  0  0  0  0  3  0  0  0  0  0  0
  187.4970  178.7800  136.5180 C   0  0  0  0  0  2  0  0  0  0  0  0
  186.1610  175.6160  134.9080 C   0  0  0  0  0  1  0  0  0  0  0  0
  1 15  1  0  0  0  0
  1 12  1  0  0  0  0
  2  7  1  1  0  0  0
  2 20  1  0  0  0  0
  3 10  1  0  0  0  0
  4 24  1  0  0  0  0
  4 12  2  0  0  0  0
  5 14  2  0  0  0  0
  5 24  1  0  0  0  0
  6  7  1  0  0  0  0
 10 11  1  0  0  0  0
 11  9  1  1  0  0  0
 11 27  1  0  0  0  0
 12  2  1  0  0  0  0
 13  3  1  0  0  0  0
 14 23  1  0  0  0  0
 15  6  1  0  0  0  0
 16 27  2  0  0  0  0
 17  4  1  0  0  0  0
 18 16  1  0  0  0  0
 19  1  2  0  0  0  0
 20 26  1  0  0  0  0
 21  5  1  0  0  0  0
 22 21  2  0  0  0  0
 22 17  1  0  0  0  0
 23  8  2  0  0  0  0
 23 13  1  0  0  0  0
 25 17  2  0  0  0  0
 25 19  1  0  0  0  0
 26 10  1  0  0  0  0
 26 18  2  0  0  0  0
 28 34  1  6  0  0  0
 28 32  1  0  0  0  0
 29 31  1  0  0  0  0
 29 28  1  0  0  0  0
 30 22  1  0  0  0  0
 31 33  1  0  0  0  0
 32 30  2  0  0  0  0
 33 30  1  0  0  0  0
M  END
>  <MODEL>
4

>  <REMARK>
 VINA RESULT:      -8.4      2.534      3.732
  Name = 
  1 active torsions:
  status: ('A' for Active; 'I' for Inactive)
    1  A    between atoms: C_12  and  C_28
                            x       y       z     vdW  Elec       q    Type
                         _______ _______ _______ _____ _____    ______ ____

>  <TORSDO>
F 1

$$$$
=
 OpenBabel11052414103D

 34 39  0  0  1  0  0  0  0  0999 V2000
  184.3620  178.5060  144.0640 C   0  0  0  0  0  0  0  0  0  0  0  0
  183.3140  178.8780  141.7650 C   0  0  1  0  0  3  0  0  0  0  0  0
  184.0810  179.2370  138.3540 C   0  0  0  0  0  2  0  0  0  0  0  0
  185.7610  178.3600  142.1110 C   0  0  0  0  0  0  0  0  0  0  0  0
  187.1970  178.0870  140.1080 C   0  0  0  0  0  0  0  0  0  0  0  0
  181.8720  178.5760  143.8030 C   0  0  0  0  0  2  0  0  0  0  0  0
  182.0870  179.3820  142.5300 C   0  0  0  0  0  2  0  0  0  0  0  0
  186.6720  178.7490  136.3440 S   0  0  0  0  0  0  0  0  0  0  0  0
  181.9240  177.7790  136.2560 C   0  0  0  0  0  1  0  0  0  0  0  0
  182.6920  178.7990  138.3300 N   0  0  0  0  0  0  0  0  0  0  0  0
  181.9240  179.0350  137.1070 C   0  0  2  0  0  3  0  0  0  0  0  0
  184.5010  178.6010  142.6670 C   0  0  0  0  0  0  0  0  0  0  0  0
  184.9560  178.1280  138.2270 O   0  0  0  0  0  0  0  0  0  0  0  0
  187.3520  178.0900  138.8180 N   0  0  0  0  0  0  0  0  0  0  0  0
  183.0540  178.7890  144.7420 C   0  0  0  0  0  2  0  0  0  0  0  0
  179.9610  179.0890  138.6020 C   0  0  0  0  0  3  0  0  0  0  0  0
  186.8520  178.0530  142.9380 C   0  0  0  0  0  0  0  0  0  0  0  0
  180.7360  178.4280  139.6120 N   0  0  0  0  0  0  0  0  0  0  0  0
  185.4540  178.2330  144.8250 N   0  0  0  0  0  0  0  0  0  0  0  0
  182.9070  177.3920  140.7840 S   0  0  0  0  0  0  0  0  0  0  0  0
  188.3350  177.8070  140.9930 C   0  0  0  0  0  3  0  0  0  0  0  0
  188.2010  177.7810  142.3330 C   0  0  0  0  0  0  0  0  0  0  0  0
  186.2940  178.3140  137.8740 C   0  0  0  0  0  0  0  0  0  0  0  0
  185.9350  178.3920  140.6970 N   0  0  0  0  0  2  0  0  0  0  0  0
  186.6530  178.0130  144.2830 N   0  0  0  0  0  0  0  0  0  0  0  0
  182.0240  178.2920  139.5030 C   0  0  0  0  0  0  0  0  0  0  0  0
  180.5050  179.4170  137.4280 C   0  0  0  0  0  3  0  0  0  0  0  0
  191.0880  178.1250  144.8960 C   0  0  2  0  0  3  0  0  0  0  0  0
  191.4090  176.6980  145.0080 N   0  0  0  0  0  2  0  0  0  0  0  0
  189.4110  177.4840  143.1540 C   0  0  0  0  0  0  0  0  0  0  0  0
  191.4470  176.0940  143.6780 C   0  0  0  0  0  2  0  0  0  0  0  0
  189.8660  178.3700  144.0510 C   0  0  0  0  0  3  0  0  0  0  0  0
  190.0510  176.1160  143.0650 C   0  0  0  0  0  2  0  0  0  0  0  0
  192.2740  178.9060  144.3560 C   0  0  0  0  0  1  0  0  0  0  0  0
  1 15  1  0  0  0  0
  1 19  1  0  0  0  0
  2  7  1  1  0  0  0
  2 12  1  0  0  0  0
  4 12  1  0  0  0  0
  4 17  2  0  0  0  0
  5 24  1  0  0  0  0
  5 21  1  0  0  0  0
  6 15  1  0  0  0  0
  7  6  1  0  0  0  0
  8 23  2  0  0  0  0
 10  3  1  0  0  0  0
 10 26  1  0  0  0  0
 11  9  1  6  0  0  0
 11 27  1  0  0  0  0
 11 10  1  0  0  0  0
 12  1  2  0  0  0  0
 13  3  1  0  0  0  0
 14  5  2  0  0  0  0
 16 18  1  0  0  0  0
 17 25  1  0  0  0  0
 20  2  1  0  0  0  0
 21 22  2  0  0  0  0
 22 17  1  0  0  0  0
 22 30  1  0  0  0  0
 23 13  1  0  0  0  0
 23 14  1  0  0  0  0
 24  4  1  0  0  0  0
 25 19  2  0  0  0  0
 26 18  2  0  0  0  0
 26 20  1  0  0  0  0
 27 16  2  0  0  0  0
 28 34  1  6  0  0  0
 28 29  1  0  0  0  0
 30 32  2  0  0  0  0
 31 29  1  0  0  0  0
 32 28  1  0  0  0  0
 33 30  1  0  0  0  0
 33 31  1  0  0  0  0
M  END
>  <MODEL>
5

>  <REMARK>
 VINA RESULT:      -8.0      2.631      8.897
  Name = 
  1 active torsions:
  status: ('A' for Active; 'I' for Inactive)
    1  A    between atoms: C_12  and  C_28
                            x       y       z     vdW  Elec       q    Type
                         _______ _______ _______ _____ _____    ______ ____

>  <TORSDO>
F 1

$$$$
=
 OpenBabel11052414103D

 34 39  0  0  1  0  0  0  0  0999 V2000
  186.9240  178.0080  139.8300 C   0  0  0  0  0  0  0  0  0  0  0  0
  184.4390  178.3570  139.3510 C   0  0  1  0  0  3  0  0  0  0  0  0
  181.2750  178.4740  140.8760 C   0  0  0  0  0  2  0  0  0  0  0  0
  185.3940  178.1680  141.6810 C   0  0  0  0  0  0  0  0  0  0  0  0
  183.8560  178.4470  143.6050 C   0  0  0  0  0  0  0  0  0  0  0  0
  186.1510  178.6170  137.5270 C   0  0  0  0  0  2  0  0  0  0  0  0
  184.7910  178.0400  137.8940 C   0  0  0  0  0  2  0  0  0  0  0  0
  180.0190  178.6700  143.9380 S   0  0  0  0  0  0  0  0  0  0  0  0
  179.2030  180.8010  139.6610 C   0  0  0  0  0  1  0  0  0  0  0  0
  181.0760  179.2440  139.6560 N   0  0  0  0  0  0  0  0  0  0  0  0
  179.7020  179.4460  139.1940 C   0  0  2  0  0  3  0  0  0  0  0  0
  185.6050  178.1500  140.2990 C   0  0  0  0  0  0  0  0  0  0  0  0
  181.6060  179.3310  141.9570 O   0  0  0  0  0  0  0  0  0  0  0  0
  182.6640  178.6530  144.0800 N   0  0  0  0  0  0  0  0  0  0  0  0
  187.2300  177.9380  138.3620 C   0  0  0  0  0  2  0  0  0  0  0  0
  180.7050  179.6030  136.9450 C   0  0  0  0  0  3  0  0  0  0  0  0
  186.4760  178.0260  142.5630 C   0  0  0  0  0  0  0  0  0  0  0  0
  181.9830  179.8420  137.5510 N   0  0  0  0  0  0  0  0  0  0  0  0
  187.9350  177.8470  140.7230 N   0  0  0  0  0  0  0  0  0  0  0  0
  183.7900  180.0570  139.5130 S   0  0  0  0  0  0  0  0  0  0  0  0
  184.9960  178.2580  144.5120 C   0  0  0  0  0  3  0  0  0  0  0  0
  186.2440  178.0610  144.0480 C   0  0  0  0  0  0  0  0  0  0  0  0
  181.4980  178.8850  143.2760 C   0  0  0  0  0  0  0  0  0  0  0  0
  184.0820  178.3630  142.2000 N   0  0  0  0  0  2  0  0  0  0  0  0
  187.7200  177.8570  142.0390 N   0  0  0  0  0  0  0  0  0  0  0  0
  182.1760  179.6690  138.8250 C   0  0  0  0  0  0  0  0  0  0  0  0
  179.6230  179.3790  137.6940 C   0  0  0  0  0  3  0  0  0  0  0  0
  188.1420  177.3370  147.3490 C   0  0  2  0  0  3  0  0  0  0  0  0
  189.4640  177.1020  146.7570 N   0  0  0  0  0  2  0  0  0  0  0  0
  187.3430  177.8820  145.0420 C   0  0  0  0  0  0  0  0  0  0  0  0
  189.7470  178.1290  145.7570 C   0  0  0  0  0  2  0  0  0  0  0  0
  187.0740  177.5200  146.3040 C   0  0  0  0  0  3  0  0  0  0  0  0
  188.7810  177.9840  144.5860 C   0  0  0  0  0  2  0  0  0  0  0  0
  188.1760  178.5290  148.2910 C   0  0  0  0  0  1  0  0  0  0  0  0
  1 12  2  0  0  0  0
  1 19  1  0  0  0  0
  2  7  1  6  0  0  0
  2 20  1  0  0  0  0
  2 12  1  0  0  0  0
  3 13  1  0  0  0  0
  4 24  1  0  0  0  0
  4 17  2  0  0  0  0
  5 14  2  0  0  0  0
  5 21  1  0  0  0  0
  6  7  1  0  0  0  0
  6 15  1  0  0  0  0
 10  3  1  0  0  0  0
 11 10  1  0  0  0  0
 11  9  1  6  0  0  0
 12  4  1  0  0  0  0
 13 23  1  0  0  0  0
 15  1  1  0  0  0  0
 16 18  1  0  0  0  0
 16 27  2  0  0  0  0
 17 22  1  0  0  0  0
 18 26  2  0  0  0  0
 19 25  2  0  0  0  0
 22 21  2  0  0  0  0
 22 30  1  0  0  0  0
 23  8  2  0  0  0  0
 23 14  1  0  0  0  0
 24  5  1  0  0  0  0
 25 17  1  0  0  0  0
 26 20  1  0  0  0  0
 26 10  1  0  0  0  0
 27 11  1  0  0  0  0
 28 34  1  6  0  0  0
 29 28  1  0  0  0  0
 30 32  2  0  0  0  0
 31 29  1  0  0  0  0
 32 28  1  0  0  0  0
 33 30  1  0  0  0  0
 33 31  1  0  0  0  0
M  END
>  <MODEL>
6

>  <REMARK>
 VINA RESULT:      -7.8      2.672      8.150
  Name = 
  1 active torsions:
  status: ('A' for Active; 'I' for Inactive)
    1  A    between atoms: C_12  and  C_28
                            x       y       z     vdW  Elec       q    Type
                         _______ _______ _______ _____ _____    ______ ____

>  <TORSDO>
F 1

$$$$
=
 OpenBabel11052414103D

 34 39  0  0  1  0  0  0  0  0999 V2000
  182.9180  178.6310  143.7560 C   0  0  0  0  0  0  0  0  0  0  0  0
  182.4650  178.8150  141.2490 C   0  0  1  0  0  3  0  0  0  0  0  0
  184.0450  179.0480  138.1190 C   0  0  0  0  0  2  0  0  0  0  0  0
  184.7690  178.4750  142.2240 C   0  0  0  0  0  0  0  0  0  0  0  0
  186.6730  178.1950  140.6630 C   0  0  0  0  0  0  0  0  0  0  0  0
  180.5730  178.5250  142.8820 C   0  0  0  0  0  2  0  0  0  0  0  0
  181.0610  179.2780  141.6510 C   0  0  0  0  0  2  0  0  0  0  0  0
  187.0790  178.6270  136.8520 S   0  0  0  0  0  0  0  0  0  0  0  0
  182.5610  177.3470  135.6520 C   0  0  0  0  0  1  0  0  0  0  0  0
  182.7310  178.5190  137.7800 N   0  0  0  0  0  0  0  0  0  0  0  0
  182.2830  178.6420  136.3920 C   0  0  2  0  0  3  0  0  0  0  0  0
  183.3980  178.6620  142.4330 C   0  0  0  0  0  0  0  0  0  0  0  0
  184.9780  177.9920  138.2870 O   0  0  0  0  0  0  0  0  0  0  0  0
  187.1470  178.1410  139.4540 N   0  0  0  0  0  0  0  0  0  0  0  0
  181.4680  178.8630  144.0680 C   0  0  0  0  0  2  0  0  0  0  0  0
  180.0080  178.6450  137.3470 C   0  0  0  0  0  3  0  0  0  0  0  0
  185.6300  178.2840  143.3150 C   0  0  0  0  0  0  0  0  0  0  0  0
  180.5360  178.0890  138.5590 N   0  0  0  0  0  0  0  0  0  0  0  0
  183.7960  178.4690  144.7800 N   0  0  0  0  0  0  0  0  0  0  0  0
  182.3920  177.2570  140.2980 S   0  0  0  0  0  0  0  0  0  0  0  0
  187.5660  178.0350  141.8190 C   0  0  0  0  0  3  0  0  0  0  0  0
  187.1000  178.0690  143.0820 C   0  0  0  0  0  0  0  0  0  0  0  0
  186.3510  178.2470  138.2640 C   0  0  0  0  0  0  0  0  0  0  0  0
  185.2900  178.4470  140.8990 N   0  0  0  0  0  2  0  0  0  0  0  0
  185.1020  178.3000  144.5680 N   0  0  0  0  0  0  0  0  0  0  0  0
  181.8150  178.0310  138.7820 C   0  0  0  0  0  0  0  0  0  0  0  0
  180.8130  178.9470  136.3260 C   0  0  0  0  0  3  0  0  0  0  0  0
  190.4150  177.9450  145.0870 C   0  0  2  0  0  3  0  0  0  0  0  0
  189.8230  178.0070  146.4290 N   0  0  0  0  0  2  0  0  0  0  0  0
  188.0780  177.8940  144.1950 C   0  0  0  0  0  0  0  0  0  0  0  0
  188.6830  177.0970  146.5090 C   0  0  0  0  0  2  0  0  0  0  0  0
  189.3850  178.1180  144.0020 C   0  0  0  0  0  3  0  0  0  0  0  0
  187.5710  177.5870  145.5880 C   0  0  0  0  0  2  0  0  0  0  0  0
  191.1810  176.6470  144.8930 C   0  0  0  0  0  1  0  0  0  0  0  0
  1 15  1  0  0  0  0
  1 19  1  0  0  0  0
  2  7  1  1  0  0  0
  2 12  1  0  0  0  0
  3 13  1  0  0  0  0
  4 12  1  0  0  0  0
  4 17  2  0  0  0  0
  5 24  1  0  0  0  0
  5 21  1  0  0  0  0
  6 15  1  0  0  0  0
  7  6  1  0  0  0  0
  8 23  2  0  0  0  0
 10  3  1  0  0  0  0
 10 26  1  0  0  0  0
 11  9  1  6  0  0  0
 11 10  1  0  0  0  0
 12  1  2  0  0  0  0
 14  5  2  0  0  0  0
 16 18  1  0  0  0  0
 17 25  1  0  0  0  0
 18 26  2  0  0  0  0
 20  2  1  0  0  0  0
 21 22  2  0  0  0  0
 22 17  1  0  0  0  0
 22 30  1  0  0  0  0
 23 13  1  0  0  0  0
 23 14  1  0  0  0  0
 24  4  1  0  0  0  0
 25 19  2  0  0  0  0
 26 20  1  0  0  0  0
 27 11  1  0  0  0  0
 27 16  2  0  0  0  0
 28 34  1  6  0  0  0
 28 29  1  0  0  0  0
 29 31  1  0  0  0  0
 30 33  1  0  0  0  0
 32 30  2  0  0  0  0
 32 28  1  0  0  0  0
 33 31  1  0  0  0  0
M  END
>  <MODEL>
7

>  <REMARK>
 VINA RESULT:      -7.8      2.732      9.041
  Name = 
  1 active torsions:
  status: ('A' for Active; 'I' for Inactive)
    1  A    between atoms: C_12  and  C_28
                            x       y       z     vdW  Elec       q    Type
                         _______ _______ _______ _____ _____    ______ ____

>  <TORSDO>
F 1

$$$$
=
 OpenBabel11052414103D

 34 39  0  0  1  0  0  0  0  0999 V2000
  184.1650  178.6240  143.7090 C   0  0  0  0  0  0  0  0  0  0  0  0
  186.5700  177.7790  143.5440 C   0  0  1  0  0  3  0  0  0  0  0  0
  189.0360  176.7560  141.2600 C   0  0  0  0  0  2  0  0  0  0  0  0
  185.1730  178.4000  141.5340 C   0  0  0  0  0  0  0  0  0  0  0  0
  186.2280  178.2910  139.2940 C   0  0  0  0  0  0  0  0  0  0  0  0
  185.5930  178.4580  145.7600 C   0  0  0  0  0  2  0  0  0  0  0  0
  186.4250  177.4160  145.0250 C   0  0  0  0  0  2  0  0  0  0  0  0
  189.5720  176.8770  137.9900 S   0  0  0  0  0  0  0  0  0  0  0  0
  192.1490  177.7240  142.0070 C   0  0  0  0  0  1  0  0  0  0  0  0
  189.8170  177.1550  142.4220 N   0  0  0  0  0  0  0  0  0  0  0  0
  191.1920  176.6640  142.5220 C   0  0  2  0  0  3  0  0  0  0  0  0
  185.2710  178.2530  142.9220 C   0  0  0  0  0  0  0  0  0  0  0  0
  188.9200  177.8330  140.3440 O   0  0  0  0  0  0  0  0  0  0  0  0
  187.2520  178.0320  138.5370 N   0  0  0  0  0  0  0  0  0  0  0  0
  184.1750  178.4590  145.2010 C   0  0  0  0  0  2  0  0  0  0  0  0
  190.8680  176.8760  144.9590 C   0  0  0  0  0  3  0  0  0  0  0  0
  183.9900  178.8860  140.9570 C   0  0  0  0  0  0  0  0  0  0  0  0
  189.7490  177.7400  144.7160 N   0  0  0  0  0  0  0  0  0  0  0  0
  183.0330  179.0630  143.1010 N   0  0  0  0  0  0  0  0  0  0  0  0
  187.8780  179.0300  143.3030 S   0  0  0  0  0  0  0  0  0  0  0  0
  184.9680  178.7630  138.7040 C   0  0  0  0  0  3  0  0  0  0  0  0
  183.8970  179.0560  139.4660 C   0  0  0  0  0  0  0  0  0  0  0  0
  188.5330  177.6030  139.0220 C   0  0  0  0  0  0  0  0  0  0  0  0
  186.2870  178.0870  140.7030 N   0  0  0  0  0  2  0  0  0  0  0  0
  182.9480  179.1920  141.7760 N   0  0  0  0  0  0  0  0  0  0  0  0
  189.2370  177.8750  143.5300 C   0  0  0  0  0  0  0  0  0  0  0  0
  191.5420  176.3290  143.9460 C   0  0  0  0  0  3  0  0  0  0  0  0
  181.1320  181.3750  138.0530 C   0  0  2  0  0  3  0  0  0  0  0  0
  180.5680  180.4260  137.0870 N   0  0  0  0  0  2  0  0  0  0  0  0
  182.6590  179.5330  138.7830 C   0  0  0  0  0  0  0  0  0  0  0  0
  180.4150  179.1140  137.7140 C   0  0  0  0  0  2  0  0  0  0  0  0
  182.3720  180.8410  138.7190 C   0  0  0  0  0  3  0  0  0  0  0  0
  181.7900  178.5420  138.0420 C   0  0  0  0  0  2  0  0  0  0  0  0
  180.0960  181.7700  139.0920 C   0  0  0  0  0  1  0  0  0  0  0  0
  1 15  1  0  0  0  0
  2  7  1  1  0  0  0
  3 10  1  0  0  0  0
  4 12  1  0  0  0  0
  5 24  1  0  0  0  0
  7  6  1  0  0  0  0
  8 23  2  0  0  0  0
 10 11  1  0  0  0  0
 10 26  1  0  0  0  0
 11  9  1  1  0  0  0
 11 27  1  0  0  0  0
 12  2  1  0  0  0  0
 12  1  2  0  0  0  0
 13  3  1  0  0  0  0
 14 23  1  0  0  0  0
 14  5  2  0  0  0  0
 15  6  1  0  0  0  0
 17  4  2  0  0  0  0
 17 25  1  0  0  0  0
 18 16  1  0  0  0  0
 19  1  1  0  0  0  0
 20 26  1  0  0  0  0
 20  2  1  0  0  0  0
 21  5  1  0  0  0  0
 21 22  2  0  0  0  0
 22 17  1  0  0  0  0
 23 13  1  0  0  0  0
 24  4  1  0  0  0  0
 25 19  2  0  0  0  0
 26 18  2  0  0  0  0
 27 16  2  0  0  0  0
 28 32  1  0  0  0  0
 28 34  1  1  0  0  0
 29 31  1  0  0  0  0
 29 28  1  0  0  0  0
 30 22  1  0  0  0  0
 31 33  1  0  0  0  0
 32 30  2  0  0  0  0
 33 30  1  0  0  0  0
M  END
>  <MODEL>
8

>  <REMARK>
 VINA RESULT:      -7.8      1.934      4.429
  Name = 
  1 active torsions:
  status: ('A' for Active; 'I' for Inactive)
    1  A    between atoms: C_12  and  C_28
                            x       y       z     vdW  Elec       q    Type
                         _______ _______ _______ _____ _____    ______ ____

>  <TORSDO>
F 1

$$$$
=
 OpenBabel11052414103D

 34 39  0  0  1  0  0  0  0  0999 V2000
  185.0430  178.7710  141.0840 C   0  0  0  0  0  0  0  0  0  0  0  0
  186.5880  178.4340  139.0780 C   0  0  1  0  0  3  0  0  0  0  0  0
  189.9400  177.8890  138.1760 C   0  0  0  0  0  2  0  0  0  0  0  0
  187.3440  178.1780  141.4740 C   0  0  0  0  0  0  0  0  0  0  0  0
  189.6760  177.4540  141.8970 C   0  0  0  0  0  0  0  0  0  0  0  0
  184.0990  178.6180  138.7700 C   0  0  0  0  0  2  0  0  0  0  0  0
  185.4600  179.0550  138.2480 C   0  0  0  0  0  2  0  0  0  0  0  0
  192.7810  177.0240  139.6490 S   0  0  0  0  0  0  0  0  0  0  0  0
  190.3940  175.7840  135.6170 C   0  0  0  0  0  1  0  0  0  0  0  0
  189.2080  177.3780  137.0250 N   0  0  0  0  0  0  0  0  0  0  0  0
  189.9370  177.2230  135.7660 C   0  0  2  0  0  3  0  0  0  0  0  0
  186.3220  178.4870  140.5700 C   0  0  0  0  0  0  0  0  0  0  0  0
  190.2260  176.8420  139.0890 O   0  0  0  0  0  0  0  0  0  0  0  0
  190.8510  177.1110  141.4610 N   0  0  0  0  0  0  0  0  0  0  0  0
  183.9040  179.1510  140.1840 C   0  0  0  0  0  2  0  0  0  0  0  0
  187.7410  177.5680  134.6950 C   0  0  0  0  0  3  0  0  0  0  0  0
  187.0890  178.1770  142.8540 C   0  0  0  0  0  0  0  0  0  0  0  0
  187.1040  177.2580  135.9430 N   0  0  0  0  0  0  0  0  0  0  0  0
  184.8540  178.7830  142.4290 N   0  0  0  0  0  0  0  0  0  0  0  0
  186.9130  176.7140  138.5560 S   0  0  0  0  0  0  0  0  0  0  0  0
  189.4020  177.4950  143.3390 C   0  0  0  0  0  3  0  0  0  0  0  0
  188.1890  177.8300  143.8190 C   0  0  0  0  0  0  0  0  0  0  0  0
  191.2030  177.0040  140.0730 C   0  0  0  0  0  0  0  0  0  0  0  0
  188.6400  177.8320  140.9940 N   0  0  0  0  0  2  0  0  0  0  0  0
  185.8380  178.4950  143.2820 N   0  0  0  0  0  0  0  0  0  0  0  0
  187.7800  177.1740  137.0500 C   0  0  0  0  0  0  0  0  0  0  0  0
  189.0710  177.5930  134.5940 C   0  0  0  0  0  3  0  0  0  0  0  0
  186.5210  177.8690  147.3180 C   0  0  2  0  0  3  0  0  0  0  0  0
  187.6800  177.3940  148.0820 N   0  0  0  0  0  2  0  0  0  0  0  0
  187.9980  177.8420  145.2990 C   0  0  0  0  0  0  0  0  0  0  0  0
  188.8830  178.1000  147.6450 C   0  0  0  0  0  2  0  0  0  0  0  0
  186.7690  177.8440  145.8330 C   0  0  0  0  0  3  0  0  0  0  0  0
  189.2050  177.7190  146.2040 C   0  0  0  0  0  2  0  0  0  0  0  0
  186.1110  179.2610  147.7670 C   0  0  0  0  0  1  0  0  0  0  0  0
  1 19  1  0  0  0  0
  2  7  1  6  0  0  0
  2 12  1  0  0  0  0
  3 13  1  0  0  0  0
  4 17  2  0  0  0  0
  5 21  1  0  0  0  0
  6 15  1  0  0  0  0
  7  6  1  0  0  0  0
  8 23  2  0  0  0  0
 10 26  1  0  0  0  0
 10  3  1  0  0  0  0
 11  9  1  6  0  0  0
 11 10  1  0  0  0  0
 12  1  2  0  0  0  0
 12  4  1  0  0  0  0
 13 23  1  0  0  0  0
 14  5  2  0  0  0  0
 15  1  1  0  0  0  0
 16 18  1  0  0  0  0
 17 25  1  0  0  0  0
 17 22  1  0  0  0  0
 18 26  2  0  0  0  0
 19 25  2  0  0  0  0
 20  2  1  0  0  0  0
 21 22  2  0  0  0  0
 22 30  1  0  0  0  0
 23 14  1  0  0  0  0
 24  4  1  0  0  0  0
 24  5  1  0  0  0  0
 26 20  1  0  0  0  0
 27 16  2  0  0  0  0
 27 11  1  0  0  0  0
 28 34  1  1  0  0  0
 28 29  1  0  0  0  0
 30 32  2  0  0  0  0
 30 33  1  0  0  0  0
 31 29  1  0  0  0  0
 32 28  1  0  0  0  0
 33 31  1  0  0  0  0
M  END
>  <MODEL>
9

>  <REMARK>
 VINA RESULT:      -7.1      2.973      7.967
  Name = 
  1 active torsions:
  status: ('A' for Active; 'I' for Inactive)
    1  A    between atoms: C_12  and  C_28
                            x       y       z     vdW  Elec       q    Type
                         _______ _______ _______ _____ _____    ______ ____

>  <TORSDO>
F 1

$$$$
