=
 OpenBabel11052414353D

 32 36  0  0  1  0  0  0  0  0999 V2000
  186.3810  177.4750  144.3800 C   0  0  1  0  0  3  0  0  0  0  0  0
  186.2370  178.1970  141.9850 C   0  0  1  0  0  3  0  0  0  0  0  0
  185.9880  177.8040  145.8330 C   0  0  0  0  0  2  0  0  0  0  0  0
  185.7240  178.4340  143.3980 C   0  0  1  0  0  3  0  0  0  0  0  0
  185.6140  179.2300  141.0440 C   0  0  0  0  0  2  0  0  0  0  0  0
  187.7750  178.2820  141.9550 C   0  0  1  0  0  3  0  0  0  0  0  0
  184.2080  178.2880  143.4670 C   0  0  2  0  0  3  0  0  0  0  0  0
  183.5620  179.3310  142.5560 C   0  0  0  0  0  2  0  0  0  0  0  0
  183.6760  178.3850  144.9070 C   0  0  0  0  0  2  0  0  0  0  0  0
  188.3700  178.3890  143.2430 O   0  0  0  0  0  0  0  0  0  0  0  0
  187.8930  177.3490  144.0780 C   0  0  1  0  0  3  0  0  0  0  0  0
  184.0780  179.2100  141.1130 C   0  0  2  0  0  3  0  0  0  0  0  0
  184.7620  178.7290  145.9380 C   0  0  0  0  0  2  0  0  0  0  0  0
  191.1100  177.1720  146.2750 C   0  0  2  0  0  3  0  0  0  0  0  0
  190.5240  178.6650  148.9010 F   0  0  0  0  0  0  0  0  0  0  0  0
  192.3510  176.6230  145.9990 F   0  0  0  0  0  0  0  0  0  0  0  0
  188.6690  178.2990  147.4590 C   0  0  0  0  0  2  0  0  0  0  0  0
  188.7310  177.2000  145.2690 N   0  0  0  0  0  0  0  0  0  0  0  0
  190.6290  176.6520  147.6210 C   0  0  0  0  0  2  0  0  0  0  0  0
  188.0320  177.2630  146.5490 C   0  0  0  0  0  2  0  0  0  0  0  0
  190.1330  176.8520  145.1720 C   0  0  0  0  0  0  0  0  0  0  0  0
  190.5770  176.3520  144.1010 O   0  0  0  0  0  0  0  0  0  0  0  0
  189.7440  177.6690  148.3450 C   0  0  1  0  0  3  0  0  0  0  0  0
  183.5360  178.0130  140.4540 C   0  0  0  0  0  0  0  0  0  0  0  0
  183.0890  177.0320  139.9130 C   0  0  0  0  0  3  0  0  0  0  0  0
  188.3650  177.1360  141.1350 C   0  0  0  0  0  2  0  0  0  0  0  0
  190.5480  176.6560  140.0190 C   0  0  0  0  0  2  0  0  0  0  0  0
  189.4860  176.6550  137.5420 S   0  0  0  0  0  0  0  0  0  0  0  0
  188.7960  177.7320  138.7800 C   0  0  0  0  0  0  0  0  0  0  0  0
  187.9650  178.5800  138.4970 O   0  0  0  0  0  0  0  0  0  0  0  0
  190.9860  176.6070  138.5620 C   0  0  0  0  0  2  0  0  0  0  0  0
  189.3960  177.6440  140.1370 C   0  0  1  0  0  3  0  0  0  0  0  0
  1  3  1  1  0  0  0
  2  5  1  6  0  0  0
  2  4  1  0  0  0  0
  3 13  1  0  0  0  0
  4  7  1  0  0  0  0
  4  1  1  0  0  0  0
  5 12  1  0  0  0  0
  6  2  1  0  0  0  0
  6 10  1  0  0  0  0
  7  9  1  0  0  0  0
  8  7  1  0  0  0  0
  9 13  1  0  0  0  0
 10 11  1  0  0  0  0
 11  1  1  0  0  0  0
 11 18  1  0  0  0  0
 12  8  1  0  0  0  0
 14 19  1  0  0  0  0
 16 14  1  0  0  0  0
 17 23  1  0  0  0  0
 18 20  1  0  0  0  0
 19 23  1  0  0  0  0
 20 17  1  0  0  0  0
 21 18  1  0  0  0  0
 21 14  1  0  0  0  0
 22 21  2  0  0  0  0
 23 15  1  0  0  0  0
 24 12  1  0  0  0  0
 25 24  3  0  0  0  0
 26  6  1  0  0  0  0
 27 32  1  0  0  0  0
 28 31  1  0  0  0  0
 28 29  1  0  0  0  0
 29 32  1  0  0  0  0
 30 29  2  0  0  0  0
 31 27  1  0  0  0  0
 32 26  1  0  0  0  0
M  END
>  <MODEL>
1

>  <REMARK>
 VINA RESULT:      -9.3      0.000      0.000
  Name = 
  4 active torsions:
  status: ('A' for Active; 'I' for Inactive)
    1  A    between atoms: C_10  and  C_28
    2  A    between atoms: C_13  and  C_29
    3  A    between atoms: N_16  and  C_27
    4  A    between atoms: C_28  and  C_32
                            x       y       z     vdW  Elec       q    Type
                         _______ _______ _______ _____ _____    ______ ____

>  <TORSDO>
F 4

$$$$
=
 OpenBabel11052414353D

 32 36  0  0  1  0  0  0  0  0999 V2000
  186.0600  178.7920  144.2630 C   0  0  1  0  0  3  0  0  0  0  0  0
  188.0960  177.8110  143.1830 C   0  0  1  0  0  3  0  0  0  0  0  0
  185.0660  178.6860  145.4360 C   0  0  0  0  0  2  0  0  0  0  0  0
  187.2060  177.8030  144.4170 C   0  0  1  0  0  3  0  0  0  0  0  0
  189.1870  176.7490  143.3430 C   0  0  0  0  0  2  0  0  0  0  0  0
  187.2560  177.5510  141.9180 C   0  0  1  0  0  3  0  0  0  0  0  0
  188.0040  178.1250  145.6750 C   0  0  2  0  0  3  0  0  0  0  0  0
  189.0820  177.0600  145.8730 C   0  0  0  0  0  2  0  0  0  0  0  0
  187.1060  178.2610  146.9180 C   0  0  0  0  0  2  0  0  0  0  0  0
  185.8530  177.5320  142.1530 O   0  0  0  0  0  0  0  0  0  0  0  0
  185.4670  178.7110  142.8370 C   0  0  1  0  0  3  0  0  0  0  0  0
  189.9910  176.9500  144.6380 C   0  0  2  0  0  3  0  0  0  0  0  0
  185.6320  177.9230  146.6470 C   0  0  0  0  0  2  0  0  0  0  0  0
  181.8000  178.4420  141.5370 C   0  0  2  0  0  3  0  0  0  0  0  0
  179.9790  178.0110  143.9800 F   0  0  0  0  0  0  0  0  0  0  0  0
  181.3080  178.4600  140.2440 F   0  0  0  0  0  0  0  0  0  0  0  0
  182.2510  178.5410  144.4390 C   0  0  0  0  0  2  0  0  0  0  0  0
  184.0170  178.9050  142.7790 N   0  0  0  0  0  0  0  0  0  0  0  0
  181.0200  179.4410  142.3770 C   0  0  0  0  0  2  0  0  0  0  0  0
  183.3990  179.4310  143.9920 C   0  0  0  0  0  2  0  0  0  0  0  0
  183.2780  178.7400  141.5450 C   0  0  0  0  0  0  0  0  0  0  0  0
  183.8950  178.7510  140.4440 O   0  0  0  0  0  0  0  0  0  0  0  0
  180.9250  179.0090  143.8420 C   0  0  1  0  0  3  0  0  0  0  0  0
  190.8840  178.1130  144.5300 C   0  0  0  0  0  0  0  0  0  0  0  0
  191.6150  179.0670  144.4400 C   0  0  0  0  0  3  0  0  0  0  0  0
  187.6450  178.5170  140.8010 C   0  0  0  0  0  2  0  0  0  0  0  0
  186.7920  178.1320  138.4850 C   0  0  0  0  0  2  0  0  0  0  0  0
  189.0320  179.0640  137.3110 S   0  0  0  0  0  0  0  0  0  0  0  0
  189.1590  178.2230  138.8750 C   0  0  0  0  0  0  0  0  0  0  0  0
  190.2420  177.9170  139.3490 O   0  0  0  0  0  0  0  0  0  0  0  0
  187.4310  178.2340  137.1070 C   0  0  0  0  0  2  0  0  0  0  0  0
  187.8810  177.7800  139.4900 C   0  0  1  0  0  3  0  0  0  0  0  0
  1  4  1  0  0  0  0
  1  3  1  1  0  0  0
  2  5  1  1  0  0  0
  2  4  1  0  0  0  0
  3 13  1  0  0  0  0
  4  7  1  0  0  0  0
  5 12  1  0  0  0  0
  6 10  1  0  0  0  0
  6  2  1  0  0  0  0
  7  8  1  0  0  0  0
  7  9  1  0  0  0  0
 10 11  1  0  0  0  0
 11  1  1  0  0  0  0
 12  8  1  0  0  0  0
 13  9  1  0  0  0  0
 14 21  1  0  0  0  0
 14 19  1  0  0  0  0
 16 14  1  0  0  0  0
 18 11  1  0  0  0  0
 18 20  1  0  0  0  0
 19 23  1  0  0  0  0
 20 17  1  0  0  0  0
 21 18  1  0  0  0  0
 22 21  2  0  0  0  0
 23 15  1  0  0  0  0
 23 17  1  0  0  0  0
 24 12  1  0  0  0  0
 25 24  3  0  0  0  0
 26  6  1  0  0  0  0
 27 32  1  0  0  0  0
 28 29  1  0  0  0  0
 29 30  2  0  0  0  0
 29 32  1  0  0  0  0
 31 28  1  0  0  0  0
 31 27  1  0  0  0  0
 32 26  1  0  0  0  0
M  END
>  <MODEL>
2

>  <REMARK>
 VINA RESULT:      -9.1      3.673      6.343
  Name = 
  4 active torsions:
  status: ('A' for Active; 'I' for Inactive)
    1  A    between atoms: C_10  and  C_28
    2  A    between atoms: C_13  and  C_29
    3  A    between atoms: N_16  and  C_27
    4  A    between atoms: C_28  and  C_32
                            x       y       z     vdW  Elec       q    Type
                         _______ _______ _______ _____ _____    ______ ____

>  <TORSDO>
F 4

$$$$
=
 OpenBabel11052414353D

 32 36  0  0  1  0  0  0  0  0999 V2000
  183.9670  178.0600  142.4430 C   0  0  1  0  0  3  0  0  0  0  0  0
  184.5530  178.8120  140.1270 C   0  0  1  0  0  3  0  0  0  0  0  0
  183.0900  178.3240  143.6820 C   0  0  0  0  0  2  0  0  0  0  0  0
  183.5850  178.9750  141.2890 C   0  0  1  0  0  3  0  0  0  0  0  0
  184.1830  179.8030  139.0210 C   0  0  0  0  0  2  0  0  0  0  0  0
  186.0010  179.0340  140.6030 C   0  0  1  0  0  3  0  0  0  0  0  0
  182.1510  178.6930  140.8570 C   0  0  2  0  0  3  0  0  0  0  0  0
  181.7480  179.6910  139.7720 C   0  0  0  0  0  2  0  0  0  0  0  0
  181.1680  178.7140  142.0410 C   0  0  0  0  0  2  0  0  0  0  0  0
  186.1280  179.1700  142.0140 O   0  0  0  0  0  0  0  0  0  0  0  0
  185.4990  178.0760  142.6570 C   0  0  1  0  0  3  0  0  0  0  0  0
  182.7180  179.6440  138.5810 C   0  0  2  0  0  3  0  0  0  0  0  0
  181.8190  179.1340  143.3680 C   0  0  0  0  0  2  0  0  0  0  0  0
  187.8220  177.6030  145.7540 C   0  0  2  0  0  3  0  0  0  0  0  0
  186.9960  179.6890  147.8610 F   0  0  0  0  0  0  0  0  0  0  0  0
  188.8840  176.7380  145.9500 F   0  0  0  0  0  0  0  0  0  0  0  0
  185.5720  179.4810  145.9680 C   0  0  0  0  0  2  0  0  0  0  0  0
  185.9090  177.9800  144.0600 N   0  0  0  0  0  0  0  0  0  0  0  0
  186.8710  177.4920  146.9350 C   0  0  0  0  0  2  0  0  0  0  0  0
  184.9380  178.4600  145.0380 C   0  0  0  0  0  2  0  0  0  0  0  0
  187.1280  177.3040  144.4490 C   0  0  0  0  0  0  0  0  0  0  0  0
  187.6850  176.5090  143.6410 O   0  0  0  0  0  0  0  0  0  0  0  0
  186.1460  178.8110  147.2150 C   0  0  1  0  0  3  0  0  0  0  0  0
  182.5340  178.4160  137.7940 C   0  0  0  0  0  0  0  0  0  0  0  0
  182.3830  177.4100  137.1460 C   0  0  0  0  0  3  0  0  0  0  0  0
  186.9300  177.9620  140.0360 C   0  0  0  0  0  2  0  0  0  0  0  0
  189.2230  177.4070  140.8570 C   0  0  0  0  0  2  0  0  0  0  0  0
  190.2770  177.2950  138.3800 S   0  0  0  0  0  0  0  0  0  0  0  0
  188.9520  178.4380  138.7060 C   0  0  0  0  0  0  0  0  0  0  0  0
  188.6180  179.2790  137.8860 O   0  0  0  0  0  0  0  0  0  0  0  0
  190.5750  177.2830  140.1700 C   0  0  0  0  0  2  0  0  0  0  0  0
  188.3830  178.4110  140.0780 C   0  0  1  0  0  3  0  0  0  0  0  0
  1 11  1  0  0  0  0
  1  3  1  1  0  0  0
  2  5  1  6  0  0  0
  2  6  1  0  0  0  0
  2  4  1  0  0  0  0
  4  1  1  0  0  0  0
  6 10  1  0  0  0  0
  7  4  1  0  0  0  0
  7  9  1  0  0  0  0
  8  7  1  0  0  0  0
  9 13  1  0  0  0  0
 10 11  1  0  0  0  0
 11 18  1  0  0  0  0
 12  5  1  0  0  0  0
 12  8  1  0  0  0  0
 13  3  1  0  0  0  0
 14 16  1  0  0  0  0
 14 19  1  0  0  0  0
 17 23  1  0  0  0  0
 18 21  1  0  0  0  0
 18 20  1  0  0  0  0
 19 23  1  0  0  0  0
 20 17  1  0  0  0  0
 21 14  1  0  0  0  0
 22 21  2  0  0  0  0
 23 15  1  0  0  0  0
 24 12  1  0  0  0  0
 25 24  3  0  0  0  0
 26 32  1  0  0  0  0
 26  6  1  0  0  0  0
 28 29  1  0  0  0  0
 28 31  1  0  0  0  0
 29 32  1  0  0  0  0
 30 29  2  0  0  0  0
 31 27  1  0  0  0  0
 32 27  1  0  0  0  0
M  END
>  <MODEL>
3

>  <REMARK>
 VINA RESULT:      -8.9      1.972      2.974
  Name = 
  4 active torsions:
  status: ('A' for Active; 'I' for Inactive)
    1  A    between atoms: C_10  and  C_28
    2  A    between atoms: C_13  and  C_29
    3  A    between atoms: N_16  and  C_27
    4  A    between atoms: C_28  and  C_32
                            x       y       z     vdW  Elec       q    Type
                         _______ _______ _______ _____ _____    ______ ____

>  <TORSDO>
F 4

$$$$
=
 OpenBabel11052414353D

 32 36  0  0  1  0  0  0  0  0999 V2000
  187.2640  178.5560  142.2010 C   0  0  1  0  0  3  0  0  0  0  0  0
  187.3280  177.6270  144.5260 C   0  0  1  0  0  3  0  0  0  0  0  0
  186.4060  178.7670  140.9390 C   0  0  0  0  0  2  0  0  0  0  0  0
  186.4410  177.9720  143.3390 C   0  0  1  0  0  3  0  0  0  0  0  0
  186.4770  176.9700  145.6160 C   0  0  0  0  0  2  0  0  0  0  0  0
  188.4720  176.6940  144.0840 C   0  0  1  0  0  3  0  0  0  0  0  0
  185.3400  178.9480  143.7380 C   0  0  2  0  0  3  0  0  0  0  0  0
  184.4580  178.3020  144.8050 C   0  0  0  0  0  2  0  0  0  0  0  0
  184.5130  179.4220  142.5290 C   0  0  0  0  0  2  0  0  0  0  0  0
  188.5470  176.5040  142.6770 O   0  0  0  0  0  0  0  0  0  0  0  0
  188.5790  177.7610  142.0250 C   0  0  1  0  0  3  0  0  0  0  0  0
  185.2870  177.8560  146.0210 C   0  0  2  0  0  3  0  0  0  0  0  0
  184.8920  178.7200  141.2160 C   0  0  0  0  0  2  0  0  0  0  0  0
  190.6740  176.5670  138.9600 C   0  0  2  0  0  3  0  0  0  0  0  0
  188.7090  175.9830  136.6640 F   0  0  0  0  0  0  0  0  0  0  0  0
  192.0350  176.3520  138.8380 F   0  0  0  0  0  0  0  0  0  0  0  0
  187.7980  177.0430  138.5890 C   0  0  0  0  0  2  0  0  0  0  0  0
  189.0150  177.6250  140.6340 N   0  0  0  0  0  0  0  0  0  0  0  0
  190.2080  177.4470  137.8090 C   0  0  0  0  0  2  0  0  0  0  0  0
  188.0810  178.1160  139.6260 C   0  0  0  0  0  2  0  0  0  0  0  0
  190.3530  177.1830  140.2980 C   0  0  0  0  0  0  0  0  0  0  0  0
  191.2600  177.2240  141.1740 O   0  0  0  0  0  0  0  0  0  0  0  0
  188.7620  177.1480  137.4070 C   0  0  1  0  0  3  0  0  0  0  0  0
  185.7340  179.0120  146.8110 C   0  0  0  0  0  0  0  0  0  0  0  0
  186.1010  179.9590  147.4620 C   0  0  0  0  0  3  0  0  0  0  0  0
  189.8030  177.1480  144.6810 C   0  0  0  0  0  2  0  0  0  0  0  0
  191.7510  175.9120  145.6390 C   0  0  0  0  0  2  0  0  0  0  0  0
  191.6040  177.1640  148.0210 S   0  0  0  0  0  0  0  0  0  0  0  0
  190.1050  176.8530  147.1120 C   0  0  0  0  0  0  0  0  0  0  0  0
  189.0060  177.0450  147.6070 O   0  0  0  0  0  0  0  0  0  0  0  0
  192.3610  175.8440  147.0320 C   0  0  0  0  0  2  0  0  0  0  0  0
  190.2640  176.2050  145.7840 C   0  0  1  0  0  3  0  0  0  0  0  0
  1  3  1  6  0  0  0
  1  4  1  0  0  0  0
  2  5  1  1  0  0  0
  3 13  1  0  0  0  0
  4  7  1  0  0  0  0
  4  2  1  0  0  0  0
  5 12  1  0  0  0  0
  6  2  1  0  0  0  0
  6 26  1  0  0  0  0
  7  8  1  0  0  0  0
  8 12  1  0  0  0  0
  9  7  1  0  0  0  0
 10  6  1  0  0  0  0
 11  1  1  0  0  0  0
 11 10  1  0  0  0  0
 12 24  1  0  0  0  0
 13  9  1  0  0  0  0
 14 21  1  0  0  0  0
 15 23  1  0  0  0  0
 16 14  1  0  0  0  0
 17 20  1  0  0  0  0
 18 11  1  0  0  0  0
 19 14  1  0  0  0  0
 20 18  1  0  0  0  0
 21 18  1  0  0  0  0
 21 22  2  0  0  0  0
 23 19  1  0  0  0  0
 23 17  1  0  0  0  0
 24 25  3  0  0  0  0
 26 32  1  0  0  0  0
 27 32  1  0  0  0  0
 27 31  1  0  0  0  0
 29 30  2  0  0  0  0
 29 28  1  0  0  0  0
 31 28  1  0  0  0  0
 32 29  1  0  0  0  0
M  END
>  <MODEL>
4

>  <REMARK>
 VINA RESULT:      -8.8      3.377      6.541
  Name = 
  4 active torsions:
  status: ('A' for Active; 'I' for Inactive)
    1  A    between atoms: C_10  and  C_28
    2  A    between atoms: C_13  and  C_29
    3  A    between atoms: N_16  and  C_27
    4  A    between atoms: C_28  and  C_32
                            x       y       z     vdW  Elec       q    Type
                         _______ _______ _______ _____ _____    ______ ____

>  <TORSDO>
F 4

$$$$
=
 OpenBabel11052414353D

 32 36  0  0  1  0  0  0  0  0999 V2000
  186.5580  177.6600  143.0160 C   0  0  1  0  0  3  0  0  0  0  0  0
  185.5790  178.3640  140.8210 C   0  0  1  0  0  3  0  0  0  0  0  0
  186.6160  177.9380  144.5310 C   0  0  0  0  0  2  0  0  0  0  0  0
  185.5220  178.5380  142.3310 C   0  0  1  0  0  3  0  0  0  0  0  0
  184.5800  179.3200  140.1660 C   0  0  0  0  0  2  0  0  0  0  0  0
  187.0080  178.6270  140.3080 C   0  0  1  0  0  3  0  0  0  0  0  0
  184.1330  178.2180  142.8710 C   0  0  2  0  0  3  0  0  0  0  0  0
  183.1190  179.1800  142.2540 C   0  0  0  0  0  2  0  0  0  0  0  0
  184.0810  178.2500  144.4090 C   0  0  0  0  0  2  0  0  0  0  0  0
  187.9680  178.8000  141.3440 O   0  0  0  0  0  0  0  0  0  0  0  0
  187.8990  177.7100  142.2460 C   0  0  1  0  0  3  0  0  0  0  0  0
  183.1580  179.1220  140.7180 C   0  0  2  0  0  3  0  0  0  0  0  0
  185.3950  178.7150  145.0550 C   0  0  0  0  0  2  0  0  0  0  0  0
  191.3290  176.5050  143.6570 C   0  0  2  0  0  3  0  0  0  0  0  0
  192.9820  179.0090  144.3440 F   0  0  0  0  0  0  0  0  0  0  0  0
  191.8340  175.2250  143.8040 F   0  0  0  0  0  0  0  0  0  0  0  0
  190.7060  179.3740  143.7600 C   0  0  0  0  0  2  0  0  0  0  0  0
  189.0850  177.6570  143.1040 N   0  0  0  0  0  0  0  0  0  0  0  0
  191.4900  177.2530  144.9710 C   0  0  0  0  0  2  0  0  0  0  0  0
  189.3040  178.8220  143.9560 C   0  0  0  0  0  2  0  0  0  0  0  0
  189.8890  176.4580  143.2130 C   0  0  0  0  0  0  0  0  0  0  0  0
  189.4100  175.3520  142.8410 O   0  0  0  0  0  0  0  0  0  0  0  0
  191.6870  178.7560  144.7550 C   0  0  1  0  0  3  0  0  0  0  0  0
  182.5670  177.8720  140.2190 C   0  0  0  0  0  0  0  0  0  0  0  0
  182.0840  176.8460  139.8100 C   0  0  0  0  0  3  0  0  0  0  0  0
  187.4270  177.5590  139.3000 C   0  0  0  0  0  2  0  0  0  0  0  0
  189.6630  176.7420  138.5400 C   0  0  0  0  0  2  0  0  0  0  0  0
  189.1670  177.2560  135.9410 S   0  0  0  0  0  0  0  0  0  0  0  0
  188.4510  178.3100  137.1840 C   0  0  0  0  0  0  0  0  0  0  0  0
  187.8770  179.3460  136.8900 O   0  0  0  0  0  0  0  0  0  0  0  0
  190.3810  176.7650  137.1980 C   0  0  0  0  0  2  0  0  0  0  0  0
  188.7230  177.9390  138.5970 C   0  0  1  0  0  3  0  0  0  0  0  0
  1  3  1  1  0  0  0
  2  5  1  6  0  0  0
  2  4  1  0  0  0  0
  3 13  1  0  0  0  0
  4  7  1  0  0  0  0
  4  1  1  0  0  0  0
  5 12  1  0  0  0  0
  6  2  1  0  0  0  0
  6 10  1  0  0  0  0
  7  9  1  0  0  0  0
  8  7  1  0  0  0  0
  9 13  1  0  0  0  0
 10 11  1  0  0  0  0
 11  1  1  0  0  0  0
 11 18  1  0  0  0  0
 12  8  1  0  0  0  0
 14 16  1  0  0  0  0
 14 19  1  0  0  0  0
 15 23  1  0  0  0  0
 17 20  1  0  0  0  0
 17 23  1  0  0  0  0
 18 21  1  0  0  0  0
 18 20  1  0  0  0  0
 21 14  1  0  0  0  0
 22 21  2  0  0  0  0
 23 19  1  0  0  0  0
 24 12  1  0  0  0  0
 25 24  3  0  0  0  0
 26  6  1  0  0  0  0
 27 32  1  0  0  0  0
 28 29  1  0  0  0  0
 28 31  1  0  0  0  0
 29 32  1  0  0  0  0
 30 29  2  0  0  0  0
 31 27  1  0  0  0  0
 32 26  1  0  0  0  0
M  END
>  <MODEL>
5

>  <REMARK>
 VINA RESULT:      -8.7      1.948      2.215
  Name = 
  4 active torsions:
  status: ('A' for Active; 'I' for Inactive)
    1  A    between atoms: C_10  and  C_28
    2  A    between atoms: C_13  and  C_29
    3  A    between atoms: N_16  and  C_27
    4  A    between atoms: C_28  and  C_32
                            x       y       z     vdW  Elec       q    Type
                         _______ _______ _______ _____ _____    ______ ____

>  <TORSDO>
F 4

$$$$
=
 OpenBabel11052414353D

 32 36  0  0  1  0  0  0  0  0999 V2000
  186.6030  177.5950  143.3940 C   0  0  1  0  0  3  0  0  0  0  0  0
  185.9450  178.3290  141.0920 C   0  0  1  0  0  3  0  0  0  0  0  0
  186.4750  177.8760  144.9040 C   0  0  0  0  0  2  0  0  0  0  0  0
  185.6990  178.5090  142.5820 C   0  0  1  0  0  3  0  0  0  0  0  0
  185.0750  179.3200  140.3140 C   0  0  0  0  0  2  0  0  0  0  0  0
  187.4370  178.5350  140.7690 C   0  0  1  0  0  3  0  0  0  0  0  0
  184.2400  178.2440  142.9370 C   0  0  2  0  0  3  0  0  0  0  0  0
  183.3530  179.2420  142.1940 C   0  0  0  0  0  2  0  0  0  0  0  0
  183.9910  178.2830  144.4550 C   0  0  0  0  0  2  0  0  0  0  0  0
  188.2600  178.6750  141.9210 O   0  0  0  0  0  0  0  0  0  0  0  0
  188.0340  177.5920  142.8050 C   0  0  1  0  0  3  0  0  0  0  0  0
  183.5870  179.1770  140.6770 C   0  0  2  0  0  3  0  0  0  0  0  0
  185.2270  178.7010  145.2670 C   0  0  0  0  0  2  0  0  0  0  0  0
  191.2030  178.5550  144.8630 C   0  0  2  0  0  3  0  0  0  0  0  0
  190.6290  177.8940  147.8140 F   0  0  0  0  0  0  0  0  0  0  0  0
  192.3870  179.1440  144.4560 F   0  0  0  0  0  0  0  0  0  0  0  0
  189.0260  177.1320  146.2310 C   0  0  0  0  0  2  0  0  0  0  0  0
  189.0950  177.4980  143.8090 N   0  0  0  0  0  0  0  0  0  0  0  0
  191.5250  177.3120  145.6790 C   0  0  0  0  0  2  0  0  0  0  0  0
  188.8910  176.5010  144.8560 C   0  0  0  0  0  2  0  0  0  0  0  0
  190.3350  178.2320  143.6730 C   0  0  0  0  0  0  0  0  0  0  0  0
  190.6610  178.7000  142.5470 O   0  0  0  0  0  0  0  0  0  0  0  0
  190.4630  177.0340  146.7450 C   0  0  1  0  0  3  0  0  0  0  0  0
  183.0200  177.9490  140.1030 C   0  0  0  0  0  0  0  0  0  0  0  0
  182.5540  176.9410  139.6310 C   0  0  0  0  0  3  0  0  0  0  0  0
  187.9420  177.4480  139.8220 C   0  0  0  0  0  2  0  0  0  0  0  0
  190.2180  176.5900  139.2520 C   0  0  0  0  0  2  0  0  0  0  0  0
  189.9690  177.1520  136.6280 S   0  0  0  0  0  0  0  0  0  0  0  0
  189.1680  178.2050  137.8190 C   0  0  0  0  0  0  0  0  0  0  0  0
  188.6460  179.2590  137.4910 O   0  0  0  0  0  0  0  0  0  0  0  0
  191.0530  176.6140  137.9800 C   0  0  0  0  0  2  0  0  0  0  0  0
  189.3040  177.8080  139.2440 C   0  0  1  0  0  3  0  0  0  0  0  0
  1  3  1  1  0  0  0
  2  5  1  6  0  0  0
  2  4  1  0  0  0  0
  3 13  1  0  0  0  0
  4  7  1  0  0  0  0
  4  1  1  0  0  0  0
  5 12  1  0  0  0  0
  6  2  1  0  0  0  0
  6 10  1  0  0  0  0
  7  9  1  0  0  0  0
  8  7  1  0  0  0  0
  9 13  1  0  0  0  0
 10 11  1  0  0  0  0
 11  1  1  0  0  0  0
 11 18  1  0  0  0  0
 12  8  1  0  0  0  0
 14 19  1  0  0  0  0
 16 14  1  0  0  0  0
 17 23  1  0  0  0  0
 18 20  1  0  0  0  0
 19 23  1  0  0  0  0
 20 17  1  0  0  0  0
 21 18  1  0  0  0  0
 21 14  1  0  0  0  0
 22 21  2  0  0  0  0
 23 15  1  0  0  0  0
 24 12  1  0  0  0  0
 25 24  3  0  0  0  0
 26  6  1  0  0  0  0
 28 29  1  0  0  0  0
 28 31  1  0  0  0  0
 29 32  1  0  0  0  0
 30 29  2  0  0  0  0
 31 27  1  0  0  0  0
 32 27  1  0  0  0  0
 32 26  1  0  0  0  0
M  END
>  <MODEL>
6

>  <REMARK>
 VINA RESULT:      -8.5      1.251      1.429
  Name = 
  4 active torsions:
  status: ('A' for Active; 'I' for Inactive)
    1  A    between atoms: C_10  and  C_28
    2  A    between atoms: C_13  and  C_29
    3  A    between atoms: N_16  and  C_27
    4  A    between atoms: C_28  and  C_32
                            x       y       z     vdW  Elec       q    Type
                         _______ _______ _______ _____ _____    ______ ____

>  <TORSDO>
F 4

$$$$
=
 OpenBabel11052414353D

 32 36  0  0  1  0  0  0  0  0999 V2000
  186.7080  178.6030  142.8600 C   0  0  1  0  0  3  0  0  0  0  0  0
  188.9800  177.7730  142.2090 C   0  0  1  0  0  3  0  0  0  0  0  0
  185.4780  178.3690  143.7580 C   0  0  0  0  0  2  0  0  0  0  0  0
  187.8320  177.6350  143.1980 C   0  0  1  0  0  3  0  0  0  0  0  0
  190.0530  176.7310  142.5350 C   0  0  0  0  0  2  0  0  0  0  0  0
  188.4650  177.6000  140.7680 C   0  0  1  0  0  3  0  0  0  0  0  0
  188.3050  177.8690  144.6290 C   0  0  2  0  0  3  0  0  0  0  0  0
  189.3570  176.8210  144.9880 C   0  0  0  0  0  2  0  0  0  0  0  0
  187.1420  177.8740  145.6360 C   0  0  0  0  0  2  0  0  0  0  0  0
  187.0490  177.5230  140.6680 O   0  0  0  0  0  0  0  0  0  0  0  0
  186.4620  178.6280  141.3330 C   0  0  1  0  0  3  0  0  0  0  0  0
  190.5290  176.8420  143.9940 C   0  0  2  0  0  3  0  0  0  0  0  0
  185.7860  177.5210  145.0050 C   0  0  0  0  0  2  0  0  0  0  0  0
  183.2290  178.4640  139.1590 C   0  0  2  0  0  3  0  0  0  0  0  0
  180.9170  177.5990  140.9980 F   0  0  0  0  0  0  0  0  0  0  0  0
  183.0530  178.6730  137.8030 F   0  0  0  0  0  0  0  0  0  0  0  0
  182.9790  178.1140  142.0660 C   0  0  0  0  0  2  0  0  0  0  0  0
  185.0570  178.7880  140.9550 N   0  0  0  0  0  0  0  0  0  0  0  0
  182.2090  179.2950  139.9230 C   0  0  0  0  0  2  0  0  0  0  0  0
  184.1380  179.0960  142.0460 C   0  0  0  0  0  2  0  0  0  0  0  0
  184.6400  178.7990  139.5680 C   0  0  0  0  0  0  0  0  0  0  0  0
  185.4960  179.0030  138.6630 O   0  0  0  0  0  0  0  0  0  0  0  0
  181.8010  178.6330  141.2410 C   0  0  1  0  0  3  0  0  0  0  0  0
  191.3680  178.0330  144.1860 C   0  0  0  0  0  0  0  0  0  0  0  0
  192.0560  179.0110  144.3440 C   0  0  0  0  0  3  0  0  0  0  0  0
  189.0560  178.6680  139.8490 C   0  0  0  0  0  2  0  0  0  0  0  0
  189.7440  176.5520  138.7150 C   0  0  0  0  0  2  0  0  0  0  0  0
  187.8770  176.7680  136.7840 S   0  0  0  0  0  0  0  0  0  0  0  0
  188.5970  178.2480  137.4610 C   0  0  0  0  0  0  0  0  0  0  0  0
  188.3880  179.3450  136.9680 O   0  0  0  0  0  0  0  0  0  0  0  0
  189.3390  175.8910  137.4050 C   0  0  0  0  0  2  0  0  0  0  0  0
  189.5820  178.0580  138.5580 C   0  0  1  0  0  3  0  0  0  0  0  0
  1  4  1  0  0  0  0
  1  3  1  1  0  0  0
  2  5  1  1  0  0  0
  2  4  1  0  0  0  0
  3 13  1  0  0  0  0
  4  7  1  0  0  0  0
  5 12  1  0  0  0  0
  6  2  1  0  0  0  0
  7  8  1  0  0  0  0
  7  9  1  0  0  0  0
 10  6  1  0  0  0  0
 10 11  1  0  0  0  0
 11  1  1  0  0  0  0
 12 24  1  0  0  0  0
 12  8  1  0  0  0  0
 13  9  1  0  0  0  0
 14 21  1  0  0  0  0
 14 19  1  0  0  0  0
 15 23  1  0  0  0  0
 16 14  1  0  0  0  0
 18 11  1  0  0  0  0
 18 20  1  0  0  0  0
 19 23  1  0  0  0  0
 20 17  1  0  0  0  0
 21 18  1  0  0  0  0
 22 21  2  0  0  0  0
 23 17  1  0  0  0  0
 24 25  3  0  0  0  0
 26  6  1  0  0  0  0
 28 31  1  0  0  0  0
 28 29  1  0  0  0  0
 29 32  1  0  0  0  0
 30 29  2  0  0  0  0
 31 27  1  0  0  0  0
 32 27  1  0  0  0  0
 32 26  1  0  0  0  0
M  END
>  <MODEL>
7

>  <REMARK>
 VINA RESULT:      -8.3      3.752      6.501
  Name = 
  4 active torsions:
  status: ('A' for Active; 'I' for Inactive)
    1  A    between atoms: C_10  and  C_28
    2  A    between atoms: C_13  and  C_29
    3  A    between atoms: N_16  and  C_27
    4  A    between atoms: C_28  and  C_32
                            x       y       z     vdW  Elec       q    Type
                         _______ _______ _______ _____ _____    ______ ____

>  <TORSDO>
F 4

$$$$
=
 OpenBabel11052414353D

 32 36  0  0  1  0  0  0  0  0999 V2000
  188.2410  177.2910  140.6560 C   0  0  1  0  0  3  0  0  0  0  0  0
  189.0570  177.2320  138.2880 C   0  0  1  0  0  3  0  0  0  0  0  0
  187.4700  178.1020  141.7150 C   0  0  0  0  0  2  0  0  0  0  0  0
  188.1700  177.9560  139.2900 C   0  0  1  0  0  3  0  0  0  0  0  0
  189.0200  177.9760  136.9520 C   0  0  0  0  0  2  0  0  0  0  0  0
  190.4980  177.1350  138.8250 C   0  0  1  0  0  3  0  0  0  0  0  0
  186.7240  178.0060  138.8110 C   0  0  2  0  0  3  0  0  0  0  0  0
  186.6570  178.7720  137.4910 C   0  0  0  0  0  2  0  0  0  0  0  0
  185.7790  178.6100  139.8660 C   0  0  0  0  0  2  0  0  0  0  0  0
  190.6420  177.5770  140.1690 O   0  0  0  0  0  0  0  0  0  0  0  0
  189.7020  176.9130  140.9940 C   0  0  1  0  0  3  0  0  0  0  0  0
  187.5820  178.1460  136.4340 C   0  0  2  0  0  3  0  0  0  0  0  0
  186.5100  179.1410  141.1080 C   0  0  0  0  0  2  0  0  0  0  0  0
  191.1840  178.4730  144.2470 C   0  0  2  0  0  3  0  0  0  0  0  0
  189.1220  178.0640  146.4950 F   0  0  0  0  0  0  0  0  0  0  0  0
  192.3690  179.1570  144.4490 F   0  0  0  0  0  0  0  0  0  0  0  0
  188.6820  176.9450  144.4430 C   0  0  0  0  0  2  0  0  0  0  0  0
  190.0460  177.0570  142.4100 N   0  0  0  0  0  0  0  0  0  0  0  0
  191.0650  177.3730  145.2900 C   0  0  0  0  0  2  0  0  0  0  0  0
  189.3490  176.1600  143.3270 C   0  0  0  0  0  2  0  0  0  0  0  0
  191.1240  177.9210  142.8450 C   0  0  0  0  0  0  0  0  0  0  0  0
  191.9900  178.3030  142.0100 O   0  0  0  0  0  0  0  0  0  0  0  0
  189.6070  177.0810  145.6520 C   0  0  1  0  0  3  0  0  0  0  0  0
  187.0430  176.8690  135.9460 C   0  0  0  0  0  0  0  0  0  0  0  0
  186.6000  175.8220  135.5430 C   0  0  0  0  0  3  0  0  0  0  0  0
  191.0630  175.7320  138.6110 C   0  0  0  0  0  2  0  0  0  0  0  0
  193.1560  176.3980  137.4200 C   0  0  0  0  0  2  0  0  0  0  0  0
  193.9440  173.8540  137.0080 S   0  0  0  0  0  0  0  0  0  0  0  0
  192.2050  174.2290  137.0210 C   0  0  0  0  0  0  0  0  0  0  0  0
  191.3700  173.4020  136.6910 O   0  0  0  0  0  0  0  0  0  0  0  0
  194.2210  175.6150  136.6660 C   0  0  0  0  0  2  0  0  0  0  0  0
  191.8390  175.6420  137.3040 C   0  0  1  0  0  3  0  0  0  0  0  0
  1 11  1  0  0  0  0
  1  3  1  1  0  0  0
  2  5  1  6  0  0  0
  2  6  1  0  0  0  0
  2  4  1  0  0  0  0
  4  1  1  0  0  0  0
  6 10  1  0  0  0  0
  7  4  1  0  0  0  0
  7  9  1  0  0  0  0
  8  7  1  0  0  0  0
  9 13  1  0  0  0  0
 10 11  1  0  0  0  0
 11 18  1  0  0  0  0
 12  5  1  0  0  0  0
 12  8  1  0  0  0  0
 13  3  1  0  0  0  0
 14 16  1  0  0  0  0
 14 19  1  0  0  0  0
 17 23  1  0  0  0  0
 18 21  1  0  0  0  0
 18 20  1  0  0  0  0
 19 23  1  0  0  0  0
 20 17  1  0  0  0  0
 21 14  1  0  0  0  0
 22 21  2  0  0  0  0
 23 15  1  0  0  0  0
 24 12  1  0  0  0  0
 25 24  3  0  0  0  0
 26  6  1  0  0  0  0
 28 29  1  0  0  0  0
 29 32  1  0  0  0  0
 30 29  2  0  0  0  0
 31 28  1  0  0  0  0
 31 27  1  0  0  0  0
 32 27  1  0  0  0  0
 32 26  1  0  0  0  0
M  END
>  <MODEL>
8

>  <REMARK>
 VINA RESULT:      -8.1      2.683      4.432
  Name = 
  4 active torsions:
  status: ('A' for Active; 'I' for Inactive)
    1  A    between atoms: C_10  and  C_28
    2  A    between atoms: C_13  and  C_29
    3  A    between atoms: N_16  and  C_27
    4  A    between atoms: C_28  and  C_32
                            x       y       z     vdW  Elec       q    Type
                         _______ _______ _______ _____ _____    ______ ____

>  <TORSDO>
F 4

$$$$
=
 OpenBabel11052414353D

 32 36  0  0  1  0  0  0  0  0999 V2000
  188.1640  178.3500  140.5950 C   0  0  1  0  0  3  0  0  0  0  0  0
  187.1380  177.8460  142.8240 C   0  0  1  0  0  3  0  0  0  0  0  0
  187.9930  178.2590  139.0670 C   0  0  0  0  0  2  0  0  0  0  0  0
  186.9060  177.8970  141.3210 C   0  0  1  0  0  3  0  0  0  0  0  0
  185.8780  177.3110  143.5090 C   0  0  0  0  0  2  0  0  0  0  0  0
  188.3570  176.9610  143.1460 C   0  0  1  0  0  3  0  0  0  0  0  0
  185.7450  178.8210  140.9720 C   0  0  2  0  0  3  0  0  0  0  0  0
  184.4680  178.2910  141.6220 C   0  0  0  0  0  2  0  0  0  0  0  0
  185.5770  179.0010  139.4530 C   0  0  0  0  0  2  0  0  0  0  0  0
  189.0800  176.5370  141.9960 O   0  0  0  0  0  0  0  0  0  0  0  0
  189.4110  177.6610  141.1990 C   0  0  1  0  0  3  0  0  0  0  0  0
  184.6360  178.1410  143.1430 C   0  0  2  0  0  3  0  0  0  0  0  0
  186.5250  178.1210  138.6250 C   0  0  0  0  0  2  0  0  0  0  0  0
  192.8930  176.6310  139.7790 C   0  0  2  0  0  3  0  0  0  0  0  0
  192.4070  174.6460  137.4780 F   0  0  0  0  0  0  0  0  0  0  0  0
  194.1660  176.9810  140.1940 F   0  0  0  0  0  0  0  0  0  0  0  0
  190.4830  175.7280  138.3610 C   0  0  0  0  0  2  0  0  0  0  0  0
  190.4450  177.3270  140.2180 N   0  0  0  0  0  0  0  0  0  0  0  0
  192.7820  176.8630  138.2800 C   0  0  0  0  0  2  0  0  0  0  0  0
  189.9730  177.0690  138.8610 C   0  0  0  0  0  2  0  0  0  0  0  0
  191.8540  177.4110  140.5430 C   0  0  0  0  0  0  0  0  0  0  0  0
  192.2220  178.0770  141.5490 O   0  0  0  0  0  0  0  0  0  0  0  0
  191.8090  175.8840  137.6180 C   0  0  1  0  0  3  0  0  0  0  0  0
  184.6610  179.4520  143.8070 C   0  0  0  0  0  0  0  0  0  0  0  0
  184.6840  180.5260  144.3530 C   0  0  0  0  0  3  0  0  0  0  0  0
  189.2560  177.6320  144.1830 C   0  0  0  0  0  2  0  0  0  0  0  0
  190.8830  176.7460  145.8580 C   0  0  0  0  0  2  0  0  0  0  0  0
  189.6160  177.8730  147.9520 S   0  0  0  0  0  0  0  0  0  0  0  0
  188.6590  177.3200  146.5570 C   0  0  0  0  0  0  0  0  0  0  0  0
  187.4390  177.2910  146.5900 O   0  0  0  0  0  0  0  0  0  0  0  0
  190.9190  176.7470  147.3800 C   0  0  0  0  0  2  0  0  0  0  0  0
  189.4260  176.7560  145.4160 C   0  0  1  0  0  3  0  0  0  0  0  0
  1  3  1  6  0  0  0
  1 11  1  0  0  0  0
  1  4  1  0  0  0  0
  2  6  1  0  0  0  0
  2  5  1  1  0  0  0
  4  2  1  0  0  0  0
  6 26  1  0  0  0  0
  7  4  1  0  0  0  0
  7  8  1  0  0  0  0
  8 12  1  0  0  0  0
  9  7  1  0  0  0  0
 10  6  1  0  0  0  0
 11 10  1  0  0  0  0
 12  5  1  0  0  0  0
 12 24  1  0  0  0  0
 13  3  1  0  0  0  0
 13  9  1  0  0  0  0
 14 16  1  0  0  0  0
 14 21  1  0  0  0  0
 15 23  1  0  0  0  0
 17 20  1  0  0  0  0
 18 21  1  0  0  0  0
 18 11  1  0  0  0  0
 19 14  1  0  0  0  0
 20 18  1  0  0  0  0
 21 22  2  0  0  0  0
 23 19  1  0  0  0  0
 23 17  1  0  0  0  0
 24 25  3  0  0  0  0
 26 32  1  0  0  0  0
 27 31  1  0  0  0  0
 29 30  2  0  0  0  0
 29 28  1  0  0  0  0
 31 28  1  0  0  0  0
 32 27  1  0  0  0  0
 32 29  1  0  0  0  0
M  END
>  <MODEL>
9

>  <REMARK>
 VINA RESULT:      -7.9      3.275      6.422
  Name = 
  4 active torsions:
  status: ('A' for Active; 'I' for Inactive)
    1  A    between atoms: C_10  and  C_28
    2  A    between atoms: C_13  and  C_29
    3  A    between atoms: N_16  and  C_27
    4  A    between atoms: C_28  and  C_32
                            x       y       z     vdW  Elec       q    Type
                         _______ _______ _______ _____ _____    ______ ____

>  <TORSDO>
F 4

$$$$
