=
 OpenBabel11052414293D

 32 37  0  0  1  0  0  0  0  0999 V2000
  186.6770  178.6240  141.7040 C   0  0  1  0  0  3  0  0  0  0  0  0
  184.4990  179.0450  140.9180 C   0  0  0  0  0  2  0  0  0  0  0  0
  188.0000  179.2140  141.1990 C   0  0  0  0  0  2  0  0  0  0  0  0
  185.7140  178.2660  140.6410 N   0  0  1  0  0  0  0  0  0  0  0  0
  183.5130  179.1140  139.7400 C   0  0  1  0  0  0  0  0  0  0  0  0
  182.4800  181.0520  138.8500 C   0  0  0  0  0  0  0  0  0  0  0  0
  181.2370  180.3900  139.3040 C   0  0  2  0  0  3  0  0  0  0  0  0
  186.2010  178.5450  139.2760 C   0  0  2  0  0  3  0  0  0  0  0  0
  181.7930  179.0300  140.3830 S   0  0  0  0  0  0  0  0  0  0  0  0
  185.2380  177.9630  138.2380 C   0  0  0  0  0  2  0  0  0  0  0  0
  187.5830  177.9340  139.0400 C   0  0  0  0  0  2  0  0  0  0  0  0
  183.6550  180.3750  139.1090 O   0  0  0  0  0  0  0  0  0  0  0  0
  183.7740  178.0110  138.6910 C   0  0  1  0  0  3  0  0  0  0  0  0
  188.6070  178.3500  140.0980 C   0  0  0  0  0  2  0  0  0  0  0  0
  182.4770  182.1690  138.2700 O   0  0  0  0  0  0  0  0  0  0  0  0
  179.0010  179.8250  138.3920 C   0  0  0  0  0  2  0  0  0  0  0  0
  180.4910  179.8170  138.1100 C   0  0  0  0  0  3  0  0  0  0  0  0
  179.6070  180.8880  137.5020 C   0  0  0  0  0  2  0  0  0  0  0  0
  183.2620  176.6150  139.0680 C   0  0  0  0  0  2  0  0  0  0  0  0
  183.5130  175.6850  138.0590 O   0  0  0  0  0  1  0  0  0  0  0  0
  185.7220  177.1470  143.3440 O   0  0  0  0  0  1  0  0  0  0  0  0
  186.9050  177.4490  142.6630 C   0  0  2  0  0  3  0  0  0  0  0  0
  190.0250  178.0670  145.4510 O   0  0  0  0  0  0  0  0  0  0  0  0
  190.2150  176.9330  144.6340 C   0  0  0  0  0  2  0  0  0  0  0  0
  188.7280  178.0230  146.0410 C   0  0  1  0  0  3  0  0  0  0  0  0
  188.0280  177.7670  143.6570 C   0  0  1  0  0  3  0  0  0  0  0  0
  187.5930  177.5680  145.1050 C   0  0  0  0  0  2  0  0  0  0  0  0
  189.3310  176.9880  143.3830 C   0  0  2  0  0  3  0  0  0  0  0  0
  189.0580  175.6810  142.9720 O   0  0  0  0  0  1  0  0  0  0  0  0
  188.6480  177.3760  147.4350 C   0  0  0  0  0  3  0  0  0  0  0  0
  189.4740  178.1430  148.4530 C   0  0  0  0  0  2  0  0  0  0  0  0
  187.9650  178.2640  148.4610 C   0  0  0  0  0  2  0  0  0  0  0  0
  1 22  1  6  0  0  0
  3  1  1  0  0  0  0
  4  2  1  1  0  0  0
  4  1  1  0  0  0  0
  5  9  1  0  0  0  0
  5  2  1  1  0  0  0
  6 12  1  0  0  0  0
  6  7  1  0  0  0  0
  7 17  1  6  0  0  0
  7  9  1  0  0  0  0
  8 10  1  6  0  0  0
  8  4  1  0  0  0  0
 10 13  1  0  0  0  0
 11  8  1  0  0  0  0
 11 14  1  0  0  0  0
 12  5  1  0  0  0  0
 13 19  1  1  0  0  0
 13  5  1  0  0  0  0
 14  3  1  0  0  0  0
 15  6  2  0  0  0  0
 17 16  1  0  0  0  0
 18 17  1  0  0  0  0
 18 16  1  0  0  0  0
 20 19  1  0  0  0  0
 22 21  1  1  0  0  0
 23 25  1  0  0  0  0
 24 23  1  0  0  0  0
 25 30  1  1  0  0  0
 26 22  1  6  0  0  0
 26 27  1  0  0  0  0
 27 25  1  0  0  0  0
 28 29  1  1  0  0  0
 28 26  1  0  0  0  0
 28 24  1  0  0  0  0
 30 31  1  0  0  0  0
 30 32  1  0  0  0  0
 31 32  1  0  0  0  0
M  END
>  <MODEL>
1

>  <REMARK>
 VINA RESULT:      -6.8      0.000      0.000
  Name = 
  5 active torsions:
  status: ('A' for Active; 'I' for Inactive)
    1  A    between atoms: C_1  and  C_27
    2  A    between atoms: C_7  and  C_15
    3  A    between atoms: C_11  and  C_12
    4  A    between atoms: C_13  and  C_29
    5  A    between atoms: C_16  and  C_27
                            x       y       z     vdW  Elec       q    Type
                         _______ _______ _______ _____ _____    ______ ____

>  <TORSDO>
F 5

$$$$
=
 OpenBabel11052414293D

 32 37  0  0  1  0  0  0  0  0999 V2000
  190.7160  175.6740  137.9420 C   0  0  1  0  0  3  0  0  0  0  0  0
  192.5520  174.2220  137.6980 C   0  0  0  0  0  2  0  0  0  0  0  0
  189.3930  175.6720  137.1650 C   0  0  0  0  0  2  0  0  0  0  0  0
  191.9160  175.4140  137.1200 N   0  0  1  0  0  0  0  0  0  0  0  0
  193.5960  173.5590  136.7840 C   0  0  1  0  0  0  0  0  0  0  0  0
  193.7560  171.2610  136.2260 C   0  0  0  0  0  0  0  0  0  0  0  0
  195.0510  171.3550  136.9330 C   0  0  2  0  0  3  0  0  0  0  0  0
  191.6230  175.1960  135.6890 C   0  0  2  0  0  3  0  0  0  0  0  0
  194.9990  172.9560  137.8050 S   0  0  0  0  0  0  0  0  0  0  0  0
  192.9240  175.1370  134.8830 C   0  0  0  0  0  2  0  0  0  0  0  0
  190.7570  176.3190  135.1180 C   0  0  0  0  0  2  0  0  0  0  0  0
  193.0050  172.4190  136.1820 O   0  0  0  0  0  0  0  0  0  0  0  0
  194.0820  174.5050  135.6650 C   0  0  1  0  0  3  0  0  0  0  0  0
  189.4780  176.5540  135.9230 C   0  0  0  0  0  2  0  0  0  0  0  0
  193.3480  170.1920  135.7030 O   0  0  0  0  0  0  0  0  0  0  0  0
  197.4500  170.8320  136.5800 C   0  0  0  0  0  2  0  0  0  0  0  0
  196.1900  171.3640  135.9250 C   0  0  0  0  0  3  0  0  0  0  0  0
  196.6430  169.9430  135.6590 C   0  0  0  0  0  2  0  0  0  0  0  0
  195.1020  175.5640  136.1010 C   0  0  0  0  0  2  0  0  0  0  0  0
  194.6530  176.8560  135.8240 O   0  0  0  0  0  1  0  0  0  0  0  0
  192.2060  177.0650  139.2180 O   0  0  0  0  0  1  0  0  0  0  0  0
  190.8830  176.9470  138.7800 C   0  0  2  0  0  3  0  0  0  0  0  0
  188.2490  177.2020  142.0790 O   0  0  0  0  0  0  0  0  0  0  0  0
  188.0470  178.2140  141.1160 C   0  0  0  0  0  2  0  0  0  0  0  0
  189.6250  177.1550  142.4450 C   0  0  1  0  0  3  0  0  0  0  0  0
  189.9220  176.9440  139.9750 C   0  0  1  0  0  3  0  0  0  0  0  0
  190.6230  177.2990  141.2820 C   0  0  0  0  0  2  0  0  0  0  0  0
  188.6870  177.8460  139.7720 C   0  0  2  0  0  3  0  0  0  0  0  0
  189.0290  179.0240  139.1050 O   0  0  0  0  0  1  0  0  0  0  0  0
  190.0180  177.9890  143.6770 C   0  0  0  0  0  3  0  0  0  0  0  0
  189.0120  177.8300  144.8030 C   0  0  0  0  0  2  0  0  0  0  0  0
  190.3550  177.1350  144.8880 C   0  0  0  0  0  2  0  0  0  0  0  0
  1 22  1  6  0  0  0
  3  1  1  0  0  0  0
  4  2  1  1  0  0  0
  4  1  1  0  0  0  0
  5  2  1  1  0  0  0
  5  9  1  0  0  0  0
  6  7  1  0  0  0  0
  7 17  1  6  0  0  0
  7  9  1  0  0  0  0
  8 10  1  6  0  0  0
  8  4  1  0  0  0  0
 10 13  1  0  0  0  0
 11  8  1  0  0  0  0
 11 14  1  0  0  0  0
 12  6  1  0  0  0  0
 12  5  1  0  0  0  0
 13 19  1  1  0  0  0
 13  5  1  0  0  0  0
 14  3  1  0  0  0  0
 15  6  2  0  0  0  0
 17 16  1  0  0  0  0
 18 17  1  0  0  0  0
 18 16  1  0  0  0  0
 20 19  1  0  0  0  0
 22 21  1  1  0  0  0
 23 25  1  0  0  0  0
 24 23  1  0  0  0  0
 25 30  1  1  0  0  0
 26 22  1  6  0  0  0
 26 27  1  0  0  0  0
 27 25  1  0  0  0  0
 28 29  1  1  0  0  0
 28 26  1  0  0  0  0
 28 24  1  0  0  0  0
 30 31  1  0  0  0  0
 30 32  1  0  0  0  0
 31 32  1  0  0  0  0
M  END
>  <MODEL>
2

>  <REMARK>
 VINA RESULT:      -6.7      7.113     10.522
  Name = 
  5 active torsions:
  status: ('A' for Active; 'I' for Inactive)
    1  A    between atoms: C_1  and  C_27
    2  A    between atoms: C_7  and  C_15
    3  A    between atoms: C_11  and  C_12
    4  A    between atoms: C_13  and  C_29
    5  A    between atoms: C_16  and  C_27
                            x       y       z     vdW  Elec       q    Type
                         _______ _______ _______ _____ _____    ______ ____

>  <TORSDO>
F 5

$$$$
=
 OpenBabel11052414293D

 32 37  0  0  1  0  0  0  0  0999 V2000
  184.8070  177.1900  138.0510 C   0  0  1  0  0  3  0  0  0  0  0  0
  187.1260  176.8900  138.3170 C   0  0  0  0  0  2  0  0  0  0  0  0
  183.8500  176.4300  137.1240 C   0  0  0  0  0  2  0  0  0  0  0  0
  186.1170  177.5190  137.4530 N   0  0  1  0  0  0  0  0  0  0  0  0
  188.5230  176.7860  137.6830 C   0  0  1  0  0  0  0  0  0  0  0  0
  189.9100  174.8680  137.5830 C   0  0  0  0  0  0  0  0  0  0  0  0
  190.8120  175.6860  138.4220 C   0  0  2  0  0  3  0  0  0  0  0  0
  186.2720  177.0510  136.0610 C   0  0  2  0  0  3  0  0  0  0  0  0
  189.7970  177.0980  138.9710 S   0  0  0  0  0  0  0  0  0  0  0  0
  187.5640  177.6040  135.4540 C   0  0  0  0  0  2  0  0  0  0  0  0
  185.1020  177.5020  135.1860 C   0  0  0  0  0  2  0  0  0  0  0  0
  188.7120  175.4570  137.2300 O   0  0  0  0  0  0  0  0  0  0  0  0
  188.6940  177.7410  136.4820 C   0  0  1  0  0  3  0  0  0  0  0  0
  183.7400  177.1100  135.7630 C   0  0  0  0  0  2  0  0  0  0  0  0
  190.2020  173.6990  137.2170 O   0  0  0  0  0  0  0  0  0  0  0  0
  193.1890  176.3940  138.4720 C   0  0  0  0  0  2  0  0  0  0  0  0
  191.9760  176.1940  137.5850 C   0  0  0  0  0  3  0  0  0  0  0  0
  193.0910  175.1680  137.5900 C   0  0  0  0  0  2  0  0  0  0  0  0
  188.9420  179.2110  136.8440 C   0  0  0  0  0  2  0  0  0  0  0  0
  187.7570  179.9480  136.8430 O   0  0  0  0  0  1  0  0  0  0  0  0
  185.0440  179.5070  138.6510 O   0  0  0  0  0  1  0  0  0  0  0  0
  184.1450  178.4360  138.6560 C   0  0  2  0  0  3  0  0  0  0  0  0
  182.7170  177.9150  142.6020 O   0  0  0  0  0  0  0  0  0  0  0  0
  181.9010  178.7520  141.8130 C   0  0  0  0  0  2  0  0  0  0  0  0
  184.0690  178.3610  142.5350 C   0  0  1  0  0  3  0  0  0  0  0  0
  183.6550  178.1550  140.0810 C   0  0  1  0  0  3  0  0  0  0  0  0
  184.5550  178.7870  141.1370 C   0  0  0  0  0  2  0  0  0  0  0  0
  182.1870  178.5680  140.3180 C   0  0  2  0  0  3  0  0  0  0  0  0
  181.8870  179.7600  139.6560 O   0  0  0  0  0  1  0  0  0  0  0  0
  184.5090  179.3330  143.6430 C   0  0  0  0  0  3  0  0  0  0  0  0
  183.8490  179.0030  144.9700 C   0  0  0  0  0  2  0  0  0  0  0  0
  185.3050  178.6550  144.7450 C   0  0  0  0  0  2  0  0  0  0  0  0
  1 22  1  6  0  0  0
  3  1  1  0  0  0  0
  4  1  1  0  0  0  0
  4  2  1  1  0  0  0
  5  2  1  1  0  0  0
  5  9  1  0  0  0  0
  6  7  1  0  0  0  0
  7 17  1  6  0  0  0
  7  9  1  0  0  0  0
  8 11  1  6  0  0  0
  8  4  1  0  0  0  0
 10  8  1  0  0  0  0
 10 13  1  0  0  0  0
 11 14  1  0  0  0  0
 12  6  1  0  0  0  0
 12  5  1  0  0  0  0
 13 19  1  1  0  0  0
 13  5  1  0  0  0  0
 14  3  1  0  0  0  0
 15  6  2  0  0  0  0
 17 18  1  0  0  0  0
 17 16  1  0  0  0  0
 18 16  1  0  0  0  0
 20 19  1  0  0  0  0
 22 21  1  1  0  0  0
 24 23  1  0  0  0  0
 25 23  1  0  0  0  0
 25 30  1  1  0  0  0
 26 22  1  6  0  0  0
 26 28  1  0  0  0  0
 26 27  1  0  0  0  0
 27 25  1  0  0  0  0
 28 29  1  6  0  0  0
 28 24  1  0  0  0  0
 30 32  1  0  0  0  0
 30 31  1  0  0  0  0
 32 31  1  0  0  0  0
M  END
>  <MODEL>
3

>  <REMARK>
 VINA RESULT:      -6.5      3.821      7.694
  Name = 
  5 active torsions:
  status: ('A' for Active; 'I' for Inactive)
    1  A    between atoms: C_1  and  C_27
    2  A    between atoms: C_7  and  C_15
    3  A    between atoms: C_11  and  C_12
    4  A    between atoms: C_13  and  C_29
    5  A    between atoms: C_16  and  C_27
                            x       y       z     vdW  Elec       q    Type
                         _______ _______ _______ _____ _____    ______ ____

>  <TORSDO>
F 5

$$$$
=
 OpenBabel11052414293D

 32 37  0  0  1  0  0  0  0  0999 V2000
  182.7790  178.1130  140.9490 C   0  0  1  0  0  3  0  0  0  0  0  0
  183.0910  176.3660  139.4030 C   0  0  0  0  0  2  0  0  0  0  0  0
  181.4610  178.7360  141.4250 C   0  0  0  0  0  2  0  0  0  0  0  0
  182.8340  177.8100  139.5040 N   0  0  1  0  0  0  0  0  0  0  0  0
  182.8170  175.7730  138.0110 C   0  0  1  0  0  0  0  0  0  0  0  0
  181.5480  173.8370  137.5060 C   0  0  0  0  0  0  0  0  0  0  0  0
  182.8420  173.3270  137.0050 C   0  0  2  0  0  3  0  0  0  0  0  0
  181.6000  178.1620  138.7730 C   0  0  2  0  0  3  0  0  0  0  0  0
  184.0880  174.5010  137.6320 S   0  0  0  0  0  0  0  0  0  0  0  0
  181.8120  178.0070  137.2650 C   0  0  0  0  0  2  0  0  0  0  0  0
  181.1790  179.6060  139.0510 C   0  0  0  0  0  2  0  0  0  0  0  0
  181.5660  175.1070  138.0460 O   0  0  0  0  0  0  0  0  0  0  0  0
  182.7620  176.8560  136.9110 C   0  0  1  0  0  3  0  0  0  0  0  0
  181.0550  179.9140  140.5440 C   0  0  0  0  0  2  0  0  0  0  0  0
  180.4890  173.1570  137.4570 O   0  0  0  0  0  0  0  0  0  0  0  0
  183.8180  172.2970  134.9710 C   0  0  0  0  0  2  0  0  0  0  0  0
  182.8510  173.3450  135.4840 C   0  0  0  0  0  3  0  0  0  0  0  0
  182.3300  172.0220  134.9580 C   0  0  0  0  0  2  0  0  0  0  0  0
  184.1250  177.3830  136.4440 C   0  0  0  0  0  2  0  0  0  0  0  0
  184.3530  177.0960  135.0980 O   0  0  0  0  0  1  0  0  0  0  0  0
  184.7880  179.2540  140.2800 O   0  0  0  0  0  1  0  0  0  0  0  0
  183.9930  178.9420  141.3880 C   0  0  2  0  0  3  0  0  0  0  0  0
  186.3380  177.1010  144.3880 O   0  0  0  0  0  0  0  0  0  0  0  0
  185.6670  178.2610  144.8290 C   0  0  0  0  0  2  0  0  0  0  0  0
  187.0580  177.3880  143.1920 C   0  0  1  0  0  3  0  0  0  0  0  0
  184.8150  178.1890  142.4410 C   0  0  1  0  0  3  0  0  0  0  0  0
  186.3130  178.2640  142.1670 C   0  0  0  0  0  2  0  0  0  0  0  0
  184.5160  178.6360  143.8870 C   0  0  2  0  0  3  0  0  0  0  0  0
  184.3160  180.0160  143.9560 O   0  0  0  0  0  1  0  0  0  0  0  0
  188.5270  177.8050  143.3780 C   0  0  0  0  0  3  0  0  0  0  0  0
  189.1490  177.1300  144.5880 C   0  0  0  0  0  2  0  0  0  0  0  0
  189.4980  176.6510  143.1940 C   0  0  0  0  0  2  0  0  0  0  0  0
  1 22  1  6  0  0  0
  1  3  1  0  0  0  0
  4  2  1  1  0  0  0
  4  1  1  0  0  0  0
  5 12  1  0  0  0  0
  5  2  1  1  0  0  0
  6 12  1  0  0  0  0
  7 17  1  6  0  0  0
  7  6  1  0  0  0  0
  7  9  1  0  0  0  0
  8 10  1  6  0  0  0
  8 11  1  0  0  0  0
  8  4  1  0  0  0  0
  9  5  1  0  0  0  0
 11 14  1  0  0  0  0
 13 19  1  1  0  0  0
 13 10  1  0  0  0  0
 13  5  1  0  0  0  0
 14  3  1  0  0  0  0
 15  6  2  0  0  0  0
 16 17  1  0  0  0  0
 18 16  1  0  0  0  0
 18 17  1  0  0  0  0
 20 19  1  0  0  0  0
 22 21  1  6  0  0  0
 23 24  1  0  0  0  0
 25 30  1  1  0  0  0
 25 23  1  0  0  0  0
 26 22  1  6  0  0  0
 26 28  1  0  0  0  0
 27 26  1  0  0  0  0
 27 25  1  0  0  0  0
 28 29  1  6  0  0  0
 28 24  1  0  0  0  0
 30 31  1  0  0  0  0
 32 30  1  0  0  0  0
 32 31  1  0  0  0  0
M  END
>  <MODEL>
4

>  <REMARK>
 VINA RESULT:      -6.5      2.910      5.574
  Name = 
  5 active torsions:
  status: ('A' for Active; 'I' for Inactive)
    1  A    between atoms: C_1  and  C_27
    2  A    between atoms: C_7  and  C_15
    3  A    between atoms: C_11  and  C_12
    4  A    between atoms: C_13  and  C_29
    5  A    between atoms: C_16  and  C_27
                            x       y       z     vdW  Elec       q    Type
                         _______ _______ _______ _____ _____    ______ ____

>  <TORSDO>
F 5

$$$$
=
 OpenBabel11052414293D

 32 37  0  0  1  0  0  0  0  0999 V2000
  189.8890  176.3260  138.6130 C   0  0  1  0  0  3  0  0  0  0  0  0
  191.5980  174.8990  137.8520 C   0  0  0  0  0  2  0  0  0  0  0  0
  188.4770  176.5090  138.0400 C   0  0  0  0  0  2  0  0  0  0  0  0
  190.9560  176.1970  137.6000 N   0  0  1  0  0  0  0  0  0  0  0  0
  192.4770  174.3950  136.6950 C   0  0  1  0  0  0  0  0  0  0  0  0
  192.4420  172.2440  135.7040 C   0  0  0  0  0  0  0  0  0  0  0  0
  193.8220  172.1660  136.2300 C   0  0  2  0  0  3  0  0  0  0  0  0
  190.4680  176.2640  136.2080 C   0  0  2  0  0  3  0  0  0  0  0  0
  193.9690  173.5700  137.3830 S   0  0  0  0  0  0  0  0  0  0  0  0
  191.6470  176.3260  135.2330 C   0  0  0  0  0  2  0  0  0  0  0  0
  189.5950  177.4990  135.9800 C   0  0  0  0  0  2  0  0  0  0  0  0
  191.7550  173.4080  135.9800 O   0  0  0  0  0  0  0  0  0  0  0  0
  192.8630  175.5250  135.7160 C   0  0  1  0  0  3  0  0  0  0  0  0
  188.4460  177.6090  136.9840 C   0  0  0  0  0  2  0  0  0  0  0  0
  191.9140  171.3050  135.0510 O   0  0  0  0  0  0  0  0  0  0  0  0
  196.1650  171.7780  135.5110 C   0  0  0  0  0  2  0  0  0  0  0  0
  194.8190  172.3370  135.0940 C   0  0  0  0  0  3  0  0  0  0  0  0
  195.2630  170.9750  134.5990 C   0  0  0  0  0  2  0  0  0  0  0  0
  193.9850  176.4540  136.1960 C   0  0  0  0  0  2  0  0  0  0  0  0
  194.9920  176.5820  135.2390 O   0  0  0  0  0  1  0  0  0  0  0  0
  191.6140  177.6130  139.6860 O   0  0  0  0  0  1  0  0  0  0  0  0
  190.2310  177.4110  139.6420 C   0  0  2  0  0  3  0  0  0  0  0  0
  188.7310  176.6220  143.5170 O   0  0  0  0  0  0  0  0  0  0  0  0
  188.0370  177.6480  142.8420 C   0  0  0  0  0  2  0  0  0  0  0  0
  190.1310  176.8890  143.4870 C   0  0  1  0  0  3  0  0  0  0  0  0
  189.7020  177.0320  141.0300 C   0  0  1  0  0  3  0  0  0  0  0  0
  190.6740  177.4090  142.1430 C   0  0  0  0  0  2  0  0  0  0  0  0
  188.3010  177.6050  141.3320 C   0  0  2  0  0  3  0  0  0  0  0  0
  188.1650  178.8960  140.8190 O   0  0  0  0  0  1  0  0  0  0  0  0
  190.6930  177.6560  144.6960 C   0  0  0  0  0  3  0  0  0  0  0  0
  189.9720  177.2810  145.9790 C   0  0  0  0  0  2  0  0  0  0  0  0
  191.3640  176.7480  145.7130 C   0  0  0  0  0  2  0  0  0  0  0  0
  1 22  1  1  0  0  0
  3  1  1  0  0  0  0
  4  2  1  6  0  0  0
  4  1  1  0  0  0  0
  5  9  1  0  0  0  0
  5  2  1  1  0  0  0
  6 12  1  0  0  0  0
  6  7  1  0  0  0  0
  7 17  1  6  0  0  0
  7  9  1  0  0  0  0
  8 10  1  6  0  0  0
  8  4  1  0  0  0  0
 10 13  1  0  0  0  0
 11  8  1  0  0  0  0
 11 14  1  0  0  0  0
 12  5  1  0  0  0  0
 13 19  1  1  0  0  0
 13  5  1  0  0  0  0
 14  3  1  0  0  0  0
 15  6  2  0  0  0  0
 17 16  1  0  0  0  0
 18 17  1  0  0  0  0
 18 16  1  0  0  0  0
 20 19  1  0  0  0  0
 22 21  1  1  0  0  0
 24 23  1  0  0  0  0
 25 23  1  0  0  0  0
 25 30  1  1  0  0  0
 26 22  1  6  0  0  0
 26 28  1  0  0  0  0
 26 27  1  0  0  0  0
 27 25  1  0  0  0  0
 28 29  1  1  0  0  0
 28 24  1  0  0  0  0
 30 32  1  0  0  0  0
 30 31  1  0  0  0  0
 32 31  1  0  0  0  0
M  END
>  <MODEL>
5

>  <REMARK>
 VINA RESULT:      -6.3      6.303      9.468
  Name = 
  5 active torsions:
  status: ('A' for Active; 'I' for Inactive)
    1  A    between atoms: C_1  and  C_27
    2  A    between atoms: C_7  and  C_15
    3  A    between atoms: C_11  and  C_12
    4  A    between atoms: C_13  and  C_29
    5  A    between atoms: C_16  and  C_27
                            x       y       z     vdW  Elec       q    Type
                         _______ _______ _______ _____ _____    ______ ____

>  <TORSDO>
F 5

$$$$
=
 OpenBabel11052414293D

 32 37  0  0  1  0  0  0  0  0999 V2000
  190.3830  177.3250  141.4600 C   0  0  1  0  0  3  0  0  0  0  0  0
  188.7950  177.2580  139.7250 C   0  0  0  0  0  2  0  0  0  0  0  0
  191.6010  178.2470  141.5990 C   0  0  0  0  0  2  0  0  0  0  0  0
  190.1470  176.8140  140.0940 N   0  0  1  0  0  0  0  0  0  0  0  0
  188.4890  177.1630  138.2210 C   0  0  1  0  0  0  0  0  0  0  0  0
  187.5550  178.8480  136.8410 C   0  0  0  0  0  0  0  0  0  0  0  0
  186.4470  177.8790  136.7000 C   0  0  2  0  0  3  0  0  0  0  0  0
  191.1300  177.2900  139.1010 C   0  0  2  0  0  3  0  0  0  0  0  0
  186.7460  176.6260  137.9900 S   0  0  0  0  0  0  0  0  0  0  0  0
  190.9360  176.5610  137.7680 C   0  0  0  0  0  2  0  0  0  0  0  0
  192.5640  177.0460  139.5740 C   0  0  0  0  0  2  0  0  0  0  0  0
  188.5980  178.4590  137.6580 O   0  0  0  0  0  0  0  0  0  0  0  0
  189.4670  176.2250  137.4810 C   0  0  1  0  0  3  0  0  0  0  0  0
  192.8410  177.6280  140.9610 C   0  0  0  0  0  2  0  0  0  0  0  0
  187.5520  179.9670  136.2640 O   0  0  0  0  0  0  0  0  0  0  0  0
  185.4660  176.1220  135.2500 C   0  0  0  0  0  2  0  0  0  0  0  0
  186.5070  177.2210  135.3310 C   0  0  0  0  0  3  0  0  0  0  0  0
  185.2050  177.4610  134.5940 C   0  0  0  0  0  2  0  0  0  0  0  0
  189.1950  174.7260  137.6560 C   0  0  0  0  0  2  0  0  0  0  0  0
  190.3710  173.9780  137.5900 O   0  0  0  0  0  1  0  0  0  0  0  0
  189.2060  175.4770  142.4540 O   0  0  0  0  0  1  0  0  0  0  0  0
  190.4150  176.1800  142.4810 C   0  0  2  0  0  3  0  0  0  0  0  0
  191.1550  177.4070  146.4600 O   0  0  0  0  0  0  0  0  0  0  0  0
  191.7670  176.1810  146.1250 C   0  0  0  0  0  2  0  0  0  0  0  0
  189.7710  177.3620  146.1210 C   0  0  1  0  0  3  0  0  0  0  0  0
  190.6910  176.7150  143.8910 C   0  0  1  0  0  3  0  0  0  0  0  0
  189.4450  176.7000  144.7700 C   0  0  0  0  0  2  0  0  0  0  0  0
  191.8530  175.9930  144.6060 C   0  0  2  0  0  3  0  0  0  0  0  0
  191.8440  174.6260  144.3250 O   0  0  0  0  0  1  0  0  0  0  0  0
  188.8200  176.9220  147.2480 C   0  0  0  0  0  3  0  0  0  0  0  0
  188.8460  177.8960  148.4120 C   0  0  0  0  0  2  0  0  0  0  0  0
  187.6680  177.8890  147.4620 C   0  0  0  0  0  2  0  0  0  0  0  0
  1  3  1  0  0  0  0
  1 22  1  1  0  0  0
  4  2  1  6  0  0  0
  4  1  1  0  0  0  0
  5  2  1  1  0  0  0
  6 12  1  0  0  0  0
  7 17  1  6  0  0  0
  7  6  1  0  0  0  0
  7  9  1  0  0  0  0
  8 10  1  6  0  0  0
  8 11  1  0  0  0  0
  8  4  1  0  0  0  0
  9  5  1  0  0  0  0
 11 14  1  0  0  0  0
 12  5  1  0  0  0  0
 13 19  1  1  0  0  0
 13 10  1  0  0  0  0
 13  5  1  0  0  0  0
 14  3  1  0  0  0  0
 15  6  2  0  0  0  0
 16 17  1  0  0  0  0
 18 16  1  0  0  0  0
 18 17  1  0  0  0  0
 20 19  1  0  0  0  0
 22 21  1  1  0  0  0
 24 23  1  0  0  0  0
 25 23  1  0  0  0  0
 25 30  1  1  0  0  0
 26 22  1  6  0  0  0
 26 28  1  0  0  0  0
 26 27  1  0  0  0  0
 27 25  1  0  0  0  0
 28 29  1  1  0  0  0
 28 24  1  0  0  0  0
 30 32  1  0  0  0  0
 30 31  1  0  0  0  0
 32 31  1  0  0  0  0
M  END
>  <MODEL>
6

>  <REMARK>
 VINA RESULT:      -6.1      4.022      4.860
  Name = 
  5 active torsions:
  status: ('A' for Active; 'I' for Inactive)
    1  A    between atoms: C_1  and  C_27
    2  A    between atoms: C_7  and  C_15
    3  A    between atoms: C_11  and  C_12
    4  A    between atoms: C_13  and  C_29
    5  A    between atoms: C_16  and  C_27
                            x       y       z     vdW  Elec       q    Type
                         _______ _______ _______ _____ _____    ______ ____

>  <TORSDO>
F 5

$$$$
=
 OpenBabel11052414293D

 32 37  0  0  1  0  0  0  0  0999 V2000
  182.0120  178.3250  143.1860 C   0  0  1  0  0  3  0  0  0  0  0  0
  182.4890  177.8210  140.9370 C   0  0  0  0  0  2  0  0  0  0  0  0
  180.6560  178.2820  143.9020 C   0  0  0  0  0  2  0  0  0  0  0  0
  181.9700  178.8780  141.8160 N   0  0  1  0  0  0  0  0  0  0  0  0
  182.1870  178.0370  139.4450 C   0  0  1  0  0  0  0  0  0  0  0  0
  181.2690  176.4650  137.9280 C   0  0  0  0  0  0  0  0  0  0  0  0
  182.5770  176.6080  137.2530 C   0  0  2  0  0  3  0  0  0  0  0  0
  180.6210  179.2900  141.3800 C   0  0  2  0  0  3  0  0  0  0  0  0
  183.6330  177.4910  138.4490 S   0  0  0  0  0  0  0  0  0  0  0  0
  180.6980  180.0320  140.0430 C   0  0  0  0  0  2  0  0  0  0  0  0
  179.9610  180.2160  142.4020 C   0  0  0  0  0  2  0  0  0  0  0  0
  181.1000  177.2040  139.0820 O   0  0  0  0  0  0  0  0  0  0  0  0
  181.8090  179.5000  139.1290 C   0  0  1  0  0  3  0  0  0  0  0  0
  179.9390  179.6260  143.8140 C   0  0  0  0  0  2  0  0  0  0  0  0
  180.3630  175.7090  137.4910 O   0  0  0  0  0  0  0  0  0  0  0  0
  183.5410  177.1300  135.0280 C   0  0  0  0  0  2  0  0  0  0  0  0
  182.4210  177.4510  135.9970 C   0  0  0  0  0  3  0  0  0  0  0  0
  182.1620  176.5480  134.8080 C   0  0  0  0  0  2  0  0  0  0  0  0
  182.9870  180.4800  139.0570 C   0  0  0  0  0  2  0  0  0  0  0  0
  182.5660  181.7660  138.7180 O   0  0  0  0  0  1  0  0  0  0  0  0
  183.2670  180.3370  143.5880 O   0  0  0  0  0  1  0  0  0  0  0  0
  183.0820  179.0240  144.0330 C   0  0  2  0  0  3  0  0  0  0  0  0
  186.8510  177.1060  144.0050 O   0  0  0  0  0  0  0  0  0  0  0  0
  186.6240  177.8850  145.1590 C   0  0  0  0  0  2  0  0  0  0  0  0
  186.5960  177.8860  142.8400 C   0  0  1  0  0  3  0  0  0  0  0  0
  184.4060  178.2520  143.9840 C   0  0  1  0  0  3  0  0  0  0  0  0
  185.3470  178.7850  142.9090 C   0  0  0  0  0  2  0  0  0  0  0  0
  185.1330  178.1920  145.3440 C   0  0  2  0  0  3  0  0  0  0  0  0
  185.0090  179.4000  146.0340 O   0  0  0  0  0  1  0  0  0  0  0  0
  187.8150  178.6010  142.2330 C   0  0  0  0  0  3  0  0  0  0  0  0
  189.0560  177.7280  142.2810 C   0  0  0  0  0  2  0  0  0  0  0  0
  188.3270  177.9300  140.9700 C   0  0  0  0  0  2  0  0  0  0  0  0
  1  3  1  0  0  0  0
  1 22  1  1  0  0  0
  4  2  1  6  0  0  0
  4  1  1  0  0  0  0
  5  2  1  1  0  0  0
  6 12  1  0  0  0  0
  7 17  1  6  0  0  0
  7  6  1  0  0  0  0
  7  9  1  0  0  0  0
  8 10  1  6  0  0  0
  8  4  1  0  0  0  0
  8 11  1  0  0  0  0
  9  5  1  0  0  0  0
 11 14  1  0  0  0  0
 12  5  1  0  0  0  0
 13 19  1  1  0  0  0
 13  5  1  0  0  0  0
 13 10  1  0  0  0  0
 14  3  1  0  0  0  0
 15  6  2  0  0  0  0
 16 17  1  0  0  0  0
 18 16  1  0  0  0  0
 18 17  1  0  0  0  0
 20 19  1  0  0  0  0
 22 21  1  6  0  0  0
 23 24  1  0  0  0  0
 24 28  1  0  0  0  0
 25 30  1  1  0  0  0
 25 27  1  0  0  0  0
 25 23  1  0  0  0  0
 26 22  1  1  0  0  0
 26 28  1  0  0  0  0
 27 26  1  0  0  0  0
 28 29  1  6  0  0  0
 30 31  1  0  0  0  0
 32 30  1  0  0  0  0
 32 31  1  0  0  0  0
M  END
>  <MODEL>
7

>  <REMARK>
 VINA RESULT:      -6.0      2.790      5.275
  Name = 
  5 active torsions:
  status: ('A' for Active; 'I' for Inactive)
    1  A    between atoms: C_1  and  C_27
    2  A    between atoms: C_7  and  C_15
    3  A    between atoms: C_11  and  C_12
    4  A    between atoms: C_13  and  C_29
    5  A    between atoms: C_16  and  C_27
                            x       y       z     vdW  Elec       q    Type
                         _______ _______ _______ _____ _____    ______ ____

>  <TORSDO>
F 5

$$$$
=
 OpenBabel11052414293D

 32 37  0  0  1  0  0  0  0  0999 V2000
  183.0660  178.1150  142.6290 C   0  0  1  0  0  3  0  0  0  0  0  0
  182.9710  177.0680  140.5240 C   0  0  0  0  0  2  0  0  0  0  0  0
  181.9460  178.2670  143.6660 C   0  0  0  0  0  2  0  0  0  0  0  0
  182.6430  178.3150  141.2280 N   0  0  1  0  0  0  0  0  0  0  0  0
  182.2830  176.9150  139.1570 C   0  0  1  0  0  0  0  0  0  0  0  0
  181.0880  175.0310  138.3600 C   0  0  0  0  0  0  0  0  0  0  0  0
  182.1670  174.9870  137.3500 C   0  0  2  0  0  3  0  0  0  0  0  0
  181.2070  178.6250  141.0770 C   0  0  2  0  0  3  0  0  0  0  0  0
  183.4490  176.1220  137.9770 S   0  0  0  0  0  0  0  0  0  0  0  0
  180.8970  179.0150  139.6290 C   0  0  0  0  0  2  0  0  0  0  0  0
  180.7870  179.7830  141.9840 C   0  0  0  0  0  2  0  0  0  0  0  0
  181.1840  176.0330  139.3050 O   0  0  0  0  0  0  0  0  0  0  0  0
  181.7600  178.2610  138.6100 C   0  0  1  0  0  3  0  0  0  0  0  0
  181.1620  179.5580  143.4500 C   0  0  0  0  0  2  0  0  0  0  0  0
  180.1400  174.2030  138.3720 O   0  0  0  0  0  0  0  0  0  0  0  0
  182.4280  174.8540  134.8870 C   0  0  0  0  0  2  0  0  0  0  0  0
  181.6470  175.4980  136.0150 C   0  0  0  0  0  3  0  0  0  0  0  0
  181.0440  174.3490  135.2320 C   0  0  0  0  0  2  0  0  0  0  0  0
  182.8260  179.1770  137.9970 C   0  0  0  0  0  2  0  0  0  0  0  0
  182.9820  180.3510  138.7350 O   0  0  0  0  0  1  0  0  0  0  0  0
  184.9290  179.3900  141.7980 O   0  0  0  0  0  1  0  0  0  0  0  0
  184.2820  178.9860  142.9710 C   0  0  2  0  0  3  0  0  0  0  0  0
  187.0520  177.1380  145.5780 O   0  0  0  0  0  0  0  0  0  0  0  0
  186.4410  178.2860  146.1250 C   0  0  0  0  0  2  0  0  0  0  0  0
  187.5890  177.4460  144.2940 C   0  0  1  0  0  3  0  0  0  0  0  0
  185.2540  178.2310  143.8850 C   0  0  1  0  0  3  0  0  0  0  0  0
  186.6960  178.3250  143.3990 C   0  0  0  0  0  2  0  0  0  0  0  0
  185.1630  178.6590  145.3650 C   0  0  2  0  0  3  0  0  0  0  0  0
  184.9630  180.0360  145.4790 O   0  0  0  0  0  1  0  0  0  0  0  0
  189.0660  177.8760  144.2720 C   0  0  0  0  0  3  0  0  0  0  0  0
  189.8670  177.1780  145.3560 C   0  0  0  0  0  2  0  0  0  0  0  0
  190.0090  176.7400  143.9140 C   0  0  0  0  0  2  0  0  0  0  0  0
  1 22  1  1  0  0  0
  1  3  1  0  0  0  0
  4  2  1  6  0  0  0
  4  1  1  0  0  0  0
  5 12  1  0  0  0  0
  5  2  1  1  0  0  0
  6 15  2  0  0  0  0
  6 12  1  0  0  0  0
  7 17  1  6  0  0  0
  7  9  1  0  0  0  0
  7  6  1  0  0  0  0
  8 10  1  6  0  0  0
  8  4  1  0  0  0  0
  8 11  1  0  0  0  0
  9  5  1  0  0  0  0
 11 14  1  0  0  0  0
 13 19  1  1  0  0  0
 13  5  1  0  0  0  0
 13 10  1  0  0  0  0
 14  3  1  0  0  0  0
 16 18  1  0  0  0  0
 16 17  1  0  0  0  0
 18 17  1  0  0  0  0
 19 20  1  0  0  0  0
 22 21  1  6  0  0  0
 23 24  1  0  0  0  0
 25 30  1  1  0  0  0
 25 23  1  0  0  0  0
 26 22  1  6  0  0  0
 26 28  1  0  0  0  0
 27 26  1  0  0  0  0
 27 25  1  0  0  0  0
 28 29  1  6  0  0  0
 28 24  1  0  0  0  0
 30 31  1  0  0  0  0
 32 30  1  0  0  0  0
 32 31  1  0  0  0  0
M  END
>  <MODEL>
8

>  <REMARK>
 VINA RESULT:      -5.9      2.732      4.920
  Name = 
  5 active torsions:
  status: ('A' for Active; 'I' for Inactive)
    1  A    between atoms: C_1  and  C_27
    2  A    between atoms: C_7  and  C_15
    3  A    between atoms: C_11  and  C_12
    4  A    between atoms: C_13  and  C_29
    5  A    between atoms: C_16  and  C_27
                            x       y       z     vdW  Elec       q    Type
                         _______ _______ _______ _____ _____    ______ ____

>  <TORSDO>
F 5

$$$$
=
 OpenBabel11052414293D

 32 37  0  0  1  0  0  0  0  0999 V2000
  188.6710  176.9780  139.9600 C   0  0  1  0  0  3  0  0  0  0  0  0
  189.3840  176.7380  142.1900 C   0  0  0  0  0  2  0  0  0  0  0  0
  189.2500  176.3200  138.7010 C   0  0  0  0  0  2  0  0  0  0  0  0
  189.6800  177.4430  140.9350 N   0  0  1  0  0  0  0  0  0  0  0  0
  190.5230  176.7840  143.2220 C   0  0  1  0  0  0  0  0  0  0  0  0
  191.4430  174.9580  144.4200 C   0  0  0  0  0  0  0  0  0  0  0  0
  190.9140  175.6840  145.5960 C   0  0  2  0  0  3  0  0  0  0  0  0
  191.0740  177.1860  140.5200 C   0  0  2  0  0  3  0  0  0  0  0  0
  189.8090  176.9590  144.9060 S   0  0  0  0  0  0  0  0  0  0  0  0
  192.0500  177.8730  141.4780 C   0  0  0  0  0  2  0  0  0  0  0  0
  191.3420  177.7100  139.1080 C   0  0  0  0  0  2  0  0  0  0  0  0
  191.2060  175.5420  143.1920 O   0  0  0  0  0  0  0  0  0  0  0  0
  191.5400  177.9070  142.9250 C   0  0  1  0  0  3  0  0  0  0  0  0
  190.3420  177.1830  138.0770 C   0  0  0  0  0  2  0  0  0  0  0  0
  192.0630  173.8670  144.5220 O   0  0  0  0  0  0  0  0  0  0  0  0
  191.5870  176.7530  147.7300 C   0  0  0  0  0  2  0  0  0  0  0  0
  192.0560  176.3530  146.3450 C   0  0  0  0  0  3  0  0  0  0  0  0
  192.4350  175.5130  147.5480 C   0  0  0  0  0  2  0  0  0  0  0  0
  191.0910  179.3190  143.3230 C   0  0  0  0  0  2  0  0  0  0  0  0
  191.8830  179.8410  144.3460 O   0  0  0  0  0  1  0  0  0  0  0  0
  188.2490  179.3450  139.8820 O   0  0  0  0  0  1  0  0  0  0  0  0
  187.6790  178.0960  139.6150 C   0  0  2  0  0  3  0  0  0  0  0  0
  184.0130  177.8780  141.7110 O   0  0  0  0  0  0  0  0  0  0  0  0
  183.9250  178.5870  140.4950 C   0  0  0  0  0  2  0  0  0  0  0  0
  185.0900  178.3910  142.4900 C   0  0  1  0  0  3  0  0  0  0  0  0
  186.3730  177.9270  140.3980 C   0  0  1  0  0  3  0  0  0  0  0  0
  186.3780  178.7080  141.7080 C   0  0  0  0  0  2  0  0  0  0  0  0
  185.1140  178.2760  139.5770 C   0  0  2  0  0  3  0  0  0  0  0  0
  185.3410  179.3800  138.7530 O   0  0  0  0  0  1  0  0  0  0  0  0
  184.7200  179.4890  143.5030 C   0  0  0  0  0  3  0  0  0  0  0  0
  183.4290  179.1630  144.2330 C   0  0  0  0  0  2  0  0  0  0  0  0
  184.7570  179.0040  144.9420 C   0  0  0  0  0  2  0  0  0  0  0  0
  1 22  1  6  0  0  0
  1  4  1  0  0  0  0
  3  1  1  0  0  0  0
  4  2  1  1  0  0  0
  5  2  1  6  0  0  0
  5  9  1  0  0  0  0
  6 15  2  0  0  0  0
  6  7  1  0  0  0  0
  7 17  1  6  0  0  0
  8 11  1  6  0  0  0
  8  4  1  0  0  0  0
  8 10  1  0  0  0  0
  9  7  1  0  0  0  0
 10 13  1  0  0  0  0
 12  5  1  0  0  0  0
 12  6  1  0  0  0  0
 13  5  1  0  0  0  0
 13 19  1  6  0  0  0
 14  3  1  0  0  0  0
 14 11  1  0  0  0  0
 17 18  1  0  0  0  0
 17 16  1  0  0  0  0
 18 16  1  0  0  0  0
 19 20  1  0  0  0  0
 22 21  1  1  0  0  0
 23 25  1  0  0  0  0
 24 23  1  0  0  0  0
 25 30  1  6  0  0  0
 26 22  1  6  0  0  0
 26 27  1  0  0  0  0
 27 25  1  0  0  0  0
 28 29  1  1  0  0  0
 28 26  1  0  0  0  0
 28 24  1  0  0  0  0
 30 31  1  0  0  0  0
 30 32  1  0  0  0  0
 31 32  1  0  0  0  0
M  END
>  <MODEL>
9

>  <REMARK>
 VINA RESULT:      -5.7      3.304      8.626
  Name = 
  5 active torsions:
  status: ('A' for Active; 'I' for Inactive)
    1  A    between atoms: C_1  and  C_27
    2  A    between atoms: C_7  and  C_15
    3  A    between atoms: C_11  and  C_12
    4  A    between atoms: C_13  and  C_29
    5  A    between atoms: C_16  and  C_27
                            x       y       z     vdW  Elec       q    Type
                         _______ _______ _______ _____ _____    ______ ____

>  <TORSDO>
F 5

$$$$
