=
 OpenBabel11052415323D

 37 43  0  0  1  0  0  0  0  0999 V2000
  178.9310  180.4870  136.1380 O   0  0  0  0  0  1  0  0  0  0  0  0
  183.5520  179.1300  137.9270 C   0  0  0  0  0  2  0  0  0  0  0  0
  181.3430  178.0180  137.2250 C   0  0  0  0  0  2  0  0  0  0  0  0
  182.5410  178.4340  140.3320 C   0  0  2  0  0  3  0  0  0  0  0  0
  180.3930  181.0050  140.2890 O   0  0  0  0  0  1  0  0  0  0  0  0
  182.8040  178.7850  141.7890 C   0  0  0  0  0  2  0  0  0  0  0  0
  182.1280  179.3260  137.4200 C   0  0  1  0  0  0  0  0  0  0  0  0
  180.5850  180.0290  139.3120 C   0  0  1  0  0  0  0  0  0  0  0  0
  179.8170  179.8430  137.0000 C   0  0  2  0  0  0  0  0  0  0  0  0
  185.0010  178.4680  139.8730 C   0  0  0  0  0  2  0  0  0  0  0  0
  181.6480  180.4890  138.3460 C   0  0  2  0  0  3  0  0  0  0  0  0
  181.2060  180.4640  136.9440 C   0  0  1  0  0  3  0  0  0  0  0  0
  183.6710  179.0920  139.4800 C   0  0  1  0  0  3  0  0  0  0  0  0
  181.0360  178.6980  139.9750 C   0  0  2  0  0  3  0  0  0  0  0  0
  180.0120  178.3980  136.6050 C   0  0  0  0  0  2  0  0  0  0  0  0
  184.2270  178.5100  142.2080 C   0  0  0  0  0  0  0  0  0  0  0  0
  179.3290  179.9080  138.4520 C   0  0  0  0  0  2  0  0  0  0  0  0
  185.1880  178.4450  141.3270 N   0  0  0  0  0  0  0  0  0  0  0  0
  183.6030  178.8080  144.6150 C   0  0  0  0  0  3  0  0  0  0  0  0
  184.5530  178.4360  143.6490 C   0  0  0  0  0  0  0  0  0  0  0  0
  185.8130  177.9840  144.0710 C   0  0  0  0  0  3  0  0  0  0  0  0
  187.3380  177.4710  145.8290 F   0  0  0  0  0  0  0  0  0  0  0  0
  185.1670  178.2800  146.3860 C   0  0  0  0  0  3  0  0  0  0  0  0
  186.1190  177.9080  145.4330 C   0  0  0  0  0  0  0  0  0  0  0  0
  183.9090  178.7300  145.9760 C   0  0  0  0  0  3  0  0  0  0  0  0
  179.9460  177.8610  140.6650 C   0  0  2  0  0  3  0  0  0  0  0  0
  179.2180  178.5390  141.8320 C   0  0  0  0  0  2  0  0  0  0  0  0
  179.9460  178.3950  143.1650 C   0  0  2  0  0  3  0  0  0  0  0  0
  179.7760  180.8250  143.1230 O   0  0  0  0  0  1  0  0  0  0  0  0
  179.0430  178.8780  144.2800 C   0  0  0  0  0  2  0  0  0  0  0  0
  180.2250  179.7280  143.8660 C   0  0  1  0  0  3  0  0  0  0  0  0
  180.2760  176.3680  140.8220 C   0  0  2  0  0  3  0  0  0  0  0  0
  180.0380  175.5910  139.5240 C   0  0  2  0  0  3  0  0  0  0  0  0
  181.3190  175.3680  138.7360 C   0  0  0  0  0  1  0  0  0  0  0  0
  179.1260  176.2680  138.7340 F   0  0  0  0  0  0  0  0  0  0  0  0
  179.0910  174.5840  141.4120 C   0  0  0  0  0  1  0  0  0  0  0  0
  179.6010  175.7870  141.9040 O   0  0  0  0  0  0  0  0  0  0  0  0
  2 13  1  0  0  0  0
  4  6  1  1  0  0  0
  6 16  1  0  0  0  0
  7  3  1  1  0  0  0
  7  2  1  0  0  0  0
  7 11  1  0  0  0  0
  8 14  1  0  0  0  0
  8  5  1  1  0  0  0
  9  1  1  6  0  0  0
  9 17  1  0  0  0  0
 10 18  1  0  0  0  0
 11  8  1  0  0  0  0
 12  9  1  0  0  0  0
 12  7  1  0  0  0  0
 12 11  1  0  0  0  0
 13 10  1  0  0  0  0
 13  4  1  0  0  0  0
 14  4  1  0  0  0  0
 14 26  1  0  0  0  0
 15  9  1  0  0  0  0
 15  3  1  0  0  0  0
 16 20  1  0  0  0  0
 17  8  1  0  0  0  0
 18 16  2  0  0  0  0
 19 25  1  0  0  0  0
 20 21  1  0  0  0  0
 20 19  2  0  0  0  0
 21 24  2  0  0  0  0
 24 22  1  0  0  0  0
 24 23  1  0  0  0  0
 25 23  2  0  0  0  0
 26 32  1  0  0  0  0
 26 27  1  0  0  0  0
 27 28  1  0  0  0  0
 28 31  1  0  0  0  0
 28 30  1  0  0  0  0
 29 31  1  0  0  0  0
 31 30  1  0  0  0  0
 32 37  1  0  0  0  0
 33 32  1  0  0  0  0
 34 33  1  0  0  0  0
 35 33  1  0  0  0  0
 36 37  1  0  0  0  0
M  END
>  <MODEL>
1

>  <REMARK>
 VINA RESULT:      -6.5      0.000      0.000
  Name = 
  7 active torsions:
  status: ('A' for Active; 'I' for Inactive)
    1  A    between atoms: C_1  and  C_5
    2  A    between atoms: C_1  and  C_36
    3  A    between atoms: C_6  and  C_31
    4  A    between atoms: C_11  and  C_33
    5  A    between atoms: O_27  and  C_33
    6  A    between atoms: C_29  and  C_36
    7  A    between atoms: C_33  and  C_36
                            x       y       z     vdW  Elec       q    Type
                         _______ _______ _______ _____ _____    ______ ____

>  <TORSDO>
F 7

$$$$
=
 OpenBabel11052415323D

 37 43  0  0  1  0  0  0  0  0999 V2000
  191.8830  176.3010  134.5940 O   0  0  0  0  0  1  0  0  0  0  0  0
  191.5240  176.0780  139.7140 C   0  0  0  0  0  2  0  0  0  0  0  0
  190.8390  174.6890  137.6610 C   0  0  0  0  0  2  0  0  0  0  0  0
  188.8610  176.5210  139.6580 C   0  0  2  0  0  3  0  0  0  0  0  0
  189.1730  178.7100  137.1410 O   0  0  0  0  0  1  0  0  0  0  0  0
  187.8880  177.5080  140.2870 C   0  0  0  0  0  2  0  0  0  0  0  0
  191.5050  175.9690  138.1930 C   0  0  1  0  0  0  0  0  0  0  0  0
  189.6530  177.4030  137.2080 C   0  0  1  0  0  0  0  0  0  0  0  0
  191.2220  176.1540  135.8120 C   0  0  2  0  0  0  0  0  0  0  0  0
  190.1580  176.4300  141.7960 C   0  0  0  0  0  2  0  0  0  0  0  0
  191.0380  177.4090  137.8050 C   0  0  2  0  0  3  0  0  0  0  0  0
  192.0350  176.7290  136.9640 C   0  0  1  0  0  3  0  0  0  0  0  0
  190.2570  176.7570  140.3140 C   0  0  1  0  0  3  0  0  0  0  0  0
  188.7160  176.5390  138.0960 C   0  0  2  0  0  3  0  0  0  0  0  0
  191.0250  174.6960  136.1560 C   0  0  0  0  0  2  0  0  0  0  0  0
  187.9460  177.5060  141.7940 C   0  0  0  0  0  0  0  0  0  0  0  0
  189.8600  176.8580  135.7960 C   0  0  0  0  0  2  0  0  0  0  0  0
  189.0060  177.0810  142.4260 N   0  0  0  0  0  0  0  0  0  0  0  0
  185.8470  178.8670  141.9070 C   0  0  0  0  0  3  0  0  0  0  0  0
  186.8350  178.1110  142.5600 C   0  0  0  0  0  0  0  0  0  0  0  0
  186.7450  177.9290  143.9490 C   0  0  0  0  0  3  0  0  0  0  0  0
  185.6140  178.3120  146.0110 F   0  0  0  0  0  0  0  0  0  0  0  0
  184.7140  179.2450  144.0120 C   0  0  0  0  0  3  0  0  0  0  0  0
  185.6910  178.4950  144.6710 C   0  0  0  0  0  0  0  0  0  0  0  0
  184.7920  179.4310  142.6290 C   0  0  0  0  0  3  0  0  0  0  0  0
  187.3950  176.0710  137.4620 C   0  0  2  0  0  3  0  0  0  0  0  0
  187.4700  174.7910  136.6220 C   0  0  0  0  0  2  0  0  0  0  0  0
  186.7300  173.6130  137.2480 C   0  0  2  0  0  3  0  0  0  0  0  0
  186.8070  172.7950  134.9550 O   0  0  0  0  0  1  0  0  0  0  0  0
  187.5990  172.3760  137.1600 C   0  0  0  0  0  2  0  0  0  0  0  0
  186.3910  172.4970  136.2560 C   0  0  1  0  0  3  0  0  0  0  0  0
  186.4930  177.1990  136.9350 C   0  0  2  0  0  3  0  0  0  0  0  0
  185.3010  177.4570  137.8620 C   0  0  2  0  0  3  0  0  0  0  0  0
  183.9780  177.4930  137.1130 C   0  0  0  0  0  1  0  0  0  0  0  0
  185.4800  178.6520  138.5350 F   0  0  0  0  0  0  0  0  0  0  0  0
  186.7940  177.8990  134.8480 C   0  0  0  0  0  1  0  0  0  0  0  0
  186.0820  176.9750  135.6150 O   0  0  0  0  0  0  0  0  0  0  0  0
  2 13  1  0  0  0  0
  4  6  1  1  0  0  0
  4 13  1  0  0  0  0
  6 16  1  0  0  0  0
  7  3  1  6  0  0  0
  7  2  1  0  0  0  0
  8  5  1  6  0  0  0
  8 11  1  0  0  0  0
  8 14  1  0  0  0  0
  9  1  1  6  0  0  0
  9 15  1  0  0  0  0
  9 12  1  0  0  0  0
 10 18  1  0  0  0  0
 11  7  1  0  0  0  0
 12 11  1  0  0  0  0
 12  7  1  0  0  0  0
 13 10  1  0  0  0  0
 14  4  1  0  0  0  0
 15  3  1  0  0  0  0
 16 18  2  0  0  0  0
 16 20  1  0  0  0  0
 17  9  1  0  0  0  0
 17  8  1  0  0  0  0
 19 20  2  0  0  0  0
 19 25  1  0  0  0  0
 20 21  1  0  0  0  0
 21 24  2  0  0  0  0
 23 24  1  0  0  0  0
 24 22  1  0  0  0  0
 25 23  2  0  0  0  0
 26 14  1  0  0  0  0
 27 28  1  0  0  0  0
 27 26  1  0  0  0  0
 29 31  1  0  0  0  0
 30 28  1  0  0  0  0
 31 30  1  0  0  0  0
 31 28  1  0  0  0  0
 32 26  1  0  0  0  0
 32 33  1  0  0  0  0
 33 35  1  0  0  0  0
 34 33  1  0  0  0  0
 36 37  1  0  0  0  0
 37 32  1  0  0  0  0
M  END
>  <MODEL>
2

>  <REMARK>
 VINA RESULT:      -6.0      5.957      8.560
  Name = 
  7 active torsions:
  status: ('A' for Active; 'I' for Inactive)
    1  A    between atoms: C_1  and  C_5
    2  A    between atoms: C_1  and  C_36
    3  A    between atoms: C_6  and  C_31
    4  A    between atoms: C_11  and  C_33
    5  A    between atoms: O_27  and  C_33
    6  A    between atoms: C_29  and  C_36
    7  A    between atoms: C_33  and  C_36
                            x       y       z     vdW  Elec       q    Type
                         _______ _______ _______ _____ _____    ______ ____

>  <TORSDO>
F 7

$$$$
=
 OpenBabel11052415323D

 37 43  0  0  1  0  0  0  0  0999 V2000
  178.9470  182.3500  139.0450 O   0  0  0  0  0  1  0  0  0  0  0  0
  180.9480  178.7440  135.9820 C   0  0  0  0  0  2  0  0  0  0  0  0
  179.6120  178.9020  138.1720 C   0  0  0  0  0  2  0  0  0  0  0  0
  182.8480  178.1040  137.7900 C   0  0  2  0  0  3  0  0  0  0  0  0
  183.2380  181.3120  138.6720 O   0  0  0  0  0  1  0  0  0  0  0  0
  184.3660  177.9980  137.8140 C   0  0  0  0  0  2  0  0  0  0  0  0
  180.3070  179.6530  137.0240 C   0  0  1  0  0  0  0  0  0  0  0  0
  182.0580  180.5720  138.6200 C   0  0  1  0  0  0  0  0  0  0  0  0
  179.7050  181.2190  138.7470 C   0  0  2  0  0  0  0  0  0  0  0  0
  182.8110  177.1280  135.4860 C   0  0  0  0  0  2  0  0  0  0  0  0
  181.4510  180.6940  137.2440 C   0  0  2  0  0  3  0  0  0  0  0  0
  180.0530  181.1520  137.2660 C   0  0  1  0  0  3  0  0  0  0  0  0
  182.4180  178.3450  136.3090 C   0  0  1  0  0  3  0  0  0  0  0  0
  182.3560  179.0770  138.9180 C   0  0  2  0  0  3  0  0  0  0  0  0
  178.9330  179.9520  139.0300 C   0  0  0  0  0  2  0  0  0  0  0  0
  184.9010  177.0380  136.7800 C   0  0  0  0  0  0  0  0  0  0  0  0
  181.0160  181.2010  139.5420 C   0  0  0  0  0  2  0  0  0  0  0  0
  184.2020  176.7310  135.7210 N   0  0  0  0  0  0  0  0  0  0  0  0
  186.6380  175.2730  136.4080 C   0  0  0  0  0  3  0  0  0  0  0  0
  186.2870  176.5390  136.9080 C   0  0  0  0  0  0  0  0  0  0  0  0
  187.2740  177.3260  137.5220 C   0  0  0  0  0  3  0  0  0  0  0  0
  189.5290  177.6240  138.2310 F   0  0  0  0  0  0  0  0  0  0  0  0
  188.9240  175.5960  137.1370 C   0  0  0  0  0  3  0  0  0  0  0  0
  188.5850  176.8560  137.6370 C   0  0  0  0  0  0  0  0  0  0  0  0
  187.9500  174.8050  136.5220 C   0  0  0  0  0  3  0  0  0  0  0  0
  182.5870  178.6940  140.3900 C   0  0  2  0  0  3  0  0  0  0  0  0
  184.0490  178.6560  140.8510 C   0  0  0  0  0  2  0  0  0  0  0  0
  184.2220  178.1180  142.2680 C   0  0  2  0  0  3  0  0  0  0  0  0
  186.5230  178.8140  141.8780 O   0  0  0  0  0  1  0  0  0  0  0  0
  184.5890  179.2600  143.1920 C   0  0  0  0  0  2  0  0  0  0  0  0
  185.6480  178.2480  142.8110 C   0  0  1  0  0  3  0  0  0  0  0  0
  181.6560  177.5960  140.9280 C   0  0  2  0  0  3  0  0  0  0  0  0
  181.4560  176.4690  139.9100 C   0  0  2  0  0  3  0  0  0  0  0  0
  180.1920  175.6660  140.1740 C   0  0  0  0  0  1  0  0  0  0  0  0
  182.5490  175.6220  139.9270 F   0  0  0  0  0  0  0  0  0  0  0  0
  180.7410  178.8130  142.5450 C   0  0  0  0  0  1  0  0  0  0  0  0
  180.4340  178.1110  141.3780 O   0  0  0  0  0  0  0  0  0  0  0  0
  2 13  1  0  0  0  0
  3 15  1  0  0  0  0
  4  6  1  6  0  0  0
  4 14  1  0  0  0  0
  7  2  1  6  0  0  0
  7 11  1  0  0  0  0
  7 12  1  0  0  0  0
  7  3  1  0  0  0  0
  8  5  1  1  0  0  0
  8 14  1  0  0  0  0
  8 17  1  0  0  0  0
  9 15  1  0  0  0  0
  9  1  1  1  0  0  0
  9 17  1  0  0  0  0
 10 18  1  0  0  0  0
 10 13  1  0  0  0  0
 11 12  1  0  0  0  0
 11  8  1  0  0  0  0
 12  9  1  0  0  0  0
 13  4  1  0  0  0  0
 14 26  1  0  0  0  0
 16 20  1  0  0  0  0
 16  6  1  0  0  0  0
 18 16  2  0  0  0  0
 19 25  2  0  0  0  0
 19 20  1  0  0  0  0
 20 21  2  0  0  0  0
 21 24  1  0  0  0  0
 23 24  2  0  0  0  0
 24 22  1  0  0  0  0
 25 23  1  0  0  0  0
 26 27  1  0  0  0  0
 26 32  1  0  0  0  0
 27 28  1  0  0  0  0
 28 31  1  0  0  0  0
 28 30  1  0  0  0  0
 29 31  1  0  0  0  0
 31 30  1  0  0  0  0
 32 37  1  0  0  0  0
 33 35  1  0  0  0  0
 33 34  1  0  0  0  0
 33 32  1  0  0  0  0
 37 36  1  0  0  0  0
M  END
>  <MODEL>
3

>  <REMARK>
 VINA RESULT:      -5.9      3.101      5.109
  Name = 
  7 active torsions:
  status: ('A' for Active; 'I' for Inactive)
    1  A    between atoms: C_1  and  C_5
    2  A    between atoms: C_1  and  C_36
    3  A    between atoms: C_6  and  C_31
    4  A    between atoms: C_11  and  C_33
    5  A    between atoms: O_27  and  C_33
    6  A    between atoms: C_29  and  C_36
    7  A    between atoms: C_33  and  C_36
                            x       y       z     vdW  Elec       q    Type
                         _______ _______ _______ _____ _____    ______ ____

>  <TORSDO>
F 7

$$$$
=
 OpenBabel11052415323D

 37 43  0  0  1  0  0  0  0  0999 V2000
  192.0550  175.7660  145.0870 O   0  0  0  0  0  1  0  0  0  0  0  0
  190.1490  177.8030  140.7730 C   0  0  0  0  0  2  0  0  0  0  0  0
  190.8520  178.5600  143.1270 C   0  0  0  0  0  2  0  0  0  0  0  0
  187.7410  178.2420  141.9120 C   0  0  2  0  0  3  0  0  0  0  0  0
  187.8990  175.3570  143.6060 O   0  0  0  0  0  1  0  0  0  0  0  0
  186.2910  177.8910  141.6110 C   0  0  0  0  0  2  0  0  0  0  0  0
  190.6860  177.3920  142.1400 C   0  0  1  0  0  0  0  0  0  0  0  0
  188.8420  176.3830  143.5670 C   0  0  1  0  0  0  0  0  0  0  0  0
  191.1590  176.5180  144.3290 C   0  0  2  0  0  0  0  0  0  0  0  0
  188.1600  178.6280  139.4740 C   0  0  0  0  0  2  0  0  0  0  0  0
  189.8040  176.1360  142.4320 C   0  0  2  0  0  3  0  0  0  0  0  0
  191.2120  176.1360  142.8560 C   0  0  1  0  0  3  0  0  0  0  0  0
  188.5940  177.8080  140.6790 C   0  0  1  0  0  3  0  0  0  0  0  0
  188.1300  177.7470  143.3480 C   0  0  2  0  0  3  0  0  0  0  0  0
  191.5060  177.9870  144.3700 C   0  0  0  0  0  2  0  0  0  0  0  0
  185.8400  178.3820  140.2570 C   0  0  0  0  0  0  0  0  0  0  0  0
  189.7180  176.3240  144.8160 C   0  0  0  0  0  2  0  0  0  0  0  0
  186.7030  178.6330  139.3100 N   0  0  0  0  0  0  0  0  0  0  0  0
  183.5060  177.5050  140.4900 C   0  0  0  0  0  3  0  0  0  0  0  0
  184.3930  178.4590  139.9640 C   0  0  0  0  0  0  0  0  0  0  0  0
  183.8830  179.4940  139.1630 C   0  0  0  0  0  3  0  0  0  0  0  0
  182.0330  180.5730  138.1180 F   0  0  0  0  0  0  0  0  0  0  0  0
  181.6410  178.6170  139.4200 C   0  0  0  0  0  3  0  0  0  0  0  0
  182.5140  179.5710  138.8920 C   0  0  0  0  0  0  0  0  0  0  0  0
  182.1370  177.5830  140.2190 C   0  0  0  0  0  3  0  0  0  0  0  0
  187.4320  178.3700  144.5690 C   0  0  2  0  0  3  0  0  0  0  0  0
  188.2690  178.4510  145.8520 C   0  0  0  0  0  2  0  0  0  0  0  0
  187.7420  177.5640  146.9750 C   0  0  2  0  0  3  0  0  0  0  0  0
  190.0860  177.5990  147.6330 O   0  0  0  0  0  1  0  0  0  0  0  0
  187.9050  178.2850  148.2960 C   0  0  0  0  0  2  0  0  0  0  0  0
  188.8160  177.1210  147.9710 C   0  0  1  0  0  3  0  0  0  0  0  0
  185.9480  178.0010  144.7270 C   0  0  2  0  0  3  0  0  0  0  0  0
  185.0320  179.2010  144.4700 C   0  0  2  0  0  3  0  0  0  0  0  0
  183.7300  178.8030  143.7910 C   0  0  0  0  0  1  0  0  0  0  0  0
  185.6890  180.1340  143.6900 F   0  0  0  0  0  0  0  0  0  0  0  0
  184.7710  178.2530  146.5940 C   0  0  0  0  0  1  0  0  0  0  0  0
  185.6810  177.4010  145.9640 O   0  0  0  0  0  0  0  0  0  0  0  0
  3 15  1  0  0  0  0
  4  6  1  6  0  0  0
  4 14  1  0  0  0  0
  7  2  1  6  0  0  0
  7 11  1  0  0  0  0
  7 12  1  0  0  0  0
  7  3  1  0  0  0  0
  8  5  1  1  0  0  0
  8 17  1  0  0  0  0
  9 15  1  0  0  0  0
  9 17  1  0  0  0  0
  9  1  1  1  0  0  0
 10 13  1  0  0  0  0
 11 12  1  0  0  0  0
 11  8  1  0  0  0  0
 12  9  1  0  0  0  0
 13  2  1  0  0  0  0
 13  4  1  0  0  0  0
 14  8  1  0  0  0  0
 14 26  1  0  0  0  0
 16  6  1  0  0  0  0
 18 10  1  0  0  0  0
 18 16  2  0  0  0  0
 20 16  1  0  0  0  0
 20 19  2  0  0  0  0
 21 20  1  0  0  0  0
 22 24  1  0  0  0  0
 23 25  2  0  0  0  0
 24 21  2  0  0  0  0
 24 23  1  0  0  0  0
 25 19  1  0  0  0  0
 26 32  1  0  0  0  0
 26 27  1  0  0  0  0
 27 28  1  0  0  0  0
 28 31  1  0  0  0  0
 28 30  1  0  0  0  0
 29 31  1  0  0  0  0
 31 30  1  0  0  0  0
 32 37  1  0  0  0  0
 33 32  1  0  0  0  0
 34 33  1  0  0  0  0
 35 33  1  0  0  0  0
 37 36  1  0  0  0  0
M  END
>  <MODEL>
4

>  <REMARK>
 VINA RESULT:      -5.7      4.631      8.958
  Name = 
  7 active torsions:
  status: ('A' for Active; 'I' for Inactive)
    1  A    between atoms: C_1  and  C_5
    2  A    between atoms: C_1  and  C_36
    3  A    between atoms: C_6  and  C_31
    4  A    between atoms: C_11  and  C_33
    5  A    between atoms: O_27  and  C_33
    6  A    between atoms: C_29  and  C_36
    7  A    between atoms: C_33  and  C_36
                            x       y       z     vdW  Elec       q    Type
                         _______ _______ _______ _____ _____    ______ ____

>  <TORSDO>
F 7

$$$$
=
 OpenBabel11052415323D

 37 43  0  0  1  0  0  0  0  0999 V2000
  190.7560  176.0830  134.5950 O   0  0  0  0  0  1  0  0  0  0  0  0
  188.9410  177.9400  139.0280 C   0  0  0  0  0  2  0  0  0  0  0  0
  189.2680  175.6700  137.8680 C   0  0  0  0  0  2  0  0  0  0  0  0
  186.3950  177.3270  138.3710 C   0  0  2  0  0  3  0  0  0  0  0  0
  186.9010  178.1900  135.1740 O   0  0  0  0  0  1  0  0  0  0  0  0
  185.0660  178.0640  138.2740 C   0  0  0  0  0  2  0  0  0  0  0  0
  189.4080  177.1990  137.7810 C   0  0  1  0  0  0  0  0  0  0  0  0
  187.6450  177.3060  135.9540 C   0  0  1  0  0  0  0  0  0  0  0  0
  189.8170  176.2400  135.6130 C   0  0  2  0  0  0  0  0  0  0  0  0
  186.9700  178.6260  140.4320 C   0  0  0  0  0  2  0  0  0  0  0  0
  188.7400  178.0620  136.6630 C   0  0  2  0  0  3  0  0  0  0  0  0
  190.0790  177.4990  136.4280 C   0  0  1  0  0  3  0  0  0  0  0  0
  187.4260  178.3040  139.0180 C   0  0  1  0  0  3  0  0  0  0  0  0
  186.7260  176.6280  137.0070 C   0  0  2  0  0  3  0  0  0  0  0  0
  189.8900  175.1040  136.6060 C   0  0  0  0  0  2  0  0  0  0  0  0
  184.6670  178.7230  139.5710 C   0  0  0  0  0  0  0  0  0  0  0  0
  188.3930  176.3280  135.0500 C   0  0  0  0  0  2  0  0  0  0  0  0
  185.5590  179.0190  140.4780 N   0  0  0  0  0  0  0  0  0  0  0  0
  182.5030  178.6450  140.8290 C   0  0  0  0  0  3  0  0  0  0  0  0
  183.2650  179.1500  139.7620 C   0  0  0  0  0  0  0  0  0  0  0  0
  182.6770  180.0750  138.8840 C   0  0  0  0  0  3  0  0  0  0  0  0
  180.7960  181.3770  138.2160 F   0  0  0  0  0  0  0  0  0  0  0  0
  180.6050  179.9760  140.1330 C   0  0  0  0  0  3  0  0  0  0  0  0
  181.3530  180.4840  139.0690 C   0  0  0  0  0  0  0  0  0  0  0  0
  181.1810  179.0550  141.0130 C   0  0  0  0  0  3  0  0  0  0  0  0
  185.8140  175.4940  136.5070 C   0  0  2  0  0  3  0  0  0  0  0  0
  184.3640  175.8880  136.1970 C   0  0  0  0  0  2  0  0  0  0  0  0
  183.7790  175.1460  135.0000 C   0  0  2  0  0  3  0  0  0  0  0  0
  182.0310  174.6280  136.6160 O   0  0  0  0  0  1  0  0  0  0  0  0
  182.4770  175.8040  134.5940 C   0  0  0  0  0  2  0  0  0  0  0  0
  182.4410  174.4590  135.2890 C   0  0  1  0  0  3  0  0  0  0  0  0
  186.0370  174.1330  137.1850 C   0  0  2  0  0  3  0  0  0  0  0  0
  186.4790  173.0620  136.1830 C   0  0  2  0  0  3  0  0  0  0  0  0
  187.7640  172.3660  136.6040 C   0  0  0  0  0  1  0  0  0  0  0  0
  186.6540  173.6320  134.9350 F   0  0  0  0  0  0  0  0  0  0  0  0
  184.5860  172.4670  137.4120 C   0  0  0  0  0  1  0  0  0  0  0  0
  184.9220  173.7210  137.9260 O   0  0  0  0  0  0  0  0  0  0  0  0
  4  6  1  6  0  0  0
  4 13  1  0  0  0  0
  6 16  1  0  0  0  0
  7  3  1  6  0  0  0
  7  2  1  0  0  0  0
  8  5  1  6  0  0  0
  8 11  1  0  0  0  0
  8 14  1  0  0  0  0
  9  1  1  6  0  0  0
  9 12  1  0  0  0  0
  9 15  1  0  0  0  0
 10 18  1  0  0  0  0
 11  7  1  0  0  0  0
 12 11  1  0  0  0  0
 12  7  1  0  0  0  0
 13  2  1  0  0  0  0
 13 10  1  0  0  0  0
 14  4  1  0  0  0  0
 15  3  1  0  0  0  0
 16 20  1  0  0  0  0
 16 18  2  0  0  0  0
 17  9  1  0  0  0  0
 17  8  1  0  0  0  0
 19 25  1  0  0  0  0
 20 19  2  0  0  0  0
 21 24  2  0  0  0  0
 21 20  1  0  0  0  0
 22 24  1  0  0  0  0
 23 25  2  0  0  0  0
 24 23  1  0  0  0  0
 26 14  1  0  0  0  0
 26 32  1  0  0  0  0
 27 26  1  0  0  0  0
 28 31  1  0  0  0  0
 28 27  1  0  0  0  0
 30 28  1  0  0  0  0
 30 31  1  0  0  0  0
 31 29  1  0  0  0  0
 32 37  1  0  0  0  0
 33 34  1  0  0  0  0
 33 32  1  0  0  0  0
 35 33  1  0  0  0  0
 36 37  1  0  0  0  0
M  END
>  <MODEL>
5

>  <REMARK>
 VINA RESULT:      -5.7      5.129      7.835
  Name = 
  7 active torsions:
  status: ('A' for Active; 'I' for Inactive)
    1  A    between atoms: C_1  and  C_5
    2  A    between atoms: C_1  and  C_36
    3  A    between atoms: C_6  and  C_31
    4  A    between atoms: C_11  and  C_33
    5  A    between atoms: O_27  and  C_33
    6  A    between atoms: C_29  and  C_36
    7  A    between atoms: C_33  and  C_36
                            x       y       z     vdW  Elec       q    Type
                         _______ _______ _______ _____ _____    ______ ____

>  <TORSDO>
F 7

$$$$
=
 OpenBabel11052415323D

 37 43  0  0  1  0  0  0  0  0999 V2000
  178.9330  176.6180  137.1840 O   0  0  0  0  0  1  0  0  0  0  0  0
  180.8940  179.2290  141.1500 C   0  0  0  0  0  2  0  0  0  0  0  0
  180.9870  179.2500  138.5810 C   0  0  0  0  0  2  0  0  0  0  0  0
  183.3710  178.2450  140.7180 C   0  0  2  0  0  3  0  0  0  0  0  0
  182.1470  175.2350  139.9040 O   0  0  0  0  0  1  0  0  0  0  0  0
  184.4270  177.5070  141.5270 C   0  0  0  0  0  2  0  0  0  0  0  0
  180.4410  178.5740  139.8510 C   0  0  1  0  0  0  0  0  0  0  0  0
  181.7950  176.4770  139.3770 C   0  0  1  0  0  0  0  0  0  0  0  0
  179.9510  177.1930  137.9440 C   0  0  2  0  0  0  0  0  0  0  0  0
  182.8180  179.6510  142.7140 C   0  0  0  0  0  2  0  0  0  0  0  0
  180.6700  177.0670  140.1900 C   0  0  2  0  0  3  0  0  0  0  0  0
  179.5050  177.4470  139.3770 C   0  0  1  0  0  3  0  0  0  0  0  0
  182.2390  178.6720  141.7050 C   0  0  1  0  0  3  0  0  0  0  0  0
  183.0170  177.4360  139.4220 C   0  0  2  0  0  3  0  0  0  0  0  0
  180.3380  178.5490  137.4030 C   0  0  0  0  0  2  0  0  0  0  0  0
  184.8450  178.2570  142.7670 C   0  0  0  0  0  0  0  0  0  0  0  0
  181.1920  176.2930  137.9870 C   0  0  0  0  0  2  0  0  0  0  0  0
  184.0660  179.1570  143.3030 N   0  0  0  0  0  0  0  0  0  0  0  0
  186.1740  177.8740  144.8540 C   0  0  0  0  0  3  0  0  0  0  0  0
  186.1000  177.8780  143.4510 C   0  0  0  0  0  0  0  0  0  0  0  0
  187.2310  177.5050  142.7090 C   0  0  0  0  0  3  0  0  0  0  0  0
  189.5000  176.7820  142.6300 F   0  0  0  0  0  0  0  0  0  0  0  0
  188.4780  177.1400  144.7520 C   0  0  0  0  0  3  0  0  0  0  0  0
  188.4150  177.1400  143.3560 C   0  0  0  0  0  0  0  0  0  0  0  0
  187.3570  177.5070  145.5010 C   0  0  0  0  0  3  0  0  0  0  0  0
  184.1000  177.2330  138.3480 C   0  0  2  0  0  3  0  0  0  0  0  0
  185.2660  178.2280  138.3750 C   0  0  0  0  0  2  0  0  0  0  0  0
  186.6310  177.5570  138.4910 C   0  0  2  0  0  3  0  0  0  0  0  0
  187.2630  179.3730  136.9960 O   0  0  0  0  0  1  0  0  0  0  0  0
  187.5910  178.5000  139.1860 C   0  0  0  0  0  2  0  0  0  0  0  0
  187.7360  178.2600  137.6980 C   0  0  1  0  0  3  0  0  0  0  0  0
  183.5730  176.8130  136.9670 C   0  0  2  0  0  3  0  0  0  0  0  0
  184.3300  175.6020  136.4120 C   0  0  2  0  0  3  0  0  0  0  0  0
  184.3370  174.4280  137.3790 C   0  0  0  0  0  1  0  0  0  0  0  0
  185.6320  175.9580  136.1140 F   0  0  0  0  0  0  0  0  0  0  0  0
  182.9480  177.3730  134.9100 C   0  0  0  0  0  1  0  0  0  0  0  0
  183.5630  177.8780  136.0570 O   0  0  0  0  0  0  0  0  0  0  0  0
  2 13  1  0  0  0  0
  4  6  1  1  0  0  0
  4 13  1  0  0  0  0
  6 16  1  0  0  0  0
  7  3  1  6  0  0  0
  7 11  1  0  0  0  0
  7  2  1  0  0  0  0
  8 14  1  0  0  0  0
  8  5  1  1  0  0  0
  8 11  1  0  0  0  0
  9  1  1  6  0  0  0
  9 17  1  0  0  0  0
  9 12  1  0  0  0  0
 10 18  1  0  0  0  0
 12  7  1  0  0  0  0
 12 11  1  0  0  0  0
 13 10  1  0  0  0  0
 14  4  1  0  0  0  0
 15  9  1  0  0  0  0
 15  3  1  0  0  0  0
 16 18  2  0  0  0  0
 16 20  1  0  0  0  0
 17  8  1  0  0  0  0
 19 25  1  0  0  0  0
 20 19  2  0  0  0  0
 21 24  2  0  0  0  0
 21 20  1  0  0  0  0
 22 24  1  0  0  0  0
 23 25  2  0  0  0  0
 24 23  1  0  0  0  0
 26 27  1  0  0  0  0
 26 14  1  0  0  0  0
 27 28  1  0  0  0  0
 28 30  1  0  0  0  0
 29 31  1  0  0  0  0
 31 28  1  0  0  0  0
 31 30  1  0  0  0  0
 32 26  1  0  0  0  0
 33 32  1  0  0  0  0
 33 34  1  0  0  0  0
 35 33  1  0  0  0  0
 36 37  1  0  0  0  0
 37 32  1  0  0  0  0
M  END
>  <MODEL>
6

>  <REMARK>
 VINA RESULT:      -5.6      2.850      5.009
  Name = 
  7 active torsions:
  status: ('A' for Active; 'I' for Inactive)
    1  A    between atoms: C_1  and  C_5
    2  A    between atoms: C_1  and  C_36
    3  A    between atoms: C_6  and  C_31
    4  A    between atoms: C_11  and  C_33
    5  A    between atoms: O_27  and  C_33
    6  A    between atoms: C_29  and  C_36
    7  A    between atoms: C_33  and  C_36
                            x       y       z     vdW  Elec       q    Type
                         _______ _______ _______ _____ _____    ______ ____

>  <TORSDO>
F 7

$$$$
=
 OpenBabel11052415323D

 37 43  0  0  1  0  0  0  0  0999 V2000
  191.9890  175.9600  143.7640 O   0  0  0  0  0  1  0  0  0  0  0  0
  188.7130  178.4360  140.6760 C   0  0  0  0  0  2  0  0  0  0  0  0
  190.0420  178.8660  142.8350 C   0  0  0  0  0  2  0  0  0  0  0  0
  186.7410  178.3550  142.5190 C   0  0  2  0  0  3  0  0  0  0  0  0
  187.6220  175.2690  143.4780 O   0  0  0  0  0  1  0  0  0  0  0  0
  185.2980  177.8740  142.5780 C   0  0  0  0  0  2  0  0  0  0  0  0
  189.6690  177.8730  141.7210 C   0  0  1  0  0  0  0  0  0  0  0  0
  188.4290  176.4010  143.3800 C   0  0  1  0  0  0  0  0  0  0  0  0
  190.8510  176.7070  143.4610 C   0  0  2  0  0  0  0  0  0  0  0  0
  186.3670  179.2030  140.1940 C   0  0  0  0  0  2  0  0  0  0  0  0
  189.0150  176.4800  141.9920 C   0  0  2  0  0  3  0  0  0  0  0  0
  190.4810  176.5920  141.9890 C   0  0  1  0  0  3  0  0  0  0  0  0
  187.2080  178.2530  141.0330 C   0  0  1  0  0  3  0  0  0  0  0  0
  187.5850  177.6770  143.6530 C   0  0  2  0  0  3  0  0  0  0  0  0
  191.0840  178.1800  143.6980 C   0  0  0  0  0  2  0  0  0  0  0  0
  184.4210  178.5250  141.5380 C   0  0  0  0  0  0  0  0  0  0  0  0
  189.6460  176.2450  144.2890 C   0  0  0  0  0  2  0  0  0  0  0  0
  184.9330  179.0450  140.4560 N   0  0  0  0  0  0  0  0  0  0  0  0
  182.1330  178.1440  140.5940 C   0  0  0  0  0  3  0  0  0  0  0  0
  182.9520  178.4610  141.6910 C   0  0  0  0  0  0  0  0  0  0  0  0
  182.3550  178.7060  142.9370 C   0  0  0  0  0  3  0  0  0  0  0  0
  180.4000  178.8770  144.2910 F   0  0  0  0  0  0  0  0  0  0  0  0
  180.1610  178.3220  141.9860 C   0  0  0  0  0  3  0  0  0  0  0  0
  180.9660  178.6380  143.0830 C   0  0  0  0  0  0  0  0  0  0  0  0
  180.7460  178.0750  140.7410 C   0  0  0  0  0  3  0  0  0  0  0  0
  187.2480  177.9850  145.1220 C   0  0  2  0  0  3  0  0  0  0  0  0
  188.1340  177.3030  146.1710 C   0  0  0  0  0  2  0  0  0  0  0  0
  189.0660  178.2690  146.8960 C   0  0  2  0  0  3  0  0  0  0  0  0
  187.9180  177.3650  148.8450 O   0  0  0  0  0  1  0  0  0  0  0  0
  190.0320  177.4790  147.7550 C   0  0  0  0  0  2  0  0  0  0  0  0
  188.9120  178.2520  148.4200 C   0  0  1  0  0  3  0  0  0  0  0  0
  185.7470  178.0860  145.4370 C   0  0  2  0  0  3  0  0  0  0  0  0
  185.3450  179.5050  145.8510 C   0  0  2  0  0  3  0  0  0  0  0  0
  184.9320  180.3620  144.6650 C   0  0  0  0  0  1  0  0  0  0  0  0
  186.3940  180.1140  146.5140 F   0  0  0  0  0  0  0  0  0  0  0  0
  184.6300  177.8580  147.3440 C   0  0  0  0  0  1  0  0  0  0  0  0
  185.3390  177.1360  146.3810 O   0  0  0  0  0  0  0  0  0  0  0  0
  2 13  1  0  0  0  0
  3 15  1  0  0  0  0
  4  6  1  6  0  0  0
  4 14  1  0  0  0  0
  7  2  1  6  0  0  0
  7 12  1  0  0  0  0
  7 11  1  0  0  0  0
  7  3  1  0  0  0  0
  8  5  1  1  0  0  0
  8 14  1  0  0  0  0
  8 17  1  0  0  0  0
  9 15  1  0  0  0  0
  9  1  1  1  0  0  0
  9 17  1  0  0  0  0
 10 18  1  0  0  0  0
 10 13  1  0  0  0  0
 11  8  1  0  0  0  0
 12 11  1  0  0  0  0
 12  9  1  0  0  0  0
 13  4  1  0  0  0  0
 14 26  1  0  0  0  0
 16 20  1  0  0  0  0
 16  6  1  0  0  0  0
 18 16  2  0  0  0  0
 19 25  2  0  0  0  0
 19 20  1  0  0  0  0
 20 21  2  0  0  0  0
 21 24  1  0  0  0  0
 23 24  2  0  0  0  0
 24 22  1  0  0  0  0
 25 23  1  0  0  0  0
 26 32  1  0  0  0  0
 26 27  1  0  0  0  0
 27 28  1  0  0  0  0
 28 30  1  0  0  0  0
 28 31  1  0  0  0  0
 30 31  1  0  0  0  0
 31 29  1  0  0  0  0
 32 33  1  0  0  0  0
 32 37  1  0  0  0  0
 33 35  1  0  0  0  0
 34 33  1  0  0  0  0
 37 36  1  0  0  0  0
M  END
>  <MODEL>
7

>  <REMARK>
 VINA RESULT:      -5.6      4.365      8.644
  Name = 
  7 active torsions:
  status: ('A' for Active; 'I' for Inactive)
    1  A    between atoms: C_1  and  C_5
    2  A    between atoms: C_1  and  C_36
    3  A    between atoms: C_6  and  C_31
    4  A    between atoms: C_11  and  C_33
    5  A    between atoms: O_27  and  C_33
    6  A    between atoms: C_29  and  C_36
    7  A    between atoms: C_33  and  C_36
                            x       y       z     vdW  Elec       q    Type
                         _______ _______ _______ _____ _____    ______ ____

>  <TORSDO>
F 7

$$$$
=
 OpenBabel11052415323D

 37 43  0  0  1  0  0  0  0  0999 V2000
  191.9340  175.8560  145.6270 O   0  0  0  0  0  1  0  0  0  0  0  0
  190.9600  177.9080  141.0190 C   0  0  0  0  0  2  0  0  0  0  0  0
  191.0500  178.6340  143.4830 C   0  0  0  0  0  2  0  0  0  0  0  0
  188.3310  178.1790  141.5710 C   0  0  2  0  0  3  0  0  0  0  0  0
  188.2680  175.2590  143.2110 O   0  0  0  0  0  1  0  0  0  0  0  0
  187.0150  177.7560  140.9340 C   0  0  0  0  0  2  0  0  0  0  0  0
  191.1890  177.4890  142.4660 C   0  0  1  0  0  0  0  0  0  0  0  0
  189.1300  176.3370  143.4080 C   0  0  1  0  0  0  0  0  0  0  0  0
  191.1940  176.5790  144.6920 C   0  0  2  0  0  0  0  0  0  0  0  0
  189.2800  178.6580  139.3040 C   0  0  0  0  0  2  0  0  0  0  0  0
  190.3420  176.1770  142.5260 C   0  0  2  0  0  3  0  0  0  0  0  0
  191.6110  176.2430  143.2670 C   0  0  1  0  0  3  0  0  0  0  0  0
  189.4720  177.8290  140.5650 C   0  0  1  0  0  3  0  0  0  0  0  0
  188.4060  177.6640  143.0510 C   0  0  2  0  0  3  0  0  0  0  0  0
  191.4310  178.0630  144.8350 C   0  0  0  0  0  2  0  0  0  0  0  0
  186.8610  178.2600  139.5200 C   0  0  0  0  0  0  0  0  0  0  0  0
  189.6940  176.2910  144.8270 C   0  0  0  0  0  2  0  0  0  0  0  0
  187.9030  178.5860  138.8050 N   0  0  0  0  0  0  0  0  0  0  0  0
  185.1820  177.3120  137.9230 C   0  0  0  0  0  3  0  0  0  0  0  0
  185.5200  178.2650  138.8980 C   0  0  0  0  0  0  0  0  0  0  0  0
  184.5610  179.2160  139.2820 C   0  0  0  0  0  3  0  0  0  0  0  0
  182.3730  180.1380  139.0760 F   0  0  0  0  0  0  0  0  0  0  0  0
  182.9650  178.2640  137.7290 C   0  0  0  0  0  3  0  0  0  0  0  0
  183.2900  179.2160  138.6990 C   0  0  0  0  0  0  0  0  0  0  0  0
  183.9120  177.3120  137.3410 C   0  0  0  0  0  3  0  0  0  0  0  0
  187.4070  178.2120  144.0840 C   0  0  2  0  0  3  0  0  0  0  0  0
  187.4140  177.5220  145.4540 C   0  0  0  0  0  2  0  0  0  0  0  0
  188.1130  178.3380  146.5380 C   0  0  2  0  0  3  0  0  0  0  0  0
  185.9160  178.1880  147.5790 O   0  0  0  0  0  1  0  0  0  0  0  0
  188.1880  177.5170  147.8080 C   0  0  0  0  0  2  0  0  0  0  0  0
  187.2170  178.6760  147.7330 C   0  0  1  0  0  3  0  0  0  0  0  0
  186.0380  178.6150  143.5140 C   0  0  2  0  0  3  0  0  0  0  0  0
  185.3120  179.6110  144.4240 C   0  0  2  0  0  3  0  0  0  0  0  0
  184.0890  179.0020  145.0920 C   0  0  0  0  0  1  0  0  0  0  0  0
  184.9300  180.7210  143.6940 F   0  0  0  0  0  0  0  0  0  0  0  0
  184.2290  177.9890  142.3870 C   0  0  0  0  0  1  0  0  0  0  0  0
  185.2380  177.5040  143.2200 O   0  0  0  0  0  0  0  0  0  0  0  0
  3 15  1  0  0  0  0
  4  6  1  6  0  0  0
  4 14  1  0  0  0  0
  7  2  1  6  0  0  0
  7 11  1  0  0  0  0
  7 12  1  0  0  0  0
  7  3  1  0  0  0  0
  8  5  1  6  0  0  0
  8 17  1  0  0  0  0
  9 17  1  0  0  0  0
  9 15  1  0  0  0  0
  9  1  1  1  0  0  0
 10 13  1  0  0  0  0
 11 12  1  0  0  0  0
 11  8  1  0  0  0  0
 12  9  1  0  0  0  0
 13  2  1  0  0  0  0
 13  4  1  0  0  0  0
 14  8  1  0  0  0  0
 14 26  1  0  0  0  0
 16  6  1  0  0  0  0
 18 10  1  0  0  0  0
 18 16  2  0  0  0  0
 19 20  1  0  0  0  0
 20 21  2  0  0  0  0
 20 16  1  0  0  0  0
 23 24  2  0  0  0  0
 24 22  1  0  0  0  0
 24 21  1  0  0  0  0
 25 23  1  0  0  0  0
 25 19  2  0  0  0  0
 26 27  1  0  0  0  0
 27 28  1  0  0  0  0
 28 31  1  0  0  0  0
 28 30  1  0  0  0  0
 29 31  1  0  0  0  0
 31 30  1  0  0  0  0
 32 26  1  0  0  0  0
 32 33  1  0  0  0  0
 33 34  1  0  0  0  0
 35 33  1  0  0  0  0
 36 37  1  0  0  0  0
 37 32  1  0  0  0  0
M  END
>  <MODEL>
8

>  <REMARK>
 VINA RESULT:      -5.5      4.540      9.016
  Name = 
  7 active torsions:
  status: ('A' for Active; 'I' for Inactive)
    1  A    between atoms: C_1  and  C_5
    2  A    between atoms: C_1  and  C_36
    3  A    between atoms: C_6  and  C_31
    4  A    between atoms: C_11  and  C_33
    5  A    between atoms: O_27  and  C_33
    6  A    between atoms: C_29  and  C_36
    7  A    between atoms: C_33  and  C_36
                            x       y       z     vdW  Elec       q    Type
                         _______ _______ _______ _____ _____    ______ ____

>  <TORSDO>
F 7

$$$$
=
 OpenBabel11052415323D

 37 43  0  0  1  0  0  0  0  0999 V2000
  191.1540  175.9620  134.7610 O   0  0  0  0  0  1  0  0  0  0  0  0
  189.3130  177.9090  139.1450 C   0  0  0  0  0  2  0  0  0  0  0  0
  189.6500  175.6150  138.0350 C   0  0  0  0  0  2  0  0  0  0  0  0
  186.7710  177.2760  138.4880 C   0  0  2  0  0  3  0  0  0  0  0  0
  187.2920  178.0730  135.2770 O   0  0  0  0  0  1  0  0  0  0  0  0
  185.4420  178.0080  138.3690 C   0  0  0  0  0  2  0  0  0  0  0  0
  189.7870  177.1420  137.9160 C   0  0  1  0  0  0  0  0  0  0  0  0
  188.0340  177.2070  136.0790 C   0  0  1  0  0  0  0  0  0  0  0  0
  190.2100  176.1390  135.7710 C   0  0  2  0  0  0  0  0  0  0  0  0
  187.3330  178.6190  140.5250 C   0  0  0  0  0  2  0  0  0  0  0  0
  189.1240  177.9800  136.7770 C   0  0  2  0  0  3  0  0  0  0  0  0
  190.4650  177.4150  136.5610 C   0  0  1  0  0  3  0  0  0  0  0  0
  187.7970  178.2690  139.1190 C   0  0  1  0  0  3  0  0  0  0  0  0
  187.1110  176.5490  137.1410 C   0  0  2  0  0  3  0  0  0  0  0  0
  190.2800  175.0240  136.7880 C   0  0  0  0  0  2  0  0  0  0  0  0
  185.0350  178.6930  139.6500 C   0  0  0  0  0  0  0  0  0  0  0  0
  188.7890  176.2120  135.1990 C   0  0  0  0  0  2  0  0  0  0  0  0
  185.9210  179.0100  140.5550 N   0  0  0  0  0  0  0  0  0  0  0  0
  183.0150  179.9530  138.8740 C   0  0  0  0  0  3  0  0  0  0  0  0
  183.6300  179.1210  139.8240 C   0  0  0  0  0  0  0  0  0  0  0  0
  182.8890  178.6940  140.9370 C   0  0  0  0  0  3  0  0  0  0  0  0
  180.8520  178.6750  142.1750 F   0  0  0  0  0  0  0  0  0  0  0  0
  180.9560  179.9200  140.1470 C   0  0  0  0  0  3  0  0  0  0  0  0
  181.5580  179.0930  141.0980 C   0  0  0  0  0  0  0  0  0  0  0  0
  181.6850  180.3500  139.0350 C   0  0  0  0  0  3  0  0  0  0  0  0
  186.2030  175.4030  136.6600 C   0  0  2  0  0  3  0  0  0  0  0  0
  186.9200  174.1830  136.0700 C   0  0  0  0  0  2  0  0  0  0  0  0
  186.6110  172.8840  136.8090 C   0  0  2  0  0  3  0  0  0  0  0  0
  187.0700  171.9340  134.6140 O   0  0  0  0  0  1  0  0  0  0  0  0
  187.8600  172.0300  136.8570 C   0  0  0  0  0  2  0  0  0  0  0  0
  186.7270  171.6320  135.9360 C   0  0  1  0  0  3  0  0  0  0  0  0
  184.9040  175.8500  135.9700 C   0  0  2  0  0  3  0  0  0  0  0  0
  183.6630  175.4110  136.7530 C   0  0  2  0  0  3  0  0  0  0  0  0
  182.7390  176.5740  137.0780 C   0  0  0  0  0  1  0  0  0  0  0  0
  184.0450  174.7870  137.9270 F   0  0  0  0  0  0  0  0  0  0  0  0
  183.8400  174.4690  134.5940 C   0  0  0  0  0  1  0  0  0  0  0  0
  184.8460  175.4370  134.6330 O   0  0  0  0  0  0  0  0  0  0  0  0
  4  6  1  6  0  0  0
  4 13  1  0  0  0  0
  6 16  1  0  0  0  0
  7  3  1  1  0  0  0
  7  2  1  0  0  0  0
  8  5  1  6  0  0  0
  8 11  1  0  0  0  0
  8 14  1  0  0  0  0
  9  1  1  6  0  0  0
  9 12  1  0  0  0  0
  9 15  1  0  0  0  0
 10 18  1  0  0  0  0
 11  7  1  0  0  0  0
 12 11  1  0  0  0  0
 12  7  1  0  0  0  0
 13  2  1  0  0  0  0
 13 10  1  0  0  0  0
 14  4  1  0  0  0  0
 15  3  1  0  0  0  0
 16 20  1  0  0  0  0
 16 18  2  0  0  0  0
 17  9  1  0  0  0  0
 17  8  1  0  0  0  0
 19 25  2  0  0  0  0
 19 20  1  0  0  0  0
 20 21  2  0  0  0  0
 21 24  1  0  0  0  0
 23 24  2  0  0  0  0
 24 22  1  0  0  0  0
 25 23  1  0  0  0  0
 26 14  1  0  0  0  0
 27 26  1  0  0  0  0
 27 28  1  0  0  0  0
 28 30  1  0  0  0  0
 29 31  1  0  0  0  0
 31 28  1  0  0  0  0
 31 30  1  0  0  0  0
 32 26  1  0  0  0  0
 32 33  1  0  0  0  0
 33 34  1  0  0  0  0
 33 35  1  0  0  0  0
 36 37  1  0  0  0  0
 37 32  1  0  0  0  0
M  END
>  <MODEL>
9

>  <REMARK>
 VINA RESULT:      -5.4      5.456      8.243
  Name = 
  7 active torsions:
  status: ('A' for Active; 'I' for Inactive)
    1  A    between atoms: C_1  and  C_5
    2  A    between atoms: C_1  and  C_36
    3  A    between atoms: C_6  and  C_31
    4  A    between atoms: C_11  and  C_33
    5  A    between atoms: O_27  and  C_33
    6  A    between atoms: C_29  and  C_36
    7  A    between atoms: C_33  and  C_36
                            x       y       z     vdW  Elec       q    Type
                         _______ _______ _______ _____ _____    ______ ____

>  <TORSDO>
F 7

$$$$
