=
 OpenBabel11052415243D

 37 40  0  0  1  0  0  0  0  0999 V2000
  184.0810  177.6150  138.9890 C   0  0  0  0  0  3  0  0  0  0  0  0
  180.3010  177.3480  140.8370 C   0  0  0  0  0  2  0  0  0  0  0  0
  185.3850  178.6790  142.9940 C   0  0  0  0  0  3  0  0  0  0  0  0
  182.9170  177.4780  139.6250 C   0  0  0  0  0  0  0  0  0  0  0  0
  184.6910  178.6260  141.7800 C   0  0  0  0  0  0  0  0  0  0  0  0
  182.0310  176.3830  139.2860 N   0  0  0  0  0  0  0  0  0  0  0  0
  185.4720  178.6340  140.6910 C   0  0  0  0  0  2  0  0  0  0  0  0
  183.2520  178.6800  141.7750 C   0  0  0  0  0  0  0  0  0  0  0  0
  183.3330  178.9670  144.2130 C   0  0  0  0  0  3  0  0  0  0  0  0
  184.9980  178.7390  139.2850 C   0  0  1  0  0  3  0  0  0  0  0  0
  182.6220  178.8850  143.0180 C   0  0  0  0  0  3  0  0  0  0  0  0
  180.6290  176.3390  139.7260 C   0  0  0  0  0  2  0  0  0  0  0  0
  182.4730  178.4470  140.6670 C   0  0  2  0  0  3  0  0  0  0  0  0
  184.7150  178.8310  144.2050 C   0  0  0  0  0  0  0  0  0  0  0  0
  180.9630  178.6990  140.5740 C   0  0  1  0  0  0  0  0  0  0  0  0
  185.4820  178.9180  145.4770 C   0  0  0  0  0  2  0  0  0  0  0  0
  184.6370  178.5170  146.5890 N   0  0  0  0  0  1  0  0  0  0  0  0
  187.0520  178.6440  137.6600 N   0  0  0  0  0  0  0  0  0  0  0  0
  186.1460  178.6850  138.3770 C   0  0  0  0  0  0  0  0  0  0  0  0
  180.6340  179.1210  139.2440 O   0  0  0  0  0  0  0  0  0  0  0  0
  180.2100  180.4180  138.9560 C   0  0  0  0  0  3  0  0  0  0  0  0
  180.2750  181.2700  136.5630 O   0  0  0  0  0  0  0  0  0  0  0  0
  180.2430  180.8540  137.7290 C   0  0  0  0  0  0  0  0  0  0  0  0
  180.4190  179.7530  141.5570 C   0  0  0  0  0  2  0  0  0  0  0  0
  179.1820  179.2720  142.3020 C   0  0  0  0  0  2  0  0  0  0  0  0
  179.1470  179.9040  143.6760 C   0  0  0  0  0  2  0  0  0  0  0  0
  179.7470  177.7390  144.2880 C   0  0  0  0  0  1  0  0  0  0  0  0
  178.9310  178.8750  144.6760 N   0  0  0  0  0  2  0  0  0  0  0  0
  182.4570  175.3200  138.3830 C   0  0  0  0  0  2  0  0  0  0  0  0
  181.4200  175.1160  137.2840 C   0  0  0  0  0  2  0  0  0  0  0  0
  180.1530  172.9260  137.1620 C   0  0  0  0  0  2  0  0  0  0  0  0
  181.4190  173.6880  136.7510 C   0  0  2  0  0  3  0  0  0  0  0  0
  182.7010  172.9410  137.1290 C   0  0  0  0  0  2  0  0  0  0  0  0
  183.7550  171.1930  135.7890 N   0  0  0  0  0  1  0  0  0  0  0  0
  181.3950  171.0880  136.0810 N   0  0  0  0  0  2  0  0  0  0  0  0
  182.6640  171.4630  136.7080 C   0  0  2  0  0  3  0  0  0  0  0  0
  180.3120  171.4090  137.0070 C   0  0  0  0  0  2  0  0  0  0  0  0
  1 10  1  0  0  0  0
  1  4  2  0  0  0  0
  3 14  1  0  0  0  0
  5  3  2  0  0  0  0
  6  4  1  0  0  0  0
  6 12  1  0  0  0  0
  7  5  1  0  0  0  0
  8  5  1  0  0  0  0
  8 11  2  0  0  0  0
 10 19  1  6  0  0  0
 10  7  1  0  0  0  0
 11  9  1  0  0  0  0
 12  2  1  0  0  0  0
 13  4  1  1  0  0  0
 13  8  1  0  0  0  0
 14  9  2  0  0  0  0
 14 16  1  0  0  0  0
 15 13  1  0  0  0  0
 15  2  1  0  0  0  0
 15 24  1  1  0  0  0
 16 17  1  0  0  0  0
 18 19  3  0  0  0  0
 20 15  1  0  0  0  0
 21 20  1  0  0  0  0
 22 23  2  0  0  0  0
 23 21  2  0  0  0  0
 24 25  1  0  0  0  0
 25 26  1  0  0  0  0
 26 28  1  0  0  0  0
 27 28  1  0  0  0  0
 29  6  1  0  0  0  0
 30 29  1  0  0  0  0
 32 33  1  0  0  0  0
 32 31  1  0  0  0  0
 32 30  1  1  0  0  0
 35 36  1  0  0  0  0
 35 37  1  0  0  0  0
 36 34  1  6  0  0  0
 36 33  1  0  0  0  0
 37 31  1  0  0  0  0
M  END
>  <MODEL>
1

>  <REMARK>
 VINA RESULT:      -6.2      0.000      0.000
  Name = 
  11 active torsions:
  status: ('A' for Active; 'I' for Inactive)
    1  A    between atoms: O_1  and  C_5
    2  A    between atoms: O_1  and  C_36
    3  A    between atoms: C_3  and  C_32
    4  A    between atoms: C_6  and  C_31
    5  A    between atoms: N_14  and  C_37
    6  A    between atoms: C_17  and  C_26
    7  A    between atoms: C_17  and  C_33
    8  A    between atoms: C_24  and  C_28
    9  A    between atoms: C_26  and  N_34
   10  A    between atoms: C_31  and  C_37
   11  A    between atoms: C_33  and  C_36
                            x       y       z     vdW  Elec       q    Type
                         _______ _______ _______ _____ _____    ______ ____

>  <TORSDO>
F 11

$$$$
=
 OpenBabel11052415243D

 37 40  0  0  1  0  0  0  0  0999 V2000
  184.2450  177.6860  138.2820 C   0  0  0  0  0  3  0  0  0  0  0  0
  180.3180  177.6250  139.8150 C   0  0  0  0  0  2  0  0  0  0  0  0
  185.2910  178.4960  142.4200 C   0  0  0  0  0  3  0  0  0  0  0  0
  183.0270  177.6100  138.8180 C   0  0  0  0  0  0  0  0  0  0  0  0
  184.6960  178.5400  141.1540 C   0  0  0  0  0  0  0  0  0  0  0  0
  182.0960  176.5970  138.3630 N   0  0  0  0  0  0  0  0  0  0  0  0
  185.5610  178.5330  140.1310 C   0  0  0  0  0  2  0  0  0  0  0  0
  183.2700  178.7010  141.0390 C   0  0  0  0  0  0  0  0  0  0  0  0
  183.1720  178.8870  143.4860 C   0  0  0  0  0  3  0  0  0  0  0  0
  185.2120  178.7280  138.6980 C   0  0  1  0  0  3  0  0  0  0  0  0
  182.5570  178.9030  142.2370 C   0  0  0  0  0  3  0  0  0  0  0  0
  180.6640  176.6390  138.6900 C   0  0  0  0  0  2  0  0  0  0  0  0
  182.5680  178.5680  139.8640 C   0  0  2  0  0  3  0  0  0  0  0  0
  184.5380  178.6490  143.5800 C   0  0  0  0  0  0  0  0  0  0  0  0
  181.0920  178.9340  139.6660 C   0  0  1  0  0  0  0  0  0  0  0  0
  185.2030  178.6310  144.9120 C   0  0  0  0  0  2  0  0  0  0  0  0
  184.2110  178.8000  145.9590 N   0  0  0  0  0  1  0  0  0  0  0  0
  187.3790  178.5430  137.2370 N   0  0  0  0  0  0  0  0  0  0  0  0
  186.4220  178.6250  137.8810 C   0  0  0  0  0  0  0  0  0  0  0  0
  180.9030  179.4300  138.3330 O   0  0  0  0  0  0  0  0  0  0  0  0
  181.1190  180.7660  137.9970 C   0  0  0  0  0  3  0  0  0  0  0  0
  180.5090  181.6020  135.6770 O   0  0  0  0  0  0  0  0  0  0  0  0
  180.8060  181.1950  136.8070 C   0  0  0  0  0  0  0  0  0  0  0  0
  180.5460  179.9850  140.6480 C   0  0  0  0  0  2  0  0  0  0  0  0
  179.0910  179.7360  141.0210 C   0  0  0  0  0  2  0  0  0  0  0  0
  178.9320  179.8460  142.5210 C   0  0  0  0  0  2  0  0  0  0  0  0
  179.6500  178.6160  144.3630 C   0  0  0  0  0  1  0  0  0  0  0  0
  178.9300  178.5180  143.1060 N   0  0  0  0  0  2  0  0  0  0  0  0
  182.5190  175.5420  137.4500 C   0  0  0  0  0  2  0  0  0  0  0  0
  183.5990  174.6830  138.1000 C   0  0  0  0  0  2  0  0  0  0  0  0
  183.6980  173.3680  135.9380 C   0  0  0  0  0  2  0  0  0  0  0  0
  184.5040  174.0180  137.0690 C   0  0  2  0  0  3  0  0  0  0  0  0
  185.4880  173.0440  137.7230 C   0  0  0  0  0  2  0  0  0  0  0  0
  187.7320  172.5500  136.8980 N   0  0  0  0  0  1  0  0  0  0  0  0
  185.9600  172.6060  135.3090 N   0  0  0  0  0  2  0  0  0  0  0  0
  186.3230  172.2720  136.6880 C   0  0  2  0  0  3  0  0  0  0  0  0
  184.5300  172.3590  135.1380 C   0  0  0  0  0  2  0  0  0  0  0  0
  1 10  1  0  0  0  0
  1  4  2  0  0  0  0
  3 14  1  0  0  0  0
  5  3  2  0  0  0  0
  6 12  1  0  0  0  0
  6  4  1  0  0  0  0
  7  5  1  0  0  0  0
  8  5  1  0  0  0  0
  8 11  2  0  0  0  0
  9 14  2  0  0  0  0
 10 19  1  6  0  0  0
 10  7  1  0  0  0  0
 11  9  1  0  0  0  0
 12  2  1  0  0  0  0
 13  4  1  1  0  0  0
 13  8  1  0  0  0  0
 14 16  1  0  0  0  0
 15  2  1  0  0  0  0
 15 13  1  0  0  0  0
 15 24  1  1  0  0  0
 16 17  1  0  0  0  0
 18 19  3  0  0  0  0
 20 15  1  0  0  0  0
 21 20  1  0  0  0  0
 22 23  2  0  0  0  0
 23 21  2  0  0  0  0
 24 25  1  0  0  0  0
 25 26  1  0  0  0  0
 26 28  1  0  0  0  0
 28 27  1  0  0  0  0
 29 30  1  0  0  0  0
 29  6  1  0  0  0  0
 31 32  1  0  0  0  0
 32 33  1  0  0  0  0
 32 30  1  1  0  0  0
 35 36  1  0  0  0  0
 36 34  1  6  0  0  0
 36 33  1  0  0  0  0
 37 35  1  0  0  0  0
 37 31  1  0  0  0  0
M  END
>  <MODEL>
2

>  <REMARK>
 VINA RESULT:      -5.4      1.621      1.956
  Name = 
  11 active torsions:
  status: ('A' for Active; 'I' for Inactive)
    1  A    between atoms: O_1  and  C_5
    2  A    between atoms: O_1  and  C_36
    3  A    between atoms: C_3  and  C_32
    4  A    between atoms: C_6  and  C_31
    5  A    between atoms: N_14  and  C_37
    6  A    between atoms: C_17  and  C_26
    7  A    between atoms: C_17  and  C_33
    8  A    between atoms: C_24  and  C_28
    9  A    between atoms: C_26  and  N_34
   10  A    between atoms: C_31  and  C_37
   11  A    between atoms: C_33  and  C_36
                            x       y       z     vdW  Elec       q    Type
                         _______ _______ _______ _____ _____    ______ ____

>  <TORSDO>
F 11

$$$$
=
 OpenBabel11052415243D

 37 40  0  0  1  0  0  0  0  0999 V2000
  182.1200  179.0160  140.2390 C   0  0  0  0  0  3  0  0  0  0  0  0
  181.0410  177.9190  136.3130 C   0  0  0  0  0  2  0  0  0  0  0  0
  186.1460  178.2840  138.7790 C   0  0  0  0  0  3  0  0  0  0  0  0
  181.8270  178.7260  138.9700 C   0  0  0  0  0  0  0  0  0  0  0  0
  184.7870  178.1520  139.0880 C   0  0  0  0  0  0  0  0  0  0  0  0
  180.7980  179.4730  138.2760 N   0  0  0  0  0  0  0  0  0  0  0  0
  184.4730  178.4530  140.3560 C   0  0  0  0  0  2  0  0  0  0  0  0
  183.8780  177.6170  138.1090 C   0  0  0  0  0  0  0  0  0  0  0  0
  185.8050  177.2720  136.6250 C   0  0  0  0  0  3  0  0  0  0  0  0
  183.1430  178.2540  140.9910 C   0  0  1  0  0  3  0  0  0  0  0  0
  184.4440  177.1610  136.9020 C   0  0  0  0  0  3  0  0  0  0  0  0
  180.2250  179.0250  136.9980 C   0  0  0  0  0  2  0  0  0  0  0  0
  182.5100  177.6220  138.2390 C   0  0  2  0  0  3  0  0  0  0  0  0
  186.6520  177.8650  137.5520 C   0  0  0  0  0  0  0  0  0  0  0  0
  181.5290  176.8810  137.3220 C   0  0  1  0  0  0  0  0  0  0  0  0
  188.1080  177.9870  137.2630 C   0  0  0  0  0  2  0  0  0  0  0  0
  188.4890  179.3890  137.2440 N   0  0  0  0  0  1  0  0  0  0  0  0
  183.2190  179.1030  143.4680 N   0  0  0  0  0  0  0  0  0  0  0  0
  183.1850  178.7280  142.3750 C   0  0  0  0  0  0  0  0  0  0  0  0
  180.4080  176.4290  138.0940 O   0  0  0  0  0  0  0  0  0  0  0  0
  180.5540  175.6070  139.2120 C   0  0  0  0  0  3  0  0  0  0  0  0
  179.0520  175.9410  141.2340 O   0  0  0  0  0  0  0  0  0  0  0  0
  179.7840  175.7780  140.2480 C   0  0  0  0  0  0  0  0  0  0  0  0
  182.1200  175.6660  136.5840 C   0  0  0  0  0  2  0  0  0  0  0  0
  181.1670  175.0930  135.5460 C   0  0  0  0  0  2  0  0  0  0  0  0
  181.2660  173.5830  135.5530 C   0  0  0  0  0  2  0  0  0  0  0  0
  181.2810  171.7780  137.0240 C   0  0  0  0  0  1  0  0  0  0  0  0
  181.7580  173.1370  136.8430 N   0  0  0  0  0  2  0  0  0  0  0  0
  180.1880  180.6550  138.8760 C   0  0  0  0  0  2  0  0  0  0  0  0
  179.1790  181.2730  137.9150 C   0  0  0  0  0  2  0  0  0  0  0  0
  178.9310  183.0600  136.1370 C   0  0  0  0  0  2  0  0  0  0  0  0
  179.5930  182.6690  137.4640 C   0  0  2  0  0  3  0  0  0  0  0  0
  181.1150  182.8240  137.4280 C   0  0  0  0  0  2  0  0  0  0  0  0
  182.3260  184.9010  137.8540 N   0  0  0  0  0  1  0  0  0  0  0  0
  180.4180  185.0070  136.4340 N   0  0  0  0  0  2  0  0  0  0  0  0
  181.5530  184.1830  136.8570 C   0  0  2  0  0  3  0  0  0  0  0  0
  179.6330  184.2450  135.4650 C   0  0  0  0  0  2  0  0  0  0  0  0
  1 10  1  0  0  0  0
  2 12  1  0  0  0  0
  2 15  1  0  0  0  0
  3  5  1  0  0  0  0
  4  1  2  0  0  0  0
  5  7  1  0  0  0  0
  6 29  1  0  0  0  0
  6  4  1  0  0  0  0
  7 10  1  0  0  0  0
  8  5  2  0  0  0  0
  9 11  2  0  0  0  0
  9 14  1  0  0  0  0
 10 19  1  1  0  0  0
 11  8  1  0  0  0  0
 12  6  1  0  0  0  0
 13  8  1  6  0  0  0
 13  4  1  0  0  0  0
 14  3  2  0  0  0  0
 15 24  1  6  0  0  0
 15 20  1  0  0  0  0
 15 13  1  0  0  0  0
 16 14  1  0  0  0  0
 17 16  1  0  0  0  0
 19 18  3  0  0  0  0
 20 21  1  0  0  0  0
 21 23  2  0  0  0  0
 23 22  2  0  0  0  0
 25 26  1  0  0  0  0
 25 24  1  0  0  0  0
 26 28  1  0  0  0  0
 28 27  1  0  0  0  0
 30 29  1  0  0  0  0
 31 32  1  0  0  0  0
 32 30  1  6  0  0  0
 33 32  1  0  0  0  0
 35 36  1  0  0  0  0
 36 33  1  0  0  0  0
 36 34  1  1  0  0  0
 37 31  1  0  0  0  0
 37 35  1  0  0  0  0
M  END
>  <MODEL>
3

>  <REMARK>
 VINA RESULT:      -5.4      2.871      7.635
  Name = 
  11 active torsions:
  status: ('A' for Active; 'I' for Inactive)
    1  A    between atoms: O_1  and  C_5
    2  A    between atoms: O_1  and  C_36
    3  A    between atoms: C_3  and  C_32
    4  A    between atoms: C_6  and  C_31
    5  A    between atoms: N_14  and  C_37
    6  A    between atoms: C_17  and  C_26
    7  A    between atoms: C_17  and  C_33
    8  A    between atoms: C_24  and  C_28
    9  A    between atoms: C_26  and  N_34
   10  A    between atoms: C_31  and  C_37
   11  A    between atoms: C_33  and  C_36
                            x       y       z     vdW  Elec       q    Type
                         _______ _______ _______ _____ _____    ______ ____

>  <TORSDO>
F 11

$$$$
=
 OpenBabel11052415243D

 37 40  0  0  1  0  0  0  0  0999 V2000
  183.6190  179.4450  139.3820 C   0  0  0  0  0  3  0  0  0  0  0  0
  187.0430  177.0650  138.7530 C   0  0  0  0  0  2  0  0  0  0  0  0
  181.5460  175.9400  137.8660 C   0  0  0  0  0  3  0  0  0  0  0  0
  184.6690  178.6360  139.2300 C   0  0  0  0  0  0  0  0  0  0  0  0
  182.4330  177.0120  138.0180 C   0  0  0  0  0  0  0  0  0  0  0  0
  185.7290  178.6310  140.2180 N   0  0  0  0  0  0  0  0  0  0  0  0
  181.8490  178.1810  138.3130 C   0  0  0  0  0  2  0  0  0  0  0  0
  183.8350  176.8250  137.7460 C   0  0  0  0  0  0  0  0  0  0  0  0
  183.3150  174.5230  137.0660 C   0  0  0  0  0  3  0  0  0  0  0  0
  182.5330  179.5010  138.3770 C   0  0  1  0  0  3  0  0  0  0  0  0
  184.2190  175.5670  137.2400 C   0  0  0  0  0  3  0  0  0  0  0  0
  187.0320  177.9980  139.9730 C   0  0  0  0  0  2  0  0  0  0  0  0
  184.8100  177.7470  138.0420 C   0  0  2  0  0  3  0  0  0  0  0  0
  181.9810  174.6990  137.4110 C   0  0  0  0  0  0  0  0  0  0  0  0
  186.2710  177.6720  137.5820 C   0  0  1  0  0  0  0  0  0  0  0  0
  181.0080  173.5880  137.2280 C   0  0  0  0  0  2  0  0  0  0  0  0
  179.6920  174.0060  137.6780 N   0  0  0  0  0  1  0  0  0  0  0  0
  180.8070  181.3500  139.0600 N   0  0  0  0  0  0  0  0  0  0  0  0
  181.5690  180.5340  138.7580 C   0  0  0  0  0  0  0  0  0  0  0  0
  186.7620  178.9980  137.3460 O   0  0  0  0  0  0  0  0  0  0  0  0
  187.9770  179.2420  136.7050 C   0  0  0  0  0  3  0  0  0  0  0  0
  190.1230  178.2570  137.6440 O   0  0  0  0  0  0  0  0  0  0  0  0
  189.0770  178.7360  137.1860 C   0  0  0  0  0  0  0  0  0  0  0  0
  186.5090  176.8420  136.3070 C   0  0  0  0  0  2  0  0  0  0  0  0
  187.4460  175.6660  136.5430 C   0  0  0  0  0  2  0  0  0  0  0  0
  188.3560  175.5020  135.3450 C   0  0  0  0  0  2  0  0  0  0  0  0
  189.6200  174.7950  137.1680 C   0  0  0  0  0  1  0  0  0  0  0  0
  189.7150  175.2680  135.8000 N   0  0  0  0  0  2  0  0  0  0  0  0
  185.5940  179.3660  141.4710 C   0  0  0  0  0  2  0  0  0  0  0  0
  185.0640  178.4460  142.5660 C   0  0  0  0  0  2  0  0  0  0  0  0
  187.0590  177.4290  143.7500 C   0  0  0  0  0  2  0  0  0  0  0  0
  185.9390  178.4740  143.8150 C   0  0  2  0  0  3  0  0  0  0  0  0
  185.1050  178.3610  145.0940 C   0  0  0  0  0  2  0  0  0  0  0  0
  185.6800  179.3750  147.2390 N   0  0  0  0  0  1  0  0  0  0  0  0
  187.4100  178.2530  146.0500 N   0  0  0  0  0  2  0  0  0  0  0  0
  185.9780  178.2630  146.3560 C   0  0  2  0  0  3  0  0  0  0  0  0
  187.6750  177.1520  145.1260 C   0  0  0  0  0  2  0  0  0  0  0  0
  2 12  1  0  0  0  0
  3  5  1  0  0  0  0
  4  1  2  0  0  0  0
  4  6  1  0  0  0  0
  5  7  1  0  0  0  0
  6 29  1  0  0  0  0
  7 10  1  0  0  0  0
  8  5  2  0  0  0  0
  9 11  2  0  0  0  0
  9 14  1  0  0  0  0
 10 19  1  1  0  0  0
 10  1  1  0  0  0  0
 11  8  1  0  0  0  0
 12  6  1  0  0  0  0
 13  8  1  1  0  0  0
 13  4  1  0  0  0  0
 14  3  2  0  0  0  0
 15 24  1  6  0  0  0
 15 13  1  0  0  0  0
 15  2  1  0  0  0  0
 16 14  1  0  0  0  0
 16 17  1  0  0  0  0
 19 18  3  0  0  0  0
 20 15  1  0  0  0  0
 21 23  2  0  0  0  0
 21 20  1  0  0  0  0
 23 22  2  0  0  0  0
 24 25  1  0  0  0  0
 26 28  1  0  0  0  0
 26 25  1  0  0  0  0
 28 27  1  0  0  0  0
 29 30  1  0  0  0  0
 31 32  1  0  0  0  0
 31 37  1  0  0  0  0
 32 30  1  6  0  0  0
 32 33  1  0  0  0  0
 33 36  1  0  0  0  0
 35 36  1  0  0  0  0
 36 34  1  1  0  0  0
 37 35  1  0  0  0  0
M  END
>  <MODEL>
4

>  <REMARK>
 VINA RESULT:      -5.3      3.128      8.851
  Name = 
  11 active torsions:
  status: ('A' for Active; 'I' for Inactive)
    1  A    between atoms: O_1  and  C_5
    2  A    between atoms: O_1  and  C_36
    3  A    between atoms: C_3  and  C_32
    4  A    between atoms: C_6  and  C_31
    5  A    between atoms: N_14  and  C_37
    6  A    between atoms: C_17  and  C_26
    7  A    between atoms: C_17  and  C_33
    8  A    between atoms: C_24  and  C_28
    9  A    between atoms: C_26  and  N_34
   10  A    between atoms: C_31  and  C_37
   11  A    between atoms: C_33  and  C_36
                            x       y       z     vdW  Elec       q    Type
                         _______ _______ _______ _____ _____    ______ ____

>  <TORSDO>
F 11

$$$$
=
 OpenBabel11052415243D

 37 40  0  0  1  0  0  0  0  0999 V2000
  185.5970  174.5030  136.5920 C   0  0  0  0  0  3  0  0  0  0  0  0
  182.3750  177.2170  136.7540 C   0  0  0  0  0  2  0  0  0  0  0  0
  182.4180  171.5430  136.4820 C   0  0  0  0  0  3  0  0  0  0  0  0
  184.5500  175.3290  136.5760 C   0  0  0  0  0  0  0  0  0  0  0  0
  183.2280  172.6290  136.8360 C   0  0  0  0  0  0  0  0  0  0  0  0
  184.6000  176.5470  135.7920 N   0  0  0  0  0  0  0  0  0  0  0  0
  184.5360  172.3470  136.9070 C   0  0  0  0  0  2  0  0  0  0  0  0
  182.6240  173.8850  137.1970 C   0  0  0  0  0  0  0  0  0  0  0  0
  180.4290  172.8140  136.9380 C   0  0  0  0  0  3  0  0  0  0  0  0
  185.5950  173.2660  137.4060 C   0  0  1  0  0  3  0  0  0  0  0  0
  181.2170  173.9150  137.2640 C   0  0  0  0  0  3  0  0  0  0  0  0
  183.6210  177.6310  135.9570 C   0  0  0  0  0  2  0  0  0  0  0  0
  183.3210  175.0560  137.3750 C   0  0  2  0  0  3  0  0  0  0  0  0
  181.0300  171.6350  136.5140 C   0  0  0  0  0  0  0  0  0  0  0  0
  182.7450  176.3520  137.9580 C   0  0  1  0  0  0  0  0  0  0  0  0
  180.1940  170.4540  136.1640 C   0  0  0  0  0  2  0  0  0  0  0  0
  179.0870  170.8680  135.3190 N   0  0  0  0  0  1  0  0  0  0  0  0
  187.9310  172.0940  137.2190 N   0  0  0  0  0  0  0  0  0  0  0  0
  186.9000  172.6110  137.3020 C   0  0  0  0  0  0  0  0  0  0  0  0
  183.7620  177.0250  138.7120 O   0  0  0  0  0  0  0  0  0  0  0  0
  183.4630  177.9890  139.6740 C   0  0  0  0  0  3  0  0  0  0  0  0
  185.3060  179.4760  140.5930 O   0  0  0  0  0  0  0  0  0  0  0  0
  184.4080  178.7520  140.1450 C   0  0  0  0  0  0  0  0  0  0  0  0
  181.5200  176.1650  138.8710 C   0  0  0  0  0  2  0  0  0  0  0  0
  180.3540  177.0590  138.4730 C   0  0  0  0  0  2  0  0  0  0  0  0
  179.3550  177.1150  139.6070 C   0  0  0  0  0  2  0  0  0  0  0  0
  179.9670  178.4850  141.3880 C   0  0  0  0  0  1  0  0  0  0  0  0
  180.0630  177.1310  140.8740 N   0  0  0  0  0  2  0  0  0  0  0  0
  185.7060  176.8100  134.8790 C   0  0  0  0  0  2  0  0  0  0  0  0
  186.4190  178.0990  135.2740 C   0  0  0  0  0  2  0  0  0  0  0  0
  188.3260  176.5530  135.8950 C   0  0  0  0  0  2  0  0  0  0  0  0
  187.5750  177.8460  136.2350 C   0  0  2  0  0  3  0  0  0  0  0  0
  187.1190  177.8930  137.6950 C   0  0  0  0  0  2  0  0  0  0  0  0
  188.4940  178.6270  139.5740 N   0  0  0  0  0  1  0  0  0  0  0  0
  189.4870  177.1540  137.9890 N   0  0  0  0  0  2  0  0  0  0  0  0
  188.2440  177.5170  138.6730 C   0  0  2  0  0  3  0  0  0  0  0  0
  189.1980  176.0650  137.0580 C   0  0  0  0  0  2  0  0  0  0  0  0
  1 10  1  0  0  0  0
  2 15  1  0  0  0  0
  3 14  2  0  0  0  0
  3  5  1  0  0  0  0
  4  1  2  0  0  0  0
  5  7  1  0  0  0  0
  5  8  2  0  0  0  0
  6 12  1  0  0  0  0
  6  4  1  0  0  0  0
  7 10  1  0  0  0  0
  8 11  1  0  0  0  0
  8 13  1  0  0  0  0
  9 11  2  0  0  0  0
 10 19  1  6  0  0  0
 12  2  1  0  0  0  0
 13  4  1  6  0  0  0
 13 15  1  0  0  0  0
 14  9  1  0  0  0  0
 15 20  1  0  0  0  0
 15 24  1  1  0  0  0
 16 14  1  0  0  0  0
 17 16  1  0  0  0  0
 18 19  3  0  0  0  0
 20 21  1  0  0  0  0
 21 23  2  0  0  0  0
 23 22  2  0  0  0  0
 25 24  1  0  0  0  0
 25 26  1  0  0  0  0
 26 28  1  0  0  0  0
 28 27  1  0  0  0  0
 29 30  1  0  0  0  0
 29  6  1  0  0  0  0
 31 32  1  0  0  0  0
 31 37  1  0  0  0  0
 32 30  1  6  0  0  0
 32 33  1  0  0  0  0
 33 36  1  0  0  0  0
 35 36  1  0  0  0  0
 36 34  1  1  0  0  0
 37 35  1  0  0  0  0
M  END
>  <MODEL>
5

>  <REMARK>
 VINA RESULT:      -5.3      2.921      7.383
  Name = 
  11 active torsions:
  status: ('A' for Active; 'I' for Inactive)
    1  A    between atoms: O_1  and  C_5
    2  A    between atoms: O_1  and  C_36
    3  A    between atoms: C_3  and  C_32
    4  A    between atoms: C_6  and  C_31
    5  A    between atoms: N_14  and  C_37
    6  A    between atoms: C_17  and  C_26
    7  A    between atoms: C_17  and  C_33
    8  A    between atoms: C_24  and  C_28
    9  A    between atoms: C_26  and  N_34
   10  A    between atoms: C_31  and  C_37
   11  A    between atoms: C_33  and  C_36
                            x       y       z     vdW  Elec       q    Type
                         _______ _______ _______ _____ _____    ______ ____

>  <TORSDO>
F 11

$$$$
=
 OpenBabel11052415243D

 37 40  0  0  1  0  0  0  0  0999 V2000
  191.2100  176.4220  139.0250 C   0  0  0  0  0  3  0  0  0  0  0  0
  187.1310  176.3550  137.9630 C   0  0  0  0  0  2  0  0  0  0  0  0
  189.6290  177.2590  142.9840 C   0  0  0  0  0  3  0  0  0  0  0  0
  189.9090  176.3450  138.7450 C   0  0  0  0  0  0  0  0  0  0  0  0
  189.8890  177.2940  141.6090 C   0  0  0  0  0  0  0  0  0  0  0  0
  189.4220  175.3250  137.8380 N   0  0  0  0  0  0  0  0  0  0  0  0
  191.1910  177.2850  141.2890 C   0  0  0  0  0  2  0  0  0  0  0  0
  188.8020  177.4490  140.6780 C   0  0  0  0  0  0  0  0  0  0  0  0
  187.2870  177.6480  142.6010 C   0  0  0  0  0  3  0  0  0  0  0  0
  191.7490  177.4690  139.9230 C   0  0  1  0  0  3  0  0  0  0  0  0
  187.5220  177.6550  141.2280 C   0  0  0  0  0  3  0  0  0  0  0  0
  188.0710  175.3630  137.2610 C   0  0  0  0  0  2  0  0  0  0  0  0
  188.9240  177.3060  139.3160 C   0  0  2  0  0  3  0  0  0  0  0  0
  188.3380  177.4170  143.4800 C   0  0  0  0  0  0  0  0  0  0  0  0
  187.8460  177.6650  138.2870 C   0  0  1  0  0  0  0  0  0  0  0  0
  188.0950  177.4080  144.9490 C   0  0  0  0  0  2  0  0  0  0  0  0
  189.3320  177.1070  145.6500 N   0  0  0  0  0  1  0  0  0  0  0  0
  194.3610  177.2860  140.0100 N   0  0  0  0  0  0  0  0  0  0  0  0
  193.2080  177.3670  139.9720 C   0  0  0  0  0  0  0  0  0  0  0  0
  188.4740  178.1530  137.0940 O   0  0  0  0  0  0  0  0  0  0  0  0
  187.7670  178.8360  136.1040 C   0  0  0  0  0  3  0  0  0  0  0  0
  186.1620  177.5710  134.5940 O   0  0  0  0  0  0  0  0  0  0  0  0
  186.9440  178.1870  135.3300 C   0  0  0  0  0  0  0  0  0  0  0  0
  186.8260  178.7200  138.7550 C   0  0  0  0  0  2  0  0  0  0  0  0
  185.3870  178.2810  138.5290 C   0  0  0  0  0  2  0  0  0  0  0  0
  184.4510  179.2810  139.1730 C   0  0  0  0  0  2  0  0  0  0  0  0
  183.8430  178.5330  141.2930 C   0  0  0  0  0  1  0  0  0  0  0  0
  184.7680  179.3990  140.5850 N   0  0  0  0  0  2  0  0  0  0  0  0
  190.3000  174.2660  137.3530 C   0  0  0  0  0  2  0  0  0  0  0  0
  190.8110  174.6040  135.9560 C   0  0  0  0  0  2  0  0  0  0  0  0
  192.4860  172.9330  135.0530 C   0  0  0  0  0  2  0  0  0  0  0  0
  192.2870  174.2650  135.7850 C   0  0  2  0  0  3  0  0  0  0  0  0
  193.0390  174.3190  137.1180 C   0  0  0  0  0  2  0  0  0  0  0  0
  195.3850  174.9400  137.3830 N   0  0  0  0  0  1  0  0  0  0  0  0
  194.8340  173.4300  135.6260 N   0  0  0  0  0  2  0  0  0  0  0  0
  194.5000  173.8600  136.9860 C   0  0  2  0  0  3  0  0  0  0  0  0
  193.9030  172.3750  135.2360 C   0  0  0  0  0  2  0  0  0  0  0  0
  1 10  1  0  0  0  0
  2 15  1  0  0  0  0
  3 14  1  0  0  0  0
  4  1  2  0  0  0  0
  5  3  2  0  0  0  0
  6  4  1  0  0  0  0
  7  5  1  0  0  0  0
  8 11  2  0  0  0  0
  8  5  1  0  0  0  0
  9 14  2  0  0  0  0
 10 19  1  1  0  0  0
 10  7  1  0  0  0  0
 11  9  1  0  0  0  0
 12  6  1  0  0  0  0
 12  2  1  0  0  0  0
 13  4  1  1  0  0  0
 13  8  1  0  0  0  0
 14 16  1  0  0  0  0
 15 24  1  1  0  0  0
 15 13  1  0  0  0  0
 16 17  1  0  0  0  0
 19 18  3  0  0  0  0
 20 15  1  0  0  0  0
 21 20  1  0  0  0  0
 22 23  2  0  0  0  0
 23 21  2  0  0  0  0
 25 24  1  0  0  0  0
 25 26  1  0  0  0  0
 26 28  1  0  0  0  0
 28 27  1  0  0  0  0
 29  6  1  0  0  0  0
 30 29  1  0  0  0  0
 31 37  1  0  0  0  0
 31 32  1  0  0  0  0
 32 30  1  1  0  0  0
 32 33  1  0  0  0  0
 35 36  1  0  0  0  0
 36 33  1  0  0  0  0
 36 34  1  6  0  0  0
 37 35  1  0  0  0  0
M  END
>  <MODEL>
6

>  <REMARK>
 VINA RESULT:      -5.3      5.771      8.125
  Name = 
  11 active torsions:
  status: ('A' for Active; 'I' for Inactive)
    1  A    between atoms: O_1  and  C_5
    2  A    between atoms: O_1  and  C_36
    3  A    between atoms: C_3  and  C_32
    4  A    between atoms: C_6  and  C_31
    5  A    between atoms: N_14  and  C_37
    6  A    between atoms: C_17  and  C_26
    7  A    between atoms: C_17  and  C_33
    8  A    between atoms: C_24  and  C_28
    9  A    between atoms: C_26  and  N_34
   10  A    between atoms: C_31  and  C_37
   11  A    between atoms: C_33  and  C_36
                            x       y       z     vdW  Elec       q    Type
                         _______ _______ _______ _____ _____    ______ ____

>  <TORSDO>
F 11

$$$$
=
 OpenBabel11052415243D

 37 40  0  0  1  0  0  0  0  0999 V2000
  190.1780  177.2970  137.5480 C   0  0  0  0  0  3  0  0  0  0  0  0
  193.4730  174.6670  137.5180 C   0  0  0  0  0  2  0  0  0  0  0  0
  188.1050  173.8870  135.8290 C   0  0  0  0  0  3  0  0  0  0  0  0
  191.1770  176.4140  137.5810 C   0  0  0  0  0  0  0  0  0  0  0  0
  189.0360  174.9010  136.0850 C   0  0  0  0  0  0  0  0  0  0  0  0
  192.0710  176.3740  138.7200 N   0  0  0  0  0  0  0  0  0  0  0  0
  188.5010  176.1180  136.2560 C   0  0  0  0  0  2  0  0  0  0  0  0
  190.4450  174.6080  136.0370 C   0  0  0  0  0  0  0  0  0  0  0  0
  189.8660  172.3220  135.3490 C   0  0  0  0  0  3  0  0  0  0  0  0
  189.2630  177.3890  136.3860 C   0  0  1  0  0  3  0  0  0  0  0  0
  190.8080  173.3090  135.6310 C   0  0  0  0  0  3  0  0  0  0  0  0
  193.3470  175.6440  138.6960 C   0  0  0  0  0  2  0  0  0  0  0  0
  191.4290  175.4710  136.4540 C   0  0  2  0  0  3  0  0  0  0  0  0
  188.5110  172.6030  135.4800 C   0  0  0  0  0  0  0  0  0  0  0  0
  192.9340  175.2790  136.2260 C   0  0  1  0  0  0  0  0  0  0  0  0
  187.4990  171.5540  135.1800 C   0  0  0  0  0  2  0  0  0  0  0  0
  187.9360  170.2790  135.7220 N   0  0  0  0  0  1  0  0  0  0  0  0
  187.5940  179.3770  136.7440 N   0  0  0  0  0  0  0  0  0  0  0  0
  188.3310  178.5000  136.5860 C   0  0  0  0  0  0  0  0  0  0  0  0
  193.5510  176.5590  136.0320 O   0  0  0  0  0  0  0  0  0  0  0  0
  194.5040  176.7850  135.0390 C   0  0  0  0  0  3  0  0  0  0  0  0
  196.2390  178.6160  135.3430 O   0  0  0  0  0  0  0  0  0  0  0  0
  195.3940  177.7230  135.1950 C   0  0  0  0  0  0  0  0  0  0  0  0
  193.3000  174.3860  135.0260 C   0  0  0  0  0  2  0  0  0  0  0  0
  194.1550  173.1930  135.4260 C   0  0  0  0  0  2  0  0  0  0  0  0
  195.4610  173.2330  134.6630 C   0  0  0  0  0  2  0  0  0  0  0  0
  197.5270  172.9290  135.6930 C   0  0  0  0  0  1  0  0  0  0  0  0
  196.4700  173.8970  135.4680 N   0  0  0  0  0  2  0  0  0  0  0  0
  191.8030  177.1640  139.9170 C   0  0  0  0  0  2  0  0  0  0  0  0
  190.5590  176.6390  140.6260 C   0  0  0  0  0  2  0  0  0  0  0  0
  191.6810  177.6340  142.6670 C   0  0  0  0  0  2  0  0  0  0  0  0
  190.3500  177.2990  141.9840 C   0  0  2  0  0  3  0  0  0  0  0  0
  189.4240  176.4720  142.8800 C   0  0  0  0  0  2  0  0  0  0  0  0
  187.9130  177.3880  144.5650 N   0  0  0  0  0  1  0  0  0  0  0  0
  190.1310  178.2490  144.4870 N   0  0  0  0  0  2  0  0  0  0  0  0
  189.3010  177.0580  144.2960 C   0  0  2  0  0  3  0  0  0  0  0  0
  191.5140  177.9010  144.1680 C   0  0  0  0  0  2  0  0  0  0  0  0
  1  4  2  0  0  0  0
  2 12  1  0  0  0  0
  3  5  1  0  0  0  0
  4  6  1  0  0  0  0
  5  7  1  0  0  0  0
  6 29  1  0  0  0  0
  7 10  1  0  0  0  0
  8  5  2  0  0  0  0
  9 14  1  0  0  0  0
  9 11  2  0  0  0  0
 10 19  1  1  0  0  0
 10  1  1  0  0  0  0
 11  8  1  0  0  0  0
 12  6  1  0  0  0  0
 13  8  1  1  0  0  0
 13  4  1  0  0  0  0
 14  3  2  0  0  0  0
 15 24  1  6  0  0  0
 15 13  1  0  0  0  0
 15  2  1  0  0  0  0
 16 14  1  0  0  0  0
 16 17  1  0  0  0  0
 19 18  3  0  0  0  0
 20 15  1  0  0  0  0
 21 23  2  0  0  0  0
 21 20  1  0  0  0  0
 23 22  2  0  0  0  0
 24 25  1  0  0  0  0
 26 25  1  0  0  0  0
 26 28  1  0  0  0  0
 28 27  1  0  0  0  0
 29 30  1  0  0  0  0
 31 37  1  0  0  0  0
 32 30  1  6  0  0  0
 32 31  1  0  0  0  0
 32 33  1  0  0  0  0
 33 36  1  0  0  0  0
 36 35  1  0  0  0  0
 36 34  1  6  0  0  0
 37 35  1  0  0  0  0
M  END
>  <MODEL>
7

>  <REMARK>
 VINA RESULT:      -5.3      7.607     12.673
  Name = 
  11 active torsions:
  status: ('A' for Active; 'I' for Inactive)
    1  A    between atoms: O_1  and  C_5
    2  A    between atoms: O_1  and  C_36
    3  A    between atoms: C_3  and  C_32
    4  A    between atoms: C_6  and  C_31
    5  A    between atoms: N_14  and  C_37
    6  A    between atoms: C_17  and  C_26
    7  A    between atoms: C_17  and  C_33
    8  A    between atoms: C_24  and  C_28
    9  A    between atoms: C_26  and  N_34
   10  A    between atoms: C_31  and  C_37
   11  A    between atoms: C_33  and  C_36
                            x       y       z     vdW  Elec       q    Type
                         _______ _______ _______ _____ _____    ______ ____

>  <TORSDO>
F 11

$$$$
=
 OpenBabel11052415243D

 37 40  0  0  1  0  0  0  0  0999 V2000
  189.3130  176.9940  138.8880 C   0  0  0  0  0  3  0  0  0  0  0  0
  187.9330  175.9730  135.0370 C   0  0  0  0  0  2  0  0  0  0  0  0
  193.2180  176.6180  137.0200 C   0  0  0  0  0  3  0  0  0  0  0  0
  188.9180  176.7330  137.6410 C   0  0  0  0  0  0  0  0  0  0  0  0
  191.9090  176.3740  137.4510 C   0  0  0  0  0  0  0  0  0  0  0  0
  187.7760  177.4280  137.0820 N   0  0  0  0  0  0  0  0  0  0  0  0
  191.7000  176.6020  138.7550 C   0  0  0  0  0  2  0  0  0  0  0  0
  190.9470  175.8120  136.5390 C   0  0  0  0  0  0  0  0  0  0  0  0
  192.7380  175.6670  134.8640 C   0  0  0  0  0  3  0  0  0  0  0  0
  190.4550  176.2810  139.5040 C   0  0  1  0  0  3  0  0  0  0  0  0
  191.4230  175.4450  135.2650 C   0  0  0  0  0  3  0  0  0  0  0  0
  187.1130  176.9880  135.8460 C   0  0  0  0  0  2  0  0  0  0  0  0
  189.6010  175.7110  136.7980 C   0  0  2  0  0  3  0  0  0  0  0  0
  193.6290  176.2850  135.7330 C   0  0  0  0  0  0  0  0  0  0  0  0
  188.5890  174.9350  135.9460 C   0  0  1  0  0  0  0  0  0  0  0  0
  195.0370  176.5260  135.3130 C   0  0  0  0  0  2  0  0  0  0  0  0
  195.3620  177.9340  135.4630 N   0  0  0  0  0  1  0  0  0  0  0  0
  190.7150  177.0380  141.9990 N   0  0  0  0  0  0  0  0  0  0  0  0
  190.6000  176.7030  140.8980 C   0  0  0  0  0  0  0  0  0  0  0  0
  187.5840  174.3720  136.8000 O   0  0  0  0  0  0  0  0  0  0  0  0
  186.3320  173.9840  136.3240 C   0  0  0  0  0  3  0  0  0  0  0  0
  184.7670  172.6510  137.8170 O   0  0  0  0  0  0  0  0  0  0  0  0
  185.5290  173.3010  137.0900 C   0  0  0  0  0  0  0  0  0  0  0  0
  189.1880  173.7960  135.1010 C   0  0  0  0  0  2  0  0  0  0  0  0
  189.2870  172.4870  135.8710 C   0  0  0  0  0  2  0  0  0  0  0  0
  188.7460  171.3620  135.0180 C   0  0  0  0  0  2  0  0  0  0  0  0
  186.6150  170.4270  134.9170 C   0  0  0  0  0  1  0  0  0  0  0  0
  187.7690  170.6040  135.7790 N   0  0  0  0  0  2  0  0  0  0  0  0
  187.1480  178.5370  137.7920 C   0  0  0  0  0  2  0  0  0  0  0  0
  185.6690  178.2440  138.0220 C   0  0  0  0  0  2  0  0  0  0  0  0
  186.3500  178.5880  140.4370 C   0  0  0  0  0  2  0  0  0  0  0  0
  185.2090  178.6610  139.4140 C   0  0  2  0  0  3  0  0  0  0  0  0
  183.9710  177.8790  139.8610 C   0  0  0  0  0  2  0  0  0  0  0  0
  182.2220  178.7390  141.3310 N   0  0  0  0  0  1  0  0  0  0  0  0
  184.4840  179.1410  141.9550 N   0  0  0  0  0  2  0  0  0  0  0  0
  183.5690  178.1970  141.3100 C   0  0  2  0  0  3  0  0  0  0  0  0
  185.8360  178.5920  141.8810 C   0  0  0  0  0  2  0  0  0  0  0  0
  1 10  1  0  0  0  0
  2 12  1  0  0  0  0
  2 15  1  0  0  0  0
  3  5  1  0  0  0  0
  4  1  2  0  0  0  0
  5  7  1  0  0  0  0
  6  4  1  0  0  0  0
  6 29  1  0  0  0  0
  7 10  1  0  0  0  0
  8  5  2  0  0  0  0
  9 11  2  0  0  0  0
  9 14  1  0  0  0  0
 10 19  1  1  0  0  0
 11  8  1  0  0  0  0
 12  6  1  0  0  0  0
 13  8  1  6  0  0  0
 13  4  1  0  0  0  0
 14  3  2  0  0  0  0
 15 24  1  6  0  0  0
 15 13  1  0  0  0  0
 15 20  1  0  0  0  0
 16 17  1  0  0  0  0
 16 14  1  0  0  0  0
 19 18  3  0  0  0  0
 21 20  1  0  0  0  0
 21 23  2  0  0  0  0
 23 22  2  0  0  0  0
 24 25  1  0  0  0  0
 26 28  1  0  0  0  0
 26 25  1  0  0  0  0
 27 28  1  0  0  0  0
 29 30  1  0  0  0  0
 31 37  1  0  0  0  0
 32 30  1  6  0  0  0
 32 33  1  0  0  0  0
 32 31  1  0  0  0  0
 33 36  1  0  0  0  0
 36 34  1  6  0  0  0
 36 35  1  0  0  0  0
 37 35  1  0  0  0  0
M  END
>  <MODEL>
8

>  <REMARK>
 VINA RESULT:      -5.2      5.393     10.019
  Name = 
  11 active torsions:
  status: ('A' for Active; 'I' for Inactive)
    1  A    between atoms: O_1  and  C_5
    2  A    between atoms: O_1  and  C_36
    3  A    between atoms: C_3  and  C_32
    4  A    between atoms: C_6  and  C_31
    5  A    between atoms: N_14  and  C_37
    6  A    between atoms: C_17  and  C_26
    7  A    between atoms: C_17  and  C_33
    8  A    between atoms: C_24  and  C_28
    9  A    between atoms: C_26  and  N_34
   10  A    between atoms: C_31  and  C_37
   11  A    between atoms: C_33  and  C_36
                            x       y       z     vdW  Elec       q    Type
                         _______ _______ _______ _____ _____    ______ ____

>  <TORSDO>
F 11

$$$$
=
 OpenBabel11052415243D

 37 40  0  0  1  0  0  0  0  0999 V2000
  186.4580  178.2350  139.3810 C   0  0  0  0  0  3  0  0  0  0  0  0
  190.0880  176.1950  138.7220 C   0  0  0  0  0  2  0  0  0  0  0  0
  184.7840  174.9010  137.1550 C   0  0  0  0  0  3  0  0  0  0  0  0
  187.5740  177.5260  139.2070 C   0  0  0  0  0  0  0  0  0  0  0  0
  185.5740  175.9860  137.5530 C   0  0  0  0  0  0  0  0  0  0  0  0
  188.5430  177.4260  140.2790 N   0  0  0  0  0  0  0  0  0  0  0  0
  184.8820  177.0560  137.9680 C   0  0  0  0  0  2  0  0  0  0  0  0
  187.0030  175.9280  137.3900 C   0  0  0  0  0  0  0  0  0  0  0  0
  186.7140  173.7370  136.3180 C   0  0  0  0  0  3  0  0  0  0  0  0
  185.4600  178.3870  138.2980 C   0  0  1  0  0  3  0  0  0  0  0  0
  187.5210  174.7930  136.7360 C   0  0  0  0  0  3  0  0  0  0  0  0
  189.9060  176.9190  140.0650 C   0  0  0  0  0  2  0  0  0  0  0  0
  187.8800  176.8470  137.9160 C   0  0  2  0  0  3  0  0  0  0  0  0
  185.3460  173.7760  136.5580 C   0  0  0  0  0  0  0  0  0  0  0  0
  189.3760  176.9340  137.5900 C   0  0  1  0  0  0  0  0  0  0  0  0
  184.4770  172.6530  136.1140 C   0  0  0  0  0  2  0  0  0  0  0  0
  183.8190  172.0560  137.2640 N   0  0  0  0  0  1  0  0  0  0  0  0
  183.5510  179.9980  139.0890 N   0  0  0  0  0  0  0  0  0  0  0  0
  184.3930  179.2870  138.7400 C   0  0  0  0  0  0  0  0  0  0  0  0
  189.7860  178.3080  137.6090 O   0  0  0  0  0  0  0  0  0  0  0  0
  189.0550  179.3130  136.9770 C   0  0  0  0  0  3  0  0  0  0  0  0
  187.2880  178.7030  135.2560 O   0  0  0  0  0  0  0  0  0  0  0  0
  188.1480  179.0000  136.0950 C   0  0  0  0  0  0  0  0  0  0  0  0
  189.7810  176.3340  136.2320 C   0  0  0  0  0  2  0  0  0  0  0  0
  191.1040  175.5840  136.2960 C   0  0  0  0  0  2  0  0  0  0  0  0
  191.9760  176.0050  135.1340 C   0  0  0  0  0  2  0  0  0  0  0  0
  193.4190  175.7620  136.9450 C   0  0  0  0  0  1  0  0  0  0  0  0
  193.3730  175.8510  135.4980 N   0  0  0  0  0  2  0  0  0  0  0  0
  188.2500  177.9420  141.6110 C   0  0  0  0  0  2  0  0  0  0  0  0
  188.7090  176.9480  142.6740 C   0  0  0  0  0  2  0  0  0  0  0  0
  186.5550  177.7810  143.7150 C   0  0  0  0  0  2  0  0  0  0  0  0
  187.8820  177.0470  143.9500 C   0  0  2  0  0  3  0  0  0  0  0  0
  188.6880  177.6500  145.1040 C   0  0  0  0  0  2  0  0  0  0  0  0
  188.3850  177.1040  147.4640 N   0  0  0  0  0  1  0  0  0  0  0  0
  186.4310  177.5010  146.1640 N   0  0  0  0  0  2  0  0  0  0  0  0
  187.8340  177.8720  146.3630 C   0  0  2  0  0  3  0  0  0  0  0  0
  185.9130  178.2550  145.0240 C   0  0  0  0  0  2  0  0  0  0  0  0
  2 12  1  0  0  0  0
  3  5  1  0  0  0  0
  4  1  2  0  0  0  0
  4  6  1  0  0  0  0
  5  7  1  0  0  0  0
  6 29  1  0  0  0  0
  7 10  1  0  0  0  0
  8  5  2  0  0  0  0
  9 14  1  0  0  0  0
  9 11  2  0  0  0  0
 10 19  1  1  0  0  0
 10  1  1  0  0  0  0
 11  8  1  0  0  0  0
 12  6  1  0  0  0  0
 13  8  1  1  0  0  0
 13  4  1  0  0  0  0
 14  3  2  0  0  0  0
 15 24  1  6  0  0  0
 15 20  1  0  0  0  0
 15 13  1  0  0  0  0
 15  2  1  0  0  0  0
 16 14  1  0  0  0  0
 16 17  1  0  0  0  0
 19 18  3  0  0  0  0
 21 20  1  0  0  0  0
 22 23  2  0  0  0  0
 23 21  2  0  0  0  0
 24 25  1  0  0  0  0
 26 28  1  0  0  0  0
 26 25  1  0  0  0  0
 28 27  1  0  0  0  0
 29 30  1  0  0  0  0
 31 32  1  0  0  0  0
 31 37  1  0  0  0  0
 32 30  1  6  0  0  0
 32 33  1  0  0  0  0
 33 36  1  0  0  0  0
 35 36  1  0  0  0  0
 36 34  1  1  0  0  0
 37 35  1  0  0  0  0
M  END
>  <MODEL>
9

>  <REMARK>
 VINA RESULT:      -5.1      4.174      9.868
  Name = 
  11 active torsions:
  status: ('A' for Active; 'I' for Inactive)
    1  A    between atoms: O_1  and  C_5
    2  A    between atoms: O_1  and  C_36
    3  A    between atoms: C_3  and  C_32
    4  A    between atoms: C_6  and  C_31
    5  A    between atoms: N_14  and  C_37
    6  A    between atoms: C_17  and  C_26
    7  A    between atoms: C_17  and  C_33
    8  A    between atoms: C_24  and  C_28
    9  A    between atoms: C_26  and  N_34
   10  A    between atoms: C_31  and  C_37
   11  A    between atoms: C_33  and  C_36
                            x       y       z     vdW  Elec       q    Type
                         _______ _______ _______ _____ _____    ______ ____

>  <TORSDO>
F 11

$$$$
