=
 OpenBabel11052414103D

 34 39  0  0  1  0  0  0  0  0999 V2000
  184.9870  178.6080  141.5340 C   0  0  1  0  0  3  0  0  0  0  0  0
  186.6970  177.7900  143.2750 C   0  0  0  0  0  0  0  0  0  0  0  0
  187.2880  178.1570  140.8580 C   0  0  0  0  0  0  0  0  0  0  0  0
  189.6250  177.9810  140.0420 C   0  0  0  0  0  0  0  0  0  0  0  0
  184.4740  178.6460  143.8870 N   0  0  0  0  0  0  0  0  0  0  0  0
  185.6440  178.2210  144.2610 C   0  0  0  0  0  3  0  0  0  0  0  0
  189.4280  177.4960  142.1940 C   0  0  0  0  0  3  0  0  0  0  0  0
  186.3760  178.2060  141.8580 C   0  0  0  0  0  0  0  0  0  0  0  0
  190.8770  177.7040  140.5420 C   0  0  0  0  0  3  0  0  0  0  0  0
  184.1040  178.8050  142.5110 C   0  0  0  0  0  3  0  0  0  0  0  0
  186.8800  178.4370  139.4920 N   0  0  0  0  0  0  0  0  0  0  0  0
  184.6040  178.8690  140.1450 C   0  0  0  0  0  3  0  0  0  0  0  0
  186.8160  176.4130  143.3300 F   0  0  0  0  0  0  0  0  0  0  0  0
  189.2670  178.4840  138.6820 C   0  0  0  0  0  2  0  0  0  0  0  0
  187.7880  178.1920  138.3560 C   0  0  1  0  0  3  0  0  0  0  0  0
  190.7270  177.3900  141.8460 N   0  0  0  0  0  0  0  0  0  0  0  0
  188.7220  177.8660  141.0660 C   0  0  0  0  0  0  0  0  0  0  0  0
  185.5190  178.7810  139.1840 C   0  0  0  0  0  3  0  0  0  0  0  0
  188.5010  174.6540  137.1320 C   0  0  0  0  0  0  0  0  0  0  0  0
  187.2210  174.2400  136.7510 C   0  0  0  0  0  3  0  0  0  0  0  0
  187.6070  176.8090  137.8030 C   0  0  0  0  0  0  0  0  0  0  0  0
  186.1350  175.1090  136.8930 C   0  0  0  0  0  3  0  0  0  0  0  0
  188.6940  175.9350  137.6550 C   0  0  0  0  0  3  0  0  0  0  0  0
  186.3280  176.3900  137.4170 C   0  0  0  0  0  3  0  0  0  0  0  0
  189.6570  173.7330  136.9790 C   0  0  0  0  0  1  0  0  0  0  0  0
  191.8120  177.0620  142.7550 C   0  0  0  0  0  2  0  0  0  0  0  0
  191.3380  176.0520  143.7850 C   0  0  0  0  0  2  0  0  0  0  0  0
  190.0010  178.3790  145.3340 F   0  0  0  0  0  0  0  0  0  0  0  0
  191.5640  176.5770  145.1920 C   0  0  1  0  0  3  0  0  0  0  0  0
  190.2530  177.1020  145.8020 C   0  0  1  0  0  3  0  0  0  0  0  0
  191.6380  177.0940  147.7890 O   0  0  0  0  0  0  0  0  0  0  0  0
  192.0930  175.7840  147.5530 C   0  0  0  0  0  2  0  0  0  0  0  0
  192.2000  175.4800  146.0500 C   0  0  0  0  0  2  0  0  0  0  0  0
  190.3080  177.1250  147.3350 C   0  0  0  0  0  2  0  0  0  0  0  0
  1 12  1  1  0  0  0
  1  8  1  0  0  0  0
  1 10  1  0  0  0  0
  2 13  1  0  0  0  0
  2  6  2  0  0  0  0
  3 17  1  0  0  0  0
  3  8  2  0  0  0  0
  4  9  2  0  0  0  0
  4 17  1  0  0  0  0
  5  6  1  0  0  0  0
  8  2  1  0  0  0  0
  9 16  1  0  0  0  0
 10  5  2  0  0  0  0
 11  3  1  0  0  0  0
 14  4  1  0  0  0  0
 15 21  1  1  0  0  0
 15 14  1  0  0  0  0
 15 11  1  0  0  0  0
 16  7  1  0  0  0  0
 16 26  1  0  0  0  0
 17  7  2  0  0  0  0
 18 11  1  0  0  0  0
 18 12  2  0  0  0  0
 19 23  1  0  0  0  0
 20 22  1  0  0  0  0
 20 19  2  0  0  0  0
 22 24  2  0  0  0  0
 23 21  2  0  0  0  0
 24 21  1  0  0  0  0
 25 19  1  0  0  0  0
 26 27  1  0  0  0  0
 29 27  1  6  0  0  0
 29 30  1  0  0  0  0
 29 33  1  0  0  0  0
 30 28  1  6  0  0  0
 30 34  1  0  0  0  0
 32 31  1  0  0  0  0
 33 32  1  0  0  0  0
 34 31  1  0  0  0  0
M  END
>  <MODEL>
1

>  <REMARK>
 VINA RESULT:      -9.3      0.000      0.000
  Name = 
  4 active torsions:
  status: ('A' for Active; 'I' for Inactive)
    1  A    between atoms: C_3  and  C_13
    2  A    between atoms: C_3  and  C_17
    3  A    between atoms: C_12  and  C_28
    4  A    between atoms: C_17  and  N_29
                            x       y       z     vdW  Elec       q    Type
                         _______ _______ _______ _____ _____    ______ ____

>  <TORSDO>
F 4

$$$$
=
 OpenBabel11052414103D

 34 39  0  0  1  0  0  0  0  0999 V2000
  185.1100  178.6970  140.8450 C   0  0  1  0  0  3  0  0  0  0  0  0
  186.6710  178.0700  142.7940 C   0  0  0  0  0  0  0  0  0  0  0  0
  187.4370  178.1140  140.3990 C   0  0  0  0  0  0  0  0  0  0  0  0
  189.8190  177.7840  139.7820 C   0  0  0  0  0  0  0  0  0  0  0  0
  184.4380  179.0460  143.1320 N   0  0  0  0  0  0  0  0  0  0  0  0
  185.5660  178.6460  143.6390 C   0  0  0  0  0  3  0  0  0  0  0  0
  189.4590  177.5820  141.9580 C   0  0  0  0  0  3  0  0  0  0  0  0
  186.4610  178.3090  141.3160 C   0  0  0  0  0  0  0  0  0  0  0  0
  191.0240  177.5460  140.4020 C   0  0  0  0  0  3  0  0  0  0  0  0
  184.1680  179.0360  141.7230 C   0  0  0  0  0  3  0  0  0  0  0  0
  187.1330  178.2260  138.9830 N   0  0  0  0  0  0  0  0  0  0  0  0
  184.8320  178.7870  139.4110 C   0  0  0  0  0  3  0  0  0  0  0  0
  186.7430  176.7090  143.0300 F   0  0  0  0  0  0  0  0  0  0  0  0
  189.5700  178.1170  138.3470 C   0  0  0  0  0  2  0  0  0  0  0  0
  188.1090  177.8190  137.9550 C   0  0  1  0  0  3  0  0  0  0  0  0
  190.7750  177.4050  141.7200 N   0  0  0  0  0  0  0  0  0  0  0  0
  188.8440  177.8210  140.7440 C   0  0  0  0  0  0  0  0  0  0  0  0
  185.8080  178.5570  138.5370 C   0  0  0  0  0  3  0  0  0  0  0  0
  186.5030  174.4560  137.1540 C   0  0  0  0  0  0  0  0  0  0  0  0
  187.6310  173.6860  136.8560 C   0  0  0  0  0  3  0  0  0  0  0  0
  187.9240  176.3800  137.5680 C   0  0  0  0  0  0  0  0  0  0  0  0
  188.9040  174.2590  136.9160 C   0  0  0  0  0  3  0  0  0  0  0  0
  186.6480  175.7990  137.5100 C   0  0  0  0  0  3  0  0  0  0  0  0
  189.0500  175.6040  137.2720 C   0  0  0  0  0  3  0  0  0  0  0  0
  185.1490  173.8480  137.0920 C   0  0  0  0  0  1  0  0  0  0  0  0
  191.7840  177.1710  142.7390 C   0  0  0  0  0  2  0  0  0  0  0  0
  191.2820  176.1480  143.7430 C   0  0  0  0  0  2  0  0  0  0  0  0
  189.9160  178.4280  145.3370 F   0  0  0  0  0  0  0  0  0  0  0  0
  191.4950  176.6440  145.1630 C   0  0  1  0  0  3  0  0  0  0  0  0
  190.1760  177.1440  145.7770 C   0  0  1  0  0  3  0  0  0  0  0  0
  191.5500  177.1030  147.7710 O   0  0  0  0  0  0  0  0  0  0  0  0
  192.0180  175.8030  147.5080 C   0  0  0  0  0  2  0  0  0  0  0  0
  192.1360  175.5330  145.9990 C   0  0  0  0  0  2  0  0  0  0  0  0
  190.2220  177.1320  147.3100 C   0  0  0  0  0  2  0  0  0  0  0  0
  1 12  1  6  0  0  0
  1  8  1  0  0  0  0
  1 10  1  0  0  0  0
  2 13  1  0  0  0  0
  2  6  2  0  0  0  0
  3 17  1  0  0  0  0
  3  8  2  0  0  0  0
  4  9  2  0  0  0  0
  4 17  1  0  0  0  0
  5  6  1  0  0  0  0
  8  2  1  0  0  0  0
  9 16  1  0  0  0  0
 10  5  2  0  0  0  0
 11  3  1  0  0  0  0
 14  4  1  0  0  0  0
 15 21  1  1  0  0  0
 15 14  1  0  0  0  0
 15 11  1  0  0  0  0
 16  7  1  0  0  0  0
 16 26  1  0  0  0  0
 17  7  2  0  0  0  0
 18 11  1  0  0  0  0
 18 12  2  0  0  0  0
 19 23  1  0  0  0  0
 20 22  1  0  0  0  0
 20 19  2  0  0  0  0
 22 24  2  0  0  0  0
 23 21  2  0  0  0  0
 24 21  1  0  0  0  0
 25 19  1  0  0  0  0
 26 27  1  0  0  0  0
 29 27  1  6  0  0  0
 29 30  1  0  0  0  0
 29 33  1  0  0  0  0
 30 28  1  6  0  0  0
 30 34  1  0  0  0  0
 32 31  1  0  0  0  0
 33 32  1  0  0  0  0
 34 31  1  0  0  0  0
M  END
>  <MODEL>
2

>  <REMARK>
 VINA RESULT:      -9.2      0.581      1.239
  Name = 
  4 active torsions:
  status: ('A' for Active; 'I' for Inactive)
    1  A    between atoms: C_3  and  C_13
    2  A    between atoms: C_3  and  C_17
    3  A    between atoms: C_12  and  C_28
    4  A    between atoms: C_17  and  N_29
                            x       y       z     vdW  Elec       q    Type
                         _______ _______ _______ _____ _____    ______ ____

>  <TORSDO>
F 4

$$$$
=
 OpenBabel11052414103D

 34 39  0  0  1  0  0  0  0  0999 V2000
  183.3820  178.8400  144.1520 C   0  0  0  0  0  0  0  0  0  0  0  0
  185.8840  178.2410  144.0590 C   0  0  2  0  0  3  0  0  0  0  0  0
  184.5140  178.6800  141.9960 C   0  0  0  0  0  0  0  0  0  0  0  0
  185.5450  178.7960  139.7420 C   0  0  0  0  0  0  0  0  0  0  0  0
  184.7240  178.8140  146.1520 N   0  0  0  0  0  0  0  0  0  0  0  0
  185.8350  178.5380  145.5340 C   0  0  0  0  0  3  0  0  0  0  0  0
  187.0040  178.2890  141.3290 C   0  0  0  0  0  3  0  0  0  0  0  0
  184.6040  178.6140  143.3460 C   0  0  0  0  0  0  0  0  0  0  0  0
  186.7890  178.6760  139.1660 C   0  0  0  0  0  3  0  0  0  0  0  0
  183.4630  178.9260  145.4790 C   0  0  0  0  0  3  0  0  0  0  0  0
  183.2230  178.9070  141.3680 N   0  0  0  0  0  0  0  0  0  0  0  0
  182.0940  179.0520  143.4890 C   0  0  0  0  0  3  0  0  0  0  0  0
  186.1230  176.8890  143.8880 F   0  0  0  0  0  0  0  0  0  0  0  0
  184.2740  179.2500  139.1020 C   0  0  0  0  0  2  0  0  0  0  0  0
  183.0480  178.7770  139.9090 C   0  0  1  0  0  3  0  0  0  0  0  0
  187.6540  178.3460  140.1480 N   0  0  0  0  0  0  0  0  0  0  0  0
  185.6730  178.5690  141.0870 C   0  0  0  0  0  0  0  0  0  0  0  0
  182.0370  179.0790  142.1600 C   0  0  0  0  0  3  0  0  0  0  0  0
  183.0620  175.2840  138.3830 C   0  0  0  0  0  0  0  0  0  0  0  0
  181.8380  174.7890  138.8410 C   0  0  0  0  0  3  0  0  0  0  0  0
  182.6430  177.3820  139.5320 C   0  0  0  0  0  0  0  0  0  0  0  0
  181.0150  175.5870  139.6410 C   0  0  0  0  0  3  0  0  0  0  0  0
  183.4640  176.5780  138.7260 C   0  0  0  0  0  3  0  0  0  0  0  0
  181.4170  176.8810  139.9850 C   0  0  0  0  0  3  0  0  0  0  0  0
  183.9360  174.4380  137.5310 C   0  0  0  0  0  1  0  0  0  0  0  0
  189.0830  178.1550  139.9710 C   0  0  0  0  0  2  0  0  0  0  0  0
  189.4440  176.6970  140.1950 C   0  0  0  0  0  2  0  0  0  0  0  0
  192.3140  177.7120  140.7750 F   0  0  0  0  0  0  0  0  0  0  0  0
  190.3310  176.5480  141.4200 C   0  0  1  0  0  3  0  0  0  0  0  0
  191.2180  177.7890  141.6130 C   0  0  1  0  0  3  0  0  0  0  0  0
  191.5950  176.6960  143.7420 O   0  0  0  0  0  0  0  0  0  0  0  0
  190.2200  176.4940  143.9630 C   0  0  0  0  0  2  0  0  0  0  0  0
  189.4590  176.2630  142.6460 C   0  0  0  0  0  2  0  0  0  0  0  0
  191.6970  177.9240  143.0650 C   0  0  0  0  0  2  0  0  0  0  0  0
  1 10  2  0  0  0  0
  2 13  1  1  0  0  0
  2  6  1  0  0  0  0
  3  8  2  0  0  0  0
  4 17  1  0  0  0  0
  6  5  2  0  0  0  0
  8  2  1  0  0  0  0
  8  1  1  0  0  0  0
  9  4  2  0  0  0  0
  9 16  1  0  0  0  0
 10  5  1  0  0  0  0
 11  3  1  0  0  0  0
 11 18  1  0  0  0  0
 12  1  1  0  0  0  0
 14  4  1  0  0  0  0
 14 15  1  0  0  0  0
 15 21  1  1  0  0  0
 15 11  1  0  0  0  0
 16  7  1  0  0  0  0
 17  7  2  0  0  0  0
 17  3  1  0  0  0  0
 18 12  2  0  0  0  0
 19 23  2  0  0  0  0
 19 20  1  0  0  0  0
 20 22  2  0  0  0  0
 21 24  2  0  0  0  0
 22 24  1  0  0  0  0
 23 21  1  0  0  0  0
 25 19  1  0  0  0  0
 26 16  1  0  0  0  0
 26 27  1  0  0  0  0
 29 27  1  6  0  0  0
 29 30  1  0  0  0  0
 29 33  1  0  0  0  0
 30 28  1  6  0  0  0
 30 34  1  0  0  0  0
 31 32  1  0  0  0  0
 33 32  1  0  0  0  0
 34 31  1  0  0  0  0
M  END
>  <MODEL>
3

>  <REMARK>
 VINA RESULT:      -8.3      2.366      4.221
  Name = 
  4 active torsions:
  status: ('A' for Active; 'I' for Inactive)
    1  A    between atoms: C_3  and  C_13
    2  A    between atoms: C_3  and  C_17
    3  A    between atoms: C_12  and  C_28
    4  A    between atoms: C_17  and  N_29
                            x       y       z     vdW  Elec       q    Type
                         _______ _______ _______ _____ _____    ______ ____

>  <TORSDO>
F 4

$$$$
=
 OpenBabel11052414103D

 34 39  0  0  1  0  0  0  0  0999 V2000
  184.2950  178.7360  144.4960 C   0  0  1  0  0  3  0  0  0  0  0  0
  186.5510  177.5180  144.7280 C   0  0  0  0  0  0  0  0  0  0  0  0
  185.7040  178.4040  142.5320 C   0  0  0  0  0  0  0  0  0  0  0  0
  187.1020  178.3690  140.4810 C   0  0  0  0  0  0  0  0  0  0  0  0
  185.2270  178.2590  146.6650 N   0  0  0  0  0  0  0  0  0  0  0  0
  186.3240  177.7390  146.2000 C   0  0  0  0  0  3  0  0  0  0  0  0
  188.0990  177.4210  142.2170 C   0  0  0  0  0  3  0  0  0  0  0  0
  185.5440  178.2450  143.8670 C   0  0  0  0  0  0  0  0  0  0  0  0
  188.3590  177.9640  140.0940 C   0  0  0  0  0  3  0  0  0  0  0  0
  184.1670  178.7270  145.8220 C   0  0  0  0  0  3  0  0  0  0  0  0
  184.6360  178.9890  141.7400 N   0  0  0  0  0  0  0  0  0  0  0  0
  183.2310  179.3070  143.6670 C   0  0  0  0  0  3  0  0  0  0  0  0
  186.4760  176.1610  144.4680 F   0  0  0  0  0  0  0  0  0  0  0  0
  186.1110  179.1690  139.7020 C   0  0  0  0  0  2  0  0  0  0  0  0
  184.6860  178.9860  140.2650 C   0  0  1  0  0  3  0  0  0  0  0  0
  188.9350  177.3700  141.1600 N   0  0  0  0  0  0  0  0  0  0  0  0
  186.9390  178.0460  141.8030 C   0  0  0  0  0  0  0  0  0  0  0  0
  183.4110  179.4180  142.3540 C   0  0  0  0  0  3  0  0  0  0  0  0
  183.7730  176.0960  137.9540 C   0  0  0  0  0  0  0  0  0  0  0  0
  182.7430  175.4900  138.6790 C   0  0  0  0  0  3  0  0  0  0  0  0
  184.0230  177.7640  139.7000 C   0  0  0  0  0  0  0  0  0  0  0  0
  182.3500  176.0200  139.9120 C   0  0  0  0  0  3  0  0  0  0  0  0
  184.4110  177.2300  138.4620 C   0  0  0  0  0  3  0  0  0  0  0  0
  182.9880  177.1550  140.4200 C   0  0  0  0  0  3  0  0  0  0  0  0
  184.1900  175.5350  136.6430 C   0  0  0  0  0  1  0  0  0  0  0  0
  190.2820  176.8270  141.1850 C   0  0  0  0  0  2  0  0  0  0  0  0
  191.2680  177.9030  141.6070 C   0  0  0  0  0  2  0  0  0  0  0  0
  191.1640  179.9190  143.9580 F   0  0  0  0  0  0  0  0  0  0  0  0
  191.6320  177.7500  143.0730 C   0  0  1  0  0  3  0  0  0  0  0  0
  190.7180  178.6100  143.9610 C   0  0  1  0  0  3  0  0  0  0  0  0
  191.7830  177.2670  145.6730 O   0  0  0  0  0  0  0  0  0  0  0  0
  191.5430  176.0660  144.9810 C   0  0  0  0  0  2  0  0  0  0  0  0
  191.5820  176.2680  143.4570 C   0  0  0  0  0  2  0  0  0  0  0  0
  190.6770  178.0910  145.4050 C   0  0  0  0  0  2  0  0  0  0  0  0
  1 12  1  1  0  0  0
  1 10  1  0  0  0  0
  2  6  2  0  0  0  0
  3  8  2  0  0  0  0
  4 17  1  0  0  0  0
  6  5  1  0  0  0  0
  8  1  1  0  0  0  0
  8  2  1  0  0  0  0
  9  4  2  0  0  0  0
  9 16  1  0  0  0  0
 10  5  2  0  0  0  0
 11 18  1  0  0  0  0
 11  3  1  0  0  0  0
 13  2  1  0  0  0  0
 14 15  1  0  0  0  0
 14  4  1  0  0  0  0
 15 21  1  1  0  0  0
 15 11  1  0  0  0  0
 16 26  1  0  0  0  0
 16  7  1  0  0  0  0
 17  7  2  0  0  0  0
 17  3  1  0  0  0  0
 18 12  2  0  0  0  0
 19 23  2  0  0  0  0
 19 20  1  0  0  0  0
 20 22  2  0  0  0  0
 21 24  2  0  0  0  0
 22 24  1  0  0  0  0
 23 21  1  0  0  0  0
 25 19  1  0  0  0  0
 26 27  1  0  0  0  0
 29 27  1  6  0  0  0
 29 33  1  0  0  0  0
 29 30  1  0  0  0  0
 30 28  1  1  0  0  0
 30 34  1  0  0  0  0
 32 31  1  0  0  0  0
 33 32  1  0  0  0  0
 34 31  1  0  0  0  0
M  END
>  <MODEL>
4

>  <REMARK>
 VINA RESULT:      -8.1      2.082      3.235
  Name = 
  4 active torsions:
  status: ('A' for Active; 'I' for Inactive)
    1  A    between atoms: C_3  and  C_13
    2  A    between atoms: C_3  and  C_17
    3  A    between atoms: C_12  and  C_28
    4  A    between atoms: C_17  and  N_29
                            x       y       z     vdW  Elec       q    Type
                         _______ _______ _______ _____ _____    ______ ____

>  <TORSDO>
F 4

$$$$
=
 OpenBabel11052414103D

 34 39  0  0  1  0  0  0  0  0999 V2000
  183.4370  178.8950  144.1430 C   0  0  0  0  0  0  0  0  0  0  0  0
  185.9280  178.2520  144.0580 C   0  0  2  0  0  3  0  0  0  0  0  0
  184.5680  178.6960  141.9890 C   0  0  0  0  0  0  0  0  0  0  0  0
  185.6030  178.7740  139.7350 C   0  0  0  0  0  0  0  0  0  0  0  0
  184.7770  178.8640  146.1440 N   0  0  0  0  0  0  0  0  0  0  0  0
  185.8830  178.5630  145.5300 C   0  0  0  0  0  3  0  0  0  0  0  0
  187.0520  178.2570  141.3280 C   0  0  0  0  0  3  0  0  0  0  0  0
  184.6560  178.6410  143.3400 C   0  0  0  0  0  0  0  0  0  0  0  0
  186.8460  178.6280  139.1620 C   0  0  0  0  0  3  0  0  0  0  0  0
  183.5190  178.9910  145.4680 C   0  0  0  0  0  3  0  0  0  0  0  0
  183.2820  178.9400  141.3580 N   0  0  0  0  0  0  0  0  0  0  0  0
  182.1530  179.1230  143.4760 C   0  0  0  0  0  3  0  0  0  0  0  0
  186.1440  176.8950  143.8990 F   0  0  0  0  0  0  0  0  0  0  0  0
  184.3400  179.2450  139.0900 C   0  0  0  0  0  2  0  0  0  0  0  0
  183.1060  178.8000  139.9000 C   0  0  1  0  0  3  0  0  0  0  0  0
  187.7040  178.2920  140.1480 N   0  0  0  0  0  0  0  0  0  0  0  0
  185.7260  178.5570  141.0830 C   0  0  0  0  0  0  0  0  0  0  0  0
  182.0980  179.1390  142.1470 C   0  0  0  0  0  3  0  0  0  0  0  0
  183.0460  175.3050  138.3790 C   0  0  0  0  0  0  0  0  0  0  0  0
  181.8280  174.8230  138.8670 C   0  0  0  0  0  3  0  0  0  0  0  0
  182.6780  177.4080  139.5350 C   0  0  0  0  0  0  0  0  0  0  0  0
  181.0340  175.6310  139.6860 C   0  0  0  0  0  3  0  0  0  0  0  0
  183.4700  176.5950  138.7100 C   0  0  0  0  0  3  0  0  0  0  0  0
  181.4570  176.9210  140.0180 C   0  0  0  0  0  3  0  0  0  0  0  0
  183.8900  174.4490  137.5070 C   0  0  0  0  0  1  0  0  0  0  0  0
  189.1300  178.0750  139.9740 C   0  0  0  0  0  2  0  0  0  0  0  0
  189.4320  177.7450  138.5220 C   0  0  0  0  0  2  0  0  0  0  0  0
  187.4710  175.5120  137.6440 F   0  0  0  0  0  0  0  0  0  0  0  0
  189.6320  176.2500  138.3440 C   0  0  1  0  0  3  0  0  0  0  0  0
  188.7630  175.7100  137.1960 C   0  0  1  0  0  3  0  0  0  0  0  0
  190.1810  173.7800  137.5620 O   0  0  0  0  0  0  0  0  0  0  0  0
  191.3570  174.5530  137.5520 C   0  0  0  0  0  2  0  0  0  0  0  0
  191.1200  175.9580  138.1290 C   0  0  0  0  0  2  0  0  0  0  0  0
  189.3150  174.3900  136.6390 C   0  0  0  0  0  2  0  0  0  0  0  0
  1 10  2  0  0  0  0
  2 13  1  1  0  0  0
  2  6  1  0  0  0  0
  3  8  2  0  0  0  0
  4 17  1  0  0  0  0
  6  5  2  0  0  0  0
  8  2  1  0  0  0  0
  8  1  1  0  0  0  0
  9  4  2  0  0  0  0
  9 16  1  0  0  0  0
 10  5  1  0  0  0  0
 11  3  1  0  0  0  0
 11 18  1  0  0  0  0
 12  1  1  0  0  0  0
 14  4  1  0  0  0  0
 14 15  1  0  0  0  0
 15 21  1  1  0  0  0
 15 11  1  0  0  0  0
 16  7  1  0  0  0  0
 17  7  2  0  0  0  0
 17  3  1  0  0  0  0
 18 12  2  0  0  0  0
 19 23  2  0  0  0  0
 19 20  1  0  0  0  0
 20 22  2  0  0  0  0
 21 24  2  0  0  0  0
 22 24  1  0  0  0  0
 23 21  1  0  0  0  0
 25 19  1  0  0  0  0
 26 16  1  0  0  0  0
 27 26  1  0  0  0  0
 29 27  1  6  0  0  0
 30 28  1  1  0  0  0
 30 29  1  0  0  0  0
 32 31  1  0  0  0  0
 32 33  1  0  0  0  0
 33 29  1  0  0  0  0
 34 30  1  0  0  0  0
 34 31  1  0  0  0  0
M  END
>  <MODEL>
5

>  <REMARK>
 VINA RESULT:      -8.0      3.504      5.668
  Name = 
  4 active torsions:
  status: ('A' for Active; 'I' for Inactive)
    1  A    between atoms: C_3  and  C_13
    2  A    between atoms: C_3  and  C_17
    3  A    between atoms: C_12  and  C_28
    4  A    between atoms: C_17  and  N_29
                            x       y       z     vdW  Elec       q    Type
                         _______ _______ _______ _____ _____    ______ ____

>  <TORSDO>
F 4

$$$$
=
 OpenBabel11052414103D

 34 39  0  0  1  0  0  0  0  0999 V2000
  183.9200  178.6660  144.7760 C   0  0  0  0  0  0  0  0  0  0  0  0
  186.3340  177.9150  144.2910 C   0  0  2  0  0  3  0  0  0  0  0  0
  184.7410  178.6250  142.4790 C   0  0  0  0  0  0  0  0  0  0  0  0
  185.4710  178.8740  140.1200 C   0  0  0  0  0  0  0  0  0  0  0  0
  185.5090  178.3740  146.5630 N   0  0  0  0  0  0  0  0  0  0  0  0
  186.5030  178.0820  145.7780 C   0  0  0  0  0  3  0  0  0  0  0  0
  187.0840  178.1340  141.4450 C   0  0  0  0  0  3  0  0  0  0  0  0
  185.0040  178.4330  143.7930 C   0  0  0  0  0  0  0  0  0  0  0  0
  186.6160  178.7250  139.3700 C   0  0  0  0  0  3  0  0  0  0  0  0
  184.1820  178.6280  146.0810 C   0  0  0  0  0  3  0  0  0  0  0  0
  183.4000  178.9910  142.0550 N   0  0  0  0  0  0  0  0  0  0  0  0
  182.5760  179.0200  144.3160 C   0  0  0  0  0  3  0  0  0  0  0  0
  186.4440  176.5710  143.9820 F   0  0  0  0  0  0  0  0  0  0  0  0
  184.1650  179.4650  139.7000 C   0  0  0  0  0  2  0  0  0  0  0  0
  183.0240  179.0030  140.6290 C   0  0  1  0  0  3  0  0  0  0  0  0
  187.5750  178.2530  140.1940 N   0  0  0  0  0  0  0  0  0  0  0  0
  185.7580  178.5200  141.4120 C   0  0  0  0  0  0  0  0  0  0  0  0
  182.3460  179.1680  143.0140 C   0  0  0  0  0  3  0  0  0  0  0  0
  180.6920  176.0210  140.1870 C   0  0  0  0  0  0  0  0  0  0  0  0
  181.4770  175.1840  139.3890 C   0  0  0  0  0  3  0  0  0  0  0  0
  182.4670  177.6760  140.2010 C   0  0  0  0  0  0  0  0  0  0  0  0
  182.7570  175.5890  138.9990 C   0  0  0  0  0  3  0  0  0  0  0  0
  181.1850  177.2640  140.5930 C   0  0  0  0  0  3  0  0  0  0  0  0
  183.2510  176.8330  139.4050 C   0  0  0  0  0  3  0  0  0  0  0  0
  179.3330  175.5910  140.6050 C   0  0  0  0  0  1  0  0  0  0  0  0
  188.9490  177.9850  139.8060 C   0  0  0  0  0  2  0  0  0  0  0  0
  189.4710  176.7670  140.5490 C   0  0  0  0  0  2  0  0  0  0  0  0
  188.7930  175.3480  143.2180 F   0  0  0  0  0  0  0  0  0  0  0  0
  189.8120  177.1210  141.9850 C   0  0  1  0  0  3  0  0  0  0  0  0
  190.0190  175.8540  142.8320 C   0  0  1  0  0  3  0  0  0  0  0  0
  190.8720  177.5100  144.3810 O   0  0  0  0  0  0  0  0  0  0  0  0
  191.6810  178.1140  143.4010 C   0  0  0  0  0  2  0  0  0  0  0  0
  191.0390  178.0370  142.0050 C   0  0  0  0  0  2  0  0  0  0  0  0
  190.8670  176.1370  144.0790 C   0  0  0  0  0  2  0  0  0  0  0  0
  1 10  2  0  0  0  0
  2 13  1  1  0  0  0
  2  6  1  0  0  0  0
  3  8  2  0  0  0  0
  4 17  1  0  0  0  0
  6  5  2  0  0  0  0
  8  2  1  0  0  0  0
  8  1  1  0  0  0  0
  9  4  2  0  0  0  0
  9 16  1  0  0  0  0
 10  5  1  0  0  0  0
 11  3  1  0  0  0  0
 11 18  1  0  0  0  0
 12  1  1  0  0  0  0
 14  4  1  0  0  0  0
 14 15  1  0  0  0  0
 15 21  1  6  0  0  0
 15 11  1  0  0  0  0
 16  7  1  0  0  0  0
 17  7  2  0  0  0  0
 17  3  1  0  0  0  0
 18 12  2  0  0  0  0
 19 23  1  0  0  0  0
 19 25  1  0  0  0  0
 20 19  2  0  0  0  0
 21 23  2  0  0  0  0
 22 20  1  0  0  0  0
 22 24  2  0  0  0  0
 24 21  1  0  0  0  0
 26 16  1  0  0  0  0
 26 27  1  0  0  0  0
 29 27  1  6  0  0  0
 29 33  1  0  0  0  0
 29 30  1  0  0  0  0
 30 28  1  1  0  0  0
 30 34  1  0  0  0  0
 32 31  1  0  0  0  0
 33 32  1  0  0  0  0
 34 31  1  0  0  0  0
M  END
>  <MODEL>
6

>  <REMARK>
 VINA RESULT:      -8.0      2.472      4.699
  Name = 
  4 active torsions:
  status: ('A' for Active; 'I' for Inactive)
    1  A    between atoms: C_3  and  C_13
    2  A    between atoms: C_3  and  C_17
    3  A    between atoms: C_12  and  C_28
    4  A    between atoms: C_17  and  N_29
                            x       y       z     vdW  Elec       q    Type
                         _______ _______ _______ _____ _____    ______ ____

>  <TORSDO>
F 4

$$$$
=
 OpenBabel11052414103D

 34 39  0  0  1  0  0  0  0  0999 V2000
  183.2600  178.8530  144.1870 C   0  0  0  0  0  0  0  0  0  0  0  0
  185.7070  178.3260  143.5890 C   0  0  2  0  0  3  0  0  0  0  0  0
  183.9390  178.7280  141.8460 C   0  0  0  0  0  0  0  0  0  0  0  0
  184.4930  178.8770  139.4320 C   0  0  0  0  0  0  0  0  0  0  0  0
  184.9770  178.8630  145.8760 N   0  0  0  0  0  0  0  0  0  0  0  0
  185.9470  178.6190  145.0460 C   0  0  0  0  0  3  0  0  0  0  0  0
  186.2550  178.4110  140.6900 C   0  0  0  0  0  3  0  0  0  0  0  0
  184.3010  178.6630  143.1500 C   0  0  0  0  0  0  0  0  0  0  0  0
  185.5990  178.7950  138.6170 C   0  0  0  0  0  3  0  0  0  0  0  0
  183.6040  178.9400  145.4700 C   0  0  0  0  0  3  0  0  0  0  0  0
  182.5430  178.9190  141.4920 N   0  0  0  0  0  0  0  0  0  0  0  0
  181.8590  179.0290  143.7970 C   0  0  0  0  0  3  0  0  0  0  0  0
  185.9450  176.9820  143.3640 F   0  0  0  0  0  0  0  0  0  0  0  0
  183.1070  179.2960  139.0630 C   0  0  0  0  0  2  0  0  0  0  0  0
  182.0820  178.7870  140.0970 C   0  0  1  0  0  3  0  0  0  0  0  0
  186.6530  178.4880  139.4030 N   0  0  0  0  0  0  0  0  0  0  0  0
  184.8950  178.6530  140.7220 C   0  0  0  0  0  0  0  0  0  0  0  0
  181.5360  179.0560  142.5070 C   0  0  0  0  0  3  0  0  0  0  0  0
  181.9110  175.2850  138.6030 C   0  0  0  0  0  0  0  0  0  0  0  0
  180.7930  174.7670  139.2630 C   0  0  0  0  0  3  0  0  0  0  0  0
  181.6490  177.3810  139.7980 C   0  0  0  0  0  0  0  0  0  0  0  0
  180.1010  175.5540  140.1880 C   0  0  0  0  0  3  0  0  0  0  0  0
  182.3380  176.5880  138.8680 C   0  0  0  0  0  3  0  0  0  0  0  0
  180.5280  176.8590  140.4550 C   0  0  0  0  0  3  0  0  0  0  0  0
  182.6460  174.4500  137.6170 C   0  0  0  0  0  1  0  0  0  0  0  0
  188.0220  178.3390  138.9410 C   0  0  0  0  0  2  0  0  0  0  0  0
  188.6670  177.1360  139.6090 C   0  0  0  0  0  2  0  0  0  0  0  0
  188.6720  177.3070  142.7030 F   0  0  0  0  0  0  0  0  0  0  0  0
  189.7430  177.5800  140.5850 C   0  0  1  0  0  3  0  0  0  0  0  0
  189.6630  176.7790  141.8960 C   0  0  1  0  0  3  0  0  0  0  0  0
  191.8050  177.8620  142.2230 O   0  0  0  0  0  0  0  0  0  0  0  0
  192.2620  177.5030  140.9420 C   0  0  0  0  0  2  0  0  0  0  0  0
  191.1160  177.4600  139.9180 C   0  0  0  0  0  2  0  0  0  0  0  0
  190.9970  176.7960  142.6530 C   0  0  0  0  0  2  0  0  0  0  0  0
  1 10  2  0  0  0  0
  2 13  1  1  0  0  0
  2  6  1  0  0  0  0
  3  8  2  0  0  0  0
  4 17  1  0  0  0  0
  6  5  2  0  0  0  0
  7 17  2  0  0  0  0
  8  2  1  0  0  0  0
  8  1  1  0  0  0  0
  9 16  1  0  0  0  0
  9  4  2  0  0  0  0
 10  5  1  0  0  0  0
 11  3  1  0  0  0  0
 11 18  1  0  0  0  0
 12  1  1  0  0  0  0
 14  4  1  0  0  0  0
 14 15  1  0  0  0  0
 15 21  1  6  0  0  0
 15 11  1  0  0  0  0
 16  7  1  0  0  0  0
 17  3  1  0  0  0  0
 18 12  2  0  0  0  0
 19 23  2  0  0  0  0
 19 20  1  0  0  0  0
 20 22  2  0  0  0  0
 21 24  2  0  0  0  0
 22 24  1  0  0  0  0
 23 21  1  0  0  0  0
 25 19  1  0  0  0  0
 26 16  1  0  0  0  0
 26 27  1  0  0  0  0
 29 27  1  6  0  0  0
 29 30  1  0  0  0  0
 30 34  1  0  0  0  0
 30 28  1  1  0  0  0
 31 34  1  0  0  0  0
 32 31  1  0  0  0  0
 33 29  1  0  0  0  0
 33 32  1  0  0  0  0
M  END
>  <MODEL>
7

>  <REMARK>
 VINA RESULT:      -7.9      2.689      5.062
  Name = 
  4 active torsions:
  status: ('A' for Active; 'I' for Inactive)
    1  A    between atoms: C_3  and  C_13
    2  A    between atoms: C_3  and  C_17
    3  A    between atoms: C_12  and  C_28
    4  A    between atoms: C_17  and  N_29
                            x       y       z     vdW  Elec       q    Type
                         _______ _______ _______ _____ _____    ______ ____

>  <TORSDO>
F 4

$$$$
=
 OpenBabel11052414103D

 34 39  0  0  1  0  0  0  0  0999 V2000
  191.2250  174.5350  137.1670 C   0  0  0  0  0  0  0  0  0  0  0  0
  188.8490  174.0460  136.3060 C   0  0  2  0  0  3  0  0  0  0  0  0
  189.3960  176.0510  137.7220 C   0  0  0  0  0  0  0  0  0  0  0  0
  187.7190  177.8210  138.1850 C   0  0  0  0  0  0  0  0  0  0  0  0
  190.8350  172.8320  135.5090 N   0  0  0  0  0  0  0  0  0  0  0  0
  189.5600  173.0640  135.4120 C   0  0  0  0  0  3  0  0  0  0  0  0
  186.8920  176.1440  136.9980 C   0  0  0  0  0  3  0  0  0  0  0  0
  189.8030  174.9380  137.0680 C   0  0  0  0  0  0  0  0  0  0  0  0
  186.4050  178.1050  137.8870 C   0  0  0  0  0  3  0  0  0  0  0  0
  191.6890  173.5320  136.4240 C   0  0  0  0  0  3  0  0  0  0  0  0
  190.3350  176.7870  138.5500 N   0  0  0  0  0  0  0  0  0  0  0  0
  192.1440  175.2900  138.0220 C   0  0  0  0  0  3  0  0  0  0  0  0
  188.0700  173.3400  137.2040 F   0  0  0  0  0  0  0  0  0  0  0  0
  188.7240  178.7040  138.8500 C   0  0  0  0  0  2  0  0  0  0  0  0
  189.8840  177.8750  139.4390 C   0  0  1  0  0  3  0  0  0  0  0  0
  185.9190  177.0600  137.1850 N   0  0  0  0  0  0  0  0  0  0  0  0
  188.0320  176.6100  137.6250 C   0  0  0  0  0  0  0  0  0  0  0  0
  191.7010  176.3600  138.6760 C   0  0  0  0  0  3  0  0  0  0  0  0
  188.0800  177.2290  142.7330 C   0  0  0  0  0  0  0  0  0  0  0  0
  188.9870  176.3780  143.3710 C   0  0  0  0  0  3  0  0  0  0  0  0
  189.5530  177.3580  140.8080 C   0  0  0  0  0  0  0  0  0  0  0  0
  190.1760  176.0180  142.7320 C   0  0  0  0  0  3  0  0  0  0  0  0
  188.3620  177.7190  141.4550 C   0  0  0  0  0  3  0  0  0  0  0  0
  190.4590  176.5080  141.4530 C   0  0  0  0  0  3  0  0  0  0  0  0
  186.8160  177.6140  143.4120 C   0  0  0  0  0  1  0  0  0  0  0  0
  184.5730  176.9700  136.6470 C   0  0  0  0  0  2  0  0  0  0  0  0
  183.6800  176.2030  137.6070 C   0  0  0  0  0  2  0  0  0  0  0  0
  183.0560  176.7530  140.5920 F   0  0  0  0  0  0  0  0  0  0  0  0
  182.6770  177.1350  138.2650 C   0  0  1  0  0  3  0  0  0  0  0  0
  183.2260  177.6900  139.5900 C   0  0  1  0  0  3  0  0  0  0  0  0
  181.2970  179.1310  139.3260 O   0  0  0  0  0  0  0  0  0  0  0  0
  181.6160  179.4330  137.9890 C   0  0  0  0  0  2  0  0  0  0  0  0
  182.2990  178.2490  137.2850 C   0  0  0  0  0  2  0  0  0  0  0  0
  182.5270  178.9950  139.9910 C   0  0  0  0  0  2  0  0  0  0  0  0
  1 12  1  0  0  0  0
  2  8  1  0  0  0  0
  2 13  1  1  0  0  0
  3 11  1  0  0  0  0
  4 14  1  0  0  0  0
  5 10  1  0  0  0  0
  6  5  2  0  0  0  0
  6  2  1  0  0  0  0
  7 16  1  0  0  0  0
  7 17  2  0  0  0  0
  8  1  1  0  0  0  0
  8  3  2  0  0  0  0
  9  4  2  0  0  0  0
 10  1  2  0  0  0  0
 11 18  1  0  0  0  0
 11 15  1  0  0  0  0
 12 18  2  0  0  0  0
 14 15  1  0  0  0  0
 15 21  1  1  0  0  0
 16  9  1  0  0  0  0
 17  3  1  0  0  0  0
 17  4  1  0  0  0  0
 19 20  1  0  0  0  0
 19 25  1  0  0  0  0
 21 24  2  0  0  0  0
 21 23  1  0  0  0  0
 22 20  2  0  0  0  0
 23 19  2  0  0  0  0
 24 22  1  0  0  0  0
 26 16  1  0  0  0  0
 26 27  1  0  0  0  0
 29 27  1  6  0  0  0
 29 30  1  0  0  0  0
 30 34  1  0  0  0  0
 30 28  1  1  0  0  0
 31 34  1  0  0  0  0
 32 31  1  0  0  0  0
 33 32  1  0  0  0  0
 33 29  1  0  0  0  0
M  END
>  <MODEL>
8

>  <REMARK>
 VINA RESULT:      -7.7      3.731      8.319
  Name = 
  4 active torsions:
  status: ('A' for Active; 'I' for Inactive)
    1  A    between atoms: C_3  and  C_13
    2  A    between atoms: C_3  and  C_17
    3  A    between atoms: C_12  and  C_28
    4  A    between atoms: C_17  and  N_29
                            x       y       z     vdW  Elec       q    Type
                         _______ _______ _______ _____ _____    ______ ____

>  <TORSDO>
F 4

$$$$
=
 OpenBabel11052414103D

 34 39  0  0  1  0  0  0  0  0999 V2000
  191.4930  174.6360  137.2170 C   0  0  0  0  0  0  0  0  0  0  0  0
  189.1620  173.9720  136.3520 C   0  0  2  0  0  3  0  0  0  0  0  0
  189.5570  176.0170  137.7620 C   0  0  0  0  0  0  0  0  0  0  0  0
  187.7550  177.6620  138.2140 C   0  0  0  0  0  0  0  0  0  0  0  0
  191.2330  172.9030  135.5640 N   0  0  0  0  0  0  0  0  0  0  0  0
  189.9440  173.0420  135.4640 C   0  0  0  0  0  3  0  0  0  0  0  0
  187.0550  175.9250  137.0320 C   0  0  0  0  0  3  0  0  0  0  0  0
  190.0460  174.9340  137.1120 C   0  0  0  0  0  0  0  0  0  0  0  0
  186.4250  177.8480  137.9120 C   0  0  0  0  0  3  0  0  0  0  0  0
  192.0310  173.6670  136.4780 C   0  0  0  0  0  3  0  0  0  0  0  0
  190.4390  176.8230  138.5890 N   0  0  0  0  0  0  0  0  0  0  0  0
  192.3520  175.4590  138.0710 C   0  0  0  0  0  3  0  0  0  0  0  0
  188.4330  173.2150  137.2510 F   0  0  0  0  0  0  0  0  0  0  0  0
  188.6910  178.6180  138.8770 C   0  0  0  0  0  2  0  0  0  0  0  0
  189.9070  177.8780  139.4720 C   0  0  1  0  0  3  0  0  0  0  0  0
  186.0180  176.7680  137.2130 N   0  0  0  0  0  0  0  0  0  0  0  0
  188.1570  176.4750  137.6590 C   0  0  0  0  0  0  0  0  0  0  0  0
  191.8310  176.4970  138.7190 C   0  0  0  0  0  3  0  0  0  0  0  0
  188.1700  177.1590  142.7880 C   0  0  0  0  0  0  0  0  0  0  0  0
  189.1110  176.3320  143.4070 C   0  0  0  0  0  3  0  0  0  0  0  0
  189.6110  177.3430  140.8430 C   0  0  0  0  0  0  0  0  0  0  0  0
  190.3020  176.0110  142.7490 C   0  0  0  0  0  3  0  0  0  0  0  0
  188.4190  177.6650  141.5090 C   0  0  0  0  0  3  0  0  0  0  0  0
  190.5510  176.5160  141.4700 C   0  0  0  0  0  3  0  0  0  0  0  0
  186.9050  177.5030  143.4870 C   0  0  0  0  0  1  0  0  0  0  0  0
  184.6830  176.5790  136.6720 C   0  0  0  0  0  2  0  0  0  0  0  0
  183.9840  175.4430  137.4000 C   0  0  0  0  0  2  0  0  0  0  0  0
  185.5580  172.8280  137.9320 F   0  0  0  0  0  0  0  0  0  0  0  0
  184.0840  174.1550  136.6010 C   0  0  1  0  0  3  0  0  0  0  0  0
  184.2400  172.9400  137.5310 C   0  0  1  0  0  3  0  0  0  0  0  0
  183.7990  171.7890  135.4460 O   0  0  0  0  0  0  0  0  0  0  0  0
  182.6860  172.5970  135.1530 C   0  0  0  0  0  2  0  0  0  0  0  0
  182.8640  174.0280  135.6850 C   0  0  0  0  0  2  0  0  0  0  0  0
  183.8060  171.6390  136.8440 C   0  0  0  0  0  2  0  0  0  0  0  0
  1 12  1  0  0  0  0
  2  8  1  0  0  0  0
  2 13  1  1  0  0  0
  3 11  1  0  0  0  0
  4 14  1  0  0  0  0
  5 10  1  0  0  0  0
  6  5  2  0  0  0  0
  6  2  1  0  0  0  0
  7 16  1  0  0  0  0
  7 17  2  0  0  0  0
  8  1  1  0  0  0  0
  8  3  2  0  0  0  0
  9  4  2  0  0  0  0
 10  1  2  0  0  0  0
 11 18  1  0  0  0  0
 11 15  1  0  0  0  0
 12 18  2  0  0  0  0
 14 15  1  0  0  0  0
 15 21  1  1  0  0  0
 16  9  1  0  0  0  0
 17  3  1  0  0  0  0
 17  4  1  0  0  0  0
 19 20  1  0  0  0  0
 19 25  1  0  0  0  0
 21 24  2  0  0  0  0
 21 23  1  0  0  0  0
 22 20  2  0  0  0  0
 23 19  2  0  0  0  0
 24 22  1  0  0  0  0
 26 16  1  0  0  0  0
 26 27  1  0  0  0  0
 29 27  1  1  0  0  0
 29 30  1  0  0  0  0
 30 28  1  6  0  0  0
 31 34  1  0  0  0  0
 32 31  1  0  0  0  0
 32 33  1  0  0  0  0
 33 29  1  0  0  0  0
 34 30  1  0  0  0  0
M  END
>  <MODEL>
9

>  <REMARK>
 VINA RESULT:      -7.6      4.142      8.778
  Name = 
  4 active torsions:
  status: ('A' for Active; 'I' for Inactive)
    1  A    between atoms: C_3  and  C_13
    2  A    between atoms: C_3  and  C_17
    3  A    between atoms: C_12  and  C_28
    4  A    between atoms: C_17  and  N_29
                            x       y       z     vdW  Elec       q    Type
                         _______ _______ _______ _____ _____    ______ ____

>  <TORSDO>
F 4

$$$$
