=
 OpenBabel11052412443D

 25 29  0  0  1  0  0  0  0  0999 V2000
  188.7130  177.7300  143.7890 C   0  0  0  0  0  0  0  0  0  0  0  0
  187.4360  177.8740  144.1860 C   0  0  0  0  0  0  0  0  0  0  0  0
  189.3470  177.1190  146.1290 C   0  0  0  0  0  2  0  0  0  0  0  0
  184.1290  178.4220  142.5950 N   0  0  0  0  0  2  0  0  0  0  0  0
  188.0170  177.6030  146.5090 N   0  0  0  0  0  0  0  0  0  0  0  0
  185.7000  178.2150  146.0420 C   0  0  1  0  0  3  0  0  0  0  0  0
  185.6400  179.1960  147.5300 Cl  0  0  0  0  0  0  0  0  0  0  0  0
  186.3670  177.9530  143.2380 N   0  0  0  0  0  0  0  0  0  0  0  0
  189.8130  177.7520  144.8140 C   0  0  0  0  0  2  0  0  0  0  0  0
  184.9190  178.9400  144.9400 C   0  0  0  0  0  2  0  0  0  0  0  0
  185.1780  178.3690  143.5700 C   0  0  0  0  0  0  0  0  0  0  0  0
  187.1190  177.9340  145.6270 C   0  0  0  0  0  0  0  0  0  0  0  0
  189.0620  177.6900  142.3970 N   0  0  0  0  0  0  0  0  0  0  0  0
  189.7360  177.7990  139.6260 C   0  0  0  0  0  2  0  0  0  0  0  0
  190.2450  176.9440  141.9300 C   0  0  2  0  0  3  0  0  0  0  0  0
  190.1010  176.5750  140.4550 C   0  0  0  0  0  2  0  0  0  0  0  0
  188.4220  178.3770  140.1290 C   0  0  0  0  0  2  0  0  0  0  0  0
  190.4530  175.6600  142.7200 C   0  0  0  0  0  1  0  0  0  0  0  0
  188.5750  178.8020  141.5840 C   0  0  0  0  0  2  0  0  0  0  0  0
  183.0020  176.7430  139.4120 C   0  0  0  0  0  2  0  0  0  0  0  0
  184.8070  179.0070  140.3120 C   0  0  0  0  0  2  0  0  0  0  0  0
  182.8590  178.2450  139.2640 C   0  0  2  0  0  3  0  0  0  0  0  0
  184.2270  177.9460  141.2170 C   0  0  2  0  0  3  0  0  0  0  0  0
  184.1660  178.8480  139.0160 N   0  0  0  0  0  2  0  0  0  0  0  0
  182.8670  177.6150  140.6460 C   0  0  2  0  0  3  0  0  0  0  0  0
  1  2  2  0  0  0  0
  1  9  1  0  0  0  0
  2 12  1  0  0  0  0
  3  5  1  0  0  0  0
  4 11  1  0  0  0  0
  6  7  1  1  0  0  0
  8 11  2  0  0  0  0
  8  2  1  0  0  0  0
  9  3  1  0  0  0  0
 10  6  1  0  0  0  0
 11 10  1  0  0  0  0
 12  6  1  0  0  0  0
 12  5  2  0  0  0  0
 13  1  1  0  0  0  0
 14 17  1  0  0  0  0
 14 16  1  0  0  0  0
 15 13  1  0  0  0  0
 15 18  1  1  0  0  0
 16 15  1  0  0  0  0
 17 19  1  0  0  0  0
 19 13  1  0  0  0  0
 21 23  1  0  0  0  0
 22 20  1  6  0  0  0
 22 25  1  0  0  0  0
 23  4  1  1  0  0  0
 24 22  1  0  0  0  0
 24 21  1  0  0  0  0
 25 20  1  6  0  0  0
 25 23  1  0  0  0  0
M  END
>  <MODEL>
1

>  <REMARK>
 VINA RESULT:      -8.3      0.000      0.000
  Name = 
  2 active torsions:
  status: ('A' for Active; 'I' for Inactive)
    1  A    between atoms: C_1  and  N_5
    2  A    between atoms: N_6  and  C_15
                            x       y       z     vdW  Elec       q    Type
                         _______ _______ _______ _____ _____    ______ ____

>  <TORSDO>
F 2

$$$$
=
 OpenBabel11052412443D

 25 29  0  0  1  0  0  0  0  0999 V2000
  188.2700  177.5790  144.3190 C   0  0  0  0  0  0  0  0  0  0  0  0
  187.2400  177.9390  143.5330 C   0  0  0  0  0  0  0  0  0  0  0  0
  186.6880  177.3330  146.2390 C   0  0  0  0  0  2  0  0  0  0  0  0
  186.6510  178.5680  139.9240 N   0  0  0  0  0  2  0  0  0  0  0  0
  185.7120  178.0290  145.3950 N   0  0  0  0  0  0  0  0  0  0  0  0
  184.8450  178.8090  143.2510 C   0  0  1  0  0  3  0  0  0  0  0  0
  183.8590  180.0440  144.0790 Cl  0  0  0  0  0  0  0  0  0  0  0  0
  187.3660  177.9680  142.1070 N   0  0  0  0  0  0  0  0  0  0  0  0
  188.1230  177.6590  145.8140 C   0  0  0  0  0  2  0  0  0  0  0  0
  185.3990  179.4080  141.9520 C   0  0  0  0  0  2  0  0  0  0  0  0
  186.4970  178.5720  141.3490 C   0  0  0  0  0  0  0  0  0  0  0  0
  185.9420  178.2950  144.1420 C   0  0  0  0  0  0  0  0  0  0  0  0
  189.5520  177.2470  143.7650 N   0  0  0  0  0  0  0  0  0  0  0  0
  192.0140  176.4570  142.5570 C   0  0  0  0  0  2  0  0  0  0  0  0
  190.4620  178.2960  143.2690 C   0  0  2  0  0  3  0  0  0  0  0  0
  191.9060  177.7990  143.2680 C   0  0  0  0  0  2  0  0  0  0  0  0
  191.1330  175.4380  143.2640 C   0  0  0  0  0  2  0  0  0  0  0  0
  190.3950  179.5530  144.1250 C   0  0  0  0  0  1  0  0  0  0  0  0
  189.6820  175.8970  143.2190 C   0  0  0  0  0  2  0  0  0  0  0  0
  188.0880  176.3880  137.2020 C   0  0  0  0  0  2  0  0  0  0  0  0
  188.9180  178.6890  138.9940 C   0  0  0  0  0  2  0  0  0  0  0  0
  188.3730  177.8420  136.8830 C   0  0  2  0  0  3  0  0  0  0  0  0
  187.6820  177.8420  139.1840 C   0  0  2  0  0  3  0  0  0  0  0  0
  189.4810  178.3260  137.7040 N   0  0  0  0  0  2  0  0  0  0  0  0
  187.2140  177.4780  137.7930 C   0  0  2  0  0  3  0  0  0  0  0  0
  1  9  1  0  0  0  0
  2 12  1  0  0  0  0
  2  1  2  0  0  0  0
  4 11  1  0  0  0  0
  5  3  1  0  0  0  0
  6  7  1  1  0  0  0
  6 12  1  0  0  0  0
  8  2  1  0  0  0  0
  9  3  1  0  0  0  0
 10  6  1  0  0  0  0
 11 10  1  0  0  0  0
 11  8  2  0  0  0  0
 12  5  2  0  0  0  0
 13  1  1  0  0  0  0
 14 17  1  0  0  0  0
 14 16  1  0  0  0  0
 15 13  1  0  0  0  0
 15 18  1  1  0  0  0
 16 15  1  0  0  0  0
 19 17  1  0  0  0  0
 19 13  1  0  0  0  0
 21 23  1  0  0  0  0
 22 20  1  1  0  0  0
 22 24  1  0  0  0  0
 22 25  1  0  0  0  0
 23  4  1  6  0  0  0
 24 21  1  0  0  0  0
 25 20  1  1  0  0  0
 25 23  1  0  0  0  0
M  END
>  <MODEL>
2

>  <REMARK>
 VINA RESULT:      -7.5      2.264      3.621
  Name = 
  2 active torsions:
  status: ('A' for Active; 'I' for Inactive)
    1  A    between atoms: C_1  and  N_5
    2  A    between atoms: N_6  and  C_15
                            x       y       z     vdW  Elec       q    Type
                         _______ _______ _______ _____ _____    ______ ____

>  <TORSDO>
F 2

$$$$
=
 OpenBabel11052412443D

 25 29  0  0  1  0  0  0  0  0999 V2000
  187.9110  177.6730  146.0930 C   0  0  0  0  0  0  0  0  0  0  0  0
  189.1110  177.4390  145.5350 C   0  0  0  0  0  0  0  0  0  0  0  0
  189.0110  177.8440  148.3310 C   0  0  0  0  0  2  0  0  0  0  0  0
  190.5210  177.1510  142.1150 N   0  0  0  0  0  2  0  0  0  0  0  0
  190.1960  177.2770  147.6810 N   0  0  0  0  0  0  0  0  0  0  0  0
  191.5670  176.7310  145.7370 C   0  0  1  0  0  3  0  0  0  0  0  0
  192.4350  175.4870  146.6760 Cl  0  0  0  0  0  0  0  0  0  0  0  0
  189.3030  177.5240  144.1190 N   0  0  0  0  0  0  0  0  0  0  0  0
  187.7310  177.4750  147.5730 C   0  0  0  0  0  2  0  0  0  0  0  0
  191.3560  176.2140  144.3090 C   0  0  0  0  0  2  0  0  0  0  0  0
  190.3590  177.0350  143.5340 C   0  0  0  0  0  0  0  0  0  0  0  0
  190.2660  177.1050  146.3930 C   0  0  0  0  0  0  0  0  0  0  0  0
  186.7600  177.9780  145.2900 N   0  0  0  0  0  0  0  0  0  0  0  0
  184.4780  178.4060  143.6310 C   0  0  0  0  0  2  0  0  0  0  0  0
  185.5870  178.6590  145.8680 C   0  0  2  0  0  3  0  0  0  0  0  0
  184.7810  179.3620  144.7770 C   0  0  0  0  0  2  0  0  0  0  0  0
  185.7830  177.8950  143.0400 C   0  0  0  0  0  2  0  0  0  0  0  0
  185.9900  179.7010  146.9020 C   0  0  0  0  0  1  0  0  0  0  0  0
  186.5670  177.1430  144.1060 C   0  0  0  0  0  2  0  0  0  0  0  0
  189.4030  178.7930  138.9100 C   0  0  0  0  0  2  0  0  0  0  0  0
  188.2180  177.3410  141.2930 C   0  0  0  0  0  2  0  0  0  0  0  0
  188.7650  177.4230  139.0190 C   0  0  2  0  0  3  0  0  0  0  0  0
  189.6280  177.8780  141.2150 C   0  0  2  0  0  3  0  0  0  0  0  0
  187.6480  177.4670  139.9610 N   0  0  0  0  0  2  0  0  0  0  0  0
  190.0490  177.7250  139.7720 C   0  0  2  0  0  3  0  0  0  0  0  0
  1  9  1  0  0  0  0
  2  1  2  0  0  0  0
  2 12  1  0  0  0  0
  4 11  1  0  0  0  0
  5  3  1  0  0  0  0
  6 12  1  0  0  0  0
  6  7  1  1  0  0  0
  8  2  1  0  0  0  0
  9  3  1  0  0  0  0
 10  6  1  0  0  0  0
 11  8  2  0  0  0  0
 11 10  1  0  0  0  0
 12  5  2  0  0  0  0
 13 15  1  0  0  0  0
 13  1  1  0  0  0  0
 14 16  1  0  0  0  0
 15 18  1  1  0  0  0
 16 15  1  0  0  0  0
 17 14  1  0  0  0  0
 17 19  1  0  0  0  0
 19 13  1  0  0  0  0
 22 20  1  6  0  0  0
 22 25  1  0  0  0  0
 22 24  1  0  0  0  0
 23 21  1  0  0  0  0
 23  4  1  1  0  0  0
 24 21  1  0  0  0  0
 25 20  1  6  0  0  0
 25 23  1  0  0  0  0
M  END
>  <MODEL>
3

>  <REMARK>
 VINA RESULT:      -7.5      2.758      5.297
  Name = 
  2 active torsions:
  status: ('A' for Active; 'I' for Inactive)
    1  A    between atoms: C_1  and  N_5
    2  A    between atoms: N_6  and  C_15
                            x       y       z     vdW  Elec       q    Type
                         _______ _______ _______ _____ _____    ______ ____

>  <TORSDO>
F 2

$$$$
=
 OpenBabel11052412443D

 25 29  0  0  1  0  0  0  0  0999 V2000
  188.0320  177.8800  144.6700 C   0  0  0  0  0  0  0  0  0  0  0  0
  186.9770  178.0990  143.8650 C   0  0  0  0  0  0  0  0  0  0  0  0
  186.4650  177.4440  146.5680 C   0  0  0  0  0  2  0  0  0  0  0  0
  186.3700  178.6240  140.2430 N   0  0  0  0  0  2  0  0  0  0  0  0
  185.4210  178.0020  145.7030 N   0  0  0  0  0  0  0  0  0  0  0  0
  184.4950  178.6510  143.5400 C   0  0  1  0  0  3  0  0  0  0  0  0
  183.3450  179.7530  144.3440 Cl  0  0  0  0  0  0  0  0  0  0  0  0
  187.1210  178.1350  142.4420 N   0  0  0  0  0  0  0  0  0  0  0  0
  187.8530  177.9500  146.1610 C   0  0  0  0  0  2  0  0  0  0  0  0
  184.9870  179.3080  142.2460 C   0  0  0  0  0  2  0  0  0  0  0  0
  186.1940  178.6170  141.6650 C   0  0  0  0  0  0  0  0  0  0  0  0
  185.6350  178.2890  144.4520 C   0  0  0  0  0  0  0  0  0  0  0  0
  189.3550  177.7130  144.1380 N   0  0  0  0  0  0  0  0  0  0  0  0
  192.0480  177.4940  143.2200 C   0  0  0  0  0  2  0  0  0  0  0  0
  189.8770  176.3770  143.7960 C   0  0  2  0  0  3  0  0  0  0  0  0
  191.0010  176.4840  142.7690 C   0  0  0  0  0  2  0  0  0  0  0  0
  191.3960  178.8570  143.3920 C   0  0  0  0  0  2  0  0  0  0  0  0
  188.7930  175.4780  143.2180 C   0  0  0  0  0  1  0  0  0  0  0  0
  190.3110  178.7720  144.4580 C   0  0  0  0  0  2  0  0  0  0  0  0
  188.1620  176.9000  137.4080 C   0  0  0  0  0  2  0  0  0  0  0  0
  188.7190  178.9170  139.6020 C   0  0  0  0  0  2  0  0  0  0  0  0
  188.4350  178.3900  137.3410 C   0  0  2  0  0  3  0  0  0  0  0  0
  187.4970  178.0330  139.5240 C   0  0  2  0  0  3  0  0  0  0  0  0
  189.4310  178.7600  138.3440 N   0  0  0  0  0  2  0  0  0  0  0  0
  187.1950  177.8760  138.0510 C   0  0  2  0  0  3  0  0  0  0  0  0
  1  9  1  0  0  0  0
  2 12  1  0  0  0  0
  2  1  2  0  0  0  0
  4 11  1  0  0  0  0
  5  3  1  0  0  0  0
  6  7  1  1  0  0  0
  6 12  1  0  0  0  0
  8  2  1  0  0  0  0
  9  3  1  0  0  0  0
 10  6  1  0  0  0  0
 11 10  1  0  0  0  0
 11  8  2  0  0  0  0
 12  5  2  0  0  0  0
 13 19  1  0  0  0  0
 13  1  1  0  0  0  0
 14 17  1  0  0  0  0
 15 18  1  6  0  0  0
 15 13  1  0  0  0  0
 16 14  1  0  0  0  0
 16 15  1  0  0  0  0
 17 19  1  0  0  0  0
 22 20  1  6  0  0  0
 22 25  1  0  0  0  0
 22 24  1  0  0  0  0
 23 21  1  0  0  0  0
 23  4  1  1  0  0  0
 24 21  1  0  0  0  0
 25 20  1  1  0  0  0
 25 23  1  0  0  0  0
M  END
>  <MODEL>
4

>  <REMARK>
 VINA RESULT:      -7.4      2.181      3.400
  Name = 
  2 active torsions:
  status: ('A' for Active; 'I' for Inactive)
    1  A    between atoms: C_1  and  N_5
    2  A    between atoms: N_6  and  C_15
                            x       y       z     vdW  Elec       q    Type
                         _______ _______ _______ _____ _____    ______ ____

>  <TORSDO>
F 2

$$$$
=
 OpenBabel11052412443D

 25 29  0  0  1  0  0  0  0  0999 V2000
  190.3260  177.0410  145.0920 C   0  0  0  0  0  0  0  0  0  0  0  0
  189.1330  177.2340  145.6810 C   0  0  0  0  0  0  0  0  0  0  0  0
  191.1980  176.0750  147.2260 C   0  0  0  0  0  2  0  0  0  0  0  0
  185.7160  178.2550  144.6560 N   0  0  0  0  0  2  0  0  0  0  0  0
  189.9830  176.6110  147.8480 N   0  0  0  0  0  0  0  0  0  0  0  0
  187.6980  177.4660  147.7930 C   0  0  1  0  0  3  0  0  0  0  0  0
  187.9310  178.2420  149.3820 Cl  0  0  0  0  0  0  0  0  0  0  0  0
  187.9610  177.5240  144.9120 N   0  0  0  0  0  0  0  0  0  0  0  0
  191.5480  176.8370  145.9440 C   0  0  0  0  0  2  0  0  0  0  0  0
  186.8540  178.3910  146.9090 C   0  0  0  0  0  2  0  0  0  0  0  0
  186.8740  177.9880  145.4580 C   0  0  0  0  0  0  0  0  0  0  0  0
  189.0150  177.1280  147.1500 C   0  0  0  0  0  0  0  0  0  0  0  0
  190.4840  177.1580  143.6700 N   0  0  0  0  0  0  0  0  0  0  0  0
  190.6390  177.2890  140.8230 C   0  0  0  0  0  2  0  0  0  0  0  0
  190.7630  178.4600  143.0380 C   0  0  2  0  0  3  0  0  0  0  0  0
  191.4320  178.2680  141.6780 C   0  0  0  0  0  2  0  0  0  0  0  0
  190.5550  175.9480  141.5350 C   0  0  0  0  0  2  0  0  0  0  0  0
  191.6800  179.3200  143.8980 C   0  0  0  0  0  1  0  0  0  0  0  0
  189.8380  176.1200  142.8670 C   0  0  0  0  0  2  0  0  0  0  0  0
  183.9730  177.8780  141.3330 C   0  0  0  0  0  2  0  0  0  0  0  0
  186.7060  178.5870  142.4370 C   0  0  0  0  0  2  0  0  0  0  0  0
  184.7210  179.1960  141.3600 C   0  0  2  0  0  3  0  0  0  0  0  0
  185.5850  177.9600  143.2300 C   0  0  2  0  0  3  0  0  0  0  0  0
  186.1490  178.9640  141.1480 N   0  0  0  0  0  2  0  0  0  0  0  0
  184.3070  178.5310  142.6610 C   0  0  2  0  0  3  0  0  0  0  0  0
  1  2  2  0  0  0  0
  1  9  1  0  0  0  0
  2 12  1  0  0  0  0
  3  5  1  0  0  0  0
  4 11  1  0  0  0  0
  6  7  1  1  0  0  0
  8 11  2  0  0  0  0
  8  2  1  0  0  0  0
  9  3  1  0  0  0  0
 10  6  1  0  0  0  0
 11 10  1  0  0  0  0
 12  6  1  0  0  0  0
 12  5  2  0  0  0  0
 13  1  1  0  0  0  0
 14 17  1  0  0  0  0
 14 16  1  0  0  0  0
 15 13  1  0  0  0  0
 15 18  1  1  0  0  0
 16 15  1  0  0  0  0
 17 19  1  0  0  0  0
 19 13  1  0  0  0  0
 21 23  1  0  0  0  0
 22 20  1  6  0  0  0
 22 25  1  0  0  0  0
 23  4  1  1  0  0  0
 24 22  1  0  0  0  0
 24 21  1  0  0  0  0
 25 20  1  6  0  0  0
 25 23  1  0  0  0  0
M  END
>  <MODEL>
5

>  <REMARK>
 VINA RESULT:      -7.3      1.766      2.670
  Name = 
  2 active torsions:
  status: ('A' for Active; 'I' for Inactive)
    1  A    between atoms: C_1  and  N_5
    2  A    between atoms: N_6  and  C_15
                            x       y       z     vdW  Elec       q    Type
                         _______ _______ _______ _____ _____    ______ ____

>  <TORSDO>
F 2

$$$$
=
 OpenBabel11052412443D

 25 29  0  0  1  0  0  0  0  0999 V2000
  189.9000  177.3200  141.8310 C   0  0  0  0  0  0  0  0  0  0  0  0
  189.2570  177.6980  140.7120 C   0  0  0  0  0  0  0  0  0  0  0  0
  192.0680  177.4220  140.5910 C   0  0  0  0  0  2  0  0  0  0  0  0
  185.8230  178.7250  139.7520 N   0  0  0  0  0  2  0  0  0  0  0  0
  191.2540  177.5160  139.3750 N   0  0  0  0  0  0  0  0  0  0  0  0
  189.1860  177.9790  138.1650 C   0  0  1  0  0  3  0  0  0  0  0  0
  189.7550  177.0020  136.7850 Cl  0  0  0  0  0  0  0  0  0  0  0  0
  187.9010  178.1530  140.7510 N   0  0  0  0  0  0  0  0  0  0  0  0
  191.2900  176.7560  141.7300 C   0  0  0  0  0  2  0  0  0  0  0  0
  187.6840  177.7400  138.3530 C   0  0  0  0  0  2  0  0  0  0  0  0
  187.1740  178.2530  139.6740 C   0  0  0  0  0  0  0  0  0  0  0  0
  189.9620  177.6660  139.4140 C   0  0  0  0  0  0  0  0  0  0  0  0
  189.2410  177.3180  143.1060 N   0  0  0  0  0  0  0  0  0  0  0  0
  187.8900  177.1290  145.6130 C   0  0  0  0  0  2  0  0  0  0  0  0
  189.8950  177.8790  144.3030 C   0  0  2  0  0  3  0  0  0  0  0  0
  188.8540  178.2770  145.3480 C   0  0  0  0  0  2  0  0  0  0  0  0
  187.1830  176.7530  144.3200 C   0  0  0  0  0  2  0  0  0  0  0  0
  190.7250  179.1100  143.9690 C   0  0  0  0  0  1  0  0  0  0  0  0
  188.2090  176.2990  143.2900 C   0  0  0  0  0  2  0  0  0  0  0  0
  183.1690  178.9420  142.4220 C   0  0  0  0  0  2  0  0  0  0  0  0
  186.1510  179.3770  142.0930 C   0  0  0  0  0  2  0  0  0  0  0  0
  184.3510  178.1560  142.9540 C   0  0  2  0  0  3  0  0  0  0  0  0
  185.1660  179.2210  140.9600 C   0  0  2  0  0  3  0  0  0  0  0  0
  185.4330  179.0680  143.3190 N   0  0  0  0  0  2  0  0  0  0  0  0
  184.1150  178.2540  141.4570 C   0  0  2  0  0  3  0  0  0  0  0  0
  1 13  1  0  0  0  0
  2  8  1  0  0  0  0
  2  1  2  0  0  0  0
  3  9  1  0  0  0  0
  5 12  2  0  0  0  0
  5  3  1  0  0  0  0
  6  7  1  6  0  0  0
  6 10  1  0  0  0  0
  6 12  1  0  0  0  0
  9  1  1  0  0  0  0
 10 11  1  0  0  0  0
 11  4  1  0  0  0  0
 11  8  2  0  0  0  0
 12  2  1  0  0  0  0
 13 19  1  0  0  0  0
 13 15  1  0  0  0  0
 15 18  1  6  0  0  0
 15 16  1  0  0  0  0
 16 14  1  0  0  0  0
 17 14  1  0  0  0  0
 19 17  1  0  0  0  0
 21 24  1  0  0  0  0
 22 20  1  1  0  0  0
 22 24  1  0  0  0  0
 23  4  1  6  0  0  0
 23 25  1  0  0  0  0
 23 21  1  0  0  0  0
 25 20  1  1  0  0  0
 25 22  1  0  0  0  0
M  END
>  <MODEL>
6

>  <REMARK>
 VINA RESULT:      -7.3      2.862      5.149
  Name = 
  2 active torsions:
  status: ('A' for Active; 'I' for Inactive)
    1  A    between atoms: C_1  and  N_5
    2  A    between atoms: N_6  and  C_15
                            x       y       z     vdW  Elec       q    Type
                         _______ _______ _______ _____ _____    ______ ____

>  <TORSDO>
F 2

$$$$
=
 OpenBabel11052412443D

 25 29  0  0  1  0  0  0  0  0999 V2000
  189.1180  177.5910  142.0290 C   0  0  0  0  0  0  0  0  0  0  0  0
  187.9080  177.9380  142.5020 C   0  0  0  0  0  0  0  0  0  0  0  0
  188.6800  178.9480  139.9760 C   0  0  0  0  0  2  0  0  0  0  0  0
  186.0150  177.5940  145.6750 N   0  0  0  0  0  2  0  0  0  0  0  0
  187.2880  179.0030  140.4310 N   0  0  0  0  0  0  0  0  0  0  0  0
  185.5350  178.8310  142.1210 C   0  0  1  0  0  3  0  0  0  0  0  0
  184.3060  178.6060  140.8480 Cl  0  0  0  0  0  0  0  0  0  0  0  0
  187.5580  177.7330  143.8740 N   0  0  0  0  0  0  0  0  0  0  0  0
  189.4080  177.7330  140.5600 C   0  0  0  0  0  2  0  0  0  0  0  0
  185.1890  177.9260  143.3090 C   0  0  0  0  0  2  0  0  0  0  0  0
  186.3250  177.7930  144.2890 C   0  0  0  0  0  0  0  0  0  0  0  0
  186.9200  178.5630  141.5990 C   0  0  0  0  0  0  0  0  0  0  0  0
  190.0960  176.9620  142.8710 N   0  0  0  0  0  0  0  0  0  0  0  0
  192.0560  175.5750  144.4140 C   0  0  0  0  0  2  0  0  0  0  0  0
  191.2140  177.7310  143.4470 C   0  0  2  0  0  3  0  0  0  0  0  0
  191.7570  177.0410  144.6960 C   0  0  0  0  0  2  0  0  0  0  0  0
  190.7800  174.8750  143.9690 C   0  0  0  0  0  2  0  0  0  0  0  0
  190.7910  179.1410  143.8330 C   0  0  0  0  0  1  0  0  0  0  0  0
  190.2640  175.5210  142.6900 C   0  0  0  0  0  2  0  0  0  0  0  0
  189.3450  176.7530  147.2300 C   0  0  0  0  0  2  0  0  0  0  0  0
  186.9720  178.5770  147.7070 C   0  0  0  0  0  2  0  0  0  0  0  0
  189.2120  178.2580  147.1160 C   0  0  2  0  0  3  0  0  0  0  0  0
  186.9930  177.4130  146.7450 C   0  0  2  0  0  3  0  0  0  0  0  0
  188.3370  178.7640  148.1710 N   0  0  0  0  0  2  0  0  0  0  0  0
  188.4030  177.3520  146.2040 C   0  0  2  0  0  3  0  0  0  0  0  0
  1  2  2  0  0  0  0
  1 13  1  0  0  0  0
  2  8  1  0  0  0  0
  3  5  1  0  0  0  0
  3  9  1  0  0  0  0
  5 12  2  0  0  0  0
  6  7  1  6  0  0  0
  6 10  1  0  0  0  0
  8 11  2  0  0  0  0
  9  1  1  0  0  0  0
 10 11  1  0  0  0  0
 11  4  1  0  0  0  0
 12  6  1  0  0  0  0
 12  2  1  0  0  0  0
 13 15  1  0  0  0  0
 14 16  1  0  0  0  0
 15 18  1  1  0  0  0
 15 16  1  0  0  0  0
 17 14  1  0  0  0  0
 19 13  1  0  0  0  0
 19 17  1  0  0  0  0
 21 24  1  0  0  0  0
 22 20  1  1  0  0  0
 22 24  1  0  0  0  0
 23  4  1  6  0  0  0
 23 21  1  0  0  0  0
 25 23  1  0  0  0  0
 25 22  1  0  0  0  0
 25 20  1  1  0  0  0
M  END
>  <MODEL>
7

>  <REMARK>
 VINA RESULT:      -7.0      2.494      5.627
  Name = 
  2 active torsions:
  status: ('A' for Active; 'I' for Inactive)
    1  A    between atoms: C_1  and  N_5
    2  A    between atoms: N_6  and  C_15
                            x       y       z     vdW  Elec       q    Type
                         _______ _______ _______ _____ _____    ______ ____

>  <TORSDO>
F 2

$$$$
=
 OpenBabel11052412443D

 25 29  0  0  1  0  0  0  0  0999 V2000
  185.0560  178.6460  143.1650 C   0  0  0  0  0  0  0  0  0  0  0  0
  183.8860  178.4890  142.5230 C   0  0  0  0  0  0  0  0  0  0  0  0
  183.8130  178.9450  145.3120 C   0  0  0  0  0  2  0  0  0  0  0  0
  182.7420  177.5080  139.1320 N   0  0  0  0  0  2  0  0  0  0  0  0
  182.6110  179.0760  144.4830 N   0  0  0  0  0  0  0  0  0  0  0  0
  181.3400  178.7770  142.4210 C   0  0  1  0  0  3  0  0  0  0  0  0
  180.2080  180.0660  142.9110 Cl  0  0  0  0  0  0  0  0  0  0  0  0
  183.8300  177.9610  141.1940 N   0  0  0  0  0  0  0  0  0  0  0  0
  185.0760  179.2960  144.5200 C   0  0  0  0  0  2  0  0  0  0  0  0
  181.5850  178.8820  140.9110 C   0  0  0  0  0  2  0  0  0  0  0  0
  182.7630  178.0610  140.4540 C   0  0  0  0  0  0  0  0  0  0  0  0
  182.6230  178.8480  143.2010 C   0  0  0  0  0  0  0  0  0  0  0  0
  186.3040  178.3280  142.5300 N   0  0  0  0  0  0  0  0  0  0  0  0
  188.7820  177.8700  141.1910 C   0  0  0  0  0  2  0  0  0  0  0  0
  187.4210  177.7440  143.2950 C   0  0  2  0  0  3  0  0  0  0  0  0
  188.3750  176.9940  142.3670 C   0  0  0  0  0  2  0  0  0  0  0  0
  187.5420  178.2780  140.4110 C   0  0  0  0  0  2  0  0  0  0  0  0
  186.9310  176.7700  144.3570 C   0  0  0  0  0  1  0  0  0  0  0  0
  186.6110  179.0770  141.3130 C   0  0  0  0  0  2  0  0  0  0  0  0
  184.3400  174.5390  137.4440 C   0  0  0  0  0  2  0  0  0  0  0  0
  184.6290  177.5540  137.5670 C   0  0  0  0  0  2  0  0  0  0  0  0
  184.0480  175.6070  136.4090 C   0  0  2  0  0  3  0  0  0  0  0  0
  183.8120  176.7200  138.5250 C   0  0  2  0  0  3  0  0  0  0  0  0
  185.0480  176.6690  136.4920 N   0  0  0  0  0  2  0  0  0  0  0  0
  183.2620  175.5730  137.7080 C   0  0  2  0  0  3  0  0  0  0  0  0
  1  9  1  0  0  0  0
  2  1  2  0  0  0  0
  2 12  1  0  0  0  0
  4 11  1  0  0  0  0
  5  3  1  0  0  0  0
  6  7  1  1  0  0  0
  6 12  1  0  0  0  0
  8  2  1  0  0  0  0
  9  3  1  0  0  0  0
 10  6  1  0  0  0  0
 11 10  1  0  0  0  0
 11  8  2  0  0  0  0
 12  5  2  0  0  0  0
 13  1  1  0  0  0  0
 13 15  1  0  0  0  0
 14 16  1  0  0  0  0
 15 18  1  1  0  0  0
 16 15  1  0  0  0  0
 17 14  1  0  0  0  0
 17 19  1  0  0  0  0
 19 13  1  0  0  0  0
 21 23  1  0  0  0  0
 22 24  1  0  0  0  0
 22 20  1  1  0  0  0
 22 25  1  0  0  0  0
 23  4  1  6  0  0  0
 24 21  1  0  0  0  0
 25 20  1  1  0  0  0
 25 23  1  0  0  0  0
M  END
>  <MODEL>
8

>  <REMARK>
 VINA RESULT:      -6.9      2.392      4.124
  Name = 
  2 active torsions:
  status: ('A' for Active; 'I' for Inactive)
    1  A    between atoms: C_1  and  N_5
    2  A    between atoms: N_6  and  C_15
                            x       y       z     vdW  Elec       q    Type
                         _______ _______ _______ _____ _____    ______ ____

>  <TORSDO>
F 2

$$$$
=
 OpenBabel11052412443D

 25 29  0  0  1  0  0  0  0  0999 V2000
  188.8160  176.1360  136.2350 C   0  0  0  0  0  0  0  0  0  0  0  0
  189.8320  176.1040  137.1140 C   0  0  0  0  0  0  0  0  0  0  0  0
  190.2260  174.8840  134.5940 C   0  0  0  0  0  2  0  0  0  0  0  0
  190.3850  176.9650  140.6810 N   0  0  0  0  0  2  0  0  0  0  0  0
  191.3510  175.1800  135.4860 N   0  0  0  0  0  0  0  0  0  0  0  0
  192.3260  175.8090  137.6330 C   0  0  1  0  0  3  0  0  0  0  0  0
  193.8370  176.3010  136.8230 Cl  0  0  0  0  0  0  0  0  0  0  0  0
  189.6320  176.4170  138.4960 N   0  0  0  0  0  0  0  0  0  0  0  0
  189.0910  175.8970  134.7760 C   0  0  0  0  0  2  0  0  0  0  0  0
  192.0290  176.7960  138.7680 C   0  0  0  0  0  2  0  0  0  0  0  0
  190.6260  176.6680  139.2990 C   0  0  0  0  0  0  0  0  0  0  0  0
  191.1840  175.7210  136.6580 C   0  0  0  0  0  0  0  0  0  0  0  0
  187.4930  176.5240  136.6360 N   0  0  0  0  0  0  0  0  0  0  0  0
  184.8940  177.4630  137.3470 C   0  0  0  0  0  2  0  0  0  0  0  0
  186.3390  175.6330  136.4220 C   0  0  2  0  0  3  0  0  0  0  0  0
  185.2080  175.9740  137.3900 C   0  0  0  0  0  2  0  0  0  0  0  0
  186.1360  178.2530  137.7290 C   0  0  0  0  0  2  0  0  0  0  0  0
  186.7090  174.1700  136.6260 C   0  0  0  0  0  1  0  0  0  0  0  0
  187.2520  177.9630  136.7350 C   0  0  0  0  0  2  0  0  0  0  0  0
  187.9310  176.3780  143.4830 C   0  0  0  0  0  2  0  0  0  0  0  0
  188.2920  178.1820  141.0730 C   0  0  0  0  0  2  0  0  0  0  0  0
  188.2390  177.8590  143.3900 C   0  0  2  0  0  3  0  0  0  0  0  0
  189.0830  176.9240  141.3430 C   0  0  2  0  0  3  0  0  0  0  0  0
  187.5110  178.4510  142.2700 N   0  0  0  0  0  2  0  0  0  0  0  0
  189.2270  176.8410  142.8450 C   0  0  2  0  0  3  0  0  0  0  0  0
  1 13  1  0  0  0  0
  1  2  2  0  0  0  0
  2  8  1  0  0  0  0
  3  9  1  0  0  0  0
  3  5  1  0  0  0  0
  5 12  2  0  0  0  0
  6  7  1  6  0  0  0
  6 10  1  0  0  0  0
  8 11  2  0  0  0  0
  9  1  1  0  0  0  0
 10 11  1  0  0  0  0
 11  4  1  0  0  0  0
 12  2  1  0  0  0  0
 12  6  1  0  0  0  0
 13 19  1  0  0  0  0
 14 16  1  0  0  0  0
 14 17  1  0  0  0  0
 15 18  1  1  0  0  0
 15 13  1  0  0  0  0
 15 16  1  0  0  0  0
 19 17  1  0  0  0  0
 21 23  1  0  0  0  0
 21 24  1  0  0  0  0
 22 20  1  1  0  0  0
 23  4  1  6  0  0  0
 23 25  1  0  0  0  0
 24 22  1  0  0  0  0
 25 22  1  0  0  0  0
 25 20  1  1  0  0  0
M  END
>  <MODEL>
9

>  <REMARK>
 VINA RESULT:      -6.5      4.543      7.919
  Name = 
  2 active torsions:
  status: ('A' for Active; 'I' for Inactive)
    1  A    between atoms: C_1  and  N_5
    2  A    between atoms: N_6  and  C_15
                            x       y       z     vdW  Elec       q    Type
                         _______ _______ _______ _____ _____    ______ ____

>  <TORSDO>
F 2

$$$$
