=
 OpenBabel11052413503D

 27 31  0  0  1  0  0  0  0  0999 V2000
  187.4360  178.7110  141.2910 C   0  0  0  0  0  3  0  0  0  0  0  0
  187.5040  177.9630  143.6960 C   0  0  0  0  0  0  0  0  0  0  0  0
  189.8430  177.6320  142.8290 C   0  0  0  0  0  3  0  0  0  0  0  0
  189.3860  176.6870  146.9830 N   0  0  0  0  0  0  0  0  0  0  0  0
  191.7420  175.8390  147.1890 C   0  0  0  0  0  1  0  0  0  0  0  0
  186.7350  177.6840  144.9470 C   0  0  0  0  0  3  0  0  0  0  0  0
  190.8860  177.5890  145.5320 C   0  0  0  0  0  0  0  0  0  0  0  0
  190.2710  176.1520  139.3710 C   0  0  0  0  0  3  0  0  0  0  0  0
  191.9840  177.8220  144.9590 O   0  0  0  0  0  0  0  0  0  0  0  0
  189.9540  176.9440  138.3490 C   0  0  0  0  0  3  0  0  0  0  0  0
  189.5690  178.2100  145.1940 C   0  0  2  0  0  3  0  0  0  0  0  0
  186.8190  178.2900  142.5660 C   0  0  0  0  0  0  0  0  0  0  0  0
  190.7400  176.7450  146.6580 N   0  0  0  0  0  0  0  0  0  0  0  0
  188.7270  177.4840  146.2040 C   0  0  0  0  0  0  0  0  0  0  0  0
  188.5830  178.3230  140.7410 C   0  0  0  0  0  0  0  0  0  0  0  0
  189.0000  177.9360  143.8200 C   0  0  0  0  0  0  0  0  0  0  0  0
  190.2460  176.4860  140.8020 C   0  0  0  0  0  3  0  0  0  0  0  0
  187.3090  177.4350  146.0870 N   0  0  0  0  0  0  0  0  0  0  0  0
  189.4860  178.3350  138.4130 C   0  0  0  0  0  3  0  0  0  0  0  0
  188.8890  178.9300  139.4420 C   0  0  0  0  0  3  0  0  0  0  0  0
  189.5170  177.4130  141.4240 C   0  0  0  0  0  0  0  0  0  0  0  0
  182.5610  178.5320  142.5630 C   0  0  0  0  0  3  0  0  0  0  0  0
  185.3360  178.3430  142.5570 C   0  0  0  0  0  0  0  0  0  0  0  0
  184.6120  178.0840  141.3850 C   0  0  0  0  0  3  0  0  0  0  0  0
  183.2190  178.1730  141.3860 C   0  0  0  0  0  3  0  0  0  0  0  0
  183.2740  178.7940  143.6910 N   0  0  0  0  0  0  0  0  0  0  0  0
  184.6310  178.7130  143.7100 C   0  0  0  0  0  3  0  0  0  0  0  0
  1 12  1  0  0  0  0
  2 16  1  0  0  0  0
  2  6  1  0  0  0  0
  3 16  2  0  0  0  0
  6 18  2  0  0  0  0
  7 13  1  0  0  0  0
  8 17  1  0  0  0  0
  9  7  2  0  0  0  0
 10 19  1  0  0  0  0
 10  8  2  0  0  0  0
 11 16  1  6  0  0  0
 11  7  1  0  0  0  0
 11 14  1  0  0  0  0
 12  2  2  0  0  0  0
 13  4  1  0  0  0  0
 13  5  1  0  0  0  0
 14  4  2  0  0  0  0
 15  1  2  0  0  0  0
 15 21  1  0  0  0  0
 17 21  2  0  0  0  0
 18 14  1  0  0  0  0
 19 20  2  0  0  0  0
 20 15  1  0  0  0  0
 21  3  1  0  0  0  0
 22 26  1  0  0  0  0
 23 12  1  0  0  0  0
 23 27  1  0  0  0  0
 24 25  1  0  0  0  0
 24 23  2  0  0  0  0
 25 22  2  0  0  0  0
 26 27  2  0  0  0  0
M  END
>  <MODEL>
1

>  <REMARK>
 VINA RESULT:      -9.4      0.000      0.000
  Name = 
  1 active torsions:
  status: ('A' for Active; 'I' for Inactive)
    1  A    between atoms: C_9  and  C_15
                            x       y       z     vdW  Elec       q    Type
                         _______ _______ _______ _____ _____    ______ ____

>  <TORSDO>
F 1

$$$$
=
 OpenBabel11052413503D

 27 31  0  0  1  0  0  0  0  0999 V2000
  186.4310  177.3500  145.4410 C   0  0  0  0  0  3  0  0  0  0  0  0
  187.2650  177.7720  143.1020 C   0  0  0  0  0  0  0  0  0  0  0  0
  189.3180  177.2320  144.4530 C   0  0  0  0  0  3  0  0  0  0  0  0
  190.1060  177.8720  140.2910 N   0  0  0  0  0  0  0  0  0  0  0  0
  192.5930  177.6920  140.5950 C   0  0  0  0  0  1  0  0  0  0  0  0
  186.9370  178.2100  141.7100 C   0  0  0  0  0  3  0  0  0  0  0  0
  190.7930  176.5950  142.0430 C   0  0  0  0  0  0  0  0  0  0  0  0
  189.6290  178.7520  147.9080 C   0  0  0  0  0  3  0  0  0  0  0  0
  191.5660  176.0030  142.8420 O   0  0  0  0  0  0  0  0  0  0  0  0
  188.8240  178.2530  148.8440 C   0  0  0  0  0  3  0  0  0  0  0  0
  189.2990  176.5830  142.0910 C   0  0  2  0  0  3  0  0  0  0  0  0
  186.3010  177.8550  144.0580 C   0  0  0  0  0  0  0  0  0  0  0  0
  191.2270  177.3140  140.9040 N   0  0  0  0  0  0  0  0  0  0  0  0
  189.0410  177.4810  140.9160 C   0  0  0  0  0  0  0  0  0  0  0  0
  187.5060  177.3040  146.2230 C   0  0  0  0  0  0  0  0  0  0  0  0
  188.6360  177.1920  143.3060 C   0  0  0  0  0  0  0  0  0  0  0  0
  189.7490  178.3170  146.5090 C   0  0  0  0  0  3  0  0  0  0  0  0
  187.7730  178.0990  140.7200 N   0  0  0  0  0  0  0  0  0  0  0  0
  187.8520  177.1630  148.6920 C   0  0  0  0  0  3  0  0  0  0  0  0
  187.2770  176.7550  147.5640 C   0  0  0  0  0  3  0  0  0  0  0  0
  188.8430  177.6990  145.7510 C   0  0  0  0  0  0  0  0  0  0  0  0
  182.4040  179.3220  143.1340 C   0  0  0  0  0  3  0  0  0  0  0  0
  184.9550  178.3950  143.7450 C   0  0  0  0  0  0  0  0  0  0  0  0
  184.1720  179.0030  144.7360 C   0  0  0  0  0  3  0  0  0  0  0  0
  182.8940  179.4730  144.4320 C   0  0  0  0  0  3  0  0  0  0  0  0
  183.1670  178.7180  142.1820 N   0  0  0  0  0  0  0  0  0  0  0  0
  184.4140  178.2530  142.4600 C   0  0  0  0  0  3  0  0  0  0  0  0
  1 15  1  0  0  0  0
  2 16  2  0  0  0  0
  2 12  1  0  0  0  0
  3 21  2  0  0  0  0
  4 13  1  0  0  0  0
  4 14  2  0  0  0  0
  5 13  1  0  0  0  0
  6  2  1  0  0  0  0
  7 11  1  0  0  0  0
  7  9  2  0  0  0  0
  8 10  1  0  0  0  0
 11 14  1  6  0  0  0
 11 16  1  0  0  0  0
 12  1  2  0  0  0  0
 13  7  1  0  0  0  0
 15 20  2  0  0  0  0
 16  3  1  0  0  0  0
 17  8  2  0  0  0  0
 18 14  1  0  0  0  0
 18  6  2  0  0  0  0
 19 10  2  0  0  0  0
 20 19  1  0  0  0  0
 21 15  1  0  0  0  0
 21 17  1  0  0  0  0
 22 25  1  0  0  0  0
 23 12  1  0  0  0  0
 23 24  1  0  0  0  0
 25 24  2  0  0  0  0
 26 27  1  0  0  0  0
 26 22  2  0  0  0  0
 27 23  2  0  0  0  0
M  END
>  <MODEL>
2

>  <REMARK>
 VINA RESULT:      -8.9      2.495      5.274
  Name = 
  1 active torsions:
  status: ('A' for Active; 'I' for Inactive)
    1  A    between atoms: C_9  and  C_15
                            x       y       z     vdW  Elec       q    Type
                         _______ _______ _______ _____ _____    ______ ____

>  <TORSDO>
F 1

$$$$
=
 OpenBabel11052413503D

 27 31  0  0  1  0  0  0  0  0999 V2000
  184.9940  179.2110  140.6790 C   0  0  0  0  0  3  0  0  0  0  0  0
  187.3170  178.2470  140.8140 C   0  0  0  0  0  0  0  0  0  0  0  0
  186.7190  178.2020  138.3710 C   0  0  0  0  0  3  0  0  0  0  0  0
  190.6910  176.8290  139.2040 N   0  0  0  0  0  0  0  0  0  0  0  0
  191.1110  176.1720  136.8160 C   0  0  0  0  0  1  0  0  0  0  0  0
  188.4370  177.7840  141.6900 C   0  0  0  0  0  3  0  0  0  0  0  0
  189.5150  177.9910  137.6430 C   0  0  0  0  0  0  0  0  0  0  0  0
  183.2260  177.0990  137.4090 C   0  0  0  0  0  3  0  0  0  0  0  0
  189.1030  178.3710  136.5150 O   0  0  0  0  0  0  0  0  0  0  0  0
  182.2440  177.9560  137.6820 C   0  0  0  0  0  3  0  0  0  0  0  0
  189.0720  178.5260  138.9670 C   0  0  2  0  0  3  0  0  0  0  0  0
  186.1440  178.6190  141.3930 C   0  0  0  0  0  0  0  0  0  0  0  0
  190.5400  177.0340  137.8340 N   0  0  0  0  0  0  0  0  0  0  0  0
  189.9070  177.6380  139.8440 C   0  0  0  0  0  0  0  0  0  0  0  0
  184.5580  178.9770  139.4440 C   0  0  0  0  0  0  0  0  0  0  0  0
  187.6210  178.3360  139.3460 C   0  0  0  0  0  0  0  0  0  0  0  0
  184.6660  177.2930  137.6300 C   0  0  0  0  0  3  0  0  0  0  0  0
  189.6140  177.4780  141.2290 N   0  0  0  0  0  0  0  0  0  0  0  0
  182.3670  179.2880  138.2870 C   0  0  0  0  0  3  0  0  0  0  0  0
  183.3620  179.7290  139.0520 C   0  0  0  0  0  3  0  0  0  0  0  0
  185.2710  178.0900  138.5110 C   0  0  0  0  0  0  0  0  0  0  0  0
  185.5180  178.3870  145.6060 C   0  0  0  0  0  3  0  0  0  0  0  0
  185.9580  178.5450  142.8640 C   0  0  0  0  0  0  0  0  0  0  0  0
  186.6530  177.6030  143.6330 C   0  0  0  0  0  3  0  0  0  0  0  0
  186.4380  177.5240  145.0100 C   0  0  0  0  0  3  0  0  0  0  0  0
  184.8380  179.2890  144.8480 N   0  0  0  0  0  0  0  0  0  0  0  0
  185.0330  179.3810  143.5050 C   0  0  0  0  0  3  0  0  0  0  0  0
  1 12  1  0  0  0  0
  2 12  2  0  0  0  0
  2  6  1  0  0  0  0
  3 21  1  0  0  0  0
  3 16  2  0  0  0  0
  4 14  2  0  0  0  0
  5 13  1  0  0  0  0
  7 13  1  0  0  0  0
  8 17  1  0  0  0  0
  8 10  2  0  0  0  0
  9  7  2  0  0  0  0
 10 19  1  0  0  0  0
 11  7  1  6  0  0  0
 11 16  1  0  0  0  0
 11 14  1  0  0  0  0
 12 23  1  0  0  0  0
 13  4  1  0  0  0  0
 14 18  1  0  0  0  0
 15  1  2  0  0  0  0
 16  2  1  0  0  0  0
 17 21  2  0  0  0  0
 18  6  2  0  0  0  0
 19 20  2  0  0  0  0
 20 15  1  0  0  0  0
 21 15  1  0  0  0  0
 23 27  2  0  0  0  0
 23 24  1  0  0  0  0
 24 25  2  0  0  0  0
 25 22  1  0  0  0  0
 26 22  2  0  0  0  0
 27 26  1  0  0  0  0
M  END
>  <MODEL>
3

>  <REMARK>
 VINA RESULT:      -8.7      3.608      5.859
  Name = 
  1 active torsions:
  status: ('A' for Active; 'I' for Inactive)
    1  A    between atoms: C_9  and  C_15
                            x       y       z     vdW  Elec       q    Type
                         _______ _______ _______ _____ _____    ______ ____

>  <TORSDO>
F 1

$$$$
=
 OpenBabel11052413503D

 27 31  0  0  1  0  0  0  0  0999 V2000
  191.3180  177.2550  140.1360 C   0  0  0  0  0  3  0  0  0  0  0  0
  189.6030  176.8110  138.3460 C   0  0  0  0  0  0  0  0  0  0  0  0
  188.2950  177.6410  140.3280 C   0  0  0  0  0  3  0  0  0  0  0  0
  185.8900  176.8850  136.8640 N   0  0  0  0  0  0  0  0  0  0  0  0
  183.7450  177.3530  138.0850 C   0  0  0  0  0  1  0  0  0  0  0  0
  189.3230  176.2710  136.9800 C   0  0  0  0  0  3  0  0  0  0  0  0
  186.0520  178.3150  138.6240 C   0  0  0  0  0  0  0  0  0  0  0  0
  189.2380  176.3410  143.7580 C   0  0  0  0  0  3  0  0  0  0  0  0
  185.7050  179.0280  139.6030 O   0  0  0  0  0  0  0  0  0  0  0  0
  190.3830  176.7940  144.2630 C   0  0  0  0  0  3  0  0  0  0  0  0
  187.4410  178.1650  138.0930 C   0  0  2  0  0  3  0  0  0  0  0  0
  190.8540  176.6700  138.8610 C   0  0  0  0  0  0  0  0  0  0  0  0
  185.1490  177.5930  137.8090 N   0  0  0  0  0  0  0  0  0  0  0  0
  187.1430  177.1870  136.9940 C   0  0  0  0  0  0  0  0  0  0  0  0
  190.6430  177.4590  141.2640 C   0  0  0  0  0  0  0  0  0  0  0  0
  188.4740  177.5480  139.0090 C   0  0  0  0  0  0  0  0  0  0  0  0
  188.6160  176.7160  142.4800 C   0  0  0  0  0  3  0  0  0  0  0  0
  188.1780  176.4230  136.3810 N   0  0  0  0  0  0  0  0  0  0  0  0
  191.3050  177.7610  143.6530 C   0  0  0  0  0  3  0  0  0  0  0  0
  191.4230  178.0460  142.3590 C   0  0  0  0  0  3  0  0  0  0  0  0
  189.2010  177.1910  141.3800 C   0  0  0  0  0  0  0  0  0  0  0  0
  193.9800  174.6730  136.7550 C   0  0  0  0  0  3  0  0  0  0  0  0
  191.9210  175.9700  138.1040 C   0  0  0  0  0  0  0  0  0  0  0  0
  191.7850  174.6220  137.7430 C   0  0  0  0  0  3  0  0  0  0  0  0
  192.8140  173.9700  137.0620 C   0  0  0  0  0  3  0  0  0  0  0  0
  194.1060  175.9770  137.1210 N   0  0  0  0  0  0  0  0  0  0  0  0
  193.1160  176.6290  137.7850 C   0  0  0  0  0  3  0  0  0  0  0  0
  1 15  1  0  0  0  0
  2 12  1  0  0  0  0
  2 16  2  0  0  0  0
  3 21  2  0  0  0  0
  4 14  2  0  0  0  0
  4 13  1  0  0  0  0
  6  2  1  0  0  0  0
  7  9  2  0  0  0  0
  8 10  1  0  0  0  0
 11 14  1  6  0  0  0
 11  7  1  0  0  0  0
 11 16  1  0  0  0  0
 12  1  2  0  0  0  0
 13  5  1  0  0  0  0
 13  7  1  0  0  0  0
 15 21  1  0  0  0  0
 15 20  2  0  0  0  0
 16  3  1  0  0  0  0
 17  8  2  0  0  0  0
 18  6  2  0  0  0  0
 18 14  1  0  0  0  0
 19 10  2  0  0  0  0
 20 19  1  0  0  0  0
 21 17  1  0  0  0  0
 22 25  2  0  0  0  0
 22 26  1  0  0  0  0
 23 12  1  0  0  0  0
 24 23  2  0  0  0  0
 25 24  1  0  0  0  0
 26 27  2  0  0  0  0
 27 23  1  0  0  0  0
M  END
>  <MODEL>
4

>  <REMARK>
 VINA RESULT:      -8.7      4.416      8.141
  Name = 
  1 active torsions:
  status: ('A' for Active; 'I' for Inactive)
    1  A    between atoms: C_9  and  C_15
                            x       y       z     vdW  Elec       q    Type
                         _______ _______ _______ _____ _____    ______ ____

>  <TORSDO>
F 1

$$$$
=
 OpenBabel11052413503D

 27 31  0  0  1  0  0  0  0  0999 V2000
  187.6970  177.3530  143.9610 C   0  0  0  0  0  3  0  0  0  0  0  0
  186.8600  178.1030  141.7060 C   0  0  0  0  0  0  0  0  0  0  0  0
  189.3250  177.6980  141.4010 C   0  0  0  0  0  3  0  0  0  0  0  0
  187.2990  178.8340  137.8000 N   0  0  0  0  0  0  0  0  0  0  0  0
  189.4310  178.9420  136.4750 C   0  0  0  0  0  1  0  0  0  0  0  0
  185.7150  178.6290  140.9020 C   0  0  0  0  0  3  0  0  0  0  0  0
  188.9810  177.4900  138.5320 C   0  0  0  0  0  0  0  0  0  0  0  0
  191.6790  178.9000  144.1120 C   0  0  0  0  0  3  0  0  0  0  0  0
  190.1060  176.9260  138.5810 O   0  0  0  0  0  0  0  0  0  0  0  0
  191.6600  178.2140  145.2530 C   0  0  0  0  0  3  0  0  0  0  0  0
  187.8510  177.2850  139.4880 C   0  0  2  0  0  3  0  0  0  0  0  0
  186.7080  177.9690  143.0510 C   0  0  0  0  0  0  0  0  0  0  0  0
  188.5760  178.3660  137.4970 N   0  0  0  0  0  0  0  0  0  0  0  0
  186.8790  178.2530  138.8790 C   0  0  0  0  0  0  0  0  0  0  0  0
  189.0250  177.3660  143.8950 C   0  0  0  0  0  0  0  0  0  0  0  0
  188.0760  177.6840  140.9290 C   0  0  0  0  0  0  0  0  0  0  0  0
  190.9100  178.6220  142.8900 C   0  0  0  0  0  3  0  0  0  0  0  0
  185.7470  178.7220  139.6050 N   0  0  0  0  0  0  0  0  0  0  0  0
  190.8500  177.0300  145.5660 C   0  0  0  0  0  3  0  0  0  0  0  0
  189.7100  176.6650  144.9860 C   0  0  0  0  0  3  0  0  0  0  0  0
  189.7540  177.9710  142.7680 C   0  0  0  0  0  0  0  0  0  0  0  0
  183.1190  179.1780  145.0120 C   0  0  0  0  0  3  0  0  0  0  0  0
  185.4450  178.3630  143.7230 C   0  0  0  0  0  0  0  0  0  0  0  0
  184.2660  178.5540  142.9900 C   0  0  0  0  0  3  0  0  0  0  0  0
  183.0960  178.9580  143.6340 C   0  0  0  0  0  3  0  0  0  0  0  0
  184.2720  179.0030  145.7120 N   0  0  0  0  0  0  0  0  0  0  0  0
  185.4220  178.6100  145.1030 C   0  0  0  0  0  3  0  0  0  0  0  0
  2 12  1  0  0  0  0
  3 21  2  0  0  0  0
  4 14  2  0  0  0  0
  5 13  1  0  0  0  0
  6  2  1  0  0  0  0
  7  9  2  0  0  0  0
  8 10  1  0  0  0  0
 10 19  2  0  0  0  0
 11  7  1  6  0  0  0
 11 16  1  0  0  0  0
 12 23  1  0  0  0  0
 12  1  2  0  0  0  0
 13  4  1  0  0  0  0
 13  7  1  0  0  0  0
 14 11  1  0  0  0  0
 14 18  1  0  0  0  0
 15  1  1  0  0  0  0
 15 20  2  0  0  0  0
 16  3  1  0  0  0  0
 16  2  2  0  0  0  0
 17  8  2  0  0  0  0
 18  6  2  0  0  0  0
 20 19  1  0  0  0  0
 21 17  1  0  0  0  0
 21 15  1  0  0  0  0
 22 26  1  0  0  0  0
 23 27  1  0  0  0  0
 24 25  1  0  0  0  0
 24 23  2  0  0  0  0
 25 22  2  0  0  0  0
 27 26  2  0  0  0  0
M  END
>  <MODEL>
5

>  <REMARK>
 VINA RESULT:      -8.6      2.909      5.505
  Name = 
  1 active torsions:
  status: ('A' for Active; 'I' for Inactive)
    1  A    between atoms: C_9  and  C_15
                            x       y       z     vdW  Elec       q    Type
                         _______ _______ _______ _____ _____    ______ ____

>  <TORSDO>
F 1

$$$$
=
 OpenBabel11052413503D

 27 31  0  0  1  0  0  0  0  0999 V2000
  186.5620  178.8430  144.3120 C   0  0  0  0  0  3  0  0  0  0  0  0
  188.2830  177.6750  142.8920 C   0  0  0  0  0  0  0  0  0  0  0  0
  186.4600  178.3590  141.2990 C   0  0  0  0  0  3  0  0  0  0  0  0
  189.7970  176.4600  139.3960 N   0  0  0  0  0  0  0  0  0  0  0  0
  188.6820  176.4530  137.1450 C   0  0  0  0  0  1  0  0  0  0  0  0
  189.5560  176.8900  142.8500 C   0  0  0  0  0  3  0  0  0  0  0  0
  188.2690  178.1090  139.0500 C   0  0  0  0  0  0  0  0  0  0  0  0
  182.8660  177.8830  142.3900 C   0  0  0  0  0  3  0  0  0  0  0  0
  187.4110  178.8200  138.4630 O   0  0  0  0  0  0  0  0  0  0  0  0
  182.4220  178.7150  143.3300 C   0  0  0  0  0  3  0  0  0  0  0  0
  188.7570  178.2940  140.4500 C   0  0  2  0  0  3  0  0  0  0  0  0
  187.7400  177.9760  144.1020 C   0  0  0  0  0  0  0  0  0  0  0  0
  188.9760  177.0490  138.4350 N   0  0  0  0  0  0  0  0  0  0  0  0
  189.7010  177.1280  140.5020 C   0  0  0  0  0  0  0  0  0  0  0  0
  185.4840  178.9990  143.5480 C   0  0  0  0  0  0  0  0  0  0  0  0
  187.7500  178.1380  141.5670 C   0  0  0  0  0  0  0  0  0  0  0  0
  184.1920  177.8780  141.7550 C   0  0  0  0  0  3  0  0  0  0  0  0
  190.1820  176.6190  141.7430 N   0  0  0  0  0  0  0  0  0  0  0  0
  183.1600  179.8120  143.9690 C   0  0  0  0  0  3  0  0  0  0  0  0
  184.4810  179.9340  144.0690 C   0  0  0  0  0  3  0  0  0  0  0  0
  185.3440  178.3430  142.2380 C   0  0  0  0  0  0  0  0  0  0  0  0
  189.6220  176.7230  147.7180 C   0  0  0  0  0  3  0  0  0  0  0  0
  188.3730  177.5160  145.3630 C   0  0  0  0  0  0  0  0  0  0  0  0
  187.6570  177.5020  146.5670 C   0  0  0  0  0  3  0  0  0  0  0  0
  188.2790  177.1000  147.7500 C   0  0  0  0  0  3  0  0  0  0  0  0
  190.3120  176.7530  146.5460 N   0  0  0  0  0  0  0  0  0  0  0  0
  189.7240  177.1420  145.3840 C   0  0  0  0  0  3  0  0  0  0  0  0
  2 12  2  0  0  0  0
  3 16  2  0  0  0  0
  3 21  1  0  0  0  0
  4 14  2  0  0  0  0
  5 13  1  0  0  0  0
  6  2  1  0  0  0  0
  8 10  2  0  0  0  0
  9  7  2  0  0  0  0
 10 19  1  0  0  0  0
 11  7  1  6  0  0  0
 11 14  1  0  0  0  0
 11 16  1  0  0  0  0
 12  1  1  0  0  0  0
 12 23  1  0  0  0  0
 13  7  1  0  0  0  0
 13  4  1  0  0  0  0
 14 18  1  0  0  0  0
 15 20  1  0  0  0  0
 15  1  2  0  0  0  0
 16  2  1  0  0  0  0
 17 21  2  0  0  0  0
 17  8  1  0  0  0  0
 18  6  2  0  0  0  0
 19 20  2  0  0  0  0
 21 15  1  0  0  0  0
 22 25  1  0  0  0  0
 23 27  2  0  0  0  0
 23 24  1  0  0  0  0
 24 25  2  0  0  0  0
 26 22  2  0  0  0  0
 27 26  1  0  0  0  0
M  END
>  <MODEL>
6

>  <REMARK>
 VINA RESULT:      -8.5      2.922      6.448
  Name = 
  1 active torsions:
  status: ('A' for Active; 'I' for Inactive)
    1  A    between atoms: C_9  and  C_15
                            x       y       z     vdW  Elec       q    Type
                         _______ _______ _______ _____ _____    ______ ____

>  <TORSDO>
F 1

$$$$
=
 OpenBabel11052413503D

 27 31  0  0  1  0  0  0  0  0999 V2000
  183.7770  178.8450  142.5900 C   0  0  0  0  0  3  0  0  0  0  0  0
  186.1260  178.1850  141.9640 C   0  0  0  0  0  0  0  0  0  0  0  0
  184.7930  177.9920  139.8390 C   0  0  0  0  0  3  0  0  0  0  0  0
  188.9660  177.1560  139.3440 N   0  0  0  0  0  0  0  0  0  0  0  0
  188.6850  176.4860  136.9390 C   0  0  0  0  0  1  0  0  0  0  0  0
  187.5170  177.8940  142.4310 C   0  0  0  0  0  3  0  0  0  0  0  0
  187.2150  178.1140  138.2540 C   0  0  0  0  0  0  0  0  0  0  0  0
  181.3480  176.4310  140.0310 C   0  0  0  0  0  3  0  0  0  0  0  0
  186.4200  178.4050  137.3210 O   0  0  0  0  0  0  0  0  0  0  0  0
  180.4020  177.1640  140.6140 C   0  0  0  0  0  3  0  0  0  0  0  0
  187.1510  178.6280  139.6570 C   0  0  2  0  0  3  0  0  0  0  0  0
  185.1610  178.4240  142.8920 C   0  0  0  0  0  0  0  0  0  0  0  0
  188.3610  177.3000  138.0960 N   0  0  0  0  0  0  0  0  0  0  0  0
  188.3280  177.8780  140.2100 C   0  0  0  0  0  0  0  0  0  0  0  0
  183.0050  178.5210  141.5560 C   0  0  0  0  0  0  0  0  0  0  0  0
  185.9330  178.2680  140.4770 C   0  0  0  0  0  0  0  0  0  0  0  0
  182.7460  176.8100  139.7820 C   0  0  0  0  0  3  0  0  0  0  0  0
  188.5150  177.7240  141.6140 N   0  0  0  0  0  0  0  0  0  0  0  0
  180.5390  178.5190  141.1640 C   0  0  0  0  0  3  0  0  0  0  0  0
  181.6600  179.1040  141.5760 C   0  0  0  0  0  3  0  0  0  0  0  0
  183.4920  177.7030  140.4330 C   0  0  0  0  0  0  0  0  0  0  0  0
  185.9440  178.2370  147.0810 C   0  0  0  0  0  3  0  0  0  0  0  0
  185.4640  178.3700  144.3440 C   0  0  0  0  0  0  0  0  0  0  0  0
  186.5020  177.5680  144.8370 C   0  0  0  0  0  3  0  0  0  0  0  0
  186.7490  177.5030  146.2090 C   0  0  0  0  0  3  0  0  0  0  0  0
  184.9300  179.0030  146.5930 N   0  0  0  0  0  0  0  0  0  0  0  0
  184.6740  179.0790  145.2610 C   0  0  0  0  0  3  0  0  0  0  0  0
  1 12  1  0  0  0  0
  2  6  1  0  0  0  0
  2 12  2  0  0  0  0
  3 21  1  0  0  0  0
  3 16  2  0  0  0  0
  4 14  2  0  0  0  0
  5 13  1  0  0  0  0
  8 10  2  0  0  0  0
  9  7  2  0  0  0  0
 10 19  1  0  0  0  0
 11  7  1  6  0  0  0
 11 14  1  0  0  0  0
 11 16  1  0  0  0  0
 12 23  1  0  0  0  0
 13  7  1  0  0  0  0
 13  4  1  0  0  0  0
 14 18  1  0  0  0  0
 15 20  1  0  0  0  0
 15  1  2  0  0  0  0
 16  2  1  0  0  0  0
 17  8  1  0  0  0  0
 17 21  2  0  0  0  0
 18  6  2  0  0  0  0
 19 20  2  0  0  0  0
 21 15  1  0  0  0  0
 23 24  2  0  0  0  0
 23 27  1  0  0  0  0
 24 25  1  0  0  0  0
 25 22  2  0  0  0  0
 26 22  1  0  0  0  0
 27 26  2  0  0  0  0
M  END
>  <MODEL>
7

>  <REMARK>
 VINA RESULT:      -8.3      3.281      6.490
  Name = 
  1 active torsions:
  status: ('A' for Active; 'I' for Inactive)
    1  A    between atoms: C_9  and  C_15
                            x       y       z     vdW  Elec       q    Type
                         _______ _______ _______ _____ _____    ______ ____

>  <TORSDO>
F 1

$$$$
=
 OpenBabel11052413503D

 27 31  0  0  1  0  0  0  0  0999 V2000
  189.4420  178.0010  140.2450 C   0  0  0  0  0  3  0  0  0  0  0  0
  186.9410  178.2230  140.0310 C   0  0  0  0  0  0  0  0  0  0  0  0
  187.3910  178.1210  142.5040 C   0  0  0  0  0  3  0  0  0  0  0  0
  183.2600  178.6920  141.5180 N   0  0  0  0  0  0  0  0  0  0  0  0
  182.5250  178.5200  143.9140 C   0  0  0  0  0  1  0  0  0  0  0  0
  185.7570  178.2610  139.1190 C   0  0  0  0  0  3  0  0  0  0  0  0
  184.8070  179.3050  143.0680 C   0  0  0  0  0  0  0  0  0  0  0  0
  189.9330  175.6080  143.7530 C   0  0  0  0  0  3  0  0  0  0  0  0
  185.3230  179.5470  144.1920 O   0  0  0  0  0  0  0  0  0  0  0  0
  191.2080  175.8790  143.4850 C   0  0  0  0  0  3  0  0  0  0  0  0
  185.4800  179.4510  141.7410 C   0  0  2  0  0  3  0  0  0  0  0  0
  188.1650  177.9530  139.5020 C   0  0  0  0  0  0  0  0  0  0  0  0
  183.4580  178.9230  142.8780 N   0  0  0  0  0  0  0  0  0  0  0  0
  184.3480  178.9810  140.8760 C   0  0  0  0  0  0  0  0  0  0  0  0
  189.6870  177.7020  141.5180 C   0  0  0  0  0  0  0  0  0  0  0  0
  186.6810  178.5740  141.4680 C   0  0  0  0  0  0  0  0  0  0  0  0
  188.7580  176.4300  143.4310 C   0  0  0  0  0  3  0  0  0  0  0  0
  184.5630  178.5810  139.5260 N   0  0  0  0  0  0  0  0  0  0  0  0
  191.7400  177.0560  142.7850 C   0  0  0  0  0  3  0  0  0  0  0  0
  191.0870  177.8400  141.9320 C   0  0  0  0  0  3  0  0  0  0  0  0
  188.6190  177.3350  142.4620 C   0  0  0  0  0  0  0  0  0  0  0  0
  188.7290  177.1610  135.3480 C   0  0  0  0  0  3  0  0  0  0  0  0
  188.3300  177.6710  138.0540 C   0  0  0  0  0  0  0  0  0  0  0  0
  188.0420  176.4040  137.5280 C   0  0  0  0  0  3  0  0  0  0  0  0
  188.2360  176.1460  136.1700 C   0  0  0  0  0  3  0  0  0  0  0  0
  189.0180  178.3830  135.8720 N   0  0  0  0  0  0  0  0  0  0  0  0
  188.8360  178.6530  137.1920 C   0  0  0  0  0  3  0  0  0  0  0  0
  1 15  1  0  0  0  0
  2 16  2  0  0  0  0
  4 13  1  0  0  0  0
  6 18  2  0  0  0  0
  6  2  1  0  0  0  0
  7  9  2  0  0  0  0
 10  8  1  0  0  0  0
 11 14  1  6  0  0  0
 11  7  1  0  0  0  0
 12  2  1  0  0  0  0
 12  1  2  0  0  0  0
 13  7  1  0  0  0  0
 13  5  1  0  0  0  0
 14  4  2  0  0  0  0
 15 20  2  0  0  0  0
 15 21  1  0  0  0  0
 16 11  1  0  0  0  0
 16  3  1  0  0  0  0
 17  8  2  0  0  0  0
 18 14  1  0  0  0  0
 19 10  2  0  0  0  0
 20 19  1  0  0  0  0
 21  3  2  0  0  0  0
 21 17  1  0  0  0  0
 22 26  2  0  0  0  0
 22 25  1  0  0  0  0
 23 12  1  0  0  0  0
 24 23  1  0  0  0  0
 25 24  2  0  0  0  0
 26 27  1  0  0  0  0
 27 23  2  0  0  0  0
M  END
>  <MODEL>
8

>  <REMARK>
 VINA RESULT:      -8.1      3.206      6.140
  Name = 
  1 active torsions:
  status: ('A' for Active; 'I' for Inactive)
    1  A    between atoms: C_9  and  C_15
                            x       y       z     vdW  Elec       q    Type
                         _______ _______ _______ _____ _____    ______ ____

>  <TORSDO>
F 1

$$$$
=
 OpenBabel11052413503D

 27 31  0  0  1  0  0  0  0  0999 V2000
  189.6640  178.4210  141.5440 C   0  0  0  0  0  3  0  0  0  0  0  0
  187.2310  178.3540  140.8940 C   0  0  0  0  0  0  0  0  0  0  0  0
  187.2450  178.4850  143.4060 C   0  0  0  0  0  3  0  0  0  0  0  0
  183.3180  178.5300  141.6930 N   0  0  0  0  0  0  0  0  0  0  0  0
  182.1910  178.4570  143.9370 C   0  0  0  0  0  1  0  0  0  0  0  0
  186.2280  178.1960  139.7960 C   0  0  0  0  0  3  0  0  0  0  0  0
  184.5030  179.4190  143.4180 C   0  0  0  0  0  0  0  0  0  0  0  0
  189.7520  176.3600  145.2890 C   0  0  0  0  0  3  0  0  0  0  0  0
  184.7870  179.7980  144.5850 O   0  0  0  0  0  0  0  0  0  0  0  0
  191.0240  176.7480  145.2140 C   0  0  0  0  0  3  0  0  0  0  0  0
  185.3830  179.5400  142.2150 C   0  0  2  0  0  3  0  0  0  0  0  0
  188.5490  178.1800  140.6040 C   0  0  0  0  0  0  0  0  0  0  0  0
  183.2510  178.8810  143.0400 N   0  0  0  0  0  0  0  0  0  0  0  0
  184.4700  178.8870  141.2190 C   0  0  0  0  0  0  0  0  0  0  0  0
  189.7090  178.2450  142.8610 C   0  0  0  0  0  0  0  0  0  0  0  0
  186.6900  178.7800  142.2280 C   0  0  0  0  0  0  0  0  0  0  0  0
  188.5800  177.0240  144.7000 C   0  0  0  0  0  3  0  0  0  0  0  0
  184.9560  178.4140  139.9660 N   0  0  0  0  0  0  0  0  0  0  0  0
  191.5570  177.9200  144.5090 C   0  0  0  0  0  3  0  0  0  0  0  0
  190.9940  178.5640  143.4900 C   0  0  0  0  0  3  0  0  0  0  0  0
  188.5300  177.8350  143.6430 C   0  0  0  0  0  0  0  0  0  0  0  0
  189.7560  177.0530  136.6710 C   0  0  0  0  0  3  0  0  0  0  0  0
  188.9920  177.8110  139.2370 C   0  0  0  0  0  0  0  0  0  0  0  0
  188.9470  178.7390  138.1880 C   0  0  0  0  0  3  0  0  0  0  0  0
  189.3340  178.3640  136.9010 C   0  0  0  0  0  3  0  0  0  0  0  0
  189.7830  176.1570  137.6940 N   0  0  0  0  0  0  0  0  0  0  0  0
  189.4090  176.5030  138.9540 C   0  0  0  0  0  3  0  0  0  0  0  0
  1 15  1  0  0  0  0
  2 16  2  0  0  0  0
  3 21  2  0  0  0  0
  4 13  1  0  0  0  0
  6 18  2  0  0  0  0
  6  2  1  0  0  0  0
  7  9  2  0  0  0  0
 10  8  1  0  0  0  0
 11 14  1  6  0  0  0
 11 16  1  0  0  0  0
 11  7  1  0  0  0  0
 12  2  1  0  0  0  0
 12  1  2  0  0  0  0
 13  7  1  0  0  0  0
 13  5  1  0  0  0  0
 14  4  2  0  0  0  0
 15 20  2  0  0  0  0
 15 21  1  0  0  0  0
 16  3  1  0  0  0  0
 17  8  2  0  0  0  0
 18 14  1  0  0  0  0
 19 10  2  0  0  0  0
 20 19  1  0  0  0  0
 21 17  1  0  0  0  0
 22 25  2  0  0  0  0
 22 26  1  0  0  0  0
 23 12  1  0  0  0  0
 24 23  2  0  0  0  0
 25 24  1  0  0  0  0
 26 27  2  0  0  0  0
 27 23  1  0  0  0  0
M  END
>  <MODEL>
9

>  <REMARK>
 VINA RESULT:      -7.9      3.031      6.230
  Name = 
  1 active torsions:
  status: ('A' for Active; 'I' for Inactive)
    1  A    between atoms: C_9  and  C_15
                            x       y       z     vdW  Elec       q    Type
                         _______ _______ _______ _____ _____    ______ ____

>  <TORSDO>
F 1

$$$$
