=
 OpenBabel11052415273D

 37 38  0  0  1  0  0  0  0  0999 V2000
  185.8620  177.9840  137.6360 C   0  0  1  0  0  3  0  0  0  0  0  0
  182.6760  180.0310  138.8870 C   0  0  0  0  0  2  0  0  0  0  0  0
  185.1290  178.7660  138.6340 N   0  0  0  0  0  0  0  0  0  0  0  0
  184.9560  179.2420  139.9380 C   0  0  1  0  0  3  0  0  0  0  0  0
  183.8880  179.5410  139.1010 C   0  0  0  0  0  0  0  0  0  0  0  0
  184.6740  178.0510  140.8440 C   0  0  0  0  0  2  0  0  0  0  0  0
  183.9340  178.4440  142.1190 C   0  0  0  0  0  2  0  0  0  0  0  0
  186.0970  177.7140  143.1340 C   0  0  0  0  0  3  0  0  0  0  0  0
  184.8360  178.3000  143.2950 C   0  0  0  0  0  0  0  0  0  0  0  0
  184.4270  178.7510  144.5600 C   0  0  0  0  0  3  0  0  0  0  0  0
  184.8730  179.0500  146.9140 O   0  0  0  0  0  1  0  0  0  0  0  0
  186.5350  178.0080  145.4970 C   0  0  0  0  0  3  0  0  0  0  0  0
  185.2760  178.6030  145.6600 C   0  0  0  0  0  0  0  0  0  0  0  0
  186.9460  177.5670  144.2350 C   0  0  0  0  0  3  0  0  0  0  0  0
  187.2770  177.6150  138.1480 C   0  0  2  0  0  3  0  0  0  0  0  0
  188.4050  177.7630  140.3020 C   0  0  0  0  0  0  0  0  0  0  0  0
  189.1350  177.1490  141.1940 C   0  0  0  0  0  3  0  0  0  0  0  0
  187.6660  178.3590  139.4070 C   0  0  0  0  0  3  0  0  0  0  0  0
  190.4960  177.0260  143.2420 C   0  0  0  0  0  1  0  0  0  0  0  0
  189.9700  177.9360  142.1480 C   0  0  0  0  0  2  0  0  0  0  0  0
  188.2790  177.7330  137.0680 N   0  0  0  0  0  0  0  0  0  0  0  0
  189.0270  178.9970  137.1130 C   0  0  0  0  0  1  0  0  0  0  0  0
  190.6130  176.9060  137.4630 C   0  0  0  0  0  1  0  0  0  0  0  0
  189.1820  176.5720  137.0360 C   0  0  0  0  0  2  0  0  0  0  0  0
  185.0330  176.7530  137.1510 C   0  0  2  0  0  0  0  0  0  0  0  0
  183.6200  177.2320  135.0610 C   0  0  0  0  0  1  0  0  0  0  0  0
  184.9330  176.7020  135.6120 C   0  0  0  0  0  2  0  0  0  0  0  0
  183.5880  176.8960  137.6570 C   0  0  0  0  0  2  0  0  0  0  0  0
  181.8090  175.1860  137.6040 C   0  0  0  0  0  1  0  0  0  0  0  0
  183.0360  175.6600  138.3610 C   0  0  2  0  0  3  0  0  0  0  0  0
  181.3250  176.3930  139.5840 C   0  0  0  0  0  1  0  0  0  0  0  0
  182.6650  176.0110  139.6610 O   0  0  0  0  0  0  0  0  0  0  0  0
  185.6440  175.4450  137.7070 C   0  0  0  0  0  2  0  0  0  0  0  0
  186.1330  174.4800  136.6280 C   0  0  0  0  0  2  0  0  0  0  0  0
  186.1450  173.0600  137.1580 C   0  0  0  0  0  2  0  0  0  0  0  0
  184.7380  172.6160  137.5140 C   0  0  0  0  0  2  0  0  0  0  0  0
  183.9200  172.4140  136.2540 C   0  0  0  0  0  1  0  0  0  0  0  0
  1 15  1  1  0  0  0
  1  3  1  0  0  0  0
  2  5  2  0  0  0  0
  3  5  1  0  0  0  0
  3  4  1  0  0  0  0
  4  6  1  1  0  0  0
  5  4  1  0  0  0  0
  6  7  1  0  0  0  0
  7  9  1  0  0  0  0
  8  9  2  0  0  0  0
  8 14  1  0  0  0  0
  9 10  1  0  0  0  0
 10 13  2  0  0  0  0
 12 13  1  0  0  0  0
 13 11  1  0  0  0  0
 14 12  2  0  0  0  0
 15 18  1  1  0  0  0
 16 17  2  0  0  0  0
 17 20  1  0  0  0  0
 18 16  2  0  0  0  0
 20 19  1  0  0  0  0
 21 22  1  0  0  0  0
 21 15  1  0  0  0  0
 24 21  1  0  0  0  0
 24 23  1  0  0  0  0
 25 27  1  6  0  0  0
 25  1  1  0  0  0  0
 25 28  1  0  0  0  0
 25 33  1  0  0  0  0
 26 27  1  0  0  0  0
 28 30  1  0  0  0  0
 30 29  1  6  0  0  0
 30 32  1  0  0  0  0
 31 32  1  0  0  0  0
 34 35  1  0  0  0  0
 34 33  1  0  0  0  0
 35 36  1  0  0  0  0
 37 36  1  0  0  0  0
M  END
>  <MODEL>
1

>  <REMARK>
 VINA RESULT:      -5.7      0.000      0.000
  Name = 
  18 active torsions:
  status: ('A' for Active; 'I' for Inactive)
    1  A    between atoms: N_1  and  C_23
    2  A    between atoms: N_1  and  C_36
    3  A    between atoms: C_3  and  C_32
    4  A    between atoms: C_6  and  C_31
    5  A    between atoms: C_9  and  C_13
    6  A    between atoms: C_9  and  C_32
    7  A    between atoms: N_10  and  C_29
    8  A    between atoms: C_13  and  C_20
    9  A    between atoms: C_14  and  C_37
   10  A    between atoms: C_16  and  C_20
   11  A    between atoms: C_16  and  C_24
   12  A    between atoms: C_20  and  C_25
   13  A    between atoms: C_20  and  C_29
   14  A    between atoms: C_24  and  O_28
   15  A    between atoms: C_26  and  C_34
   16  A    between atoms: C_29  and  C_36
   17  A    between atoms: C_31  and  C_37
   18  A    between atoms: C_33  and  C_36
                            x       y       z     vdW  Elec       q    Type
                         _______ _______ _______ _____ _____    ______ ____

>  <TORSDO>
F 18

$$$$
=
 OpenBabel11052415273D

 37 38  0  0  1  0  0  0  0  0999 V2000
  183.9070  176.5770  138.1260 C   0  0  1  0  0  3  0  0  0  0  0  0
  183.0030  180.3750  138.9420 C   0  0  0  0  0  2  0  0  0  0  0  0
  184.0810  177.8220  138.8770 N   0  0  0  0  0  0  0  0  0  0  0  0
  184.5940  178.5420  139.9610 C   0  0  1  0  0  3  0  0  0  0  0  0
  183.7100  179.2800  139.1830 C   0  0  0  0  0  0  0  0  0  0  0  0
  183.9500  178.0080  141.2330 C   0  0  0  0  0  2  0  0  0  0  0  0
  183.9290  179.0380  142.3590 C   0  0  0  0  0  2  0  0  0  0  0  0
  186.0120  177.9200  143.1650 C   0  0  0  0  0  3  0  0  0  0  0  0
  184.8270  178.6020  143.4630 C   0  0  0  0  0  0  0  0  0  0  0  0
  184.4900  178.8730  144.7990 C   0  0  0  0  0  3  0  0  0  0  0  0
  185.0020  178.7200  147.1540 O   0  0  0  0  0  1  0  0  0  0  0  0
  186.5160  177.7610  145.5270 C   0  0  0  0  0  3  0  0  0  0  0  0
  185.3340  178.4510  145.8300 C   0  0  0  0  0  0  0  0  0  0  0  0
  186.8560  177.4990  144.1960 C   0  0  0  0  0  3  0  0  0  0  0  0
  182.4510  176.4350  137.6150 C   0  0  2  0  0  3  0  0  0  0  0  0
  181.4640  178.2980  136.3940 C   0  0  0  0  0  0  0  0  0  0  0  0
  181.2330  178.8360  135.2260 C   0  0  0  0  0  3  0  0  0  0  0  0
  181.7120  177.7540  137.5540 C   0  0  0  0  0  3  0  0  0  0  0  0
  180.4570  181.1250  135.6930 C   0  0  0  0  0  1  0  0  0  0  0  0
  180.1040  179.7950  135.0540 C   0  0  0  0  0  2  0  0  0  0  0  0
  181.7240  175.3920  138.3680 N   0  0  0  0  0  0  0  0  0  0  0  0
  180.4640  175.8780  138.9500 C   0  0  0  0  0  1  0  0  0  0  0  0
  181.0430  174.4850  136.1320 C   0  0  0  0  0  1  0  0  0  0  0  0
  181.5140  174.1840  137.5570 C   0  0  0  0  0  2  0  0  0  0  0  0
  184.9810  176.4300  137.0010 C   0  0  2  0  0  0  0  0  0  0  0  0
  184.4770  177.1910  134.6010 C   0  0  0  0  0  1  0  0  0  0  0  0
  184.3390  176.0910  135.6400 C   0  0  0  0  0  2  0  0  0  0  0  0
  185.8950  175.2400  137.3380 C   0  0  0  0  0  2  0  0  0  0  0  0
  185.0210  172.9630  137.7110 C   0  0  0  0  0  1  0  0  0  0  0  0
  185.5140  173.9320  136.6520 C   0  0  2  0  0  3  0  0  0  0  0  0
  187.2300  172.5520  136.9810 C   0  0  0  0  0  1  0  0  0  0  0  0
  186.6490  173.4000  136.0370 O   0  0  0  0  0  0  0  0  0  0  0  0
  185.8310  177.7190  136.9040 C   0  0  0  0  0  2  0  0  0  0  0  0
  187.3380  177.4670  136.8660 C   0  0  0  0  0  2  0  0  0  0  0  0
  188.0880  178.6880  137.3600 C   0  0  0  0  0  2  0  0  0  0  0  0
  189.0300  178.3090  138.4880 C   0  0  0  0  0  2  0  0  0  0  0  0
  188.2720  178.2370  139.7990 C   0  0  0  0  0  1  0  0  0  0  0  0
  1 15  1  6  0  0  0
  1  3  1  0  0  0  0
  2  5  2  0  0  0  0
  3  5  1  0  0  0  0
  3  4  1  0  0  0  0
  4  6  1  1  0  0  0
  5  4  1  0  0  0  0
  6  7  1  0  0  0  0
  7  9  1  0  0  0  0
  8  9  2  0  0  0  0
  8 14  1  0  0  0  0
  9 10  1  0  0  0  0
 10 13  2  0  0  0  0
 12 13  1  0  0  0  0
 13 11  1  0  0  0  0
 14 12  2  0  0  0  0
 15 18  1  1  0  0  0
 15 21  1  0  0  0  0
 16 18  2  0  0  0  0
 17 16  2  0  0  0  0
 20 17  1  0  0  0  0
 20 19  1  0  0  0  0
 21 22  1  0  0  0  0
 23 24  1  0  0  0  0
 24 21  1  0  0  0  0
 25 27  1  6  0  0  0
 25 28  1  0  0  0  0
 25  1  1  0  0  0  0
 26 27  1  0  0  0  0
 30 28  1  0  0  0  0
 30 29  1  1  0  0  0
 32 30  1  0  0  0  0
 32 31  1  0  0  0  0
 33 25  1  0  0  0  0
 34 33  1  0  0  0  0
 34 35  1  0  0  0  0
 35 36  1  0  0  0  0
 36 37  1  0  0  0  0
M  END
>  <MODEL>
2

>  <REMARK>
 VINA RESULT:      -5.3      1.926      5.610
  Name = 
  18 active torsions:
  status: ('A' for Active; 'I' for Inactive)
    1  A    between atoms: N_1  and  C_23
    2  A    between atoms: N_1  and  C_36
    3  A    between atoms: C_3  and  C_32
    4  A    between atoms: C_6  and  C_31
    5  A    between atoms: C_9  and  C_13
    6  A    between atoms: C_9  and  C_32
    7  A    between atoms: N_10  and  C_29
    8  A    between atoms: C_13  and  C_20
    9  A    between atoms: C_14  and  C_37
   10  A    between atoms: C_16  and  C_20
   11  A    between atoms: C_16  and  C_24
   12  A    between atoms: C_20  and  C_25
   13  A    between atoms: C_20  and  C_29
   14  A    between atoms: C_24  and  O_28
   15  A    between atoms: C_26  and  C_34
   16  A    between atoms: C_29  and  C_36
   17  A    between atoms: C_31  and  C_37
   18  A    between atoms: C_33  and  C_36
                            x       y       z     vdW  Elec       q    Type
                         _______ _______ _______ _____ _____    ______ ____

>  <TORSDO>
F 18

$$$$
=
 OpenBabel11052415273D

 37 38  0  0  1  0  0  0  0  0999 V2000
  183.8550  177.4900  136.9250 C   0  0  1  0  0  3  0  0  0  0  0  0
  181.8060  180.3070  138.8680 C   0  0  0  0  0  2  0  0  0  0  0  0
  183.6950  178.4740  137.9980 N   0  0  0  0  0  0  0  0  0  0  0  0
  184.0860  179.0400  139.2160 C   0  0  1  0  0  3  0  0  0  0  0  0
  182.8840  179.5480  138.7390 C   0  0  0  0  0  0  0  0  0  0  0  0
  183.8880  177.9970  140.3080 C   0  0  0  0  0  2  0  0  0  0  0  0
  183.2470  178.5780  141.5660 C   0  0  0  0  0  2  0  0  0  0  0  0
  185.5170  178.0920  142.4880 C   0  0  0  0  0  3  0  0  0  0  0  0
  184.1860  178.4600  142.7150 C   0  0  0  0  0  0  0  0  0  0  0  0
  183.7410  178.7180  144.0220 C   0  0  0  0  0  3  0  0  0  0  0  0
  184.1880  178.8510  146.3910 O   0  0  0  0  0  1  0  0  0  0  0  0
  185.9570  178.2190  144.8650 C   0  0  0  0  0  3  0  0  0  0  0  0
  184.6270  178.5950  145.0960 C   0  0  0  0  0  0  0  0  0  0  0  0
  186.4020  177.9710  143.5630 C   0  0  0  0  0  3  0  0  0  0  0  0
  185.3490  177.1340  136.7160 C   0  0  2  0  0  3  0  0  0  0  0  0
  187.2770  177.5870  138.1340 C   0  0  0  0  0  0  0  0  0  0  0  0
  188.2530  177.0820  138.8410 C   0  0  0  0  0  3  0  0  0  0  0  0
  186.2900  178.0760  137.4350 C   0  0  0  0  0  3  0  0  0  0  0  0
  190.0520  177.5110  140.4650 C   0  0  0  0  0  1  0  0  0  0  0  0
  189.4750  177.8910  139.1150 C   0  0  0  0  0  2  0  0  0  0  0  0
  185.6610  176.9790  135.2800 N   0  0  0  0  0  0  0  0  0  0  0  0
  186.7210  177.8890  134.8220 C   0  0  0  0  0  1  0  0  0  0  0  0
  187.3460  175.1270  135.4130 C   0  0  0  0  0  1  0  0  0  0  0  0
  185.9640  175.5810  134.9380 C   0  0  0  0  0  2  0  0  0  0  0  0
  182.9410  176.2440  137.1480 C   0  0  2  0  0  0  0  0  0  0  0  0
  181.1750  175.9790  135.3030 C   0  0  0  0  0  1  0  0  0  0  0  0
  182.5480  175.5780  135.8130 C   0  0  0  0  0  2  0  0  0  0  0  0
  181.6200  176.7040  137.7870 C   0  0  0  0  0  2  0  0  0  0  0  0
  180.1350  174.9640  138.7120 C   0  0  0  0  0  1  0  0  0  0  0  0
  181.2330  175.9530  139.0570 C   0  0  2  0  0  3  0  0  0  0  0  0
  179.5950  176.2910  140.5270 C   0  0  0  0  0  1  0  0  0  0  0  0
  180.7460  176.8700  139.9910 O   0  0  0  0  0  0  0  0  0  0  0  0
  183.6390  175.2310  138.0860 C   0  0  0  0  0  2  0  0  0  0  0  0
  183.6690  173.8030  137.5440 C   0  0  0  0  0  2  0  0  0  0  0  0
  185.0640  173.2220  137.6670 C   0  0  0  0  0  2  0  0  0  0  0  0
  185.3250  172.2290  136.5500 C   0  0  0  0  0  2  0  0  0  0  0  0
  184.0160  171.6500  136.0510 C   0  0  0  0  0  1  0  0  0  0  0  0
  1 15  1  1  0  0  0
  1 25  1  0  0  0  0
  1  3  1  0  0  0  0
  3  5  1  0  0  0  0
  3  4  1  0  0  0  0
  4  6  1  1  0  0  0
  5  2  2  0  0  0  0
  5  4  1  0  0  0  0
  6  7  1  0  0  0  0
  7  9  1  0  0  0  0
  8  9  2  0  0  0  0
  8 14  1  0  0  0  0
  9 10  1  0  0  0  0
 10 13  2  0  0  0  0
 12 13  1  0  0  0  0
 13 11  1  0  0  0  0
 14 12  2  0  0  0  0
 15 18  1  6  0  0  0
 16 17  2  0  0  0  0
 17 20  1  0  0  0  0
 18 16  2  0  0  0  0
 20 19  1  0  0  0  0
 21 15  1  0  0  0  0
 22 21  1  0  0  0  0
 24 21  1  0  0  0  0
 24 23  1  0  0  0  0
 25 27  1  6  0  0  0
 25 28  1  0  0  0  0
 25 33  1  0  0  0  0
 26 27  1  0  0  0  0
 28 30  1  0  0  0  0
 30 29  1  6  0  0  0
 30 32  1  0  0  0  0
 32 31  1  0  0  0  0
 34 35  1  0  0  0  0
 34 33  1  0  0  0  0
 36 35  1  0  0  0  0
 37 36  1  0  0  0  0
M  END
>  <MODEL>
3

>  <REMARK>
 VINA RESULT:      -5.2      1.453      2.147
  Name = 
  18 active torsions:
  status: ('A' for Active; 'I' for Inactive)
    1  A    between atoms: N_1  and  C_23
    2  A    between atoms: N_1  and  C_36
    3  A    between atoms: C_3  and  C_32
    4  A    between atoms: C_6  and  C_31
    5  A    between atoms: C_9  and  C_13
    6  A    between atoms: C_9  and  C_32
    7  A    between atoms: N_10  and  C_29
    8  A    between atoms: C_13  and  C_20
    9  A    between atoms: C_14  and  C_37
   10  A    between atoms: C_16  and  C_20
   11  A    between atoms: C_16  and  C_24
   12  A    between atoms: C_20  and  C_25
   13  A    between atoms: C_20  and  C_29
   14  A    between atoms: C_24  and  O_28
   15  A    between atoms: C_26  and  C_34
   16  A    between atoms: C_29  and  C_36
   17  A    between atoms: C_31  and  C_37
   18  A    between atoms: C_33  and  C_36
                            x       y       z     vdW  Elec       q    Type
                         _______ _______ _______ _____ _____    ______ ____

>  <TORSDO>
F 18

$$$$
=
 OpenBabel11052415273D

 37 38  0  0  1  0  0  0  0  0999 V2000
  184.9320  176.9270  137.6300 C   0  0  1  0  0  3  0  0  0  0  0  0
  181.9560  179.3160  138.7900 C   0  0  0  0  0  2  0  0  0  0  0  0
  184.4120  178.1660  138.2130 N   0  0  0  0  0  0  0  0  0  0  0  0
  184.5850  179.3570  138.9260 C   0  0  1  0  0  3  0  0  0  0  0  0
  183.2520  179.0660  138.6640 C   0  0  0  0  0  0  0  0  0  0  0  0
  184.9920  179.0020  140.3500 C   0  0  0  0  0  2  0  0  0  0  0  0
  183.8250  178.4750  141.1810 C   0  0  0  0  0  2  0  0  0  0  0  0
  183.1830  178.9090  143.5550 C   0  0  0  0  0  3  0  0  0  0  0  0
  184.1640  178.5360  142.6290 C   0  0  0  0  0  0  0  0  0  0  0  0
  185.4600  178.2210  143.0670 C   0  0  0  0  0  3  0  0  0  0  0  0
  187.0550  177.9770  144.8640 O   0  0  0  0  0  1  0  0  0  0  0  0
  184.7880  178.6710  145.3520 C   0  0  0  0  0  3  0  0  0  0  0  0
  185.7710  178.2900  144.4280 C   0  0  0  0  0  0  0  0  0  0  0  0
  183.4950  178.9770  144.9160 C   0  0  0  0  0  3  0  0  0  0  0  0
  183.9620  176.3660  136.5600 C   0  0  2  0  0  3  0  0  0  0  0  0
  182.3430  177.7600  135.3910 C   0  0  0  0  0  0  0  0  0  0  0  0
  181.0910  178.1170  135.2790 C   0  0  0  0  0  3  0  0  0  0  0  0
  183.5870  177.3840  135.5060 C   0  0  0  0  0  3  0  0  0  0  0  0
  180.3210  180.4040  135.7650 C   0  0  0  0  0  1  0  0  0  0  0  0
  180.7400  179.4350  134.6760 C   0  0  0  0  0  2  0  0  0  0  0  0
  182.7910  175.7220  137.1930 N   0  0  0  0  0  0  0  0  0  0  0  0
  182.3540  174.5090  136.4880 C   0  0  0  0  0  1  0  0  0  0  0  0
  181.7800  175.6990  139.4870 C   0  0  0  0  0  1  0  0  0  0  0  0
  183.0210  175.4640  138.6220 C   0  0  0  0  0  2  0  0  0  0  0  0
  186.3950  177.1070  137.1140 C   0  0  2  0  0  0  0  0  0  0  0  0
  187.0770  177.8350  134.7480 C   0  0  0  0  0  1  0  0  0  0  0  0
  186.5020  178.2560  136.0900 C   0  0  0  0  0  2  0  0  0  0  0  0
  186.8160  175.8350  136.3580 C   0  0  0  0  0  2  0  0  0  0  0  0
  188.7410  174.3150  136.6190 C   0  0  0  0  0  1  0  0  0  0  0  0
  187.4230  174.7450  137.2360 C   0  0  2  0  0  3  0  0  0  0  0  0
  187.3350  172.5350  136.9750 C   0  0  0  0  0  1  0  0  0  0  0  0
  186.5520  173.6540  137.2640 O   0  0  0  0  0  0  0  0  0  0  0  0
  187.3570  177.3370  138.3040 C   0  0  0  0  0  2  0  0  0  0  0  0
  188.4790  178.3320  138.0110 C   0  0  0  0  0  2  0  0  0  0  0  0
  189.6400  178.1090  138.9590 C   0  0  0  0  0  2  0  0  0  0  0  0
  189.2860  177.0540  139.9910 C   0  0  0  0  0  2  0  0  0  0  0  0
  189.3870  177.6350  141.3870 C   0  0  0  0  0  1  0  0  0  0  0  0
  1 15  1  6  0  0  0
  1  3  1  0  0  0  0
  3  5  1  0  0  0  0
  3  4  1  0  0  0  0
  4  6  1  1  0  0  0
  5  2  2  0  0  0  0
  5  4  1  0  0  0  0
  6  7  1  0  0  0  0
  7  9  1  0  0  0  0
  8 14  1  0  0  0  0
  9 10  1  0  0  0  0
  9  8  2  0  0  0  0
 10 13  2  0  0  0  0
 13 11  1  0  0  0  0
 13 12  1  0  0  0  0
 14 12  2  0  0  0  0
 15 18  1  6  0  0  0
 15 21  1  0  0  0  0
 16 18  2  0  0  0  0
 17 16  2  0  0  0  0
 20 17  1  0  0  0  0
 20 19  1  0  0  0  0
 21 24  1  0  0  0  0
 22 21  1  0  0  0  0
 24 23  1  0  0  0  0
 25 27  1  6  0  0  0
 25  1  1  0  0  0  0
 25 33  1  0  0  0  0
 26 27  1  0  0  0  0
 28 25  1  0  0  0  0
 28 30  1  0  0  0  0
 30 29  1  6  0  0  0
 30 32  1  0  0  0  0
 31 32  1  0  0  0  0
 34 33  1  0  0  0  0
 34 35  1  0  0  0  0
 35 36  1  0  0  0  0
 36 37  1  0  0  0  0
M  END
>  <MODEL>
4

>  <REMARK>
 VINA RESULT:      -5.1      1.922      5.669
  Name = 
  18 active torsions:
  status: ('A' for Active; 'I' for Inactive)
    1  A    between atoms: N_1  and  C_23
    2  A    between atoms: N_1  and  C_36
    3  A    between atoms: C_3  and  C_32
    4  A    between atoms: C_6  and  C_31
    5  A    between atoms: C_9  and  C_13
    6  A    between atoms: C_9  and  C_32
    7  A    between atoms: N_10  and  C_29
    8  A    between atoms: C_13  and  C_20
    9  A    between atoms: C_14  and  C_37
   10  A    between atoms: C_16  and  C_20
   11  A    between atoms: C_16  and  C_24
   12  A    between atoms: C_20  and  C_25
   13  A    between atoms: C_20  and  C_29
   14  A    between atoms: C_24  and  O_28
   15  A    between atoms: C_26  and  C_34
   16  A    between atoms: C_29  and  C_36
   17  A    between atoms: C_31  and  C_37
   18  A    between atoms: C_33  and  C_36
                            x       y       z     vdW  Elec       q    Type
                         _______ _______ _______ _____ _____    ______ ____

>  <TORSDO>
F 18

$$$$
=
 OpenBabel11052415273D

 37 38  0  0  1  0  0  0  0  0999 V2000
  188.2470  176.4750  137.8300 C   0  0  1  0  0  3  0  0  0  0  0  0
  186.9160  178.6220  140.9170 C   0  0  0  0  0  2  0  0  0  0  0  0
  188.4480  177.3370  138.9970 N   0  0  0  0  0  0  0  0  0  0  0  0
  189.2690  177.9160  139.9710 C   0  0  1  0  0  3  0  0  0  0  0  0
  187.9160  178.1480  140.1870 C   0  0  0  0  0  0  0  0  0  0  0  0
  189.8190  176.8020  140.8510 C   0  0  0  0  0  2  0  0  0  0  0  0
  190.9600  177.2720  141.7490 C   0  0  0  0  0  2  0  0  0  0  0  0
  189.1780  177.3930  143.4960 C   0  0  0  0  0  3  0  0  0  0  0  0
  190.5320  177.2380  143.1740 C   0  0  0  0  0  0  0  0  0  0  0  0
  191.4790  177.0520  144.1940 C   0  0  0  0  0  3  0  0  0  0  0  0
  192.0070  176.8440  146.5410 O   0  0  0  0  0  1  0  0  0  0  0  0
  189.7140  177.1930  145.8480 C   0  0  0  0  0  3  0  0  0  0  0  0
  191.0700  177.0310  145.5300 C   0  0  0  0  0  0  0  0  0  0  0  0
  188.7700  177.3710  144.8320 C   0  0  0  0  0  3  0  0  0  0  0  0
  187.0720  176.9850  136.9590 C   0  0  2  0  0  3  0  0  0  0  0  0
  185.2330  178.2890  137.8830 C   0  0  0  0  0  0  0  0  0  0  0  0
  183.9900  178.2890  138.2820 C   0  0  0  0  0  3  0  0  0  0  0  0
  186.4710  178.2770  137.4690 C   0  0  0  0  0  3  0  0  0  0  0  0
  182.1900  179.8920  138.7830 C   0  0  0  0  0  1  0  0  0  0  0  0
  183.5140  179.3190  139.2500 C   0  0  0  0  0  2  0  0  0  0  0  0
  186.0700  175.9200  136.7450 N   0  0  0  0  0  0  0  0  0  0  0  0
  185.9290  175.5400  135.3320 C   0  0  0  0  0  1  0  0  0  0  0  0
  185.3160  173.6210  137.4040 C   0  0  0  0  0  1  0  0  0  0  0  0
  186.3320  174.7490  137.5950 C   0  0  0  0  0  2  0  0  0  0  0  0
  189.5740  176.2720  137.0320 C   0  0  2  0  0  0  0  0  0  0  0  0
  189.8060  177.0420  134.5940 C   0  0  0  0  0  1  0  0  0  0  0  0
  189.8400  177.4400  136.0590 C   0  0  0  0  0  2  0  0  0  0  0  0
  189.4370  175.0200  136.1500 C   0  0  0  0  0  2  0  0  0  0  0  0
  190.9210  173.0860  135.7610 C   0  0  0  0  0  1  0  0  0  0  0  0
  189.9960  173.7420  136.7690 C   0  0  2  0  0  3  0  0  0  0  0  0
  188.5210  172.3730  135.8140 C   0  0  0  0  0  1  0  0  0  0  0  0
  188.9350  172.8770  137.0480 O   0  0  0  0  0  0  0  0  0  0  0  0
  190.7600  176.0850  138.0070 C   0  0  0  0  0  2  0  0  0  0  0  0
  192.1140  176.4840  137.4210 C   0  0  0  0  0  2  0  0  0  0  0  0
  193.2330  175.7520  138.1350 C   0  0  0  0  0  2  0  0  0  0  0  0
  194.2840  175.2940  137.1400 C   0  0  0  0  0  2  0  0  0  0  0  0
  193.7930  175.5140  135.7230 C   0  0  0  0  0  1  0  0  0  0  0  0
  1 15  1  6  0  0  0
  1  3  1  0  0  0  0
  3  4  1  0  0  0  0
  3  5  1  0  0  0  0
  4  5  1  0  0  0  0
  4  6  1  1  0  0  0
  5  2  2  0  0  0  0
  6  7  1  0  0  0  0
  7  9  1  0  0  0  0
  8 14  1  0  0  0  0
  9  8  2  0  0  0  0
  9 10  1  0  0  0  0
 10 13  2  0  0  0  0
 13 12  1  0  0  0  0
 13 11  1  0  0  0  0
 14 12  2  0  0  0  0
 15 18  1  1  0  0  0
 16 17  2  0  0  0  0
 17 20  1  0  0  0  0
 18 16  2  0  0  0  0
 19 20  1  0  0  0  0
 21 15  1  0  0  0  0
 21 24  1  0  0  0  0
 22 21  1  0  0  0  0
 23 24  1  0  0  0  0
 25 27  1  6  0  0  0
 25  1  1  0  0  0  0
 25 33  1  0  0  0  0
 26 27  1  0  0  0  0
 28 30  1  0  0  0  0
 28 25  1  0  0  0  0
 30 29  1  6  0  0  0
 30 32  1  0  0  0  0
 31 32  1  0  0  0  0
 34 33  1  0  0  0  0
 34 35  1  0  0  0  0
 36 35  1  0  0  0  0
 37 36  1  0  0  0  0
M  END
>  <MODEL>
5

>  <REMARK>
 VINA RESULT:      -4.9      2.736      6.147
  Name = 
  18 active torsions:
  status: ('A' for Active; 'I' for Inactive)
    1  A    between atoms: N_1  and  C_23
    2  A    between atoms: N_1  and  C_36
    3  A    between atoms: C_3  and  C_32
    4  A    between atoms: C_6  and  C_31
    5  A    between atoms: C_9  and  C_13
    6  A    between atoms: C_9  and  C_32
    7  A    between atoms: N_10  and  C_29
    8  A    between atoms: C_13  and  C_20
    9  A    between atoms: C_14  and  C_37
   10  A    between atoms: C_16  and  C_20
   11  A    between atoms: C_16  and  C_24
   12  A    between atoms: C_20  and  C_25
   13  A    between atoms: C_20  and  C_29
   14  A    between atoms: C_24  and  O_28
   15  A    between atoms: C_26  and  C_34
   16  A    between atoms: C_29  and  C_36
   17  A    between atoms: C_31  and  C_37
   18  A    between atoms: C_33  and  C_36
                            x       y       z     vdW  Elec       q    Type
                         _______ _______ _______ _____ _____    ______ ____

>  <TORSDO>
F 18

$$$$
=
 OpenBabel11052415273D

 37 38  0  0  1  0  0  0  0  0999 V2000
  185.1640  177.7070  137.4120 C   0  0  1  0  0  3  0  0  0  0  0  0
  182.5120  180.2760  138.9210 C   0  0  0  0  0  2  0  0  0  0  0  0
  184.6920  178.6300  138.4460 N   0  0  0  0  0  0  0  0  0  0  0  0
  184.7600  179.1730  139.7330 C   0  0  1  0  0  3  0  0  0  0  0  0
  183.6530  179.6080  139.0150 C   0  0  0  0  0  0  0  0  0  0  0  0
  184.4170  178.0750  140.7300 C   0  0  0  0  0  2  0  0  0  0  0  0
  183.7880  178.6180  142.0100 C   0  0  0  0  0  2  0  0  0  0  0  0
  185.9620  177.8190  142.9440 C   0  0  0  0  0  3  0  0  0  0  0  0
  184.7090  178.4050  143.1590 C   0  0  0  0  0  0  0  0  0  0  0  0
  184.3260  178.7890  144.4550 C   0  0  0  0  0  3  0  0  0  0  0  0
  184.8170  178.9580  146.8130 O   0  0  0  0  0  1  0  0  0  0  0  0
  186.4450  177.9820  145.3110 C   0  0  0  0  0  3  0  0  0  0  0  0
  185.1940  178.5760  145.5290 C   0  0  0  0  0  0  0  0  0  0  0  0
  186.8290  177.6070  144.0200 C   0  0  0  0  0  3  0  0  0  0  0  0
  186.5980  177.2090  137.7250 C   0  0  2  0  0  3  0  0  0  0  0  0
  188.1450  177.6340  139.5570 C   0  0  0  0  0  0  0  0  0  0  0  0
  188.9150  177.1160  140.4760 C   0  0  0  0  0  3  0  0  0  0  0  0
  187.3630  178.1380  138.6420 C   0  0  0  0  0  3  0  0  0  0  0  0
  189.9110  178.0310  142.5330 C   0  0  0  0  0  1  0  0  0  0  0  0
  190.0550  177.9030  141.0290 C   0  0  0  0  0  2  0  0  0  0  0  0
  187.3280  176.8830  136.4820 N   0  0  0  0  0  0  0  0  0  0  0  0
  187.6910  178.0740  135.7000 C   0  0  0  0  0  1  0  0  0  0  0  0
  189.8200  176.6640  136.2950 C   0  0  0  0  0  1  0  0  0  0  0  0
  188.5000  176.0340  136.7470 C   0  0  0  0  0  2  0  0  0  0  0  0
  184.1420  176.5530  137.1640 C   0  0  2  0  0  0  0  0  0  0  0  0
  182.4360  175.8140  138.9350 C   0  0  0  0  0  1  0  0  0  0  0  0
  182.7920  176.8260  137.8590 C   0  0  0  0  0  2  0  0  0  0  0  0
  184.6840  175.2620  137.8010 C   0  0  0  0  0  2  0  0  0  0  0  0
  183.9240  173.0080  137.1460 C   0  0  0  0  0  1  0  0  0  0  0  0
  184.9100  174.1150  136.8200 C   0  0  2  0  0  3  0  0  0  0  0  0
  186.2230  172.3670  136.3980 C   0  0  0  0  0  1  0  0  0  0  0  0
  186.2100  173.6330  136.9840 O   0  0  0  0  0  0  0  0  0  0  0  0
  183.9460  176.3310  135.6450 C   0  0  0  0  0  2  0  0  0  0  0  0
  182.5230  176.6020  135.1580 C   0  0  0  0  0  2  0  0  0  0  0  0
  182.4180  178.0050  134.5940 C   0  0  0  0  0  2  0  0  0  0  0  0
  180.9800  178.4880  134.6390 C   0  0  0  0  0  2  0  0  0  0  0  0
  180.7730  179.4030  135.8290 C   0  0  0  0  0  1  0  0  0  0  0  0
  1 15  1  1  0  0  0
  1  3  1  0  0  0  0
  2  5  2  0  0  0  0
  3  5  1  0  0  0  0
  3  4  1  0  0  0  0
  4  6  1  1  0  0  0
  5  4  1  0  0  0  0
  6  7  1  0  0  0  0
  7  9  1  0  0  0  0
  8  9  2  0  0  0  0
  8 14  1  0  0  0  0
  9 10  1  0  0  0  0
 10 13  2  0  0  0  0
 12 13  1  0  0  0  0
 13 11  1  0  0  0  0
 14 12  2  0  0  0  0
 15 18  1  6  0  0  0
 16 17  2  0  0  0  0
 17 20  1  0  0  0  0
 18 16  2  0  0  0  0
 20 19  1  0  0  0  0
 21 24  1  0  0  0  0
 21 15  1  0  0  0  0
 22 21  1  0  0  0  0
 23 24  1  0  0  0  0
 25 33  1  6  0  0  0
 25  1  1  0  0  0  0
 25 28  1  0  0  0  0
 25 27  1  0  0  0  0
 27 26  1  0  0  0  0
 30 32  1  0  0  0  0
 30 29  1  1  0  0  0
 30 28  1  0  0  0  0
 31 32  1  0  0  0  0
 34 33  1  0  0  0  0
 35 36  1  0  0  0  0
 35 34  1  0  0  0  0
 36 37  1  0  0  0  0
M  END
>  <MODEL>
6

>  <REMARK>
 VINA RESULT:      -4.9      1.405      2.993
  Name = 
  18 active torsions:
  status: ('A' for Active; 'I' for Inactive)
    1  A    between atoms: N_1  and  C_23
    2  A    between atoms: N_1  and  C_36
    3  A    between atoms: C_3  and  C_32
    4  A    between atoms: C_6  and  C_31
    5  A    between atoms: C_9  and  C_13
    6  A    between atoms: C_9  and  C_32
    7  A    between atoms: N_10  and  C_29
    8  A    between atoms: C_13  and  C_20
    9  A    between atoms: C_14  and  C_37
   10  A    between atoms: C_16  and  C_20
   11  A    between atoms: C_16  and  C_24
   12  A    between atoms: C_20  and  C_25
   13  A    between atoms: C_20  and  C_29
   14  A    between atoms: C_24  and  O_28
   15  A    between atoms: C_26  and  C_34
   16  A    between atoms: C_29  and  C_36
   17  A    between atoms: C_31  and  C_37
   18  A    between atoms: C_33  and  C_36
                            x       y       z     vdW  Elec       q    Type
                         _______ _______ _______ _____ _____    ______ ____

>  <TORSDO>
F 18

$$$$
=
 OpenBabel11052415273D

 37 38  0  0  1  0  0  0  0  0999 V2000
  184.7750  177.5750  137.3140 C   0  0  1  0  0  3  0  0  0  0  0  0
  182.6760  180.4930  139.0440 C   0  0  0  0  0  2  0  0  0  0  0  0
  184.5570  178.5730  138.3640 N   0  0  0  0  0  0  0  0  0  0  0  0
  184.8560  179.1300  139.6120 C   0  0  1  0  0  3  0  0  0  0  0  0
  183.7280  179.6870  139.0200 C   0  0  0  0  0  0  0  0  0  0  0  0
  184.5090  178.1060  140.6840 C   0  0  0  0  0  2  0  0  0  0  0  0
  183.5350  178.6510  141.7250 C   0  0  0  0  0  2  0  0  0  0  0  0
  183.4180  179.0070  144.1940 C   0  0  0  0  0  3  0  0  0  0  0  0
  184.1660  178.6300  143.0720 C   0  0  0  0  0  0  0  0  0  0  0  0
  185.5050  178.2340  143.2210 C   0  0  0  0  0  3  0  0  0  0  0  0
  187.4180  177.8340  144.6390 O   0  0  0  0  0  1  0  0  0  0  0  0
  185.3420  178.6120  145.6090 C   0  0  0  0  0  3  0  0  0  0  0  0
  186.0920  178.2270  144.4890 C   0  0  0  0  0  0  0  0  0  0  0  0
  184.0060  178.9980  145.4620 C   0  0  0  0  0  3  0  0  0  0  0  0
  186.2200  177.0180  137.3690 C   0  0  2  0  0  3  0  0  0  0  0  0
  188.1050  177.5010  138.8350 C   0  0  0  0  0  0  0  0  0  0  0  0
  188.9980  177.0180  139.6560 C   0  0  0  0  0  3  0  0  0  0  0  0
  187.1990  177.9700  138.0210 C   0  0  0  0  0  3  0  0  0  0  0  0
  191.4350  176.9930  139.3090 C   0  0  0  0  0  1  0  0  0  0  0  0
  190.2680  177.7600  139.9020 C   0  0  0  0  0  2  0  0  0  0  0  0
  186.6580  176.5510  136.0370 N   0  0  0  0  0  0  0  0  0  0  0  0
  187.0040  177.6530  135.1280 C   0  0  0  0  0  1  0  0  0  0  0  0
  187.3790  174.1910  135.5890 C   0  0  0  0  0  1  0  0  0  0  0  0
  187.7500  175.5710  136.1370 C   0  0  0  0  0  2  0  0  0  0  0  0
  183.6770  176.4650  137.3420 C   0  0  2  0  0  0  0  0  0  0  0  0
  183.9810  174.0060  136.6680 C   0  0  0  0  0  1  0  0  0  0  0  0
  184.2680  175.0850  137.6980 C   0  0  0  0  0  2  0  0  0  0  0  0
  183.0880  176.3120  135.9290 C   0  0  0  0  0  2  0  0  0  0  0  0
  180.8460  176.0040  134.9470 C   0  0  0  0  0  1  0  0  0  0  0  0
  181.7200  176.9590  135.7380 C   0  0  2  0  0  3  0  0  0  0  0  0
  181.0300  179.0730  135.6100 C   0  0  0  0  0  1  0  0  0  0  0  0
  181.8790  178.1420  135.0120 O   0  0  0  0  0  0  0  0  0  0  0  0
  182.5500  176.8530  138.3280 C   0  0  0  0  0  2  0  0  0  0  0  0
  182.1210  175.7180  139.2580 C   0  0  0  0  0  2  0  0  0  0  0  0
  180.6700  175.3550  139.0100 C   0  0  0  0  0  2  0  0  0  0  0  0
  180.5760  174.1190  138.1350 C   0  0  0  0  0  2  0  0  0  0  0  0
  179.2120  173.4760  138.2840 C   0  0  0  0  0  1  0  0  0  0  0  0
  1 25  1  0  0  0  0
  1 15  1  1  0  0  0
  1  3  1  0  0  0  0
  3  5  1  0  0  0  0
  3  4  1  0  0  0  0
  4  6  1  1  0  0  0
  5  2  2  0  0  0  0
  5  4  1  0  0  0  0
  6  7  1  0  0  0  0
  7  9  1  0  0  0  0
  8 14  1  0  0  0  0
  9 10  1  0  0  0  0
  9  8  2  0  0  0  0
 10 13  2  0  0  0  0
 13 11  1  0  0  0  0
 13 12  1  0  0  0  0
 14 12  2  0  0  0  0
 15 18  1  6  0  0  0
 16 17  2  0  0  0  0
 17 20  1  0  0  0  0
 18 16  2  0  0  0  0
 19 20  1  0  0  0  0
 21 24  1  0  0  0  0
 21 15  1  0  0  0  0
 22 21  1  0  0  0  0
 23 24  1  0  0  0  0
 25 28  1  6  0  0  0
 25 27  1  0  0  0  0
 25 33  1  0  0  0  0
 26 27  1  0  0  0  0
 30 29  1  6  0  0  0
 30 28  1  0  0  0  0
 32 31  1  0  0  0  0
 32 30  1  0  0  0  0
 33 34  1  0  0  0  0
 35 34  1  0  0  0  0
 36 37  1  0  0  0  0
 36 35  1  0  0  0  0
M  END
>  <MODEL>
7

>  <REMARK>
 VINA RESULT:      -4.7      1.820      3.004
  Name = 
  18 active torsions:
  status: ('A' for Active; 'I' for Inactive)
    1  A    between atoms: N_1  and  C_23
    2  A    between atoms: N_1  and  C_36
    3  A    between atoms: C_3  and  C_32
    4  A    between atoms: C_6  and  C_31
    5  A    between atoms: C_9  and  C_13
    6  A    between atoms: C_9  and  C_32
    7  A    between atoms: N_10  and  C_29
    8  A    between atoms: C_13  and  C_20
    9  A    between atoms: C_14  and  C_37
   10  A    between atoms: C_16  and  C_20
   11  A    between atoms: C_16  and  C_24
   12  A    between atoms: C_20  and  C_25
   13  A    between atoms: C_20  and  C_29
   14  A    between atoms: C_24  and  O_28
   15  A    between atoms: C_26  and  C_34
   16  A    between atoms: C_29  and  C_36
   17  A    between atoms: C_31  and  C_37
   18  A    between atoms: C_33  and  C_36
                            x       y       z     vdW  Elec       q    Type
                         _______ _______ _______ _____ _____    ______ ____

>  <TORSDO>
F 18

$$$$
=
 OpenBabel11052415273D

 37 38  0  0  1  0  0  0  0  0999 V2000
  183.3660  177.2430  137.7300 C   0  0  1  0  0  3  0  0  0  0  0  0
  181.2820  179.7260  140.0540 C   0  0  0  0  0  2  0  0  0  0  0  0
  183.2600  178.2700  138.7690 N   0  0  0  0  0  0  0  0  0  0  0  0
  183.8080  179.0250  139.8120 C   0  0  1  0  0  3  0  0  0  0  0  0
  182.4390  179.2100  139.6630 C   0  0  0  0  0  0  0  0  0  0  0  0
  184.1480  178.0770  140.9550 C   0  0  0  0  0  2  0  0  0  0  0  0
  184.1870  178.7790  142.3090 C   0  0  0  0  0  2  0  0  0  0  0  0
  185.2890  178.2540  144.4890 C   0  0  0  0  0  3  0  0  0  0  0  0
  185.3630  178.3110  143.0920 C   0  0  0  0  0  0  0  0  0  0  0  0
  186.5430  177.9270  142.4350 C   0  0  0  0  0  3  0  0  0  0  0  0
  188.8150  177.1150  142.5290 O   0  0  0  0  0  1  0  0  0  0  0  0
  187.5700  177.4490  144.5770 C   0  0  0  0  0  3  0  0  0  0  0  0
  187.6460  177.4980  143.1790 C   0  0  0  0  0  0  0  0  0  0  0  0
  186.3920  177.8240  145.2310 C   0  0  0  0  0  3  0  0  0  0  0  0
  184.8480  176.8790  137.4580 C   0  0  2  0  0  3  0  0  0  0  0  0
  186.8870  177.8980  138.3170 C   0  0  0  0  0  0  0  0  0  0  0  0
  187.9770  177.7320  139.0180 C   0  0  0  0  0  3  0  0  0  0  0  0
  185.7890  178.0520  137.6290 C   0  0  0  0  0  3  0  0  0  0  0  0
  189.0580  179.2640  137.4230 C   0  0  0  0  0  1  0  0  0  0  0  0
  189.1540  178.6190  138.7930 C   0  0  0  0  0  2  0  0  0  0  0  0
  184.9950  176.1980  136.1540 N   0  0  0  0  0  0  0  0  0  0  0  0
  184.8710  177.1130  135.0110 C   0  0  0  0  0  1  0  0  0  0  0  0
  186.0390  174.0070  135.5230 C   0  0  0  0  0  1  0  0  0  0  0  0
  186.2380  175.4160  136.0880 C   0  0  0  0  0  2  0  0  0  0  0  0
  182.4690  176.0070  138.0520 C   0  0  2  0  0  0  0  0  0  0  0  0
  182.5760  173.6430  137.0540 C   0  0  0  0  0  1  0  0  0  0  0  0
  183.2530  174.6840  137.9290 C   0  0  0  0  0  2  0  0  0  0  0  0
  181.3450  175.9220  137.0060 C   0  0  0  0  0  2  0  0  0  0  0  0
  180.0670  177.9370  136.3790 C   0  0  0  0  0  1  0  0  0  0  0  0
  181.2870  177.1010  136.0390 C   0  0  2  0  0  3  0  0  0  0  0  0
  180.4840  175.3920  134.8570 C   0  0  0  0  0  1  0  0  0  0  0  0
  181.1570  176.6090  134.7380 O   0  0  0  0  0  0  0  0  0  0  0  0
  181.8480  176.1510  139.4620 C   0  0  0  0  0  2  0  0  0  0  0  0
  180.3420  175.8910  139.5060 C   0  0  0  0  0  2  0  0  0  0  0  0
  180.0670  174.4600  139.9220 C   0  0  0  0  0  2  0  0  0  0  0  0
  178.9470  174.4130  140.9460 C   0  0  0  0  0  2  0  0  0  0  0  0
  179.3070  173.4630  142.0710 C   0  0  0  0  0  1  0  0  0  0  0  0
  1 15  1  1  0  0  0
  1 25  1  0  0  0  0
  1  3  1  0  0  0  0
  3  5  1  0  0  0  0
  3  4  1  0  0  0  0
  4  6  1  1  0  0  0
  5  4  1  0  0  0  0
  5  2  2  0  0  0  0
  6  7  1  0  0  0  0
  7  9  1  0  0  0  0
  8 14  1  0  0  0  0
  9  8  2  0  0  0  0
 10  9  1  0  0  0  0
 10 13  2  0  0  0  0
 11 13  1  0  0  0  0
 12 14  2  0  0  0  0
 13 12  1  0  0  0  0
 15 18  1  6  0  0  0
 16 17  2  0  0  0  0
 18 16  2  0  0  0  0
 19 20  1  0  0  0  0
 20 17  1  0  0  0  0
 21 15  1  0  0  0  0
 22 21  1  0  0  0  0
 23 24  1  0  0  0  0
 24 21  1  0  0  0  0
 25 28  1  6  0  0  0
 25 33  1  0  0  0  0
 26 27  1  0  0  0  0
 27 25  1  0  0  0  0
 30 29  1  1  0  0  0
 30 28  1  0  0  0  0
 32 31  1  0  0  0  0
 32 30  1  0  0  0  0
 33 34  1  0  0  0  0
 34 35  1  0  0  0  0
 35 36  1  0  0  0  0
 36 37  1  0  0  0  0
M  END
>  <MODEL>
8

>  <REMARK>
 VINA RESULT:      -4.7      2.148      3.960
  Name = 
  18 active torsions:
  status: ('A' for Active; 'I' for Inactive)
    1  A    between atoms: N_1  and  C_23
    2  A    between atoms: N_1  and  C_36
    3  A    between atoms: C_3  and  C_32
    4  A    between atoms: C_6  and  C_31
    5  A    between atoms: C_9  and  C_13
    6  A    between atoms: C_9  and  C_32
    7  A    between atoms: N_10  and  C_29
    8  A    between atoms: C_13  and  C_20
    9  A    between atoms: C_14  and  C_37
   10  A    between atoms: C_16  and  C_20
   11  A    between atoms: C_16  and  C_24
   12  A    between atoms: C_20  and  C_25
   13  A    between atoms: C_20  and  C_29
   14  A    between atoms: C_24  and  O_28
   15  A    between atoms: C_26  and  C_34
   16  A    between atoms: C_29  and  C_36
   17  A    between atoms: C_31  and  C_37
   18  A    between atoms: C_33  and  C_36
                            x       y       z     vdW  Elec       q    Type
                         _______ _______ _______ _____ _____    ______ ____

>  <TORSDO>
F 18

$$$$
=
 OpenBabel11052415273D

 37 38  0  0  1  0  0  0  0  0999 V2000
  183.5690  177.7510  137.2460 C   0  0  1  0  0  3  0  0  0  0  0  0
  181.8020  180.9920  138.7580 C   0  0  0  0  0  2  0  0  0  0  0  0
  183.5390  178.9280  138.1180 N   0  0  0  0  0  0  0  0  0  0  0  0
  184.0550  179.6930  139.1690 C   0  0  1  0  0  3  0  0  0  0  0  0
  182.8360  180.1650  138.6960 C   0  0  0  0  0  0  0  0  0  0  0  0
  183.9110  178.8890  140.4550 C   0  0  0  0  0  2  0  0  0  0  0  0
  185.1540  178.9640  141.3370 C   0  0  0  0  0  2  0  0  0  0  0  0
  183.4230  178.9990  143.1380 C   0  0  0  0  0  3  0  0  0  0  0  0
  184.7670  178.8590  142.7700 C   0  0  0  0  0  0  0  0  0  0  0  0
  185.7430  178.6200  143.7520 C   0  0  0  0  0  3  0  0  0  0  0  0
  186.3360  178.2950  146.0700 O   0  0  0  0  0  1  0  0  0  0  0  0
  184.0260  178.6820  145.4610 C   0  0  0  0  0  3  0  0  0  0  0  0
  185.3710  178.5340  145.0960 C   0  0  0  0  0  0  0  0  0  0  0  0
  183.0530  178.9110  144.4830 C   0  0  0  0  0  3  0  0  0  0  0  0
  184.9480  177.0470  137.3110 C   0  0  2  0  0  3  0  0  0  0  0  0
  187.0220  177.8790  138.2800 C   0  0  0  0  0  0  0  0  0  0  0  0
  187.9230  177.7350  139.2150 C   0  0  0  0  0  3  0  0  0  0  0  0
  186.1080  178.0170  137.3580 C   0  0  0  0  0  3  0  0  0  0  0  0
  190.1120  177.3090  138.1730 C   0  0  0  0  0  1  0  0  0  0  0  0
  189.3000  178.2730  139.0160 C   0  0  0  0  0  2  0  0  0  0  0  0
  185.0760  176.0340  136.2420 N   0  0  0  0  0  0  0  0  0  0  0  0
  185.5460  176.6000  134.9690 C   0  0  0  0  0  1  0  0  0  0  0  0
  187.3080  174.9070  136.0500 C   0  0  0  0  0  1  0  0  0  0  0  0
  185.9080  174.8990  136.6680 C   0  0  0  0  0  2  0  0  0  0  0  0
  182.3660  176.7960  137.5310 C   0  0  2  0  0  0  0  0  0  0  0  0
  182.4000  174.2280  137.5340 C   0  0  0  0  0  1  0  0  0  0  0  0
  182.4590  175.4980  136.7020 C   0  0  0  0  0  2  0  0  0  0  0  0
  181.0670  177.4840  137.0810 C   0  0  0  0  0  2  0  0  0  0  0  0
  180.7110  179.4610  135.6480 C   0  0  0  0  0  1  0  0  0  0  0  0
  181.0810  177.9900  135.6410 C   0  0  2  0  0  3  0  0  0  0  0  0
  179.0110  177.1740  135.7360 C   0  0  0  0  0  1  0  0  0  0  0  0
  180.1280  177.2810  134.9070 O   0  0  0  0  0  0  0  0  0  0  0  0
  182.2820  176.4790  139.0430 C   0  0  0  0  0  2  0  0  0  0  0  0
  180.8620  176.5150  139.6070 C   0  0  0  0  0  2  0  0  0  0  0  0
  180.8460  177.2240  140.9460 C   0  0  0  0  0  2  0  0  0  0  0  0
  180.2090  178.5950  140.8110 C   0  0  0  0  0  2  0  0  0  0  0  0
  178.9390  178.5020  139.9890 C   0  0  0  0  0  1  0  0  0  0  0  0
  1 15  1  1  0  0  0
  1 25  1  0  0  0  0
  1  3  1  0  0  0  0
  3  5  1  0  0  0  0
  3  4  1  0  0  0  0
  4  6  1  1  0  0  0
  5  2  2  0  0  0  0
  5  4  1  0  0  0  0
  6  7  1  0  0  0  0
  7  9  1  0  0  0  0
  8 14  1  0  0  0  0
  9  8  2  0  0  0  0
  9 10  1  0  0  0  0
 10 13  2  0  0  0  0
 13 12  1  0  0  0  0
 13 11  1  0  0  0  0
 14 12  2  0  0  0  0
 15 18  1  6  0  0  0
 16 17  2  0  0  0  0
 18 16  2  0  0  0  0
 19 20  1  0  0  0  0
 20 17  1  0  0  0  0
 21 24  1  0  0  0  0
 21 15  1  0  0  0  0
 22 21  1  0  0  0  0
 23 24  1  0  0  0  0
 25 27  1  6  0  0  0
 25 33  1  0  0  0  0
 27 26  1  0  0  0  0
 28 25  1  0  0  0  0
 30 29  1  1  0  0  0
 30 28  1  0  0  0  0
 32 30  1  0  0  0  0
 32 31  1  0  0  0  0
 33 34  1  0  0  0  0
 34 35  1  0  0  0  0
 36 35  1  0  0  0  0
 37 36  1  0  0  0  0
M  END
>  <MODEL>
9

>  <REMARK>
 VINA RESULT:      -4.7      1.937      3.936
  Name = 
  18 active torsions:
  status: ('A' for Active; 'I' for Inactive)
    1  A    between atoms: N_1  and  C_23
    2  A    between atoms: N_1  and  C_36
    3  A    between atoms: C_3  and  C_32
    4  A    between atoms: C_6  and  C_31
    5  A    between atoms: C_9  and  C_13
    6  A    between atoms: C_9  and  C_32
    7  A    between atoms: N_10  and  C_29
    8  A    between atoms: C_13  and  C_20
    9  A    between atoms: C_14  and  C_37
   10  A    between atoms: C_16  and  C_20
   11  A    between atoms: C_16  and  C_24
   12  A    between atoms: C_20  and  C_25
   13  A    between atoms: C_20  and  C_29
   14  A    between atoms: C_24  and  O_28
   15  A    between atoms: C_26  and  C_34
   16  A    between atoms: C_29  and  C_36
   17  A    between atoms: C_31  and  C_37
   18  A    between atoms: C_33  and  C_36
                            x       y       z     vdW  Elec       q    Type
                         _______ _______ _______ _____ _____    ______ ____

>  <TORSDO>
F 18

$$$$
