=
 OpenBabel11052412433D

 25 27  0  0  1  0  0  0  0  0999 V2000
  188.3130  177.4730  144.4180 C   0  0  1  0  0  3  0  0  0  0  0  0
  191.2550  179.7680  143.6950 C   0  0  0  0  0  1  0  0  0  0  0  0
  190.7690  175.9470  143.2030 C   0  0  0  0  0  2  0  0  0  0  0  0
  190.3870  178.5440  143.4690 C   0  0  1  0  0  3  0  0  0  0  0  0
  190.4200  176.9870  145.6820 S   0  0  0  0  0  0  0  0  0  0  0  0
  189.7900  176.7450  147.0250 O   0  0  0  0  0  0  0  0  0  0  0  0
  191.2430  177.3850  142.8940 C   0  0  2  0  0  3  0  0  0  0  0  0
  188.5690  176.1130  144.1030 O   0  0  0  0  0  0  0  0  0  0  0  0
  191.9100  177.1670  145.7840 O   0  0  0  0  0  0  0  0  0  0  0  0
  189.9030  175.8130  144.4630 C   0  0  1  0  0  3  0  0  0  0  0  0
  189.5990  178.2220  144.7600 C   0  0  2  0  0  3  0  0  0  0  0  0
  187.4260  178.1650  143.3780 C   0  0  1  0  0  3  0  0  0  0  0  0
  187.3140  177.4050  142.2100 O   0  0  0  0  0  1  0  0  0  0  0  0
  186.0740  178.4850  143.9410 C   0  0  0  0  0  0  0  0  0  0  0  0
  183.5600  179.0000  145.0730 C   0  0  0  0  0  3  0  0  0  0  0  0
  185.0400  179.0270  143.1530 C   0  0  0  0  0  0  0  0  0  0  0  0
  183.7890  179.2850  143.7240 C   0  0  0  0  0  3  0  0  0  0  0  0
  184.5810  178.4560  145.8550 C   0  0  0  0  0  3  0  0  0  0  0  0
  185.2360  179.3110  141.8420 F   0  0  0  0  0  0  0  0  0  0  0  0
  185.8320  178.1980  145.2890 C   0  0  0  0  0  3  0  0  0  0  0  0
  191.4950  177.5580  141.4290 C   0  0  0  0  0  0  0  0  0  0  0  0
  192.6200  177.9600  141.0290 O   0  0  0  0  0  0  0  0  0  0  0  0
  190.4390  177.2600  140.4540 C   0  0  0  0  0  0  0  0  0  0  0  0
  190.4410  176.0470  139.7750 O   0  0  0  0  0  0  0  0  0  0  0  0
  189.5260  178.0970  140.2250 O   0  0  0  0  0  1  0  0  0  0  0  0
  1 12  1  6  0  0  0
  1 11  1  0  0  0  0
  4  2  1  1  0  0  0
  4 11  1  0  0  0  0
  5  9  2  0  0  0  0
  5  6  2  0  0  0  0
  7 21  1  6  0  0  0
  7  3  1  0  0  0  0
  7  4  1  0  0  0  0
  8  1  1  0  0  0  0
  8 10  1  0  0  0  0
 10  3  1  6  0  0  0
 10  5  1  0  0  0  0
 11  5  1  1  0  0  0
 12 13  1  6  0  0  0
 12 14  1  0  0  0  0
 14 20  1  0  0  0  0
 15 18  1  0  0  0  0
 16 17  1  0  0  0  0
 16 14  2  0  0  0  0
 17 15  2  0  0  0  0
 19 16  1  0  0  0  0
 20 18  2  0  0  0  0
 22 21  2  0  0  0  0
 23 21  1  0  0  0  0
 24 23  2  0  0  0  0
 25 23  1  0  0  0  0
M  END
>  <MODEL>
1

>  <REMARK>
 VINA RESULT:      -7.1      0.000      0.000
  Name = 
  4 active torsions:
  status: ('A' for Active; 'I' for Inactive)
    1  A    between atoms: C_1  and  C_3
    2  A    between atoms: C_1  and  C_5
    3  A    between atoms: C_2  and  C_21
    4  A    between atoms: C_15  and  C_21
                            x       y       z     vdW  Elec       q    Type
                         _______ _______ _______ _____ _____    ______ ____

>  <TORSDO>
F 4

$$$$
=
 OpenBabel11052412433D

 25 27  0  0  1  0  0  0  0  0999 V2000
  188.3830  177.9150  139.3150 C   0  0  1  0  0  3  0  0  0  0  0  0
  187.9940  174.8230  137.1390 C   0  0  0  0  0  1  0  0  0  0  0  0
  189.6320  178.2770  136.4620 C   0  0  0  0  0  2  0  0  0  0  0  0
  188.6830  176.0940  137.6000 C   0  0  1  0  0  3  0  0  0  0  0  0
  187.0330  178.2070  137.2260 S   0  0  0  0  0  0  0  0  0  0  0  0
  185.9190  179.0180  137.8250 O   0  0  0  0  0  0  0  0  0  0  0  0
  189.4430  176.7440  136.4140 C   0  0  2  0  0  3  0  0  0  0  0  0
  189.0390  178.9870  138.6570 O   0  0  0  0  0  0  0  0  0  0  0  0
  186.6760  177.6850  135.8610 O   0  0  0  0  0  0  0  0  0  0  0  0
  188.5990  179.0260  137.3140 C   0  0  1  0  0  3  0  0  0  0  0  0
  187.6630  177.0030  138.3240 C   0  0  2  0  0  3  0  0  0  0  0  0
  189.2900  177.1870  140.3120 C   0  0  1  0  0  3  0  0  0  0  0  0
  190.5820  177.7230  140.3170 O   0  0  0  0  0  1  0  0  0  0  0  0
  188.7020  177.1920  141.6900 C   0  0  0  0  0  0  0  0  0  0  0  0
  187.5590  177.3070  144.2490 C   0  0  0  0  0  3  0  0  0  0  0  0
  189.2600  176.4490  142.7490 C   0  0  0  0  0  0  0  0  0  0  0  0
  188.6840  176.5080  144.0230 C   0  0  0  0  0  3  0  0  0  0  0  0
  187.0080  178.0500  143.2030 C   0  0  0  0  0  3  0  0  0  0  0  0
  190.3500  175.6670  142.5560 F   0  0  0  0  0  0  0  0  0  0  0  0
  187.5800  177.9940  141.9300 C   0  0  0  0  0  3  0  0  0  0  0  0
  190.7450  176.0560  136.1490 C   0  0  0  0  0  0  0  0  0  0  0  0
  191.0570  175.7340  134.9710 O   0  0  0  0  0  0  0  0  0  0  0  0
  191.6650  175.7550  137.2530 C   0  0  0  0  0  0  0  0  0  0  0  0
  191.6060  174.5210  137.8900 O   0  0  0  0  0  1  0  0  0  0  0  0
  192.5100  176.6090  137.6310 O   0  0  0  0  0  0  0  0  0  0  0  0
  1 12  1  6  0  0  0
  4  2  1  6  0  0  0
  4 11  1  0  0  0  0
  5 10  1  0  0  0  0
  5  6  2  0  0  0  0
  7 21  1  1  0  0  0
  7  3  1  0  0  0  0
  7  4  1  0  0  0  0
  8  1  1  0  0  0  0
  9  5  2  0  0  0  0
 10  3  1  6  0  0  0
 10  8  1  0  0  0  0
 11  5  1  6  0  0  0
 11  1  1  0  0  0  0
 12 13  1  1  0  0  0
 12 14  1  0  0  0  0
 14 20  2  0  0  0  0
 14 16  1  0  0  0  0
 16 17  2  0  0  0  0
 17 15  1  0  0  0  0
 18 15  2  0  0  0  0
 19 16  1  0  0  0  0
 20 18  1  0  0  0  0
 21 23  1  0  0  0  0
 22 21  2  0  0  0  0
 23 25  2  0  0  0  0
 23 24  1  0  0  0  0
M  END
>  <MODEL>
2

>  <REMARK>
 VINA RESULT:      -6.8      3.838      6.349
  Name = 
  4 active torsions:
  status: ('A' for Active; 'I' for Inactive)
    1  A    between atoms: C_1  and  C_3
    2  A    between atoms: C_1  and  C_5
    3  A    between atoms: C_2  and  C_21
    4  A    between atoms: C_15  and  C_21
                            x       y       z     vdW  Elec       q    Type
                         _______ _______ _______ _____ _____    ______ ____

>  <TORSDO>
F 4

$$$$
=
 OpenBabel11052412433D

 25 27  0  0  1  0  0  0  0  0999 V2000
  182.8450  178.6500  140.8230 C   0  0  1  0  0  3  0  0  0  0  0  0
  182.8840  175.3540  138.9320 C   0  0  0  0  0  1  0  0  0  0  0  0
  182.3110  179.0080  137.7540 C   0  0  0  0  0  2  0  0  0  0  0  0
  183.0710  176.8530  139.0720 C   0  0  1  0  0  3  0  0  0  0  0  0
  180.7040  178.0080  139.6940 S   0  0  0  0  0  0  0  0  0  0  0  0
  179.7730  178.3790  140.8140 O   0  0  0  0  0  0  0  0  0  0  0  0
  182.8160  177.5490  137.7100 C   0  0  2  0  0  3  0  0  0  0  0  0
  182.5700  179.7710  139.9960 O   0  0  0  0  0  0  0  0  0  0  0  0
  180.0210  177.1650  138.6520 O   0  0  0  0  0  0  0  0  0  0  0  0
  181.5880  179.3990  139.0500 C   0  0  1  0  0  3  0  0  0  0  0  0
  182.2280  177.3720  140.2610 C   0  0  2  0  0  3  0  0  0  0  0  0
  184.3260  178.5380  141.1950 C   0  0  1  0  0  3  0  0  0  0  0  0
  185.0850  179.5510  140.6010 O   0  0  0  0  0  1  0  0  0  0  0  0
  184.5170  178.5270  142.6820 C   0  0  0  0  0  0  0  0  0  0  0  0
  184.7950  178.5910  145.4730 C   0  0  0  0  0  3  0  0  0  0  0  0
  185.7280  178.1310  143.2830 C   0  0  0  0  0  0  0  0  0  0  0  0
  185.8590  178.1630  144.6750 C   0  0  0  0  0  3  0  0  0  0  0  0
  183.5950  178.9910  144.8790 C   0  0  0  0  0  3  0  0  0  0  0  0
  186.7760  177.7110  142.5320 F   0  0  0  0  0  0  0  0  0  0  0  0
  183.4590  178.9610  143.4890 C   0  0  0  0  0  3  0  0  0  0  0  0
  183.9930  177.4210  136.7950 C   0  0  0  0  0  0  0  0  0  0  0  0
  183.8120  177.2670  135.5570 O   0  0  0  0  0  0  0  0  0  0  0  0
  185.3590  177.4760  137.3300 C   0  0  0  0  0  0  0  0  0  0  0  0
  185.8540  178.6660  137.8500 O   0  0  0  0  0  1  0  0  0  0  0  0
  186.0890  176.4500  137.3220 O   0  0  0  0  0  0  0  0  0  0  0  0
  1 12  1  6  0  0  0
  4  2  1  6  0  0  0
  4 11  1  0  0  0  0
  5  6  2  0  0  0  0
  7 21  1  6  0  0  0
  7  3  1  0  0  0  0
  7  4  1  0  0  0  0
  8  1  1  0  0  0  0
  9  5  2  0  0  0  0
 10  3  1  6  0  0  0
 10  5  1  0  0  0  0
 10  8  1  0  0  0  0
 11  5  1  6  0  0  0
 11  1  1  0  0  0  0
 12 13  1  6  0  0  0
 12 14  1  0  0  0  0
 14 16  2  0  0  0  0
 14 20  1  0  0  0  0
 16 17  1  0  0  0  0
 17 15  2  0  0  0  0
 18 15  1  0  0  0  0
 19 16  1  0  0  0  0
 20 18  2  0  0  0  0
 21 23  1  0  0  0  0
 22 21  2  0  0  0  0
 23 24  1  0  0  0  0
 25 23  2  0  0  0  0
M  END
>  <MODEL>
3

>  <REMARK>
 VINA RESULT:      -6.6      5.218      7.725
  Name = 
  4 active torsions:
  status: ('A' for Active; 'I' for Inactive)
    1  A    between atoms: C_1  and  C_3
    2  A    between atoms: C_1  and  C_5
    3  A    between atoms: C_2  and  C_21
    4  A    between atoms: C_15  and  C_21
                            x       y       z     vdW  Elec       q    Type
                         _______ _______ _______ _____ _____    ______ ____

>  <TORSDO>
F 4

$$$$
=
 OpenBabel11052412433D

 25 27  0  0  1  0  0  0  0  0999 V2000
  188.7870  177.8570  143.3560 C   0  0  1  0  0  3  0  0  0  0  0  0
  190.5390  174.4930  143.5950 C   0  0  0  0  0  1  0  0  0  0  0  0
  191.6800  178.0800  144.5460 C   0  0  0  0  0  2  0  0  0  0  0  0
  190.2560  175.9220  144.0210 C   0  0  1  0  0  3  0  0  0  0  0  0
  190.8790  177.6110  142.0000 S   0  0  0  0  0  0  0  0  0  0  0  0
  190.3750  178.2630  140.7430 O   0  0  0  0  0  0  0  0  0  0  0  0
  191.5260  176.5470  144.6560 C   0  0  2  0  0  3  0  0  0  0  0  0
  189.5870  178.9420  143.8010 O   0  0  0  0  0  0  0  0  0  0  0  0
  192.1590  176.8570  141.7670 O   0  0  0  0  0  0  0  0  0  0  0  0
  190.9180  178.7200  143.3780 C   0  0  1  0  0  3  0  0  0  0  0  0
  189.6420  176.7040  142.8370 C   0  0  2  0  0  3  0  0  0  0  0  0
  187.7170  177.4540  144.3750 C   0  0  1  0  0  3  0  0  0  0  0  0
  188.0390  177.8960  145.6610 O   0  0  0  0  0  1  0  0  0  0  0  0
  186.3600  177.9410  143.9640 C   0  0  0  0  0  0  0  0  0  0  0  0
  183.8710  178.9060  143.1040 C   0  0  0  0  0  3  0  0  0  0  0  0
  185.3240  178.1550  144.8940 C   0  0  0  0  0  0  0  0  0  0  0  0
  184.0840  178.6340  144.4580 C   0  0  0  0  0  3  0  0  0  0  0  0
  184.8990  178.7010  142.1810 C   0  0  0  0  0  3  0  0  0  0  0  0
  185.5050  177.8990  146.2130 F   0  0  0  0  0  0  0  0  0  0  0  0
  186.1390  178.2230  142.6110 C   0  0  0  0  0  3  0  0  0  0  0  0
  191.7170  176.0940  146.0690 C   0  0  0  0  0  0  0  0  0  0  0  0
  192.5080  175.1460  146.3230 O   0  0  0  0  0  0  0  0  0  0  0  0
  190.9900  176.7480  147.1640 C   0  0  0  0  0  0  0  0  0  0  0  0
  191.6820  177.5010  148.1060 O   0  0  0  0  0  1  0  0  0  0  0  0
  189.7400  176.6330  147.2580 O   0  0  0  0  0  0  0  0  0  0  0  0
  1  8  1  0  0  0  0
  1 12  1  1  0  0  0
  3  7  1  0  0  0  0
  4  2  1  6  0  0  0
  4  7  1  0  0  0  0
  5 10  1  0  0  0  0
  6  5  2  0  0  0  0
  7 21  1  1  0  0  0
  9  5  2  0  0  0  0
 10  8  1  0  0  0  0
 10  3  1  1  0  0  0
 11  5  1  6  0  0  0
 11  1  1  0  0  0  0
 11  4  1  0  0  0  0
 12 13  1  1  0  0  0
 14 12  1  0  0  0  0
 14 16  1  0  0  0  0
 15 17  1  0  0  0  0
 16 19  1  0  0  0  0
 17 16  2  0  0  0  0
 18 20  1  0  0  0  0
 18 15  2  0  0  0  0
 20 14  2  0  0  0  0
 21 22  2  0  0  0  0
 21 23  1  0  0  0  0
 23 25  2  0  0  0  0
 23 24  1  0  0  0  0
M  END
>  <MODEL>
4

>  <REMARK>
 VINA RESULT:      -5.9      1.967      4.205
  Name = 
  4 active torsions:
  status: ('A' for Active; 'I' for Inactive)
    1  A    between atoms: C_1  and  C_3
    2  A    between atoms: C_1  and  C_5
    3  A    between atoms: C_2  and  C_21
    4  A    between atoms: C_15  and  C_21
                            x       y       z     vdW  Elec       q    Type
                         _______ _______ _______ _____ _____    ______ ____

>  <TORSDO>
F 4

$$$$
=
 OpenBabel11052412433D

 25 27  0  0  1  0  0  0  0  0999 V2000
  188.5970  177.2510  142.2250 C   0  0  1  0  0  3  0  0  0  0  0  0
  190.9910  174.6860  143.6850 C   0  0  0  0  0  1  0  0  0  0  0  0
  190.6340  178.5100  144.2490 C   0  0  0  0  0  2  0  0  0  0  0  0
  190.1810  175.9690  143.7060 C   0  0  1  0  0  3  0  0  0  0  0  0
  191.0250  177.6070  141.7240 S   0  0  0  0  0  0  0  0  0  0  0  0
  190.8750  177.9560  140.2700 O   0  0  0  0  0  0  0  0  0  0  0  0
  190.8850  177.0260  144.5960 C   0  0  2  0  0  3  0  0  0  0  0  0
  188.8310  178.5700  142.6940 O   0  0  0  0  0  0  0  0  0  0  0  0
  192.4540  177.3040  142.0840 O   0  0  0  0  0  0  0  0  0  0  0  0
  190.2270  178.7700  142.7930 C   0  0  1  0  0  3  0  0  0  0  0  0
  189.8710  176.4090  142.2570 C   0  0  2  0  0  3  0  0  0  0  0  0
  187.3790  176.5960  142.8840 C   0  0  1  0  0  3  0  0  0  0  0  0
  187.7350  175.4450  143.5930 O   0  0  0  0  0  1  0  0  0  0  0  0
  186.6480  177.5640  143.7640 C   0  0  0  0  0  0  0  0  0  0  0  0
  185.3020  179.3070  145.5010 C   0  0  0  0  0  3  0  0  0  0  0  0
  185.6050  178.3790  143.2820 C   0  0  0  0  0  0  0  0  0  0  0  0
  184.9400  179.2490  144.1520 C   0  0  0  0  0  3  0  0  0  0  0  0
  186.3310  178.4940  145.9830 C   0  0  0  0  0  3  0  0  0  0  0  0
  185.2350  178.3420  141.9780 F   0  0  0  0  0  0  0  0  0  0  0  0
  186.9980  177.6250  145.1170 C   0  0  0  0  0  3  0  0  0  0  0  0
  190.6440  176.7720  146.0510 C   0  0  0  0  0  0  0  0  0  0  0  0
  189.4850  176.9020  146.5270 O   0  0  0  0  0  0  0  0  0  0  0  0
  191.7510  176.3720  146.9290 C   0  0  0  0  0  0  0  0  0  0  0  0
  192.0550  177.1280  148.0540 O   0  0  0  0  0  1  0  0  0  0  0  0
  192.4310  175.3440  146.6690 O   0  0  0  0  0  0  0  0  0  0  0  0
  1 11  1  0  0  0  0
  1  8  1  0  0  0  0
  1 12  1  1  0  0  0
  3  7  1  0  0  0  0
  4  2  1  6  0  0  0
  4  7  1  0  0  0  0
  5  9  2  0  0  0  0
  5 10  1  0  0  0  0
  6  5  2  0  0  0  0
  7 21  1  1  0  0  0
  8 10  1  0  0  0  0
 10  3  1  1  0  0  0
 11  5  1  1  0  0  0
 11  4  1  0  0  0  0
 12 13  1  1  0  0  0
 12 14  1  0  0  0  0
 14 20  1  0  0  0  0
 15 18  1  0  0  0  0
 16 14  2  0  0  0  0
 16 17  1  0  0  0  0
 17 15  2  0  0  0  0
 19 16  1  0  0  0  0
 20 18  2  0  0  0  0
 21 22  2  0  0  0  0
 21 23  1  0  0  0  0
 23 24  1  0  0  0  0
 25 23  2  0  0  0  0
M  END
>  <MODEL>
5

>  <REMARK>
 VINA RESULT:      -5.8      1.683      4.078
  Name = 
  4 active torsions:
  status: ('A' for Active; 'I' for Inactive)
    1  A    between atoms: C_1  and  C_3
    2  A    between atoms: C_1  and  C_5
    3  A    between atoms: C_2  and  C_21
    4  A    between atoms: C_15  and  C_21
                            x       y       z     vdW  Elec       q    Type
                         _______ _______ _______ _____ _____    ______ ____

>  <TORSDO>
F 4

$$$$
=
 OpenBabel11052412433D

 25 27  0  0  1  0  0  0  0  0999 V2000
  188.0800  177.6960  145.9850 C   0  0  1  0  0  3  0  0  0  0  0  0
  191.4230  178.9910  144.7240 C   0  0  0  0  0  1  0  0  0  0  0  0
  190.4210  175.6630  146.4530 C   0  0  0  0  0  2  0  0  0  0  0  0
  190.4170  177.9080  145.0690 C   0  0  1  0  0  3  0  0  0  0  0  0
  189.8640  177.9950  147.7170 S   0  0  0  0  0  0  0  0  0  0  0  0
  189.0060  178.6320  148.7730 O   0  0  0  0  0  0  0  0  0  0  0  0
  191.1570  176.6080  145.4780 C   0  0  2  0  0  3  0  0  0  0  0  0
  188.1630  176.4120  146.5840 O   0  0  0  0  0  0  0  0  0  0  0  0
  191.3300  178.1490  148.0160 O   0  0  0  0  0  0  0  0  0  0  0  0
  189.3620  176.3430  147.3310 C   0  0  1  0  0  3  0  0  0  0  0  0
  189.4000  178.4550  146.0970 C   0  0  2  0  0  3  0  0  0  0  0  0
  187.4830  177.6540  144.5750 C   0  0  1  0  0  3  0  0  0  0  0  0
  187.5770  176.3770  144.0140 O   0  0  0  0  0  1  0  0  0  0  0  0
  186.0640  178.1390  144.5680 C   0  0  0  0  0  0  0  0  0  0  0  0
  183.3990  179.0080  144.6630 C   0  0  0  0  0  3  0  0  0  0  0  0
  185.3120  178.2470  143.3820 C   0  0  0  0  0  0  0  0  0  0  0  0
  183.9840  178.6840  143.4360 C   0  0  0  0  0  3  0  0  0  0  0  0
  184.1410  178.8950  145.8410 C   0  0  0  0  0  3  0  0  0  0  0  0
  185.8550  177.9390  142.1790 F   0  0  0  0  0  0  0  0  0  0  0  0
  185.4670  178.4600  145.7920 C   0  0  0  0  0  3  0  0  0  0  0  0
  191.6550  175.8560  144.2840 C   0  0  0  0  0  0  0  0  0  0  0  0
  192.4300  174.8750  144.4380 O   0  0  0  0  0  0  0  0  0  0  0  0
  191.2440  176.2540  142.9320 C   0  0  0  0  0  0  0  0  0  0  0  0
  192.0300  177.1330  142.1960 O   0  0  0  0  0  0  0  0  0  0  0  0
  190.1800  175.8040  142.4300 O   0  0  0  0  0  1  0  0  0  0  0  0
  1 12  1  6  0  0  0
  1 11  1  0  0  0  0
  1  8  1  0  0  0  0
  4  2  1  1  0  0  0
  4  7  1  0  0  0  0
  4 11  1  0  0  0  0
  5  9  2  0  0  0  0
  5  6  2  0  0  0  0
  7 21  1  6  0  0  0
  7  3  1  0  0  0  0
  8 10  1  0  0  0  0
 10  3  1  6  0  0  0
 10  5  1  0  0  0  0
 11  5  1  1  0  0  0
 12 13  1  1  0  0  0
 14 12  1  0  0  0  0
 14 20  1  0  0  0  0
 15 18  1  0  0  0  0
 16 17  1  0  0  0  0
 16 14  2  0  0  0  0
 17 15  2  0  0  0  0
 19 16  1  0  0  0  0
 20 18  2  0  0  0  0
 21 22  2  0  0  0  0
 23 21  1  0  0  0  0
 24 23  2  0  0  0  0
 25 23  1  0  0  0  0
M  END
>  <MODEL>
6

>  <REMARK>
 VINA RESULT:      -5.7      1.672      2.304
  Name = 
  4 active torsions:
  status: ('A' for Active; 'I' for Inactive)
    1  A    between atoms: C_1  and  C_3
    2  A    between atoms: C_1  and  C_5
    3  A    between atoms: C_2  and  C_21
    4  A    between atoms: C_15  and  C_21
                            x       y       z     vdW  Elec       q    Type
                         _______ _______ _______ _____ _____    ______ ____

>  <TORSDO>
F 4

$$$$
=
 OpenBabel11052412433D

 25 27  0  0  1  0  0  0  0  0999 V2000
  187.6760  177.5730  142.5330 C   0  0  1  0  0  3  0  0  0  0  0  0
  190.4730  175.1400  143.3680 C   0  0  0  0  0  1  0  0  0  0  0  0
  190.5020  178.9310  142.5340 C   0  0  0  0  0  2  0  0  0  0  0  0
  189.8190  176.5080  143.3210 C   0  0  1  0  0  3  0  0  0  0  0  0
  189.3940  177.2230  140.7460 S   0  0  0  0  0  0  0  0  0  0  0  0
  188.4490  177.1250  139.5820 O   0  0  0  0  0  0  0  0  0  0  0  0
  190.9040  177.6120  143.2310 C   0  0  2  0  0  3  0  0  0  0  0  0
  188.1350  178.8900  142.2680 O   0  0  0  0  0  0  0  0  0  0  0  0
  190.7760  176.7470  140.3880 O   0  0  0  0  0  0  0  0  0  0  0  0
  189.3420  178.8040  141.5380 C   0  0  1  0  0  3  0  0  0  0  0  0
  188.7430  176.5300  142.2100 C   0  0  2  0  0  3  0  0  0  0  0  0
  187.0440  177.4350  143.9220 C   0  0  1  0  0  3  0  0  0  0  0  0
  187.8400  178.0210  144.9100 O   0  0  0  0  0  1  0  0  0  0  0  0
  185.6550  177.9980  143.9480 C   0  0  0  0  0  0  0  0  0  0  0  0
  183.0700  179.0850  143.8880 C   0  0  0  0  0  3  0  0  0  0  0  0
  185.0550  178.4650  145.1340 C   0  0  0  0  0  0  0  0  0  0  0  0
  183.7640  179.0030  145.0980 C   0  0  0  0  0  3  0  0  0  0  0  0
  183.6650  178.6280  142.7090 C   0  0  0  0  0  3  0  0  0  0  0  0
  185.7060  178.3980  146.3210 F   0  0  0  0  0  0  0  0  0  0  0  0
  184.9540  178.0900  142.7410 C   0  0  0  0  0  3  0  0  0  0  0  0
  191.5280  177.8840  144.5630 C   0  0  0  0  0  0  0  0  0  0  0  0
  192.2610  178.8970  144.7190 O   0  0  0  0  0  0  0  0  0  0  0  0
  191.2910  176.9770  145.6930 C   0  0  0  0  0  0  0  0  0  0  0  0
  190.2180  177.1970  146.5490 O   0  0  0  0  0  1  0  0  0  0  0  0
  192.0560  175.9970  145.8960 O   0  0  0  0  0  0  0  0  0  0  0  0
  1 12  1  1  0  0  0
  3  7  1  0  0  0  0
  4  2  1  6  0  0  0
  5 10  1  0  0  0  0
  6  5  2  0  0  0  0
  7  4  1  0  0  0  0
  7 21  1  1  0  0  0
  8  1  1  0  0  0  0
  9  5  2  0  0  0  0
 10  8  1  0  0  0  0
 10  3  1  1  0  0  0
 11  5  1  6  0  0  0
 11  1  1  0  0  0  0
 11  4  1  0  0  0  0
 12 14  1  0  0  0  0
 12 13  1  1  0  0  0
 14 16  1  0  0  0  0
 15 17  1  0  0  0  0
 16 19  1  0  0  0  0
 17 16  2  0  0  0  0
 18 20  1  0  0  0  0
 18 15  2  0  0  0  0
 20 14  2  0  0  0  0
 21 22  2  0  0  0  0
 21 23  1  0  0  0  0
 23 25  2  0  0  0  0
 23 24  1  0  0  0  0
M  END
>  <MODEL>
7

>  <REMARK>
 VINA RESULT:      -5.7      1.915      3.961
  Name = 
  4 active torsions:
  status: ('A' for Active; 'I' for Inactive)
    1  A    between atoms: C_1  and  C_3
    2  A    between atoms: C_1  and  C_5
    3  A    between atoms: C_2  and  C_21
    4  A    between atoms: C_15  and  C_21
                            x       y       z     vdW  Elec       q    Type
                         _______ _______ _______ _____ _____    ______ ____

>  <TORSDO>
F 4

$$$$
=
 OpenBabel11052412433D

 25 27  0  0  1  0  0  0  0  0999 V2000
  183.8320  178.1160  140.7110 C   0  0  1  0  0  3  0  0  0  0  0  0
  182.4410  181.0300  138.7070 C   0  0  0  0  0  1  0  0  0  0  0  0
  181.0960  177.4430  139.3350 C   0  0  0  0  0  2  0  0  0  0  0  0
  182.3320  179.7650  139.5380 C   0  0  1  0  0  3  0  0  0  0  0  0
  183.5640  177.7270  138.2520 S   0  0  0  0  0  0  0  0  0  0  0  0
  184.8780  177.0340  138.0190 O   0  0  0  0  0  0  0  0  0  0  0  0
  181.0600  178.9740  139.1350 C   0  0  2  0  0  3  0  0  0  0  0  0
  183.0170  176.9550  140.6580 O   0  0  0  0  0  0  0  0  0  0  0  0
  182.9170  178.1520  136.9620 O   0  0  0  0  0  0  0  0  0  0  0  0
  182.5030  176.8290  139.3470 C   0  0  1  0  0  3  0  0  0  0  0  0
  183.6630  178.9800  139.4640 C   0  0  2  0  0  3  0  0  0  0  0  0
  183.7010  178.8710  142.0370 C   0  0  1  0  0  3  0  0  0  0  0  0
  182.4460  178.6720  142.6210 O   0  0  0  0  0  1  0  0  0  0  0  0
  184.7990  178.5010  142.9880 C   0  0  0  0  0  0  0  0  0  0  0  0
  186.8910  177.7310  144.6900 C   0  0  0  0  0  3  0  0  0  0  0  0
  184.6660  178.6430  144.3830 C   0  0  0  0  0  0  0  0  0  0  0  0
  185.7140  178.2600  145.2270 C   0  0  0  0  0  3  0  0  0  0  0  0
  187.0230  177.5830  143.3070 C   0  0  0  0  0  3  0  0  0  0  0  0
  183.5350  179.1530  144.9290 F   0  0  0  0  0  0  0  0  0  0  0  0
  185.9790  177.9640  142.4610 C   0  0  0  0  0  3  0  0  0  0  0  0
  179.8270  179.5610  139.7470 C   0  0  0  0  0  0  0  0  0  0  0  0
  178.9310  180.0510  139.0090 O   0  0  0  0  0  0  0  0  0  0  0  0
  179.6540  179.5690  141.2050 C   0  0  0  0  0  0  0  0  0  0  0  0
  179.1990  178.4290  141.8570 O   0  0  0  0  0  0  0  0  0  0  0  0
  179.9150  180.6050  141.8730 O   0  0  0  0  0  1  0  0  0  0  0  0
  1 12  1  1  0  0  0
  4  2  1  6  0  0  0
  5 10  1  0  0  0  0
  6  5  2  0  0  0  0
  7  3  1  0  0  0  0
  7  4  1  0  0  0  0
  7 21  1  1  0  0  0
  8  1  1  0  0  0  0
  9  5  2  0  0  0  0
 10  3  1  1  0  0  0
 10  8  1  0  0  0  0
 11  5  1  6  0  0  0
 11  4  1  0  0  0  0
 11  1  1  0  0  0  0
 12 13  1  1  0  0  0
 12 14  1  0  0  0  0
 14 16  1  0  0  0  0
 15 17  1  0  0  0  0
 16 19  1  0  0  0  0
 16 17  2  0  0  0  0
 18 15  2  0  0  0  0
 20 14  2  0  0  0  0
 20 18  1  0  0  0  0
 21 23  1  0  0  0  0
 22 21  2  0  0  0  0
 23 24  2  0  0  0  0
 23 25  1  0  0  0  0
M  END
>  <MODEL>
8

>  <REMARK>
 VINA RESULT:      -5.7      5.197      8.501
  Name = 
  4 active torsions:
  status: ('A' for Active; 'I' for Inactive)
    1  A    between atoms: C_1  and  C_3
    2  A    between atoms: C_1  and  C_5
    3  A    between atoms: C_2  and  C_21
    4  A    between atoms: C_15  and  C_21
                            x       y       z     vdW  Elec       q    Type
                         _______ _______ _______ _____ _____    ______ ____

>  <TORSDO>
F 4

$$$$
=
 OpenBabel11052412433D

 25 27  0  0  1  0  0  0  0  0999 V2000
  183.5410  178.8650  141.0090 C   0  0  1  0  0  3  0  0  0  0  0  0
  182.2440  175.6130  139.5320 C   0  0  0  0  0  1  0  0  0  0  0  0
  183.5010  178.8910  137.8740 C   0  0  0  0  0  2  0  0  0  0  0  0
  183.0790  176.8800  139.5290 C   0  0  1  0  0  3  0  0  0  0  0  0
  181.4510  179.0390  139.6400 S   0  0  0  0  0  0  0  0  0  0  0  0
  180.6960  179.9630  140.5530 O   0  0  0  0  0  0  0  0  0  0  0  0
  183.2890  177.3730  138.0730 C   0  0  2  0  0  3  0  0  0  0  0  0
  183.8800  179.8340  140.0280 O   0  0  0  0  0  0  0  0  0  0  0  0
  180.5540  178.4130  138.6080 O   0  0  0  0  0  0  0  0  0  0  0  0
  182.9230  179.7720  138.9890 C   0  0  1  0  0  3  0  0  0  0  0  0
  182.4630  177.9080  140.5050 C   0  0  2  0  0  3  0  0  0  0  0  0
  184.7700  178.1830  141.6170 C   0  0  1  0  0  3  0  0  0  0  0  0
  185.9530  178.6290  141.0220 O   0  0  0  0  0  1  0  0  0  0  0  0
  184.8160  178.3660  143.1040 C   0  0  0  0  0  0  0  0  0  0  0  0
  184.9850  178.6250  145.8920 C   0  0  0  0  0  3  0  0  0  0  0  0
  183.7030  178.8130  143.8430 C   0  0  0  0  0  0  0  0  0  0  0  0
  183.7940  178.9430  145.2320 C   0  0  0  0  0  3  0  0  0  0  0  0
  186.0880  178.1750  145.1630 C   0  0  0  0  0  3  0  0  0  0  0  0
  182.5370  179.1280  143.2270 F   0  0  0  0  0  0  0  0  0  0  0  0
  186.0020  178.0430  143.7750 C   0  0  0  0  0  3  0  0  0  0  0  0
  184.3550  176.5910  137.3720 C   0  0  0  0  0  0  0  0  0  0  0  0
  184.1460  175.3890  137.0560 O   0  0  0  0  0  0  0  0  0  0  0  0
  185.6430  177.2160  137.0490 C   0  0  0  0  0  0  0  0  0  0  0  0
  185.9490  177.5390  135.7320 O   0  0  0  0  0  0  0  0  0  0  0  0
  186.4780  177.4630  137.9590 O   0  0  0  0  0  1  0  0  0  0  0  0
  1 12  1  6  0  0  0
  3  7  1  0  0  0  0
  4  2  1  6  0  0  0
  4 11  1  0  0  0  0
  5  6  2  0  0  0  0
  7 21  1  1  0  0  0
  7  4  1  0  0  0  0
  8  1  1  0  0  0  0
  9  5  2  0  0  0  0
 10  3  1  6  0  0  0
 10  5  1  0  0  0  0
 10  8  1  0  0  0  0
 11  5  1  6  0  0  0
 11  1  1  0  0  0  0
 12 13  1  6  0  0  0
 12 14  1  0  0  0  0
 14 20  2  0  0  0  0
 14 16  1  0  0  0  0
 16 17  2  0  0  0  0
 17 15  1  0  0  0  0
 18 15  2  0  0  0  0
 19 16  1  0  0  0  0
 20 18  1  0  0  0  0
 22 21  2  0  0  0  0
 23 21  1  0  0  0  0
 23 25  1  0  0  0  0
 24 23  2  0  0  0  0
M  END
>  <MODEL>
9

>  <REMARK>
 VINA RESULT:      -5.6      4.888      7.332
  Name = 
  4 active torsions:
  status: ('A' for Active; 'I' for Inactive)
    1  A    between atoms: C_1  and  C_3
    2  A    between atoms: C_1  and  C_5
    3  A    between atoms: C_2  and  C_21
    4  A    between atoms: C_15  and  C_21
                            x       y       z     vdW  Elec       q    Type
                         _______ _______ _______ _____ _____    ______ ____

>  <TORSDO>
F 4

$$$$
