=
 OpenBabel11052415453D

 34 39  0  0  1  0  0  0  0  0999 V2000
  190.8190  177.5850  140.3430 C   0  0  1  0  0  3  0  0  0  0  0  0
  189.8910  176.4110  140.4270 C   0  0  1  0  0  3  0  0  0  0  0  0
  190.3550  177.7770  143.1980 C   0  0  2  0  0  0  0  0  0  0  0  0
  191.6270  177.0260  142.6640 C   0  0  0  0  0  2  0  0  0  0  0  0
  192.0880  177.3560  141.2120 C   0  0  0  0  0  2  0  0  0  0  0  0
  189.1880  177.7040  142.3750 O   0  0  0  0  0  0  0  0  0  0  0  0
  189.0940  176.4390  141.7560 C   0  0  0  0  0  2  0  0  0  0  0  0
  190.7050  179.2450  143.3280 C   0  0  0  0  0  1  0  0  0  0  0  0
  189.0130  176.4930  139.3340 O   0  0  0  0  0  0  0  0  0  0  0  0
  191.0050  177.7290  138.8640 C   0  0  0  0  0  2  0  0  0  0  0  0
  189.5870  177.3540  138.3610 C   0  0  1  0  0  0  0  0  0  0  0  0
  188.6410  177.1920  135.9570 C   0  0  0  0  0  2  0  0  0  0  0  0
  190.5390  174.2570  137.6250 C   0  0  0  0  0  2  0  0  0  0  0  0
  193.0200  174.5630  137.5650 C   0  0  0  0  0  3  0  0  0  0  0  0
  188.0020  174.6970  137.4280 C   0  0  0  0  0  2  0  0  0  0  0  0
  186.2260  177.5740  135.4750 C   0  0  0  0  0  2  0  0  0  0  0  0
  184.5120  175.9720  136.3610 C   0  0  0  0  0  3  0  0  0  0  0  0
  193.3100  176.0040  135.8310 N   0  0  0  0  0  0  0  0  0  0  0  0
  184.8170  177.0610  135.6310 C   0  0  0  0  0  3  0  0  0  0  0  0
  186.9510  175.3890  136.5430 C   0  0  2  0  0  3  0  0  0  0  0  0
  187.2190  176.9030  136.4250 C   0  0  1  0  0  3  0  0  0  0  0  0
  185.5540  175.2170  137.1470 C   0  0  0  0  0  2  0  0  0  0  0  0
  191.8310  174.6960  137.0080 C   0  0  0  0  0  0  0  0  0  0  0  0
  193.9290  175.3790  136.7760 C   0  0  0  0  0  3  0  0  0  0  0  0
  191.0790  176.9310  136.2960 C   0  0  0  0  0  2  0  0  0  0  0  0
  191.8880  175.6810  135.8950 C   0  0  1  0  0  3  0  0  0  0  0  0
  189.4120  175.0900  136.9860 C   0  0  1  0  0  3  0  0  0  0  0  0
  189.6850  176.6340  136.9380 C   0  0  1  0  0  0  0  0  0  0  0  0
  187.6820  178.7220  138.9600 O   0  0  0  0  0  1  0  0  0  0  0  0
  189.1220  179.6990  137.4790 O   0  0  0  0  0  0  0  0  0  0  0  0
  188.7610  178.6370  138.2890 C   0  0  0  0  0  0  0  0  0  0  0  0
  189.9600  177.2810  144.5820 C   0  0  0  0  0  0  0  0  0  0  0  0
  190.9550  176.7890  145.4250 O   0  0  0  0  0  1  0  0  0  0  0  0
  188.8950  177.7400  145.0950 O   0  0  0  0  0  0  0  0  0  0  0  0
  1 10  1  6  0  0  0
  1  2  1  0  0  0  0
  1  5  1  0  0  0  0
  2  7  1  1  0  0  0
  3  8  1  1  0  0  0
  3 32  1  0  0  0  0
  4  3  1  0  0  0  0
  5  4  1  0  0  0  0
  6  3  1  0  0  0  0
  7  6  1  0  0  0  0
  9  2  1  0  0  0  0
 11 31  1  6  0  0  0
 11 10  1  0  0  0  0
 11  9  1  0  0  0  0
 12 21  1  0  0  0  0
 16 19  1  0  0  0  0
 17 22  1  0  0  0  0
 18 26  1  0  0  0  0
 18 24  2  0  0  0  0
 19 17  2  0  0  0  0
 20 22  1  1  0  0  0
 20 15  1  0  0  0  0
 21 16  1  6  0  0  0
 21 20  1  0  0  0  0
 23 14  2  0  0  0  0
 23 13  1  0  0  0  0
 24 14  1  0  0  0  0
 25 28  1  0  0  0  0
 26 25  1  1  0  0  0
 26 23  1  0  0  0  0
 27 15  1  1  0  0  0
 27 13  1  0  0  0  0
 28 12  1  6  0  0  0
 28 27  1  0  0  0  0
 28 11  1  0  0  0  0
 30 31  2  0  0  0  0
 31 29  1  0  0  0  0
 32 34  2  0  0  0  0
 32 33  1  0  0  0  0
M  END
>  <MODEL>
1

>  <REMARK>
 VINA RESULT:      -6.4      0.000      0.000
  Name = 
  3 active torsions:
  status: ('A' for Active; 'I' for Inactive)
    1  A    between atoms: C_7  and  C_11
    2  A    between atoms: C_18  and  C_33
    3  A    between atoms: C_33  and  C_34
                            x       y       z     vdW  Elec       q    Type
                         _______ _______ _______ _____ _____    ______ ____

>  <TORSDO>
F 3

$$$$
=
 OpenBabel11052415453D

 34 39  0  0  1  0  0  0  0  0999 V2000
  184.0670  177.5960  137.2720 C   0  0  1  0  0  3  0  0  0  0  0  0
  183.9880  177.5230  138.7670 C   0  0  1  0  0  3  0  0  0  0  0  0
  186.8600  178.2110  137.7480 C   0  0  2  0  0  0  0  0  0  0  0  0
  186.4310  176.7350  137.4220 C   0  0  0  0  0  2  0  0  0  0  0  0
  185.0580  176.5360  136.7130 C   0  0  0  0  0  2  0  0  0  0  0  0
  185.9110  178.9990  138.4720 O   0  0  0  0  0  0  0  0  0  0  0  0
  185.2210  178.2050  139.4130 C   0  0  0  0  0  2  0  0  0  0  0  0
  187.1040  178.9230  136.4320 C   0  0  0  0  0  1  0  0  0  0  0  0
  182.8100  178.1820  139.1560 O   0  0  0  0  0  0  0  0  0  0  0  0
  182.6270  177.4780  136.8780 C   0  0  0  0  0  2  0  0  0  0  0  0
  181.9530  178.2710  138.0270 C   0  0  1  0  0  0  0  0  0  0  0  0
  179.5060  178.7510  138.7230 C   0  0  0  0  0  2  0  0  0  0  0  0
  181.1640  175.2950  139.2780 C   0  0  0  0  0  2  0  0  0  0  0  0
  181.2220  173.9140  137.1950 C   0  0  0  0  0  3  0  0  0  0  0  0
  180.8700  177.2790  140.9060 C   0  0  0  0  0  2  0  0  0  0  0  0
  178.9310  180.6100  140.2800 C   0  0  0  0  0  2  0  0  0  0  0  0
  179.6920  180.5110  142.6680 C   0  0  0  0  0  3  0  0  0  0  0  0
  179.5470  174.8110  135.9460 N   0  0  0  0  0  0  0  0  0  0  0  0
  179.0090  181.1370  141.6900 C   0  0  0  0  0  3  0  0  0  0  0  0
  179.9620  178.4830  141.2070 C   0  0  2  0  0  3  0  0  0  0  0  0
  179.9020  179.4590  140.0130 C   0  0  1  0  0  3  0  0  0  0  0  0
  180.4980  179.2650  142.4100 C   0  0  0  0  0  2  0  0  0  0  0  0
  180.6180  174.7850  137.9810 C   0  0  0  0  0  0  0  0  0  0  0  0
  180.4990  173.9390  135.9340 C   0  0  0  0  0  3  0  0  0  0  0  0
  179.9430  176.9690  137.0610 C   0  0  0  0  0  2  0  0  0  0  0  0
  179.5390  175.4910  137.2390 C   0  0  1  0  0  3  0  0  0  0  0  0
  180.5030  176.6580  139.5580 C   0  0  1  0  0  3  0  0  0  0  0  0
  180.5140  177.6530  138.3450 C   0  0  1  0  0  0  0  0  0  0  0  0
  182.3520  180.6380  138.3420 O   0  0  0  0  0  1  0  0  0  0  0  0
  181.2040  180.1160  136.4360 O   0  0  0  0  0  0  0  0  0  0  0  0
  181.8560  179.7330  137.5950 C   0  0  0  0  0  0  0  0  0  0  0  0
  188.1650  178.2490  138.5320 C   0  0  0  0  0  0  0  0  0  0  0  0
  188.6620  177.0580  139.0600 O   0  0  0  0  0  1  0  0  0  0  0  0
  188.9710  179.1970  138.2950 O   0  0  0  0  0  0  0  0  0  0  0  0
  1  5  1  6  0  0  0
  1  2  1  0  0  0  0
  2  9  1  0  0  0  0
  2  7  1  1  0  0  0
  3  8  1  6  0  0  0
  3  6  1  0  0  0  0
  3 32  1  0  0  0  0
  4  3  1  0  0  0  0
  5  4  1  0  0  0  0
  6  7  1  0  0  0  0
 10  1  1  0  0  0  0
 10 11  1  0  0  0  0
 11 31  1  6  0  0  0
 11 28  1  0  0  0  0
 11  9  1  0  0  0  0
 14 23  2  0  0  0  0
 16 19  1  0  0  0  0
 18 26  1  0  0  0  0
 19 17  2  0  0  0  0
 20 15  1  6  0  0  0
 20 22  1  0  0  0  0
 21 12  1  6  0  0  0
 21 16  1  0  0  0  0
 21 20  1  0  0  0  0
 22 17  1  0  0  0  0
 23 13  1  0  0  0  0
 24 18  2  0  0  0  0
 24 14  1  0  0  0  0
 26 25  1  6  0  0  0
 26 23  1  0  0  0  0
 27 13  1  6  0  0  0
 27 15  1  0  0  0  0
 28 25  1  6  0  0  0
 28 12  1  0  0  0  0
 28 27  1  0  0  0  0
 30 31  2  0  0  0  0
 31 29  1  0  0  0  0
 32 33  1  0  0  0  0
 34 32  2  0  0  0  0
M  END
>  <MODEL>
2

>  <REMARK>
 VINA RESULT:      -5.8      5.488      8.840
  Name = 
  3 active torsions:
  status: ('A' for Active; 'I' for Inactive)
    1  A    between atoms: C_7  and  C_11
    2  A    between atoms: C_18  and  C_33
    3  A    between atoms: C_33  and  C_34
                            x       y       z     vdW  Elec       q    Type
                         _______ _______ _______ _____ _____    ______ ____

>  <TORSDO>
F 3

$$$$
=
 OpenBabel11052415453D

 34 39  0  0  1  0  0  0  0  0999 V2000
  183.8750  177.9140  138.0840 C   0  0  1  0  0  3  0  0  0  0  0  0
  183.7310  176.5570  138.7040 C   0  0  1  0  0  3  0  0  0  0  0  0
  182.1190  178.7560  140.2310 C   0  0  2  0  0  0  0  0  0  0  0  0
  183.6740  178.9160  140.3870 C   0  0  0  0  0  2  0  0  0  0  0  0
  184.5220  178.9180  139.0800 C   0  0  0  0  0  2  0  0  0  0  0  0
  181.6750  177.6380  139.4570 O   0  0  0  0  0  0  0  0  0  0  0  0
  182.5160  176.5230  139.6650 C   0  0  0  0  0  2  0  0  0  0  0  0
  181.5940  179.9990  139.5430 C   0  0  0  0  0  1  0  0  0  0  0  0
  183.5480  175.6370  137.6590 O   0  0  0  0  0  0  0  0  0  0  0  0
  184.6250  177.6020  136.8250 C   0  0  0  0  0  2  0  0  0  0  0  0
  183.9970  176.2350  136.4520 C   0  0  1  0  0  0  0  0  0  0  0  0
  184.4100  174.2910  134.7920 C   0  0  0  0  0  2  0  0  0  0  0  0
  186.9960  175.2680  137.5050 C   0  0  0  0  0  2  0  0  0  0  0  0
  188.3530  177.2670  136.8600 C   0  0  0  0  0  3  0  0  0  0  0  0
  185.1860  173.4270  137.5210 C   0  0  0  0  0  2  0  0  0  0  0  0
  182.8210  172.3820  134.5940 C   0  0  0  0  0  2  0  0  0  0  0  0
  182.5300  170.8020  136.5200 C   0  0  0  0  0  3  0  0  0  0  0  0
  188.1840  177.2840  134.5940 N   0  0  0  0  0  0  0  0  0  0  0  0
  182.2400  171.1580  135.2540 C   0  0  0  0  0  3  0  0  0  0  0  0
  184.3830  172.5000  136.5920 C   0  0  2  0  0  3  0  0  0  0  0  0
  183.5500  173.3040  135.5720 C   0  0  1  0  0  3  0  0  0  0  0  0
  183.4070  171.6470  137.4080 C   0  0  0  0  0  2  0  0  0  0  0  0
  187.7270  176.1500  136.5410 C   0  0  0  0  0  0  0  0  0  0  0  0
  188.6490  177.9370  135.6050 C   0  0  0  0  0  3  0  0  0  0  0  0
  185.9820  176.2030  134.8020 C   0  0  0  0  0  2  0  0  0  0  0  0
  187.4970  176.0880  135.0730 C   0  0  1  0  0  3  0  0  0  0  0  0
  185.9570  174.4620  136.7030 C   0  0  1  0  0  3  0  0  0  0  0  0
  185.0810  175.3170  135.7210 C   0  0  1  0  0  0  0  0  0  0  0  0
  182.8970  177.3320  134.5950 O   0  0  0  0  0  0  0  0  0  0  0  0
  181.5600  175.9080  135.7800 O   0  0  0  0  0  1  0  0  0  0  0  0
  182.7890  176.5030  135.5560 C   0  0  0  0  0  0  0  0  0  0  0  0
  181.4330  178.6640  141.5870 C   0  0  0  0  0  0  0  0  0  0  0  0
  180.2200  177.9820  141.6770 O   0  0  0  0  0  0  0  0  0  0  0  0
  182.1530  178.7730  142.6240 O   0  0  0  0  0  1  0  0  0  0  0  0
  1 10  1  6  0  0  0
  1  2  1  0  0  0  0
  1  5  1  0  0  0  0
  2  7  1  1  0  0  0
  3  8  1  6  0  0  0
  3  4  1  0  0  0  0
  3 32  1  0  0  0  0
  5  4  1  0  0  0  0
  6  7  1  0  0  0  0
  6  3  1  0  0  0  0
  9  2  1  0  0  0  0
 11 31  1  6  0  0  0
 11 10  1  0  0  0  0
 11  9  1  0  0  0  0
 12 21  1  0  0  0  0
 16 19  1  0  0  0  0
 17 22  1  0  0  0  0
 18 26  1  0  0  0  0
 18 24  2  0  0  0  0
 19 17  2  0  0  0  0
 20 22  1  1  0  0  0
 20 15  1  0  0  0  0
 21 16  1  6  0  0  0
 21 20  1  0  0  0  0
 23 14  2  0  0  0  0
 23 13  1  0  0  0  0
 24 14  1  0  0  0  0
 25 28  1  0  0  0  0
 26 25  1  1  0  0  0
 26 23  1  0  0  0  0
 27 13  1  1  0  0  0
 27 15  1  0  0  0  0
 28 12  1  6  0  0  0
 28 11  1  0  0  0  0
 28 27  1  0  0  0  0
 29 31  2  0  0  0  0
 31 30  1  0  0  0  0
 32 33  2  0  0  0  0
 32 34  1  0  0  0  0
M  END
>  <MODEL>
3

>  <REMARK>
 VINA RESULT:      -5.1      4.776      6.615
  Name = 
  3 active torsions:
  status: ('A' for Active; 'I' for Inactive)
    1  A    between atoms: C_7  and  C_11
    2  A    between atoms: C_18  and  C_33
    3  A    between atoms: C_33  and  C_34
                            x       y       z     vdW  Elec       q    Type
                         _______ _______ _______ _____ _____    ______ ____

>  <TORSDO>
F 3

$$$$
=
 OpenBabel11052415453D

 34 39  0  0  1  0  0  0  0  0999 V2000
  183.0580  177.3220  136.9090 C   0  0  1  0  0  3  0  0  0  0  0  0
  182.1270  176.6030  137.8380 C   0  0  1  0  0  3  0  0  0  0  0  0
  184.3590  174.7410  136.6950 C   0  0  2  0  0  0  0  0  0  0  0  0
  183.3100  175.1770  135.6100 C   0  0  0  0  0  2  0  0  0  0  0  0
  183.0140  176.7020  135.4840 C   0  0  0  0  0  2  0  0  0  0  0  0
  184.1320  175.2210  138.0220 O   0  0  0  0  0  0  0  0  0  0  0  0
  182.7490  175.2630  138.3050 C   0  0  0  0  0  2  0  0  0  0  0  0
  185.7140  175.2690  136.2670 C   0  0  0  0  0  1  0  0  0  0  0  0
  181.9040  177.4450  138.9400 O   0  0  0  0  0  0  0  0  0  0  0  0
  182.6140  178.7440  137.0630 C   0  0  0  0  0  2  0  0  0  0  0  0
  182.2600  178.7690  138.5720 C   0  0  1  0  0  0  0  0  0  0  0  0
  181.0700  180.3120  140.2770 C   0  0  0  0  0  2  0  0  0  0  0  0
  179.2400  178.8580  137.1880 C   0  0  0  0  0  2  0  0  0  0  0  0
  179.7560  180.1150  135.0900 C   0  0  0  0  0  3  0  0  0  0  0  0
  179.3000  178.0220  139.6310 C   0  0  0  0  0  2  0  0  0  0  0  0
  180.9780  179.7520  142.7040 C   0  0  0  0  0  2  0  0  0  0  0  0
  179.6820  177.7460  143.4680 C   0  0  0  0  0  3  0  0  0  0  0  0
  180.4230  182.1450  135.8660 N   0  0  0  0  0  0  0  0  0  0  0  0
  180.4230  178.8310  143.7600 C   0  0  0  0  0  3  0  0  0  0  0  0
  179.4750  178.5070  141.0810 C   0  0  2  0  0  3  0  0  0  0  0  0
  180.8410  179.1930  141.2870 C   0  0  1  0  0  3  0  0  0  0  0  0
  179.4090  177.3210  142.0480 C   0  0  0  0  0  2  0  0  0  0  0  0
  179.5340  180.0900  136.3900 C   0  0  0  0  0  0  0  0  0  0  0  0
  180.2870  181.4360  134.7960 C   0  0  0  0  0  3  0  0  0  0  0  0
  181.2200  181.0400  137.9160 C   0  0  0  0  0  2  0  0  0  0  0  0
  180.0040  181.3540  137.0190 C   0  0  1  0  0  3  0  0  0  0  0  0
  179.6330  179.1460  138.6500 C   0  0  1  0  0  3  0  0  0  0  0  0
  181.0540  179.7850  138.8320 C   0  0  1  0  0  0  0  0  0  0  0  0
  183.9460  178.4210  140.2740 O   0  0  0  0  0  1  0  0  0  0  0  0
  184.1800  180.3630  139.0920 O   0  0  0  0  0  0  0  0  0  0  0  0
  183.5150  179.1750  139.3410 C   0  0  0  0  0  0  0  0  0  0  0  0
  184.4710  173.2240  136.7800 C   0  0  0  0  0  0  0  0  0  0  0  0
  184.9300  172.6530  137.9660 O   0  0  0  0  0  1  0  0  0  0  0  0
  183.7390  172.5330  136.0110 O   0  0  0  0  0  0  0  0  0  0  0  0
  1  5  1  6  0  0  0
  1 10  1  0  0  0  0
  1  2  1  0  0  0  0
  2  7  1  1  0  0  0
  2  9  1  0  0  0  0
  3  8  1  6  0  0  0
  3 32  1  0  0  0  0
  3  6  1  0  0  0  0
  4  3  1  0  0  0  0
  5  4  1  0  0  0  0
  6  7  1  0  0  0  0
 10 11  1  0  0  0  0
 11 28  1  0  0  0  0
 11  9  1  0  0  0  0
 11 31  1  1  0  0  0
 14 23  2  0  0  0  0
 16 19  1  0  0  0  0
 17 19  2  0  0  0  0
 18 26  1  0  0  0  0
 20 15  1  6  0  0  0
 20 21  1  0  0  0  0
 20 22  1  0  0  0  0
 21 12  1  6  0  0  0
 21 16  1  0  0  0  0
 22 17  1  0  0  0  0
 23 26  1  0  0  0  0
 23 13  1  0  0  0  0
 24 14  1  0  0  0  0
 24 18  2  0  0  0  0
 26 25  1  1  0  0  0
 27 13  1  6  0  0  0
 27 28  1  0  0  0  0
 27 15  1  0  0  0  0
 28 25  1  6  0  0  0
 28 12  1  0  0  0  0
 30 31  2  0  0  0  0
 31 29  1  0  0  0  0
 32 33  1  0  0  0  0
 34 32  2  0  0  0  0
M  END
>  <MODEL>
4

>  <REMARK>
 VINA RESULT:      -5.0      6.251      9.975
  Name = 
  3 active torsions:
  status: ('A' for Active; 'I' for Inactive)
    1  A    between atoms: C_7  and  C_11
    2  A    between atoms: C_18  and  C_33
    3  A    between atoms: C_33  and  C_34
                            x       y       z     vdW  Elec       q    Type
                         _______ _______ _______ _____ _____    ______ ____

>  <TORSDO>
F 3

$$$$
=
 OpenBabel11052415453D

 34 39  0  0  1  0  0  0  0  0999 V2000
  182.2820  178.0340  138.6000 C   0  0  1  0  0  3  0  0  0  0  0  0
  182.0490  176.6260  139.0590 C   0  0  1  0  0  3  0  0  0  0  0  0
  180.8440  178.7440  141.0150 C   0  0  2  0  0  0  0  0  0  0  0  0
  182.4150  178.7290  141.0190 C   0  0  0  0  0  2  0  0  0  0  0  0
  183.1290  178.8260  139.6380 C   0  0  0  0  0  2  0  0  0  0  0  0
  180.2060  177.7910  140.1610 O   0  0  0  0  0  0  0  0  0  0  0  0
  180.9340  176.5810  140.1350 C   0  0  0  0  0  2  0  0  0  0  0  0
  180.3960  180.1150  140.5490 C   0  0  0  0  0  1  0  0  0  0  0  0
  181.6660  175.8780  137.9330 O   0  0  0  0  0  0  0  0  0  0  0  0
  182.8700  177.8240  137.2390 C   0  0  0  0  0  2  0  0  0  0  0  0
  182.0610  176.5880  136.7690 C   0  0  1  0  0  0  0  0  0  0  0  0
  182.0950  174.8530  134.8470 C   0  0  0  0  0  2  0  0  0  0  0  0
  185.0250  175.2070  137.3560 C   0  0  0  0  0  2  0  0  0  0  0  0
  186.5220  177.1350  136.8150 C   0  0  0  0  0  3  0  0  0  0  0  0
  183.0350  173.5610  137.3460 C   0  0  0  0  0  2  0  0  0  0  0  0
  180.2960  173.1480  134.5940 C   0  0  0  0  0  2  0  0  0  0  0  0
  180.0230  171.3610  136.3320 C   0  0  0  0  0  3  0  0  0  0  0  0
  186.1360  177.4700  134.6000 N   0  0  0  0  0  0  0  0  0  0  0  0
  179.6520  171.9080  135.1590 C   0  0  0  0  0  3  0  0  0  0  0  0
  182.0480  172.8480  136.4050 C   0  0  2  0  0  3  0  0  0  0  0  0
  181.2130  173.8570  135.5910 C   0  0  1  0  0  3  0  0  0  0  0  0
  181.0700  171.9910  137.2140 C   0  0  0  0  0  2  0  0  0  0  0  0
  185.7510  176.1350  136.4320 C   0  0  0  0  0  0  0  0  0  0  0  0
  186.7660  177.9350  135.6260 C   0  0  0  0  0  3  0  0  0  0  0  0
  183.8600  176.5870  134.9170 C   0  0  0  0  0  2  0  0  0  0  0  0
  185.3720  176.2920  135.0020 C   0  0  1  0  0  3  0  0  0  0  0  0
  183.8310  174.6190  136.5810 C   0  0  1  0  0  3  0  0  0  0  0  0
  182.9620  175.6770  135.8150 C   0  0  1  0  0  0  0  0  0  0  0  0
  179.6630  176.7200  136.4600 O   0  0  0  0  0  1  0  0  0  0  0  0
  180.8810  177.9070  134.9340 O   0  0  0  0  0  0  0  0  0  0  0  0
  180.8100  177.0920  136.0500 C   0  0  0  0  0  0  0  0  0  0  0  0
  180.2840  178.5360  142.4160 C   0  0  0  0  0  0  0  0  0  0  0  0
  181.0150  179.0100  143.5040 O   0  0  0  0  0  1  0  0  0  0  0  0
  179.0310  178.3880  142.5370 O   0  0  0  0  0  0  0  0  0  0  0  0
  1 10  1  6  0  0  0
  1  2  1  0  0  0  0
  1  5  1  0  0  0  0
  2  7  1  1  0  0  0
  3  8  1  6  0  0  0
  3  4  1  0  0  0  0
  3 32  1  0  0  0  0
  5  4  1  0  0  0  0
  6  3  1  0  0  0  0
  7  6  1  0  0  0  0
  9  2  1  0  0  0  0
 11 31  1  6  0  0  0
 11 10  1  0  0  0  0
 11  9  1  0  0  0  0
 12 21  1  0  0  0  0
 16 19  1  0  0  0  0
 17 22  1  0  0  0  0
 18 26  1  0  0  0  0
 18 24  2  0  0  0  0
 19 17  2  0  0  0  0
 20 22  1  1  0  0  0
 20 15  1  0  0  0  0
 21 16  1  6  0  0  0
 21 20  1  0  0  0  0
 23 14  2  0  0  0  0
 23 13  1  0  0  0  0
 24 14  1  0  0  0  0
 25 28  1  0  0  0  0
 26 25  1  1  0  0  0
 26 23  1  0  0  0  0
 27 15  1  1  0  0  0
 27 13  1  0  0  0  0
 28 12  1  6  0  0  0
 28 27  1  0  0  0  0
 28 11  1  0  0  0  0
 30 31  2  0  0  0  0
 31 29  1  0  0  0  0
 32 34  2  0  0  0  0
 32 33  1  0  0  0  0
M  END
>  <MODEL>
5

>  <REMARK>
 VINA RESULT:      -4.7      5.857      7.941
  Name = 
  3 active torsions:
  status: ('A' for Active; 'I' for Inactive)
    1  A    between atoms: C_7  and  C_11
    2  A    between atoms: C_18  and  C_33
    3  A    between atoms: C_33  and  C_34
                            x       y       z     vdW  Elec       q    Type
                         _______ _______ _______ _____ _____    ______ ____

>  <TORSDO>
F 3

$$$$
=
 OpenBabel11052415453D

 34 39  0  0  1  0  0  0  0  0999 V2000
  190.6610  177.3840  140.6300 C   0  0  1  0  0  3  0  0  0  0  0  0
  189.6580  176.3390  141.0150 C   0  0  1  0  0  3  0  0  0  0  0  0
  190.6730  177.9900  143.4650 C   0  0  2  0  0  0  0  0  0  0  0  0
  191.7730  177.0420  142.8660 C   0  0  0  0  0  2  0  0  0  0  0  0
  192.0270  177.1310  141.3310 C   0  0  0  0  0  2  0  0  0  0  0  0
  189.3880  177.9410  142.8380 O   0  0  0  0  0  0  0  0  0  0  0  0
  189.0860  176.6240  142.4270 C   0  0  0  0  0  2  0  0  0  0  0  0
  191.1680  179.4160  143.3310 C   0  0  0  0  0  1  0  0  0  0  0  0
  188.6290  176.3760  140.0590 O   0  0  0  0  0  0  0  0  0  0  0  0
  190.6240  177.3160  139.1350 C   0  0  0  0  0  2  0  0  0  0  0  0
  189.1170  177.0370  138.9010 C   0  0  1  0  0  0  0  0  0  0  0  0
  189.8960  174.9420  137.5940 C   0  0  0  0  0  2  0  0  0  0  0  0
  188.1330  177.9190  135.8520 C   0  0  0  0  0  2  0  0  0  0  0  0
  185.6520  177.8780  136.1630 C   0  0  0  0  0  3  0  0  0  0  0  0
  190.6480  177.3770  136.0760 C   0  0  0  0  0  2  0  0  0  0  0  0
  192.2700  174.1850  137.6340 C   0  0  0  0  0  2  0  0  0  0  0  0
  194.0490  175.6140  136.5950 C   0  0  0  0  0  3  0  0  0  0  0  0
  185.2350  175.6900  136.6190 N   0  0  0  0  0  0  0  0  0  0  0  0
  193.6890  174.4760  137.2170 C   0  0  0  0  0  3  0  0  0  0  0  0
  191.6320  176.2050  136.2360 C   0  0  2  0  0  3  0  0  0  0  0  0
  191.3490  175.4000  137.5210 C   0  0  1  0  0  3  0  0  0  0  0  0
  193.0680  176.7280  136.3320 C   0  0  0  0  0  2  0  0  0  0  0  0
  186.7990  177.2510  135.9830 C   0  0  0  0  0  0  0  0  0  0  0  0
  184.6870  176.8560  136.5340 C   0  0  0  0  0  3  0  0  0  0  0  0
  187.4890  175.5180  137.5930 C   0  0  0  0  0  2  0  0  0  0  0  0
  186.6600  175.8100  136.3250 C   0  0  1  0  0  3  0  0  0  0  0  0
  189.2090  176.8920  136.2520 C   0  0  1  0  0  3  0  0  0  0  0  0
  188.9250  176.1340  137.5970 C   0  0  1  0  0  0  0  0  0  0  0  0
  189.0560  179.3890  138.3300 O   0  0  0  0  0  0  0  0  0  0  0  0
  187.0880  178.5600  139.1440 O   0  0  0  0  0  1  0  0  0  0  0  0
  188.4070  178.3830  138.7650 C   0  0  0  0  0  0  0  0  0  0  0  0
  190.4590  177.7220  144.9490 C   0  0  0  0  0  0  0  0  0  0  0  0
  191.5600  177.3770  145.7310 O   0  0  0  0  0  1  0  0  0  0  0  0
  189.4530  178.2530  145.5070 O   0  0  0  0  0  0  0  0  0  0  0  0
  1 10  1  6  0  0  0
  1  2  1  0  0  0  0
  1  5  1  0  0  0  0
  2  7  1  1  0  0  0
  3  8  1  6  0  0  0
  3 32  1  0  0  0  0
  4  3  1  0  0  0  0
  5  4  1  0  0  0  0
  6  3  1  0  0  0  0
  7  6  1  0  0  0  0
  9  2  1  0  0  0  0
 11 31  1  6  0  0  0
 11 10  1  0  0  0  0
 11  9  1  0  0  0  0
 12 28  1  0  0  0  0
 13 23  1  0  0  0  0
 14 24  1  0  0  0  0
 15 27  1  0  0  0  0
 17 19  2  0  0  0  0
 19 16  1  0  0  0  0
 20 15  1  1  0  0  0
 20 22  1  0  0  0  0
 20 21  1  0  0  0  0
 21 12  1  6  0  0  0
 21 16  1  0  0  0  0
 22 17  1  0  0  0  0
 23 14  2  0  0  0  0
 23 26  1  0  0  0  0
 24 18  2  0  0  0  0
 26 18  1  0  0  0  0
 26 25  1  1  0  0  0
 27 13  1  1  0  0  0
 27 28  1  0  0  0  0
 28 25  1  6  0  0  0
 28 11  1  0  0  0  0
 29 31  2  0  0  0  0
 31 30  1  0  0  0  0
 32 34  2  0  0  0  0
 32 33  1  0  0  0  0
M  END
>  <MODEL>
6

>  <REMARK>
 VINA RESULT:      -4.6      1.590      4.544
  Name = 
  3 active torsions:
  status: ('A' for Active; 'I' for Inactive)
    1  A    between atoms: C_7  and  C_11
    2  A    between atoms: C_18  and  C_33
    3  A    between atoms: C_33  and  C_34
                            x       y       z     vdW  Elec       q    Type
                         _______ _______ _______ _____ _____    ______ ____

>  <TORSDO>
F 3

$$$$
=
 OpenBabel11052415453D

 34 39  0  0  1  0  0  0  0  0999 V2000
  184.5810  176.5080  137.3330 C   0  0  1  0  0  3  0  0  0  0  0  0
  184.3830  177.1490  135.9930 C   0  0  1  0  0  3  0  0  0  0  0  0
  187.3210  177.4030  137.0240 C   0  0  2  0  0  0  0  0  0  0  0  0
  186.3050  178.2730  137.8480 C   0  0  0  0  0  2  0  0  0  0  0  0
  185.0330  177.5540  138.3910 C   0  0  0  0  0  2  0  0  0  0  0  0
  186.7750  176.6610  135.9300 O   0  0  0  0  0  0  0  0  0  0  0  0
  185.7460  177.3930  135.2980 C   0  0  0  0  0  2  0  0  0  0  0  0
  187.9370  176.3920  137.9710 C   0  0  0  0  0  1  0  0  0  0  0  0
  183.5970  176.2750  135.2240 O   0  0  0  0  0  0  0  0  0  0  0  0
  183.2660  175.8250  137.5490 C   0  0  0  0  0  2  0  0  0  0  0  0
  182.9410  175.3730  136.1020 C   0  0  1  0  0  0  0  0  0  0  0  0
  180.9400  176.5470  134.9530 C   0  0  0  0  0  2  0  0  0  0  0  0
  180.5030  174.3610  138.1200 C   0  0  0  0  0  2  0  0  0  0  0  0
  180.4910  171.9150  137.6010 C   0  0  0  0  0  3  0  0  0  0  0  0
  180.7380  176.9220  137.8870 C   0  0  0  0  0  2  0  0  0  0  0  0
  180.9030  179.0130  134.5940 C   0  0  0  0  0  2  0  0  0  0  0  0
  180.7980  180.5550  136.5690 C   0  0  0  0  0  3  0  0  0  0  0  0
  179.8910  171.8650  135.4090 N   0  0  0  0  0  0  0  0  0  0  0  0
  180.8130  180.3750  135.2340 C   0  0  0  0  0  3  0  0  0  0  0  0
  180.4740  178.0870  136.9180 C   0  0  2  0  0  3  0  0  0  0  0  0
  181.2350  177.9010  135.5890 C   0  0  1  0  0  3  0  0  0  0  0  0
  180.9460  179.4070  137.5340 C   0  0  0  0  0  2  0  0  0  0  0  0
  180.1800  173.1580  137.2870 C   0  0  0  0  0  0  0  0  0  0  0  0
  180.2670  171.1280  136.4000 C   0  0  0  0  0  3  0  0  0  0  0  0
  180.9300  174.0780  135.1280 C   0  0  0  0  0  2  0  0  0  0  0  0
  179.8370  173.2570  135.8440 C   0  0  1  0  0  3  0  0  0  0  0  0
  180.5250  175.5830  137.1820 C   0  0  1  0  0  3  0  0  0  0  0  0
  181.3600  175.3850  135.8680 C   0  0  1  0  0  0  0  0  0  0  0  0
  183.6050  173.1850  136.8990 O   0  0  0  0  0  1  0  0  0  0  0  0
  184.0270  173.5540  134.6840 O   0  0  0  0  0  0  0  0  0  0  0  0
  183.5290  173.9760  135.9040 C   0  0  0  0  0  0  0  0  0  0  0  0
  188.4560  178.2530  136.4690 C   0  0  0  0  0  0  0  0  0  0  0  0
  188.8560  179.3810  137.1830 O   0  0  0  0  0  1  0  0  0  0  0  0
  189.2830  177.6990  135.6850 O   0  0  0  0  0  0  0  0  0  0  0  0
  1 10  1  1  0  0  0
  1  5  1  0  0  0  0
  2  7  1  6  0  0  0
  2  1  1  0  0  0  0
  3  4  1  0  0  0  0
  3  8  1  1  0  0  0
  4  5  1  0  0  0  0
  6  3  1  0  0  0  0
  7  6  1  0  0  0  0
  9  2  1  0  0  0  0
  9 11  1  0  0  0  0
 11 31  1  6  0  0  0
 11 10  1  0  0  0  0
 12 21  1  0  0  0  0
 16 19  1  0  0  0  0
 17 22  1  0  0  0  0
 18 26  1  0  0  0  0
 18 24  2  0  0  0  0
 19 17  2  0  0  0  0
 20 22  1  1  0  0  0
 20 15  1  0  0  0  0
 21 16  1  6  0  0  0
 21 20  1  0  0  0  0
 23 14  2  0  0  0  0
 23 13  1  0  0  0  0
 24 14  1  0  0  0  0
 25 28  1  0  0  0  0
 26 25  1  6  0  0  0
 26 23  1  0  0  0  0
 27 15  1  1  0  0  0
 27 13  1  0  0  0  0
 28 12  1  6  0  0  0
 28 11  1  0  0  0  0
 28 27  1  0  0  0  0
 30 31  2  0  0  0  0
 31 29  1  0  0  0  0
 32  3  1  0  0  0  0
 32 33  1  0  0  0  0
 34 32  2  0  0  0  0
M  END
>  <MODEL>
7

>  <REMARK>
 VINA RESULT:      -4.6      4.824      8.647
  Name = 
  3 active torsions:
  status: ('A' for Active; 'I' for Inactive)
    1  A    between atoms: C_7  and  C_11
    2  A    between atoms: C_18  and  C_33
    3  A    between atoms: C_33  and  C_34
                            x       y       z     vdW  Elec       q    Type
                         _______ _______ _______ _____ _____    ______ ____

>  <TORSDO>
F 3

$$$$
=
 OpenBabel11052415453D

 34 39  0  0  1  0  0  0  0  0999 V2000
  183.2640  177.1940  137.0110 C   0  0  1  0  0  3  0  0  0  0  0  0
  183.2510  175.8010  137.5640 C   0  0  1  0  0  3  0  0  0  0  0  0
  185.8930  176.4620  136.0320 C   0  0  2  0  0  0  0  0  0  0  0  0
  184.6460  176.3440  135.0830 C   0  0  0  0  0  2  0  0  0  0  0  0
  183.3860  177.1790  135.4600 C   0  0  0  0  0  2  0  0  0  0  0  0
  185.6520  176.2260  137.4220 O   0  0  0  0  0  0  0  0  0  0  0  0
  184.6840  175.2130  137.5940 C   0  0  0  0  0  2  0  0  0  0  0  0
  186.4300  177.8740  135.9160 C   0  0  0  0  0  1  0  0  0  0  0  0
  182.7290  175.8730  138.8660 O   0  0  0  0  0  0  0  0  0  0  0  0
  182.0190  177.7760  137.6050 C   0  0  0  0  0  2  0  0  0  0  0  0
  182.0260  177.1000  138.9990 C   0  0  1  0  0  0  0  0  0  0  0  0
  180.2090  175.3540  139.5950 C   0  0  0  0  0  2  0  0  0  0  0  0
  179.3210  178.9740  138.5420 C   0  0  0  0  0  2  0  0  0  0  0  0
  179.6020  180.6110  140.4110 C   0  0  0  0  0  3  0  0  0  0  0  0
  179.4000  176.8070  137.1400 C   0  0  0  0  0  2  0  0  0  0  0  0
  180.0540  173.1710  138.4030 C   0  0  0  0  0  2  0  0  0  0  0  0
  179.4410  173.1230  135.9720 C   0  0  0  0  0  3  0  0  0  0  0  0
  179.4540  179.2980  142.2610 N   0  0  0  0  0  0  0  0  0  0  0  0
  179.7340  172.4650  137.1100 C   0  0  0  0  0  3  0  0  0  0  0  0
  179.2440  175.2800  137.2470 C   0  0  2  0  0  3  0  0  0  0  0  0
  180.2660  174.6750  138.2310 C   0  0  1  0  0  3  0  0  0  0  0  0
  179.4820  174.6260  135.8820 C   0  0  0  0  0  2  0  0  0  0  0  0
  179.2640  179.4140  139.9730 C   0  0  0  0  0  0  0  0  0  0  0  0
  179.6820  180.5040  141.8590 C   0  0  0  0  0  3  0  0  0  0  0  0
  180.3550  177.4270  140.9400 C   0  0  0  0  0  2  0  0  0  0  0  0
  179.2080  178.4460  141.1010 C   0  0  1  0  0  3  0  0  0  0  0  0
  179.4360  177.4380  138.5320 C   0  0  1  0  0  3  0  0  0  0  0  0
  180.5280  176.8560  139.4960 C   0  0  1  0  0  0  0  0  0  0  0  0
  182.7510  179.2700  139.7910 O   0  0  0  0  0  0  0  0  0  0  0  0
  183.5840  177.5030  140.9760 O   0  0  0  0  0  1  0  0  0  0  0  0
  182.7960  178.0080  139.9570 C   0  0  0  0  0  0  0  0  0  0  0  0
  187.0070  175.5170  135.6040 C   0  0  0  0  0  0  0  0  0  0  0  0
  188.0740  175.3030  136.4750 O   0  0  0  0  0  1  0  0  0  0  0  0
  186.7320  174.6280  134.7430 O   0  0  0  0  0  0  0  0  0  0  0  0
  1  5  1  6  0  0  0
  1  2  1  0  0  0  0
  1 10  1  0  0  0  0
  2  7  1  1  0  0  0
  2  9  1  0  0  0  0
  3  8  1  6  0  0  0
  3  6  1  0  0  0  0
  4  5  1  0  0  0  0
  4  3  1  0  0  0  0
  6  7  1  0  0  0  0
  9 11  1  0  0  0  0
 10 11  1  0  0  0  0
 11 28  1  0  0  0  0
 11 31  1  1  0  0  0
 13 23  1  0  0  0  0
 14 24  1  0  0  0  0
 15 20  1  0  0  0  0
 17 19  2  0  0  0  0
 19 16  1  0  0  0  0
 20 22  1  6  0  0  0
 20 21  1  0  0  0  0
 21 16  1  1  0  0  0
 21 12  1  0  0  0  0
 22 17  1  0  0  0  0
 23 14  2  0  0  0  0
 23 26  1  0  0  0  0
 24 18  2  0  0  0  0
 26 25  1  6  0  0  0
 26 18  1  0  0  0  0
 27 15  1  6  0  0  0
 27 13  1  0  0  0  0
 27 28  1  0  0  0  0
 28 12  1  1  0  0  0
 28 25  1  0  0  0  0
 29 31  2  0  0  0  0
 31 30  1  0  0  0  0
 32  3  1  0  0  0  0
 32 33  1  0  0  0  0
 34 32  2  0  0  0  0
M  END
>  <MODEL>
8

>  <REMARK>
 VINA RESULT:      -4.5      5.869      9.734
  Name = 
  3 active torsions:
  status: ('A' for Active; 'I' for Inactive)
    1  A    between atoms: C_7  and  C_11
    2  A    between atoms: C_18  and  C_33
    3  A    between atoms: C_33  and  C_34
                            x       y       z     vdW  Elec       q    Type
                         _______ _______ _______ _____ _____    ______ ____

>  <TORSDO>
F 3

$$$$
=
 OpenBabel11052415453D

 34 39  0  0  1  0  0  0  0  0999 V2000
  183.5310  177.4690  136.7550 C   0  0  1  0  0  3  0  0  0  0  0  0
  182.9390  176.3230  137.5180 C   0  0  1  0  0  3  0  0  0  0  0  0
  185.6630  175.5920  136.1750 C   0  0  2  0  0  0  0  0  0  0  0  0
  184.5030  175.8000  135.1350 C   0  0  0  0  0  2  0  0  0  0  0  0
  183.6790  177.1180  135.2470 C   0  0  0  0  0  2  0  0  0  0  0  0
  185.3080  175.7340  137.5530 O   0  0  0  0  0  0  0  0  0  0  0  0
  184.0090  175.2340  137.7850 C   0  0  0  0  0  2  0  0  0  0  0  0
  186.7300  176.6300  135.8900 C   0  0  0  0  0  1  0  0  0  0  0  0
  182.4550  176.8360  138.7330 O   0  0  0  0  0  0  0  0  0  0  0  0
  182.6120  178.5940  137.1200 C   0  0  0  0  0  2  0  0  0  0  0  0
  182.3060  178.2410  138.5980 C   0  0  1  0  0  0  0  0  0  0  0  0
  180.2800  177.9160  140.1770 C   0  0  0  0  0  2  0  0  0  0  0  0
  179.9060  179.4310  136.6320 C   0  0  0  0  0  2  0  0  0  0  0  0
  180.5640  181.8410  136.5460 C   0  0  0  0  0  3  0  0  0  0  0  0
  179.5490  177.0080  137.4500 C   0  0  0  0  0  2  0  0  0  0  0  0
  179.7040  175.6820  141.1200 C   0  0  0  0  0  2  0  0  0  0  0  0
  178.9310  173.8500  139.5920 C   0  0  0  0  0  3  0  0  0  0  0  0
  180.3350  182.5060  138.7080 N   0  0  0  0  0  0  0  0  0  0  0  0
  179.1920  174.2930  140.8370 C   0  0  0  0  0  3  0  0  0  0  0  0
  179.1620  176.1850  138.6920 C   0  0  2  0  0  3  0  0  0  0  0  0
  180.1390  176.4320  139.8600 C   0  0  1  0  0  3  0  0  0  0  0  0
  179.2020  174.6880  138.3700 C   0  0  0  0  0  2  0  0  0  0  0  0
  180.0140  180.8220  137.1770 C   0  0  0  0  0  0  0  0  0  0  0  0
  180.7230  182.8920  137.5380 C   0  0  0  0  0  3  0  0  0  0  0  0
  180.8390  180.2030  139.4150 C   0  0  0  0  0  2  0  0  0  0  0  0
  179.8810  181.1210  138.6280 C   0  0  1  0  0  3  0  0  0  0  0  0
  179.7760  178.4710  137.8300 C   0  0  1  0  0  3  0  0  0  0  0  0
  180.8240  178.7040  138.9740 C   0  0  1  0  0  0  0  0  0  0  0  0
  183.5700  178.4960  140.6470 O   0  0  0  0  0  1  0  0  0  0  0  0
  184.0410  180.0550  139.0440 O   0  0  0  0  0  0  0  0  0  0  0  0
  183.3510  178.9340  139.4710 C   0  0  0  0  0  0  0  0  0  0  0  0
  186.3100  174.2230  136.0160 C   0  0  0  0  0  0  0  0  0  0  0  0
  186.9790  173.6700  137.1070 O   0  0  0  0  0  1  0  0  0  0  0  0
  185.8480  173.4490  135.1250 O   0  0  0  0  0  0  0  0  0  0  0  0
  1  5  1  6  0  0  0
  1 10  1  0  0  0  0
  1  2  1  0  0  0  0
  2  7  1  1  0  0  0
  2  9  1  0  0  0  0
  3  8  1  6  0  0  0
  3  6  1  0  0  0  0
  4  5  1  0  0  0  0
  4  3  1  0  0  0  0
  6  7  1  0  0  0  0
 10 11  1  0  0  0  0
 11  9  1  0  0  0  0
 11 28  1  0  0  0  0
 11 31  1  1  0  0  0
 13 23  1  0  0  0  0
 14 23  2  0  0  0  0
 14 24  1  0  0  0  0
 15 27  1  0  0  0  0
 17 19  2  0  0  0  0
 19 16  1  0  0  0  0
 20 15  1  6  0  0  0
 20 21  1  0  0  0  0
 21 12  1  1  0  0  0
 21 16  1  0  0  0  0
 22 20  1  0  0  0  0
 22 17  1  0  0  0  0
 23 26  1  0  0  0  0
 24 18  2  0  0  0  0
 26 18  1  0  0  0  0
 26 25  1  1  0  0  0
 27 13  1  6  0  0  0
 27 28  1  0  0  0  0
 28 25  1  1  0  0  0
 28 12  1  0  0  0  0
 30 31  2  0  0  0  0
 31 29  1  0  0  0  0
 32  3  1  0  0  0  0
 32 33  1  0  0  0  0
 34 32  2  0  0  0  0
M  END
>  <MODEL>
9

>  <REMARK>
 VINA RESULT:      -4.3      5.888      9.622
  Name = 
  3 active torsions:
  status: ('A' for Active; 'I' for Inactive)
    1  A    between atoms: C_7  and  C_11
    2  A    between atoms: C_18  and  C_33
    3  A    between atoms: C_33  and  C_34
                            x       y       z     vdW  Elec       q    Type
                         _______ _______ _______ _____ _____    ______ ____

>  <TORSDO>
F 3

$$$$
