=
 OpenBabel11052413103D

 31 35  0  0  1  0  0  0  0  0999 V2000
  189.3190  176.5230  142.3510 C   0  0  0  0  0  0  0  0  0  0  0  0
  186.1130  178.3410  142.8550 N   0  0  0  0  0  0  0  0  0  0  0  0
  185.8840  178.3880  144.2890 C   0  0  0  0  0  0  0  0  0  0  0  0
  186.7190  178.3950  146.5800 C   0  0  0  0  0  0  0  0  0  0  0  0
  187.4770  178.1620  142.3000 C   0  0  1  0  0  3  0  0  0  0  0  0
  189.6590  176.9080  141.0420 O   0  0  0  0  0  0  0  0  0  0  0  0
  186.9510  178.3590  145.2040 C   0  0  0  0  0  3  0  0  0  0  0  0
  185.2030  178.6700  140.5060 C   0  0  1  0  0  3  0  0  0  0  0  0
  190.1170  175.4750  143.0400 C   0  0  0  0  0  1  0  0  0  0  0  0
  183.3840  178.6370  143.8790 C   0  0  0  0  0  2  0  0  0  0  0  0
  187.8630  178.3520  147.5270 C   0  0  0  0  0  1  0  0  0  0  0  0
  186.6380  178.9350  140.0930 C   0  0  0  0  0  2  0  0  0  0  0  0
  185.0130  178.8680  142.0150 C   0  0  1  0  0  3  0  0  0  0  0  0
  188.2570  177.0550  142.9630 C   0  0  0  0  0  3  0  0  0  0  0  0
  185.4140  178.4720  147.0650 C   0  0  0  0  0  3  0  0  0  0  0  0
  187.4740  177.9020  140.7960 C   0  0  1  0  0  3  0  0  0  0  0  0
  188.9200  177.9010  140.3180 C   0  0  0  0  0  2  0  0  0  0  0  0
  183.7000  178.2290  142.4460 C   0  0  0  0  0  2  0  0  0  0  0  0
  184.5640  178.4740  144.7940 C   0  0  0  0  0  0  0  0  0  0  0  0
  184.3410  178.5200  146.1740 C   0  0  0  0  0  3  0  0  0  0  0  0
  182.8550  177.8630  139.1160 O   0  0  0  0  0  0  0  0  0  0  0  0
  183.1460  179.0900  139.0860 C   0  0  0  0  0  0  0  0  0  0  0  0
  184.3080  179.5580  139.7780 N   0  0  0  0  0  2  0  0  0  0  0  0
  180.7080  181.9490  137.0080 C   0  0  0  0  0  0  0  0  0  0  0  0
  182.2270  181.3780  138.7990 C   0  0  0  0  0  3  0  0  0  0  0  0
  181.5770  178.3840  136.7080 O   0  0  0  0  0  1  0  0  0  0  0  0
  179.9420  182.8630  136.3630 F   0  0  0  0  0  0  0  0  0  0  0  0
  181.4390  182.3220  138.1350 C   0  0  0  0  0  3  0  0  0  0  0  0
  181.5490  179.6820  137.2020 C   0  0  0  0  0  0  0  0  0  0  0  0
  182.2950  180.0510  138.3460 C   0  0  0  0  0  0  0  0  0  0  0  0
  180.7630  180.6340  136.5430 C   0  0  0  0  0  3  0  0  0  0  0  0
  1 14  2  0  0  0  0
  1  9  1  0  0  0  0
  2  3  1  0  0  0  0
  3 19  2  0  0  0  0
  3  7  1  0  0  0  0
  4 15  1  0  0  0  0
  4 11  1  0  0  0  0
  5  2  1  0  0  0  0
  5 14  1  1  0  0  0
  6  1  1  0  0  0  0
  7  4  2  0  0  0  0
  8 23  1  6  0  0  0
  8 13  1  0  0  0  0
 10 19  1  0  0  0  0
 12  8  1  0  0  0  0
 13 18  1  1  0  0  0
 13  2  1  0  0  0  0
 16 12  1  6  0  0  0
 16  5  1  0  0  0  0
 17 16  1  0  0  0  0
 17  6  1  0  0  0  0
 18 10  1  0  0  0  0
 19 20  1  0  0  0  0
 20 15  2  0  0  0  0
 22 21  2  0  0  0  0
 22 23  1  0  0  0  0
 24 28  1  0  0  0  0
 26 29  1  0  0  0  0
 27 24  1  0  0  0  0
 28 25  2  0  0  0  0
 29 30  2  0  0  0  0
 30 25  1  0  0  0  0
 30 22  1  0  0  0  0
 31 24  2  0  0  0  0
 31 29  1  0  0  0  0
M  END
>  <MODEL>
1

>  <REMARK>
 VINA RESULT:      -9.1      0.000      0.000
  Name = 
  2 active torsions:
  status: ('A' for Active; 'I' for Inactive)
    1  A    between atoms: C_9  and  C_22
    2  A    between atoms: C_15  and  N_23
                            x       y       z     vdW  Elec       q    Type
                         _______ _______ _______ _____ _____    ______ ____

>  <TORSDO>
F 2

$$$$
=
 OpenBabel11052413103D

 31 35  0  0  1  0  0  0  0  0999 V2000
  185.9450  179.1020  146.8860 C   0  0  0  0  0  0  0  0  0  0  0  0
  187.6750  177.8940  143.8220 N   0  0  0  0  0  0  0  0  0  0  0  0
  189.0190  177.5180  144.2260 C   0  0  0  0  0  0  0  0  0  0  0  0
  190.5970  176.7430  145.9150 C   0  0  0  0  0  0  0  0  0  0  0  0
  186.5620  177.9360  144.8020 C   0  0  1  0  0  3  0  0  0  0  0  0
  184.5960  179.0140  146.5000 O   0  0  0  0  0  0  0  0  0  0  0  0
  189.3000  177.0920  145.5360 C   0  0  0  0  0  3  0  0  0  0  0  0
  186.0360  178.3830  141.9430 C   0  0  1  0  0  3  0  0  0  0  0  0
  186.3020  179.7500  148.1740 C   0  0  0  0  0  1  0  0  0  0  0  0
  189.8360  177.8910  141.8440 C   0  0  0  0  0  2  0  0  0  0  0  0
  190.8710  176.3050  147.3090 C   0  0  0  0  0  1  0  0  0  0  0  0
  184.9500  177.9540  142.9110 C   0  0  0  0  0  2  0  0  0  0  0  0
  187.4060  177.8380  142.3660 C   0  0  1  0  0  3  0  0  0  0  0  0
  186.9130  178.6510  146.0820 C   0  0  0  0  0  3  0  0  0  0  0  0
  191.6360  176.8030  144.9860 C   0  0  0  0  0  3  0  0  0  0  0  0
  185.2990  178.5770  144.2340 C   0  0  1  0  0  3  0  0  0  0  0  0
  184.1880  178.4150  145.2630 C   0  0  0  0  0  2  0  0  0  0  0  0
  188.5010  178.5890  141.6230 C   0  0  0  0  0  2  0  0  0  0  0  0
  190.0810  177.5680  143.2890 C   0  0  0  0  0  0  0  0  0  0  0  0
  191.3750  177.2070  143.6760 C   0  0  0  0  0  3  0  0  0  0  0  0
  184.5850  179.8570  139.9880 O   0  0  0  0  0  0  0  0  0  0  0  0
  184.9690  178.6990  139.6660 C   0  0  0  0  0  0  0  0  0  0  0  0
  185.7150  177.9150  140.6030 N   0  0  0  0  0  2  0  0  0  0  0  0
  183.9710  177.1020  135.8070 C   0  0  0  0  0  0  0  0  0  0  0  0
  183.3150  177.9390  137.9780 C   0  0  0  0  0  3  0  0  0  0  0  0
  187.0110  178.0030  137.6770 O   0  0  0  0  0  1  0  0  0  0  0  0
  183.6390  176.5980  134.5940 F   0  0  0  0  0  0  0  0  0  0  0  0
  182.9710  177.4200  136.7270 C   0  0  0  0  0  3  0  0  0  0  0  0
  185.6650  177.8190  137.3880 C   0  0  0  0  0  0  0  0  0  0  0  0
  184.6590  178.1460  138.3260 C   0  0  0  0  0  0  0  0  0  0  0  0
  185.3120  177.3010  136.1370 C   0  0  0  0  0  3  0  0  0  0  0  0
  1  9  1  0  0  0  0
  2  3  1  0  0  0  0
  2  5  1  0  0  0  0
  3  7  1  0  0  0  0
  4 11  1  0  0  0  0
  5 14  1  1  0  0  0
  6  1  1  0  0  0  0
  7  4  2  0  0  0  0
  8 23  1  6  0  0  0
  8 13  1  0  0  0  0
  8 12  1  0  0  0  0
 10 19  1  0  0  0  0
 13 18  1  6  0  0  0
 13  2  1  0  0  0  0
 14  1  2  0  0  0  0
 15  4  1  0  0  0  0
 16 12  1  6  0  0  0
 16  5  1  0  0  0  0
 16 17  1  0  0  0  0
 17  6  1  0  0  0  0
 18 10  1  0  0  0  0
 19 20  1  0  0  0  0
 19  3  2  0  0  0  0
 20 15  2  0  0  0  0
 22 21  2  0  0  0  0
 22 23  1  0  0  0  0
 24 31  2  0  0  0  0
 24 28  1  0  0  0  0
 25 30  1  0  0  0  0
 27 24  1  0  0  0  0
 28 25  2  0  0  0  0
 29 26  1  0  0  0  0
 29 30  2  0  0  0  0
 30 22  1  0  0  0  0
 31 29  1  0  0  0  0
M  END
>  <MODEL>
2

>  <REMARK>
 VINA RESULT:      -9.1      2.937      4.975
  Name = 
  2 active torsions:
  status: ('A' for Active; 'I' for Inactive)
    1  A    between atoms: C_9  and  C_22
    2  A    between atoms: C_15  and  N_23
                            x       y       z     vdW  Elec       q    Type
                         _______ _______ _______ _____ _____    ______ ____

>  <TORSDO>
F 2

$$$$
=
 OpenBabel11052413103D

 31 35  0  0  1  0  0  0  0  0999 V2000
  189.8060  176.2630  142.6810 C   0  0  0  0  0  0  0  0  0  0  0  0
  186.7720  178.1420  143.7320 N   0  0  0  0  0  0  0  0  0  0  0  0
  186.8130  178.2160  145.1830 C   0  0  0  0  0  0  0  0  0  0  0  0
  188.0550  178.2440  147.2800 C   0  0  0  0  0  0  0  0  0  0  0  0
  188.0080  177.9320  142.9390 C   0  0  1  0  0  3  0  0  0  0  0  0
  189.9030  176.6220  141.3240 O   0  0  0  0  0  0  0  0  0  0  0  0
  188.0300  178.1820  145.8860 C   0  0  0  0  0  3  0  0  0  0  0  0
  185.4500  178.4500  141.5850 C   0  0  1  0  0  3  0  0  0  0  0  0
  190.7020  175.2120  143.2300 C   0  0  0  0  0  1  0  0  0  0  0  0
  184.2830  178.5010  145.2360 C   0  0  0  0  0  2  0  0  0  0  0  0
  189.3540  178.1960  148.0020 C   0  0  0  0  0  1  0  0  0  0  0  0
  186.7880  178.6850  140.9100 C   0  0  0  0  0  2  0  0  0  0  0  0
  185.5440  178.6750  143.0990 C   0  0  1  0  0  3  0  0  0  0  0  0
  188.8820  176.8220  143.4680 C   0  0  0  0  0  3  0  0  0  0  0  0
  186.8630  178.3500  147.9960 C   0  0  0  0  0  3  0  0  0  0  0  0
  187.7250  177.6490  141.4670 C   0  0  1  0  0  3  0  0  0  0  0  0
  189.0570  177.6160  140.7310 C   0  0  0  0  0  2  0  0  0  0  0  0
  184.3240  178.0650  143.7770 C   0  0  0  0  0  2  0  0  0  0  0  0
  185.6090  178.3320  145.9200 C   0  0  0  0  0  0  0  0  0  0  0  0
  185.6450  178.4030  147.3170 C   0  0  0  0  0  3  0  0  0  0  0  0
  183.0300  177.6260  140.3350 O   0  0  0  0  0  0  0  0  0  0  0  0
  183.2540  178.8670  140.3890 C   0  0  0  0  0  0  0  0  0  0  0  0
  184.4490  179.3420  141.0190 N   0  0  0  0  0  2  0  0  0  0  0  0
  180.5340  181.6950  138.6470 C   0  0  0  0  0  0  0  0  0  0  0  0
  182.6810  180.5850  138.6930 C   0  0  0  0  0  3  0  0  0  0  0  0
  180.5570  179.3140  141.4550 O   0  0  0  0  0  1  0  0  0  0  0  0
  179.6870  182.5920  138.0860 F   0  0  0  0  0  0  0  0  0  0  0  0
  181.8090  181.5100  138.1120 C   0  0  0  0  0  3  0  0  0  0  0  0
  180.9970  180.0290  140.3480 C   0  0  0  0  0  0  0  0  0  0  0  0
  182.2910  179.8340  139.8130 C   0  0  0  0  0  0  0  0  0  0  0  0
  180.1300  180.9570  139.7610 C   0  0  0  0  0  3  0  0  0  0  0  0
  1  9  1  0  0  0  0
  1 14  2  0  0  0  0
  2  3  1  0  0  0  0
  3  7  2  0  0  0  0
  3 19  1  0  0  0  0
  4 15  2  0  0  0  0
  4 11  1  0  0  0  0
  5 14  1  1  0  0  0
  5  2  1  0  0  0  0
  6  1  1  0  0  0  0
  7  4  1  0  0  0  0
  8 23  1  6  0  0  0
  8 13  1  0  0  0  0
 10 19  1  0  0  0  0
 12 16  1  0  0  0  0
 12  8  1  0  0  0  0
 13  2  1  0  0  0  0
 13 18  1  1  0  0  0
 16 17  1  6  0  0  0
 16  5  1  0  0  0  0
 17  6  1  0  0  0  0
 18 10  1  0  0  0  0
 19 20  2  0  0  0  0
 20 15  1  0  0  0  0
 21 22  2  0  0  0  0
 22 23  1  0  0  0  0
 24 31  1  0  0  0  0
 25 30  2  0  0  0  0
 27 24  1  0  0  0  0
 28 24  2  0  0  0  0
 28 25  1  0  0  0  0
 29 26  1  0  0  0  0
 30 29  1  0  0  0  0
 30 22  1  0  0  0  0
 31 29  2  0  0  0  0
M  END
>  <MODEL>
3

>  <REMARK>
 VINA RESULT:      -9.1      1.301      1.702
  Name = 
  2 active torsions:
  status: ('A' for Active; 'I' for Inactive)
    1  A    between atoms: C_9  and  C_22
    2  A    between atoms: C_15  and  N_23
                            x       y       z     vdW  Elec       q    Type
                         _______ _______ _______ _____ _____    ______ ____

>  <TORSDO>
F 2

$$$$
=
 OpenBabel11052413103D

 31 35  0  0  1  0  0  0  0  0999 V2000
  188.1590  178.0770  147.2950 C   0  0  0  0  0  0  0  0  0  0  0  0
  187.6480  177.7510  143.6250 N   0  0  0  0  0  0  0  0  0  0  0  0
  188.9070  177.2830  143.0710 C   0  0  0  0  0  0  0  0  0  0  0  0
  191.0170  176.0820  143.2960 C   0  0  0  0  0  0  0  0  0  0  0  0
  187.3030  177.5230  145.0490 C   0  0  1  0  0  3  0  0  0  0  0  0
  186.8330  178.0950  147.7630 O   0  0  0  0  0  0  0  0  0  0  0  0
  189.8060  176.5180  143.8350 C   0  0  0  0  0  3  0  0  0  0  0  0
  185.3370  178.7280  143.2240 C   0  0  1  0  0  3  0  0  0  0  0  0
  189.2750  178.3530  148.2360 C   0  0  0  0  0  1  0  0  0  0  0  0
  188.2870  178.2900  140.8170 C   0  0  0  0  0  2  0  0  0  0  0  0
  191.9550  175.2830  144.1270 C   0  0  0  0  0  1  0  0  0  0  0  0
  184.9340  178.0500  144.5190 C   0  0  0  0  0  2  0  0  0  0  0  0
  186.6010  178.0910  142.6330 C   0  0  1  0  0  3  0  0  0  0  0  0
  188.4210  177.8640  146.0020 C   0  0  0  0  0  3  0  0  0  0  0  0
  191.3470  176.3950  141.9770 C   0  0  0  0  0  3  0  0  0  0  0  0
  186.0590  178.2910  145.4860 C   0  0  1  0  0  3  0  0  0  0  0  0
  185.7120  177.8530  146.9030 C   0  0  0  0  0  2  0  0  0  0  0  0
  187.1890  179.0190  141.5790 C   0  0  0  0  0  2  0  0  0  0  0  0
  189.2490  177.5870  141.7310 C   0  0  0  0  0  0  0  0  0  0  0  0
  190.4610  177.1380  141.1960 C   0  0  0  0  0  3  0  0  0  0  0  0
  182.5830  179.1420  143.8100 O   0  0  0  0  0  0  0  0  0  0  0  0
  182.8780  178.8470  142.6200 C   0  0  0  0  0  0  0  0  0  0  0  0
  184.2490  178.6410  142.2610 N   0  0  0  0  0  2  0  0  0  0  0  0
  179.8710  178.3950  139.5890 C   0  0  0  0  0  0  0  0  0  0  0  0
  181.9920  177.7710  140.5660 C   0  0  0  0  0  3  0  0  0  0  0  0
  180.4270  180.4590  142.5860 O   0  0  0  0  0  1  0  0  0  0  0  0
  178.9310  178.2410  138.6250 F   0  0  0  0  0  0  0  0  0  0  0  0
  181.0230  177.6100  139.5710 C   0  0  0  0  0  3  0  0  0  0  0  0
  180.6500  179.5080  141.5980 C   0  0  0  0  0  0  0  0  0  0  0  0
  181.8210  178.7170  141.5890 C   0  0  0  0  0  0  0  0  0  0  0  0
  179.6850  179.3410  140.5990 C   0  0  0  0  0  3  0  0  0  0  0  0
  1  6  1  0  0  0  0
  1  9  1  0  0  0  0
  2  5  1  0  0  0  0
  3  2  1  0  0  0  0
  3  7  1  0  0  0  0
  4  7  2  0  0  0  0
  4 11  1  0  0  0  0
  5 16  1  0  0  0  0
  5 14  1  1  0  0  0
  8 23  1  6  0  0  0
  8 12  1  0  0  0  0
 10 18  1  0  0  0  0
 10 19  1  0  0  0  0
 13 18  1  6  0  0  0
 13  8  1  0  0  0  0
 13  2  1  0  0  0  0
 14  1  2  0  0  0  0
 15  4  1  0  0  0  0
 16 12  1  6  0  0  0
 16 17  1  0  0  0  0
 17  6  1  0  0  0  0
 19  3  2  0  0  0  0
 20 19  1  0  0  0  0
 20 15  2  0  0  0  0
 22 21  2  0  0  0  0
 23 22  1  0  0  0  0
 24 31  1  0  0  0  0
 25 30  2  0  0  0  0
 27 24  1  0  0  0  0
 28 24  2  0  0  0  0
 28 25  1  0  0  0  0
 29 26  1  0  0  0  0
 30 29  1  0  0  0  0
 30 22  1  0  0  0  0
 31 29  2  0  0  0  0
M  END
>  <MODEL>
4

>  <REMARK>
 VINA RESULT:      -8.8      2.967      5.022
  Name = 
  2 active torsions:
  status: ('A' for Active; 'I' for Inactive)
    1  A    between atoms: C_9  and  C_22
    2  A    between atoms: C_15  and  N_23
                            x       y       z     vdW  Elec       q    Type
                         _______ _______ _______ _____ _____    ______ ____

>  <TORSDO>
F 2

$$$$
=
 OpenBabel11052413103D

 31 35  0  0  1  0  0  0  0  0999 V2000
  193.1030  176.4560  137.5750 C   0  0  0  0  0  0  0  0  0  0  0  0
  189.5040  176.6820  138.4870 N   0  0  0  0  0  0  0  0  0  0  0  0
  188.7630  176.0520  137.4070 C   0  0  0  0  0  0  0  0  0  0  0  0
  188.6180  174.4520  135.5730 C   0  0  0  0  0  0  0  0  0  0  0  0
  190.9290  176.3520  138.7340 C   0  0  1  0  0  3  0  0  0  0  0  0
  193.7230  176.6700  138.8200 O   0  0  0  0  0  0  0  0  0  0  0  0
  189.3360  175.0430  136.6130 C   0  0  0  0  0  3  0  0  0  0  0  0
  189.4760  178.1230  140.5780 C   0  0  1  0  0  3  0  0  0  0  0  0
  193.9310  176.3980  136.3420 C   0  0  0  0  0  1  0  0  0  0  0  0
  186.7080  177.4250  138.0200 C   0  0  0  0  0  2  0  0  0  0  0  0
  189.2490  173.3940  134.7420 C   0  0  0  0  0  1  0  0  0  0  0  0
  190.7340  177.3820  140.9870 C   0  0  0  0  0  2  0  0  0  0  0  0
  188.6800  177.3330  139.5310 C   0  0  1  0  0  3  0  0  0  0  0  0
  191.7740  176.3560  137.4850 C   0  0  0  0  0  3  0  0  0  0  0  0
  187.3080  174.8540  135.3130 C   0  0  0  0  0  3  0  0  0  0  0  0
  191.5830  177.2850  139.7490 C   0  0  1  0  0  3  0  0  0  0  0  0
  192.9790  176.7530  140.0420 C   0  0  0  0  0  2  0  0  0  0  0  0
  187.6640  178.2530  138.8700 C   0  0  0  0  0  2  0  0  0  0  0  0
  187.4290  176.4460  137.1380 C   0  0  0  0  0  0  0  0  0  0  0  0
  186.7140  175.8420  136.0990 C   0  0  0  0  0  3  0  0  0  0  0  0
  188.6850  176.1480  142.4680 O   0  0  0  0  0  0  0  0  0  0  0  0
  188.2660  177.3230  142.6580 C   0  0  0  0  0  0  0  0  0  0  0  0
  188.6430  178.3620  141.7480 N   0  0  0  0  0  2  0  0  0  0  0  0
  185.6640  178.2540  145.9430 C   0  0  0  0  0  0  0  0  0  0  0  0
  186.0690  178.0260  143.5710 C   0  0  0  0  0  3  0  0  0  0  0  0
  189.1510  177.1810  145.4520 O   0  0  0  0  0  1  0  0  0  0  0  0
  184.8310  178.5520  146.9700 F   0  0  0  0  0  0  0  0  0  0  0  0
  185.2070  178.3330  144.6280 C   0  0  0  0  0  3  0  0  0  0  0  0
  187.8490  177.5610  145.1510 C   0  0  0  0  0  0  0  0  0  0  0  0
  187.3950  177.6380  143.8140 C   0  0  0  0  0  0  0  0  0  0  0  0
  186.9800  177.8690  146.2040 C   0  0  0  0  0  3  0  0  0  0  0  0
  1  6  1  0  0  0  0
  2  5  1  0  0  0  0
  2 13  1  0  0  0  0
  3  2  1  0  0  0  0
  4  7  1  0  0  0  0
  5 14  1  6  0  0  0
  5 16  1  0  0  0  0
  6 17  1  0  0  0  0
  7  3  2  0  0  0  0
  8 12  1  0  0  0  0
  8 23  1  1  0  0  0
  9  1  1  0  0  0  0
 10 18  1  0  0  0  0
 11  4  1  0  0  0  0
 13 18  1  6  0  0  0
 13  8  1  0  0  0  0
 14  1  2  0  0  0  0
 15  4  2  0  0  0  0
 15 20  1  0  0  0  0
 16 17  1  1  0  0  0
 16 12  1  0  0  0  0
 19  3  1  0  0  0  0
 19 10  1  0  0  0  0
 20 19  2  0  0  0  0
 21 22  2  0  0  0  0
 22 30  1  0  0  0  0
 23 22  1  0  0  0  0
 24 31  1  0  0  0  0
 24 27  1  0  0  0  0
 25 30  2  0  0  0  0
 25 28  1  0  0  0  0
 28 24  2  0  0  0  0
 29 26  1  0  0  0  0
 29 31  2  0  0  0  0
 30 29  1  0  0  0  0
M  END
>  <MODEL>
5

>  <REMARK>
 VINA RESULT:      -8.7      4.565      8.366
  Name = 
  2 active torsions:
  status: ('A' for Active; 'I' for Inactive)
    1  A    between atoms: C_9  and  C_22
    2  A    between atoms: C_15  and  N_23
                            x       y       z     vdW  Elec       q    Type
                         _______ _______ _______ _____ _____    ______ ____

>  <TORSDO>
F 2

$$$$
=
 OpenBabel11052413103D

 31 35  0  0  1  0  0  0  0  0999 V2000
  185.3260  179.2210  143.7590 C   0  0  0  0  0  0  0  0  0  0  0  0
  188.7240  177.7100  143.6640 N   0  0  0  0  0  0  0  0  0  0  0  0
  189.1260  177.5080  145.0460 C   0  0  0  0  0  0  0  0  0  0  0  0
  188.5770  177.1250  147.3900 C   0  0  0  0  0  0  0  0  0  0  0  0
  187.2920  177.8090  143.2880 C   0  0  1  0  0  3  0  0  0  0  0  0
  184.8690  178.9680  142.4530 O   0  0  0  0  0  0  0  0  0  0  0  0
  188.1790  177.3080  146.0650 C   0  0  0  0  0  3  0  0  0  0  0  0
  189.3720  177.7780  141.2090 C   0  0  1  0  0  3  0  0  0  0  0  0
  184.5230  180.0820  144.6650 C   0  0  0  0  0  1  0  0  0  0  0  0
  191.5720  177.5830  144.3410 C   0  0  0  0  0  2  0  0  0  0  0  0
  187.5550  176.9250  148.4510 C   0  0  0  0  0  1  0  0  0  0  0  0
  187.9290  177.4130  140.9190 C   0  0  0  0  0  2  0  0  0  0  0  0
  189.7590  177.4140  142.6470 C   0  0  1  0  0  3  0  0  0  0  0  0
  186.4990  178.7340  144.1760 C   0  0  0  0  0  3  0  0  0  0  0  0
  189.9320  177.1290  147.7180 C   0  0  0  0  0  3  0  0  0  0  0  0
  187.0910  178.2530  141.8420 C   0  0  1  0  0  3  0  0  0  0  0  0
  185.6040  178.1590  141.5260 C   0  0  0  0  0  2  0  0  0  0  0  0
  191.0490  178.1310  143.0200 C   0  0  0  0  0  2  0  0  0  0  0  0
  190.5000  177.5020  145.3900 C   0  0  0  0  0  0  0  0  0  0  0  0
  190.8900  177.3090  146.7190 C   0  0  0  0  0  3  0  0  0  0  0  0
  189.7990  178.5200  138.4950 O   0  0  0  0  0  0  0  0  0  0  0  0
  190.4150  177.5030  138.9150 C   0  0  0  0  0  0  0  0  0  0  0  0
  190.2510  177.0890  140.2750 N   0  0  0  0  0  2  0  0  0  0  0  0
  192.9290  175.2670  136.2470 C   0  0  0  0  0  0  0  0  0  0  0  0
  190.7660  176.1540  136.8610 C   0  0  0  0  0  3  0  0  0  0  0  0
  193.2850  177.1280  139.4030 O   0  0  0  0  0  1  0  0  0  0  0  0
  193.7080  174.5570  135.3950 F   0  0  0  0  0  0  0  0  0  0  0  0
  191.5680  175.4230  135.9810 C   0  0  0  0  0  3  0  0  0  0  0  0
  192.6900  176.5730  138.2770 C   0  0  0  0  0  0  0  0  0  0  0  0
  191.3100  176.7370  138.0160 C   0  0  0  0  0  0  0  0  0  0  0  0
  193.4870  175.8400  137.3910 C   0  0  0  0  0  3  0  0  0  0  0  0
  1 14  2  0  0  0  0
  1  9  1  0  0  0  0
  2  3  1  0  0  0  0
  3 19  2  0  0  0  0
  3  7  1  0  0  0  0
  4 15  1  0  0  0  0
  4 11  1  0  0  0  0
  5  2  1  0  0  0  0
  5 14  1  1  0  0  0
  6  1  1  0  0  0  0
  7  4  2  0  0  0  0
  8 23  1  6  0  0  0
  8 13  1  0  0  0  0
 10 19  1  0  0  0  0
 12  8  1  0  0  0  0
 13 18  1  1  0  0  0
 13  2  1  0  0  0  0
 16 12  1  6  0  0  0
 16  5  1  0  0  0  0
 17 16  1  0  0  0  0
 17  6  1  0  0  0  0
 18 10  1  0  0  0  0
 19 20  1  0  0  0  0
 20 15  2  0  0  0  0
 21 22  2  0  0  0  0
 22 23  1  0  0  0  0
 24 31  1  0  0  0  0
 25 30  2  0  0  0  0
 27 24  1  0  0  0  0
 28 24  2  0  0  0  0
 28 25  1  0  0  0  0
 29 26  1  0  0  0  0
 30 29  1  0  0  0  0
 30 22  1  0  0  0  0
 31 29  2  0  0  0  0
M  END
>  <MODEL>
6

>  <REMARK>
 VINA RESULT:      -8.4      4.701      7.738
  Name = 
  2 active torsions:
  status: ('A' for Active; 'I' for Inactive)
    1  A    between atoms: C_9  and  C_22
    2  A    between atoms: C_15  and  N_23
                            x       y       z     vdW  Elec       q    Type
                         _______ _______ _______ _____ _____    ______ ____

>  <TORSDO>
F 2

$$$$
=
 OpenBabel11052413103D

 31 35  0  0  1  0  0  0  0  0999 V2000
  189.8510  176.4690  138.3610 C   0  0  0  0  0  0  0  0  0  0  0  0
  187.5750  178.0750  140.8260 N   0  0  0  0  0  0  0  0  0  0  0  0
  188.2200  177.9580  142.1230 C   0  0  0  0  0  0  0  0  0  0  0  0
  190.2260  177.7570  143.4940 C   0  0  0  0  0  0  0  0  0  0  0  0
  188.3610  178.0190  139.5700 C   0  0  1  0  0  3  0  0  0  0  0  0
  189.3800  177.0080  137.1500 O   0  0  0  0  0  0  0  0  0  0  0  0
  189.6190  177.8790  142.2440 C   0  0  0  0  0  3  0  0  0  0  0  0
  185.4820  178.6120  139.4900 C   0  0  1  0  0  3  0  0  0  0  0  0
  190.8730  175.3910  138.3380 C   0  0  0  0  0  1  0  0  0  0  0  0
  185.9510  178.1360  143.2640 C   0  0  0  0  0  2  0  0  0  0  0  0
  191.7060  177.6650  143.5940 C   0  0  0  0  0  1  0  0  0  0  0  0
  186.4190  178.9860  138.3580 C   0  0  0  0  0  2  0  0  0  0  0  0
  186.2050  178.6390  140.8430 C   0  0  1  0  0  3  0  0  0  0  0  0
  189.3530  176.8830  139.5300 C   0  0  0  0  0  3  0  0  0  0  0  0
  189.4450  177.7220  144.6490 C   0  0  0  0  0  3  0  0  0  0  0  0
  187.4820  177.9220  138.3270 C   0  0  1  0  0  3  0  0  0  0  0  0
  188.3840  178.0380  137.1050 C   0  0  0  0  0  2  0  0  0  0  0  0
  185.3690  177.8990  141.8770 C   0  0  0  0  0  2  0  0  0  0  0  0
  187.4380  177.9300  143.3040 C   0  0  0  0  0  0  0  0  0  0  0  0
  188.0560  177.8170  144.5530 C   0  0  0  0  0  3  0  0  0  0  0  0
  182.8500  178.0190  138.5870 O   0  0  0  0  0  0  0  0  0  0  0  0
  183.0530  179.1790  139.0380 C   0  0  0  0  0  0  0  0  0  0  0  0
  184.3540  179.5320  139.5200 N   0  0  0  0  0  2  0  0  0  0  0  0
  179.9220  182.1170  139.0720 C   0  0  0  0  0  0  0  0  0  0  0  0
  181.9480  181.2040  138.1200 C   0  0  0  0  0  3  0  0  0  0  0  0
  180.8840  179.1410  141.0140 O   0  0  0  0  0  1  0  0  0  0  0  0
  178.9410  183.0520  139.0690 F   0  0  0  0  0  0  0  0  0  0  0  0
  180.9370  182.1680  138.1160 C   0  0  0  0  0  3  0  0  0  0  0  0
  180.9260  180.1340  140.0420 C   0  0  0  0  0  0  0  0  0  0  0  0
  181.9580  180.1770  139.0780 C   0  0  0  0  0  0  0  0  0  0  0  0
  179.9170  181.1030  140.0310 C   0  0  0  0  0  3  0  0  0  0  0  0
  1 14  2  0  0  0  0
  2 13  1  0  0  0  0
  2  3  1  0  0  0  0
  3  7  2  0  0  0  0
  3 19  1  0  0  0  0
  4 11  1  0  0  0  0
  4 15  2  0  0  0  0
  5 14  1  1  0  0  0
  5  2  1  0  0  0  0
  6  1  1  0  0  0  0
  7  4  1  0  0  0  0
  8 23  1  1  0  0  0
  8 13  1  0  0  0  0
  9  1  1  0  0  0  0
 10 19  1  0  0  0  0
 12  8  1  0  0  0  0
 13 18  1  1  0  0  0
 16 17  1  6  0  0  0
 16 12  1  0  0  0  0
 16  5  1  0  0  0  0
 17  6  1  0  0  0  0
 18 10  1  0  0  0  0
 19 20  2  0  0  0  0
 20 15  1  0  0  0  0
 21 22  2  0  0  0  0
 22 30  1  0  0  0  0
 22 23  1  0  0  0  0
 24 31  1  0  0  0  0
 25 30  2  0  0  0  0
 27 24  1  0  0  0  0
 28 25  1  0  0  0  0
 28 24  2  0  0  0  0
 29 26  1  0  0  0  0
 30 29  1  0  0  0  0
 31 29  2  0  0  0  0
M  END
>  <MODEL>
7

>  <REMARK>
 VINA RESULT:      -8.1      1.997      3.122
  Name = 
  2 active torsions:
  status: ('A' for Active; 'I' for Inactive)
    1  A    between atoms: C_9  and  C_22
    2  A    between atoms: C_15  and  N_23
                            x       y       z     vdW  Elec       q    Type
                         _______ _______ _______ _____ _____    ______ ____

>  <TORSDO>
F 2

$$$$
=
 OpenBabel11052413103D

 31 35  0  0  1  0  0  0  0  0999 V2000
  189.4330  177.2920  136.4290 C   0  0  0  0  0  0  0  0  0  0  0  0
  187.1210  177.8470  139.2910 N   0  0  0  0  0  0  0  0  0  0  0  0
  185.7730  177.7840  138.7520 C   0  0  0  0  0  0  0  0  0  0  0  0
  184.1780  176.9830  137.0910 C   0  0  0  0  0  0  0  0  0  0  0  0
  188.2570  177.1940  138.5950 C   0  0  1  0  0  3  0  0  0  0  0  0
  190.6220  176.9380  137.0930 O   0  0  0  0  0  0  0  0  0  0  0  0
  185.4750  177.0280  137.6040 C   0  0  0  0  0  3  0  0  0  0  0  0
  188.6530  178.4430  141.2280 C   0  0  1  0  0  3  0  0  0  0  0  0
  189.4490  177.5170  134.9610 C   0  0  0  0  0  1  0  0  0  0  0  0
  184.9370  179.2100  140.6880 C   0  0  0  0  0  2  0  0  0  0  0  0
  183.8910  176.1850  135.8700 C   0  0  0  0  0  1  0  0  0  0  0  0
  189.5940  177.3870  140.6810 C   0  0  0  0  0  2  0  0  0  0  0  0
  187.2220  178.2310  140.7170 C   0  0  1  0  0  3  0  0  0  0  0  0
  188.3010  177.4780  137.1150 C   0  0  0  0  0  3  0  0  0  0  0  0
  183.1530  177.6850  137.7230 C   0  0  0  0  0  3  0  0  0  0  0  0
  189.6110  177.5730  139.1890 C   0  0  1  0  0  3  0  0  0  0  0  0
  190.6760  176.7240  138.5090 C   0  0  0  0  0  2  0  0  0  0  0  0
  186.4080  179.4950  140.9560 C   0  0  0  0  0  2  0  0  0  0  0  0
  184.7210  178.4860  139.3900 C   0  0  0  0  0  0  0  0  0  0  0  0
  183.4230  178.4280  138.8730 C   0  0  0  0  0  3  0  0  0  0  0  0
  187.9200  176.2050  142.8260 O   0  0  0  0  0  0  0  0  0  0  0  0
  188.2710  177.2530  143.4330 C   0  0  0  0  0  0  0  0  0  0  0  0
  188.6640  178.4070  142.6830 N   0  0  0  0  0  2  0  0  0  0  0  0
  188.2100  177.4090  147.7240 C   0  0  0  0  0  0  0  0  0  0  0  0
  187.0920  177.6020  145.5900 C   0  0  0  0  0  3  0  0  0  0  0  0
  190.6610  176.7440  145.0580 O   0  0  0  0  0  1  0  0  0  0  0  0
  188.1750  177.4630  149.0770 F   0  0  0  0  0  0  0  0  0  0  0  0
  187.0530  177.6580  146.9850 C   0  0  0  0  0  3  0  0  0  0  0  0
  189.4520  177.0500  145.6720 C   0  0  0  0  0  0  0  0  0  0  0  0
  188.2850  177.2990  144.9140 C   0  0  0  0  0  0  0  0  0  0  0  0
  189.4050  177.1060  147.0690 C   0  0  0  0  0  3  0  0  0  0  0  0
  1  6  1  0  0  0  0
  1 14  2  0  0  0  0
  2 13  1  0  0  0  0
  3  2  1  0  0  0  0
  3 19  1  0  0  0  0
  4  7  1  0  0  0  0
  4 15  2  0  0  0  0
  5 14  1  6  0  0  0
  5 16  1  0  0  0  0
  5  2  1  0  0  0  0
  6 17  1  0  0  0  0
  7  3  2  0  0  0  0
  8 23  1  1  0  0  0
  9  1  1  0  0  0  0
 10 18  1  0  0  0  0
 11  4  1  0  0  0  0
 12  8  1  0  0  0  0
 13 18  1  6  0  0  0
 13  8  1  0  0  0  0
 15 20  1  0  0  0  0
 16 17  1  6  0  0  0
 16 12  1  0  0  0  0
 19 10  1  0  0  0  0
 20 19  2  0  0  0  0
 21 22  2  0  0  0  0
 22 30  1  0  0  0  0
 23 22  1  0  0  0  0
 24 27  1  0  0  0  0
 25 28  1  0  0  0  0
 26 29  1  0  0  0  0
 28 24  2  0  0  0  0
 29 31  2  0  0  0  0
 30 25  2  0  0  0  0
 30 29  1  0  0  0  0
 31 24  1  0  0  0  0
M  END
>  <MODEL>
8

>  <REMARK>
 VINA RESULT:      -8.0      4.210      8.320
  Name = 
  2 active torsions:
  status: ('A' for Active; 'I' for Inactive)
    1  A    between atoms: C_9  and  C_22
    2  A    between atoms: C_15  and  N_23
                            x       y       z     vdW  Elec       q    Type
                         _______ _______ _______ _____ _____    ______ ____

>  <TORSDO>
F 2

$$$$
=
 OpenBabel11052413103D

 31 35  0  0  1  0  0  0  0  0999 V2000
  193.3640  175.9660  136.1940 C   0  0  0  0  0  0  0  0  0  0  0  0
  190.4050  176.5900  138.3600 N   0  0  0  0  0  0  0  0  0  0  0  0
  189.2330  176.2750  137.5610 C   0  0  0  0  0  0  0  0  0  0  0  0
  188.1570  175.0500  135.7470 C   0  0  0  0  0  0  0  0  0  0  0  0
  191.7310  176.0060  138.0420 C   0  0  1  0  0  3  0  0  0  0  0  0
  194.3940  175.8660  137.1470 O   0  0  0  0  0  0  0  0  0  0  0  0
  189.2870  175.3370  136.5140 C   0  0  0  0  0  3  0  0  0  0  0  0
  191.3740  177.6420  140.4590 C   0  0  1  0  0  3  0  0  0  0  0  0
  193.7000  175.9890  134.7470 C   0  0  0  0  0  1  0  0  0  0  0  0
  187.8300  177.8260  139.0130 C   0  0  0  0  0  2  0  0  0  0  0  0
  188.2430  174.0630  134.6390 C   0  0  0  0  0  1  0  0  0  0  0  0
  192.5170  176.6570  140.3070 C   0  0  0  0  0  2  0  0  0  0  0  0
  190.1310  177.1740  139.6930 C   0  0  1  0  0  3  0  0  0  0  0  0
  192.0900  176.0890  136.5800 C   0  0  0  0  0  3  0  0  0  0  0  0
  186.9480  175.6890  136.0200 C   0  0  0  0  0  3  0  0  0  0  0  0
  192.8630  176.6400  138.8440 C   0  0  1  0  0  3  0  0  0  0  0  0
  194.1370  175.8560  138.5570 C   0  0  0  0  0  2  0  0  0  0  0  0
  189.1620  178.3390  139.5430 C   0  0  0  0  0  2  0  0  0  0  0  0
  187.9970  176.9110  137.8340 C   0  0  0  0  0  0  0  0  0  0  0  0
  186.8670  176.6100  137.0660 C   0  0  0  0  0  3  0  0  0  0  0  0
  190.4860  175.5700  142.1960 O   0  0  0  0  0  0  0  0  0  0  0  0
  190.5930  176.7260  142.6900 C   0  0  0  0  0  0  0  0  0  0  0  0
  191.0490  177.8060  141.8680 N   0  0  0  0  0  2  0  0  0  0  0  0
  189.7150  177.4130  146.8360 C   0  0  0  0  0  0  0  0  0  0  0  0
  191.2220  176.6880  145.0910 C   0  0  0  0  0  3  0  0  0  0  0  0
  188.0120  177.7890  143.5940 O   0  0  0  0  0  1  0  0  0  0  0  0
  189.4530  177.6240  148.1490 F   0  0  0  0  0  0  0  0  0  0  0  0
  190.9540  176.9060  146.4450 C   0  0  0  0  0  3  0  0  0  0  0  0
  189.0050  177.4880  144.5180 C   0  0  0  0  0  0  0  0  0  0  0  0
  190.2570  176.9740  144.1120 C   0  0  0  0  0  0  0  0  0  0  0  0
  188.7440  177.7030  145.8760 C   0  0  0  0  0  3  0  0  0  0  0  0
  1 14  2  0  0  0  0
  1  6  1  0  0  0  0
  2 13  1  0  0  0  0
  3 19  1  0  0  0  0
  3  2  1  0  0  0  0
  4 15  2  0  0  0  0
  4  7  1  0  0  0  0
  5 14  1  6  0  0  0
  5  2  1  0  0  0  0
  5 16  1  0  0  0  0
  6 17  1  0  0  0  0
  7  3  2  0  0  0  0
  8 23  1  1  0  0  0
  9  1  1  0  0  0  0
 10 18  1  0  0  0  0
 11  4  1  0  0  0  0
 12  8  1  0  0  0  0
 13 18  1  6  0  0  0
 13  8  1  0  0  0  0
 15 20  1  0  0  0  0
 16 17  1  1  0  0  0
 16 12  1  0  0  0  0
 19 10  1  0  0  0  0
 20 19  2  0  0  0  0
 21 22  2  0  0  0  0
 22 30  1  0  0  0  0
 23 22  1  0  0  0  0
 24 27  1  0  0  0  0
 25 28  2  0  0  0  0
 26 29  1  0  0  0  0
 28 24  1  0  0  0  0
 29 31  1  0  0  0  0
 30 29  2  0  0  0  0
 30 25  1  0  0  0  0
 31 24  2  0  0  0  0
M  END
>  <MODEL>
9

>  <REMARK>
 VINA RESULT:      -7.9      5.625      9.483
  Name = 
  2 active torsions:
  status: ('A' for Active; 'I' for Inactive)
    1  A    between atoms: C_9  and  C_22
    2  A    between atoms: C_15  and  N_23
                            x       y       z     vdW  Elec       q    Type
                         _______ _______ _______ _____ _____    ______ ____

>  <TORSDO>
F 2

$$$$
