=
 OpenBabel11052414233D

 34 39  0  0  1  0  0  0  0  0999 V2000
  186.5930  177.9400  145.4380 N   0  0  0  0  0  0  0  0  0  0  0  0
  184.8310  178.7130  143.9150 C   0  0  0  0  0  0  0  0  0  0  0  0
  187.0800  178.1360  143.1710 C   0  0  0  0  0  0  0  0  0  0  0  0
  187.7850  178.7520  140.8990 O   0  0  0  0  0  0  0  0  0  0  0  0
  184.3490  178.2020  146.3620 C   0  0  0  0  0  2  0  0  0  0  0  0
  188.8900  176.3180  143.5050 C   0  0  2  0  0  3  0  0  0  0  0  0
  190.8570  175.0410  142.9560 O   0  0  0  0  0  1  0  0  0  0  0  0
  183.9100  178.9550  145.0860 C   0  0  0  0  0  2  0  0  0  0  0  0
  185.5160  179.1570  141.6240 C   0  0  0  0  0  3  0  0  0  0  0  0
  190.7470  177.1810  141.8550 C   0  0  2  0  0  3  0  0  0  0  0  0
  186.1090  178.2110  144.1480 C   0  0  0  0  0  0  0  0  0  0  0  0
  192.5920  177.7880  143.2360 F   0  0  0  0  0  0  0  0  0  0  0  0
  190.0920  177.8500  140.6370 C   0  0  2  0  0  3  0  0  0  0  0  0
  188.6020  177.6790  140.5640 C   0  0  0  0  0  0  0  0  0  0  0  0
  185.8600  178.3440  146.6300 C   0  0  0  0  0  2  0  0  0  0  0  0
  188.4150  177.7760  143.8160 C   0  0  2  0  0  0  0  0  0  0  0  0
  189.9740  176.0020  142.4590 C   0  0  2  0  0  3  0  0  0  0  0  0
  188.0040  177.8180  145.2730 C   0  0  0  0  0  0  0  0  0  0  0  0
  184.5330  179.1880  142.6310 C   0  0  0  0  0  3  0  0  0  0  0  0
  190.5310  178.3520  143.9910 O   0  0  0  0  0  0  0  0  0  0  0  0
  191.3320  178.1910  142.8510 C   0  0  2  0  0  3  0  0  0  0  0  0
  189.3660  178.7820  143.5450 O   0  0  0  0  0  0  0  0  0  0  0  0
  188.0890  176.5560  140.3000 O   0  0  0  0  0  0  0  0  0  0  0  0
  187.8280  175.4080  143.4210 O   0  0  0  0  0  1  0  0  0  0  0  0
  186.8040  178.6510  141.8860 C   0  0  0  0  0  0  0  0  0  0  0  0
  188.8040  177.7410  146.2440 O   0  0  0  0  0  0  0  0  0  0  0  0
  190.8160  177.5110  139.3320 C   0  0  0  0  0  2  0  0  0  0  0  0
  188.5910  178.3130  136.4770 C   0  0  0  0  0  2  0  0  0  0  0  0
  189.8780  177.2220  138.2550 N   0  0  0  0  0  0  0  0  0  0  0  0
  189.5320  178.5130  137.6640 C   0  0  0  0  0  2  0  0  0  0  0  0
  190.2930  176.7080  135.9090 O   0  0  0  0  0  0  0  0  0  0  0  0
  190.3460  174.9120  137.5250 C   0  0  0  0  0  1  0  0  0  0  0  0
  190.5940  176.3900  137.2610 C   0  0  2  0  0  3  0  0  0  0  0  0
  188.9180  176.9910  135.7900 C   0  0  0  0  0  2  0  0  0  0  0  0
  1 15  1  0  0  0  0
  2 11  1  0  0  0  0
  2  8  1  0  0  0  0
  3 16  1  0  0  0  0
  3 11  2  0  0  0  0
  4 25  1  0  0  0  0
  5 15  1  0  0  0  0
  6 24  1  6  0  0  0
  6 16  1  0  0  0  0
  8  5  1  0  0  0  0
  9 25  2  0  0  0  0
  9 19  1  0  0  0  0
 10 17  1  0  0  0  0
 10 21  1  0  0  0  0
 11  1  1  0  0  0  0
 13 10  1  0  0  0  0
 14 13  1  0  0  0  0
 14  4  1  0  0  0  0
 16 18  1  0  0  0  0
 17  7  1  0  0  0  0
 17  6  1  0  0  0  0
 18  1  1  0  0  0  0
 18 26  2  0  0  0  0
 19  2  2  0  0  0  0
 21 12  1  0  0  0  0
 21 20  1  0  0  0  0
 22 16  1  0  0  0  0
 22 20  1  0  0  0  0
 23 14  2  0  0  0  0
 25  3  1  0  0  0  0
 27 13  1  0  0  0  0
 28 30  1  0  0  0  0
 29 27  1  0  0  0  0
 30 29  1  0  0  0  0
 31 33  1  0  0  0  0
 33 32  1  0  0  0  0
 33 29  1  0  0  0  0
 34 31  1  0  0  0  0
 34 28  1  0  0  0  0
M  END
>  <MODEL>
1

>  <REMARK>
 VINA RESULT:      -8.8      0.000      0.000
  Name = 
  2 active torsions:
  status: ('A' for Active; 'I' for Inactive)
    1  A    between atoms: C_3  and  N_13
    2  A    between atoms: C_3  and  C_17
                            x       y       z     vdW  Elec       q    Type
                         _______ _______ _______ _____ _____    ______ ____

>  <TORSDO>
F 2

$$$$
=
 OpenBabel11052414233D

 34 39  0  0  1  0  0  0  0  0999 V2000
  186.8210  177.8670  145.4660 N   0  0  0  0  0  0  0  0  0  0  0  0
  184.9210  178.7220  144.1700 C   0  0  0  0  0  0  0  0  0  0  0  0
  187.0910  178.2160  143.1820 C   0  0  0  0  0  0  0  0  0  0  0  0
  187.5770  178.9850  140.8990 O   0  0  0  0  0  0  0  0  0  0  0  0
  184.6720  178.0480  146.6120 C   0  0  0  0  0  2  0  0  0  0  0  0
  188.9300  176.3960  143.2230 C   0  0  2  0  0  3  0  0  0  0  0  0
  190.8400  175.1750  142.4090 O   0  0  0  0  0  1  0  0  0  0  0  0
  184.1140  178.8790  145.4350 C   0  0  0  0  0  2  0  0  0  0  0  0
  185.3850  179.3220  141.8590 C   0  0  0  0  0  3  0  0  0  0  0  0
  190.6210  177.3820  141.4680 C   0  0  2  0  0  3  0  0  0  0  0  0
  186.2170  178.2170  144.2480 C   0  0  0  0  0  0  0  0  0  0  0  0
  192.5860  177.9130  142.7060 F   0  0  0  0  0  0  0  0  0  0  0  0
  189.8520  178.1230  140.3630 C   0  0  2  0  0  3  0  0  0  0  0  0
  188.3620  177.9440  140.4190 C   0  0  0  0  0  0  0  0  0  0  0  0
  186.2020  178.1850  146.7460 C   0  0  0  0  0  2  0  0  0  0  0  0
  188.4820  177.8250  143.6730 C   0  0  2  0  0  0  0  0  0  0  0  0
  189.9110  176.1590  142.0610 C   0  0  2  0  0  3  0  0  0  0  0  0
  188.2100  177.7680  145.1620 C   0  0  0  0  0  0  0  0  0  0  0  0
  184.5020  179.2780  142.9540 C   0  0  0  0  0  3  0  0  0  0  0  0
  190.6040  178.4080  143.6870 O   0  0  0  0  0  0  0  0  0  0  0  0
  191.2940  178.3300  142.4690 C   0  0  2  0  0  3  0  0  0  0  0  0
  189.4000  178.8560  143.3820 O   0  0  0  0  0  0  0  0  0  0  0  0
  187.8300  176.8360  140.1300 O   0  0  0  0  0  0  0  0  0  0  0  0
  187.8670  175.4840  143.1800 O   0  0  0  0  0  1  0  0  0  0  0  0
  186.6940  178.8110  141.9650 C   0  0  0  0  0  0  0  0  0  0  0  0
  189.0980  177.6350  146.0460 O   0  0  0  0  0  0  0  0  0  0  0  0
  190.4500  177.8770  138.9760 C   0  0  0  0  0  2  0  0  0  0  0  0
  190.9160  174.4300  137.6960 C   0  0  0  0  0  2  0  0  0  0  0  0
  191.0800  176.5670  138.8840 N   0  0  0  0  0  0  0  0  0  0  0  0
  190.2970  175.8110  137.9100 C   0  0  0  0  0  2  0  0  0  0  0  0
  192.8860  175.7910  137.4430 O   0  0  0  0  0  0  0  0  0  0  0  0
  193.4420  176.8820  139.5260 C   0  0  0  0  0  1  0  0  0  0  0  0
  192.4540  176.7760  138.3730 C   0  0  2  0  0  3  0  0  0  0  0  0
  192.4290  174.5240  137.8570 C   0  0  0  0  0  2  0  0  0  0  0  0
  1 15  1  0  0  0  0
  2 11  1  0  0  0  0
  2  8  1  0  0  0  0
  3 16  1  0  0  0  0
  3 11  2  0  0  0  0
  4 25  1  0  0  0  0
  5 15  1  0  0  0  0
  6 24  1  6  0  0  0
  6 16  1  0  0  0  0
  8  5  1  0  0  0  0
  9 25  2  0  0  0  0
  9 19  1  0  0  0  0
 10 17  1  0  0  0  0
 10 21  1  0  0  0  0
 11  1  1  0  0  0  0
 13 14  1  0  0  0  0
 13 10  1  0  0  0  0
 14  4  1  0  0  0  0
 16 18  1  0  0  0  0
 17  7  1  0  0  0  0
 17  6  1  0  0  0  0
 18  1  1  0  0  0  0
 18 26  2  0  0  0  0
 19  2  2  0  0  0  0
 21 12  1  0  0  0  0
 21 20  1  0  0  0  0
 22 16  1  0  0  0  0
 22 20  1  0  0  0  0
 23 14  2  0  0  0  0
 25  3  1  0  0  0  0
 27 13  1  0  0  0  0
 28 34  1  0  0  0  0
 28 30  1  0  0  0  0
 29 27  1  0  0  0  0
 30 29  1  0  0  0  0
 31 34  1  0  0  0  0
 31 33  1  0  0  0  0
 33 29  1  0  0  0  0
 33 32  1  0  0  0  0
M  END
>  <MODEL>
2

>  <REMARK>
 VINA RESULT:      -8.2      1.056      1.634
  Name = 
  2 active torsions:
  status: ('A' for Active; 'I' for Inactive)
    1  A    between atoms: C_3  and  N_13
    2  A    between atoms: C_3  and  C_17
                            x       y       z     vdW  Elec       q    Type
                         _______ _______ _______ _____ _____    ______ ____

>  <TORSDO>
F 2

$$$$
=
 OpenBabel11052414233D

 34 39  0  0  1  0  0  0  0  0999 V2000
  180.3290  178.0440  141.6840 N   0  0  0  0  0  0  0  0  0  0  0  0
  181.8190  179.0490  143.3550 C   0  0  0  0  0  0  0  0  0  0  0  0
  182.5600  178.3930  141.1270 C   0  0  0  0  0  0  0  0  0  0  0  0
  184.9680  178.3080  140.6420 O   0  0  0  0  0  0  0  0  0  0  0  0
  179.3110  178.8650  143.7450 C   0  0  0  0  0  2  0  0  0  0  0  0
  181.8170  178.5300  138.6520 C   0  0  2  0  0  3  0  0  0  0  0  0
  182.1010  178.4840  136.2610 O   0  0  0  0  0  1  0  0  0  0  0  0
  180.7120  179.0160  144.3790 C   0  0  0  0  0  2  0  0  0  0  0  0
  184.1820  179.1070  142.7830 C   0  0  0  0  0  3  0  0  0  0  0  0
  183.8600  177.3680  137.4730 C   0  0  2  0  0  3  0  0  0  0  0  0
  181.5690  178.5770  142.0680 C   0  0  0  0  0  0  0  0  0  0  0  0
  182.9920  175.3590  136.5320 F   0  0  0  0  0  0  0  0  0  0  0  0
  185.1540  177.6880  138.2360 C   0  0  2  0  0  3  0  0  0  0  0  0
  184.9960  178.7200  139.3150 C   0  0  0  0  0  0  0  0  0  0  0  0
  179.2790  177.7740  142.6570 C   0  0  0  0  0  2  0  0  0  0  0  0
  181.9840  177.6430  139.9300 C   0  0  2  0  0  0  0  0  0  0  0  0
  182.8020  178.4780  137.4700 C   0  0  2  0  0  3  0  0  0  0  0  0
  180.5970  177.3540  140.4660 C   0  0  0  0  0  0  0  0  0  0  0  0
  183.1470  179.3210  143.7110 C   0  0  0  0  0  3  0  0  0  0  0  0
  182.2570  175.9090  138.6030 O   0  0  0  0  0  0  0  0  0  0  0  0
  183.3510  175.9430  137.7260 C   0  0  2  0  0  3  0  0  0  0  0  0
  182.6920  176.4390  139.7310 O   0  0  0  0  0  0  0  0  0  0  0  0
  184.7940  179.9340  139.0290 O   0  0  0  0  0  0  0  0  0  0  0  0
  181.4600  179.8510  138.9530 O   0  0  0  0  0  1  0  0  0  0  0  0
  183.9050  178.6230  141.4890 C   0  0  0  0  0  0  0  0  0  0  0  0
  179.7550  176.6030  139.9040 O   0  0  0  0  0  0  0  0  0  0  0  0
  186.3310  177.9550  137.2950 C   0  0  0  0  0  2  0  0  0  0  0  0
  189.0310  175.4810  136.7200 C   0  0  0  0  0  2  0  0  0  0  0  0
  187.4950  177.1520  137.6450 N   0  0  0  0  0  0  0  0  0  0  0  0
  187.7810  176.3250  136.4750 C   0  0  0  0  0  2  0  0  0  0  0  0
  189.8700  177.6350  137.3910 O   0  0  0  0  0  0  0  0  0  0  0  0
  188.7250  178.4190  139.3690 C   0  0  0  0  0  1  0  0  0  0  0  0
  188.6170  178.0870  137.8880 C   0  0  2  0  0  3  0  0  0  0  0  0
  189.9920  176.2510  137.6190 C   0  0  0  0  0  2  0  0  0  0  0  0
  1 11  1  0  0  0  0
  1 15  1  0  0  0  0
  2 19  1  0  0  0  0
  2  8  1  0  0  0  0
  3 25  2  0  0  0  0
  3 11  1  0  0  0  0
  4 25  1  0  0  0  0
  5  8  1  0  0  0  0
  6 24  1  1  0  0  0
  6 16  1  0  0  0  0
  7 17  1  0  0  0  0
  9 19  2  0  0  0  0
 10 21  1  0  0  0  0
 10 13  1  0  0  0  0
 11  2  2  0  0  0  0
 12 21  1  0  0  0  0
 13 14  1  0  0  0  0
 14  4  1  0  0  0  0
 15  5  1  0  0  0  0
 16 18  1  0  0  0  0
 16  3  1  0  0  0  0
 17 10  1  0  0  0  0
 17  6  1  0  0  0  0
 18  1  1  0  0  0  0
 20 22  1  0  0  0  0
 21 20  1  0  0  0  0
 22 16  1  0  0  0  0
 23 14  2  0  0  0  0
 25  9  1  0  0  0  0
 26 18  2  0  0  0  0
 27 29  1  0  0  0  0
 27 13  1  0  0  0  0
 28 34  1  0  0  0  0
 29 33  1  0  0  0  0
 30 28  1  0  0  0  0
 30 29  1  0  0  0  0
 31 34  1  0  0  0  0
 31 33  1  0  0  0  0
 33 32  1  0  0  0  0
M  END
>  <MODEL>
3

>  <REMARK>
 VINA RESULT:      -7.9      4.630      6.631
  Name = 
  2 active torsions:
  status: ('A' for Active; 'I' for Inactive)
    1  A    between atoms: C_3  and  N_13
    2  A    between atoms: C_3  and  C_17
                            x       y       z     vdW  Elec       q    Type
                         _______ _______ _______ _____ _____    ______ ____

>  <TORSDO>
F 2

$$$$
=
 OpenBabel11052414233D

 34 39  0  0  1  0  0  0  0  0999 V2000
  190.8240  174.4620  136.3620 N   0  0  0  0  0  0  0  0  0  0  0  0
  189.1820  173.0050  135.2660 C   0  0  0  0  0  0  0  0  0  0  0  0
  188.5720  175.0340  136.4710 C   0  0  0  0  0  0  0  0  0  0  0  0
  186.2090  175.4440  137.0100 O   0  0  0  0  0  0  0  0  0  0  0  0
  191.6850  172.6350  134.9900 C   0  0  0  0  0  2  0  0  0  0  0  0
  189.3140  177.4980  136.7390 C   0  0  2  0  0  3  0  0  0  0  0  0
  189.0670  179.8230  137.3200 O   0  0  0  0  0  1  0  0  0  0  0  0
  190.2700  172.0180  134.9220 C   0  0  0  0  0  2  0  0  0  0  0  0
  186.8430  173.5290  135.6780 C   0  0  0  0  0  3  0  0  0  0  0  0
  187.4810  178.3730  138.4090 C   0  0  2  0  0  3  0  0  0  0  0  0
  189.5140  174.1720  135.9510 C   0  0  0  0  0  0  0  0  0  0  0  0
  188.6500  178.8970  140.4180 F   0  0  0  0  0  0  0  0  0  0  0  0
  186.1460  177.6660  138.1350 C   0  0  2  0  0  3  0  0  0  0  0  0
  186.1350  176.8260  136.8900 C   0  0  0  0  0  0  0  0  0  0  0  0
  191.8910  173.4750  136.2660 C   0  0  0  0  0  2  0  0  0  0  0  0
  189.2680  176.0630  137.3580 C   0  0  2  0  0  0  0  0  0  0  0  0
  188.3620  178.6250  137.1800 C   0  0  2  0  0  3  0  0  0  0  0  0
  190.6760  175.5060  137.3200 C   0  0  0  0  0  0  0  0  0  0  0  0
  187.8240  172.6860  135.1270 C   0  0  0  0  0  3  0  0  0  0  0  0
  189.2710  176.9980  139.3500 O   0  0  0  0  0  0  0  0  0  0  0  0
  188.1950  177.8410  139.6600 C   0  0  2  0  0  3  0  0  0  0  0  0
  188.7490  175.9950  138.6680 O   0  0  0  0  0  0  0  0  0  0  0  0
  186.1570  177.3590  135.7450 O   0  0  0  0  0  0  0  0  0  0  0  0
  189.4670  177.4840  135.3460 O   0  0  0  0  0  1  0  0  0  0  0  0
  187.2040  174.7010  136.3730 C   0  0  0  0  0  0  0  0  0  0  0  0
  191.6270  175.9180  138.0380 O   0  0  0  0  0  0  0  0  0  0  0  0
  184.9520  178.6180  138.2450 C   0  0  0  0  0  2  0  0  0  0  0  0
  183.6740  178.5660  141.7240 C   0  0  0  0  0  2  0  0  0  0  0  0
  184.0540  178.2340  139.3250 N   0  0  0  0  0  0  0  0  0  0  0  0
  184.5850  178.8620  140.5340 C   0  0  0  0  0  2  0  0  0  0  0  0
  182.0240  179.3110  140.1370 O   0  0  0  0  0  0  0  0  0  0  0  0
  181.8670  177.7700  138.2830 C   0  0  0  0  0  1  0  0  0  0  0  0
  182.7220  178.7970  139.0100 C   0  0  2  0  0  3  0  0  0  0  0  0
  182.2310  178.4620  141.2420 C   0  0  0  0  0  2  0  0  0  0  0  0
  1 18  1  0  0  0  0
  2 11  1  0  0  0  0
  3 16  1  0  0  0  0
  5 15  1  0  0  0  0
  6 24  1  6  0  0  0
  6 17  1  0  0  0  0
  6 16  1  0  0  0  0
  8  5  1  0  0  0  0
  8  2  1  0  0  0  0
  9 25  2  0  0  0  0
 10 21  1  0  0  0  0
 11  1  1  0  0  0  0
 11  3  2  0  0  0  0
 13 27  1  0  0  0  0
 13 10  1  0  0  0  0
 14  4  1  0  0  0  0
 14 13  1  0  0  0  0
 15  1  1  0  0  0  0
 16 22  1  0  0  0  0
 17  7  1  0  0  0  0
 17 10  1  0  0  0  0
 18 16  1  0  0  0  0
 18 26  2  0  0  0  0
 19  2  2  0  0  0  0
 19  9  1  0  0  0  0
 20 21  1  0  0  0  0
 21 12  1  0  0  0  0
 22 20  1  0  0  0  0
 23 14  2  0  0  0  0
 25  3  1  0  0  0  0
 25  4  1  0  0  0  0
 27 29  1  0  0  0  0
 29 30  1  0  0  0  0
 30 28  1  0  0  0  0
 31 34  1  0  0  0  0
 32 33  1  0  0  0  0
 33 29  1  0  0  0  0
 33 31  1  0  0  0  0
 34 28  1  0  0  0  0
M  END
>  <MODEL>
4

>  <REMARK>
 VINA RESULT:      -6.9      3.688      8.230
  Name = 
  2 active torsions:
  status: ('A' for Active; 'I' for Inactive)
    1  A    between atoms: C_3  and  N_13
    2  A    between atoms: C_3  and  C_17
                            x       y       z     vdW  Elec       q    Type
                         _______ _______ _______ _____ _____    ______ ____

>  <TORSDO>
F 2

$$$$
=
 OpenBabel11052414233D

 34 39  0  0  1  0  0  0  0  0999 V2000
  186.5440  178.2600  139.6470 N   0  0  0  0  0  0  0  0  0  0  0  0
  187.8870  178.1550  141.6980 C   0  0  0  0  0  0  0  0  0  0  0  0
  188.6780  177.3400  139.5400 C   0  0  0  0  0  0  0  0  0  0  0  0
  190.7080  175.9580  139.4520 O   0  0  0  0  0  0  0  0  0  0  0  0
  185.6560  179.3770  141.6280 C   0  0  0  0  0  2  0  0  0  0  0  0
  188.7400  178.0250  137.0460 C   0  0  2  0  0  3  0  0  0  0  0  0
  189.5210  177.9790  134.7680 O   0  0  0  0  0  1  0  0  0  0  0  0
  186.7230  178.6800  142.5010 C   0  0  0  0  0  2  0  0  0  0  0  0
  189.9780  176.9220  141.5450 C   0  0  0  0  0  3  0  0  0  0  0  0
  190.0700  175.9990  136.0250 C   0  0  2  0  0  3  0  0  0  0  0  0
  187.7430  177.9860  140.3220 C   0  0  0  0  0  0  0  0  0  0  0  0
  188.5250  174.8790  134.5980 F   0  0  0  0  0  0  0  0  0  0  0  0
  191.1080  175.4930  137.0380 C   0  0  2  0  0  3  0  0  0  0  0  0
  191.2680  176.3670  138.2490 C   0  0  0  0  0  0  0  0  0  0  0  0
  185.3130  178.5610  140.3660 C   0  0  0  0  0  2  0  0  0  0  0  0
  188.0990  177.1160  138.1460 C   0  0  2  0  0  0  0  0  0  0  0  0
  189.7970  177.5070  136.0540 C   0  0  2  0  0  3  0  0  0  0  0  0
  186.6890  177.6170  138.3830 C   0  0  0  0  0  0  0  0  0  0  0  0
  189.0260  177.6170  142.3130 C   0  0  0  0  0  3  0  0  0  0  0  0
  187.7210  175.6130  136.5850 O   0  0  0  0  0  0  0  0  0  0  0  0
  188.8400  175.0870  135.9230 C   0  0  2  0  0  3  0  0  0  0  0  0
  188.0850  175.7380  137.8480 O   0  0  0  0  0  0  0  0  0  0  0  0
  191.8140  177.5030  138.1630 O   0  0  0  0  0  0  0  0  0  0  0  0
  189.0760  179.2980  137.5230 O   0  0  0  0  0  1  0  0  0  0  0  0
  189.8070  176.7580  140.1560 C   0  0  0  0  0  0  0  0  0  0  0  0
  185.7410  177.5000  137.5600 O   0  0  0  0  0  0  0  0  0  0  0  0
  192.4340  175.1180  136.3700 C   0  0  0  0  0  2  0  0  0  0  0  0
  192.7960  171.4950  135.6740 C   0  0  0  0  0  2  0  0  0  0  0  0
  192.8110  173.7410  136.6570 N   0  0  0  0  0  0  0  0  0  0  0  0
  192.3890  172.9570  135.4970 C   0  0  0  0  0  2  0  0  0  0  0  0
  194.8910  172.5560  136.2030 O   0  0  0  0  0  0  0  0  0  0  0  0
  194.7040  173.8500  138.2350 C   0  0  0  0  0  1  0  0  0  0  0  0
  194.2860  173.7060  136.7790 C   0  0  2  0  0  3  0  0  0  0  0  0
  194.0950  171.4250  136.4690 C   0  0  0  0  0  2  0  0  0  0  0  0
  1 11  1  0  0  0  0
  1 15  1  0  0  0  0
  2 19  1  0  0  0  0
  2  8  1  0  0  0  0
  3 25  2  0  0  0  0
  3 11  1  0  0  0  0
  4 25  1  0  0  0  0
  5  8  1  0  0  0  0
  6 24  1  1  0  0  0
  6 16  1  0  0  0  0
  7 17  1  0  0  0  0
  9 19  2  0  0  0  0
 10 17  1  0  0  0  0
 10 13  1  0  0  0  0
 11  2  2  0  0  0  0
 12 21  1  0  0  0  0
 13 14  1  0  0  0  0
 14  4  1  0  0  0  0
 15  5  1  0  0  0  0
 16 18  1  0  0  0  0
 16  3  1  0  0  0  0
 17  6  1  0  0  0  0
 18  1  1  0  0  0  0
 20 22  1  0  0  0  0
 21 10  1  0  0  0  0
 21 20  1  0  0  0  0
 22 16  1  0  0  0  0
 23 14  2  0  0  0  0
 25  9  1  0  0  0  0
 26 18  2  0  0  0  0
 27 29  1  0  0  0  0
 27 13  1  0  0  0  0
 28 34  1  0  0  0  0
 29 33  1  0  0  0  0
 30 28  1  0  0  0  0
 30 29  1  0  0  0  0
 31 34  1  0  0  0  0
 31 33  1  0  0  0  0
 33 32  1  0  0  0  0
M  END
>  <MODEL>
5

>  <REMARK>
 VINA RESULT:      -6.9      3.486      6.137
  Name = 
  2 active torsions:
  status: ('A' for Active; 'I' for Inactive)
    1  A    between atoms: C_3  and  N_13
    2  A    between atoms: C_3  and  C_17
                            x       y       z     vdW  Elec       q    Type
                         _______ _______ _______ _____ _____    ______ ____

>  <TORSDO>
F 2

$$$$
=
 OpenBabel11052414233D

 34 39  0  0  1  0  0  0  0  0999 V2000
  180.5280  178.2620  141.7140 N   0  0  0  0  0  0  0  0  0  0  0  0
  182.4400  178.8400  143.1390 C   0  0  0  0  0  0  0  0  0  0  0  0
  182.6540  178.3070  140.7700 C   0  0  0  0  0  0  0  0  0  0  0  0
  184.8870  177.8920  139.8320 O   0  0  0  0  0  0  0  0  0  0  0  0
  180.0460  179.0180  143.9850 C   0  0  0  0  0  2  0  0  0  0  0  0
  181.5250  178.8130  138.4980 C   0  0  2  0  0  3  0  0  0  0  0  0
  181.3730  178.9680  136.0990 O   0  0  0  0  0  1  0  0  0  0  0  0
  181.5410  178.8790  144.3500 C   0  0  0  0  0  2  0  0  0  0  0  0
  184.6400  178.5820  142.1350 C   0  0  0  0  0  3  0  0  0  0  0  0
  183.0950  177.4690  136.8720 C   0  0  2  0  0  3  0  0  0  0  0  0
  181.8900  178.5490  141.8930 C   0  0  0  0  0  0  0  0  0  0  0  0
  181.7370  175.7300  135.9720 F   0  0  0  0  0  0  0  0  0  0  0  0
  184.5380  177.5000  137.3970 C   0  0  2  0  0  3  0  0  0  0  0  0
  184.7540  178.4280  138.5580 C   0  0  0  0  0  0  0  0  0  0  0  0
  179.6340  178.0630  142.8470 C   0  0  0  0  0  2  0  0  0  0  0  0
  181.7540  177.7850  139.6540 C   0  0  2  0  0  0  0  0  0  0  0  0
  182.2620  178.7270  137.1500 C   0  0  2  0  0  3  0  0  0  0  0  0
  180.4540  177.6670  140.4210 C   0  0  0  0  0  0  0  0  0  0  0  0
  183.8360  178.8600  143.2560 C   0  0  0  0  0  3  0  0  0  0  0  0
  181.4840  176.1740  138.1790 O   0  0  0  0  0  0  0  0  0  0  0  0
  182.3960  176.1250  137.1150 C   0  0  2  0  0  3  0  0  0  0  0  0
  182.1960  176.5110  139.2390 O   0  0  0  0  0  0  0  0  0  0  0  0
  184.7200  179.6810  138.4030 O   0  0  0  0  0  0  0  0  0  0  0  0
  181.4610  180.1360  138.9550 O   0  0  0  0  0  1  0  0  0  0  0  0
  184.0600  178.2830  140.8860 C   0  0  0  0  0  0  0  0  0  0  0  0
  179.4090  177.1200  139.9770 O   0  0  0  0  0  0  0  0  0  0  0  0
  185.5600  177.6720  136.2720 C   0  0  0  0  0  2  0  0  0  0  0  0
  188.5090  175.7070  137.3600 C   0  0  0  0  0  2  0  0  0  0  0  0
  186.5100  176.5690  136.2320 N   0  0  0  0  0  0  0  0  0  0  0  0
  187.4930  176.8450  137.2790 C   0  0  0  0  0  2  0  0  0  0  0  0
  186.4730  174.4230  137.3870 O   0  0  0  0  0  0  0  0  0  0  0  0
  185.3000  174.6380  135.2860 C   0  0  0  0  0  1  0  0  0  0  0  0
  185.7620  175.3330  136.5580 C   0  0  2  0  0  3  0  0  0  0  0  0
  187.8260  174.3930  136.9970 C   0  0  0  0  0  2  0  0  0  0  0  0
  1 11  1  0  0  0  0
  1 15  1  0  0  0  0
  2 19  1  0  0  0  0
  2  8  1  0  0  0  0
  3 25  2  0  0  0  0
  3 11  1  0  0  0  0
  4 25  1  0  0  0  0
  5  8  1  0  0  0  0
  6 24  1  1  0  0  0
  6 16  1  0  0  0  0
  7 17  1  0  0  0  0
  9 19  2  0  0  0  0
 10 21  1  0  0  0  0
 10 17  1  0  0  0  0
 10 13  1  0  0  0  0
 11  2  2  0  0  0  0
 12 21  1  0  0  0  0
 13 14  1  0  0  0  0
 14  4  1  0  0  0  0
 15  5  1  0  0  0  0
 16 18  1  0  0  0  0
 16  3  1  0  0  0  0
 17  6  1  0  0  0  0
 18  1  1  0  0  0  0
 20 22  1  0  0  0  0
 21 20  1  0  0  0  0
 22 16  1  0  0  0  0
 23 14  2  0  0  0  0
 25  9  1  0  0  0  0
 26 18  2  0  0  0  0
 27 13  1  0  0  0  0
 29 27  1  0  0  0  0
 29 33  1  0  0  0  0
 29 30  1  0  0  0  0
 30 28  1  0  0  0  0
 32 33  1  0  0  0  0
 33 31  1  0  0  0  0
 34 28  1  0  0  0  0
 34 31  1  0  0  0  0
M  END
>  <MODEL>
6

>  <REMARK>
 VINA RESULT:      -6.7      5.082      7.087
  Name = 
  2 active torsions:
  status: ('A' for Active; 'I' for Inactive)
    1  A    between atoms: C_3  and  N_13
    2  A    between atoms: C_3  and  C_17
                            x       y       z     vdW  Elec       q    Type
                         _______ _______ _______ _____ _____    ______ ____

>  <TORSDO>
F 2

$$$$
=
 OpenBabel11052414233D

 34 39  0  0  1  0  0  0  0  0999 V2000
  186.2760  178.4610  141.8370 N   0  0  0  0  0  0  0  0  0  0  0  0
  187.5620  177.4700  143.6770 C   0  0  0  0  0  0  0  0  0  0  0  0
  188.3150  177.4490  141.3590 C   0  0  0  0  0  0  0  0  0  0  0  0
  190.2080  176.0150  140.7270 O   0  0  0  0  0  0  0  0  0  0  0  0
  185.4570  178.8350  144.1070 C   0  0  0  0  0  2  0  0  0  0  0  0
  188.4910  179.0070  139.3010 C   0  0  2  0  0  3  0  0  0  0  0  0
  189.3100  179.7430  137.1580 O   0  0  0  0  0  1  0  0  0  0  0  0
  186.4360  177.7640  144.6380 C   0  0  0  0  0  2  0  0  0  0  0  0
  189.5300  176.1910  143.0400 C   0  0  0  0  0  3  0  0  0  0  0  0
  189.6450  177.3940  137.5750 C   0  0  2  0  0  3  0  0  0  0  0  0
  187.4300  177.8410  142.3410 C   0  0  0  0  0  0  0  0  0  0  0  0
  188.0310  177.0400  135.8580 F   0  0  0  0  0  0  0  0  0  0  0  0
  190.6110  176.4510  138.3070 C   0  0  2  0  0  3  0  0  0  0  0  0
  190.8280  176.7890  139.7540 C   0  0  0  0  0  0  0  0  0  0  0  0
  185.0640  178.5860  142.6370 C   0  0  0  0  0  2  0  0  0  0  0  0
  187.7460  177.8190  139.9920 C   0  0  2  0  0  0  0  0  0  0  0  0
  189.5140  178.8010  138.1700 C   0  0  2  0  0  3  0  0  0  0  0  0
  186.3850  178.3260  140.4230 C   0  0  0  0  0  0  0  0  0  0  0  0
  188.6320  176.6360  144.0270 C   0  0  0  0  0  3  0  0  0  0  0  0
  187.2600  177.0510  137.9890 O   0  0  0  0  0  0  0  0  0  0  0  0
  188.3370  176.7070  137.1590 C   0  0  2  0  0  3  0  0  0  0  0  0
  187.6080  176.6600  139.2000 O   0  0  0  0  0  0  0  0  0  0  0  0
  191.4800  177.8170  140.0900 O   0  0  0  0  0  0  0  0  0  0  0  0
  188.9360  179.9720  140.2140 O   0  0  0  0  0  1  0  0  0  0  0  0
  189.3720  176.5750  141.6930 C   0  0  0  0  0  0  0  0  0  0  0  0
  185.4470  178.6150  139.6320 O   0  0  0  0  0  0  0  0  0  0  0  0
  191.9080  176.2280  137.5260 C   0  0  0  0  0  2  0  0  0  0  0  0
  191.4780  172.9320  135.8850 C   0  0  0  0  0  2  0  0  0  0  0  0
  192.1650  174.8120  137.3000 N   0  0  0  0  0  0  0  0  0  0  0  0
  191.2460  174.4000  136.2410 C   0  0  0  0  0  2  0  0  0  0  0  0
  193.7500  173.7250  135.8010 O   0  0  0  0  0  0  0  0  0  0  0  0
  194.4980  174.4070  137.9950 C   0  0  0  0  0  1  0  0  0  0  0  0
  193.5630  174.6900  136.8280 C   0  0  2  0  0  3  0  0  0  0  0  0
  192.9540  172.5950  136.0710 C   0  0  0  0  0  2  0  0  0  0  0  0
  1 11  1  0  0  0  0
  1 15  1  0  0  0  0
  2 19  1  0  0  0  0
  2  8  1  0  0  0  0
  3 25  2  0  0  0  0
  3 11  1  0  0  0  0
  4 25  1  0  0  0  0
  5  8  1  0  0  0  0
  6 16  1  0  0  0  0
  6 24  1  1  0  0  0
  7 17  1  0  0  0  0
  9 19  2  0  0  0  0
 10 17  1  0  0  0  0
 10 13  1  0  0  0  0
 11  2  2  0  0  0  0
 12 21  1  0  0  0  0
 13 14  1  0  0  0  0
 14 23  2  0  0  0  0
 14  4  1  0  0  0  0
 15  5  1  0  0  0  0
 16 18  1  0  0  0  0
 16  3  1  0  0  0  0
 17  6  1  0  0  0  0
 18  1  1  0  0  0  0
 20 22  1  0  0  0  0
 21 10  1  0  0  0  0
 21 20  1  0  0  0  0
 22 16  1  0  0  0  0
 25  9  1  0  0  0  0
 26 18  2  0  0  0  0
 27 13  1  0  0  0  0
 28 34  1  0  0  0  0
 28 30  1  0  0  0  0
 29 27  1  0  0  0  0
 30 29  1  0  0  0  0
 31 34  1  0  0  0  0
 31 33  1  0  0  0  0
 33 29  1  0  0  0  0
 33 32  1  0  0  0  0
M  END
>  <MODEL>
7

>  <REMARK>
 VINA RESULT:      -6.3      2.708      4.804
  Name = 
  2 active torsions:
  status: ('A' for Active; 'I' for Inactive)
    1  A    between atoms: C_3  and  N_13
    2  A    between atoms: C_3  and  C_17
                            x       y       z     vdW  Elec       q    Type
                         _______ _______ _______ _____ _____    ______ ____

>  <TORSDO>
F 2

$$$$
=
 OpenBabel11052414233D

 34 39  0  0  1  0  0  0  0  0999 V2000
  186.5790  178.6460  140.0450 N   0  0  0  0  0  0  0  0  0  0  0  0
  187.2100  177.5010  137.9680 C   0  0  0  0  0  0  0  0  0  0  0  0
  184.8950  177.8700  138.6400 C   0  0  0  0  0  0  0  0  0  0  0  0
  183.1000  176.6870  137.4500 O   0  0  0  0  0  0  0  0  0  0  0  0
  188.9470  178.6280  139.4490 C   0  0  0  0  0  2  0  0  0  0  0  0
  183.3680  179.7160  139.6150 C   0  0  2  0  0  3  0  0  0  0  0  0
  181.2830  180.8110  140.1200 O   0  0  0  0  0  1  0  0  0  0  0  0
  188.6650  177.5690  138.3590 C   0  0  0  0  0  2  0  0  0  0  0  0
  185.3930  176.4790  136.7160 C   0  0  0  0  0  3  0  0  0  0  0  0
  181.0590  178.4580  139.6530 C   0  0  2  0  0  3  0  0  0  0  0  0
  186.2510  178.0490  138.8170 C   0  0  0  0  0  0  0  0  0  0  0  0
  180.4940  178.2350  141.9570 F   0  0  0  0  0  0  0  0  0  0  0  0
  180.9700  177.4950  138.4590 C   0  0  2  0  0  3  0  0  0  0  0  0
  182.0870  177.6380  137.4650 C   0  0  0  0  0  0  0  0  0  0  0  0
  187.9230  178.5640  140.6000 C   0  0  0  0  0  2  0  0  0  0  0  0
  184.1540  178.3880  139.8690 C   0  0  2  0  0  0  0  0  0  0  0  0
  181.8440  179.7510  139.4030 C   0  0  2  0  0  3  0  0  0  0  0  0
  185.3420  178.7250  140.7470 C   0  0  0  0  0  0  0  0  0  0  0  0
  186.7690  176.7080  136.9000 C   0  0  0  0  0  3  0  0  0  0  0  0
  182.6630  177.8810  141.4050 O   0  0  0  0  0  0  0  0  0  0  0  0
  181.3340  177.7420  140.9820 C   0  0  2  0  0  3  0  0  0  0  0  0
  183.3970  177.3480  140.4460 O   0  0  0  0  0  0  0  0  0  0  0  0
  182.1650  178.6530  136.7180 O   0  0  0  0  0  0  0  0  0  0  0  0
  184.0220  180.5710  138.7180 O   0  0  0  0  0  1  0  0  0  0  0  0
  184.4430  177.0390  137.5930 C   0  0  0  0  0  0  0  0  0  0  0  0
  185.2610  179.0530  141.9620 O   0  0  0  0  0  0  0  0  0  0  0  0
  179.5780  177.4850  137.8250 C   0  0  0  0  0  2  0  0  0  0  0  0
  178.9510  174.2480  136.1310 C   0  0  0  0  0  2  0  0  0  0  0  0
  179.0540  176.1320  137.6950 N   0  0  0  0  0  0  0  0  0  0  0  0
  179.4080  175.6890  136.3480 C   0  0  0  0  0  2  0  0  0  0  0  0
  180.0820  173.9910  138.2410 O   0  0  0  0  0  0  0  0  0  0  0  0
  178.9310  175.2100  139.9810 C   0  0  0  0  0  1  0  0  0  0  0  0
  179.7470  175.2940  138.6990 C   0  0  2  0  0  3  0  0  0  0  0  0
  179.0290  173.4890  137.4510 C   0  0  0  0  0  2  0  0  0  0  0  0
  1 15  1  0  0  0  0
  1 18  1  0  0  0  0
  2  8  1  0  0  0  0
  2 11  1  0  0  0  0
  3 11  2  0  0  0  0
  3 16  1  0  0  0  0
  4 14  1  0  0  0  0
  4 25  1  0  0  0  0
  5 15  1  0  0  0  0
  6 24  1  6  0  0  0
  6 16  1  0  0  0  0
  8  5  1  0  0  0  0
  9 19  1  0  0  0  0
  9 25  2  0  0  0  0
 10 21  1  0  0  0  0
 11  1  1  0  0  0  0
 13 10  1  0  0  0  0
 14 13  1  0  0  0  0
 16 22  1  0  0  0  0
 16 18  1  0  0  0  0
 17  6  1  0  0  0  0
 17 10  1  0  0  0  0
 17  7  1  0  0  0  0
 18 26  2  0  0  0  0
 19  2  2  0  0  0  0
 21 20  1  0  0  0  0
 21 12  1  0  0  0  0
 22 20  1  0  0  0  0
 23 14  2  0  0  0  0
 25  3  1  0  0  0  0
 27 13  1  0  0  0  0
 28 30  1  0  0  0  0
 28 34  1  0  0  0  0
 29 27  1  0  0  0  0
 29 33  1  0  0  0  0
 30 29  1  0  0  0  0
 31 33  1  0  0  0  0
 33 32  1  0  0  0  0
 34 31  1  0  0  0  0
M  END
>  <MODEL>
8

>  <REMARK>
 VINA RESULT:      -6.0      5.921      8.576
  Name = 
  2 active torsions:
  status: ('A' for Active; 'I' for Inactive)
    1  A    between atoms: C_3  and  N_13
    2  A    between atoms: C_3  and  C_17
                            x       y       z     vdW  Elec       q    Type
                         _______ _______ _______ _____ _____    ______ ____

>  <TORSDO>
F 2

$$$$
=
 OpenBabel11052414233D

 34 39  0  0  1  0  0  0  0  0999 V2000
  191.7660  175.4770  137.2310 N   0  0  0  0  0  0  0  0  0  0  0  0
  191.1840  173.4830  135.9230 C   0  0  0  0  0  0  0  0  0  0  0  0
  189.5420  175.1380  136.6360 C   0  0  0  0  0  0  0  0  0  0  0  0
  187.1490  174.6130  136.4420 O   0  0  0  0  0  0  0  0  0  0  0  0
  193.6060  174.1020  136.4020 C   0  0  0  0  0  2  0  0  0  0  0  0
  189.2200  177.7020  136.7760 C   0  0  2  0  0  3  0  0  0  0  0  0
  187.9810  179.7590  136.9580 O   0  0  0  0  0  1  0  0  0  0  0  0
  192.6050  172.9870  136.0260 C   0  0  0  0  0  2  0  0  0  0  0  0
  188.8090  173.0720  135.5990 C   0  0  0  0  0  3  0  0  0  0  0  0
  186.7780  177.8260  137.7450 C   0  0  2  0  0  3  0  0  0  0  0  0
  190.8430  174.6980  136.5150 C   0  0  0  0  0  0  0  0  0  0  0  0
  187.0030  178.7880  139.9130 F   0  0  0  0  0  0  0  0  0  0  0  0
  185.9430  176.6550  137.2050 C   0  0  2  0  0  3  0  0  0  0  0  0
  186.6190  175.8580  136.1270 C   0  0  0  0  0  0  0  0  0  0  0  0
  193.0930  174.9760  137.5640 C   0  0  0  0  0  2  0  0  0  0  0  0
  189.5100  176.3680  137.5390 C   0  0  2  0  0  0  0  0  0  0  0  0
  187.8380  178.3800  136.7850 C   0  0  2  0  0  3  0  0  0  0  0  0
  190.9640  176.3970  137.9660 C   0  0  0  0  0  0  0  0  0  0  0  0
  190.1480  172.6640  135.4560 C   0  0  0  0  0  3  0  0  0  0  0  0
  188.5650  177.2600  139.3150 O   0  0  0  0  0  0  0  0  0  0  0  0
  187.2170  177.6280  139.2020 C   0  0  2  0  0  3  0  0  0  0  0  0
  188.6780  176.1240  138.6520 O   0  0  0  0  0  0  0  0  0  0  0  0
  186.7950  176.3430  134.9740 O   0  0  0  0  0  0  0  0  0  0  0  0
  189.7860  177.7270  135.4950 O   0  0  0  0  0  1  0  0  0  0  0  0
  188.4890  174.3020  136.2080 C   0  0  0  0  0  0  0  0  0  0  0  0
  191.4310  177.1530  138.8590 O   0  0  0  0  0  0  0  0  0  0  0  0
  184.5130  177.0750  136.8560 C   0  0  0  0  0  2  0  0  0  0  0  0
  182.1640  175.9350  139.4870 C   0  0  0  0  0  2  0  0  0  0  0  0
  183.5270  176.1940  137.4660 N   0  0  0  0  0  0  0  0  0  0  0  0
  183.2400  176.7600  138.7820 C   0  0  0  0  0  2  0  0  0  0  0  0
  181.0940  176.2430  137.3530 O   0  0  0  0  0  0  0  0  0  0  0  0
  182.3210  175.1050  135.6100 C   0  0  0  0  0  1  0  0  0  0  0  0
  182.3130  176.2410  136.6210 C   0  0  2  0  0  3  0  0  0  0  0  0
  181.2040  175.3650  138.4480 C   0  0  0  0  0  2  0  0  0  0  0  0
  1 15  1  0  0  0  0
  1 18  1  0  0  0  0
  2  8  1  0  0  0  0
  2 11  1  0  0  0  0
  3 16  1  0  0  0  0
  5 15  1  0  0  0  0
  6 24  1  6  0  0  0
  6 17  1  0  0  0  0
  6 16  1  0  0  0  0
  8  5  1  0  0  0  0
  9 25  2  0  0  0  0
 10 21  1  0  0  0  0
 11  3  2  0  0  0  0
 11  1  1  0  0  0  0
 13 10  1  0  0  0  0
 14  4  1  0  0  0  0
 14 13  1  0  0  0  0
 16 18  1  0  0  0  0
 16 22  1  0  0  0  0
 17  7  1  0  0  0  0
 17 10  1  0  0  0  0
 18 26  2  0  0  0  0
 19  9  1  0  0  0  0
 19  2  2  0  0  0  0
 21 20  1  0  0  0  0
 21 12  1  0  0  0  0
 22 20  1  0  0  0  0
 23 14  2  0  0  0  0
 25  4  1  0  0  0  0
 25  3  1  0  0  0  0
 27 13  1  0  0  0  0
 27 29  1  0  0  0  0
 29 30  1  0  0  0  0
 30 28  1  0  0  0  0
 31 34  1  0  0  0  0
 32 33  1  0  0  0  0
 33 31  1  0  0  0  0
 33 29  1  0  0  0  0
 34 28  1  0  0  0  0
M  END
>  <MODEL>
9

>  <REMARK>
 VINA RESULT:      -6.0      4.583      8.323
  Name = 
  2 active torsions:
  status: ('A' for Active; 'I' for Inactive)
    1  A    between atoms: C_3  and  N_13
    2  A    between atoms: C_3  and  C_17
                            x       y       z     vdW  Elec       q    Type
                         _______ _______ _______ _____ _____    ______ ____

>  <TORSDO>
F 2

$$$$
