=
 OpenBabel11052413493D

 27 32  0  0  0  0  0  0  0  0999 V2000
  188.0020  177.6900  144.5930 C   0  0  0  0  0  0  0  0  0  0  0  0
  188.6410  177.5720  143.3930 C   0  0  0  0  0  0  0  0  0  0  0  0
  186.7080  178.1370  142.1770 N   0  0  0  0  0  0  0  0  0  0  0  0
  191.0060  177.0900  140.0520 C   0  0  0  0  0  3  0  0  0  0  0  0
  190.4680  177.2880  138.7770 C   0  0  0  0  0  0  0  0  0  0  0  0
  189.9480  177.2200  143.5210 C   0  0  0  0  0  0  0  0  0  0  0  0
  191.3000  176.7100  147.0470 C   0  0  0  0  0  0  0  0  0  0  0  0
  188.3050  177.8190  139.7440 C   0  0  0  0  0  3  0  0  0  0  0  0
  189.0160  177.3770  145.6120 C   0  0  0  0  0  0  0  0  0  0  0  0
  183.9490  178.7640  144.5290 C   0  0  0  0  0  0  0  0  0  0  0  0
  191.3690  176.7530  145.6440 C   0  0  0  0  0  3  0  0  0  0  0  0
  189.1250  177.6500  138.6240 C   0  0  0  0  0  3  0  0  0  0  0  0
  182.6070  179.1210  144.4980 O   0  0  0  0  0  1  0  0  0  0  0  0
  188.8270  177.6250  141.0270 C   0  0  0  0  0  0  0  0  0  0  0  0
  190.2100  177.0900  144.9510 C   0  0  0  0  0  0  0  0  0  0  0  0
  191.2510  177.1280  137.6820 F   0  0  0  0  0  0  0  0  0  0  0  0
  190.2070  177.2530  141.1850 C   0  0  0  0  0  0  0  0  0  0  0  0
  186.6510  178.0460  144.6140 C   0  0  0  0  0  0  0  0  0  0  0  0
  188.0300  177.7860  142.1790 C   0  0  0  0  0  0  0  0  0  0  0  0
  184.6600  178.6280  143.3320 C   0  0  0  0  0  3  0  0  0  0  0  0
  190.7450  177.0560  142.4340 N   0  0  0  0  0  0  0  0  0  0  0  0
  184.5820  178.5440  145.7570 C   0  0  0  0  0  3  0  0  0  0  0  0
  192.4300  176.3800  147.7820 O   0  0  0  0  0  1  0  0  0  0  0  0
  185.9320  178.1840  145.8040 C   0  0  0  0  0  3  0  0  0  0  0  0
  190.0910  177.0010  147.7190 C   0  0  0  0  0  3  0  0  0  0  0  0
  186.0100  178.2690  143.3550 C   0  0  0  0  0  0  0  0  0  0  0  0
  188.9300  177.3400  147.0010 C   0  0  0  0  0  3  0  0  0  0  0  0
  1 18  1  0  0  0  0
  1  9  1  0  0  0  0
  2  6  1  0  0  0  0
  2  1  2  0  0  0  0
  3 19  2  0  0  0  0
  3 26  1  0  0  0  0
  4 17  1  0  0  0  0
  5  4  2  0  0  0  0
  6 15  1  0  0  0  0
  7 25  1  0  0  0  0
  7 23  1  0  0  0  0
  8 14  1  0  0  0  0
  9 27  1  0  0  0  0
 10 22  1  0  0  0  0
 11  7  2  0  0  0  0
 12  5  1  0  0  0  0
 12  8  2  0  0  0  0
 13 10  1  0  0  0  0
 14 17  2  0  0  0  0
 14 19  1  0  0  0  0
 15  9  2  0  0  0  0
 15 11  1  0  0  0  0
 16  5  1  0  0  0  0
 17 21  1  0  0  0  0
 18 24  1  0  0  0  0
 19  2  1  0  0  0  0
 20 26  1  0  0  0  0
 20 10  2  0  0  0  0
 21  6  2  0  0  0  0
 22 24  2  0  0  0  0
 26 18  2  0  0  0  0
 27 25  2  0  0  0  0
M  END
>  <MODEL>
1

>  <REMARK>
 VINA RESULT:     -12.8      0.000      0.000
  Name = 
  0 active torsions:
  status: ('A' for Active; 'I' for Inactive)
                            x       y       z     vdW  Elec       q    Type
                         _______ _______ _______ _____ _____    ______ ____

>  <TORSDO>
F 0

$$$$
=
 OpenBabel11052413493D

 27 32  0  0  0  0  0  0  0  0999 V2000
  188.2690  177.5670  144.7080 C   0  0  0  0  0  0  0  0  0  0  0  0
  188.4360  177.6330  143.3560 C   0  0  0  0  0  0  0  0  0  0  0  0
  190.6930  176.9820  143.4880 N   0  0  0  0  0  0  0  0  0  0  0  0
  188.4300  177.9780  139.2490 C   0  0  0  0  0  3  0  0  0  0  0  0
  189.5920  177.7090  138.5200 C   0  0  0  0  0  0  0  0  0  0  0  0
  187.3060  178.0070  142.7000 C   0  0  0  0  0  0  0  0  0  0  0  0
  184.2010  178.7110  144.7940 C   0  0  0  0  0  0  0  0  0  0  0  0
  190.7890  177.1990  140.5690 C   0  0  0  0  0  3  0  0  0  0  0  0
  186.8670  177.9440  144.9510 C   0  0  0  0  0  0  0  0  0  0  0  0
  191.5830  176.4360  147.0160 C   0  0  0  0  0  0  0  0  0  0  0  0
  184.9460  178.5990  143.6070 C   0  0  0  0  0  3  0  0  0  0  0  0
  190.7650  177.3230  139.1770 C   0  0  0  0  0  3  0  0  0  0  0  0
  192.6850  176.0610  147.7710 O   0  0  0  0  0  1  0  0  0  0  0  0
  189.6350  177.4640  141.3140 C   0  0  0  0  0  0  0  0  0  0  0  0
  186.2780  178.2130  143.7160 C   0  0  0  0  0  0  0  0  0  0  0  0
  189.5830  177.8250  137.1700 F   0  0  0  0  0  0  0  0  0  0  0  0
  188.4290  177.8610  140.6400 C   0  0  0  0  0  0  0  0  0  0  0  0
  189.3480  177.1940  145.5120 C   0  0  0  0  0  0  0  0  0  0  0  0
  189.6220  177.3500  142.7200 C   0  0  0  0  0  0  0  0  0  0  0  0
  191.6910  176.5220  145.6240 C   0  0  0  0  0  3  0  0  0  0  0  0
  187.2810  178.1270  141.3480 N   0  0  0  0  0  0  0  0  0  0  0  0
  190.3700  176.7260  147.6510 C   0  0  0  0  0  3  0  0  0  0  0  0
  182.8680  179.0930  144.7360 O   0  0  0  0  0  1  0  0  0  0  0  0
  189.2510  177.1060  146.9030 C   0  0  0  0  0  3  0  0  0  0  0  0
  184.7960  178.4380  146.0460 C   0  0  0  0  0  3  0  0  0  0  0  0
  190.5850  176.8990  144.8570 C   0  0  0  0  0  0  0  0  0  0  0  0
  186.1440  178.0490  146.1360 C   0  0  0  0  0  3  0  0  0  0  0  0
  1  9  1  0  0  0  0
  1 18  1  0  0  0  0
  2  1  2  0  0  0  0
  3 26  1  0  0  0  0
  4 17  1  0  0  0  0
  5 12  1  0  0  0  0
  5  4  2  0  0  0  0
  6  2  1  0  0  0  0
  6 15  1  0  0  0  0
  7 25  1  0  0  0  0
  8 14  1  0  0  0  0
  9 27  1  0  0  0  0
 10 22  1  0  0  0  0
 10 13  1  0  0  0  0
 11 15  1  0  0  0  0
 11  7  2  0  0  0  0
 12  8  2  0  0  0  0
 14 19  1  0  0  0  0
 15  9  2  0  0  0  0
 16  5  1  0  0  0  0
 17 14  2  0  0  0  0
 17 21  1  0  0  0  0
 18 24  1  0  0  0  0
 19  2  1  0  0  0  0
 19  3  2  0  0  0  0
 20 10  2  0  0  0  0
 21  6  2  0  0  0  0
 23  7  1  0  0  0  0
 24 22  2  0  0  0  0
 25 27  2  0  0  0  0
 26 18  2  0  0  0  0
 26 20  1  0  0  0  0
M  END
>  <MODEL>
2

>  <REMARK>
 VINA RESULT:     -12.7      0.653      5.064
  Name = 
  0 active torsions:
  status: ('A' for Active; 'I' for Inactive)
                            x       y       z     vdW  Elec       q    Type
                         _______ _______ _______ _____ _____    ______ ____

>  <TORSDO>
F 0

$$$$
=
 OpenBabel11052413493D

 27 32  0  0  0  0  0  0  0  0999 V2000
  189.3730  177.3710  143.5030 C   0  0  0  0  0  0  0  0  0  0  0  0
  188.0500  177.7010  143.5610 C   0  0  0  0  0  0  0  0  0  0  0  0
  187.9990  177.5550  145.9090 N   0  0  0  0  0  0  0  0  0  0  0  0
  184.0750  178.7310  143.2060 C   0  0  0  0  0  3  0  0  0  0  0  0
  183.2780  178.8560  144.3470 C   0  0  0  0  0  0  0  0  0  0  0  0
  187.5050  177.9230  142.3360 C   0  0  0  0  0  0  0  0  0  0  0  0
  189.7790  177.5540  139.3010 C   0  0  0  0  0  0  0  0  0  0  0  0
  185.1660  178.2820  145.7600 C   0  0  0  0  0  3  0  0  0  0  0  0
  189.7190  177.3800  142.0730 C   0  0  0  0  0  0  0  0  0  0  0  0
  191.3430  176.6250  147.1300 C   0  0  0  0  0  0  0  0  0  0  0  0
  188.5710  177.8140  139.9710 C   0  0  0  0  0  3  0  0  0  0  0  0
  183.8210  178.6320  145.6170 C   0  0  0  0  0  3  0  0  0  0  0  0
  191.9870  176.3800  148.3350 O   0  0  0  0  0  1  0  0  0  0  0  0
  185.9790  178.1530  144.6290 C   0  0  0  0  0  0  0  0  0  0  0  0
  188.5700  177.7200  141.3590 C   0  0  0  0  0  0  0  0  0  0  0  0
  181.9720  179.1940  144.2230 F   0  0  0  0  0  0  0  0  0  0  0  0
  185.4220  178.3830  143.3240 C   0  0  0  0  0  0  0  0  0  0  0  0
  190.0650  177.1150  144.6890 C   0  0  0  0  0  0  0  0  0  0  0  0
  187.3400  177.8010  144.7350 C   0  0  0  0  0  0  0  0  0  0  0  0
  189.9870  176.9690  147.1230 C   0  0  0  0  0  3  0  0  0  0  0  0
  186.1990  178.2630  142.1960 N   0  0  0  0  0  0  0  0  0  0  0  0
  192.0540  176.5270  145.9280 C   0  0  0  0  0  3  0  0  0  0  0  0
  189.8290  177.6360  137.9160 O   0  0  0  0  0  1  0  0  0  0  0  0
  191.4190  176.7710  144.7070 C   0  0  0  0  0  3  0  0  0  0  0  0
  190.9440  177.2100  140.0220 C   0  0  0  0  0  3  0  0  0  0  0  0
  189.3330  177.2160  145.9140 C   0  0  0  0  0  0  0  0  0  0  0  0
  190.9230  177.1200  141.4250 C   0  0  0  0  0  3  0  0  0  0  0  0
  1  2  2  0  0  0  0
  1 18  1  0  0  0  0
  2 19  1  0  0  0  0
  3 26  1  0  0  0  0
  4 17  2  0  0  0  0
  4  5  1  0  0  0  0
  5 12  2  0  0  0  0
  6  2  1  0  0  0  0
  7 11  2  0  0  0  0
  7 25  1  0  0  0  0
  9  1  1  0  0  0  0
 10 13  1  0  0  0  0
 11 15  1  0  0  0  0
 12  8  1  0  0  0  0
 14 19  1  0  0  0  0
 14  8  2  0  0  0  0
 15  9  2  0  0  0  0
 15  6  1  0  0  0  0
 16  5  1  0  0  0  0
 17 14  1  0  0  0  0
 18 24  2  0  0  0  0
 18 26  1  0  0  0  0
 19  3  2  0  0  0  0
 20 10  1  0  0  0  0
 21  6  2  0  0  0  0
 21 17  1  0  0  0  0
 22 10  2  0  0  0  0
 23  7  1  0  0  0  0
 24 22  1  0  0  0  0
 25 27  2  0  0  0  0
 26 20  2  0  0  0  0
 27  9  1  0  0  0  0
M  END
>  <MODEL>
3

>  <REMARK>
 VINA RESULT:     -12.1      3.108      6.639
  Name = 
  0 active torsions:
  status: ('A' for Active; 'I' for Inactive)
                            x       y       z     vdW  Elec       q    Type
                         _______ _______ _______ _____ _____    ______ ____

>  <TORSDO>
F 0

$$$$
=
 OpenBabel11052413493D

 27 32  0  0  0  0  0  0  0  0999 V2000
  189.2870  177.4240  142.9760 C   0  0  0  0  0  0  0  0  0  0  0  0
  188.0250  177.7180  143.4020 C   0  0  0  0  0  0  0  0  0  0  0  0
  187.2360  178.0420  141.2090 N   0  0  0  0  0  0  0  0  0  0  0  0
  184.3970  178.5300  145.1820 C   0  0  0  0  0  3  0  0  0  0  0  0
  183.2870  178.8540  144.3960 C   0  0  0  0  0  0  0  0  0  0  0  0
  187.8970  177.6720  144.7550 C   0  0  0  0  0  0  0  0  0  0  0  0
  190.9930  176.7760  146.7880 C   0  0  0  0  0  0  0  0  0  0  0  0
  184.6180  178.6350  142.3780 C   0  0  0  0  0  3  0  0  0  0  0  0
  190.0630  177.1590  144.1980 C   0  0  0  0  0  0  0  0  0  0  0  0
  189.9990  177.4830  138.8440 C   0  0  0  0  0  0  0  0  0  0  0  0
  189.6450  177.1260  146.5960 C   0  0  0  0  0  3  0  0  0  0  0  0
  183.3980  178.9070  143.0020 C   0  0  0  0  0  3  0  0  0  0  0  0
  190.2250  177.5050  137.4740 O   0  0  0  0  0  1  0  0  0  0  0  0
  185.7390  178.3080  143.1490 C   0  0  0  0  0  0  0  0  0  0  0  0
  189.2070  177.3110  145.2880 C   0  0  0  0  0  0  0  0  0  0  0  0
  182.0970  179.1210  144.9870 F   0  0  0  0  0  0  0  0  0  0  0  0
  185.6260  178.2550  144.5810 C   0  0  0  0  0  0  0  0  0  0  0  0
  189.5650  177.4330  141.6070 C   0  0  0  0  0  0  0  0  0  0  0  0
  186.9870  178.0290  142.5540 C   0  0  0  0  0  0  0  0  0  0  0  0
  188.7250  177.7750  139.3430 C   0  0  0  0  0  3  0  0  0  0  0  0
  186.7120  177.9360  145.3620 N   0  0  0  0  0  0  0  0  0  0  0  0
  191.0460  177.1690  139.7170 C   0  0  0  0  0  3  0  0  0  0  0  0
  191.4760  176.5800  148.0750 O   0  0  0  0  0  1  0  0  0  0  0  0
  190.8340  177.1430  141.0990 C   0  0  0  0  0  3  0  0  0  0  0  0
  191.8620  176.6200  145.6850 C   0  0  0  0  0  3  0  0  0  0  0  0
  188.4910  177.7560  140.7200 C   0  0  0  0  0  0  0  0  0  0  0  0
  191.4000  176.8120  144.3700 C   0  0  0  0  0  3  0  0  0  0  0  0
  1  2  1  0  0  0  0
  1  9  1  0  0  0  0
  2  6  1  0  0  0  0
  3 19  1  0  0  0  0
  5 16  1  0  0  0  0
  5  4  2  0  0  0  0
  6 15  1  0  0  0  0
  6 21  2  0  0  0  0
  7 23  1  0  0  0  0
  8 12  2  0  0  0  0
  8 14  1  0  0  0  0
  9 27  2  0  0  0  0
  9 15  1  0  0  0  0
 10 20  2  0  0  0  0
 10 22  1  0  0  0  0
 11  7  1  0  0  0  0
 12  5  1  0  0  0  0
 13 10  1  0  0  0  0
 14 17  2  0  0  0  0
 15 11  2  0  0  0  0
 17  4  1  0  0  0  0
 17 21  1  0  0  0  0
 18  1  2  0  0  0  0
 19 14  1  0  0  0  0
 19  2  2  0  0  0  0
 20 26  1  0  0  0  0
 22 24  2  0  0  0  0
 24 18  1  0  0  0  0
 25  7  2  0  0  0  0
 26  3  2  0  0  0  0
 26 18  1  0  0  0  0
 27 25  1  0  0  0  0
M  END
>  <MODEL>
4

>  <REMARK>
 VINA RESULT:     -11.7      3.197      5.654
  Name = 
  0 active torsions:
  status: ('A' for Active; 'I' for Inactive)
                            x       y       z     vdW  Elec       q    Type
                         _______ _______ _______ _____ _____    ______ ____

>  <TORSDO>
F 0

$$$$
=
 OpenBabel11052413493D

 27 32  0  0  0  0  0  0  0  0999 V2000
  187.6470  177.8580  142.3130 C   0  0  0  0  0  0  0  0  0  0  0  0
  188.5630  177.5570  143.2780 C   0  0  0  0  0  0  0  0  0  0  0  0
  187.0090  177.8760  145.0150 N   0  0  0  0  0  0  0  0  0  0  0  0
  191.6760  176.5760  145.7950 C   0  0  0  0  0  3  0  0  0  0  0  0
  191.4790  176.5500  147.1790 C   0  0  0  0  0  0  0  0  0  0  0  0
  189.7880  177.2560  142.7710 C   0  0  0  0  0  0  0  0  0  0  0  0
  190.2040  177.3590  138.9840 C   0  0  0  0  0  0  0  0  0  0  0  0
  189.1560  177.1920  146.8840 C   0  0  0  0  0  3  0  0  0  0  0  0
  188.3670  177.7370  141.0350 C   0  0  0  0  0  0  0  0  0  0  0  0
  183.7650  178.8320  143.5640 C   0  0  0  0  0  0  0  0  0  0  0  0
  190.6220  177.1710  140.3130 C   0  0  0  0  0  3  0  0  0  0  0  0
  190.2250  176.8570  147.7200 C   0  0  0  0  0  3  0  0  0  0  0  0
  182.4830  179.1530  143.9880 O   0  0  0  0  0  1  0  0  0  0  0  0
  189.3360  177.2220  145.4980 C   0  0  0  0  0  0  0  0  0  0  0  0
  189.6810  177.3670  141.3200 C   0  0  0  0  0  0  0  0  0  0  0  0
  192.5060  176.2270  148.0010 F   0  0  0  0  0  0  0  0  0  0  0  0
  190.6230  176.9080  144.9410 C   0  0  0  0  0  0  0  0  0  0  0  0
  186.3430  178.1870  142.6880 C   0  0  0  0  0  0  0  0  0  0  0  0
  188.2800  177.5560  144.6240 C   0  0  0  0  0  0  0  0  0  0  0  0
  184.7490  178.5130  144.5060 C   0  0  0  0  0  3  0  0  0  0  0  0
  190.8270  176.9300  143.5810 N   0  0  0  0  0  0  0  0  0  0  0  0
  184.0660  178.8280  142.1970 C   0  0  0  0  0  3  0  0  0  0  0  0
  191.1070  177.1750  137.9460 O   0  0  0  0  0  1  0  0  0  0  0  0
  185.3530  178.5070  141.7560 C   0  0  0  0  0  3  0  0  0  0  0  0
  188.8730  177.7340  138.6940 C   0  0  0  0  0  3  0  0  0  0  0  0
  186.0420  178.1900  144.0870 C   0  0  0  0  0  0  0  0  0  0  0  0
  187.9360  177.9270  139.7250 C   0  0  0  0  0  3  0  0  0  0  0  0
  1 18  2  0  0  0  0
  1  2  1  0  0  0  0
  2 19  1  0  0  0  0
  4  5  2  0  0  0  0
  5 12  1  0  0  0  0
  5 16  1  0  0  0  0
  6  2  2  0  0  0  0
  6 21  1  0  0  0  0
  7 11  1  0  0  0  0
  8 12  2  0  0  0  0
  9 15  1  0  0  0  0
  9  1  1  0  0  0  0
 10 13  1  0  0  0  0
 10 20  2  0  0  0  0
 11 15  2  0  0  0  0
 14  8  1  0  0  0  0
 15  6  1  0  0  0  0
 17 14  1  0  0  0  0
 17  4  1  0  0  0  0
 18 26  1  0  0  0  0
 19  3  1  0  0  0  0
 19 14  2  0  0  0  0
 21 17  2  0  0  0  0
 22 10  1  0  0  0  0
 23  7  1  0  0  0  0
 24 22  2  0  0  0  0
 24 18  1  0  0  0  0
 25  7  2  0  0  0  0
 25 27  1  0  0  0  0
 26 20  1  0  0  0  0
 26  3  2  0  0  0  0
 27  9  2  0  0  0  0
M  END
>  <MODEL>
5

>  <REMARK>
 VINA RESULT:     -11.7      2.905      5.485
  Name = 
  0 active torsions:
  status: ('A' for Active; 'I' for Inactive)
                            x       y       z     vdW  Elec       q    Type
                         _______ _______ _______ _____ _____    ______ ____

>  <TORSDO>
F 0

$$$$
=
 OpenBabel11052413493D

 27 32  0  0  0  0  0  0  0  0999 V2000
  187.5130  177.9410  142.4480 C   0  0  0  0  0  0  0  0  0  0  0  0
  188.2450  177.6160  143.5530 C   0  0  0  0  0  0  0  0  0  0  0  0
  190.1660  177.1380  142.2820 N   0  0  0  0  0  0  0  0  0  0  0  0
  190.0170  176.7450  147.1710 C   0  0  0  0  0  3  0  0  0  0  0  0
  191.3510  176.3310  147.2180 C   0  0  0  0  0  0  0  0  0  0  0  0
  187.5390  177.7300  144.7090 C   0  0  0  0  0  0  0  0  0  0  0  0
  183.9120  178.8710  144.4540 C   0  0  0  0  0  0  0  0  0  0  0  0
  191.5130  176.4970  144.8010 C   0  0  0  0  0  3  0  0  0  0  0  0
  186.1800  178.3060  142.9520 C   0  0  0  0  0  0  0  0  0  0  0  0
  189.4190  177.6860  138.7210 C   0  0  0  0  0  0  0  0  0  0  0  0
  185.0780  178.4520  145.1180 C   0  0  0  0  0  3  0  0  0  0  0  0
  192.0940  176.2060  146.0390 C   0  0  0  0  0  3  0  0  0  0  0  0
  190.0580  177.6000  137.4920 O   0  0  0  0  0  1  0  0  0  0  0  0
  190.1800  176.9140  144.7360 C   0  0  0  0  0  0  0  0  0  0  0  0
  186.1990  178.1760  144.3400 C   0  0  0  0  0  0  0  0  0  0  0  0
  191.9270  176.0450  148.4100 F   0  0  0  0  0  0  0  0  0  0  0  0
  189.4150  177.0410  145.9470 C   0  0  0  0  0  0  0  0  0  0  0  0
  188.1120  177.8690  141.1880 C   0  0  0  0  0  0  0  0  0  0  0  0
  189.5600  177.2140  143.5060 C   0  0  0  0  0  0  0  0  0  0  0  0
  190.1160  177.3670  139.8910 C   0  0  0  0  0  3  0  0  0  0  0  0
  188.1020  177.4490  145.9110 N   0  0  0  0  0  0  0  0  0  0  0  0
  188.0810  178.0940  138.7830 C   0  0  0  0  0  3  0  0  0  0  0  0
  182.7690  179.1580  145.1880 O   0  0  0  0  0  1  0  0  0  0  0  0
  187.4240  178.1860  140.0130 C   0  0  0  0  0  3  0  0  0  0  0  0
  183.8910  179.0030  143.0480 C   0  0  0  0  0  3  0  0  0  0  0  0
  189.4790  177.4520  141.1310 C   0  0  0  0  0  0  0  0  0  0  0  0
  185.0340  178.7200  142.2790 C   0  0  0  0  0  3  0  0  0  0  0  0
  1  9  1  0  0  0  0
  1  2  1  0  0  0  0
  2  6  1  0  0  0  0
  3 19  1  0  0  0  0
  4  5  1  0  0  0  0
  5 16  1  0  0  0  0
  6 21  2  0  0  0  0
  7 11  1  0  0  0  0
  7 23  1  0  0  0  0
  8 12  1  0  0  0  0
  9 15  1  0  0  0  0
 10 22  1  0  0  0  0
 10 20  2  0  0  0  0
 12  5  2  0  0  0  0
 13 10  1  0  0  0  0
 14  8  2  0  0  0  0
 14 17  1  0  0  0  0
 15  6  1  0  0  0  0
 15 11  2  0  0  0  0
 17  4  2  0  0  0  0
 18  1  2  0  0  0  0
 19  2  2  0  0  0  0
 19 14  1  0  0  0  0
 20 26  1  0  0  0  0
 21 17  1  0  0  0  0
 22 24  2  0  0  0  0
 24 18  1  0  0  0  0
 25  7  2  0  0  0  0
 26 18  1  0  0  0  0
 26  3  2  0  0  0  0
 27  9  2  0  0  0  0
 27 25  1  0  0  0  0
M  END
>  <MODEL>
6

>  <REMARK>
 VINA RESULT:     -11.6      3.054      6.471
  Name = 
  0 active torsions:
  status: ('A' for Active; 'I' for Inactive)
                            x       y       z     vdW  Elec       q    Type
                         _______ _______ _______ _____ _____    ______ ____

>  <TORSDO>
F 0

$$$$
=
 OpenBabel11052413493D

 27 32  0  0  0  0  0  0  0  0999 V2000
  188.1300  177.7880  143.9680 C   0  0  0  0  0  0  0  0  0  0  0  0
  186.8000  178.0440  143.7990 C   0  0  0  0  0  0  0  0  0  0  0  0
  186.9630  177.9560  141.4540 N   0  0  0  0  0  0  0  0  0  0  0  0
  182.7550  178.8310  143.8210 C   0  0  0  0  0  3  0  0  0  0  0  0
  182.0540  178.9390  142.6160 C   0  0  0  0  0  0  0  0  0  0  0  0
  186.1370  178.2000  144.9760 C   0  0  0  0  0  0  0  0  0  0  0  0
  188.1540  177.8830  148.1930 C   0  0  0  0  0  0  0  0  0  0  0  0
  184.0900  178.5130  141.3650 C   0  0  0  0  0  3  0  0  0  0  0  0
  188.3480  177.7800  145.4230 C   0  0  0  0  0  0  0  0  0  0  0  0
  190.4520  177.2560  140.5160 C   0  0  0  0  0  0  0  0  0  0  0  0
  186.9960  178.0900  147.4240 C   0  0  0  0  0  3  0  0  0  0  0  0
  182.7190  178.7810  141.3950 C   0  0  0  0  0  3  0  0  0  0  0  0
  191.2120  177.0810  139.3680 O   0  0  0  0  0  1  0  0  0  0  0  0
  184.8070  178.4020  142.5610 C   0  0  0  0  0  0  0  0  0  0  0  0
  187.1230  178.0330  146.0390 C   0  0  0  0  0  0  0  0  0  0  0  0
  180.7240  179.1980  142.6300 F   0  0  0  0  0  0  0  0  0  0  0  0
  184.1250  178.5640  143.8160 C   0  0  0  0  0  0  0  0  0  0  0  0
  188.9380  177.6050  142.8430 C   0  0  0  0  0  0  0  0  0  0  0  0
  186.1910  178.1330  142.5690 C   0  0  0  0  0  0  0  0  0  0  0  0
  189.0820  177.5200  140.4090 C   0  0  0  0  0  3  0  0  0  0  0  0
  184.8050  178.4600  145.0060 N   0  0  0  0  0  0  0  0  0  0  0  0
  191.0600  177.1670  141.7740 C   0  0  0  0  0  3  0  0  0  0  0  0
  188.0770  177.9300  149.5780 O   0  0  0  0  0  1  0  0  0  0  0  0
  190.3070  177.3410  142.9390 C   0  0  0  0  0  3  0  0  0  0  0  0
  189.3960  177.6270  147.5710 C   0  0  0  0  0  3  0  0  0  0  0  0
  188.3110  177.6970  141.5600 C   0  0  0  0  0  0  0  0  0  0  0  0
  189.5040  177.5720  146.1700 C   0  0  0  0  0  3  0  0  0  0  0  0
  1  9  1  0  0  0  0
  2  1  1  0  0  0  0
  2  6  1  0  0  0  0
  3 26  2  0  0  0  0
  3 19  1  0  0  0  0
  5 16  1  0  0  0  0
  5  4  2  0  0  0  0
  6 21  2  0  0  0  0
  6 15  1  0  0  0  0
  7 23  1  0  0  0  0
  8 12  2  0  0  0  0
  8 14  1  0  0  0  0
  9 15  2  0  0  0  0
  9 27  1  0  0  0  0
 10 22  1  0  0  0  0
 11  7  2  0  0  0  0
 12  5  1  0  0  0  0
 13 10  1  0  0  0  0
 14 19  1  0  0  0  0
 14 17  2  0  0  0  0
 15 11  1  0  0  0  0
 17  4  1  0  0  0  0
 17 21  1  0  0  0  0
 18 24  1  0  0  0  0
 18  1  2  0  0  0  0
 19  2  2  0  0  0  0
 20 10  2  0  0  0  0
 20 26  1  0  0  0  0
 22 24  2  0  0  0  0
 25  7  1  0  0  0  0
 26 18  1  0  0  0  0
 27 25  2  0  0  0  0
M  END
>  <MODEL>
7

>  <REMARK>
 VINA RESULT:     -11.4      3.257      5.754
  Name = 
  0 active torsions:
  status: ('A' for Active; 'I' for Inactive)
                            x       y       z     vdW  Elec       q    Type
                         _______ _______ _______ _____ _____    ______ ____

>  <TORSDO>
F 0

$$$$
=
 OpenBabel11052413493D

 27 32  0  0  0  0  0  0  0  0999 V2000
  186.5810  178.1790  144.3620 C   0  0  0  0  0  0  0  0  0  0  0  0
  187.5680  177.9580  143.4460 C   0  0  0  0  0  0  0  0  0  0  0  0
  186.0860  178.1580  141.6300 N   0  0  0  0  0  0  0  0  0  0  0  0
  190.8790  177.2450  141.0980 C   0  0  0  0  0  3  0  0  0  0  0  0
  190.7580  177.2110  139.7050 C   0  0  0  0  0  0  0  0  0  0  0  0
  188.7850  177.7550  144.0180 C   0  0  0  0  0  0  0  0  0  0  0  0
  188.9900  177.8750  147.8210 C   0  0  0  0  0  0  0  0  0  0  0  0
  188.3780  177.6600  139.8760 C   0  0  0  0  0  3  0  0  0  0  0  0
  187.2390  178.1110  145.6760 C   0  0  0  0  0  0  0  0  0  0  0  0
  182.7030  178.8390  142.9070 C   0  0  0  0  0  0  0  0  0  0  0  0
  189.4920  177.7270  146.5160 C   0  0  0  0  0  3  0  0  0  0  0  0
  189.5130  177.4160  139.0990 C   0  0  0  0  0  3  0  0  0  0  0  0
  181.4230  179.0560  142.4150 O   0  0  0  0  0  1  0  0  0  0  0  0
  188.4810  177.6980  141.2710 C   0  0  0  0  0  0  0  0  0  0  0  0
  188.5920  177.8510  145.4610 C   0  0  0  0  0  0  0  0  0  0  0  0
  191.8490  176.9760  138.9390 F   0  0  0  0  0  0  0  0  0  0  0  0
  189.7590  177.4870  141.8950 C   0  0  0  0  0  0  0  0  0  0  0  0
  185.2750  178.4030  143.9180 C   0  0  0  0  0  0  0  0  0  0  0  0
  187.3570  177.9400  142.0870 C   0  0  0  0  0  0  0  0  0  0  0  0
  183.7580  178.6060  142.0180 C   0  0  0  0  0  3  0  0  0  0  0  0
  189.8880  177.5190  143.2630 N   0  0  0  0  0  0  0  0  0  0  0  0
  182.9310  178.8540  144.2870 C   0  0  0  0  0  3  0  0  0  0  0  0
  189.8490  177.7600  148.9050 O   0  0  0  0  0  1  0  0  0  0  0  0
  184.2150  178.6360  144.7970 C   0  0  0  0  0  3  0  0  0  0  0  0
  187.6190  178.1380  148.0400 C   0  0  0  0  0  3  0  0  0  0  0  0
  185.0490  178.3860  142.5050 C   0  0  0  0  0  0  0  0  0  0  0  0
  186.7260  178.2600  146.9610 C   0  0  0  0  0  3  0  0  0  0  0  0
  1  9  1  0  0  0  0
  2  6  1  0  0  0  0
  2  1  2  0  0  0  0
  3 19  2  0  0  0  0
  3 26  1  0  0  0  0
  4 17  1  0  0  0  0
  5  4  2  0  0  0  0
  6 15  1  0  0  0  0
  7 25  1  0  0  0  0
  7 23  1  0  0  0  0
  8 14  1  0  0  0  0
  9 27  1  0  0  0  0
 10 22  1  0  0  0  0
 11  7  2  0  0  0  0
 12  5  1  0  0  0  0
 12  8  2  0  0  0  0
 13 10  1  0  0  0  0
 14 17  2  0  0  0  0
 14 19  1  0  0  0  0
 15  9  2  0  0  0  0
 15 11  1  0  0  0  0
 16  5  1  0  0  0  0
 17 21  1  0  0  0  0
 18  1  1  0  0  0  0
 18 24  1  0  0  0  0
 19  2  1  0  0  0  0
 20 26  1  0  0  0  0
 20 10  2  0  0  0  0
 21  6  2  0  0  0  0
 22 24  2  0  0  0  0
 26 18  2  0  0  0  0
 27 25  2  0  0  0  0
M  END
>  <MODEL>
8

>  <REMARK>
 VINA RESULT:     -11.3      1.317      1.746
  Name = 
  0 active torsions:
  status: ('A' for Active; 'I' for Inactive)
                            x       y       z     vdW  Elec       q    Type
                         _______ _______ _______ _____ _____    ______ ____

>  <TORSDO>
F 0

$$$$
=
 OpenBabel11052413493D

 27 32  0  0  0  0  0  0  0  0999 V2000
  186.1300  178.1380  143.8110 C   0  0  0  0  0  0  0  0  0  0  0  0
  186.9510  178.0440  142.7250 C   0  0  0  0  0  0  0  0  0  0  0  0
  185.2090  178.5360  141.2220 N   0  0  0  0  0  0  0  0  0  0  0  0
  189.8190  177.6510  139.7920 C   0  0  0  0  0  3  0  0  0  0  0  0
  189.4780  177.8290  138.4480 C   0  0  0  0  0  0  0  0  0  0  0  0
  188.2340  177.7420  143.0560 C   0  0  0  0  0  0  0  0  0  0  0  0
  189.0430  177.2840  146.7510 C   0  0  0  0  0  0  0  0  0  0  0  0
  187.1730  178.2780  139.0660 C   0  0  0  0  0  3  0  0  0  0  0  0
  186.9850  177.8640  144.9760 C   0  0  0  0  0  0  0  0  0  0  0  0
  182.0980  179.0600  143.1160 C   0  0  0  0  0  0  0  0  0  0  0  0
  189.3260  177.3290  145.3750 C   0  0  0  0  0  3  0  0  0  0  0  0
  188.1620  178.1400  138.0880 C   0  0  0  0  0  3  0  0  0  0  0  0
  180.7650  179.3660  142.8760 O   0  0  0  0  0  1  0  0  0  0  0  0
  187.4970  178.1040  140.4160 C   0  0  0  0  0  0  0  0  0  0  0  0
  188.2760  177.6220  144.5090 C   0  0  0  0  0  0  0  0  0  0  0  0
  190.4250  177.6980  137.4880 F   0  0  0  0  0  0  0  0  0  0  0  0
  188.8490  177.7840  140.7870 C   0  0  0  0  0  0  0  0  0  0  0  0
  184.7800  178.4440  143.6220 C   0  0  0  0  0  0  0  0  0  0  0  0
  186.5270  178.2350  141.4300 C   0  0  0  0  0  0  0  0  0  0  0  0
  182.9900  178.9500  142.0440 C   0  0  0  0  0  3  0  0  0  0  0  0
  189.1950  177.6080  142.1060 N   0  0  0  0  0  0  0  0  0  0  0  0
  182.5420  178.8640  144.4290 C   0  0  0  0  0  3  0  0  0  0  0  0
  190.0580  176.9960  147.6530 O   0  0  0  0  0  1  0  0  0  0  0  0
  183.8810  178.5550  144.6860 C   0  0  0  0  0  3  0  0  0  0  0  0
  187.7350  177.5290  147.2260 C   0  0  0  0  0  3  0  0  0  0  0  0
  184.3320  178.6430  142.2780 C   0  0  0  0  0  0  0  0  0  0  0  0
  186.6870  177.8240  146.3360 C   0  0  0  0  0  3  0  0  0  0  0  0
  1  9  1  0  0  0  0
  2  6  1  0  0  0  0
  2  1  2  0  0  0  0
  3 19  2  0  0  0  0
  3 26  1  0  0  0  0
  4 17  1  0  0  0  0
  5  4  2  0  0  0  0
  6 15  1  0  0  0  0
  7 25  1  0  0  0  0
  7 23  1  0  0  0  0
  8 14  1  0  0  0  0
  9 27  1  0  0  0  0
 10 22  1  0  0  0  0
 11  7  2  0  0  0  0
 12  5  1  0  0  0  0
 12  8  2  0  0  0  0
 13 10  1  0  0  0  0
 14 17  2  0  0  0  0
 14 19  1  0  0  0  0
 15  9  2  0  0  0  0
 15 11  1  0  0  0  0
 16  5  1  0  0  0  0
 17 21  1  0  0  0  0
 18  1  1  0  0  0  0
 18 24  1  0  0  0  0
 19  2  1  0  0  0  0
 20 26  1  0  0  0  0
 20 10  2  0  0  0  0
 21  6  2  0  0  0  0
 22 24  2  0  0  0  0
 26 18  2  0  0  0  0
 27 25  2  0  0  0  0
M  END
>  <MODEL>
9

>  <REMARK>
 VINA RESULT:     -11.2      1.328      1.982
  Name = 
  0 active torsions:
  status: ('A' for Active; 'I' for Inactive)
                            x       y       z     vdW  Elec       q    Type
                         _______ _______ _______ _____ _____    ______ ____

>  <TORSDO>
F 0

$$$$
