=
 OpenBabel11052414443D

 32 33  0  0  1  0  0  0  0  0999 V2000
  186.9050  178.1060  142.4340 C   0  0  2  0  0  3  0  0  0  0  0  0
  184.3130  178.5530  142.8170 C   0  0  1  0  0  3  0  0  0  0  0  0
  184.7440  179.1380  141.4840 C   0  0  0  0  0  2  0  0  0  0  0  0
  185.4320  177.8850  142.0010 C   0  0  1  0  0  3  0  0  0  0  0  0
  184.7660  179.4650  143.9520 C   0  0  0  0  0  2  0  0  0  0  0  0
  185.2390  178.5200  146.1710 C   0  0  0  0  0  2  0  0  0  0  0  0
  184.3390  178.9180  145.2750 C   0  0  0  0  0  3  0  0  0  0  0  0
  187.8000  178.4620  141.2930 C   0  0  0  0  0  0  0  0  0  0  0  0
  188.2400  179.6380  141.1730 O   0  0  0  0  0  0  0  0  0  0  0  0
  188.1090  177.4730  140.3490 O   0  0  0  0  0  0  0  0  0  0  0  0
  188.4820  177.7160  138.9900 C   0  0  1  0  0  3  0  0  0  0  0  0
  189.9420  177.3550  138.6790 C   0  0  1  0  0  3  0  0  0  0  0  0
  190.8290  177.2660  139.9210 C   0  0  0  0  0  1  0  0  0  0  0  0
  190.1170  176.3340  137.7150 O   0  0  0  0  0  0  0  0  0  0  0  0
  191.2600  175.5800  138.0250 C   0  0  0  0  0  1  0  0  0  0  0  0
  187.4890  177.1400  137.9840 C   0  0  0  0  0  2  0  0  0  0  0  0
  186.3740  177.8380  135.9960 O   0  0  0  0  0  0  0  0  0  0  0  0
  187.6680  179.4320  137.0170 O   0  0  0  0  0  1  0  0  0  0  0  0
  187.1350  178.1520  136.9480 C   0  0  0  0  0  0  0  0  0  0  0  0
  187.5610  177.0970  143.3820 C   0  0  0  0  0  2  0  0  0  0  0  0
  189.5380  175.6140  142.9690 C   0  0  0  0  0  1  0  0  0  0  0  0
  189.0690  177.0480  143.1800 C   0  0  2  0  0  3  0  0  0  0  0  0
  189.7880  177.7280  144.3460 C   0  0  2  0  0  3  0  0  0  0  0  0
  191.1480  177.0650  144.6050 C   0  0  0  0  0  2  0  0  0  0  0  0
  188.9050  177.8740  145.6020 C   0  0  0  0  0  2  0  0  0  0  0  0
  190.6760  176.8370  147.0770 C   0  0  1  0  0  3  0  0  0  0  0  0
  191.6560  177.3640  146.0120 C   0  0  0  0  0  2  0  0  0  0  0  0
  189.1950  176.7900  146.6380 C   0  0  1  0  0  3  0  0  0  0  0  0
  188.4360  178.3790  148.4080 C   0  0  0  0  0  1  0  0  0  0  0  0
  188.2740  176.9860  147.8310 C   0  0  0  0  0  2  0  0  0  0  0  0
  191.1200  175.6500  147.7000 O   0  0  0  0  0  0  0  0  0  0  0  0
  192.5170  175.7020  147.8340 C   0  0  0  0  0  1  0  0  0  0  0  0
  1 20  1  6  0  0  0
  2  5  1  1  0  0  0
  3  4  1  0  0  0  0
  3  2  1  0  0  0  0
  4  1  1  1  0  0  0
  4  2  1  0  0  0  0
  5  7  1  0  0  0  0
  7  6  2  0  0  0  0
  8  1  1  0  0  0  0
  9  8  2  0  0  0  0
 10  8  1  0  0  0  0
 11 16  1  6  0  0  0
 11 10  1  0  0  0  0
 12 11  1  0  0  0  0
 12 13  1  1  0  0  0
 14 15  1  0  0  0  0
 14 12  1  0  0  0  0
 17 19  2  0  0  0  0
 19 18  1  0  0  0  0
 19 16  1  0  0  0  0
 22 21  1  1  0  0  0
 22 20  1  0  0  0  0
 23 22  1  6  0  0  0
 23 24  1  0  0  0  0
 23 25  1  0  0  0  0
 24 27  1  0  0  0  0
 25 28  1  0  0  0  0
 26 31  1  6  0  0  0
 27 26  1  0  0  0  0
 28 26  1  0  0  0  0
 28 30  1  1  0  0  0
 30 29  1  0  0  0  0
 31 32  1  0  0  0  0
M  END
>  <MODEL>
1

>  <REMARK>
 VINA RESULT:      -7.1      0.000      0.000
  Name = 
  15 active torsions:
  status: ('A' for Active; 'I' for Inactive)
    1  A    between atoms: C_2  and  C_5
    2  A    between atoms: C_3  and  C_20
    3  A    between atoms: C_3  and  O_22
    4  A    between atoms: C_4  and  C_14
    5  A    between atoms: C_4  and  C_24
    6  A    between atoms: C_4  and  C_30
    7  A    between atoms: C_5  and  C_14
    8  A    between atoms: O_11  and  C_12
    9  A    between atoms: C_13  and  C_18
   10  A    between atoms: C_13  and  C_29
   11  A    between atoms: C_15  and  C_20
   12  A    between atoms: C_15  and  C_26
   13  A    between atoms: O_16  and  C_20
   14  A    between atoms: O_16  and  C_24
   15  A    between atoms: C_28  and  C_32
                            x       y       z     vdW  Elec       q    Type
                         _______ _______ _______ _____ _____    ______ ____

>  <TORSDO>
F 15

$$$$
=
 OpenBabel11052414443D

 32 33  0  0  1  0  0  0  0  0999 V2000
  186.9910  178.0940  142.3830 C   0  0  2  0  0  3  0  0  0  0  0  0
  184.4540  178.5490  143.0320 C   0  0  1  0  0  3  0  0  0  0  0  0
  184.7870  179.2580  141.7320 C   0  0  0  0  0  2  0  0  0  0  0  0
  185.4810  177.9460  142.0590 C   0  0  1  0  0  3  0  0  0  0  0  0
  185.0270  179.3320  144.2090 C   0  0  0  0  0  2  0  0  0  0  0  0
  185.1430  178.3800  146.4720 C   0  0  0  0  0  2  0  0  0  0  0  0
  184.4020  178.8920  145.4920 C   0  0  0  0  0  3  0  0  0  0  0  0
  187.8260  178.3320  141.1680 C   0  0  0  0  0  0  0  0  0  0  0  0
  188.2530  179.4900  140.9070 O   0  0  0  0  0  0  0  0  0  0  0  0
  188.0920  177.2520  140.3150 O   0  0  0  0  0  0  0  0  0  0  0  0
  188.3390  177.3510  138.9090 C   0  0  1  0  0  3  0  0  0  0  0  0
  187.2650  178.1460  138.1510 C   0  0  1  0  0  3  0  0  0  0  0  0
  187.7890  178.8370  136.8920 C   0  0  0  0  0  1  0  0  0  0  0  0
  186.0120  177.5010  138.0330 O   0  0  0  0  0  0  0  0  0  0  0  0
  185.6700  177.3740  136.6770 C   0  0  0  0  0  1  0  0  0  0  0  0
  189.7630  177.7910  138.5800 C   0  0  0  0  0  2  0  0  0  0  0  0
  191.4450  177.4280  140.2300 O   0  0  0  0  0  1  0  0  0  0  0  0
  190.9510  175.6230  138.9050 O   0  0  0  0  0  0  0  0  0  0  0  0
  190.7590  176.9420  139.2930 C   0  0  0  0  0  0  0  0  0  0  0  0
  187.6470  177.0950  143.3400 C   0  0  0  0  0  2  0  0  0  0  0  0
  189.6490  175.6380  142.9500 C   0  0  0  0  0  1  0  0  0  0  0  0
  189.1590  177.0650  143.1590 C   0  0  2  0  0  3  0  0  0  0  0  0
  189.8530  177.7500  144.3370 C   0  0  2  0  0  3  0  0  0  0  0  0
  191.2110  177.0950  144.6210 C   0  0  0  0  0  2  0  0  0  0  0  0
  188.9470  177.8930  145.5770 C   0  0  0  0  0  2  0  0  0  0  0  0
  190.6960  176.8670  147.0850 C   0  0  1  0  0  3  0  0  0  0  0  0
  191.6930  177.3990  146.0370 C   0  0  0  0  0  2  0  0  0  0  0  0
  189.2240  176.8110  146.6190 C   0  0  1  0  0  3  0  0  0  0  0  0
  188.6630  178.2360  148.5910 C   0  0  0  0  0  1  0  0  0  0  0  0
  188.2800  177.0040  147.7950 C   0  0  0  0  0  2  0  0  0  0  0  0
  191.1350  175.6830  147.7170 O   0  0  0  0  0  0  0  0  0  0  0  0
  192.5380  175.6990  147.7890 C   0  0  0  0  0  1  0  0  0  0  0  0
  1 20  1  6  0  0  0
  2  5  1  1  0  0  0
  3  4  1  0  0  0  0
  3  2  1  0  0  0  0
  4  1  1  1  0  0  0
  4  2  1  0  0  0  0
  5  7  1  0  0  0  0
  7  6  2  0  0  0  0
  8  1  1  0  0  0  0
  9  8  2  0  0  0  0
 10  8  1  0  0  0  0
 11 16  1  1  0  0  0
 11 10  1  0  0  0  0
 12 13  1  6  0  0  0
 12 11  1  0  0  0  0
 14 12  1  0  0  0  0
 15 14  1  0  0  0  0
 16 19  1  0  0  0  0
 18 19  2  0  0  0  0
 19 17  1  0  0  0  0
 22 21  1  1  0  0  0
 22 20  1  0  0  0  0
 23 22  1  6  0  0  0
 23 24  1  0  0  0  0
 23 25  1  0  0  0  0
 24 27  1  0  0  0  0
 25 28  1  0  0  0  0
 26 31  1  6  0  0  0
 27 26  1  0  0  0  0
 28 26  1  0  0  0  0
 28 30  1  1  0  0  0
 30 29  1  0  0  0  0
 31 32  1  0  0  0  0
M  END
>  <MODEL>
2

>  <REMARK>
 VINA RESULT:      -7.1      0.845      2.393
  Name = 
  15 active torsions:
  status: ('A' for Active; 'I' for Inactive)
    1  A    between atoms: C_2  and  C_5
    2  A    between atoms: C_3  and  C_20
    3  A    between atoms: C_3  and  O_22
    4  A    between atoms: C_4  and  C_14
    5  A    between atoms: C_4  and  C_24
    6  A    between atoms: C_4  and  C_30
    7  A    between atoms: C_5  and  C_14
    8  A    between atoms: O_11  and  C_12
    9  A    between atoms: C_13  and  C_18
   10  A    between atoms: C_13  and  C_29
   11  A    between atoms: C_15  and  C_20
   12  A    between atoms: C_15  and  C_26
   13  A    between atoms: O_16  and  C_20
   14  A    between atoms: O_16  and  C_24
   15  A    between atoms: C_28  and  C_32
                            x       y       z     vdW  Elec       q    Type
                         _______ _______ _______ _____ _____    ______ ____

>  <TORSDO>
F 15

$$$$
=
 OpenBabel11052414443D

 32 33  0  0  1  0  0  0  0  0999 V2000
  188.7920  177.0230  143.5810 C   0  0  2  0  0  3  0  0  0  0  0  0
  190.2360  178.1680  145.4970 C   0  0  1  0  0  3  0  0  0  0  0  0
  191.0850  177.9880  144.2510 C   0  0  0  0  0  2  0  0  0  0  0  0
  189.5940  178.2440  144.1010 C   0  0  1  0  0  3  0  0  0  0  0  0
  190.0980  176.8350  146.2240 C   0  0  0  0  0  2  0  0  0  0  0  0
  189.0160  178.1390  148.0050 C   0  0  0  0  0  2  0  0  0  0  0  0
  189.1860  176.9660  147.4000 C   0  0  0  0  0  3  0  0  0  0  0  0
  189.4030  176.3990  142.3700 C   0  0  0  0  0  0  0  0  0  0  0  0
  190.2230  175.4480  142.4900 O   0  0  0  0  0  0  0  0  0  0  0  0
  189.0690  176.9130  141.1100 O   0  0  0  0  0  0  0  0  0  0  0  0
  189.8880  177.7920  140.3330 C   0  0  1  0  0  3  0  0  0  0  0  0
  191.0650  177.0860  139.6440 C   0  0  1  0  0  3  0  0  0  0  0  0
  192.4120  177.3370  140.3230 C   0  0  0  0  0  1  0  0  0  0  0  0
  190.8120  175.7560  139.2350 O   0  0  0  0  0  0  0  0  0  0  0  0
  191.3620  175.5390  137.9610 C   0  0  0  0  0  1  0  0  0  0  0  0
  189.0830  178.6850  139.3920 C   0  0  0  0  0  2  0  0  0  0  0  0
  186.7170  178.4180  139.2770 O   0  0  0  0  0  1  0  0  0  0  0  0
  187.9470  176.8560  138.1340 O   0  0  0  0  0  0  0  0  0  0  0  0
  187.8490  177.9910  138.9280 C   0  0  0  0  0  0  0  0  0  0  0  0
  187.2690  177.1300  143.4630 C   0  0  0  0  0  2  0  0  0  0  0  0
  186.0250  177.1140  145.6390 C   0  0  0  0  0  1  0  0  0  0  0  0
  186.6860  177.9860  144.5790 C   0  0  2  0  0  3  0  0  0  0  0  0
  185.7270  179.0310  144.0070 C   0  0  2  0  0  3  0  0  0  0  0  0
  184.5260  179.2330  144.9410 C   0  0  0  0  0  2  0  0  0  0  0  0
  185.3480  178.7670  142.5360 C   0  0  0  0  0  2  0  0  0  0  0  0
  182.8800  178.9690  143.0420 C   0  0  1  0  0  3  0  0  0  0  0  0
  183.3470  179.8630  144.2060 C   0  0  0  0  0  2  0  0  0  0  0  0
  183.9830  178.0930  142.4060 C   0  0  1  0  0  3  0  0  0  0  0  0
  183.4360  179.1540  140.2130 C   0  0  0  0  0  1  0  0  0  0  0  0
  183.6910  177.8450  140.9350 C   0  0  0  0  0  2  0  0  0  0  0  0
  181.6910  178.2620  143.3280 O   0  0  0  0  0  0  0  0  0  0  0  0
  180.5980  178.9900  142.8290 C   0  0  0  0  0  1  0  0  0  0  0  0
  1 20  1  6  0  0  0
  2  5  1  1  0  0  0
  3  2  1  0  0  0  0
  4  1  1  1  0  0  0
  4  3  1  0  0  0  0
  4  2  1  0  0  0  0
  5  7  1  0  0  0  0
  7  6  2  0  0  0  0
  8  9  2  0  0  0  0
  8  1  1  0  0  0  0
 10  8  1  0  0  0  0
 11 16  1  6  0  0  0
 11 10  1  0  0  0  0
 12 13  1  1  0  0  0
 12 11  1  0  0  0  0
 14 12  1  0  0  0  0
 15 14  1  0  0  0  0
 18 19  2  0  0  0  0
 19 17  1  0  0  0  0
 19 16  1  0  0  0  0
 20 22  1  0  0  0  0
 22 21  1  1  0  0  0
 23 22  1  1  0  0  0
 23 24  1  0  0  0  0
 25 23  1  0  0  0  0
 26 31  1  1  0  0  0
 26 27  1  0  0  0  0
 27 24  1  0  0  0  0
 28 30  1  6  0  0  0
 28 25  1  0  0  0  0
 28 26  1  0  0  0  0
 29 30  1  0  0  0  0
 32 31  1  0  0  0  0
M  END
>  <MODEL>
3

>  <REMARK>
 VINA RESULT:      -7.0      1.961      5.774
  Name = 
  15 active torsions:
  status: ('A' for Active; 'I' for Inactive)
    1  A    between atoms: C_2  and  C_5
    2  A    between atoms: C_3  and  C_20
    3  A    between atoms: C_3  and  O_22
    4  A    between atoms: C_4  and  C_14
    5  A    between atoms: C_4  and  C_24
    6  A    between atoms: C_4  and  C_30
    7  A    between atoms: C_5  and  C_14
    8  A    between atoms: O_11  and  C_12
    9  A    between atoms: C_13  and  C_18
   10  A    between atoms: C_13  and  C_29
   11  A    between atoms: C_15  and  C_20
   12  A    between atoms: C_15  and  C_26
   13  A    between atoms: O_16  and  C_20
   14  A    between atoms: O_16  and  C_24
   15  A    between atoms: C_28  and  C_32
                            x       y       z     vdW  Elec       q    Type
                         _______ _______ _______ _____ _____    ______ ____

>  <TORSDO>
F 15

$$$$
=
 OpenBabel11052414443D

 32 33  0  0  1  0  0  0  0  0999 V2000
  186.7130  178.0920  142.6660 C   0  0  2  0  0  3  0  0  0  0  0  0
  184.3150  178.5010  143.7380 C   0  0  1  0  0  3  0  0  0  0  0  0
  184.4320  179.2660  142.4320 C   0  0  0  0  0  2  0  0  0  0  0  0
  185.1710  177.9470  142.5860 C   0  0  1  0  0  3  0  0  0  0  0  0
  185.0720  179.2380  144.8380 C   0  0  0  0  0  2  0  0  0  0  0  0
  184.9410  178.4170  147.1510 C   0  0  0  0  0  2  0  0  0  0  0  0
  185.4630  178.3000  145.9320 C   0  0  0  0  0  3  0  0  0  0  0  0
  187.3270  178.4930  141.3660 C   0  0  0  0  0  0  0  0  0  0  0  0
  188.0560  179.5210  141.2990 O   0  0  0  0  0  0  0  0  0  0  0  0
  187.0500  177.7260  140.2270 O   0  0  0  0  0  0  0  0  0  0  0  0
  187.0760  178.2070  138.8800 C   0  0  1  0  0  3  0  0  0  0  0  0
  188.2810  177.7040  138.0710 C   0  0  1  0  0  3  0  0  0  0  0  0
  189.6200  178.2580  138.5580 C   0  0  0  0  0  1  0  0  0  0  0  0
  188.2570  176.3260  137.7510 O   0  0  0  0  0  0  0  0  0  0  0  0
  189.5460  175.7850  137.8850 C   0  0  0  0  0  1  0  0  0  0  0  0
  185.7450  178.0310  138.1540 C   0  0  0  0  0  2  0  0  0  0  0  0
  184.7430  179.9650  139.1240 O   0  0  0  0  0  0  0  0  0  0  0  0
  183.5370  178.0240  139.3130 O   0  0  0  0  0  1  0  0  0  0  0  0
  184.6490  178.7330  138.8800 C   0  0  0  0  0  0  0  0  0  0  0  0
  187.5260  177.0020  143.3700 C   0  0  0  0  0  2  0  0  0  0  0  0
  189.5900  175.7590  142.6770 C   0  0  0  0  0  1  0  0  0  0  0  0
  189.0090  177.1190  143.0430 C   0  0  2  0  0  3  0  0  0  0  0  0
  189.7620  177.7800  144.1990 C   0  0  2  0  0  3  0  0  0  0  0  0
  191.1280  177.1120  144.4080 C   0  0  0  0  0  2  0  0  0  0  0  0
  188.9150  177.9060  145.4820 C   0  0  0  0  0  2  0  0  0  0  0  0
  190.7260  176.8450  146.8890 C   0  0  1  0  0  3  0  0  0  0  0  0
  191.6760  177.3880  145.8050 C   0  0  0  0  0  2  0  0  0  0  0  0
  189.2330  176.8050  146.4920 C   0  0  1  0  0  3  0  0  0  0  0  0
  188.6180  178.3170  148.3810 C   0  0  0  0  0  1  0  0  0  0  0  0
  188.3470  176.9830  147.7130 C   0  0  0  0  0  2  0  0  0  0  0  0
  191.1860  175.6470  147.4800 O   0  0  0  0  0  0  0  0  0  0  0  0
  192.5730  175.7430  147.6820 C   0  0  0  0  0  1  0  0  0  0  0  0
  1 20  1  6  0  0  0
  2  5  1  1  0  0  0
  3  4  1  0  0  0  0
  3  2  1  0  0  0  0
  4  1  1  1  0  0  0
  4  2  1  0  0  0  0
  5  7  1  0  0  0  0
  7  6  2  0  0  0  0
  8  1  1  0  0  0  0
  9  8  2  0  0  0  0
 10  8  1  0  0  0  0
 11 16  1  6  0  0  0
 11 10  1  0  0  0  0
 12 13  1  1  0  0  0
 12 11  1  0  0  0  0
 14 15  1  0  0  0  0
 14 12  1  0  0  0  0
 16 19  1  0  0  0  0
 19 17  2  0  0  0  0
 19 18  1  0  0  0  0
 22 21  1  1  0  0  0
 22 20  1  0  0  0  0
 23 22  1  6  0  0  0
 23 24  1  0  0  0  0
 23 25  1  0  0  0  0
 24 27  1  0  0  0  0
 25 28  1  0  0  0  0
 26 31  1  6  0  0  0
 27 26  1  0  0  0  0
 28 26  1  0  0  0  0
 28 30  1  1  0  0  0
 30 29  1  0  0  0  0
 31 32  1  0  0  0  0
M  END
>  <MODEL>
4

>  <REMARK>
 VINA RESULT:      -6.9      1.359      1.581
  Name = 
  15 active torsions:
  status: ('A' for Active; 'I' for Inactive)
    1  A    between atoms: C_2  and  C_5
    2  A    between atoms: C_3  and  C_20
    3  A    between atoms: C_3  and  O_22
    4  A    between atoms: C_4  and  C_14
    5  A    between atoms: C_4  and  C_24
    6  A    between atoms: C_4  and  C_30
    7  A    between atoms: C_5  and  C_14
    8  A    between atoms: O_11  and  C_12
    9  A    between atoms: C_13  and  C_18
   10  A    between atoms: C_13  and  C_29
   11  A    between atoms: C_15  and  C_20
   12  A    between atoms: C_15  and  C_26
   13  A    between atoms: O_16  and  C_20
   14  A    between atoms: O_16  and  C_24
   15  A    between atoms: C_28  and  C_32
                            x       y       z     vdW  Elec       q    Type
                         _______ _______ _______ _____ _____    ______ ____

>  <TORSDO>
F 15

$$$$
=
 OpenBabel11052414443D

 32 33  0  0  1  0  0  0  0  0999 V2000
  188.7530  177.1930  143.3290 C   0  0  2  0  0  3  0  0  0  0  0  0
  190.0820  178.3000  145.3480 C   0  0  1  0  0  3  0  0  0  0  0  0
  190.9970  178.1600  144.1450 C   0  0  0  0  0  2  0  0  0  0  0  0
  189.5140  178.4080  143.9230 C   0  0  1  0  0  3  0  0  0  0  0  0
  189.9190  176.9470  146.0320 C   0  0  0  0  0  2  0  0  0  0  0  0
  188.7190  177.5410  148.0930 C   0  0  0  0  0  2  0  0  0  0  0  0
  189.8370  177.1090  147.5150 C   0  0  0  0  0  3  0  0  0  0  0  0
  189.2670  176.7830  141.9900 C   0  0  0  0  0  0  0  0  0  0  0  0
  190.1010  175.8410  141.8900 O   0  0  0  0  0  0  0  0  0  0  0  0
  188.8290  177.4850  140.8590 O   0  0  0  0  0  0  0  0  0  0  0  0
  189.2040  177.1940  139.5090 C   0  0  1  0  0  3  0  0  0  0  0  0
  188.2050  177.7180  138.4670 C   0  0  1  0  0  3  0  0  0  0  0  0
  188.7580  178.8520  137.6030 C   0  0  0  0  0  1  0  0  0  0  0  0
  187.4660  176.7210  137.7880 O   0  0  0  0  0  0  0  0  0  0  0  0
  186.2370  177.2500  137.3590 C   0  0  0  0  0  1  0  0  0  0  0  0
  190.6520  177.5610  139.1970 C   0  0  0  0  0  2  0  0  0  0  0  0
  190.8010  175.2870  138.4980 O   0  0  0  0  0  1  0  0  0  0  0  0
  192.7520  176.4860  138.3880 O   0  0  0  0  0  0  0  0  0  0  0  0
  191.3960  176.3830  138.6670 C   0  0  0  0  0  0  0  0  0  0  0  0
  187.2230  177.1760  143.3840 C   0  0  0  0  0  2  0  0  0  0  0  0
  186.1260  177.1290  145.6370 C   0  0  0  0  0  1  0  0  0  0  0  0
  186.7010  178.0170  144.5410 C   0  0  2  0  0  3  0  0  0  0  0  0
  185.6890  179.0490  144.0400 C   0  0  2  0  0  3  0  0  0  0  0  0
  184.4310  179.0450  144.9190 C   0  0  0  0  0  2  0  0  0  0  0  0
  185.4060  178.9380  142.5280 C   0  0  0  0  0  2  0  0  0  0  0  0
  182.9080  178.8910  142.9080 C   0  0  1  0  0  3  0  0  0  0  0  0
  183.2420  179.6690  144.1950 C   0  0  0  0  0  2  0  0  0  0  0  0
  184.1090  178.1850  142.2400 C   0  0  1  0  0  3  0  0  0  0  0  0
  184.7020  179.1820  140.0290 C   0  0  0  0  0  1  0  0  0  0  0  0
  183.9120  178.0970  140.7350 C   0  0  0  0  0  2  0  0  0  0  0  0
  181.7680  178.0670  143.0380 O   0  0  0  0  0  0  0  0  0  0  0  0
  180.8210  178.7250  143.8400 C   0  0  0  0  0  1  0  0  0  0  0  0
  1 20  1  6  0  0  0
  2  5  1  6  0  0  0
  3  2  1  0  0  0  0
  4  1  1  6  0  0  0
  4  3  1  0  0  0  0
  4  2  1  0  0  0  0
  5  7  1  0  0  0  0
  7  6  2  0  0  0  0
  8  1  1  0  0  0  0
  9  8  2  0  0  0  0
 10  8  1  0  0  0  0
 11 16  1  6  0  0  0
 11 10  1  0  0  0  0
 12 13  1  6  0  0  0
 12 11  1  0  0  0  0
 14 12  1  0  0  0  0
 15 14  1  0  0  0  0
 17 19  1  0  0  0  0
 18 19  2  0  0  0  0
 19 16  1  0  0  0  0
 20 22  1  0  0  0  0
 22 21  1  1  0  0  0
 23 22  1  1  0  0  0
 23 24  1  0  0  0  0
 25 23  1  0  0  0  0
 26 31  1  1  0  0  0
 26 27  1  0  0  0  0
 27 24  1  0  0  0  0
 28 30  1  6  0  0  0
 28 25  1  0  0  0  0
 28 26  1  0  0  0  0
 29 30  1  0  0  0  0
 31 32  1  0  0  0  0
M  END
>  <MODEL>
5

>  <REMARK>
 VINA RESULT:      -6.7      1.937      5.988
  Name = 
  15 active torsions:
  status: ('A' for Active; 'I' for Inactive)
    1  A    between atoms: C_2  and  C_5
    2  A    between atoms: C_3  and  C_20
    3  A    between atoms: C_3  and  O_22
    4  A    between atoms: C_4  and  C_14
    5  A    between atoms: C_4  and  C_24
    6  A    between atoms: C_4  and  C_30
    7  A    between atoms: C_5  and  C_14
    8  A    between atoms: O_11  and  C_12
    9  A    between atoms: C_13  and  C_18
   10  A    between atoms: C_13  and  C_29
   11  A    between atoms: C_15  and  C_20
   12  A    between atoms: C_15  and  C_26
   13  A    between atoms: O_16  and  C_20
   14  A    between atoms: O_16  and  C_24
   15  A    between atoms: C_28  and  C_32
                            x       y       z     vdW  Elec       q    Type
                         _______ _______ _______ _____ _____    ______ ____

>  <TORSDO>
F 15

$$$$
=
 OpenBabel11052414443D

 32 33  0  0  1  0  0  0  0  0999 V2000
  184.3310  178.9150  140.7620 C   0  0  2  0  0  3  0  0  0  0  0  0
  181.9450  177.8050  141.1380 C   0  0  1  0  0  3  0  0  0  0  0  0
  182.3270  177.7200  139.6710 C   0  0  0  0  0  2  0  0  0  0  0  0
  183.4200  177.6600  140.7260 C   0  0  1  0  0  3  0  0  0  0  0  0
  181.4790  179.2190  141.4690 C   0  0  0  0  0  2  0  0  0  0  0  0
  181.3360  178.7700  143.8800 C   0  0  0  0  0  2  0  0  0  0  0  0
  180.7620  179.2470  142.7790 C   0  0  0  0  0  3  0  0  0  0  0  0
  184.8130  179.3230  139.4100 C   0  0  0  0  0  0  0  0  0  0  0  0
  184.3000  180.3160  138.8260 O   0  0  0  0  0  0  0  0  0  0  0  0
  185.8190  178.5630  138.7980 O   0  0  0  0  0  0  0  0  0  0  0  0
  185.7590  178.0270  137.4730 C   0  0  1  0  0  3  0  0  0  0  0  0
  187.0320  178.2770  136.6510 C   0  0  1  0  0  3  0  0  0  0  0  0
  186.8520  178.0360  135.1520 C   0  0  0  0  0  1  0  0  0  0  0  0
  187.7630  179.4330  137.0120 O   0  0  0  0  0  0  0  0  0  0  0  0
  189.0850  179.0790  137.3290 C   0  0  0  0  0  1  0  0  0  0  0  0
  185.2890  176.5760  137.4340 C   0  0  0  0  0  2  0  0  0  0  0  0
  183.4490  177.4630  136.2060 O   0  0  0  0  0  0  0  0  0  0  0  0
  183.2220  175.2880  136.8960 O   0  0  0  0  0  1  0  0  0  0  0  0
  183.9430  176.4710  136.8020 C   0  0  0  0  0  0  0  0  0  0  0  0
  185.4420  178.9960  141.8140 C   0  0  0  0  0  2  0  0  0  0  0  0
  184.8740  180.0050  144.0370 C   0  0  0  0  0  1  0  0  0  0  0  0
  184.9010  178.7250  143.2110 C   0  0  2  0  0  3  0  0  0  0  0  0
  185.7040  177.6140  143.8900 C   0  0  2  0  0  3  0  0  0  0  0  0
  185.9880  177.9680  145.3560 C   0  0  0  0  0  2  0  0  0  0  0  0
  186.9510  177.1900  143.0880 C   0  0  0  0  0  2  0  0  0  0  0  0
  188.4480  177.4450  145.1090 C   0  0  1  0  0  3  0  0  0  0  0  0
  187.1610  177.1640  145.9080 C   0  0  0  0  0  2  0  0  0  0  0  0
  188.2280  177.8310  143.6290 C   0  0  1  0  0  3  0  0  0  0  0  0
  189.7420  175.9320  143.0490 C   0  0  0  0  0  1  0  0  0  0  0  0
  189.4040  177.3850  142.7770 C   0  0  0  0  0  2  0  0  0  0  0  0
  189.3480  178.2960  145.7880 O   0  0  0  0  0  0  0  0  0  0  0  0
  189.5680  177.7870  147.0790 C   0  0  0  0  0  1  0  0  0  0  0  0
  1 20  1  1  0  0  0
  2  5  1  6  0  0  0
  3  4  1  0  0  0  0
  3  2  1  0  0  0  0
  4  1  1  6  0  0  0
  4  2  1  0  0  0  0
  5  7  1  0  0  0  0
  7  6  2  0  0  0  0
  8  1  1  0  0  0  0
  9  8  2  0  0  0  0
 10  8  1  0  0  0  0
 11 16  1  1  0  0  0
 11 10  1  0  0  0  0
 12 13  1  6  0  0  0
 12 14  1  0  0  0  0
 12 11  1  0  0  0  0
 14 15  1  0  0  0  0
 17 19  2  0  0  0  0
 19 18  1  0  0  0  0
 19 16  1  0  0  0  0
 20 22  1  0  0  0  0
 22 21  1  1  0  0  0
 23 22  1  6  0  0  0
 23 24  1  0  0  0  0
 24 27  1  0  0  0  0
 25 28  1  0  0  0  0
 25 23  1  0  0  0  0
 26 31  1  1  0  0  0
 26 27  1  0  0  0  0
 28 30  1  6  0  0  0
 28 26  1  0  0  0  0
 30 29  1  0  0  0  0
 31 32  1  0  0  0  0
M  END
>  <MODEL>
6

>  <REMARK>
 VINA RESULT:      -6.4      2.298      4.167
  Name = 
  15 active torsions:
  status: ('A' for Active; 'I' for Inactive)
    1  A    between atoms: C_2  and  C_5
    2  A    between atoms: C_3  and  C_20
    3  A    between atoms: C_3  and  O_22
    4  A    between atoms: C_4  and  C_14
    5  A    between atoms: C_4  and  C_24
    6  A    between atoms: C_4  and  C_30
    7  A    between atoms: C_5  and  C_14
    8  A    between atoms: O_11  and  C_12
    9  A    between atoms: C_13  and  C_18
   10  A    between atoms: C_13  and  C_29
   11  A    between atoms: C_15  and  C_20
   12  A    between atoms: C_15  and  C_26
   13  A    between atoms: O_16  and  C_20
   14  A    between atoms: O_16  and  C_24
   15  A    between atoms: C_28  and  C_32
                            x       y       z     vdW  Elec       q    Type
                         _______ _______ _______ _____ _____    ______ ____

>  <TORSDO>
F 15

$$$$
=
 OpenBabel11052414443D

 32 33  0  0  1  0  0  0  0  0999 V2000
  188.0360  178.1560  140.5630 C   0  0  2  0  0  3  0  0  0  0  0  0
  190.1790  177.8760  139.0170 C   0  0  1  0  0  3  0  0  0  0  0  0
  189.0570  178.5260  138.2280 C   0  0  0  0  0  2  0  0  0  0  0  0
  189.1680  178.7970  139.7190 C   0  0  1  0  0  3  0  0  0  0  0  0
  189.9200  176.3780  139.1450 C   0  0  0  0  0  2  0  0  0  0  0  0
  189.4860  175.0050  137.1530 C   0  0  0  0  0  2  0  0  0  0  0  0
  190.3620  175.6570  137.9130 C   0  0  0  0  0  3  0  0  0  0  0  0
  186.6720  178.5500  140.1020 C   0  0  0  0  0  0  0  0  0  0  0  0
  186.2110  178.0920  139.0200 O   0  0  0  0  0  0  0  0  0  0  0  0
  185.9370  179.4570  140.8770 O   0  0  0  0  0  0  0  0  0  0  0  0
  184.6310  179.2190  141.4120 C   0  0  1  0  0  3  0  0  0  0  0  0
  183.5480  179.0500  140.3370 C   0  0  1  0  0  3  0  0  0  0  0  0
  182.1970  178.5990  140.8930 C   0  0  0  0  0  1  0  0  0  0  0  0
  183.5090  180.0700  139.3570 O   0  0  0  0  0  0  0  0  0  0  0  0
  182.2740  180.0410  138.6900 C   0  0  0  0  0  1  0  0  0  0  0  0
  184.6100  178.1190  142.4710 C   0  0  0  0  0  2  0  0  0  0  0  0
  183.9360  179.7340  144.0900 O   0  0  0  0  0  0  0  0  0  0  0  0
  185.3930  178.1290  144.8380 O   0  0  0  0  0  1  0  0  0  0  0  0
  184.6160  178.7030  143.8420 C   0  0  0  0  0  0  0  0  0  0  0  0
  188.1490  178.1710  142.0910 C   0  0  0  0  0  2  0  0  0  0  0  0
  188.7840  175.8770  142.8760 C   0  0  0  0  0  1  0  0  0  0  0  0
  189.2880  177.2810  142.5700 C   0  0  2  0  0  3  0  0  0  0  0  0
  189.9960  177.9170  143.7680 C   0  0  2  0  0  3  0  0  0  0  0  0
  191.2430  177.1080  144.1510 C   0  0  0  0  0  2  0  0  0  0  0  0
  189.0470  178.2160  144.9460 C   0  0  0  0  0  2  0  0  0  0  0  0
  190.5670  177.0350  146.5850 C   0  0  1  0  0  3  0  0  0  0  0  0
  191.6790  177.4000  145.5840 C   0  0  0  0  0  2  0  0  0  0  0  0
  189.1270  177.1460  146.0340 C   0  0  1  0  0  3  0  0  0  0  0  0
  188.8540  178.2530  148.2550 C   0  0  0  0  0  1  0  0  0  0  0  0
  188.1510  177.4970  147.1450 C   0  0  0  0  0  2  0  0  0  0  0  0
  190.8160  175.8290  147.2760 O   0  0  0  0  0  0  0  0  0  0  0  0
  192.2020  175.6890  147.4600 C   0  0  0  0  0  1  0  0  0  0  0  0
  1 20  1  1  0  0  0
  2  5  1  1  0  0  0
  2  4  1  0  0  0  0
  3  2  1  0  0  0  0
  3  4  1  0  0  0  0
  4  1  1  1  0  0  0
  6  7  2  0  0  0  0
  7  5  1  0  0  0  0
  8  1  1  0  0  0  0
  8 10  1  0  0  0  0
  9  8  2  0  0  0  0
 10 11  1  0  0  0  0
 11 16  1  6  0  0  0
 12 13  1  1  0  0  0
 12 11  1  0  0  0  0
 14 12  1  0  0  0  0
 15 14  1  0  0  0  0
 16 19  1  0  0  0  0
 19 17  2  0  0  0  0
 19 18  1  0  0  0  0
 20 22  1  0  0  0  0
 22 21  1  1  0  0  0
 23 22  1  6  0  0  0
 23 24  1  0  0  0  0
 23 25  1  0  0  0  0
 24 27  1  0  0  0  0
 25 28  1  0  0  0  0
 26 31  1  6  0  0  0
 27 26  1  0  0  0  0
 28 26  1  0  0  0  0
 28 30  1  1  0  0  0
 30 29  1  0  0  0  0
 31 32  1  0  0  0  0
M  END
>  <MODEL>
7

>  <REMARK>
 VINA RESULT:      -6.2      2.018      5.423
  Name = 
  15 active torsions:
  status: ('A' for Active; 'I' for Inactive)
    1  A    between atoms: C_2  and  C_5
    2  A    between atoms: C_3  and  C_20
    3  A    between atoms: C_3  and  O_22
    4  A    between atoms: C_4  and  C_14
    5  A    between atoms: C_4  and  C_24
    6  A    between atoms: C_4  and  C_30
    7  A    between atoms: C_5  and  C_14
    8  A    between atoms: O_11  and  C_12
    9  A    between atoms: C_13  and  C_18
   10  A    between atoms: C_13  and  C_29
   11  A    between atoms: C_15  and  C_20
   12  A    between atoms: C_15  and  C_26
   13  A    between atoms: O_16  and  C_20
   14  A    between atoms: O_16  and  C_24
   15  A    between atoms: C_28  and  C_32
                            x       y       z     vdW  Elec       q    Type
                         _______ _______ _______ _____ _____    ______ ____

>  <TORSDO>
F 15

$$$$
=
 OpenBabel11052414443D

 32 33  0  0  1  0  0  0  0  0999 V2000
  187.4240  178.2840  142.4640 C   0  0  2  0  0  3  0  0  0  0  0  0
  188.2470  176.8030  144.5120 C   0  0  1  0  0  3  0  0  0  0  0  0
  186.7720  177.1240  144.6700 C   0  0  0  0  0  2  0  0  0  0  0  0
  187.3500  176.9620  143.2730 C   0  0  1  0  0  3  0  0  0  0  0  0
  189.0840  178.0200  144.8930 C   0  0  0  0  0  2  0  0  0  0  0  0
  191.2130  176.8230  145.1690 C   0  0  0  0  0  2  0  0  0  0  0  0
  190.2780  177.6120  145.6930 C   0  0  0  0  0  3  0  0  0  0  0  0
  186.1720  178.5710  141.7030 C   0  0  0  0  0  0  0  0  0  0  0  0
  186.2040  179.3150  140.6850 O   0  0  0  0  0  0  0  0  0  0  0  0
  184.9670  178.0240  142.1640 O   0  0  0  0  0  0  0  0  0  0  0  0
  183.7330  178.7370  142.2960 C   0  0  1  0  0  3  0  0  0  0  0  0
  182.7500  178.4800  141.1450 C   0  0  1  0  0  3  0  0  0  0  0  0
  183.1120  177.2660  140.2880 C   0  0  0  0  0  1  0  0  0  0  0  0
  181.3820  178.6200  141.4790 O   0  0  0  0  0  0  0  0  0  0  0  0
  180.5930  177.9090  140.5600 C   0  0  0  0  0  1  0  0  0  0  0  0
  183.1010  178.5900  143.6770 C   0  0  0  0  0  2  0  0  0  0  0  0
  183.8030  178.9730  145.9220 O   0  0  0  0  0  1  0  0  0  0  0  0
  184.7650  180.3250  144.3390 O   0  0  0  0  0  0  0  0  0  0  0  0
  183.9120  179.2950  144.7100 C   0  0  0  0  0  0  0  0  0  0  0  0
  188.6770  178.5760  141.6330 C   0  0  0  0  0  2  0  0  0  0  0  0
  190.4040  176.7610  141.5990 C   0  0  0  0  0  1  0  0  0  0  0  0
  189.1680  177.3280  140.9130 C   0  0  2  0  0  3  0  0  0  0  0  0
  189.4110  177.6240  139.4320 C   0  0  2  0  0  3  0  0  0  0  0  0
  188.1630  177.2930  138.6020 C   0  0  0  0  0  2  0  0  0  0  0  0
  190.7140  177.0000  138.8930 C   0  0  0  0  0  2  0  0  0  0  0  0
  189.5070  175.9450  136.9390 C   0  0  1  0  0  3  0  0  0  0  0  0
  188.5080  177.1020  137.1280 C   0  0  0  0  0  2  0  0  0  0  0  0
  190.4580  175.7000  138.1330 C   0  0  1  0  0  3  0  0  0  0  0  0
  192.8410  176.2240  137.6030 C   0  0  0  0  0  1  0  0  0  0  0  0
  191.7860  175.1360  137.6560 C   0  0  0  0  0  2  0  0  0  0  0  0
  188.9050  174.7670  136.4450 O   0  0  0  0  0  0  0  0  0  0  0  0
  189.0570  174.7310  135.0480 C   0  0  0  0  0  1  0  0  0  0  0  0
  1 20  1  6  0  0  0
  2  3  1  0  0  0  0
  2  5  1  6  0  0  0
  4  1  1  6  0  0  0
  4  2  1  0  0  0  0
  4  3  1  0  0  0  0
  5  7  1  0  0  0  0
  6  7  2  0  0  0  0
  8 10  1  0  0  0  0
  8  1  1  0  0  0  0
  9  8  2  0  0  0  0
 10 11  1  0  0  0  0
 11 16  1  1  0  0  0
 12 13  1  1  0  0  0
 12 14  1  0  0  0  0
 12 11  1  0  0  0  0
 15 14  1  0  0  0  0
 16 19  1  0  0  0  0
 18 19  2  0  0  0  0
 19 17  1  0  0  0  0
 22 21  1  1  0  0  0
 22 20  1  0  0  0  0
 23 22  1  1  0  0  0
 24 23  1  0  0  0  0
 25 23  1  0  0  0  0
 26 31  1  1  0  0  0
 26 27  1  0  0  0  0
 26 28  1  0  0  0  0
 27 24  1  0  0  0  0
 28 30  1  6  0  0  0
 28 25  1  0  0  0  0
 29 30  1  0  0  0  0
 32 31  1  0  0  0  0
M  END
>  <MODEL>
8

>  <REMARK>
 VINA RESULT:      -6.2      2.589      7.514
  Name = 
  15 active torsions:
  status: ('A' for Active; 'I' for Inactive)
    1  A    between atoms: C_2  and  C_5
    2  A    between atoms: C_3  and  C_20
    3  A    between atoms: C_3  and  O_22
    4  A    between atoms: C_4  and  C_14
    5  A    between atoms: C_4  and  C_24
    6  A    between atoms: C_4  and  C_30
    7  A    between atoms: C_5  and  C_14
    8  A    between atoms: O_11  and  C_12
    9  A    between atoms: C_13  and  C_18
   10  A    between atoms: C_13  and  C_29
   11  A    between atoms: C_15  and  C_20
   12  A    between atoms: C_15  and  C_26
   13  A    between atoms: O_16  and  C_20
   14  A    between atoms: O_16  and  C_24
   15  A    between atoms: C_28  and  C_32
                            x       y       z     vdW  Elec       q    Type
                         _______ _______ _______ _____ _____    ______ ____

>  <TORSDO>
F 15

$$$$
=
 OpenBabel11052414443D

 32 33  0  0  1  0  0  0  0  0999 V2000
  187.4840  178.2740  142.3670 C   0  0  2  0  0  3  0  0  0  0  0  0
  188.2800  176.7630  144.4040 C   0  0  1  0  0  3  0  0  0  0  0  0
  186.7970  177.0630  144.5340 C   0  0  0  0  0  2  0  0  0  0  0  0
  187.4090  176.9360  143.1480 C   0  0  1  0  0  3  0  0  0  0  0  0
  189.0920  177.9830  144.8270 C   0  0  0  0  0  2  0  0  0  0  0  0
  191.2980  177.0550  145.3860 C   0  0  0  0  0  2  0  0  0  0  0  0
  190.1560  177.5980  145.8020 C   0  0  0  0  0  3  0  0  0  0  0  0
  186.2210  178.5940  141.6390 C   0  0  0  0  0  0  0  0  0  0  0  0
  186.2410  179.3640  140.6400 O   0  0  0  0  0  0  0  0  0  0  0  0
  185.0180  178.0490  142.1090 O   0  0  0  0  0  0  0  0  0  0  0  0
  183.8100  178.7820  142.3310 C   0  0  1  0  0  3  0  0  0  0  0  0
  182.7480  178.5600  141.2440 C   0  0  1  0  0  3  0  0  0  0  0  0
  183.0830  177.4180  140.2840 C   0  0  0  0  0  1  0  0  0  0  0  0
  181.4070  178.6250  141.6900 O   0  0  0  0  0  0  0  0  0  0  0  0
  180.6560  179.4320  140.8210 C   0  0  0  0  0  1  0  0  0  0  0  0
  183.2660  178.6260  143.7490 C   0  0  0  0  0  2  0  0  0  0  0  0
  184.8140  180.3420  144.3320 O   0  0  0  0  0  0  0  0  0  0  0  0
  184.1220  179.0040  146.0610 O   0  0  0  0  0  1  0  0  0  0  0  0
  184.1030  179.3800  144.7240 C   0  0  0  0  0  0  0  0  0  0  0  0
  188.7240  178.5690  141.5170 C   0  0  0  0  0  2  0  0  0  0  0  0
  190.4530  176.7640  141.6980 C   0  0  0  0  0  1  0  0  0  0  0  0
  189.2790  177.2980  140.8880 C   0  0  2  0  0  3  0  0  0  0  0  0
  189.6460  177.5410  139.4230 C   0  0  2  0  0  3  0  0  0  0  0  0
  189.0640  178.8730  138.9320 C   0  0  0  0  0  2  0  0  0  0  0  0
  189.3330  176.3380  138.5110 C   0  0  0  0  0  2  0  0  0  0  0  0
  188.0730  177.7930  136.8730 C   0  0  1  0  0  3  0  0  0  0  0  0
  188.9790  178.9180  137.4090 C   0  0  0  0  0  2  0  0  0  0  0  0
  188.0220  176.5200  137.7480 C   0  0  1  0  0  3  0  0  0  0  0  0
  188.7940  175.1970  135.7760 C   0  0  0  0  0  1  0  0  0  0  0  0
  187.7720  175.2890  136.8930 C   0  0  0  0  0  2  0  0  0  0  0  0
  186.8000  178.2510  136.4680 O   0  0  0  0  0  0  0  0  0  0  0  0
  185.8530  177.8740  137.4340 C   0  0  0  0  0  1  0  0  0  0  0  0
  1 20  1  6  0  0  0
  2  3  1  0  0  0  0
  2  5  1  6  0  0  0
  4  1  1  6  0  0  0
  4  2  1  0  0  0  0
  4  3  1  0  0  0  0
  5  7  1  0  0  0  0
  6  7  2  0  0  0  0
  8 10  1  0  0  0  0
  8  1  1  0  0  0  0
  9  8  2  0  0  0  0
 10 11  1  0  0  0  0
 11 16  1  1  0  0  0
 12 13  1  1  0  0  0
 12 14  1  0  0  0  0
 12 11  1  0  0  0  0
 15 14  1  0  0  0  0
 16 19  1  0  0  0  0
 17 19  2  0  0  0  0
 19 18  1  0  0  0  0
 22 20  1  0  0  0  0
 22 21  1  1  0  0  0
 23 22  1  1  0  0  0
 24 23  1  0  0  0  0
 25 23  1  0  0  0  0
 26 31  1  1  0  0  0
 26 27  1  0  0  0  0
 26 28  1  0  0  0  0
 27 24  1  0  0  0  0
 28 30  1  6  0  0  0
 28 25  1  0  0  0  0
 29 30  1  0  0  0  0
 31 32  1  0  0  0  0
M  END
>  <MODEL>
9

>  <REMARK>
 VINA RESULT:      -6.1      2.525      7.617
  Name = 
  15 active torsions:
  status: ('A' for Active; 'I' for Inactive)
    1  A    between atoms: C_2  and  C_5
    2  A    between atoms: C_3  and  C_20
    3  A    between atoms: C_3  and  O_22
    4  A    between atoms: C_4  and  C_14
    5  A    between atoms: C_4  and  C_24
    6  A    between atoms: C_4  and  C_30
    7  A    between atoms: C_5  and  C_14
    8  A    between atoms: O_11  and  C_12
    9  A    between atoms: C_13  and  C_18
   10  A    between atoms: C_13  and  C_29
   11  A    between atoms: C_15  and  C_20
   12  A    between atoms: C_15  and  C_26
   13  A    between atoms: O_16  and  C_20
   14  A    between atoms: O_16  and  C_24
   15  A    between atoms: C_28  and  C_32
                            x       y       z     vdW  Elec       q    Type
                         _______ _______ _______ _____ _____    ______ ____

>  <TORSDO>
F 15

$$$$
