=
 OpenBabel11052412233D

 30 31  0  0  1  0  0  0  0  0999 V2000
  182.9090  178.6430  141.9770 C   0  0  0  0  0  0  0  0  0  0  0  0
  181.2580  178.1590  140.1800 C   0  0  2  0  0  3  0  0  0  0  0  0
  183.9860  178.1640  141.0530 C   0  0  0  0  0  2  0  0  0  0  0  0
  183.7240  178.3680  137.7790 N   0  0  0  0  0  0  0  0  0  0  0  0
  183.2440  179.2290  138.8450 C   0  0  2  0  0  3  0  0  0  0  0  0
  185.4620  178.6550  139.2390 N   0  0  0  0  0  2  0  0  0  0  0  0
  184.3090  179.1710  139.9580 C   0  0  2  0  0  3  0  0  0  0  0  0
  181.7270  179.1400  139.0920 C   0  0  2  0  0  3  0  0  0  0  0  0
  185.7680  177.3460  137.1400 N   0  0  0  0  0  1  0  0  0  0  0  0
  184.9680  178.1320  138.0140 C   0  0  0  0  0  0  0  0  0  0  0  0
  181.6180  178.5760  141.5880 C   0  0  0  0  0  0  0  0  0  0  0  0
  184.3960  178.7770  144.0710 C   0  0  0  0  0  0  0  0  0  0  0  0
  185.2290  177.9220  143.6690 O   0  0  0  0  0  0  0  0  0  0  0  0
  183.2570  179.1400  143.2810 N   0  0  0  0  0  2  0  0  0  0  0  0
  184.5780  179.3970  145.4100 C   0  0  0  0  0  2  0  0  0  0  0  0
  184.6440  178.3550  146.4290 N   0  0  0  0  0  2  0  0  0  0  0  0
  185.9970  179.9280  147.5520 O   0  0  0  0  0  1  0  0  0  0  0  0
  187.0580  177.9400  146.7280 C   0  0  0  0  0  1  0  0  0  0  0  0
  185.7980  178.5670  147.3020 C   0  0  2  0  0  3  0  0  0  0  0  0
  180.4860  178.9470  142.4770 C   0  0  0  0  0  0  0  0  0  0  0  0
  180.1800  180.2730  142.7610 O   0  0  0  0  0  0  0  0  0  0  0  0
  179.7830  178.0420  143.0030 O   0  0  0  0  0  1  0  0  0  0  0  0
  179.7110  180.4700  139.1220 O   0  0  0  0  0  1  0  0  0  0  0  0
  181.1000  180.5330  139.2580 C   0  0  2  0  0  3  0  0  0  0  0  0
  181.6680  181.5530  138.2700 C   0  0  0  0  0  2  0  0  0  0  0  0
  180.7390  181.7750  137.0870 C   0  0  0  0  0  1  0  0  0  0  0  0
  181.6270  176.4100  139.8100 S   0  0  0  0  0  0  0  0  0  0  0  0
  178.9310  176.8060  139.6550 C   0  0  0  0  0  1  0  0  0  0  0  0
  179.9530  175.8610  140.2510 C   0  0  0  0  0  3  0  0  0  0  0  0
  179.7230  174.4680  139.7040 C   0  0  0  0  0  1  0  0  0  0  0  0
  1 14  1  0  0  0  0
  2 27  1  6  0  0  0
  2 11  1  0  0  0  0
  3  1  1  0  0  0  0
  4 10  2  0  0  0  0
  5  4  1  6  0  0  0
  5  8  1  0  0  0  0
  5  7  1  0  0  0  0
  6  7  1  0  0  0  0
  7  3  1  1  0  0  0
  8 24  1  1  0  0  0
  8  2  1  0  0  0  0
  9 10  1  0  0  0  0
 10  6  1  0  0  0  0
 11  1  2  0  0  0  0
 11 20  1  0  0  0  0
 12 15  1  0  0  0  0
 13 12  2  0  0  0  0
 14 12  1  0  0  0  0
 15 16  1  0  0  0  0
 16 19  1  0  0  0  0
 19 18  1  6  0  0  0
 19 17  1  0  0  0  0
 20 21  2  0  0  0  0
 20 22  1  0  0  0  0
 24 23  1  6  0  0  0
 25 24  1  0  0  0  0
 26 25  1  0  0  0  0
 27 29  1  0  0  0  0
 28 29  1  0  0  0  0
 30 29  1  0  0  0  0
M  END
>  <MODEL>
1

>  <REMARK>
 VINA RESULT:      -6.0      0.000      0.000
  Name = 
  9 active torsions:
  status: ('A' for Active; 'I' for Inactive)
    1  A    between atoms: C_1  and  N_22
    2  A    between atoms: C_2  and  C_14
    3  A    between atoms: C_4  and  S_25
    4  A    between atoms: C_7  and  C_30
    5  A    between atoms: C_10  and  C_23
    6  A    between atoms: C_11  and  S_25
    7  A    between atoms: C_13  and  C_30
    8  A    between atoms: C_14  and  N_28
    9  A    between atoms: N_28  and  C_29
                            x       y       z     vdW  Elec       q    Type
                         _______ _______ _______ _____ _____    ______ ____

>  <TORSDO>
F 9

$$$$
=
 OpenBabel11052412233D

 30 31  0  0  1  0  0  0  0  0999 V2000
  181.8660  178.3870  140.0990 C   0  0  0  0  0  0  0  0  0  0  0  0
  182.1790  178.2520  137.6330 C   0  0  2  0  0  3  0  0  0  0  0  0
  180.8340  177.3090  139.9800 C   0  0  0  0  0  2  0  0  0  0  0  0
  180.9060  175.0480  137.5900 N   0  0  0  0  0  0  0  0  0  0  0  0
  181.9660  175.7290  138.3110 C   0  0  2  0  0  3  0  0  0  0  0  0
  180.3570  174.9740  139.8080 N   0  0  0  0  0  2  0  0  0  0  0  0
  181.4460  175.9340  139.7480 C   0  0  2  0  0  3  0  0  0  0  0  0
  182.6940  176.8100  137.4910 C   0  0  2  0  0  3  0  0  0  0  0  0
  178.9310  173.8410  138.1070 N   0  0  0  0  0  1  0  0  0  0  0  0
  180.0780  174.5990  138.4670 C   0  0  0  0  0  0  0  0  0  0  0  0
  182.4500  178.8770  138.9830 C   0  0  0  0  0  0  0  0  0  0  0  0
  183.3500  178.5820  142.1900 C   0  0  0  0  0  0  0  0  0  0  0  0
  184.1970  177.7360  141.8020 O   0  0  0  0  0  0  0  0  0  0  0  0
  182.2040  178.9120  141.3940 N   0  0  0  0  0  2  0  0  0  0  0  0
  183.5200  179.2280  143.5180 C   0  0  0  0  0  2  0  0  0  0  0  0
  184.9390  179.2960  143.8520 N   0  0  0  0  0  2  0  0  0  0  0  0
  185.3630  179.3360  146.1730 O   0  0  0  0  0  1  0  0  0  0  0  0
  186.4460  177.6320  144.8750 C   0  0  0  0  0  1  0  0  0  0  0  0
  185.2180  178.5110  145.0540 C   0  0  2  0  0  3  0  0  0  0  0  0
  183.4160  180.0070  139.0070 C   0  0  0  0  0  0  0  0  0  0  0  0
  184.7670  179.8110  139.2720 O   0  0  0  0  0  1  0  0  0  0  0  0
  183.0100  181.1800  138.7940 O   0  0  0  0  0  0  0  0  0  0  0  0
  184.8690  177.5710  136.7690 O   0  0  0  0  0  1  0  0  0  0  0  0
  184.2180  176.7190  137.6640 C   0  0  2  0  0  3  0  0  0  0  0  0
  184.7430  175.2930  137.4910 C   0  0  0  0  0  2  0  0  0  0  0  0
  185.7400  175.1900  136.3470 C   0  0  0  0  0  1  0  0  0  0  0  0
  180.4700  178.4920  137.0380 S   0  0  0  0  0  0  0  0  0  0  0  0
  180.5740  179.9570  134.7370 C   0  0  0  0  0  1  0  0  0  0  0  0
  180.8700  180.0630  136.2190 C   0  0  0  0  0  3  0  0  0  0  0  0
  180.0290  181.1690  136.8190 C   0  0  0  0  0  1  0  0  0  0  0  0
  1 14  1  0  0  0  0
  2 27  1  1  0  0  0
  2 11  1  0  0  0  0
  3  1  1  0  0  0  0
  4 10  2  0  0  0  0
  5  4  1  6  0  0  0
  5  7  1  0  0  0  0
  7  6  1  0  0  0  0
  7  3  1  6  0  0  0
  8  2  1  0  0  0  0
  8 24  1  1  0  0  0
  8  5  1  0  0  0  0
  9 10  1  0  0  0  0
 10  6  1  0  0  0  0
 11 20  1  0  0  0  0
 11  1  2  0  0  0  0
 12 15  1  0  0  0  0
 13 12  2  0  0  0  0
 14 12  1  0  0  0  0
 15 16  1  0  0  0  0
 16 19  1  0  0  0  0
 19 18  1  6  0  0  0
 19 17  1  0  0  0  0
 20 21  1  0  0  0  0
 22 20  2  0  0  0  0
 24 23  1  6  0  0  0
 25 24  1  0  0  0  0
 26 25  1  0  0  0  0
 28 29  1  0  0  0  0
 29 30  1  0  0  0  0
 29 27  1  0  0  0  0
M  END
>  <MODEL>
2

>  <REMARK>
 VINA RESULT:      -5.3      2.953      4.775
  Name = 
  9 active torsions:
  status: ('A' for Active; 'I' for Inactive)
    1  A    between atoms: C_1  and  N_22
    2  A    between atoms: C_2  and  C_14
    3  A    between atoms: C_4  and  S_25
    4  A    between atoms: C_7  and  C_30
    5  A    between atoms: C_10  and  C_23
    6  A    between atoms: C_11  and  S_25
    7  A    between atoms: C_13  and  C_30
    8  A    between atoms: C_14  and  N_28
    9  A    between atoms: N_28  and  C_29
                            x       y       z     vdW  Elec       q    Type
                         _______ _______ _______ _____ _____    ______ ____

>  <TORSDO>
F 9

$$$$
=
 OpenBabel11052412233D

 30 31  0  0  1  0  0  0  0  0999 V2000
  184.8290  177.6820  137.7400 C   0  0  0  0  0  0  0  0  0  0  0  0
  182.5190  177.7370  138.6630 C   0  0  2  0  0  3  0  0  0  0  0  0
  184.4430  176.4570  136.9710 C   0  0  0  0  0  2  0  0  0  0  0  0
  181.3500  175.8800  136.0030 N   0  0  0  0  0  0  0  0  0  0  0  0
  182.1050  177.1110  136.1510 C   0  0  2  0  0  3  0  0  0  0  0  0
  183.3930  175.5310  135.0340 N   0  0  0  0  0  2  0  0  0  0  0  0
  183.5610  176.7720  135.7710 C   0  0  2  0  0  3  0  0  0  0  0  0
  181.7040  177.9530  137.3770 C   0  0  2  0  0  3  0  0  0  0  0  0
  181.6340  173.7670  134.9630 N   0  0  0  0  0  1  0  0  0  0  0  0
  182.0840  175.0650  135.3270 C   0  0  0  0  0  0  0  0  0  0  0  0
  183.9410  178.2440  138.5890 C   0  0  0  0  0  0  0  0  0  0  0  0
  187.3840  177.5050  137.4980 C   0  0  0  0  0  0  0  0  0  0  0  0
  187.4130  176.2480  137.5600 O   0  0  0  0  0  0  0  0  0  0  0  0
  186.1500  178.2300  137.5930 N   0  0  0  0  0  2  0  0  0  0  0  0
  188.6580  178.2580  137.3590 C   0  0  0  0  0  2  0  0  0  0  0  0
  188.9460  178.9680  138.6010 N   0  0  0  0  0  2  0  0  0  0  0  0
  188.3960  178.6560  140.8750 O   0  0  0  0  0  1  0  0  0  0  0  0
  190.3040  177.4750  140.0230 C   0  0  0  0  0  1  0  0  0  0  0  0
  188.9230  178.0420  139.7350 C   0  0  2  0  0  3  0  0  0  0  0  0
  184.2760  179.4050  139.4550 C   0  0  0  0  0  0  0  0  0  0  0  0
  184.6840  179.2430  140.7740 O   0  0  0  0  0  1  0  0  0  0  0  0
  184.1800  180.5740  138.9960 O   0  0  0  0  0  0  0  0  0  0  0  0
  180.9500  180.1450  138.0540 O   0  0  0  0  0  1  0  0  0  0  0  0
  181.5700  179.4410  137.0190 C   0  0  2  0  0  3  0  0  0  0  0  0
  180.8030  179.6640  135.7140 C   0  0  0  0  0  2  0  0  0  0  0  0
  180.6700  181.1410  135.3780 C   0  0  0  0  0  1  0  0  0  0  0  0
  182.3680  176.0580  139.3630 S   0  0  0  0  0  0  0  0  0  0  0  0
  180.0310  174.9450  140.2280 C   0  0  0  0  0  1  0  0  0  0  0  0
  180.5890  176.2400  139.6740 C   0  0  0  0  0  3  0  0  0  0  0  0
  180.3670  177.3500  140.6780 C   0  0  0  0  0  1  0  0  0  0  0  0
  1 11  2  0  0  0  0
  2 27  1  6  0  0  0
  3  1  1  0  0  0  0
  5  4  1  1  0  0  0
  5  8  1  0  0  0  0
  6 10  1  0  0  0  0
  6  7  1  0  0  0  0
  7  5  1  0  0  0  0
  7  3  1  1  0  0  0
  8 24  1  6  0  0  0
  8  2  1  0  0  0  0
  9 10  1  0  0  0  0
 10  4  2  0  0  0  0
 11  2  1  0  0  0  0
 11 20  1  0  0  0  0
 12 13  2  0  0  0  0
 12 14  1  0  0  0  0
 14  1  1  0  0  0  0
 15 12  1  0  0  0  0
 15 16  1  0  0  0  0
 16 19  1  0  0  0  0
 19 18  1  1  0  0  0
 19 17  1  0  0  0  0
 20 21  1  0  0  0  0
 22 20  2  0  0  0  0
 24 23  1  1  0  0  0
 25 24  1  0  0  0  0
 26 25  1  0  0  0  0
 27 29  1  0  0  0  0
 29 28  1  0  0  0  0
 29 30  1  0  0  0  0
M  END
>  <MODEL>
3

>  <REMARK>
 VINA RESULT:      -5.1      3.963      5.219
  Name = 
  9 active torsions:
  status: ('A' for Active; 'I' for Inactive)
    1  A    between atoms: C_1  and  N_22
    2  A    between atoms: C_2  and  C_14
    3  A    between atoms: C_4  and  S_25
    4  A    between atoms: C_7  and  C_30
    5  A    between atoms: C_10  and  C_23
    6  A    between atoms: C_11  and  S_25
    7  A    between atoms: C_13  and  C_30
    8  A    between atoms: C_14  and  N_28
    9  A    between atoms: N_28  and  C_29
                            x       y       z     vdW  Elec       q    Type
                         _______ _______ _______ _____ _____    ______ ____

>  <TORSDO>
F 9

$$$$
=
 OpenBabel11052412233D

 30 31  0  0  1  0  0  0  0  0999 V2000
  179.6220  179.4600  138.9630 C   0  0  0  0  0  0  0  0  0  0  0  0
  180.5360  177.2920  139.7730 C   0  0  2  0  0  3  0  0  0  0  0  0
  179.0680  179.6860  140.3360 C   0  0  0  0  0  2  0  0  0  0  0  0
  180.4540  178.4100  143.0340 N   0  0  0  0  0  0  0  0  0  0  0  0
  181.0230  178.8950  141.7890 C   0  0  2  0  0  3  0  0  0  0  0  0
  179.4520  180.4150  142.5790 N   0  0  0  0  0  2  0  0  0  0  0  0
  180.1390  180.0770  141.3440 C   0  0  2  0  0  3  0  0  0  0  0  0
  181.5210  177.7820  140.8480 C   0  0  2  0  0  3  0  0  0  0  0  0
  178.9310  179.1820  144.6810 N   0  0  0  0  0  1  0  0  0  0  0  0
  179.6400  179.3140  143.4560 C   0  0  0  0  0  0  0  0  0  0  0  0
  180.2550  178.3010  138.6820 C   0  0  0  0  0  0  0  0  0  0  0  0
  180.3890  181.4750  137.5610 C   0  0  0  0  0  0  0  0  0  0  0  0
  181.5090  181.5820  138.1270 O   0  0  0  0  0  0  0  0  0  0  0  0
  179.4490  180.4650  137.9490 N   0  0  0  0  0  2  0  0  0  0  0  0
  180.0190  182.4370  136.4900 C   0  0  0  0  0  2  0  0  0  0  0  0
  181.2200  183.0940  135.9840 N   0  0  0  0  0  2  0  0  0  0  0  0
  182.0630  184.8570  137.3080 O   0  0  0  0  0  1  0  0  0  0  0  0
  179.7690  184.9900  136.6100 C   0  0  0  0  0  1  0  0  0  0  0  0
  181.1790  184.5270  136.2760 C   0  0  2  0  0  3  0  0  0  0  0  0
  180.7550  177.9620  137.3230 C   0  0  0  0  0  0  0  0  0  0  0  0
  182.0330  178.3120  136.9040 O   0  0  0  0  0  1  0  0  0  0  0  0
  180.0050  177.3500  136.5180 O   0  0  0  0  0  0  0  0  0  0  0  0
  183.3610  177.0730  139.4540 O   0  0  0  0  0  1  0  0  0  0  0  0
  182.9010  178.1160  140.2610 C   0  0  2  0  0  3  0  0  0  0  0  0
  183.9380  178.4260  141.3410 C   0  0  0  0  0  2  0  0  0  0  0  0
  185.1090  179.2250  140.7920 C   0  0  0  0  0  1  0  0  0  0  0  0
  179.0370  176.4970  140.4470 S   0  0  0  0  0  0  0  0  0  0  0  0
  178.9640  173.8610  141.1530 C   0  0  0  0  0  1  0  0  0  0  0  0
  179.7220  174.8250  140.2630 C   0  0  0  0  0  3  0  0  0  0  0  0
  179.5860  174.3840  138.8220 C   0  0  0  0  0  1  0  0  0  0  0  0
  1  3  1  0  0  0  0
  2 27  1  1  0  0  0
  2  8  1  0  0  0  0
  4 10  2  0  0  0  0
  5  4  1  1  0  0  0
  6 10  1  0  0  0  0
  7  3  1  6  0  0  0
  7  5  1  0  0  0  0
  7  6  1  0  0  0  0
  8 24  1  6  0  0  0
  8  5  1  0  0  0  0
 10  9  1  0  0  0  0
 11  1  2  0  0  0  0
 11  2  1  0  0  0  0
 12 14  1  0  0  0  0
 12 13  2  0  0  0  0
 14  1  1  0  0  0  0
 15 12  1  0  0  0  0
 16 19  1  0  0  0  0
 16 15  1  0  0  0  0
 19 18  1  1  0  0  0
 19 17  1  0  0  0  0
 20 11  1  0  0  0  0
 21 20  1  0  0  0  0
 22 20  2  0  0  0  0
 24 23  1  1  0  0  0
 24 25  1  0  0  0  0
 26 25  1  0  0  0  0
 29 27  1  0  0  0  0
 29 28  1  0  0  0  0
 30 29  1  0  0  0  0
M  END
>  <MODEL>
4

>  <REMARK>
 VINA RESULT:      -4.9      3.877      7.149
  Name = 
  9 active torsions:
  status: ('A' for Active; 'I' for Inactive)
    1  A    between atoms: C_1  and  N_22
    2  A    between atoms: C_2  and  C_14
    3  A    between atoms: C_4  and  S_25
    4  A    between atoms: C_7  and  C_30
    5  A    between atoms: C_10  and  C_23
    6  A    between atoms: C_11  and  S_25
    7  A    between atoms: C_13  and  C_30
    8  A    between atoms: C_14  and  N_28
    9  A    between atoms: N_28  and  C_29
                            x       y       z     vdW  Elec       q    Type
                         _______ _______ _______ _____ _____    ______ ____

>  <TORSDO>
F 9

$$$$
=
 OpenBabel11052412233D

 30 31  0  0  1  0  0  0  0  0999 V2000
  184.9410  178.8170  140.3990 C   0  0  0  0  0  0  0  0  0  0  0  0
  183.1820  178.9080  138.6410 C   0  0  2  0  0  3  0  0  0  0  0  0
  183.9460  179.3900  141.3590 C   0  0  0  0  0  2  0  0  0  0  0  0
  180.7050  178.9130  141.0400 N   0  0  0  0  0  0  0  0  0  0  0  0
  181.8440  178.0670  140.7330 C   0  0  2  0  0  3  0  0  0  0  0  0
  182.1110  179.0060  142.8420 N   0  0  0  0  0  2  0  0  0  0  0  0
  182.9080  178.3700  141.8060 C   0  0  2  0  0  3  0  0  0  0  0  0
  182.1440  177.9360  139.2280 C   0  0  2  0  0  3  0  0  0  0  0  0
  179.9190  180.1920  142.8770 N   0  0  0  0  0  1  0  0  0  0  0  0
  180.8750  179.3560  142.2370 C   0  0  0  0  0  0  0  0  0  0  0  0
  184.5990  178.6540  139.1030 C   0  0  0  0  0  0  0  0  0  0  0  0
  186.6650  178.2030  142.2060 C   0  0  0  0  0  0  0  0  0  0  0  0
  185.8480  178.2640  143.1620 O   0  0  0  0  0  0  0  0  0  0  0  0
  186.2610  178.4760  140.8580 N   0  0  0  0  0  2  0  0  0  0  0  0
  188.0890  177.8750  142.4830 C   0  0  0  0  0  2  0  0  0  0  0  0
  188.1610  176.7490  143.4070 N   0  0  0  0  0  2  0  0  0  0  0  0
  188.0090  177.4840  145.6450 O   0  0  0  0  0  1  0  0  0  0  0  0
  189.8770  178.2530  144.3480 C   0  0  0  0  0  1  0  0  0  0  0  0
  188.8890  177.1290  144.6180 C   0  0  2  0  0  3  0  0  0  0  0  0
  185.5560  178.1770  138.0690 C   0  0  0  0  0  0  0  0  0  0  0  0
  186.5690  178.9920  137.5760 O   0  0  0  0  0  0  0  0  0  0  0  0
  185.4500  177.0080  137.6120 O   0  0  0  0  0  1  0  0  0  0  0  0
  182.2210  176.2860  137.4660 O   0  0  0  0  0  1  0  0  0  0  0  0
  182.4280  176.4780  138.8340 C   0  0  2  0  0  3  0  0  0  0  0  0
  181.5800  175.4810  139.6260 C   0  0  0  0  0  2  0  0  0  0  0  0
  180.4120  174.9540  138.8090 C   0  0  0  0  0  1  0  0  0  0  0  0
  182.6830  180.6620  138.7190 S   0  0  0  0  0  0  0  0  0  0  0  0
  180.0860  181.4320  138.3810 C   0  0  0  0  0  1  0  0  0  0  0  0
  181.0520  180.3320  137.9920 C   0  0  0  0  0  3  0  0  0  0  0  0
  181.1760  180.2880  136.4840 C   0  0  0  0  0  1  0  0  0  0  0  0
  1 14  1  0  0  0  0
  1  3  1  0  0  0  0
  2 27  1  1  0  0  0
  2 11  1  0  0  0  0
  2  8  1  0  0  0  0
  4 10  2  0  0  0  0
  5  4  1  6  0  0  0
  5  7  1  0  0  0  0
  7  3  1  6  0  0  0
  7  6  1  0  0  0  0
  8 24  1  1  0  0  0
  8  5  1  0  0  0  0
 10  6  1  0  0  0  0
 10  9  1  0  0  0  0
 11  1  2  0  0  0  0
 12 15  1  0  0  0  0
 12 13  2  0  0  0  0
 14 12  1  0  0  0  0
 15 16  1  0  0  0  0
 16 19  1  0  0  0  0
 19 18  1  6  0  0  0
 19 17  1  0  0  0  0
 20 11  1  0  0  0  0
 21 20  2  0  0  0  0
 22 20  1  0  0  0  0
 24 23  1  6  0  0  0
 24 25  1  0  0  0  0
 26 25  1  0  0  0  0
 29 28  1  0  0  0  0
 29 27  1  0  0  0  0
 30 29  1  0  0  0  0
M  END
>  <MODEL>
5

>  <REMARK>
 VINA RESULT:      -4.8      2.970      4.989
  Name = 
  9 active torsions:
  status: ('A' for Active; 'I' for Inactive)
    1  A    between atoms: C_1  and  N_22
    2  A    between atoms: C_2  and  C_14
    3  A    between atoms: C_4  and  S_25
    4  A    between atoms: C_7  and  C_30
    5  A    between atoms: C_10  and  C_23
    6  A    between atoms: C_11  and  S_25
    7  A    between atoms: C_13  and  C_30
    8  A    between atoms: C_14  and  N_28
    9  A    between atoms: N_28  and  C_29
                            x       y       z     vdW  Elec       q    Type
                         _______ _______ _______ _____ _____    ______ ____

>  <TORSDO>
F 9

$$$$
=
 OpenBabel11052412233D

 30 31  0  0  1  0  0  0  0  0999 V2000
  183.3960  177.8510  138.2360 C   0  0  0  0  0  0  0  0  0  0  0  0
  181.0970  178.3660  137.4340 C   0  0  2  0  0  3  0  0  0  0  0  0
  183.0820  178.6150  139.4840 C   0  0  0  0  0  2  0  0  0  0  0  0
  180.0240  178.8850  140.6700 N   0  0  0  0  0  0  0  0  0  0  0  0
  180.6990  177.8100  139.9650 C   0  0  2  0  0  3  0  0  0  0  0  0
  182.0740  178.6270  141.6510 N   0  0  0  0  0  2  0  0  0  0  0  0
  182.1690  177.8460  140.4290 C   0  0  2  0  0  3  0  0  0  0  0  0
  180.2560  177.6420  138.5000 C   0  0  2  0  0  3  0  0  0  0  0  0
  180.4340  180.2750  142.5490 N   0  0  0  0  0  1  0  0  0  0  0  0
  180.8020  179.2570  141.6270 C   0  0  0  0  0  0  0  0  0  0  0  0
  182.4830  177.7920  137.2430 C   0  0  0  0  0  0  0  0  0  0  0  0
  185.9410  177.8490  137.8620 C   0  0  0  0  0  0  0  0  0  0  0  0
  186.0340  179.0990  137.7400 O   0  0  0  0  0  0  0  0  0  0  0  0
  184.6770  177.2130  138.0920 N   0  0  0  0  0  2  0  0  0  0  0  0
  187.1610  177.0100  137.7310 C   0  0  0  0  0  2  0  0  0  0  0  0
  188.3320  177.7820  138.1340 N   0  0  0  0  0  2  0  0  0  0  0  0
  188.2790  178.6280  140.3370 O   0  0  0  0  0  1  0  0  0  0  0  0
  190.1140  177.1990  139.7400 C   0  0  0  0  0  1  0  0  0  0  0  0
  188.6440  177.5370  139.5430 C   0  0  2  0  0  3  0  0  0  0  0  0
  182.7500  177.1300  135.9380 C   0  0  0  0  0  0  0  0  0  0  0  0
  182.7110  175.7480  135.7950 O   0  0  0  0  0  1  0  0  0  0  0  0
  183.0300  177.8310  134.9290 O   0  0  0  0  0  0  0  0  0  0  0  0
  179.4980  176.0410  136.8580 O   0  0  0  0  0  1  0  0  0  0  0  0
  180.0210  176.1650  138.1470 C   0  0  2  0  0  3  0  0  0  0  0  0
  179.0980  175.4640  139.1450 C   0  0  0  0  0  2  0  0  0  0  0  0
  179.7180  174.1880  139.6930 C   0  0  0  0  0  1  0  0  0  0  0  0
  181.0650  180.1860  137.5750 S   0  0  0  0  0  0  0  0  0  0  0  0
  179.6850  179.5120  135.3170 C   0  0  0  0  0  1  0  0  0  0  0  0
  180.8030  180.4170  135.7930 C   0  0  0  0  0  3  0  0  0  0  0  0
  180.4270  181.8580  135.5250 C   0  0  0  0  0  1  0  0  0  0  0  0
  1  3  1  0  0  0  0
  2 27  1  1  0  0  0
  2  8  1  0  0  0  0
  4 10  2  0  0  0  0
  5  7  1  0  0  0  0
  5  4  1  6  0  0  0
  7  3  1  6  0  0  0
  7  6  1  0  0  0  0
  8 24  1  6  0  0  0
  8  5  1  0  0  0  0
 10  6  1  0  0  0  0
 10  9  1  0  0  0  0
 11  2  1  0  0  0  0
 11  1  2  0  0  0  0
 12 14  1  0  0  0  0
 13 12  2  0  0  0  0
 14  1  1  0  0  0  0
 15 12  1  0  0  0  0
 15 16  1  0  0  0  0
 16 19  1  0  0  0  0
 19 18  1  6  0  0  0
 19 17  1  0  0  0  0
 20 11  1  0  0  0  0
 21 20  1  0  0  0  0
 22 20  2  0  0  0  0
 24 23  1  6  0  0  0
 24 25  1  0  0  0  0
 25 26  1  0  0  0  0
 28 29  1  0  0  0  0
 29 27  1  0  0  0  0
 30 29  1  0  0  0  0
M  END
>  <MODEL>
6

>  <REMARK>
 VINA RESULT:      -4.5      3.913      6.262
  Name = 
  9 active torsions:
  status: ('A' for Active; 'I' for Inactive)
    1  A    between atoms: C_1  and  N_22
    2  A    between atoms: C_2  and  C_14
    3  A    between atoms: C_4  and  S_25
    4  A    between atoms: C_7  and  C_30
    5  A    between atoms: C_10  and  C_23
    6  A    between atoms: C_11  and  S_25
    7  A    between atoms: C_13  and  C_30
    8  A    between atoms: C_14  and  N_28
    9  A    between atoms: N_28  and  C_29
                            x       y       z     vdW  Elec       q    Type
                         _______ _______ _______ _____ _____    ______ ____

>  <TORSDO>
F 9

$$$$
=
 OpenBabel11052412233D

 30 31  0  0  1  0  0  0  0  0999 V2000
  182.9440  177.5010  140.2020 C   0  0  0  0  0  0  0  0  0  0  0  0
  181.0070  177.0580  138.7030 C   0  0  2  0  0  3  0  0  0  0  0  0
  183.8340  176.9190  139.1480 C   0  0  0  0  0  2  0  0  0  0  0  0
  183.0780  177.0160  135.9460 N   0  0  0  0  0  0  0  0  0  0  0  0
  182.8210  177.9460  137.0310 C   0  0  2  0  0  3  0  0  0  0  0  0
  185.0350  177.2440  137.1080 N   0  0  0  0  0  2  0  0  0  0  0  0
  184.0410  177.8610  137.9700 C   0  0  2  0  0  3  0  0  0  0  0  0
  181.3580  177.9650  137.5110 C   0  0  2  0  0  3  0  0  0  0  0  0
  184.9340  175.8400  135.0520 N   0  0  0  0  0  1  0  0  0  0  0  0
  184.3280  176.7090  136.0000 C   0  0  0  0  0  0  0  0  0  0  0  0
  181.6060  177.5040  140.0180 C   0  0  0  0  0  0  0  0  0  0  0  0
  184.5880  178.9710  141.5250 C   0  0  0  0  0  0  0  0  0  0  0  0
  185.1620  179.4370  140.5060 O   0  0  0  0  0  0  0  0  0  0  0  0
  183.5180  178.0240  141.4130 N   0  0  0  0  0  2  0  0  0  0  0  0
  185.0520  179.3830  142.8760 C   0  0  0  0  0  2  0  0  0  0  0  0
  185.2270  178.2030  143.7160 N   0  0  0  0  0  2  0  0  0  0  0  0
  187.2720  177.1910  143.1140 O   0  0  0  0  0  1  0  0  0  0  0  0
  186.8160  177.4670  145.4550 C   0  0  0  0  0  1  0  0  0  0  0  0
  186.6390  178.0170  144.0480 C   0  0  2  0  0  3  0  0  0  0  0  0
  180.6490  177.9800  141.0520 C   0  0  0  0  0  0  0  0  0  0  0  0
  180.6360  179.3010  141.4860 O   0  0  0  0  0  0  0  0  0  0  0  0
  179.8310  177.1710  141.5650 O   0  0  0  0  0  1  0  0  0  0  0  0
  180.2630  179.8810  136.5310 O   0  0  0  0  0  1  0  0  0  0  0  0
  180.8460  179.4000  137.7060 C   0  0  2  0  0  3  0  0  0  0  0  0
  181.9480  180.3580  138.1620 C   0  0  0  0  0  2  0  0  0  0  0  0
  181.4270  181.7740  138.3540 C   0  0  0  0  0  1  0  0  0  0  0  0
  181.2130  175.2760  138.3650 S   0  0  0  0  0  0  0  0  0  0  0  0
  179.2450  175.0410  136.4880 C   0  0  0  0  0  1  0  0  0  0  0  0
  179.4520  175.0440  137.9890 C   0  0  0  0  0  3  0  0  0  0  0  0
  178.9880  173.7210  138.5590 C   0  0  0  0  0  1  0  0  0  0  0  0
  1 14  1  0  0  0  0
  2 27  1  6  0  0  0
  2 11  1  0  0  0  0
  3  1  1  0  0  0  0
  4 10  2  0  0  0  0
  5  4  1  6  0  0  0
  5  8  1  0  0  0  0
  5  7  1  0  0  0  0
  6  7  1  0  0  0  0
  7  3  1  1  0  0  0
  8 24  1  1  0  0  0
  8  2  1  0  0  0  0
  9 10  1  0  0  0  0
 10  6  1  0  0  0  0
 11  1  2  0  0  0  0
 11 20  1  0  0  0  0
 12 15  1  0  0  0  0
 13 12  2  0  0  0  0
 14 12  1  0  0  0  0
 15 16  1  0  0  0  0
 16 19  1  0  0  0  0
 17 19  1  0  0  0  0
 19 18  1  1  0  0  0
 20 21  2  0  0  0  0
 20 22  1  0  0  0  0
 24 23  1  6  0  0  0
 24 25  1  0  0  0  0
 25 26  1  0  0  0  0
 28 29  1  0  0  0  0
 29 27  1  0  0  0  0
 29 30  1  0  0  0  0
M  END
>  <MODEL>
7

>  <REMARK>
 VINA RESULT:      -4.4      2.045      2.494
  Name = 
  9 active torsions:
  status: ('A' for Active; 'I' for Inactive)
    1  A    between atoms: C_1  and  N_22
    2  A    between atoms: C_2  and  C_14
    3  A    between atoms: C_4  and  S_25
    4  A    between atoms: C_7  and  C_30
    5  A    between atoms: C_10  and  C_23
    6  A    between atoms: C_11  and  S_25
    7  A    between atoms: C_13  and  C_30
    8  A    between atoms: C_14  and  N_28
    9  A    between atoms: N_28  and  C_29
                            x       y       z     vdW  Elec       q    Type
                         _______ _______ _______ _____ _____    ______ ____

>  <TORSDO>
F 9

$$$$
=
 OpenBabel11052412233D

 30 31  0  0  1  0  0  0  0  0999 V2000
  189.9810  176.9110  139.4340 C   0  0  0  0  0  0  0  0  0  0  0  0
  188.3350  176.5190  137.6090 C   0  0  2  0  0  3  0  0  0  0  0  0
  190.9270  176.0030  138.7120 C   0  0  0  0  0  2  0  0  0  0  0  0
  190.8640  175.6190  135.4440 N   0  0  0  0  0  0  0  0  0  0  0  0
  190.5870  176.7660  136.2910 C   0  0  2  0  0  3  0  0  0  0  0  0
  192.5530  175.7370  136.9810 N   0  0  0  0  0  2  0  0  0  0  0  0
  191.5510  176.6590  137.4890 C   0  0  2  0  0  3  0  0  0  0  0  0
  189.0920  177.1150  136.4110 C   0  0  2  0  0  3  0  0  0  0  0  0
  192.5850  174.0070  135.1870 N   0  0  0  0  0  1  0  0  0  0  0  0
  191.9890  175.1260  135.8300 C   0  0  0  0  0  0  0  0  0  0  0  0
  188.7350  177.0990  138.9470 C   0  0  0  0  0  0  0  0  0  0  0  0
  190.5710  176.9350  141.9370 C   0  0  0  0  0  0  0  0  0  0  0  0
  190.3440  175.7090  142.1150 O   0  0  0  0  0  0  0  0  0  0  0  0
  190.3940  177.5500  140.6540 N   0  0  0  0  0  2  0  0  0  0  0  0
  190.9970  177.7720  143.0900 C   0  0  0  0  0  2  0  0  0  0  0  0
  191.6320  176.9300  144.0980 N   0  0  0  0  0  2  0  0  0  0  0  0
  192.0550  176.7520  146.4130 O   0  0  0  0  0  1  0  0  0  0  0  0
  189.7960  177.1850  145.7280 C   0  0  0  0  0  1  0  0  0  0  0  0
  191.2760  177.3870  145.4420 C   0  0  2  0  0  3  0  0  0  0  0  0
  187.7070  177.9120  139.6490 C   0  0  0  0  0  0  0  0  0  0  0  0
  186.5830  178.3990  138.9920 O   0  0  0  0  0  0  0  0  0  0  0  0
  187.8520  178.1820  140.8710 O   0  0  0  0  0  1  0  0  0  0  0  0
  189.3300  179.3110  137.3880 O   0  0  0  0  0  1  0  0  0  0  0  0
  188.8520  178.6260  136.2680 C   0  0  2  0  0  3  0  0  0  0  0  0
  187.3780  178.9680  136.0470 C   0  0  0  0  0  2  0  0  0  0  0  0
  186.8050  178.2530  134.8330 C   0  0  0  0  0  1  0  0  0  0  0  0
  188.2400  174.6950  137.5940 S   0  0  0  0  0  0  0  0  0  0  0  0
  186.6440  173.2440  135.9210 C   0  0  0  0  0  1  0  0  0  0  0  0
  186.9570  174.6750  136.3090 C   0  0  0  0  0  3  0  0  0  0  0  0
  185.7030  175.3320  136.8440 C   0  0  0  0  0  1  0  0  0  0  0  0
  1 14  1  0  0  0  0
  2 27  1  1  0  0  0
  2 11  1  0  0  0  0
  3  1  1  0  0  0  0
  4 10  2  0  0  0  0
  5  4  1  1  0  0  0
  5  8  1  0  0  0  0
  5  7  1  0  0  0  0
  6  7  1  0  0  0  0
  7  3  1  1  0  0  0
  8 24  1  1  0  0  0
  8  2  1  0  0  0  0
  9 10  1  0  0  0  0
 10  6  1  0  0  0  0
 11  1  2  0  0  0  0
 11 20  1  0  0  0  0
 12 13  2  0  0  0  0
 12 15  1  0  0  0  0
 14 12  1  0  0  0  0
 15 16  1  0  0  0  0
 16 19  1  0  0  0  0
 19 18  1  1  0  0  0
 19 17  1  0  0  0  0
 20 22  1  0  0  0  0
 21 20  2  0  0  0  0
 24 23  1  1  0  0  0
 25 24  1  0  0  0  0
 26 25  1  0  0  0  0
 28 29  1  0  0  0  0
 29 30  1  0  0  0  0
 29 27  1  0  0  0  0
M  END
>  <MODEL>
8

>  <REMARK>
 VINA RESULT:      -4.4      6.245      7.594
  Name = 
  9 active torsions:
  status: ('A' for Active; 'I' for Inactive)
    1  A    between atoms: C_1  and  N_22
    2  A    between atoms: C_2  and  C_14
    3  A    between atoms: C_4  and  S_25
    4  A    between atoms: C_7  and  C_30
    5  A    between atoms: C_10  and  C_23
    6  A    between atoms: C_11  and  S_25
    7  A    between atoms: C_13  and  C_30
    8  A    between atoms: C_14  and  N_28
    9  A    between atoms: N_28  and  C_29
                            x       y       z     vdW  Elec       q    Type
                         _______ _______ _______ _____ _____    ______ ____

>  <TORSDO>
F 9

$$$$
=
 OpenBabel11052412233D

 30 31  0  0  1  0  0  0  0  0999 V2000
  183.7820  177.5160  138.3600 C   0  0  0  0  0  0  0  0  0  0  0  0
  181.8310  178.7440  139.2970 C   0  0  2  0  0  3  0  0  0  0  0  0
  182.8660  176.3650  138.0830 C   0  0  0  0  0  2  0  0  0  0  0  0
  179.6510  176.7640  137.5020 N   0  0  0  0  0  0  0  0  0  0  0  0
  180.8030  177.5870  137.1800 C   0  0  2  0  0  3  0  0  0  0  0  0
  181.2450  175.3710  136.6350 N   0  0  0  0  0  2  0  0  0  0  0  0
  181.9600  176.6120  136.8840 C   0  0  2  0  0  3  0  0  0  0  0  0
  180.9370  178.8510  138.0500 C   0  0  2  0  0  3  0  0  0  0  0  0
  178.9950  174.4970  137.2560 N   0  0  0  0  0  1  0  0  0  0  0  0
  179.9260  175.5640  137.1250 C   0  0  0  0  0  0  0  0  0  0  0  0
  183.3060  178.6100  138.9930 C   0  0  0  0  0  0  0  0  0  0  0  0
  185.6940  177.3640  136.6460 C   0  0  0  0  0  0  0  0  0  0  0  0
  184.9370  177.3440  135.6400 O   0  0  0  0  0  0  0  0  0  0  0  0
  185.1660  177.4360  137.9770 N   0  0  0  0  0  2  0  0  0  0  0  0
  187.1650  177.2750  136.4540 C   0  0  0  0  0  2  0  0  0  0  0  0
  187.7620  176.5430  137.5660 N   0  0  0  0  0  2  0  0  0  0  0  0
  190.1100  176.3560  137.7170 O   0  0  0  0  0  1  0  0  0  0  0  0
  188.9780  177.5660  139.4540 C   0  0  0  0  0  1  0  0  0  0  0  0
  189.0110  177.1790  137.9840 C   0  0  2  0  0  3  0  0  0  0  0  0
  184.1680  179.7560  139.3850 C   0  0  0  0  0  0  0  0  0  0  0  0
  185.0190  179.6920  140.4830 O   0  0  0  0  0  1  0  0  0  0  0  0
  184.1270  180.8240  138.7180 O   0  0  0  0  0  0  0  0  0  0  0  0
  180.8330  181.2540  137.8280 O   0  0  0  0  0  1  0  0  0  0  0  0
  181.2740  180.0860  137.2000 C   0  0  2  0  0  3  0  0  0  0  0  0
  180.6840  180.0070  135.7910 C   0  0  0  0  0  2  0  0  0  0  0  0
  179.4200  180.8400  135.6570 C   0  0  0  0  0  1  0  0  0  0  0  0
  181.2230  177.5580  140.5450 S   0  0  0  0  0  0  0  0  0  0  0  0
  179.9180  178.5560  142.7250 C   0  0  0  0  0  1  0  0  0  0  0  0
  181.1190  178.8240  141.8420 C   0  0  0  0  0  3  0  0  0  0  0  0
  182.3760  178.7820  142.6840 C   0  0  0  0  0  1  0  0  0  0  0  0
  1 11  2  0  0  0  0
  2 27  1  6  0  0  0
  3  1  1  0  0  0  0
  5  4  1  1  0  0  0
  5  8  1  0  0  0  0
  6  7  1  0  0  0  0
  6 10  1  0  0  0  0
  7  5  1  0  0  0  0
  7  3  1  1  0  0  0
  8 24  1  6  0  0  0
  8  2  1  0  0  0  0
 10  9  1  0  0  0  0
 10  4  2  0  0  0  0
 11  2  1  0  0  0  0
 11 20  1  0  0  0  0
 12 14  1  0  0  0  0
 13 12  2  0  0  0  0
 14  1  1  0  0  0  0
 15 12  1  0  0  0  0
 15 16  1  0  0  0  0
 16 19  1  0  0  0  0
 17 19  1  0  0  0  0
 19 18  1  1  0  0  0
 20 21  1  0  0  0  0
 22 20  2  0  0  0  0
 24 23  1  1  0  0  0
 25 24  1  0  0  0  0
 26 25  1  0  0  0  0
 27 29  1  0  0  0  0
 29 30  1  0  0  0  0
 29 28  1  0  0  0  0
M  END
>  <MODEL>
9

>  <REMARK>
 VINA RESULT:      -4.3      3.585      5.836
  Name = 
  9 active torsions:
  status: ('A' for Active; 'I' for Inactive)
    1  A    between atoms: C_1  and  N_22
    2  A    between atoms: C_2  and  C_14
    3  A    between atoms: C_4  and  S_25
    4  A    between atoms: C_7  and  C_30
    5  A    between atoms: C_10  and  C_23
    6  A    between atoms: C_11  and  S_25
    7  A    between atoms: C_13  and  C_30
    8  A    between atoms: C_14  and  N_28
    9  A    between atoms: N_28  and  C_29
                            x       y       z     vdW  Elec       q    Type
                         _______ _______ _______ _____ _____    ______ ____

>  <TORSDO>
F 9

$$$$
