=
 OpenBabel11052414453D

 32 33  0  0  1  0  0  0  0  0999 V2000
  188.7520  177.2790  144.0080 C   0  0  1  0  0  3  0  0  0  0  0  0
  187.3180  177.6620  144.2000 C   0  0  0  0  0  0  0  0  0  0  0  0
  186.8600  177.9940  145.4840 C   0  0  0  0  0  3  0  0  0  0  0  0
  182.9560  178.7470  142.3800 C   0  0  0  0  0  3  0  0  0  0  0  0
  186.4550  177.7790  143.0990 C   0  0  0  0  0  3  0  0  0  0  0  0
  183.3630  178.9740  144.7630 C   0  0  0  0  0  3  0  0  0  0  0  0
  184.6790  178.5380  144.5810 C   0  0  0  0  0  0  0  0  0  0  0  0
  185.5440  178.4270  145.6750 C   0  0  0  0  0  3  0  0  0  0  0  0
  185.1370  178.2040  143.2840 C   0  0  0  0  0  0  0  0  0  0  0  0
  182.5020  179.0780  143.6640 C   0  0  0  0  0  3  0  0  0  0  0  0
  184.2720  178.3120  142.1900 C   0  0  0  0  0  3  0  0  0  0  0  0
  189.2010  177.6960  142.7470 O   0  0  0  0  0  0  0  0  0  0  0  0
  189.5540  176.5240  142.0660 C   0  0  0  0  0  2  0  0  0  0  0  0
  190.6210  176.8120  141.0630 C   0  0  0  0  0  0  0  0  0  0  0  0
  191.5860  177.5530  141.3850 O   0  0  0  0  0  0  0  0  0  0  0  0
  190.5650  176.2170  139.8000 O   0  0  0  0  0  0  0  0  0  0  0  0
  191.0450  176.8680  138.6300 C   0  0  0  0  0  2  0  0  0  0  0  0
  189.9030  177.1970  137.6620 C   0  0  1  0  0  3  0  0  0  0  0  0
  189.1450  175.9700  137.2720 C   0  0  0  0  0  0  0  0  0  0  0  0
  189.8180  174.7980  136.9410 O   0  0  0  0  0  1  0  0  0  0  0  0
  187.8390  175.9910  137.2550 C   0  0  0  0  0  0  0  0  0  0  0  0
  186.6000  176.0050  137.2370 O   0  0  0  0  0  0  0  0  0  0  0  0
  188.9550  178.2570  138.2180 C   0  0  0  0  0  2  0  0  0  0  0  0
  187.6310  179.5610  136.9340 O   0  0  0  0  0  1  0  0  0  0  0  0
  188.9150  179.4170  137.3410 N   0  0  0  0  0  2  0  0  0  0  0  0
  189.5720  177.8950  145.0460 N   0  0  0  0  0  2  0  0  0  0  0  0
  191.7630  177.7820  144.7650 O   0  0  0  0  0  1  0  0  0  0  0  0
  190.7000  177.0850  145.2330 N   0  0  0  0  0  0  0  0  0  0  0  0
  190.8920  176.9590  146.6670 C   0  0  0  0  0  2  0  0  0  0  0  0
  189.5470  176.8760  147.3780 C   0  0  0  0  0  2  0  0  0  0  0  0
  187.9380  178.0630  148.8640 C   0  0  0  0  0  1  0  0  0  0  0  0
  189.3620  178.0290  148.3480 C   0  0  0  0  0  2  0  0  0  0  0  0
  1 12  1  6  0  0  0
  1  2  1  0  0  0  0
  1 26  1  0  0  0  0
  2  3  1  0  0  0  0
  3  8  2  0  0  0  0
  4 10  1  0  0  0  0
  5  9  1  0  0  0  0
  5  2  2  0  0  0  0
  7  6  1  0  0  0  0
  7  8  1  0  0  0  0
  9  7  2  0  0  0  0
 10  6  2  0  0  0  0
 11  4  2  0  0  0  0
 11  9  1  0  0  0  0
 13 12  1  0  0  0  0
 14 15  2  0  0  0  0
 14 13  1  0  0  0  0
 16 14  1  0  0  0  0
 17 16  1  0  0  0  0
 18 23  1  1  0  0  0
 18 17  1  0  0  0  0
 19 18  1  0  0  0  0
 20 19  1  0  0  0  0
 21 19  2  0  0  0  0
 22 21  2  0  0  0  0
 24 25  1  0  0  0  0
 25 23  1  0  0  0  0
 26 28  1  0  0  0  0
 27 28  1  0  0  0  0
 28 29  1  0  0  0  0
 29 30  1  0  0  0  0
 30 32  1  0  0  0  0
 32 31  1  0  0  0  0
M  END
>  <MODEL>
1

>  <REMARK>
 VINA RESULT:      -8.0      0.000      0.000
  Name = 
  15 active torsions:
  status: ('A' for Active; 'I' for Inactive)
    1  A    between atoms: O_1  and  C_4
    2  A    between atoms: O_1  and  C_5
    3  A    between atoms: C_2  and  C_5
    4  A    between atoms: C_3  and  C_20
    5  A    between atoms: C_4  and  C_24
    6  A    between atoms: C_5  and  N_14
    7  A    between atoms: C_13  and  C_18
    8  A    between atoms: C_13  and  C_29
    9  A    between atoms: N_14  and  N_30
   10  A    between atoms: C_15  and  O_16
   11  A    between atoms: C_15  and  C_20
   12  A    between atoms: O_16  and  C_24
   13  A    between atoms: C_18  and  N_30
   14  A    between atoms: N_19  and  C_26
   15  A    between atoms: C_20  and  C_26
                            x       y       z     vdW  Elec       q    Type
                         _______ _______ _______ _____ _____    ______ ____

>  <TORSDO>
F 15

$$$$
=
 OpenBabel11052414453D

 32 33  0  0  1  0  0  0  0  0999 V2000
  188.9310  177.3530  143.4520 C   0  0  1  0  0  3  0  0  0  0  0  0
  187.5230  177.6930  143.8310 C   0  0  0  0  0  0  0  0  0  0  0  0
  187.2140  177.9390  145.1770 C   0  0  0  0  0  3  0  0  0  0  0  0
  182.9630  178.7850  142.5970 C   0  0  0  0  0  3  0  0  0  0  0  0
  186.5360  177.8540  142.8470 C   0  0  0  0  0  3  0  0  0  0  0  0
  183.6420  178.8830  144.9260 C   0  0  0  0  0  3  0  0  0  0  0  0
  184.9350  178.4870  144.5670 C   0  0  0  0  0  0  0  0  0  0  0  0
  185.9230  178.3330  145.5450 C   0  0  0  0  0  3  0  0  0  0  0  0
  185.2430  178.2390  143.2080 C   0  0  0  0  0  0  0  0  0  0  0  0
  182.6580  179.0310  143.9420 C   0  0  0  0  0  3  0  0  0  0  0  0
  184.2540  178.3900  142.2300 C   0  0  0  0  0  3  0  0  0  0  0  0
  189.2590  177.9460  142.2250 O   0  0  0  0  0  0  0  0  0  0  0  0
  189.6190  176.8890  141.3790 C   0  0  0  0  0  2  0  0  0  0  0  0
  190.7680  177.2890  140.5140 C   0  0  0  0  0  0  0  0  0  0  0  0
  191.8750  177.5650  141.0480 O   0  0  0  0  0  0  0  0  0  0  0  0
  190.6190  177.3010  139.1260 O   0  0  0  0  0  0  0  0  0  0  0  0
  190.2800  176.1340  138.3860 C   0  0  0  0  0  2  0  0  0  0  0  0
  191.5290  175.3320  138.0000 C   0  0  1  0  0  3  0  0  0  0  0  0
  191.2030  174.2480  137.0230 C   0  0  0  0  0  0  0  0  0  0  0  0
  192.1720  173.7760  136.1430 O   0  0  0  0  0  1  0  0  0  0  0  0
  190.0050  173.7290  137.0050 C   0  0  0  0  0  0  0  0  0  0  0  0
  188.8700  173.2320  136.9820 O   0  0  0  0  0  0  0  0  0  0  0  0
  192.6480  176.2190  137.4600 C   0  0  0  0  0  2  0  0  0  0  0  0
  194.8530  175.8210  137.1790 O   0  0  0  0  0  1  0  0  0  0  0  0
  193.9020  175.9300  138.1370 N   0  0  0  0  0  2  0  0  0  0  0  0
  189.8500  177.8240  144.4840 N   0  0  0  0  0  2  0  0  0  0  0  0
  191.6840  176.6120  144.2510 O   0  0  0  0  0  1  0  0  0  0  0  0
  190.5440  176.7110  144.9750 N   0  0  0  0  0  0  0  0  0  0  0  0
  190.9480  177.0350  146.3320 C   0  0  0  0  0  2  0  0  0  0  0  0
  189.8090  176.7580  147.3060 C   0  0  0  0  0  2  0  0  0  0  0  0
  188.0700  177.8400  148.7230 C   0  0  0  0  0  1  0  0  0  0  0  0
  189.4370  178.0040  148.0890 C   0  0  0  0  0  2  0  0  0  0  0  0
  1 12  1  6  0  0  0
  1  2  1  0  0  0  0
  1 26  1  0  0  0  0
  2  3  1  0  0  0  0
  3  8  2  0  0  0  0
  4 10  1  0  0  0  0
  5  9  1  0  0  0  0
  5  2  2  0  0  0  0
  7  6  1  0  0  0  0
  7  8  1  0  0  0  0
  9  7  2  0  0  0  0
 10  6  2  0  0  0  0
 11  4  2  0  0  0  0
 11  9  1  0  0  0  0
 13 12  1  0  0  0  0
 14 15  2  0  0  0  0
 14 13  1  0  0  0  0
 16 14  1  0  0  0  0
 17 16  1  0  0  0  0
 18 23  1  6  0  0  0
 18 17  1  0  0  0  0
 19 18  1  0  0  0  0
 20 19  1  0  0  0  0
 21 19  2  0  0  0  0
 22 21  2  0  0  0  0
 23 25  1  0  0  0  0
 24 25  1  0  0  0  0
 26 28  1  0  0  0  0
 27 28  1  0  0  0  0
 28 29  1  0  0  0  0
 29 30  1  0  0  0  0
 30 32  1  0  0  0  0
 32 31  1  0  0  0  0
M  END
>  <MODEL>
2

>  <REMARK>
 VINA RESULT:      -7.9      1.791      2.333
  Name = 
  15 active torsions:
  status: ('A' for Active; 'I' for Inactive)
    1  A    between atoms: O_1  and  C_4
    2  A    between atoms: O_1  and  C_5
    3  A    between atoms: C_2  and  C_5
    4  A    between atoms: C_3  and  C_20
    5  A    between atoms: C_4  and  C_24
    6  A    between atoms: C_5  and  N_14
    7  A    between atoms: C_13  and  C_18
    8  A    between atoms: C_13  and  C_29
    9  A    between atoms: N_14  and  N_30
   10  A    between atoms: C_15  and  O_16
   11  A    between atoms: C_15  and  C_20
   12  A    between atoms: O_16  and  C_24
   13  A    between atoms: C_18  and  N_30
   14  A    between atoms: N_19  and  C_26
   15  A    between atoms: C_20  and  C_26
                            x       y       z     vdW  Elec       q    Type
                         _______ _______ _______ _____ _____    ______ ____

>  <TORSDO>
F 15

$$$$
=
 OpenBabel11052414453D

 32 33  0  0  1  0  0  0  0  0999 V2000
  188.8840  177.3840  142.2760 C   0  0  1  0  0  3  0  0  0  0  0  0
  187.7120  177.6340  143.1740 C   0  0  0  0  0  0  0  0  0  0  0  0
  187.8800  177.5520  144.5640 C   0  0  0  0  0  3  0  0  0  0  0  0
  183.1140  179.0310  143.8270 C   0  0  0  0  0  3  0  0  0  0  0  0
  186.4770  178.0360  142.6430 C   0  0  0  0  0  3  0  0  0  0  0  0
  184.5200  178.5580  145.7510 C   0  0  0  0  0  3  0  0  0  0  0  0
  185.5850  178.2490  144.8980 C   0  0  0  0  0  0  0  0  0  0  0  0
  186.8190  177.8550  145.4240 C   0  0  0  0  0  3  0  0  0  0  0  0
  185.4110  178.3340  143.4950 C   0  0  0  0  0  0  0  0  0  0  0  0
  183.2860  178.9470  145.2150 C   0  0  0  0  0  3  0  0  0  0  0  0
  184.1760  178.7250  142.9680 C   0  0  0  0  0  3  0  0  0  0  0  0
  188.7970  178.1860  141.1310 O   0  0  0  0  0  0  0  0  0  0  0  0
  189.0990  177.3410  140.0550 C   0  0  0  0  0  2  0  0  0  0  0  0
  188.7770  178.0160  138.7630 C   0  0  0  0  0  0  0  0  0  0  0  0
  189.0130  179.2460  138.6340 O   0  0  0  0  0  0  0  0  0  0  0  0
  188.2700  177.2680  137.6980 O   0  0  0  0  0  0  0  0  0  0  0  0
  188.9640  176.1510  137.1530 C   0  0  0  0  0  2  0  0  0  0  0  0
  190.3540  176.5470  136.6440 C   0  0  1  0  0  3  0  0  0  0  0  0
  191.4360  175.9140  137.4580 C   0  0  0  0  0  0  0  0  0  0  0  0
  191.1530  174.8410  138.2970 O   0  0  0  0  0  1  0  0  0  0  0  0
  192.6600  176.3590  137.3690 C   0  0  0  0  0  0  0  0  0  0  0  0
  193.8240  176.7780  137.2900 O   0  0  0  0  0  0  0  0  0  0  0  0
  190.5450  176.2310  135.1630 C   0  0  0  0  0  2  0  0  0  0  0  0
  190.3730  174.0020  134.8370 O   0  0  0  0  0  1  0  0  0  0  0  0
  189.6600  175.1510  134.7530 N   0  0  0  0  0  2  0  0  0  0  0  0
  190.1240  177.6800  142.9870 N   0  0  0  0  0  2  0  0  0  0  0  0
  192.1080  177.1870  142.1450 O   0  0  0  0  0  1  0  0  0  0  0  0
  191.0200  176.6340  142.7310 N   0  0  0  0  0  0  0  0  0  0  0  0
  191.4610  176.1360  144.0230 C   0  0  0  0  0  2  0  0  0  0  0  0
  191.5330  177.2720  145.0350 C   0  0  0  0  0  2  0  0  0  0  0  0
  192.0230  175.9260  147.0720 C   0  0  0  0  0  1  0  0  0  0  0  0
  191.0180  176.8350  146.3940 C   0  0  0  0  0  2  0  0  0  0  0  0
  1 12  1  6  0  0  0
  1 26  1  0  0  0  0
  1  2  1  0  0  0  0
  2  3  1  0  0  0  0
  3  8  2  0  0  0  0
  4 10  1  0  0  0  0
  5  2  2  0  0  0  0
  5  9  1  0  0  0  0
  7  8  1  0  0  0  0
  7  6  1  0  0  0  0
  9  7  2  0  0  0  0
 10  6  2  0  0  0  0
 11  9  1  0  0  0  0
 11  4  2  0  0  0  0
 13 12  1  0  0  0  0
 14 13  1  0  0  0  0
 15 14  2  0  0  0  0
 16 14  1  0  0  0  0
 17 16  1  0  0  0  0
 18 23  1  6  0  0  0
 18 17  1  0  0  0  0
 18 19  1  0  0  0  0
 19 20  1  0  0  0  0
 21 19  2  0  0  0  0
 22 21  2  0  0  0  0
 25 24  1  0  0  0  0
 25 23  1  0  0  0  0
 27 28  1  0  0  0  0
 28 26  1  0  0  0  0
 28 29  1  0  0  0  0
 29 30  1  0  0  0  0
 30 32  1  0  0  0  0
 32 31  1  0  0  0  0
M  END
>  <MODEL>
3

>  <REMARK>
 VINA RESULT:      -7.7      1.898      3.116
  Name = 
  15 active torsions:
  status: ('A' for Active; 'I' for Inactive)
    1  A    between atoms: O_1  and  C_4
    2  A    between atoms: O_1  and  C_5
    3  A    between atoms: C_2  and  C_5
    4  A    between atoms: C_3  and  C_20
    5  A    between atoms: C_4  and  C_24
    6  A    between atoms: C_5  and  N_14
    7  A    between atoms: C_13  and  C_18
    8  A    between atoms: C_13  and  C_29
    9  A    between atoms: N_14  and  N_30
   10  A    between atoms: C_15  and  O_16
   11  A    between atoms: C_15  and  C_20
   12  A    between atoms: O_16  and  C_24
   13  A    between atoms: C_18  and  N_30
   14  A    between atoms: N_19  and  C_26
   15  A    between atoms: C_20  and  C_26
                            x       y       z     vdW  Elec       q    Type
                         _______ _______ _______ _____ _____    ______ ____

>  <TORSDO>
F 15

$$$$
=
 OpenBabel11052414453D

 32 33  0  0  1  0  0  0  0  0999 V2000
  188.9180  176.9610  142.1680 C   0  0  1  0  0  3  0  0  0  0  0  0
  187.8310  177.3130  143.1360 C   0  0  0  0  0  0  0  0  0  0  0  0
  188.0960  177.2660  144.5130 C   0  0  0  0  0  3  0  0  0  0  0  0
  183.3850  179.0140  144.0610 C   0  0  0  0  0  3  0  0  0  0  0  0
  186.5870  177.7740  142.6800 C   0  0  0  0  0  3  0  0  0  0  0  0
  184.8970  178.5190  145.8960 C   0  0  0  0  0  3  0  0  0  0  0  0
  185.8760  178.1160  144.9820 C   0  0  0  0  0  0  0  0  0  0  0  0
  187.1200  177.6640  145.4340 C   0  0  0  0  0  3  0  0  0  0  0  0
  185.6060  178.1650  143.5940 C   0  0  0  0  0  0  0  0  0  0  0  0
  183.6530  178.9660  145.4360 C   0  0  0  0  0  3  0  0  0  0  0  0
  184.3610  178.6150  143.1410 C   0  0  0  0  0  3  0  0  0  0  0  0
  188.4540  177.0930  140.8520 O   0  0  0  0  0  0  0  0  0  0  0  0
  189.0270  178.2770  140.3680 C   0  0  0  0  0  2  0  0  0  0  0  0
  188.9550  178.3130  138.8770 C   0  0  0  0  0  0  0  0  0  0  0  0
  189.8620  177.7600  138.2020 O   0  0  0  0  0  0  0  0  0  0  0  0
  187.8590  178.9110  138.2510 O   0  0  0  0  0  0  0  0  0  0  0  0
  187.0770  178.2320  137.2740 C   0  0  0  0  0  2  0  0  0  0  0  0
  185.6040  178.1490  137.6920 C   0  0  1  0  0  3  0  0  0  0  0  0
  185.0270  176.8020  137.3990 C   0  0  0  0  0  0  0  0  0  0  0  0
  183.6580  176.5800  137.5120 O   0  0  0  0  0  1  0  0  0  0  0  0
  185.8100  175.8280  137.0200 C   0  0  0  0  0  0  0  0  0  0  0  0
  186.5480  174.9000  136.6600 O   0  0  0  0  0  0  0  0  0  0  0  0
  185.3940  178.5130  139.1600 C   0  0  0  0  0  2  0  0  0  0  0  0
  183.4000  179.4690  139.6210 O   0  0  0  0  0  1  0  0  0  0  0  0
  184.6740  179.7720  139.2760 N   0  0  0  0  0  2  0  0  0  0  0  0
  190.0660  177.8380  142.3710 N   0  0  0  0  0  2  0  0  0  0  0  0
  192.1240  177.3680  141.7130 O   0  0  0  0  0  1  0  0  0  0  0  0
  191.1800  177.0270  142.6230 N   0  0  0  0  0  0  0  0  0  0  0  0
  191.7010  177.4220  143.9200 C   0  0  0  0  0  2  0  0  0  0  0  0
  191.6300  176.2570  144.8990 C   0  0  0  0  0  2  0  0  0  0  0  0
  192.1080  175.8680  147.3120 C   0  0  0  0  0  1  0  0  0  0  0  0
  191.3720  176.7400  146.3150 C   0  0  0  0  0  2  0  0  0  0  0  0
  1 12  1  6  0  0  0
  1 26  1  0  0  0  0
  1  2  1  0  0  0  0
  2  3  1  0  0  0  0
  3  8  2  0  0  0  0
  4 10  1  0  0  0  0
  5  2  2  0  0  0  0
  5  9  1  0  0  0  0
  7  8  1  0  0  0  0
  7  6  1  0  0  0  0
  9  7  2  0  0  0  0
 10  6  2  0  0  0  0
 11  9  1  0  0  0  0
 11  4  2  0  0  0  0
 13 12  1  0  0  0  0
 14 13  1  0  0  0  0
 15 14  2  0  0  0  0
 16 14  1  0  0  0  0
 17 16  1  0  0  0  0
 18 17  1  1  0  0  0
 18 23  1  0  0  0  0
 19 20  1  0  0  0  0
 19 18  1  0  0  0  0
 21 19  2  0  0  0  0
 22 21  2  0  0  0  0
 23 25  1  0  0  0  0
 25 24  1  0  0  0  0
 26 28  1  0  0  0  0
 27 28  1  0  0  0  0
 28 29  1  0  0  0  0
 29 30  1  0  0  0  0
 30 32  1  0  0  0  0
 32 31  1  0  0  0  0
M  END
>  <MODEL>
4

>  <REMARK>
 VINA RESULT:      -7.7      2.163      3.156
  Name = 
  15 active torsions:
  status: ('A' for Active; 'I' for Inactive)
    1  A    between atoms: O_1  and  C_4
    2  A    between atoms: O_1  and  C_5
    3  A    between atoms: C_2  and  C_5
    4  A    between atoms: C_3  and  C_20
    5  A    between atoms: C_4  and  C_24
    6  A    between atoms: C_5  and  N_14
    7  A    between atoms: C_13  and  C_18
    8  A    between atoms: C_13  and  C_29
    9  A    between atoms: N_14  and  N_30
   10  A    between atoms: C_15  and  O_16
   11  A    between atoms: C_15  and  C_20
   12  A    between atoms: O_16  and  C_24
   13  A    between atoms: C_18  and  N_30
   14  A    between atoms: N_19  and  C_26
   15  A    between atoms: C_20  and  C_26
                            x       y       z     vdW  Elec       q    Type
                         _______ _______ _______ _____ _____    ______ ____

>  <TORSDO>
F 15

$$$$
=
 OpenBabel11052414453D

 32 33  0  0  1  0  0  0  0  0999 V2000
  189.3980  176.7490  142.9430 C   0  0  1  0  0  3  0  0  0  0  0  0
  188.0670  177.3850  143.2050 C   0  0  0  0  0  0  0  0  0  0  0  0
  187.3070  177.8580  142.1250 C   0  0  0  0  0  3  0  0  0  0  0  0
  184.4620  178.5420  146.2350 C   0  0  0  0  0  3  0  0  0  0  0  0
  187.5380  177.4280  144.5040 C   0  0  0  0  0  3  0  0  0  0  0  0
  184.2240  178.9610  143.8550 C   0  0  0  0  0  3  0  0  0  0  0  0
  185.5020  178.4380  143.6330 C   0  0  0  0  0  0  0  0  0  0  0  0
  186.0290  178.3860  142.3380 C   0  0  0  0  0  3  0  0  0  0  0  0
  186.2660  177.9610  144.7250 C   0  0  0  0  0  0  0  0  0  0  0  0
  183.7050  179.0140  145.1540 C   0  0  0  0  0  3  0  0  0  0  0  0
  185.7410  178.0160  146.0200 C   0  0  0  0  0  3  0  0  0  0  0  0
  189.7600  176.9220  141.6000 O   0  0  0  0  0  0  0  0  0  0  0  0
  191.1020  177.3240  141.6210 C   0  0  0  0  0  2  0  0  0  0  0  0
  191.7200  177.1310  140.2760 C   0  0  0  0  0  0  0  0  0  0  0  0
  192.8950  177.5360  140.0730 O   0  0  0  0  0  0  0  0  0  0  0  0
  191.0110  176.4590  139.2780 O   0  0  0  0  0  0  0  0  0  0  0  0
  191.0930  176.8290  137.9060 C   0  0  0  0  0  2  0  0  0  0  0  0
  189.7030  177.0570  137.3020 C   0  0  1  0  0  3  0  0  0  0  0  0
  189.1590  175.8060  136.6900 C   0  0  0  0  0  0  0  0  0  0  0  0
  188.1680  175.8690  135.7150 O   0  0  0  0  0  1  0  0  0  0  0  0
  189.6270  174.6460  137.0620 C   0  0  0  0  0  0  0  0  0  0  0  0
  190.0670  173.5410  137.4100 O   0  0  0  0  0  0  0  0  0  0  0  0
  188.7140  177.6310  138.3140 C   0  0  0  0  0  2  0  0  0  0  0  0
  188.9470  179.7070  137.4560 O   0  0  0  0  0  1  0  0  0  0  0  0
  188.0110  178.7730  137.7520 N   0  0  0  0  0  2  0  0  0  0  0  0
  190.4110  177.3510  143.8040 N   0  0  0  0  0  2  0  0  0  0  0  0
  191.9010  175.8570  144.4650 O   0  0  0  0  0  1  0  0  0  0  0  0
  190.7200  176.4230  144.8070 N   0  0  0  0  0  0  0  0  0  0  0  0
  190.9670  177.1860  146.0190 C   0  0  0  0  0  2  0  0  0  0  0  0
  189.9610  176.8100  147.0990 C   0  0  0  0  0  2  0  0  0  0  0  0
  188.1600  177.6280  148.6120 C   0  0  0  0  0  1  0  0  0  0  0  0
  189.2570  178.0360  147.6490 C   0  0  0  0  0  2  0  0  0  0  0  0
  1 12  1  6  0  0  0
  1  2  1  0  0  0  0
  1 26  1  0  0  0  0
  2  5  1  0  0  0  0
  3  8  1  0  0  0  0
  3  2  2  0  0  0  0
  5  9  2  0  0  0  0
  6 10  2  0  0  0  0
  7  6  1  0  0  0  0
  7  9  1  0  0  0  0
  8  7  2  0  0  0  0
  9 11  1  0  0  0  0
 10  4  1  0  0  0  0
 11  4  2  0  0  0  0
 12 13  1  0  0  0  0
 14 13  1  0  0  0  0
 15 14  2  0  0  0  0
 16 14  1  0  0  0  0
 17 16  1  0  0  0  0
 18 17  1  1  0  0  0
 18 23  1  0  0  0  0
 19 21  2  0  0  0  0
 19 18  1  0  0  0  0
 20 19  1  0  0  0  0
 21 22  2  0  0  0  0
 24 25  1  0  0  0  0
 25 23  1  0  0  0  0
 26 28  1  0  0  0  0
 27 28  1  0  0  0  0
 28 29  1  0  0  0  0
 29 30  1  0  0  0  0
 30 32  1  0  0  0  0
 32 31  1  0  0  0  0
M  END
>  <MODEL>
5

>  <REMARK>
 VINA RESULT:      -7.7      1.189      1.995
  Name = 
  15 active torsions:
  status: ('A' for Active; 'I' for Inactive)
    1  A    between atoms: O_1  and  C_4
    2  A    between atoms: O_1  and  C_5
    3  A    between atoms: C_2  and  C_5
    4  A    between atoms: C_3  and  C_20
    5  A    between atoms: C_4  and  C_24
    6  A    between atoms: C_5  and  N_14
    7  A    between atoms: C_13  and  C_18
    8  A    between atoms: C_13  and  C_29
    9  A    between atoms: N_14  and  N_30
   10  A    between atoms: C_15  and  O_16
   11  A    between atoms: C_15  and  C_20
   12  A    between atoms: O_16  and  C_24
   13  A    between atoms: C_18  and  N_30
   14  A    between atoms: N_19  and  C_26
   15  A    between atoms: C_20  and  C_26
                            x       y       z     vdW  Elec       q    Type
                         _______ _______ _______ _____ _____    ______ ____

>  <TORSDO>
F 15

$$$$
=
 OpenBabel11052414453D

 32 33  0  0  1  0  0  0  0  0999 V2000
  188.8270  176.8870  142.9770 C   0  0  1  0  0  3  0  0  0  0  0  0
  187.5800  177.3070  143.6930 C   0  0  0  0  0  0  0  0  0  0  0  0
  187.5880  177.3960  145.0930 C   0  0  0  0  0  3  0  0  0  0  0  0
  183.0350  178.9970  143.6230 C   0  0  0  0  0  3  0  0  0  0  0  0
  186.4390  177.6970  142.9750 C   0  0  0  0  0  3  0  0  0  0  0  0
  184.1860  178.7080  145.7420 C   0  0  0  0  0  3  0  0  0  0  0  0
  185.3180  178.2410  145.0650 C   0  0  0  0  0  0  0  0  0  0  0  0
  186.4590  177.8580  145.7780 C   0  0  0  0  0  3  0  0  0  0  0  0
  185.3060  178.1530  143.6520 C   0  0  0  0  0  0  0  0  0  0  0  0
  183.0470  179.0840  145.0220 C   0  0  0  0  0  3  0  0  0  0  0  0
  184.1640  178.5320  142.9390 C   0  0  0  0  0  3  0  0  0  0  0  0
  188.6020  176.8500  141.5950 O   0  0  0  0  0  0  0  0  0  0  0  0
  189.1650  178.0300  141.0900 C   0  0  0  0  0  2  0  0  0  0  0  0
  188.3960  178.5000  139.9000 C   0  0  0  0  0  0  0  0  0  0  0  0
  187.1470  178.6330  139.9860 O   0  0  0  0  0  0  0  0  0  0  0  0
  189.0730  178.8360  138.7250 O   0  0  0  0  0  0  0  0  0  0  0  0
  188.8910  178.1190  137.5090 C   0  0  0  0  0  2  0  0  0  0  0  0
  188.7400  176.6150  137.7620 C   0  0  1  0  0  3  0  0  0  0  0  0
  187.4980  176.0740  137.1300 C   0  0  0  0  0  0  0  0  0  0  0  0
  187.4750  174.7850  136.6060 O   0  0  0  0  0  1  0  0  0  0  0  0
  186.4210  176.8110  137.0810 C   0  0  0  0  0  0  0  0  0  0  0  0
  185.3960  177.5050  137.0320 O   0  0  0  0  0  0  0  0  0  0  0  0
  189.9620  175.8220  137.3030 C   0  0  0  0  0  2  0  0  0  0  0  0
  191.6800  174.5160  137.9690 O   0  0  0  0  0  1  0  0  0  0  0  0
  190.7210  175.3440  138.4480 N   0  0  0  0  0  2  0  0  0  0  0  0
  189.9060  177.8250  143.2720 N   0  0  0  0  0  2  0  0  0  0  0  0
  192.0850  177.4640  143.1570 O   0  0  0  0  0  1  0  0  0  0  0  0
  190.9660  177.0920  143.8230 N   0  0  0  0  0  0  0  0  0  0  0  0
  191.1290  177.5570  145.1890 C   0  0  0  0  0  2  0  0  0  0  0  0
  191.6770  176.4400  146.0690 C   0  0  0  0  0  2  0  0  0  0  0  0
  190.0890  177.5140  147.6590 C   0  0  0  0  0  1  0  0  0  0  0  0
  190.8140  176.2320  147.2990 C   0  0  0  0  0  2  0  0  0  0  0  0
  1 12  1  6  0  0  0
  1 26  1  0  0  0  0
  1  2  1  0  0  0  0
  2  3  1  0  0  0  0
  3  8  2  0  0  0  0
  4 10  1  0  0  0  0
  5  9  1  0  0  0  0
  5  2  2  0  0  0  0
  7  6  1  0  0  0  0
  7  8  1  0  0  0  0
  9  7  2  0  0  0  0
 10  6  2  0  0  0  0
 11  4  2  0  0  0  0
 11  9  1  0  0  0  0
 13 12  1  0  0  0  0
 14 15  2  0  0  0  0
 14 13  1  0  0  0  0
 16 14  1  0  0  0  0
 17 18  1  0  0  0  0
 17 16  1  0  0  0  0
 18 23  1  6  0  0  0
 19 18  1  0  0  0  0
 20 19  1  0  0  0  0
 21 19  2  0  0  0  0
 22 21  2  0  0  0  0
 23 25  1  0  0  0  0
 24 25  1  0  0  0  0
 26 28  1  0  0  0  0
 27 28  1  0  0  0  0
 28 29  1  0  0  0  0
 29 30  1  0  0  0  0
 30 32  1  0  0  0  0
 32 31  1  0  0  0  0
M  END
>  <MODEL>
6

>  <REMARK>
 VINA RESULT:      -7.6      1.611      2.402
  Name = 
  15 active torsions:
  status: ('A' for Active; 'I' for Inactive)
    1  A    between atoms: O_1  and  C_4
    2  A    between atoms: O_1  and  C_5
    3  A    between atoms: C_2  and  C_5
    4  A    between atoms: C_3  and  C_20
    5  A    between atoms: C_4  and  C_24
    6  A    between atoms: C_5  and  N_14
    7  A    between atoms: C_13  and  C_18
    8  A    between atoms: C_13  and  C_29
    9  A    between atoms: N_14  and  N_30
   10  A    between atoms: C_15  and  O_16
   11  A    between atoms: C_15  and  C_20
   12  A    between atoms: O_16  and  C_24
   13  A    between atoms: C_18  and  N_30
   14  A    between atoms: N_19  and  C_26
   15  A    between atoms: C_20  and  C_26
                            x       y       z     vdW  Elec       q    Type
                         _______ _______ _______ _____ _____    ______ ____

>  <TORSDO>
F 15

$$$$
=
 OpenBabel11052414453D

 32 33  0  0  1  0  0  0  0  0999 V2000
  189.0090  176.9680  142.4170 C   0  0  1  0  0  3  0  0  0  0  0  0
  187.8860  177.3080  143.3470 C   0  0  0  0  0  0  0  0  0  0  0  0
  188.0690  177.1550  144.7300 C   0  0  0  0  0  3  0  0  0  0  0  0
  183.4770  179.1610  144.1470 C   0  0  0  0  0  3  0  0  0  0  0  0
  186.6920  177.8600  142.8570 C   0  0  0  0  0  3  0  0  0  0  0  0
  184.8570  178.4690  146.0220 C   0  0  0  0  0  3  0  0  0  0  0  0
  185.8670  178.0810  145.1370 C   0  0  0  0  0  0  0  0  0  0  0  0
  187.0610  177.5380  145.6220 C   0  0  0  0  0  3  0  0  0  0  0  0
  185.6800  178.2360  143.7420 C   0  0  0  0  0  0  0  0  0  0  0  0
  183.6630  179.0070  145.5280 C   0  0  0  0  0  3  0  0  0  0  0  0
  184.4840  178.7760  143.2560 C   0  0  0  0  0  3  0  0  0  0  0  0
  188.5870  177.0870  141.0850 O   0  0  0  0  0  0  0  0  0  0  0  0
  189.6730  177.6420  140.3950 C   0  0  0  0  0  2  0  0  0  0  0  0
  189.2900  177.9340  138.9820 C   0  0  0  0  0  0  0  0  0  0  0  0
  188.9010  179.0920  138.6750 O   0  0  0  0  0  0  0  0  0  0  0  0
  189.4160  176.9400  138.0090 O   0  0  0  0  0  0  0  0  0  0  0  0
  190.5790  176.8120  137.1980 C   0  0  0  0  0  2  0  0  0  0  0  0
  191.6010  175.8600  137.8290 C   0  0  1  0  0  3  0  0  0  0  0  0
  191.4580  174.4710  137.2970 C   0  0  0  0  0  0  0  0  0  0  0  0
  190.3250  173.7170  137.5890 O   0  0  0  0  0  1  0  0  0  0  0  0
  192.3940  173.9650  136.5410 C   0  0  0  0  0  0  0  0  0  0  0  0
  193.2800  173.4780  135.8230 O   0  0  0  0  0  0  0  0  0  0  0  0
  193.0370  176.3520  137.6580 C   0  0  0  0  0  2  0  0  0  0  0  0
  194.5630  175.9930  139.2850 O   0  0  0  0  0  1  0  0  0  0  0  0
  193.5660  176.8360  138.9240 N   0  0  0  0  0  2  0  0  0  0  0  0
  190.1370  177.8640  142.6530 N   0  0  0  0  0  2  0  0  0  0  0  0
  192.1400  176.9470  142.4730 O   0  0  0  0  0  1  0  0  0  0  0  0
  191.1180  177.1380  143.3400 N   0  0  0  0  0  0  0  0  0  0  0  0
  191.6270  178.0090  144.3860 C   0  0  0  0  0  2  0  0  0  0  0  0
  191.3330  177.4190  145.7600 C   0  0  0  0  0  2  0  0  0  0  0  0
  192.0550  175.6240  147.3280 C   0  0  0  0  0  1  0  0  0  0  0  0
  191.8540  175.9980  145.8730 C   0  0  0  0  0  2  0  0  0  0  0  0
  1 12  1  6  0  0  0
  1 26  1  0  0  0  0
  1  2  1  0  0  0  0
  2  3  1  0  0  0  0
  3  8  2  0  0  0  0
  4 10  1  0  0  0  0
  5  2  2  0  0  0  0
  5  9  1  0  0  0  0
  7  8  1  0  0  0  0
  7  6  1  0  0  0  0
  9  7  2  0  0  0  0
 10  6  2  0  0  0  0
 11  9  1  0  0  0  0
 11  4  2  0  0  0  0
 13 12  1  0  0  0  0
 14 13  1  0  0  0  0
 15 14  2  0  0  0  0
 16 14  1  0  0  0  0
 17 16  1  0  0  0  0
 18 17  1  6  0  0  0
 19 20  1  0  0  0  0
 19 18  1  0  0  0  0
 21 19  2  0  0  0  0
 22 21  2  0  0  0  0
 23 18  1  0  0  0  0
 23 25  1  0  0  0  0
 25 24  1  0  0  0  0
 26 28  1  0  0  0  0
 27 28  1  0  0  0  0
 28 29  1  0  0  0  0
 29 30  1  0  0  0  0
 30 32  1  0  0  0  0
 32 31  1  0  0  0  0
M  END
>  <MODEL>
7

>  <REMARK>
 VINA RESULT:      -7.6      2.108      3.289
  Name = 
  15 active torsions:
  status: ('A' for Active; 'I' for Inactive)
    1  A    between atoms: O_1  and  C_4
    2  A    between atoms: O_1  and  C_5
    3  A    between atoms: C_2  and  C_5
    4  A    between atoms: C_3  and  C_20
    5  A    between atoms: C_4  and  C_24
    6  A    between atoms: C_5  and  N_14
    7  A    between atoms: C_13  and  C_18
    8  A    between atoms: C_13  and  C_29
    9  A    between atoms: N_14  and  N_30
   10  A    between atoms: C_15  and  O_16
   11  A    between atoms: C_15  and  C_20
   12  A    between atoms: O_16  and  C_24
   13  A    between atoms: C_18  and  N_30
   14  A    between atoms: N_19  and  C_26
   15  A    between atoms: C_20  and  C_26
                            x       y       z     vdW  Elec       q    Type
                         _______ _______ _______ _____ _____    ______ ____

>  <TORSDO>
F 15

$$$$
=
 OpenBabel11052414453D

 32 33  0  0  1  0  0  0  0  0999 V2000
  188.9010  177.7330  142.1280 C   0  0  1  0  0  3  0  0  0  0  0  0
  187.7720  177.8610  143.1030 C   0  0  0  0  0  0  0  0  0  0  0  0
  188.0200  177.6760  144.4710 C   0  0  0  0  0  3  0  0  0  0  0  0
  183.1670  179.0060  144.1060 C   0  0  0  0  0  3  0  0  0  0  0  0
  186.4940  178.2520  142.6710 C   0  0  0  0  0  3  0  0  0  0  0  0
  184.6940  178.4430  145.9090 C   0  0  0  0  0  3  0  0  0  0  0  0
  185.7210  178.2480  144.9790 C   0  0  0  0  0  0  0  0  0  0  0  0
  186.9970  177.8660  145.4070 C   0  0  0  0  0  3  0  0  0  0  0  0
  185.4670  178.4360  143.5990 C   0  0  0  0  0  0  0  0  0  0  0  0
  183.4190  178.8210  145.4720 C   0  0  0  0  0  3  0  0  0  0  0  0
  184.1910  178.8150  143.1710 C   0  0  0  0  0  3  0  0  0  0  0  0
  188.6020  178.4250  140.9470 O   0  0  0  0  0  0  0  0  0  0  0  0
  188.8530  177.5210  139.9060 C   0  0  0  0  0  2  0  0  0  0  0  0
  188.6530  178.1860  138.5850 C   0  0  0  0  0  0  0  0  0  0  0  0
  189.0540  179.3690  138.4230 O   0  0  0  0  0  0  0  0  0  0  0  0
  188.0730  177.4760  137.5310 O   0  0  0  0  0  0  0  0  0  0  0  0
  186.8530  177.8810  136.9210 C   0  0  0  0  0  2  0  0  0  0  0  0
  185.6750  177.0240  137.3980 C   0  0  1  0  0  3  0  0  0  0  0  0
  184.5790  177.8670  137.9680 C   0  0  0  0  0  0  0  0  0  0  0  0
  183.2710  177.7240  137.5160 O   0  0  0  0  0  1  0  0  0  0  0  0
  184.8480  178.7330  138.9070 C   0  0  0  0  0  0  0  0  0  0  0  0
  185.0970  179.5580  139.7980 O   0  0  0  0  0  0  0  0  0  0  0  0
  185.1320  176.1140  136.2990 C   0  0  0  0  0  2  0  0  0  0  0  0
  183.7040  174.4590  136.8670 O   0  0  0  0  0  1  0  0  0  0  0  0
  185.0260  174.7440  136.7750 N   0  0  0  0  0  2  0  0  0  0  0  0
  190.1240  178.2720  142.7140 N   0  0  0  0  0  2  0  0  0  0  0  0
  191.9570  177.2950  141.9530 O   0  0  0  0  0  1  0  0  0  0  0  0
  191.0060  177.2010  142.9130 N   0  0  0  0  0  0  0  0  0  0  0  0
  191.6780  177.4430  144.1780 C   0  0  0  0  0  2  0  0  0  0  0  0
  191.4840  176.2590  145.1180 C   0  0  0  0  0  2  0  0  0  0  0  0
  192.2410  175.6380  147.4080 C   0  0  0  0  0  1  0  0  0  0  0  0
  191.5440  176.6920  146.5710 C   0  0  0  0  0  2  0  0  0  0  0  0
  1 12  1  6  0  0  0
  1 26  1  0  0  0  0
  1  2  1  0  0  0  0
  2  3  1  0  0  0  0
  3  8  2  0  0  0  0
  4 10  1  0  0  0  0
  5  2  2  0  0  0  0
  5  9  1  0  0  0  0
  7  8  1  0  0  0  0
  7  6  1  0  0  0  0
  9  7  2  0  0  0  0
 10  6  2  0  0  0  0
 11  9  1  0  0  0  0
 11  4  2  0  0  0  0
 13 12  1  0  0  0  0
 14 13  1  0  0  0  0
 15 14  2  0  0  0  0
 16 14  1  0  0  0  0
 17 18  1  0  0  0  0
 17 16  1  0  0  0  0
 18 23  1  6  0  0  0
 18 19  1  0  0  0  0
 19 21  2  0  0  0  0
 20 19  1  0  0  0  0
 21 22  2  0  0  0  0
 23 25  1  0  0  0  0
 25 24  1  0  0  0  0
 26 28  1  0  0  0  0
 27 28  1  0  0  0  0
 28 29  1  0  0  0  0
 29 30  1  0  0  0  0
 30 32  1  0  0  0  0
 32 31  1  0  0  0  0
M  END
>  <MODEL>
8

>  <REMARK>
 VINA RESULT:      -7.6      2.325      3.571
  Name = 
  15 active torsions:
  status: ('A' for Active; 'I' for Inactive)
    1  A    between atoms: O_1  and  C_4
    2  A    between atoms: O_1  and  C_5
    3  A    between atoms: C_2  and  C_5
    4  A    between atoms: C_3  and  C_20
    5  A    between atoms: C_4  and  C_24
    6  A    between atoms: C_5  and  N_14
    7  A    between atoms: C_13  and  C_18
    8  A    between atoms: C_13  and  C_29
    9  A    between atoms: N_14  and  N_30
   10  A    between atoms: C_15  and  O_16
   11  A    between atoms: C_15  and  C_20
   12  A    between atoms: O_16  and  C_24
   13  A    between atoms: C_18  and  N_30
   14  A    between atoms: N_19  and  C_26
   15  A    between atoms: C_20  and  C_26
                            x       y       z     vdW  Elec       q    Type
                         _______ _______ _______ _____ _____    ______ ____

>  <TORSDO>
F 15

$$$$
=
 OpenBabel11052414453D

 32 33  0  0  1  0  0  0  0  0999 V2000
  188.2590  178.2250  141.6240 C   0  0  1  0  0  3  0  0  0  0  0  0
  189.1160  177.7680  142.7630 C   0  0  0  0  0  0  0  0  0  0  0  0
  190.4700  177.4820  142.5340 C   0  0  0  0  0  3  0  0  0  0  0  0
  189.7540  176.9250  147.4960 C   0  0  0  0  0  3  0  0  0  0  0  0
  188.6020  177.7100  144.0680 C   0  0  0  0  0  3  0  0  0  0  0  0
  191.6270  176.7090  145.9660 C   0  0  0  0  0  3  0  0  0  0  0  0
  190.7960  177.0600  144.8970 C   0  0  0  0  0  0  0  0  0  0  0  0
  191.3080  177.1260  143.5970 C   0  0  0  0  0  3  0  0  0  0  0  0
  189.4300  177.3480  145.1320 C   0  0  0  0  0  0  0  0  0  0  0  0
  191.1060  176.6400  147.2630 C   0  0  0  0  0  3  0  0  0  0  0  0
  188.9170  177.2790  146.4320 C   0  0  0  0  0  3  0  0  0  0  0  0
  188.5580  177.4910  140.4680 O   0  0  0  0  0  0  0  0  0  0  0  0
  188.9500  178.4370  139.5120 C   0  0  0  0  0  2  0  0  0  0  0  0
  188.4390  178.0510  138.1640 C   0  0  0  0  0  0  0  0  0  0  0  0
  187.9610  178.9380  137.4080 O   0  0  0  0  0  0  0  0  0  0  0  0
  188.5430  176.7250  137.7360 O   0  0  0  0  0  0  0  0  0  0  0  0
  189.6410  176.2610  136.9580 C   0  0  0  0  0  2  0  0  0  0  0  0
  190.3220  175.0540  137.6130 C   0  0  1  0  0  3  0  0  0  0  0  0
  190.0770  173.7990  136.8380 C   0  0  0  0  0  0  0  0  0  0  0  0
  191.0660  173.2750  136.0120 O   0  0  0  0  0  1  0  0  0  0  0  0
  188.9320  173.1810  136.9480 C   0  0  0  0  0  0  0  0  0  0  0  0
  187.8470  172.5900  137.0480 O   0  0  0  0  0  0  0  0  0  0  0  0
  191.8190  175.2700  137.8200 C   0  0  0  0  0  2  0  0  0  0  0  0
  193.4090  176.7230  138.5020 O   0  0  0  0  0  1  0  0  0  0  0  0
  192.0870  176.6450  138.2140 N   0  0  0  0  0  2  0  0  0  0  0  0
  186.8500  178.0500  141.9630 N   0  0  0  0  0  2  0  0  0  0  0  0
  185.6700  179.0610  140.3900 O   0  0  0  0  0  1  0  0  0  0  0  0
  186.1840  179.2370  141.6300 N   0  0  0  0  0  0  0  0  0  0  0  0
  185.0490  179.3450  142.5310 C   0  0  0  0  0  2  0  0  0  0  0  0
  185.1190  178.2680  143.6060 C   0  0  0  0  0  2  0  0  0  0  0  0
  185.6380  179.0340  145.9190 C   0  0  0  0  0  1  0  0  0  0  0  0
  184.5340  178.7580  144.9180 C   0  0  0  0  0  2  0  0  0  0  0  0
  1 12  1  6  0  0  0
  1 26  1  0  0  0  0
  1  2  1  0  0  0  0
  2  5  1  0  0  0  0
  3  2  2  0  0  0  0
  3  8  1  0  0  0  0
  5  9  2  0  0  0  0
  6 10  2  0  0  0  0
  7  9  1  0  0  0  0
  7  6  1  0  0  0  0
  8  7  2  0  0  0  0
  9 11  1  0  0  0  0
 10  4  1  0  0  0  0
 11  4  2  0  0  0  0
 13 12  1  0  0  0  0
 14 13  1  0  0  0  0
 15 14  2  0  0  0  0
 16 14  1  0  0  0  0
 17 16  1  0  0  0  0
 18 17  1  6  0  0  0
 18 23  1  0  0  0  0
 19 21  2  0  0  0  0
 19 18  1  0  0  0  0
 20 19  1  0  0  0  0
 21 22  2  0  0  0  0
 23 25  1  0  0  0  0
 25 24  1  0  0  0  0
 27 28  1  0  0  0  0
 28 26  1  0  0  0  0
 28 29  1  0  0  0  0
 29 30  1  0  0  0  0
 30 32  1  0  0  0  0
 32 31  1  0  0  0  0
M  END
>  <MODEL>
9

>  <REMARK>
 VINA RESULT:      -7.5      2.285      5.227
  Name = 
  15 active torsions:
  status: ('A' for Active; 'I' for Inactive)
    1  A    between atoms: O_1  and  C_4
    2  A    between atoms: O_1  and  C_5
    3  A    between atoms: C_2  and  C_5
    4  A    between atoms: C_3  and  C_20
    5  A    between atoms: C_4  and  C_24
    6  A    between atoms: C_5  and  N_14
    7  A    between atoms: C_13  and  C_18
    8  A    between atoms: C_13  and  C_29
    9  A    between atoms: N_14  and  N_30
   10  A    between atoms: C_15  and  O_16
   11  A    between atoms: C_15  and  C_20
   12  A    between atoms: O_16  and  C_24
   13  A    between atoms: C_18  and  N_30
   14  A    between atoms: N_19  and  C_26
   15  A    between atoms: C_20  and  C_26
                            x       y       z     vdW  Elec       q    Type
                         _______ _______ _______ _____ _____    ______ ____

>  <TORSDO>
F 15

$$$$
