=
 OpenBabel11052416043D

 43 49  0  0  1  0  0  0  0  0999 V2000
  191.1960  176.5570  146.7370 C   0  0  0  0  0  0  0  0  0  0  0  0
  189.1700  177.5580  142.2000 C   0  0  0  0  0  0  0  0  0  0  0  0
  186.4600  178.1740  142.6400 C   0  0  0  0  0  0  0  0  0  0  0  0
  190.8430  176.8910  144.3620 C   0  0  0  0  0  0  0  0  0  0  0  0
  189.8510  176.8480  146.9840 C   0  0  0  0  0  3  0  0  0  0  0  0
  192.2630  176.1690  148.0710 Cl  0  0  0  0  0  0  0  0  0  0  0  0
  189.4790  177.1910  144.6020 C   0  0  0  0  0  0  0  0  0  0  0  0
  191.6900  176.5770  145.4280 C   0  0  0  0  0  3  0  0  0  0  0  0
  188.9970  177.1620  145.9230 C   0  0  0  0  0  3  0  0  0  0  0  0
  187.2830  177.8190  143.7160 C   0  0  0  0  0  3  0  0  0  0  0  0
  188.6380  177.5210  143.5170 C   0  0  0  0  0  0  0  0  0  0  0  0
  190.5210  177.2490  141.9900 C   0  0  0  0  0  3  0  0  0  0  0  0
  188.3440  177.9080  141.1150 C   0  0  0  0  0  0  0  0  0  0  0  0
  186.9950  178.2130  141.3490 C   0  0  0  0  0  3  0  0  0  0  0  0
  191.3490  176.9150  143.0610 C   0  0  0  0  0  3  0  0  0  0  0  0
  188.8730  177.9370  139.7810 N   0  0  0  0  0  2  0  0  0  0  0  0
  189.9010  177.6850  136.9440 C   0  0  0  0  0  2  0  0  0  0  0  0
  189.1020  176.4370  136.5720 C   0  0  1  0  0  0  0  0  0  0  0  0
  189.0210  176.2520  135.1820 O   0  0  0  0  0  0  0  0  0  0  0  0
  187.3140  176.9950  138.1730 C   0  0  0  0  0  3  0  0  0  0  0  0
  188.9570  178.7720  137.4680 C   0  0  0  0  0  2  0  0  0  0  0  0
  188.0670  178.2330  138.6000 C   0  0  2  0  0  3  0  0  0  0  0  0
  189.8020  175.3250  135.9050 C   0  0  0  0  0  2  0  0  0  0  0  0
  187.7980  176.1470  137.2530 C   0  0  0  0  0  3  0  0  0  0  0  0
  184.9990  178.4840  142.8340 C   0  0  1  0  0  3  0  0  0  0  0  0
  184.8210  179.4360  144.0130 C   0  0  0  0  0  2  0  0  0  0  0  0
  183.7490  178.9120  144.9500 C   0  0  0  0  0  1  0  0  0  0  0  0
  184.4130  179.0650  141.6310 N   0  0  0  0  0  2  0  0  0  0  0  0
  183.1880  178.3320  141.3450 C   0  0  0  0  0  2  0  0  0  0  0  0
  183.3420  177.6090  140.0180 C   0  0  0  0  0  2  0  0  0  0  0  0
  182.0360  177.3910  139.4140 N   0  0  0  0  0  0  0  0  0  0  0  0
  180.5880  175.5170  139.9650 C   0  0  0  0  0  2  0  0  0  0  0  0
  181.0460  177.8110  140.3980 C   0  0  0  0  0  2  0  0  0  0  0  0
  181.8680  175.9460  139.2570 C   0  0  1  0  0  3  0  0  0  0  0  0
  179.9200  176.8000  140.3810 C   0  0  0  0  0  2  0  0  0  0  0  0
  181.8550  175.5740  137.7710 C   0  0  2  0  0  3  0  0  0  0  0  0
  180.5730  175.1830  137.3620 O   0  0  0  0  0  1  0  0  0  0  0  0
  182.8270  174.5210  137.4970 N   0  0  0  0  0  0  0  0  0  0  0  0
  185.4830  172.7160  138.2400 F   0  0  0  0  0  0  0  0  0  0  0  0
  183.5580  172.4740  136.9080 C   0  0  0  0  0  3  0  0  0  0  0  0
  184.7950  173.2740  137.1770 C   0  0  1  0  0  3  0  0  0  0  0  0
  182.4800  173.2080  137.0990 C   0  0  0  0  0  3  0  0  0  0  0  0
  184.2700  174.6520  137.5770 C   0  0  0  0  0  2  0  0  0  0  0  0
  1  5  1  0  0  0  0
  1  6  1  0  0  0  0
  2 11  1  0  0  0  0
  3 25  1  0  0  0  0
  3 10  1  0  0  0  0
  4  7  2  0  0  0  0
  4  8  1  0  0  0  0
  7  9  1  0  0  0  0
  8  1  2  0  0  0  0
  9  5  2  0  0  0  0
 11 10  2  0  0  0  0
 11  7  1  0  0  0  0
 12  2  1  0  0  0  0
 12 15  2  0  0  0  0
 13 14  1  0  0  0  0
 13  2  2  0  0  0  0
 14  3  2  0  0  0  0
 15  4  1  0  0  0  0
 16 13  1  0  0  0  0
 17 21  1  0  0  0  0
 18 23  1  1  0  0  0
 18 17  1  0  0  0  0
 18 24  1  0  0  0  0
 19 23  1  0  0  0  0
 19 18  1  0  0  0  0
 20 22  1  0  0  0  0
 21 22  1  0  0  0  0
 22 16  1  1  0  0  0
 24 20  2  0  0  0  0
 25 26  1  1  0  0  0
 26 27  1  0  0  0  0
 28 25  1  0  0  0  0
 29 28  1  0  0  0  0
 30 29  1  0  0  0  0
 31 30  1  0  0  0  0
 31 33  1  0  0  0  0
 32 35  1  0  0  0  0
 34 36  1  6  0  0  0
 34 31  1  0  0  0  0
 34 32  1  0  0  0  0
 35 33  1  0  0  0  0
 36 37  1  1  0  0  0
 38 43  1  0  0  0  0
 38 36  1  0  0  0  0
 40 42  2  0  0  0  0
 40 41  1  0  0  0  0
 41 43  1  0  0  0  0
 41 39  1  1  0  0  0
 42 38  1  0  0  0  0
M  END
>  <MODEL>
1

>  <REMARK>
 VINA RESULT:      -9.4      0.000      0.000
  Name = 
  10 active torsions:
  status: ('A' for Active; 'I' for Inactive)
    1  A    between atoms: N_1  and  C_34
    2  A    between atoms: N_1  and  C_35
    3  A    between atoms: C_2  and  N_6
    4  A    between atoms: C_2  and  C_7
    5  A    between atoms: C_2  and  C_13
    6  A    between atoms: C_3  and  N_4
    7  A    between atoms: C_3  and  C_12
    8  A    between atoms: N_6  and  C_12
    9  A    between atoms: N_11  and  C_14
   10  A    between atoms: C_14  and  C_22
                            x       y       z     vdW  Elec       q    Type
                         _______ _______ _______ _____ _____    ______ ____

>  <TORSDO>
F 10

$$$$
=
 OpenBabel11052416043D

 43 49  0  0  1  0  0  0  0  0999 V2000
  187.7520  177.5400  147.1430 C   0  0  0  0  0  0  0  0  0  0  0  0
  186.1980  178.5850  142.4340 C   0  0  0  0  0  0  0  0  0  0  0  0
  188.3120  177.8940  140.7100 C   0  0  0  0  0  0  0  0  0  0  0  0
  186.4650  178.2460  145.2140 C   0  0  0  0  0  0  0  0  0  0  0  0
  188.8220  177.1990  146.3120 C   0  0  0  0  0  3  0  0  0  0  0  0
  187.8840  177.3080  148.8740 Cl  0  0  0  0  0  0  0  0  0  0  0  0
  187.5430  177.8990  144.3620 C   0  0  0  0  0  0  0  0  0  0  0  0
  186.5770  178.0640  146.5950 C   0  0  0  0  0  3  0  0  0  0  0  0
  188.7200  177.3770  144.9300 C   0  0  0  0  0  3  0  0  0  0  0  0
  188.4580  177.7460  142.0950 C   0  0  0  0  0  3  0  0  0  0  0  0
  187.4110  178.0740  142.9680 C   0  0  0  0  0  0  0  0  0  0  0  0
  185.1510  178.9280  143.2990 C   0  0  0  0  0  3  0  0  0  0  0  0
  186.0500  178.7410  141.0420 C   0  0  0  0  0  0  0  0  0  0  0  0
  187.1120  178.3920  140.1950 C   0  0  0  0  0  3  0  0  0  0  0  0
  185.2840  178.7620  144.6780 C   0  0  0  0  0  3  0  0  0  0  0  0
  184.8310  179.2670  140.4970 N   0  0  0  0  0  2  0  0  0  0  0  0
  182.0330  178.3490  141.2020 C   0  0  0  0  0  2  0  0  0  0  0  0
  181.2860  179.3450  140.3140 C   0  0  1  0  0  0  0  0  0  0  0  0
  179.9580  178.9540  140.0760 O   0  0  0  0  0  0  0  0  0  0  0  0
  183.1730  179.4880  138.7350 C   0  0  0  0  0  3  0  0  0  0  0  0
  183.0540  177.5700  140.3670 C   0  0  0  0  0  2  0  0  0  0  0  0
  183.9700  178.5240  139.5820 C   0  0  2  0  0  3  0  0  0  0  0  0
  180.1540  180.0900  140.8900 C   0  0  0  0  0  2  0  0  0  0  0  0
  181.9400  179.8900  139.0790 C   0  0  0  0  0  3  0  0  0  0  0  0
  189.4310  177.5590  139.7590 C   0  0  1  0  0  3  0  0  0  0  0  0
  190.5130  176.7660  140.4870 C   0  0  0  0  0  2  0  0  0  0  0  0
  191.8420  177.4940  140.3990 C   0  0  0  0  0  1  0  0  0  0  0  0
  188.9460  176.8020  138.6100 N   0  0  0  0  0  2  0  0  0  0  0  0
  189.5300  177.3970  137.4170 C   0  0  0  0  0  2  0  0  0  0  0  0
  189.3310  176.4550  136.2430 C   0  0  0  0  0  2  0  0  0  0  0  0
  189.1020  175.1000  136.7250 N   0  0  0  0  0  0  0  0  0  0  0  0
  188.1750  173.3190  135.3540 C   0  0  0  0  0  2  0  0  0  0  0  0
  190.1830  174.2800  136.1940 C   0  0  0  0  0  2  0  0  0  0  0  0
  187.8740  174.6190  136.0910 C   0  0  1  0  0  3  0  0  0  0  0  0
  189.5860  172.9650  135.7420 C   0  0  0  0  0  2  0  0  0  0  0  0
  186.7710  174.4430  137.1390 C   0  0  2  0  0  3  0  0  0  0  0  0
  186.4240  173.0940  137.2830 O   0  0  0  0  0  1  0  0  0  0  0  0
  185.6000  175.2430  136.7920 N   0  0  0  0  0  0  0  0  0  0  0  0
  182.5480  176.3610  137.3330 F   0  0  0  0  0  0  0  0  0  0  0  0
  184.4540  177.0710  136.1480 C   0  0  0  0  0  3  0  0  0  0  0  0
  183.4230  175.9990  136.3240 C   0  0  1  0  0  3  0  0  0  0  0  0
  185.6580  176.6070  136.4200 C   0  0  0  0  0  3  0  0  0  0  0  0
  184.2280  174.7760  136.7630 C   0  0  0  0  0  2  0  0  0  0  0  0
  1  6  1  0  0  0  0
  2 11  1  0  0  0  0
  2 12  1  0  0  0  0
  3 10  1  0  0  0  0
  4  8  2  0  0  0  0
  5  1  2  0  0  0  0
  7  9  2  0  0  0  0
  7  4  1  0  0  0  0
  8  1  1  0  0  0  0
  9  5  1  0  0  0  0
 10 11  2  0  0  0  0
 11  7  1  0  0  0  0
 12 15  2  0  0  0  0
 13  2  2  0  0  0  0
 14  3  2  0  0  0  0
 14 13  1  0  0  0  0
 15  4  1  0  0  0  0
 16 13  1  0  0  0  0
 18 24  1  6  0  0  0
 18 23  1  0  0  0  0
 18 17  1  0  0  0  0
 19 18  1  0  0  0  0
 19 23  1  0  0  0  0
 20 24  2  0  0  0  0
 20 22  1  0  0  0  0
 21 17  1  0  0  0  0
 22 21  1  0  0  0  0
 22 16  1  1  0  0  0
 25 26  1  1  0  0  0
 25  3  1  0  0  0  0
 27 26  1  0  0  0  0
 28 25  1  0  0  0  0
 29 28  1  0  0  0  0
 30 31  1  0  0  0  0
 30 29  1  0  0  0  0
 32 35  1  0  0  0  0
 32 34  1  0  0  0  0
 33 31  1  0  0  0  0
 34 31  1  0  0  0  0
 34 36  1  1  0  0  0
 35 33  1  0  0  0  0
 36 37  1  6  0  0  0
 38 36  1  0  0  0  0
 40 41  1  0  0  0  0
 40 42  2  0  0  0  0
 41 43  1  0  0  0  0
 41 39  1  1  0  0  0
 42 38  1  0  0  0  0
 43 38  1  0  0  0  0
M  END
>  <MODEL>
2

>  <REMARK>
 VINA RESULT:      -9.3      2.246      6.242
  Name = 
  10 active torsions:
  status: ('A' for Active; 'I' for Inactive)
    1  A    between atoms: N_1  and  C_34
    2  A    between atoms: N_1  and  C_35
    3  A    between atoms: C_2  and  N_6
    4  A    between atoms: C_2  and  C_7
    5  A    between atoms: C_2  and  C_13
    6  A    between atoms: C_3  and  N_4
    7  A    between atoms: C_3  and  C_12
    8  A    between atoms: N_6  and  C_12
    9  A    between atoms: N_11  and  C_14
   10  A    between atoms: C_14  and  C_22
                            x       y       z     vdW  Elec       q    Type
                         _______ _______ _______ _____ _____    ______ ____

>  <TORSDO>
F 10

$$$$
=
 OpenBabel11052416043D

 43 49  0  0  1  0  0  0  0  0999 V2000
  191.2350  176.5090  146.9220 C   0  0  0  0  0  0  0  0  0  0  0  0
  189.1930  177.5040  142.3920 C   0  0  0  0  0  0  0  0  0  0  0  0
  186.4980  178.1730  142.8470 C   0  0  0  0  0  0  0  0  0  0  0  0
  190.8700  176.8270  144.5470 C   0  0  0  0  0  0  0  0  0  0  0  0
  189.8980  176.8250  147.1770 C   0  0  0  0  0  3  0  0  0  0  0  0
  192.3060  176.1140  148.2510 Cl  0  0  0  0  0  0  0  0  0  0  0  0
  189.5140  177.1530  144.7940 C   0  0  0  0  0  0  0  0  0  0  0  0
  191.7190  176.5070  145.6100 C   0  0  0  0  0  3  0  0  0  0  0  0
  189.0410  177.1460  146.1200 C   0  0  0  0  0  3  0  0  0  0  0  0
  187.3220  177.8130  143.9200 C   0  0  0  0  0  3  0  0  0  0  0  0
  188.6710  177.4880  143.7130 C   0  0  0  0  0  0  0  0  0  0  0  0
  190.5360  177.1680  142.1740 C   0  0  0  0  0  3  0  0  0  0  0  0
  188.3640  177.8590  141.3100 C   0  0  0  0  0  0  0  0  0  0  0  0
  187.0230  178.1900  141.5520 C   0  0  0  0  0  3  0  0  0  0  0  0
  191.3670  176.8300  143.2420 C   0  0  0  0  0  3  0  0  0  0  0  0
  188.8830  177.8660  139.9720 N   0  0  0  0  0  2  0  0  0  0  0  0
  189.7350  177.4880  137.0910 C   0  0  0  0  0  2  0  0  0  0  0  0
  188.5910  176.5590  136.6840 C   0  0  1  0  0  0  0  0  0  0  0  0
  188.4320  176.4900  135.2900 O   0  0  0  0  0  0  0  0  0  0  0  0
  187.0830  177.5280  138.3750 C   0  0  0  0  0  3  0  0  0  0  0  0
  189.1690  178.7740  137.7020 C   0  0  0  0  0  2  0  0  0  0  0  0
  188.1810  178.4580  138.8370 C   0  0  2  0  0  3  0  0  0  0  0  0
  188.9130  175.3310  135.9370 C   0  0  0  0  0  2  0  0  0  0  0  0
  187.2730  176.6310  137.3960 C   0  0  0  0  0  3  0  0  0  0  0  0
  185.0450  178.5110  143.0490 C   0  0  1  0  0  3  0  0  0  0  0  0
  184.8840  179.4060  144.2740 C   0  0  0  0  0  2  0  0  0  0  0  0
  183.8580  178.8130  145.2230 C   0  0  0  0  0  1  0  0  0  0  0  0
  184.4810  179.1690  141.8750 N   0  0  0  0  0  2  0  0  0  0  0  0
  183.6020  178.2120  141.2180 C   0  0  0  0  0  2  0  0  0  0  0  0
  182.7050  178.9510  140.2420 C   0  0  0  0  0  2  0  0  0  0  0  0
  182.1910  178.0290  139.2400 N   0  0  0  0  0  0  0  0  0  0  0  0
  183.2080  177.7060  137.0550 C   0  0  0  0  0  2  0  0  0  0  0  0
  183.0540  176.8550  139.2710 C   0  0  0  0  0  2  0  0  0  0  0  0
  182.3980  178.6540  137.9320 C   0  0  1  0  0  3  0  0  0  0  0  0
  183.3030  176.4260  137.8420 C   0  0  0  0  0  2  0  0  0  0  0  0
  181.0510  179.0130  137.2980 C   0  0  2  0  0  3  0  0  0  0  0  0
  180.8880  178.3710  136.0640 O   0  0  0  0  0  1  0  0  0  0  0  0
  180.9230  180.4590  137.1490 N   0  0  0  0  0  0  0  0  0  0  0  0
  182.0040  183.5510  137.5110 F   0  0  0  0  0  0  0  0  0  0  0  0
  180.5090  182.4080  136.0980 C   0  0  0  0  0  3  0  0  0  0  0  0
  180.8540  182.7830  137.5060 C   0  0  1  0  0  3  0  0  0  0  0  0
  180.5610  181.0990  135.9400 C   0  0  0  0  0  3  0  0  0  0  0  0
  181.1320  181.4450  138.1920 C   0  0  0  0  0  2  0  0  0  0  0  0
  1  5  1  0  0  0  0
  1  6  1  0  0  0  0
  2 11  1  0  0  0  0
  3 25  1  0  0  0  0
  3 10  1  0  0  0  0
  4  7  2  0  0  0  0
  4  8  1  0  0  0  0
  7  9  1  0  0  0  0
  8  1  2  0  0  0  0
  9  5  2  0  0  0  0
 11 10  2  0  0  0  0
 11  7  1  0  0  0  0
 12  2  1  0  0  0  0
 12 15  2  0  0  0  0
 13 14  1  0  0  0  0
 13  2  2  0  0  0  0
 14  3  2  0  0  0  0
 15  4  1  0  0  0  0
 16 13  1  0  0  0  0
 17 21  1  0  0  0  0
 18 23  1  1  0  0  0
 18 17  1  0  0  0  0
 18 24  1  0  0  0  0
 19 23  1  0  0  0  0
 19 18  1  0  0  0  0
 20 22  1  0  0  0  0
 21 22  1  0  0  0  0
 22 16  1  1  0  0  0
 24 20  2  0  0  0  0
 25 26  1  1  0  0  0
 26 27  1  0  0  0  0
 28 25  1  0  0  0  0
 29 28  1  0  0  0  0
 30 29  1  0  0  0  0
 31 33  1  0  0  0  0
 31 30  1  0  0  0  0
 32 35  1  0  0  0  0
 32 34  1  0  0  0  0
 34 36  1  6  0  0  0
 34 31  1  0  0  0  0
 35 33  1  0  0  0  0
 36 37  1  6  0  0  0
 38 36  1  0  0  0  0
 38 43  1  0  0  0  0
 40 41  1  0  0  0  0
 41 39  1  6  0  0  0
 41 43  1  0  0  0  0
 42 40  2  0  0  0  0
 42 38  1  0  0  0  0
M  END
>  <MODEL>
3

>  <REMARK>
 VINA RESULT:      -9.1      2.703      3.712
  Name = 
  10 active torsions:
  status: ('A' for Active; 'I' for Inactive)
    1  A    between atoms: N_1  and  C_34
    2  A    between atoms: N_1  and  C_35
    3  A    between atoms: C_2  and  N_6
    4  A    between atoms: C_2  and  C_7
    5  A    between atoms: C_2  and  C_13
    6  A    between atoms: C_3  and  N_4
    7  A    between atoms: C_3  and  C_12
    8  A    between atoms: N_6  and  C_12
    9  A    between atoms: N_11  and  C_14
   10  A    between atoms: C_14  and  C_22
                            x       y       z     vdW  Elec       q    Type
                         _______ _______ _______ _____ _____    ______ ____

>  <TORSDO>
F 10

$$$$
=
 OpenBabel11052416043D

 43 49  0  0  1  0  0  0  0  0999 V2000
  187.9030  177.4870  146.7810 C   0  0  0  0  0  0  0  0  0  0  0  0
  185.8950  178.6240  142.2690 C   0  0  0  0  0  0  0  0  0  0  0  0
  187.8610  178.0530  140.3390 C   0  0  0  0  0  0  0  0  0  0  0  0
  186.4250  178.2090  145.0010 C   0  0  0  0  0  0  0  0  0  0  0  0
  188.9020  177.2050  145.8460 C   0  0  0  0  0  3  0  0  0  0  0  0
  188.2000  177.2080  148.4850 Cl  0  0  0  0  0  0  0  0  0  0  0  0
  187.4300  177.9240  144.0440 C   0  0  0  0  0  0  0  0  0  0  0  0
  186.6680  177.9900  146.3590 C   0  0  0  0  0  3  0  0  0  0  0  0
  188.6690  177.4220  144.4850 C   0  0  0  0  0  3  0  0  0  0  0  0
  188.1380  177.8680  141.6990 C   0  0  0  0  0  3  0  0  0  0  0  0
  187.1660  178.1360  142.6740 C   0  0  0  0  0  0  0  0  0  0  0  0
  184.9220  178.9070  143.2360 C   0  0  0  0  0  3  0  0  0  0  0  0
  185.6160  178.8170  140.9020 C   0  0  0  0  0  0  0  0  0  0  0  0
  186.6050  178.5280  139.9510 C   0  0  0  0  0  3  0  0  0  0  0  0
  185.1850  178.7040  144.5910 C   0  0  0  0  0  3  0  0  0  0  0  0
  184.3370  179.3200  140.4880 N   0  0  0  0  0  2  0  0  0  0  0  0
  181.4530  178.8220  141.2670 C   0  0  0  0  0  2  0  0  0  0  0  0
  180.8230  179.7650  140.2420 C   0  0  1  0  0  0  0  0  0  0  0  0
  179.4600  179.4940  140.0390 O   0  0  0  0  0  0  0  0  0  0  0  0
  182.7140  179.4820  138.6870 C   0  0  0  0  0  3  0  0  0  0  0  0
  182.3810  177.8290  140.5610 C   0  0  0  0  0  2  0  0  0  0  0  0
  183.3980  178.5600  139.6690 C   0  0  2  0  0  3  0  0  0  0  0  0
  179.7810  180.7020  140.6950 C   0  0  0  0  0  2  0  0  0  0  0  0
  181.5340  180.0610  138.9550 C   0  0  0  0  0  3  0  0  0  0  0  0
  188.8980  177.7830  139.2800 C   0  0  1  0  0  3  0  0  0  0  0  0
  189.0620  179.0100  138.3880 C   0  0  0  0  0  2  0  0  0  0  0  0
  188.7920  178.6430  136.9410 C   0  0  0  0  0  1  0  0  0  0  0  0
  190.1820  177.4210  139.8710 N   0  0  0  0  0  2  0  0  0  0  0  0
  190.6870  176.2660  139.1430 C   0  0  0  0  0  2  0  0  0  0  0  0
  191.9770  176.6490  138.4400 C   0  0  0  0  0  2  0  0  0  0  0  0
  192.0320  176.0270  137.1250 N   0  0  0  0  0  0  0  0  0  0  0  0
  192.1020  173.6230  136.7710 C   0  0  0  0  0  2  0  0  0  0  0  0
  190.6900  175.5360  136.8390 C   0  0  0  0  0  2  0  0  0  0  0  0
  192.8840  174.8420  137.2430 C   0  0  1  0  0  3  0  0  0  0  0  0
  190.8240  174.1730  136.1960 C   0  0  0  0  0  2  0  0  0  0  0  0
  194.1770  175.0390  136.4470 C   0  0  2  0  0  3  0  0  0  0  0  0
  194.1490  174.3080  135.2520 O   0  0  0  0  0  1  0  0  0  0  0  0
  195.3370  174.6680  137.2520 N   0  0  0  0  0  0  0  0  0  0  0  0
  198.4700  175.0140  138.2130 F   0  0  0  0  0  0  0  0  0  0  0  0
  196.4840  174.1290  139.1130 C   0  0  0  0  0  3  0  0  0  0  0  0
  197.4840  174.0670  138.0000 C   0  0  1  0  0  3  0  0  0  0  0  0
  195.2960  174.4690  138.6520 C   0  0  0  0  0  3  0  0  0  0  0  0
  196.6810  174.4400  136.7550 C   0  0  0  0  0  2  0  0  0  0  0  0
  1  6  1  0  0  0  0
  2 11  1  0  0  0  0
  2 12  1  0  0  0  0
  3 10  1  0  0  0  0
  4  8  2  0  0  0  0
  5  1  2  0  0  0  0
  7  9  2  0  0  0  0
  7  4  1  0  0  0  0
  8  1  1  0  0  0  0
  9  5  1  0  0  0  0
 10 11  2  0  0  0  0
 11  7  1  0  0  0  0
 12 15  2  0  0  0  0
 13  2  2  0  0  0  0
 14  3  2  0  0  0  0
 14 13  1  0  0  0  0
 15  4  1  0  0  0  0
 16 13  1  0  0  0  0
 18 24  1  6  0  0  0
 18 23  1  0  0  0  0
 18 17  1  0  0  0  0
 19 18  1  0  0  0  0
 19 23  1  0  0  0  0
 20 24  2  0  0  0  0
 20 22  1  0  0  0  0
 21 17  1  0  0  0  0
 22 16  1  1  0  0  0
 22 21  1  0  0  0  0
 25 26  1  1  0  0  0
 25 28  1  0  0  0  0
 25  3  1  0  0  0  0
 27 26  1  0  0  0  0
 29 28  1  0  0  0  0
 30 29  1  0  0  0  0
 31 34  1  0  0  0  0
 31 30  1  0  0  0  0
 32 34  1  0  0  0  0
 33 31  1  0  0  0  0
 34 36  1  6  0  0  0
 35 32  1  0  0  0  0
 35 33  1  0  0  0  0
 36 37  1  6  0  0  0
 36 38  1  0  0  0  0
 38 42  1  0  0  0  0
 41 39  1  1  0  0  0
 41 40  1  0  0  0  0
 42 40  2  0  0  0  0
 43 38  1  0  0  0  0
 43 41  1  0  0  0  0
M  END
>  <MODEL>
4

>  <REMARK>
 VINA RESULT:      -9.0      3.879      8.588
  Name = 
  10 active torsions:
  status: ('A' for Active; 'I' for Inactive)
    1  A    between atoms: N_1  and  C_34
    2  A    between atoms: N_1  and  C_35
    3  A    between atoms: C_2  and  N_6
    4  A    between atoms: C_2  and  C_7
    5  A    between atoms: C_2  and  C_13
    6  A    between atoms: C_3  and  N_4
    7  A    between atoms: C_3  and  C_12
    8  A    between atoms: N_6  and  C_12
    9  A    between atoms: N_11  and  C_14
   10  A    between atoms: C_14  and  C_22
                            x       y       z     vdW  Elec       q    Type
                         _______ _______ _______ _____ _____    ______ ____

>  <TORSDO>
F 10

$$$$
=
 OpenBabel11052416043D

 43 49  0  0  1  0  0  0  0  0999 V2000
  190.3020  177.2110  138.3060 C   0  0  0  0  0  0  0  0  0  0  0  0
  185.5230  178.4880  139.4100 C   0  0  0  0  0  0  0  0  0  0  0  0
  185.4270  178.9480  142.1840 C   0  0  0  0  0  0  0  0  0  0  0  0
  187.9350  177.7210  138.1820 C   0  0  0  0  0  0  0  0  0  0  0  0
  190.2810  177.4210  139.6880 C   0  0  0  0  0  3  0  0  0  0  0  0
  191.7990  176.7620  137.5160 Cl  0  0  0  0  0  0  0  0  0  0  0  0
  187.9040  177.9400  139.5810 C   0  0  0  0  0  0  0  0  0  0  0  0
  189.1300  177.3580  137.5560 C   0  0  0  0  0  3  0  0  0  0  0  0
  189.0890  177.7830  140.3230 C   0  0  0  0  0  3  0  0  0  0  0  0
  186.6230  178.5420  141.5810 C   0  0  0  0  0  3  0  0  0  0  0  0
  186.6930  178.3200  140.1990 C   0  0  0  0  0  0  0  0  0  0  0  0
  185.5790  178.2560  138.0300 C   0  0  0  0  0  3  0  0  0  0  0  0
  184.3160  178.8890  140.0150 C   0  0  0  0  0  0  0  0  0  0  0  0
  184.2830  179.1150  141.3990 C   0  0  0  0  0  3  0  0  0  0  0  0
  186.7750  177.8730  137.4210 C   0  0  0  0  0  3  0  0  0  0  0  0
  183.1280  179.0500  139.2250 N   0  0  0  0  0  2  0  0  0  0  0  0
  182.1690  177.2870  136.9580 C   0  0  0  0  0  2  0  0  0  0  0  0
  182.6160  175.9560  137.5610 C   0  0  1  0  0  0  0  0  0  0  0  0
  181.9760  174.8580  136.9620 O   0  0  0  0  0  0  0  0  0  0  0  0
  182.3970  176.8210  139.8580 C   0  0  0  0  0  3  0  0  0  0  0  0
  181.2800  178.0380  137.9540 C   0  0  0  0  0  2  0  0  0  0  0  0
  181.9700  178.1670  139.3220 C   0  0  2  0  0  3  0  0  0  0  0  0
  183.3560  175.0100  136.7090 C   0  0  0  0  0  2  0  0  0  0  0  0
  182.7200  175.8010  139.0490 C   0  0  0  0  0  3  0  0  0  0  0  0
  185.3310  179.1770  143.6700 C   0  0  1  0  0  3  0  0  0  0  0  0
  183.9580  179.7420  144.0220 C   0  0  0  0  0  2  0  0  0  0  0  0
  183.0440  178.6300  144.5030 C   0  0  0  0  0  1  0  0  0  0  0  0
  185.5700  177.9460  144.4160 N   0  0  0  0  0  2  0  0  0  0  0  0
  186.2780  178.3050  145.6360 C   0  0  0  0  0  2  0  0  0  0  0  0
  187.7480  177.9590  145.4760 C   0  0  0  0  0  2  0  0  0  0  0  0
  188.2180  177.2270  146.6440 N   0  0  0  0  0  0  0  0  0  0  0  0
  189.4040  178.2600  148.4970 C   0  0  0  0  0  2  0  0  0  0  0  0
  187.2820  177.5170  147.7220 C   0  0  0  0  0  2  0  0  0  0  0  0
  189.4950  177.8210  147.0400 C   0  0  1  0  0  3  0  0  0  0  0  0
  188.0850  177.7260  148.9870 C   0  0  0  0  0  2  0  0  0  0  0  0
  190.6360  176.8260  146.8100 C   0  0  2  0  0  3  0  0  0  0  0  0
  191.7370  177.1250  147.6230 O   0  0  0  0  0  1  0  0  0  0  0  0
  191.0240  176.8060  145.4030 N   0  0  0  0  0  0  0  0  0  0  0  0
  190.7750  175.7000  142.3090 F   0  0  0  0  0  0  0  0  0  0  0  0
  191.5360  177.6520  143.3800 C   0  0  0  0  0  3  0  0  0  0  0  0
  191.6860  176.1690  143.2390 C   0  0  1  0  0  3  0  0  0  0  0  0
  191.1630  177.9660  144.6060 C   0  0  0  0  0  3  0  0  0  0  0  0
  191.3300  175.6230  144.6210 C   0  0  0  0  0  2  0  0  0  0  0  0
  1  5  1  0  0  0  0
  2 13  2  0  0  0  0
  2 11  1  0  0  0  0
  3 25  1  0  0  0  0
  4  7  2  0  0  0  0
  5  9  2  0  0  0  0
  6  1  1  0  0  0  0
  7 11  1  0  0  0  0
  7  9  1  0  0  0  0
  8  4  1  0  0  0  0
  8  1  2  0  0  0  0
 10  3  1  0  0  0  0
 11 10  2  0  0  0  0
 12  2  1  0  0  0  0
 13 14  1  0  0  0  0
 14  3  2  0  0  0  0
 15 12  2  0  0  0  0
 15  4  1  0  0  0  0
 16 13  1  0  0  0  0
 17 18  1  0  0  0  0
 17 21  1  0  0  0  0
 18 23  1  6  0  0  0
 18 24  1  0  0  0  0
 19 18  1  0  0  0  0
 21 22  1  0  0  0  0
 22 16  1  6  0  0  0
 22 20  1  0  0  0  0
 23 19  1  0  0  0  0
 24 20  2  0  0  0  0
 25 26  1  6  0  0  0
 25 28  1  0  0  0  0
 26 27  1  0  0  0  0
 28 29  1  0  0  0  0
 30 29  1  0  0  0  0
 30 31  1  0  0  0  0
 31 34  1  0  0  0  0
 31 33  1  0  0  0  0
 32 35  1  0  0  0  0
 33 35  1  0  0  0  0
 34 36  1  1  0  0  0
 34 32  1  0  0  0  0
 36 37  1  1  0  0  0
 38 36  1  0  0  0  0
 40 42  2  0  0  0  0
 41 39  1  6  0  0  0
 41 40  1  0  0  0  0
 41 43  1  0  0  0  0
 42 38  1  0  0  0  0
 43 38  1  0  0  0  0
M  END
>  <MODEL>
5

>  <REMARK>
 VINA RESULT:      -9.0      3.432      7.963
  Name = 
  10 active torsions:
  status: ('A' for Active; 'I' for Inactive)
    1  A    between atoms: N_1  and  C_34
    2  A    between atoms: N_1  and  C_35
    3  A    between atoms: C_2  and  N_6
    4  A    between atoms: C_2  and  C_7
    5  A    between atoms: C_2  and  C_13
    6  A    between atoms: C_3  and  N_4
    7  A    between atoms: C_3  and  C_12
    8  A    between atoms: N_6  and  C_12
    9  A    between atoms: N_11  and  C_14
   10  A    between atoms: C_14  and  C_22
                            x       y       z     vdW  Elec       q    Type
                         _______ _______ _______ _____ _____    ______ ____

>  <TORSDO>
F 10

$$$$
=
 OpenBabel11052416043D

 43 49  0  0  1  0  0  0  0  0999 V2000
  186.3510  178.0200  146.0270 C   0  0  0  0  0  0  0  0  0  0  0  0
  182.9480  178.8070  142.3550 C   0  0  0  0  0  0  0  0  0  0  0  0
  184.1950  178.1090  139.9300 C   0  0  0  0  0  0  0  0  0  0  0  0
  184.3520  178.5990  144.7840 C   0  0  0  0  0  0  0  0  0  0  0  0
  187.0000  177.6770  144.8370 C   0  0  0  0  0  3  0  0  0  0  0  0
  187.1950  177.8690  147.5540 Cl  0  0  0  0  0  0  0  0  0  0  0  0
  184.9990  178.2500  143.5720 C   0  0  0  0  0  0  0  0  0  0  0  0
  185.0310  178.4820  146.0000 C   0  0  0  0  0  3  0  0  0  0  0  0
  186.3290  177.7920  143.6170 C   0  0  0  0  0  3  0  0  0  0  0  0
  184.9060  178.0270  141.1340 C   0  0  0  0  0  3  0  0  0  0  0  0
  184.2970  178.3590  142.3530 C   0  0  0  0  0  0  0  0  0  0  0  0
  182.3350  179.1540  143.5660 C   0  0  0  0  0  3  0  0  0  0  0  0
  182.2340  178.8970  141.1440 C   0  0  0  0  0  0  0  0  0  0  0  0
  182.8680  178.5450  139.9440 C   0  0  0  0  0  3  0  0  0  0  0  0
  183.0320  179.0530  144.7700 C   0  0  0  0  0  3  0  0  0  0  0  0
  180.8740  179.3590  141.1390 N   0  0  0  0  0  2  0  0  0  0  0  0
  179.8260  178.1820  138.5530 C   0  0  0  0  0  2  0  0  0  0  0  0
  180.2960  176.7490  138.8020 C   0  0  1  0  0  0  0  0  0  0  0  0
  179.6320  175.8210  137.9830 O   0  0  0  0  0  0  0  0  0  0  0  0
  180.1670  177.0370  141.2470 C   0  0  0  0  0  3  0  0  0  0  0  0
  178.9770  178.6650  139.7340 C   0  0  0  0  0  2  0  0  0  0  0  0
  179.7200  178.4680  141.0660 C   0  0  2  0  0  3  0  0  0  0  0  0
  181.0020  176.0410  137.7200 C   0  0  0  0  0  2  0  0  0  0  0  0
  180.4580  176.2430  140.2050 C   0  0  0  0  0  3  0  0  0  0  0  0
  184.8380  177.7690  138.6120 C   0  0  1  0  0  3  0  0  0  0  0  0
  183.8010  177.8330  137.4950 C   0  0  0  0  0  2  0  0  0  0  0  0
  184.3170  177.1150  136.2610 C   0  0  0  0  0  1  0  0  0  0  0  0
  185.9480  178.6680  138.3120 N   0  0  0  0  0  2  0  0  0  0  0  0
  187.1570  177.8610  138.2440 C   0  0  0  0  0  2  0  0  0  0  0  0
  188.0760  178.2440  139.3910 C   0  0  0  0  0  2  0  0  0  0  0  0
  189.4590  178.2580  138.9390 N   0  0  0  0  0  0  0  0  0  0  0  0
  190.8120  176.2560  138.6680 C   0  0  0  0  0  2  0  0  0  0  0  0
  189.4460  177.8450  137.5420 C   0  0  0  0  0  2  0  0  0  0  0  0
  190.1630  177.2040  139.6710 C   0  0  1  0  0  3  0  0  0  0  0  0
  190.6150  176.9090  137.3260 C   0  0  0  0  0  2  0  0  0  0  0  0
  191.1890  177.8180  140.6280 C   0  0  2  0  0  3  0  0  0  0  0  0
  192.4960  177.4990  140.2370 O   0  0  0  0  0  1  0  0  0  0  0  0
  190.9390  177.3810  141.9980 N   0  0  0  0  0  0  0  0  0  0  0  0
  190.3380  177.9370  145.1900 F   0  0  0  0  0  0  0  0  0  0  0  0
  189.9840  176.1900  143.6540 C   0  0  0  0  0  3  0  0  0  0  0  0
  190.9890  177.0720  144.3290 C   0  0  1  0  0  3  0  0  0  0  0  0
  189.9880  176.3940  142.3510 C   0  0  0  0  0  3  0  0  0  0  0  0
  191.6160  177.8680  143.1840 C   0  0  0  0  0  2  0  0  0  0  0  0
  1  6  1  0  0  0  0
  2 12  1  0  0  0  0
  3 14  2  0  0  0  0
  3 10  1  0  0  0  0
  4  8  2  0  0  0  0
  5  1  2  0  0  0  0
  7  9  2  0  0  0  0
  7  4  1  0  0  0  0
  8  1  1  0  0  0  0
  9  5  1  0  0  0  0
 10 11  2  0  0  0  0
 11  2  1  0  0  0  0
 11  7  1  0  0  0  0
 12 15  2  0  0  0  0
 13  2  2  0  0  0  0
 14 13  1  0  0  0  0
 15  4  1  0  0  0  0
 16 13  1  0  0  0  0
 17 18  1  0  0  0  0
 17 21  1  0  0  0  0
 18 23  1  6  0  0  0
 18 24  1  0  0  0  0
 19 18  1  0  0  0  0
 21 22  1  0  0  0  0
 22 16  1  6  0  0  0
 22 20  1  0  0  0  0
 23 19  1  0  0  0  0
 24 20  2  0  0  0  0
 25 26  1  6  0  0  0
 25  3  1  0  0  0  0
 27 26  1  0  0  0  0
 28 25  1  0  0  0  0
 29 28  1  0  0  0  0
 29 30  1  0  0  0  0
 31 30  1  0  0  0  0
 31 34  1  0  0  0  0
 32 34  1  0  0  0  0
 33 31  1  0  0  0  0
 34 36  1  1  0  0  0
 35 33  1  0  0  0  0
 35 32  1  0  0  0  0
 36 37  1  6  0  0  0
 36 38  1  0  0  0  0
 38 42  1  0  0  0  0
 38 43  1  0  0  0  0
 40 41  1  0  0  0  0
 41 39  1  1  0  0  0
 42 40  2  0  0  0  0
 43 41  1  0  0  0  0
M  END
>  <MODEL>
6

>  <REMARK>
 VINA RESULT:      -8.9      2.820      7.941
  Name = 
  10 active torsions:
  status: ('A' for Active; 'I' for Inactive)
    1  A    between atoms: N_1  and  C_34
    2  A    between atoms: N_1  and  C_35
    3  A    between atoms: C_2  and  N_6
    4  A    between atoms: C_2  and  C_7
    5  A    between atoms: C_2  and  C_13
    6  A    between atoms: C_3  and  N_4
    7  A    between atoms: C_3  and  C_12
    8  A    between atoms: N_6  and  C_12
    9  A    between atoms: N_11  and  C_14
   10  A    between atoms: C_14  and  C_22
                            x       y       z     vdW  Elec       q    Type
                         _______ _______ _______ _____ _____    ______ ____

>  <TORSDO>
F 10

$$$$
=
 OpenBabel11052416043D

 43 49  0  0  1  0  0  0  0  0999 V2000
  187.3750  177.9550  147.1120 C   0  0  0  0  0  0  0  0  0  0  0  0
  184.0390  178.7030  143.3710 C   0  0  0  0  0  0  0  0  0  0  0  0
  185.4120  178.2480  140.9570 C   0  0  0  0  0  0  0  0  0  0  0  0
  185.3770  178.4560  145.8330 C   0  0  0  0  0  0  0  0  0  0  0  0
  188.0850  177.7340  145.9290 C   0  0  0  0  0  3  0  0  0  0  0  0
  188.1800  177.7760  148.6580 Cl  0  0  0  0  0  0  0  0  0  0  0  0
  186.0870  178.2300  144.6280 C   0  0  0  0  0  0  0  0  0  0  0  0
  186.0250  178.3170  147.0640 C   0  0  0  0  0  3  0  0  0  0  0  0
  187.4460  177.8710  144.6940 C   0  0  0  0  0  3  0  0  0  0  0  0
  186.0880  178.1470  142.1790 C   0  0  0  0  0  3  0  0  0  0  0  0
  185.4170  178.3590  143.3920 C   0  0  0  0  0  0  0  0  0  0  0  0
  183.3630  178.9300  144.5770 C   0  0  0  0  0  3  0  0  0  0  0  0
  183.3580  178.8120  142.1430 C   0  0  0  0  0  0  0  0  0  0  0  0
  184.0550  178.5820  140.9480 C   0  0  0  0  0  3  0  0  0  0  0  0
  184.0280  178.8100  145.7980 C   0  0  0  0  0  3  0  0  0  0  0  0
  181.9680  179.1710  142.1150 N   0  0  0  0  0  2  0  0  0  0  0  0
  179.6110  180.6500  140.9220 C   0  0  0  0  0  2  0  0  0  0  0  0
  180.1450  180.7190  139.4910 C   0  0  1  0  0  0  0  0  0  0  0  0
  179.1320  180.9920  138.5580 O   0  0  0  0  0  0  0  0  0  0  0  0
  181.4690  178.6620  139.7920 C   0  0  0  0  0  3  0  0  0  0  0  0
  179.6110  179.1980  141.4090 C   0  0  0  0  0  2  0  0  0  0  0  0
  180.9940  178.5520  141.2220 C   0  0  2  0  0  3  0  0  0  0  0  0
  180.0880  182.0070  138.7800 C   0  0  0  0  0  2  0  0  0  0  0  0
  181.0990  179.6750  138.9930 C   0  0  0  0  0  3  0  0  0  0  0  0
  186.1210  178.0370  139.6450 C   0  0  1  0  0  3  0  0  0  0  0  0
  185.2960  178.6310  138.5070 C   0  0  0  0  0  2  0  0  0  0  0  0
  184.7150  177.5210  137.6500 C   0  0  0  0  0  1  0  0  0  0  0  0
  187.4530  178.6320  139.6570 N   0  0  0  0  0  2  0  0  0  0  0  0
  188.0060  178.4900  138.3180 C   0  0  0  0  0  2  0  0  0  0  0  0
  188.5970  177.0990  138.1700 C   0  0  0  0  0  2  0  0  0  0  0  0
  189.9820  177.1890  137.7330 N   0  0  0  0  0  0  0  0  0  0  0  0
  191.5410  175.3240  137.7910 C   0  0  0  0  0  2  0  0  0  0  0  0
  190.0470  176.5650  136.4180 C   0  0  0  0  0  2  0  0  0  0  0  0
  190.7730  176.3420  138.6270 C   0  0  1  0  0  3  0  0  0  0  0  0
  191.3110  175.7350  136.3620 C   0  0  0  0  0  2  0  0  0  0  0  0
  191.7060  177.2020  139.4840 C   0  0  2  0  0  3  0  0  0  0  0  0
  193.0440  176.8310  139.3000 O   0  0  0  0  0  1  0  0  0  0  0  0
  191.3350  177.1130  140.8940 N   0  0  0  0  0  0  0  0  0  0  0  0
  190.4780  175.4400  143.6000 F   0  0  0  0  0  0  0  0  0  0  0  0
  191.4790  177.5120  143.1050 C   0  0  0  0  0  3  0  0  0  0  0  0
  190.2750  176.6370  142.9380 C   0  0  1  0  0  3  0  0  0  0  0  0
  192.0440  177.7530  141.9380 C   0  0  0  0  0  3  0  0  0  0  0  0
  190.2050  176.3820  141.4330 C   0  0  0  0  0  2  0  0  0  0  0  0
  1  6  1  0  0  0  0
  2 11  1  0  0  0  0
  2 12  1  0  0  0  0
  3 10  1  0  0  0  0
  4  8  2  0  0  0  0
  5  1  2  0  0  0  0
  7  9  2  0  0  0  0
  7  4  1  0  0  0  0
  8  1  1  0  0  0  0
  9  5  1  0  0  0  0
 10 11  2  0  0  0  0
 11  7  1  0  0  0  0
 12 15  2  0  0  0  0
 13  2  2  0  0  0  0
 14  3  2  0  0  0  0
 14 13  1  0  0  0  0
 15  4  1  0  0  0  0
 16 13  1  0  0  0  0
 17 21  1  0  0  0  0
 18 23  1  6  0  0  0
 18 17  1  0  0  0  0
 19 23  1  0  0  0  0
 19 18  1  0  0  0  0
 20 22  1  0  0  0  0
 22 21  1  0  0  0  0
 22 16  1  1  0  0  0
 24 18  1  0  0  0  0
 24 20  2  0  0  0  0
 25 26  1  6  0  0  0
 25 28  1  0  0  0  0
 25  3  1  0  0  0  0
 27 26  1  0  0  0  0
 29 28  1  0  0  0  0
 30 29  1  0  0  0  0
 31 30  1  0  0  0  0
 31 34  1  0  0  0  0
 32 34  1  0  0  0  0
 33 31  1  0  0  0  0
 34 36  1  6  0  0  0
 35 33  1  0  0  0  0
 35 32  1  0  0  0  0
 36 37  1  1  0  0  0
 36 38  1  0  0  0  0
 38 43  1  0  0  0  0
 38 42  1  0  0  0  0
 41 40  1  0  0  0  0
 41 39  1  1  0  0  0
 42 40  2  0  0  0  0
 43 41  1  0  0  0  0
M  END
>  <MODEL>
7

>  <REMARK>
 VINA RESULT:      -8.8      3.012      7.878
  Name = 
  10 active torsions:
  status: ('A' for Active; 'I' for Inactive)
    1  A    between atoms: N_1  and  C_34
    2  A    between atoms: N_1  and  C_35
    3  A    between atoms: C_2  and  N_6
    4  A    between atoms: C_2  and  C_7
    5  A    between atoms: C_2  and  C_13
    6  A    between atoms: C_3  and  N_4
    7  A    between atoms: C_3  and  C_12
    8  A    between atoms: N_6  and  C_12
    9  A    between atoms: N_11  and  C_14
   10  A    between atoms: C_14  and  C_22
                            x       y       z     vdW  Elec       q    Type
                         _______ _______ _______ _____ _____    ______ ____

>  <TORSDO>
F 10

$$$$
=
 OpenBabel11052416043D

 43 49  0  0  1  0  0  0  0  0999 V2000
  187.5630  177.6990  147.4640 C   0  0  0  0  0  0  0  0  0  0  0  0
  186.2530  178.6110  142.6540 C   0  0  0  0  0  0  0  0  0  0  0  0
  188.4880  177.9700  141.0690 C   0  0  0  0  0  0  0  0  0  0  0  0
  186.3680  178.3260  145.4500 C   0  0  0  0  0  0  0  0  0  0  0  0
  188.6920  177.3830  146.7030 C   0  0  0  0  0  3  0  0  0  0  0  0
  187.6010  177.5000  149.2040 Cl  0  0  0  0  0  0  0  0  0  0  0  0
  187.5060  178.0060  144.6690 C   0  0  0  0  0  0  0  0  0  0  0  0
  186.4040  178.1710  146.8390 C   0  0  0  0  0  3  0  0  0  0  0  0
  188.6650  177.5360  145.3140 C   0  0  0  0  0  3  0  0  0  0  0  0
  188.5580  177.8500  142.4620 C   0  0  0  0  0  3  0  0  0  0  0  0
  187.4500  178.1530  143.2670 C   0  0  0  0  0  0  0  0  0  0  0  0
  185.1450  178.9300  143.4500 C   0  0  0  0  0  3  0  0  0  0  0  0
  186.1820  178.7400  141.2530 C   0  0  0  0  0  0  0  0  0  0  0  0
  187.3040  178.4160  140.4760 C   0  0  0  0  0  3  0  0  0  0  0  0
  185.2030  178.7910  144.8370 C   0  0  0  0  0  3  0  0  0  0  0  0
  184.9790  179.2120  140.6290 N   0  0  0  0  0  2  0  0  0  0  0  0
  182.1240  178.3500  141.1530 C   0  0  0  0  0  2  0  0  0  0  0  0
  181.4620  179.2910  140.1470 C   0  0  1  0  0  0  0  0  0  0  0  0
  180.1550  178.8910  139.8230 O   0  0  0  0  0  0  0  0  0  0  0  0
  183.4750  179.3300  138.7250 C   0  0  0  0  0  3  0  0  0  0  0  0
  183.2040  177.5170  140.4550 C   0  0  0  0  0  2  0  0  0  0  0  0
  184.1900  178.4170  139.6930 C   0  0  2  0  0  3  0  0  0  0  0  0
  180.2920  180.0750  140.5800 C   0  0  0  0  0  2  0  0  0  0  0  0
  182.2210  179.7570  138.9400 C   0  0  0  0  0  3  0  0  0  0  0  0
  189.6720  177.6610  140.1910 C   0  0  1  0  0  3  0  0  0  0  0  0
  190.7620  176.9760  141.0100 C   0  0  0  0  0  2  0  0  0  0  0  0
  192.1270  177.5020  140.6060 C   0  0  0  0  0  1  0  0  0  0  0  0
  189.2930  176.8180  139.0620 N   0  0  0  0  0  2  0  0  0  0  0  0
  189.7550  177.4800  137.8500 C   0  0  0  0  0  2  0  0  0  0  0  0
  189.5030  176.5690  136.6610 C   0  0  0  0  0  2  0  0  0  0  0  0
  188.2990  176.9870  135.9580 N   0  0  0  0  0  0  0  0  0  0  0  0
  186.0690  176.8800  136.9200 C   0  0  0  0  0  2  0  0  0  0  0  0
  187.9350  178.2920  136.4930 C   0  0  0  0  0  2  0  0  0  0  0  0
  187.2290  176.0700  136.3530 C   0  0  1  0  0  3  0  0  0  0  0  0
  186.4320  178.3190  136.6650 C   0  0  0  0  0  2  0  0  0  0  0  0
  186.8010  175.2110  135.1590 C   0  0  2  0  0  3  0  0  0  0  0  0
  185.5160  175.5590  134.7240 O   0  0  0  0  0  1  0  0  0  0  0  0
  186.8640  173.7930  135.4980 N   0  0  0  0  0  0  0  0  0  0  0  0
  186.8180  170.5890  134.7280 F   0  0  0  0  0  0  0  0  0  0  0  0
  187.6660  171.9260  136.4700 C   0  0  0  0  0  3  0  0  0  0  0  0
  186.4500  171.4880  135.7130 C   0  0  1  0  0  3  0  0  0  0  0  0
  187.8630  173.2220  136.3230 C   0  0  0  0  0  3  0  0  0  0  0  0
  185.9320  172.7710  135.0640 C   0  0  0  0  0  2  0  0  0  0  0  0
  1  6  1  0  0  0  0
  2 11  1  0  0  0  0
  2 12  1  0  0  0  0
  3 10  1  0  0  0  0
  4  8  2  0  0  0  0
  5  1  2  0  0  0  0
  7  9  2  0  0  0  0
  7  4  1  0  0  0  0
  8  1  1  0  0  0  0
  9  5  1  0  0  0  0
 10 11  2  0  0  0  0
 11  7  1  0  0  0  0
 12 15  2  0  0  0  0
 13  2  2  0  0  0  0
 14  3  2  0  0  0  0
 14 13  1  0  0  0  0
 15  4  1  0  0  0  0
 16 13  1  0  0  0  0
 18 24  1  6  0  0  0
 18 23  1  0  0  0  0
 18 17  1  0  0  0  0
 19 18  1  0  0  0  0
 19 23  1  0  0  0  0
 20 24  2  0  0  0  0
 20 22  1  0  0  0  0
 21 17  1  0  0  0  0
 22 21  1  0  0  0  0
 22 16  1  1  0  0  0
 25 26  1  1  0  0  0
 25  3  1  0  0  0  0
 27 26  1  0  0  0  0
 28 25  1  0  0  0  0
 29 28  1  0  0  0  0
 30 29  1  0  0  0  0
 31 34  1  0  0  0  0
 31 33  1  0  0  0  0
 31 30  1  0  0  0  0
 33 35  1  0  0  0  0
 34 36  1  6  0  0  0
 34 32  1  0  0  0  0
 35 32  1  0  0  0  0
 36 37  1  1  0  0  0
 36 38  1  0  0  0  0
 38 42  1  0  0  0  0
 41 39  1  6  0  0  0
 41 40  1  0  0  0  0
 42 40  2  0  0  0  0
 43 38  1  0  0  0  0
 43 41  1  0  0  0  0
M  END
>  <MODEL>
8

>  <REMARK>
 VINA RESULT:      -8.8      2.400      5.881
  Name = 
  10 active torsions:
  status: ('A' for Active; 'I' for Inactive)
    1  A    between atoms: N_1  and  C_34
    2  A    between atoms: N_1  and  C_35
    3  A    between atoms: C_2  and  N_6
    4  A    between atoms: C_2  and  C_7
    5  A    between atoms: C_2  and  C_13
    6  A    between atoms: C_3  and  N_4
    7  A    between atoms: C_3  and  C_12
    8  A    between atoms: N_6  and  C_12
    9  A    between atoms: N_11  and  C_14
   10  A    between atoms: C_14  and  C_22
                            x       y       z     vdW  Elec       q    Type
                         _______ _______ _______ _____ _____    ______ ____

>  <TORSDO>
F 10

$$$$
=
 OpenBabel11052416043D

 43 49  0  0  1  0  0  0  0  0999 V2000
  189.1100  177.8240  136.8330 C   0  0  0  0  0  0  0  0  0  0  0  0
  188.3540  177.5560  141.8370 C   0  0  0  0  0  0  0  0  0  0  0  0
  185.6660  178.2560  142.2890 C   0  0  0  0  0  0  0  0  0  0  0  0
  189.3940  177.5350  139.2230 C   0  0  0  0  0  0  0  0  0  0  0  0
  187.7750  178.1870  137.0290 C   0  0  0  0  0  3  0  0  0  0  0  0
  189.7710  177.7740  135.2110 Cl  0  0  0  0  0  0  0  0  0  0  0  0
  188.0400  177.8980  139.4320 C   0  0  0  0  0  0  0  0  0  0  0  0
  189.9180  177.5010  137.9280 C   0  0  0  0  0  3  0  0  0  0  0  0
  187.2420  178.2250  138.3200 C   0  0  0  0  0  3  0  0  0  0  0  0
  186.1860  178.2710  140.9890 C   0  0  0  0  0  3  0  0  0  0  0  0
  187.5190  177.9130  140.7440 C   0  0  0  0  0  0  0  0  0  0  0  0
  189.6910  177.2100  141.6030 C   0  0  0  0  0  3  0  0  0  0  0  0
  187.8360  177.5480  143.1460 C   0  0  0  0  0  0  0  0  0  0  0  0
  186.4940  177.8990  143.3570 C   0  0  0  0  0  3  0  0  0  0  0  0
  190.2080  177.2020  140.3070 C   0  0  0  0  0  3  0  0  0  0  0  0
  188.6770  177.1980  144.2560 N   0  0  0  0  0  2  0  0  0  0  0  0
  189.7150  176.5950  147.0360 C   0  0  0  0  0  2  0  0  0  0  0  0
  191.2020  176.6070  146.6800 C   0  0  1  0  0  0  0  0  0  0  0  0
  192.0190  176.7580  147.8130 O   0  0  0  0  0  0  0  0  0  0  0  0
  190.8340  178.1700  144.8100 C   0  0  0  0  0  3  0  0  0  0  0  0
  189.0610  177.9040  146.5820 C   0  0  0  0  0  2  0  0  0  0  0  0
  189.3510  178.1820  145.0980 C   0  0  2  0  0  3  0  0  0  0  0  0
  192.0510  175.5050  147.1640 C   0  0  0  0  0  2  0  0  0  0  0  0
  191.6930  177.4250  145.5230 C   0  0  0  0  0  3  0  0  0  0  0  0
  184.2410  178.6510  142.5720 C   0  0  1  0  0  3  0  0  0  0  0  0
  184.1910  179.6140  143.7540 C   0  0  0  0  0  2  0  0  0  0  0  0
  183.4300  178.9870  144.9070 C   0  0  0  0  0  1  0  0  0  0  0  0
  183.6150  179.2620  141.4050 N   0  0  0  0  0  2  0  0  0  0  0  0
  182.4650  178.4450  141.0470 C   0  0  0  0  0  2  0  0  0  0  0  0
  182.9240  177.3060  140.1540 C   0  0  0  0  0  2  0  0  0  0  0  0
  181.9120  177.0230  139.1460 N   0  0  0  0  0  0  0  0  0  0  0  0
  180.7890  174.8790  138.9260 C   0  0  0  0  0  2  0  0  0  0  0  0
  180.6230  177.0750  139.8230 C   0  0  0  0  0  2  0  0  0  0  0  0
  182.0980  175.6340  138.7260 C   0  0  1  0  0  3  0  0  0  0  0  0
  179.7810  175.9320  139.3020 C   0  0  0  0  0  2  0  0  0  0  0  0
  182.5760  175.5800  137.2720 C   0  0  2  0  0  3  0  0  0  0  0  0
  181.6480  174.9150  136.4610 O   0  0  0  0  0  1  0  0  0  0  0  0
  183.8860  174.9420  137.1870 N   0  0  0  0  0  0  0  0  0  0  0  0
  187.1570  174.8960  137.5860 F   0  0  0  0  0  0  0  0  0  0  0  0
  185.4210  173.3140  137.4390 C   0  0  0  0  0  3  0  0  0  0  0  0
  186.1440  174.4380  136.7630 C   0  0  1  0  0  3  0  0  0  0  0  0
  184.1620  173.6370  137.6580 C   0  0  0  0  0  3  0  0  0  0  0  0
  185.0820  175.5260  136.6090 C   0  0  0  0  0  2  0  0  0  0  0  0
  1  5  2  0  0  0  0
  1  8  1  0  0  0  0
  2 13  1  0  0  0  0
  3 25  1  0  0  0  0
  3 14  1  0  0  0  0
  4  7  1  0  0  0  0
  4 15  1  0  0  0  0
  5  9  1  0  0  0  0
  6  1  1  0  0  0  0
  7 11  1  0  0  0  0
  8  4  2  0  0  0  0
  9  7  2  0  0  0  0
 10  3  2  0  0  0  0
 11 10  1  0  0  0  0
 11  2  2  0  0  0  0
 12  2  1  0  0  0  0
 13 14  2  0  0  0  0
 13 16  1  0  0  0  0
 15 12  2  0  0  0  0
 18 24  1  6  0  0  0
 18 17  1  0  0  0  0
 18 23  1  0  0  0  0
 18 19  1  0  0  0  0
 20 22  1  0  0  0  0
 20 24  2  0  0  0  0
 21 17  1  0  0  0  0
 22 16  1  6  0  0  0
 22 21  1  0  0  0  0
 23 19  1  0  0  0  0
 25 26  1  1  0  0  0
 26 27  1  0  0  0  0
 28 25  1  0  0  0  0
 29 28  1  0  0  0  0
 30 29  1  0  0  0  0
 31 33  1  0  0  0  0
 31 30  1  0  0  0  0
 32 35  1  0  0  0  0
 34 36  1  6  0  0  0
 34 32  1  0  0  0  0
 34 31  1  0  0  0  0
 35 33  1  0  0  0  0
 36 37  1  6  0  0  0
 38 36  1  0  0  0  0
 38 42  1  0  0  0  0
 40 42  2  0  0  0  0
 41 40  1  0  0  0  0
 41 39  1  1  0  0  0
 43 41  1  0  0  0  0
 43 38  1  0  0  0  0
M  END
>  <MODEL>
9

>  <REMARK>
 VINA RESULT:      -8.8      3.097      5.782
  Name = 
  10 active torsions:
  status: ('A' for Active; 'I' for Inactive)
    1  A    between atoms: N_1  and  C_34
    2  A    between atoms: N_1  and  C_35
    3  A    between atoms: C_2  and  N_6
    4  A    between atoms: C_2  and  C_7
    5  A    between atoms: C_2  and  C_13
    6  A    between atoms: C_3  and  N_4
    7  A    between atoms: C_3  and  C_12
    8  A    between atoms: N_6  and  C_12
    9  A    between atoms: N_11  and  C_14
   10  A    between atoms: C_14  and  C_22
                            x       y       z     vdW  Elec       q    Type
                         _______ _______ _______ _____ _____    ______ ____

>  <TORSDO>
F 10

$$$$
