=
 OpenBabel11052412193D

 30 32  0  0  1  0  0  0  0  0999 V2000
  183.8030  178.4270  140.6670 C   0  0  0  0  0  0  0  0  0  0  0  0
  185.2340  178.6230  138.5610 C   0  0  2  0  0  3  0  0  0  0  0  0
  182.4150  177.9390  140.8900 C   0  0  1  0  0  3  0  0  0  0  0  0
  184.6130  178.7150  141.6870 C   0  0  0  0  0  3  0  0  0  0  0  0
  182.1890  179.0800  144.3820 N   0  0  0  0  0  2  0  0  0  0  0  0
  182.6910  178.7830  143.2260 C   0  0  0  0  0  0  0  0  0  0  0  0
  184.1660  178.4490  143.0950 C   0  0  2  0  0  3  0  0  0  0  0  0
  181.8280  178.5810  142.0780 N   0  0  0  0  0  0  0  0  0  0  0  0
  185.0010  177.4080  137.6650 C   0  0  0  0  0  2  0  0  0  0  0  0
  186.3430  178.4120  139.3820 O   0  0  0  0  0  1  0  0  0  0  0  0
  181.5050  178.7100  136.4520 C   0  0  0  0  0  1  0  0  0  0  0  0
  183.6850  177.4830  136.8670 C   0  0  0  0  0  2  0  0  0  0  0  0
  184.0260  178.8990  139.3470 N   0  0  0  0  0  0  0  0  0  0  0  0
  181.6980  178.2830  139.5720 C   0  0  1  0  0  3  0  0  0  0  0  0
  182.8370  178.7200  137.1780 C   0  0  2  0  0  3  0  0  0  0  0  0
  182.7330  179.0300  138.6860 C   0  0  2  0  0  3  0  0  0  0  0  0
  179.6870  177.8390  143.0550 C   0  0  0  0  0  1  0  0  0  0  0  0
  180.3830  178.8250  142.1280 C   0  0  1  0  0  3  0  0  0  0  0  0
  180.0870  180.2700  142.5120 C   0  0  0  0  0  2  0  0  0  0  0  0
  179.3140  180.9800  141.4140 C   0  0  0  0  0  2  0  0  0  0  0  0
  180.1670  181.3110  140.3600 O   0  0  0  0  0  1  0  0  0  0  0  0
  185.0410  179.2590  144.0470 C   0  0  0  0  0  2  0  0  0  0  0  0
  185.0890  178.5010  146.4240 C   0  0  0  0  0  1  0  0  0  0  0  0
  185.7360  178.3590  145.0590 C   0  0  0  0  0  2  0  0  0  0  0  0
  180.9680  177.0800  138.9390 C   0  0  1  0  0  3  0  0  0  0  0  0
  182.4990  175.2550  139.1450 O   0  0  0  0  0  0  0  0  0  0  0  0
  181.3740  175.7240  139.4550 C   0  0  0  0  0  0  0  0  0  0  0  0
  180.4700  174.9270  140.2160 N   0  0  0  0  0  1  0  0  0  0  0  0
  179.4850  177.2680  139.0140 C   0  0  0  0  0  3  0  0  0  0  0  0
  178.9310  178.4490  138.7530 C   0  0  0  0  0  2  0  0  0  0  0  0
  1  4  2  0  0  0  0
  2 13  1  0  0  0  0
  2 10  1  1  0  0  0
  3  1  1  6  0  0  0
  3  8  1  0  0  0  0
  4  7  1  0  0  0  0
  6  5  2  0  0  0  0
  7  6  1  0  0  0  0
  7 22  1  1  0  0  0
  8 18  1  0  0  0  0
  8  6  1  0  0  0  0
  9  2  1  0  0  0  0
 12 15  1  0  0  0  0
 12  9  1  0  0  0  0
 13  1  1  0  0  0  0
 14 25  1  6  0  0  0
 14  3  1  0  0  0  0
 15 11  1  1  0  0  0
 15 16  1  0  0  0  0
 16 13  1  1  0  0  0
 16 14  1  0  0  0  0
 18 19  1  0  0  0  0
 18 17  1  1  0  0  0
 20 19  1  0  0  0  0
 21 20  1  0  0  0  0
 22 24  1  0  0  0  0
 24 23  1  0  0  0  0
 25 29  1  1  0  0  0
 25 27  1  0  0  0  0
 26 27  2  0  0  0  0
 27 28  1  0  0  0  0
 30 29  2  0  0  0  0
M  END
>  <MODEL>
1

>  <REMARK>
 VINA RESULT:      -5.4      0.000      0.000
  Name = 
  8 active torsions:
  status: ('A' for Active; 'I' for Inactive)
    1  A    between atoms: C_7  and  C_16
    2  A    between atoms: C_7  and  C_30
    3  A    between atoms: C_9  and  C_12
    4  A    between atoms: C_9  and  C_21
    5  A    between atoms: C_10  and  C_25
    6  A    between atoms: C_11  and  C_25
    7  A    between atoms: N_13  and  C_30
    8  A    between atoms: C_23  and  C_25
                            x       y       z     vdW  Elec       q    Type
                         _______ _______ _______ _____ _____    ______ ____

>  <TORSDO>
F 8

$$$$
=
 OpenBabel11052412193D

 30 32  0  0  1  0  0  0  0  0999 V2000
  186.0560  178.0900  139.3250 C   0  0  0  0  0  0  0  0  0  0  0  0
  188.5060  178.2440  138.6190 C   0  0  2  0  0  3  0  0  0  0  0  0
  184.8620  177.4950  138.6670 C   0  0  1  0  0  3  0  0  0  0  0  0
  186.0100  178.5350  140.5820 C   0  0  0  0  0  3  0  0  0  0  0  0
  182.4130  178.8940  141.0310 N   0  0  0  0  0  2  0  0  0  0  0  0
  183.5480  178.5510  140.5110 C   0  0  0  0  0  0  0  0  0  0  0  0
  184.7640  178.3450  141.3970 C   0  0  2  0  0  3  0  0  0  0  0  0
  183.6350  178.1750  139.1140 N   0  0  0  0  0  0  0  0  0  0  0  0
  188.9280  176.9420  137.9400 C   0  0  0  0  0  2  0  0  0  0  0  0
  188.8250  178.2050  139.9780 O   0  0  0  0  0  1  0  0  0  0  0  0
  187.0220  177.8100  134.6220 C   0  0  0  0  0  1  0  0  0  0  0  0
  188.4390  176.8290  136.4830 C   0  0  0  0  0  2  0  0  0  0  0  0
  187.0710  178.4700  138.4090 N   0  0  0  0  0  0  0  0  0  0  0  0
  185.1610  177.6610  137.1660 C   0  0  1  0  0  3  0  0  0  0  0  0
  187.5690  178.0030  136.0250 C   0  0  2  0  0  3  0  0  0  0  0  0
  186.5100  178.4260  137.0640 C   0  0  2  0  0  3  0  0  0  0  0  0
  181.4220  177.2590  138.5220 C   0  0  0  0  0  1  0  0  0  0  0  0
  182.4960  178.2880  138.1970 C   0  0  1  0  0  3  0  0  0  0  0  0
  181.9390  179.7060  138.1900 C   0  0  0  0  0  2  0  0  0  0  0  0
  180.7060  179.8050  137.3080 C   0  0  0  0  0  2  0  0  0  0  0  0
  181.0730  179.7770  135.9620 O   0  0  0  0  0  1  0  0  0  0  0  0
  184.8030  179.3090  142.5800 C   0  0  0  0  0  2  0  0  0  0  0  0
  183.3870  178.9230  144.5980 C   0  0  0  0  0  1  0  0  0  0  0  0
  184.6870  178.5650  143.9020 C   0  0  0  0  0  2  0  0  0  0  0  0
  185.0340  176.3470  136.3670 C   0  0  1  0  0  3  0  0  0  0  0  0
  186.3020  174.5610  137.3250 O   0  0  0  0  0  0  0  0  0  0  0  0
  185.1660  175.0790  137.1690 C   0  0  0  0  0  0  0  0  0  0  0  0
  184.0170  174.4100  137.6800 N   0  0  0  0  0  1  0  0  0  0  0  0
  183.7770  176.3470  135.5540 C   0  0  0  0  0  3  0  0  0  0  0  0
  183.4860  177.3610  134.7430 C   0  0  0  0  0  2  0  0  0  0  0  0
  1  4  2  0  0  0  0
  2 10  1  1  0  0  0
  3  8  1  0  0  0  0
  3  1  1  1  0  0  0
  4  7  1  0  0  0  0
  6  5  2  0  0  0  0
  6  7  1  0  0  0  0
  7 22  1  1  0  0  0
  8  6  1  0  0  0  0
  9  2  1  0  0  0  0
 12  9  1  0  0  0  0
 13  2  1  0  0  0  0
 13  1  1  0  0  0  0
 14 25  1  1  0  0  0
 14  3  1  0  0  0  0
 15 11  1  6  0  0  0
 15 12  1  0  0  0  0
 15 16  1  0  0  0  0
 16 14  1  0  0  0  0
 16 13  1  1  0  0  0
 18 17  1  1  0  0  0
 18  8  1  0  0  0  0
 19 18  1  0  0  0  0
 20 19  1  0  0  0  0
 21 20  1  0  0  0  0
 22 24  1  0  0  0  0
 24 23  1  0  0  0  0
 25 29  1  1  0  0  0
 25 27  1  0  0  0  0
 27 26  2  0  0  0  0
 27 28  1  0  0  0  0
 30 29  2  0  0  0  0
M  END
>  <MODEL>
2

>  <REMARK>
 VINA RESULT:      -4.5      2.496      4.033
  Name = 
  8 active torsions:
  status: ('A' for Active; 'I' for Inactive)
    1  A    between atoms: C_7  and  C_16
    2  A    between atoms: C_7  and  C_30
    3  A    between atoms: C_9  and  C_12
    4  A    between atoms: C_9  and  C_21
    5  A    between atoms: C_10  and  C_25
    6  A    between atoms: C_11  and  C_25
    7  A    between atoms: N_13  and  C_30
    8  A    between atoms: C_23  and  C_25
                            x       y       z     vdW  Elec       q    Type
                         _______ _______ _______ _____ _____    ______ ____

>  <TORSDO>
F 8

$$$$
=
 OpenBabel11052412193D

 30 32  0  0  1  0  0  0  0  0999 V2000
  184.8610  177.7620  137.9100 C   0  0  0  0  0  0  0  0  0  0  0  0
  183.5680  179.2180  139.5630 C   0  0  2  0  0  3  0  0  0  0  0  0
  184.4430  176.6420  137.0250 C   0  0  1  0  0  3  0  0  0  0  0  0
  186.0780  178.3020  137.8230 C   0  0  0  0  0  3  0  0  0  0  0  0
  187.8530  175.6630  136.0460 N   0  0  0  0  0  2  0  0  0  0  0  0
  186.8780  176.3510  136.5500 C   0  0  0  0  0  0  0  0  0  0  0  0
  187.0210  177.8490  136.7470 C   0  0  2  0  0  3  0  0  0  0  0  0
  185.5780  175.7440  136.7590 N   0  0  0  0  0  0  0  0  0  0  0  0
  182.1890  179.5440  138.9920 C   0  0  0  0  0  2  0  0  0  0  0  0
  184.4700  180.2390  139.2590 O   0  0  0  0  0  1  0  0  0  0  0  0
  180.7980  175.9530  139.7380 C   0  0  0  0  0  1  0  0  0  0  0  0
  181.1860  178.3810  139.1180 C   0  0  0  0  0  2  0  0  0  0  0  0
  184.0250  177.9230  139.0460 N   0  0  0  0  0  0  0  0  0  0  0  0
  183.2900  175.9830  137.8030 C   0  0  1  0  0  3  0  0  0  0  0  0
  181.7830  177.1060  139.7230 C   0  0  2  0  0  3  0  0  0  0  0  0
  183.1700  176.7460  139.1510 C   0  0  2  0  0  3  0  0  0  0  0  0
  185.3600  173.9700  135.0580 C   0  0  0  0  0  1  0  0  0  0  0  0
  185.3340  174.3140  136.5400 C   0  0  1  0  0  3  0  0  0  0  0  0
  186.3160  173.4650  137.3370 C   0  0  0  0  0  2  0  0  0  0  0  0
  186.7860  172.2680  136.5280 C   0  0  0  0  0  2  0  0  0  0  0  0
  188.1800  172.2140  136.5110 O   0  0  0  0  0  1  0  0  0  0  0  0
  188.4390  178.2610  137.1350 C   0  0  0  0  0  2  0  0  0  0  0  0
  189.7360  177.3950  139.0830 C   0  0  0  0  0  1  0  0  0  0  0  0
  188.6050  178.3080  138.6470 C   0  0  0  0  0  2  0  0  0  0  0  0
  182.0010  175.8200  136.9690 C   0  0  1  0  0  3  0  0  0  0  0  0
  182.3170  176.0690  134.6130 O   0  0  0  0  0  0  0  0  0  0  0  0
  181.9490  176.6090  135.6880 C   0  0  0  0  0  0  0  0  0  0  0  0
  181.5730  177.9840  135.6860 N   0  0  0  0  0  1  0  0  0  0  0  0
  181.7130  174.3710  136.7280 C   0  0  0  0  0  3  0  0  0  0  0  0
  180.4620  173.9230  136.6650 C   0  0  0  0  0  2  0  0  0  0  0  0
  1 13  1  0  0  0  0
  2 10  1  6  0  0  0
  3 14  1  0  0  0  0
  3  1  1  1  0  0  0
  4  1  2  0  0  0  0
  5  6  2  0  0  0  0
  6  7  1  0  0  0  0
  6  8  1  0  0  0  0
  7 22  1  1  0  0  0
  7  4  1  0  0  0  0
  8  3  1  0  0  0  0
  9 12  1  0  0  0  0
  9  2  1  0  0  0  0
 12 15  1  0  0  0  0
 13  2  1  0  0  0  0
 14 25  1  6  0  0  0
 14 16  1  0  0  0  0
 15 11  1  6  0  0  0
 16 13  1  6  0  0  0
 16 15  1  0  0  0  0
 18 17  1  6  0  0  0
 18  8  1  0  0  0  0
 18 19  1  0  0  0  0
 20 19  1  0  0  0  0
 21 20  1  0  0  0  0
 22 24  1  0  0  0  0
 24 23  1  0  0  0  0
 25 29  1  6  0  0  0
 26 27  2  0  0  0  0
 27 25  1  0  0  0  0
 28 27  1  0  0  0  0
 30 29  2  0  0  0  0
M  END
>  <MODEL>
3

>  <REMARK>
 VINA RESULT:      -4.4      3.408      6.670
  Name = 
  8 active torsions:
  status: ('A' for Active; 'I' for Inactive)
    1  A    between atoms: C_7  and  C_16
    2  A    between atoms: C_7  and  C_30
    3  A    between atoms: C_9  and  C_12
    4  A    between atoms: C_9  and  C_21
    5  A    between atoms: C_10  and  C_25
    6  A    between atoms: C_11  and  C_25
    7  A    between atoms: N_13  and  C_30
    8  A    between atoms: C_23  and  C_25
                            x       y       z     vdW  Elec       q    Type
                         _______ _______ _______ _____ _____    ______ ____

>  <TORSDO>
F 8

$$$$
=
 OpenBabel11052412193D

 30 32  0  0  1  0  0  0  0  0999 V2000
  183.3740  178.8050  141.2010 C   0  0  0  0  0  0  0  0  0  0  0  0
  181.3470  178.6620  142.7470 C   0  0  2  0  0  3  0  0  0  0  0  0
  183.5020  179.0750  139.7430 C   0  0  1  0  0  3  0  0  0  0  0  0
  184.4450  178.7470  141.9950 C   0  0  0  0  0  3  0  0  0  0  0  0
  187.0780  178.2280  139.5320 N   0  0  0  0  0  2  0  0  0  0  0  0
  185.9160  178.5000  140.0360 C   0  0  0  0  0  0  0  0  0  0  0  0
  185.8040  179.0600  141.4420 C   0  0  2  0  0  3  0  0  0  0  0  0
  184.7260  178.4540  139.2100 N   0  0  0  0  0  0  0  0  0  0  0  0
  180.3310  179.7380  142.3650 C   0  0  0  0  0  2  0  0  0  0  0  0
  182.1810  179.1260  143.7660 O   0  0  0  0  0  1  0  0  0  0  0  0
  179.1300  177.7740  139.1890 C   0  0  0  0  0  1  0  0  0  0  0  0
  179.4990  179.3760  141.1200 C   0  0  0  0  0  2  0  0  0  0  0  0
  182.1140  178.2620  141.5620 N   0  0  0  0  0  0  0  0  0  0  0  0
  182.2000  178.5030  139.1570 C   0  0  1  0  0  3  0  0  0  0  0  0
  179.8990  178.0480  140.4680 C   0  0  2  0  0  3  0  0  0  0  0  0
  181.4250  177.8610  140.3410 C   0  0  2  0  0  3  0  0  0  0  0  0
  186.0070  178.4440  137.1010 C   0  0  0  0  0  1  0  0  0  0  0  0
  184.7500  177.9800  137.8220 C   0  0  1  0  0  3  0  0  0  0  0  0
  184.5870  176.4660  137.7600 C   0  0  0  0  0  2  0  0  0  0  0  0
  185.5000  175.8610  136.7070 C   0  0  0  0  0  2  0  0  0  0  0  0
  186.1130  174.7100  137.2050 O   0  0  0  0  0  1  0  0  0  0  0  0
  186.8590  178.4930  142.3890 C   0  0  0  0  0  2  0  0  0  0  0  0
  187.2700  177.2430  144.5090 C   0  0  0  0  0  1  0  0  0  0  0  0
  186.2190  177.9090  143.6410 C   0  0  0  0  0  2  0  0  0  0  0  0
  181.4300  179.5080  138.2750 C   0  0  1  0  0  3  0  0  0  0  0  0
  182.8640  181.3940  138.5920 O   0  0  0  0  0  0  0  0  0  0  0  0
  181.6830  180.9630  138.5700 C   0  0  0  0  0  0  0  0  0  0  0  0
  180.6130  181.8400  138.9110 N   0  0  0  0  0  1  0  0  0  0  0  0
  181.6430  179.2020  136.8250 C   0  0  0  0  0  3  0  0  0  0  0  0
  181.4630  177.9720  136.3500 C   0  0  0  0  0  2  0  0  0  0  0  0
  1 13  1  0  0  0  0
  1  4  2  0  0  0  0
  2 10  1  1  0  0  0
  3  1  1  1  0  0  0
  5  6  2  0  0  0  0
  6  7  1  0  0  0  0
  7  4  1  0  0  0  0
  7 22  1  1  0  0  0
  8  3  1  0  0  0  0
  8  6  1  0  0  0  0
  9  2  1  0  0  0  0
 12  9  1  0  0  0  0
 13  2  1  0  0  0  0
 14 25  1  1  0  0  0
 14  3  1  0  0  0  0
 14 16  1  0  0  0  0
 15 11  1  6  0  0  0
 15 12  1  0  0  0  0
 16 15  1  0  0  0  0
 16 13  1  1  0  0  0
 18 17  1  1  0  0  0
 18  8  1  0  0  0  0
 19 18  1  0  0  0  0
 20 21  1  0  0  0  0
 20 19  1  0  0  0  0
 22 24  1  0  0  0  0
 24 23  1  0  0  0  0
 25 29  1  6  0  0  0
 25 27  1  0  0  0  0
 27 26  2  0  0  0  0
 27 28  1  0  0  0  0
 30 29  2  0  0  0  0
M  END
>  <MODEL>
4

>  <REMARK>
 VINA RESULT:      -4.3      2.012      5.219
  Name = 
  8 active torsions:
  status: ('A' for Active; 'I' for Inactive)
    1  A    between atoms: C_7  and  C_16
    2  A    between atoms: C_7  and  C_30
    3  A    between atoms: C_9  and  C_12
    4  A    between atoms: C_9  and  C_21
    5  A    between atoms: C_10  and  C_25
    6  A    between atoms: C_11  and  C_25
    7  A    between atoms: N_13  and  C_30
    8  A    between atoms: C_23  and  C_25
                            x       y       z     vdW  Elec       q    Type
                         _______ _______ _______ _____ _____    ______ ____

>  <TORSDO>
F 8

$$$$
=
 OpenBabel11052412193D

 30 32  0  0  1  0  0  0  0  0999 V2000
  185.5400  177.6330  137.8430 C   0  0  0  0  0  0  0  0  0  0  0  0
  185.0720  176.2380  135.7550 C   0  0  2  0  0  3  0  0  0  0  0  0
  186.8040  178.0000  138.5370 C   0  0  1  0  0  3  0  0  0  0  0  0
  184.3720  178.1800  138.1860 C   0  0  0  0  0  3  0  0  0  0  0  0
  185.1770  179.4470  141.5040 N   0  0  0  0  0  2  0  0  0  0  0  0
  185.3320  178.9520  140.3180 C   0  0  0  0  0  0  0  0  0  0  0  0
  184.3300  179.2650  139.2220 C   0  0  2  0  0  3  0  0  0  0  0  0
  186.5520  178.2520  139.9650 N   0  0  0  0  0  0  0  0  0  0  0  0
  186.1390  176.5210  134.6980 C   0  0  0  0  0  2  0  0  0  0  0  0
  183.9580  177.0540  135.5470 O   0  0  0  0  0  1  0  0  0  0  0  0
  188.8540  174.3910  136.5640 C   0  0  0  0  0  1  0  0  0  0  0  0
  187.4730  175.8000  134.9700 C   0  0  0  0  0  2  0  0  0  0  0  0
  185.6390  176.4310  137.0950 N   0  0  0  0  0  0  0  0  0  0  0  0
  187.7240  176.7980  138.2640 C   0  0  1  0  0  3  0  0  0  0  0  0
  187.4950  175.0030  136.2780 C   0  0  2  0  0  3  0  0  0  0  0  0
  186.8790  175.7620  137.4710 C   0  0  2  0  0  3  0  0  0  0  0  0
  188.5950  179.1020  141.0570 C   0  0  0  0  0  1  0  0  0  0  0  0
  187.6000  177.9550  140.9480 C   0  0  1  0  0  3  0  0  0  0  0  0
  186.9950  177.5980  142.3000 C   0  0  0  0  0  2  0  0  0  0  0  0
  188.0740  177.1930  143.2910 C   0  0  0  0  0  2  0  0  0  0  0  0
  188.3020  175.8180  143.2190 O   0  0  0  0  0  1  0  0  0  0  0  0
  182.9010  179.3850  139.7450 C   0  0  0  0  0  2  0  0  0  0  0  0
  181.8390  181.2170  138.4250 C   0  0  0  0  0  1  0  0  0  0  0  0
  181.9290  179.7150  138.6210 C   0  0  0  0  0  2  0  0  0  0  0  0
  189.0910  177.1950  137.6680 C   0  0  1  0  0  3  0  0  0  0  0  0
  189.2820  178.4830  135.6620 O   0  0  0  0  0  0  0  0  0  0  0  0
  189.1200  178.4960  136.9100 C   0  0  0  0  0  0  0  0  0  0  0  0
  189.0560  179.7450  137.5930 N   0  0  0  0  0  1  0  0  0  0  0  0
  190.1540  177.1560  138.7220 C   0  0  0  0  0  3  0  0  0  0  0  0
  191.3120  176.5390  138.5040 C   0  0  0  0  0  2  0  0  0  0  0  0
  1  4  2  0  0  0  0
  2 10  1  6  0  0  0
  2 13  1  0  0  0  0
  3  1  1  6  0  0  0
  3  8  1  0  0  0  0
  4  7  1  0  0  0  0
  6  5  2  0  0  0  0
  7 22  1  1  0  0  0
  7  6  1  0  0  0  0
  8  6  1  0  0  0  0
  8 18  1  0  0  0  0
  9 12  1  0  0  0  0
  9  2  1  0  0  0  0
 12 15  1  0  0  0  0
 13  1  1  0  0  0  0
 14 25  1  6  0  0  0
 14  3  1  0  0  0  0
 15 11  1  1  0  0  0
 15 16  1  0  0  0  0
 16 13  1  6  0  0  0
 16 14  1  0  0  0  0
 18 17  1  1  0  0  0
 18 19  1  0  0  0  0
 19 20  1  0  0  0  0
 21 20  1  0  0  0  0
 23 24  1  0  0  0  0
 24 22  1  0  0  0  0
 25 29  1  1  0  0  0
 26 27  2  0  0  0  0
 27 28  1  0  0  0  0
 27 25  1  0  0  0  0
 30 29  2  0  0  0  0
M  END
>  <MODEL>
5

>  <REMARK>
 VINA RESULT:      -4.2      3.526      7.131
  Name = 
  8 active torsions:
  status: ('A' for Active; 'I' for Inactive)
    1  A    between atoms: C_7  and  C_16
    2  A    between atoms: C_7  and  C_30
    3  A    between atoms: C_9  and  C_12
    4  A    between atoms: C_9  and  C_21
    5  A    between atoms: C_10  and  C_25
    6  A    between atoms: C_11  and  C_25
    7  A    between atoms: N_13  and  C_30
    8  A    between atoms: C_23  and  C_25
                            x       y       z     vdW  Elec       q    Type
                         _______ _______ _______ _____ _____    ______ ____

>  <TORSDO>
F 8

$$$$
=
 OpenBabel11052412193D

 30 32  0  0  1  0  0  0  0  0999 V2000
  183.7110  173.8600  137.1160 C   0  0  0  0  0  0  0  0  0  0  0  0
  181.5630  172.5750  136.6080 C   0  0  2  0  0  3  0  0  0  0  0  0
  183.9590  175.2630  137.5440 C   0  0  1  0  0  3  0  0  0  0  0  0
  184.6920  172.9560  137.0880 C   0  0  0  0  0  3  0  0  0  0  0  0
  187.6090  175.1370  137.0950 N   0  0  0  0  0  2  0  0  0  0  0  0
  186.3780  174.7480  137.1930 C   0  0  0  0  0  0  0  0  0  0  0  0
  186.0580  173.3190  137.5940 C   0  0  2  0  0  3  0  0  0  0  0  0
  185.2940  175.7060  137.1100 N   0  0  0  0  0  0  0  0  0  0  0  0
  180.4770  172.9730  137.6070 C   0  0  0  0  0  2  0  0  0  0  0  0
  182.2280  171.4300  137.0500 O   0  0  0  0  0  1  0  0  0  0  0  0
  179.8440  176.4300  135.8620 C   0  0  0  0  0  1  0  0  0  0  0  0
  179.8260  174.3340  137.2890 C   0  0  0  0  0  2  0  0  0  0  0  0
  182.4900  173.6950  136.4120 N   0  0  0  0  0  0  0  0  0  0  0  0
  182.7980  176.0430  136.9030 C   0  0  1  0  0  3  0  0  0  0  0  0
  180.4390  175.0510  136.0830 C   0  0  2  0  0  3  0  0  0  0  0  0
  181.9820  175.0180  136.0670 C   0  0  2  0  0  3  0  0  0  0  0  0
  186.1050  177.8720  137.9670 C   0  0  0  0  0  1  0  0  0  0  0  0
  185.5160  177.1190  136.7840 C   0  0  1  0  0  3  0  0  0  0  0  0
  186.3770  177.2610  135.5340 C   0  0  0  0  0  2  0  0  0  0  0  0
  187.4130  178.3600  135.7070 C   0  0  0  0  0  2  0  0  0  0  0  0
  188.6830  177.8800  135.3870 O   0  0  0  0  0  1  0  0  0  0  0  0
  187.0650  172.3120  137.0460 C   0  0  0  0  0  2  0  0  0  0  0  0
  187.3850  170.5240  135.3350 C   0  0  0  0  0  1  0  0  0  0  0  0
  186.6480  171.8060  135.6720 C   0  0  0  0  0  2  0  0  0  0  0  0
  182.0150  176.9150  137.9070 C   0  0  1  0  0  3  0  0  0  0  0  0
  181.4650  175.6280  139.8460 O   0  0  0  0  0  0  0  0  0  0  0  0
  182.1760  176.5440  139.3580 C   0  0  0  0  0  0  0  0  0  0  0  0
  183.0580  177.2720  140.2090 N   0  0  0  0  0  1  0  0  0  0  0  0
  182.3080  178.3660  137.6820 C   0  0  0  0  0  3  0  0  0  0  0  0
  181.3360  179.2740  137.7120 C   0  0  0  0  0  2  0  0  0  0  0  0
  2 10  1  1  0  0  0
  2  9  1  0  0  0  0
  3  1  1  6  0  0  0
  4  1  2  0  0  0  0
  4  7  1  0  0  0  0
  5  6  2  0  0  0  0
  6  7  1  0  0  0  0
  7 22  1  6  0  0  0
  8  6  1  0  0  0  0
  8  3  1  0  0  0  0
 12  9  1  0  0  0  0
 13  2  1  0  0  0  0
 13  1  1  0  0  0  0
 14  3  1  0  0  0  0
 14 25  1  1  0  0  0
 15 11  1  1  0  0  0
 15 12  1  0  0  0  0
 16 15  1  0  0  0  0
 16 13  1  1  0  0  0
 16 14  1  0  0  0  0
 18  8  1  0  0  0  0
 18 17  1  1  0  0  0
 19 20  1  0  0  0  0
 19 18  1  0  0  0  0
 21 20  1  0  0  0  0
 23 24  1  0  0  0  0
 24 22  1  0  0  0  0
 25 29  1  1  0  0  0
 25 27  1  0  0  0  0
 27 26  2  0  0  0  0
 27 28  1  0  0  0  0
 29 30  2  0  0  0  0
M  END
>  <MODEL>
6

>  <REMARK>
 VINA RESULT:      -3.9      3.814      7.232
  Name = 
  8 active torsions:
  status: ('A' for Active; 'I' for Inactive)
    1  A    between atoms: C_7  and  C_16
    2  A    between atoms: C_7  and  C_30
    3  A    between atoms: C_9  and  C_12
    4  A    between atoms: C_9  and  C_21
    5  A    between atoms: C_10  and  C_25
    6  A    between atoms: C_11  and  C_25
    7  A    between atoms: N_13  and  C_30
    8  A    between atoms: C_23  and  C_25
                            x       y       z     vdW  Elec       q    Type
                         _______ _______ _______ _____ _____    ______ ____

>  <TORSDO>
F 8

$$$$
=
 OpenBabel11052412193D

 30 32  0  0  1  0  0  0  0  0999 V2000
  188.2190  177.8770  141.6790 C   0  0  0  0  0  0  0  0  0  0  0  0
  190.2000  177.0060  140.3220 C   0  0  2  0  0  3  0  0  0  0  0  0
  188.0410  178.1370  143.1330 C   0  0  1  0  0  3  0  0  0  0  0  0
  187.3030  178.2550  140.7860 C   0  0  0  0  0  3  0  0  0  0  0  0
  184.4120  178.7230  142.9510 N   0  0  0  0  0  2  0  0  0  0  0  0
  185.6390  178.5410  142.5780 C   0  0  0  0  0  0  0  0  0  0  0  0
  186.1110  179.0510  141.2290 C   0  0  2  0  0  3  0  0  0  0  0  0
  186.6230  178.0200  143.5070 N   0  0  0  0  0  0  0  0  0  0  0  0
  191.4990  177.5980  140.8680 C   0  0  0  0  0  2  0  0  0  0  0  0
  189.7240  177.7800  139.2640 O   0  0  0  0  0  1  0  0  0  0  0  0
  191.5020  175.2420  144.0050 C   0  0  0  0  0  1  0  0  0  0  0  0
  191.9860  176.9130  142.1600 C   0  0  0  0  0  2  0  0  0  0  0  0
  189.2110  176.9000  141.4010 N   0  0  0  0  0  0  0  0  0  0  0  0
  188.9550  177.0940  143.7980 C   0  0  1  0  0  3  0  0  0  0  0  0
  191.0430  175.8240  142.6810 C   0  0  2  0  0  3  0  0  0  0  0  0
  189.5560  176.2340  142.6520 C   0  0  2  0  0  3  0  0  0  0  0  0
  186.9860  176.2610  145.1980 C   0  0  0  0  0  1  0  0  0  0  0  0
  186.2650  177.5560  144.8520 C   0  0  1  0  0  3  0  0  0  0  0  0
  186.5200  178.6420  145.8900 C   0  0  0  0  0  2  0  0  0  0  0  0
  185.4500  178.6290  146.9680 C   0  0  0  0  0  2  0  0  0  0  0  0
  184.1810  178.6280  146.3880 O   0  0  0  0  0  1  0  0  0  0  0  0
  185.0340  178.9580  140.1520 C   0  0  0  0  0  2  0  0  0  0  0  0
  184.4950  177.8220  137.9960 C   0  0  0  0  0  1  0  0  0  0  0  0
  185.6020  178.4140  138.8490 C   0  0  0  0  0  2  0  0  0  0  0  0
  189.9450  177.7030  144.8140 C   0  0  1  0  0  3  0  0  0  0  0  0
  190.1380  179.7240  143.5520 O   0  0  0  0  0  0  0  0  0  0  0  0
  190.6950  178.9210  144.3440 C   0  0  0  0  0  0  0  0  0  0  0  0
  192.0560  179.1330  144.7120 N   0  0  0  0  0  1  0  0  0  0  0  0
  189.2630  177.9550  146.1230 C   0  0  0  0  0  3  0  0  0  0  0  0
  189.7450  177.4500  147.2550 C   0  0  0  0  0  2  0  0  0  0  0  0
  2 10  1  6  0  0  0
  2  9  1  0  0  0  0
  2 13  1  0  0  0  0
  3  1  1  6  0  0  0
  3  8  1  0  0  0  0
  3 14  1  0  0  0  0
  4  7  1  0  0  0  0
  4  1  2  0  0  0  0
  6  5  2  0  0  0  0
  6  8  1  0  0  0  0
  7 22  1  6  0  0  0
  7  6  1  0  0  0  0
  8 18  1  0  0  0  0
  9 12  1  0  0  0  0
 12 15  1  0  0  0  0
 13  1  1  0  0  0  0
 14 25  1  6  0  0  0
 15 11  1  1  0  0  0
 16 13  1  6  0  0  0
 16 15  1  0  0  0  0
 16 14  1  0  0  0  0
 18 17  1  1  0  0  0
 18 19  1  0  0  0  0
 19 20  1  0  0  0  0
 21 20  1  0  0  0  0
 23 24  1  0  0  0  0
 24 22  1  0  0  0  0
 25 29  1  1  0  0  0
 26 27  2  0  0  0  0
 27 28  1  0  0  0  0
 27 25  1  0  0  0  0
 29 30  2  0  0  0  0
M  END
>  <MODEL>
7

>  <REMARK>
 VINA RESULT:      -3.9      4.585      8.208
  Name = 
  8 active torsions:
  status: ('A' for Active; 'I' for Inactive)
    1  A    between atoms: C_7  and  C_16
    2  A    between atoms: C_7  and  C_30
    3  A    between atoms: C_9  and  C_12
    4  A    between atoms: C_9  and  C_21
    5  A    between atoms: C_10  and  C_25
    6  A    between atoms: C_11  and  C_25
    7  A    between atoms: N_13  and  C_30
    8  A    between atoms: C_23  and  C_25
                            x       y       z     vdW  Elec       q    Type
                         _______ _______ _______ _____ _____    ______ ____

>  <TORSDO>
F 8

$$$$
=
 OpenBabel11052412193D

 30 32  0  0  1  0  0  0  0  0999 V2000
  183.6960  176.8490  136.7520 C   0  0  0  0  0  0  0  0  0  0  0  0
  183.5610  175.4870  134.5960 C   0  0  2  0  0  3  0  0  0  0  0  0
  182.6980  177.1310  137.8200 C   0  0  1  0  0  3  0  0  0  0  0  0
  184.9770  177.1930  136.8870 C   0  0  0  0  0  3  0  0  0  0  0  0
  184.7270  179.6720  139.5440 N   0  0  0  0  0  2  0  0  0  0  0  0
  184.3990  178.7190  138.7320 C   0  0  0  0  0  0  0  0  0  0  0  0
  185.4610  177.7860  138.1790 C   0  0  2  0  0  3  0  0  0  0  0  0
  183.0040  178.4070  138.4850 N   0  0  0  0  0  0  0  0  0  0  0  0
  182.7430  174.2190  134.8380 C   0  0  0  0  0  2  0  0  0  0  0  0
  184.9220  175.2220  134.7630 O   0  0  0  0  0  1  0  0  0  0  0  0
  179.3370  176.1660  134.8380 C   0  0  0  0  0  1  0  0  0  0  0  0
  181.2220  174.4710  134.8610 C   0  0  0  0  0  2  0  0  0  0  0  0
  183.1040  176.5510  135.4960 N   0  0  0  0  0  0  0  0  0  0  0  0
  181.3560  177.1200  137.0680 C   0  0  1  0  0  3  0  0  0  0  0  0
  180.8320  175.9440  134.7090 C   0  0  2  0  0  3  0  0  0  0  0  0
  181.6900  176.8980  135.5660 C   0  0  2  0  0  3  0  0  0  0  0  0
  181.7600  179.0180  140.5270 C   0  0  0  0  0  1  0  0  0  0  0  0
  181.9100  179.2210  139.0260 C   0  0  1  0  0  3  0  0  0  0  0  0
  182.0950  180.6910  138.6680 C   0  0  0  0  0  2  0  0  0  0  0  0
  180.9520  181.1890  137.7990 C   0  0  0  0  0  2  0  0  0  0  0  0
  181.0670  180.6710  136.5080 O   0  0  0  0  0  1  0  0  0  0  0  0
  186.7910  178.4890  137.9250 C   0  0  0  0  0  2  0  0  0  0  0  0
  188.1810  178.2160  139.9800 C   0  0  0  0  0  1  0  0  0  0  0  0
  187.9460  177.7310  138.5620 C   0  0  0  0  0  2  0  0  0  0  0  0
  180.3050  176.1830  137.7010 C   0  0  1  0  0  3  0  0  0  0  0  0
  181.3500  174.0910  138.1970 O   0  0  0  0  0  0  0  0  0  0  0  0
  180.8430  175.1480  138.6530 C   0  0  0  0  0  0  0  0  0  0  0  0
  180.7090  175.3060  140.0630 N   0  0  0  0  0  1  0  0  0  0  0  0
  179.2040  176.9790  138.3280 C   0  0  0  0  0  3  0  0  0  0  0  0
  178.9360  178.2170  137.9210 C   0  0  0  0  0  2  0  0  0  0  0  0
  1  4  2  0  0  0  0
  2 10  1  1  0  0  0
  2  9  1  0  0  0  0
  2 13  1  0  0  0  0
  3  1  1  6  0  0  0
  3  8  1  0  0  0  0
  4  7  1  0  0  0  0
  6  5  2  0  0  0  0
  7 22  1  6  0  0  0
  7  6  1  0  0  0  0
  8  6  1  0  0  0  0
  8 18  1  0  0  0  0
  9 12  1  0  0  0  0
 13  1  1  0  0  0  0
 14 25  1  1  0  0  0
 14  3  1  0  0  0  0
 15 11  1  1  0  0  0
 15 12  1  0  0  0  0
 15 16  1  0  0  0  0
 16 13  1  1  0  0  0
 16 14  1  0  0  0  0
 18 17  1  1  0  0  0
 19 18  1  0  0  0  0
 20 19  1  0  0  0  0
 21 20  1  0  0  0  0
 22 24  1  0  0  0  0
 24 23  1  0  0  0  0
 25 29  1  1  0  0  0
 25 27  1  0  0  0  0
 26 27  2  0  0  0  0
 27 28  1  0  0  0  0
 30 29  2  0  0  0  0
M  END
>  <MODEL>
8

>  <REMARK>
 VINA RESULT:      -3.6      3.090      4.288
  Name = 
  8 active torsions:
  status: ('A' for Active; 'I' for Inactive)
    1  A    between atoms: C_7  and  C_16
    2  A    between atoms: C_7  and  C_30
    3  A    between atoms: C_9  and  C_12
    4  A    between atoms: C_9  and  C_21
    5  A    between atoms: C_10  and  C_25
    6  A    between atoms: C_11  and  C_25
    7  A    between atoms: N_13  and  C_30
    8  A    between atoms: C_23  and  C_25
                            x       y       z     vdW  Elec       q    Type
                         _______ _______ _______ _____ _____    ______ ____

>  <TORSDO>
F 8

$$$$
=
 OpenBabel11052412193D

 30 32  0  0  1  0  0  0  0  0999 V2000
  185.2170  176.1840  137.2710 C   0  0  0  0  0  0  0  0  0  0  0  0
  184.4410  174.0150  136.1690 C   0  0  2  0  0  3  0  0  0  0  0  0
  186.5460  176.8480  137.3440 C   0  0  1  0  0  3  0  0  0  0  0  0
  184.1100  176.7930  137.6980 C   0  0  0  0  0  3  0  0  0  0  0  0
  185.5470  179.3850  139.8150 N   0  0  0  0  0  2  0  0  0  0  0  0
  185.4620  178.4330  138.9420 C   0  0  0  0  0  0  0  0  0  0  0  0
  184.1730  178.2170  138.1690 C   0  0  2  0  0  3  0  0  0  0  0  0
  186.6400  177.6830  138.5520 N   0  0  0  0  0  0  0  0  0  0  0  0
  185.1390  173.8440  134.8200 C   0  0  0  0  0  2  0  0  0  0  0  0
  183.2000  174.6310  135.9950 O   0  0  0  0  0  1  0  0  0  0  0  0
  188.5390  172.7980  136.4760 C   0  0  0  0  0  1  0  0  0  0  0  0
  186.5920  173.3470  134.9450 C   0  0  0  0  0  2  0  0  0  0  0  0
  185.3000  174.7800  137.0790 N   0  0  0  0  0  0  0  0  0  0  0  0
  187.5370  175.6700  137.3150 C   0  0  1  0  0  3  0  0  0  0  0  0
  187.0750  173.1900  136.3910 C   0  0  2  0  0  3  0  0  0  0  0  0
  186.6830  174.3720  137.3010 C   0  0  2  0  0  3  0  0  0  0  0  0
  188.7960  178.8780  138.4590 C   0  0  0  0  0  1  0  0  0  0  0  0
  187.9400  177.8660  139.2060 C   0  0  1  0  0  3  0  0  0  0  0  0
  187.7650  178.2430  140.6730 C   0  0  0  0  0  2  0  0  0  0  0  0
  188.6180  177.3600  141.5690 C   0  0  0  0  0  2  0  0  0  0  0  0
  188.5250  177.7870  142.8940 O   0  0  0  0  0  1  0  0  0  0  0  0
  182.9290  178.5120  139.0020 C   0  0  0  0  0  2  0  0  0  0  0  0
  180.9950  177.4690  140.1850 C   0  0  0  0  0  1  0  0  0  0  0  0
  182.0110  177.3000  139.0710 C   0  0  0  0  0  2  0  0  0  0  0  0
  188.6240  175.8090  136.2290 C   0  0  1  0  0  3  0  0  0  0  0  0
  187.2960  176.9390  134.5940 O   0  0  0  0  0  0  0  0  0  0  0  0
  188.3930  176.8920  135.2080 C   0  0  0  0  0  0  0  0  0  0  0  0
  189.4270  177.8090  134.8620 N   0  0  0  0  0  1  0  0  0  0  0  0
  189.9780  175.9340  136.8560 C   0  0  0  0  0  3  0  0  0  0  0  0
  191.0170  175.2480  136.3860 C   0  0  0  0  0  2  0  0  0  0  0  0
  1  4  2  0  0  0  0
  2 10  1  6  0  0  0
  2 13  1  0  0  0  0
  3  1  1  1  0  0  0
  3  8  1  0  0  0  0
  4  7  1  0  0  0  0
  6  5  2  0  0  0  0
  7  6  1  0  0  0  0
  7 22  1  1  0  0  0
  8  6  1  0  0  0  0
  8 18  1  0  0  0  0
  9 12  1  0  0  0  0
  9  2  1  0  0  0  0
 12 15  1  0  0  0  0
 13  1  1  0  0  0  0
 14 25  1  6  0  0  0
 14  3  1  0  0  0  0
 15 11  1  6  0  0  0
 15 16  1  0  0  0  0
 16 13  1  6  0  0  0
 16 14  1  0  0  0  0
 18 17  1  6  0  0  0
 18 19  1  0  0  0  0
 19 20  1  0  0  0  0
 20 21  1  0  0  0  0
 22 24  1  0  0  0  0
 24 23  1  0  0  0  0
 25 29  1  1  0  0  0
 26 27  2  0  0  0  0
 27 25  1  0  0  0  0
 28 27  1  0  0  0  0
 30 29  2  0  0  0  0
M  END
>  <MODEL>
9

>  <REMARK>
 VINA RESULT:      -3.5      3.856      7.500
  Name = 
  8 active torsions:
  status: ('A' for Active; 'I' for Inactive)
    1  A    between atoms: C_7  and  C_16
    2  A    between atoms: C_7  and  C_30
    3  A    between atoms: C_9  and  C_12
    4  A    between atoms: C_9  and  C_21
    5  A    between atoms: C_10  and  C_25
    6  A    between atoms: C_11  and  C_25
    7  A    between atoms: N_13  and  C_30
    8  A    between atoms: C_23  and  C_25
                            x       y       z     vdW  Elec       q    Type
                         _______ _______ _______ _____ _____    ______ ____

>  <TORSDO>
F 8

$$$$
