=
 OpenBabel11052412293D

 30 33  0  0  1  0  0  0  0  0999 V2000
  188.0010  178.6340  141.5380 C   0  0  0  0  0  2  0  0  0  0  0  0
  189.6440  177.1410  142.7360 C   0  0  2  0  0  3  0  0  0  0  0  0
  188.8720  176.6750  137.4050 S   0  0  0  0  0  0  0  0  0  0  0  0
  186.9930  178.7450  140.3810 C   0  0  1  0  0  3  0  0  0  0  0  0
  187.4540  177.6340  136.7530 C   0  0  1  0  0  3  0  0  0  0  0  0
  191.0050  177.7870  142.4580 C   0  0  0  0  0  2  0  0  0  0  0  0
  189.8210  175.6800  143.1070 C   0  0  0  0  0  1  0  0  0  0  0  0
  188.5190  177.2860  139.0430 C   0  0  2  0  0  3  0  0  0  0  0  0
  191.4870  177.4170  141.0550 C   0  0  0  0  0  2  0  0  0  0  0  0
  188.6940  177.2700  141.5410 C   0  0  2  0  0  3  0  0  0  0  0  0
  187.4850  178.1130  139.1020 C   0  0  0  0  0  0  0  0  0  0  0  0
  186.4930  176.7290  136.1480 N   0  0  0  0  0  1  0  0  0  0  0  0
  186.8310  178.3310  137.8640 N   0  0  0  0  0  0  0  0  0  0  0  0
  190.5580  177.8700  140.1050 O   0  0  0  0  0  0  0  0  0  0  0  0
  189.4330  177.0310  140.2070 C   0  0  2  0  0  3  0  0  0  0  0  0
  185.5780  178.2610  140.7350 C   0  0  2  0  0  3  0  0  0  0  0  0
  183.0610  176.8230  139.9960 C   0  0  0  0  0  2  0  0  0  0  0  0
  184.6280  180.1120  139.5490 O   0  0  0  0  0  0  0  0  0  0  0  0
  184.4930  178.9170  139.9280 C   0  0  0  0  0  0  0  0  0  0  0  0
  182.2110  178.7700  138.8400 C   0  0  0  0  0  2  0  0  0  0  0  0
  183.3000  178.1950  139.6010 N   0  0  0  0  0  0  0  0  0  0  0  0
  181.7530  176.4310  139.3350 C   0  0  0  0  0  2  0  0  0  0  0  0
  181.1170  177.7210  138.8370 C   0  0  0  0  0  2  0  0  0  0  0  0
  185.2770  178.1590  142.2070 C   0  0  0  0  0  2  0  0  0  0  0  0
  184.4820  179.3040  143.0250 S   0  0  0  0  0  0  0  0  0  0  0  0
  184.5880  178.7500  144.7340 C   0  0  0  0  0  2  0  0  0  0  0  0
  185.9690  178.1820  145.0010 C   0  0  0  0  0  2  0  0  0  0  0  0
  185.6760  179.3650  147.1730 O   0  0  0  0  0  1  0  0  0  0  0  0
  186.3410  178.4040  146.4230 C   0  0  0  0  0  0  0  0  0  0  0  0
  187.2370  177.6990  146.9560 O   0  0  0  0  0  0  0  0  0  0  0  0
  2  7  1  6  0  0  0
  4 16  1  1  0  0  0
  4  1  1  0  0  0  0
  5 12  1  1  0  0  0
  5  3  1  0  0  0  0
  5 13  1  0  0  0  0
  6  2  1  0  0  0  0
  8  3  1  6  0  0  0
  8 11  1  0  0  0  0
  8 15  1  0  0  0  0
  9  6  1  0  0  0  0
 10  1  1  6  0  0  0
 10  2  1  0  0  0  0
 11  4  1  0  0  0  0
 13 11  2  0  0  0  0
 14  9  1  0  0  0  0
 15 14  1  6  0  0  0
 15 10  1  0  0  0  0
 16 24  1  1  0  0  0
 18 19  2  0  0  0  0
 19 16  1  0  0  0  0
 20 21  1  0  0  0  0
 21 19  1  0  0  0  0
 21 17  1  0  0  0  0
 22 17  1  0  0  0  0
 23 20  1  0  0  0  0
 23 22  1  0  0  0  0
 24 25  1  0  0  0  0
 25 26  1  0  0  0  0
 26 27  1  0  0  0  0
 27 29  1  0  0  0  0
 29 30  2  0  0  0  0
 29 28  1  0  0  0  0
M  END
>  <MODEL>
1

>  <REMARK>
 VINA RESULT:      -7.2      0.000      0.000
  Name = 
  6 active torsions:
  status: ('A' for Active; 'I' for Inactive)
    1  A    between atoms: C_4  and  C_13
    2  A    between atoms: C_7  and  C_15
    3  A    between atoms: C_7  and  C_16
    4  A    between atoms: C_8  and  C_13
    5  A    between atoms: C_13  and  C_27
    6  A    between atoms: C_16  and  S_30
                            x       y       z     vdW  Elec       q    Type
                         _______ _______ _______ _____ _____    ______ ____

>  <TORSDO>
F 6

$$$$
=
 OpenBabel11052412293D

 30 33  0  0  1  0  0  0  0  0999 V2000
  188.8120  178.6200  140.5950 C   0  0  0  0  0  2  0  0  0  0  0  0
  189.3400  177.5920  142.8370 C   0  0  2  0  0  3  0  0  0  0  0  0
  191.6740  175.7300  138.3280 S   0  0  0  0  0  0  0  0  0  0  0  0
  188.6500  178.3670  139.0860 C   0  0  1  0  0  3  0  0  0  0  0  0
  190.9720  176.3980  136.7740 C   0  0  1  0  0  3  0  0  0  0  0  0
  190.6750  178.2300  143.2340 C   0  0  0  0  0  2  0  0  0  0  0  0
  189.1360  176.2880  143.5870 C   0  0  0  0  0  1  0  0  0  0  0  0
  190.5170  176.7160  139.2630 C   0  0  2  0  0  3  0  0  0  0  0  0
  191.8260  177.5470  142.4990 C   0  0  0  0  0  2  0  0  0  0  0  0
  189.2480  177.3500  141.3270 C   0  0  2  0  0  3  0  0  0  0  0  0
  189.7150  177.4630  138.5170 C   0  0  0  0  0  0  0  0  0  0  0  0
  190.4390  175.3090  135.9750 N   0  0  0  0  0  1  0  0  0  0  0  0
  189.8990  177.3150  137.1200 N   0  0  0  0  0  0  0  0  0  0  0  0
  191.6450  177.6810  141.1130 O   0  0  0  0  0  0  0  0  0  0  0  0
  190.5850  176.8260  140.7580 C   0  0  2  0  0  3  0  0  0  0  0  0
  187.2440  177.9010  138.6760 C   0  0  2  0  0  3  0  0  0  0  0  0
  185.9160  175.9320  136.8570 C   0  0  0  0  0  2  0  0  0  0  0  0
  187.1250  179.3980  136.8120 O   0  0  0  0  0  0  0  0  0  0  0  0
  186.8780  178.2460  137.2600 C   0  0  0  0  0  0  0  0  0  0  0  0
  185.8460  177.5470  135.0570 C   0  0  0  0  0  2  0  0  0  0  0  0
  186.2370  177.2770  136.4240 N   0  0  0  0  0  0  0  0  0  0  0  0
  185.3730  175.2280  135.6280 C   0  0  0  0  0  2  0  0  0  0  0  0
  185.0990  176.3110  134.5940 C   0  0  0  0  0  2  0  0  0  0  0  0
  186.1540  178.1710  139.6800 C   0  0  0  0  0  2  0  0  0  0  0  0
  184.6780  178.6790  139.2620 S   0  0  0  0  0  0  0  0  0  0  0  0
  183.8850  179.0150  140.8410 C   0  0  0  0  0  2  0  0  0  0  0  0
  184.9290  179.0350  141.9410 C   0  0  0  0  0  2  0  0  0  0  0  0
  182.9830  179.2540  143.4800 O   0  0  0  0  0  0  0  0  0  0  0  0
  184.2800  178.8100  143.2600 C   0  0  0  0  0  0  0  0  0  0  0  0
  184.8940  178.1890  144.1660 O   0  0  0  0  0  1  0  0  0  0  0  0
  2  6  1  0  0  0  0
  2  7  1  1  0  0  0
  4 16  1  1  0  0  0
  4  1  1  0  0  0  0
  5 12  1  6  0  0  0
  5 13  1  0  0  0  0
  5  3  1  0  0  0  0
  8  3  1  6  0  0  0
  8 15  1  0  0  0  0
  9  6  1  0  0  0  0
 10  1  1  6  0  0  0
 10  2  1  0  0  0  0
 11  4  1  0  0  0  0
 11  8  1  0  0  0  0
 13 11  2  0  0  0  0
 14  9  1  0  0  0  0
 15 14  1  6  0  0  0
 15 10  1  0  0  0  0
 16 24  1  1  0  0  0
 18 19  2  0  0  0  0
 19 16  1  0  0  0  0
 20 21  1  0  0  0  0
 21 17  1  0  0  0  0
 21 19  1  0  0  0  0
 22 17  1  0  0  0  0
 23 20  1  0  0  0  0
 23 22  1  0  0  0  0
 25 24  1  0  0  0  0
 25 26  1  0  0  0  0
 26 27  1  0  0  0  0
 27 29  1  0  0  0  0
 29 28  2  0  0  0  0
 29 30  1  0  0  0  0
M  END
>  <MODEL>
2

>  <REMARK>
 VINA RESULT:      -6.5      2.352      3.370
  Name = 
  6 active torsions:
  status: ('A' for Active; 'I' for Inactive)
    1  A    between atoms: C_4  and  C_13
    2  A    between atoms: C_7  and  C_15
    3  A    between atoms: C_7  and  C_16
    4  A    between atoms: C_8  and  C_13
    5  A    between atoms: C_13  and  C_27
    6  A    between atoms: C_16  and  S_30
                            x       y       z     vdW  Elec       q    Type
                         _______ _______ _______ _____ _____    ______ ____

>  <TORSDO>
F 6

$$$$
=
 OpenBabel11052412293D

 30 33  0  0  1  0  0  0  0  0999 V2000
  185.9490  178.8040  138.2810 C   0  0  0  0  0  2  0  0  0  0  0  0
  188.3930  178.3320  138.6890 C   0  0  2  0  0  3  0  0  0  0  0  0
  185.3470  174.8720  135.8620 S   0  0  0  0  0  0  0  0  0  0  0  0
  184.5490  178.1940  138.0980 C   0  0  1  0  0  3  0  0  0  0  0  0
  183.5510  175.2280  135.9020 C   0  0  1  0  0  3  0  0  0  0  0  0
  189.0770  178.7560  137.3860 C   0  0  0  0  0  2  0  0  0  0  0  0
  189.2700  177.3530  139.4490 C   0  0  0  0  0  1  0  0  0  0  0  0
  185.6430  176.2950  136.8970 C   0  0  2  0  0  3  0  0  0  0  0  0
  188.9060  177.6710  136.3230 C   0  0  0  0  0  2  0  0  0  0  0  0
  187.0130  177.7160  138.4370 C   0  0  2  0  0  3  0  0  0  0  0  0
  184.5470  176.9650  137.2230 C   0  0  0  0  0  0  0  0  0  0  0  0
  182.8460  174.1030  136.4880 N   0  0  0  0  0  1  0  0  0  0  0  0
  183.3430  176.4100  136.7210 N   0  0  0  0  0  0  0  0  0  0  0  0
  187.5400  177.4620  136.0800 O   0  0  0  0  0  0  0  0  0  0  0  0
  187.0270  176.7870  137.2040 C   0  0  2  0  0  3  0  0  0  0  0  0
  183.7980  177.9430  139.4150 C   0  0  2  0  0  3  0  0  0  0  0  0
  181.6920  175.8430  139.7420 C   0  0  0  0  0  2  0  0  0  0  0  0
  181.9610  179.4570  139.1580 O   0  0  0  0  0  0  0  0  0  0  0  0
  182.3320  178.2680  139.3490 C   0  0  0  0  0  0  0  0  0  0  0  0
  179.9300  177.4790  139.4790 C   0  0  0  0  0  2  0  0  0  0  0  0
  181.3560  177.2340  139.5170 N   0  0  0  0  0  0  0  0  0  0  0  0
  180.3710  175.0980  139.7330 C   0  0  0  0  0  2  0  0  0  0  0  0
  179.2780  176.1540  139.8240 C   0  0  0  0  0  2  0  0  0  0  0  0
  184.4860  178.4420  140.6580 C   0  0  0  0  0  2  0  0  0  0  0  0
  183.7770  178.4570  142.1110 S   0  0  0  0  0  0  0  0  0  0  0  0
  184.9670  179.3190  143.1500 C   0  0  0  0  0  2  0  0  0  0  0  0
  185.3670  178.4290  144.3110 C   0  0  0  0  0  2  0  0  0  0  0  0
  185.6540  179.3980  146.5880 O   0  0  0  0  0  1  0  0  0  0  0  0
  184.8040  178.9660  145.5780 C   0  0  0  0  0  0  0  0  0  0  0  0
  183.5570  179.0580  145.7240 O   0  0  0  0  0  0  0  0  0  0  0  0
  2  7  1  6  0  0  0
  3  5  1  0  0  0  0
  4  1  1  0  0  0  0
  4 16  1  1  0  0  0
  5 12  1  1  0  0  0
  5 13  1  0  0  0  0
  6  2  1  0  0  0  0
  8  3  1  6  0  0  0
  8 15  1  0  0  0  0
  8 11  1  0  0  0  0
  9  6  1  0  0  0  0
 10  1  1  6  0  0  0
 10  2  1  0  0  0  0
 11  4  1  0  0  0  0
 13 11  2  0  0  0  0
 14  9  1  0  0  0  0
 15 14  1  6  0  0  0
 15 10  1  0  0  0  0
 16 24  1  1  0  0  0
 18 19  2  0  0  0  0
 19 16  1  0  0  0  0
 19 21  1  0  0  0  0
 20 21  1  0  0  0  0
 20 23  1  0  0  0  0
 21 17  1  0  0  0  0
 22 17  1  0  0  0  0
 22 23  1  0  0  0  0
 24 25  1  0  0  0  0
 25 26  1  0  0  0  0
 26 27  1  0  0  0  0
 27 29  1  0  0  0  0
 29 30  2  0  0  0  0
 29 28  1  0  0  0  0
M  END
>  <MODEL>
3

>  <REMARK>
 VINA RESULT:      -6.0      2.406      3.429
  Name = 
  6 active torsions:
  status: ('A' for Active; 'I' for Inactive)
    1  A    between atoms: C_4  and  C_13
    2  A    between atoms: C_7  and  C_15
    3  A    between atoms: C_7  and  C_16
    4  A    between atoms: C_8  and  C_13
    5  A    between atoms: C_13  and  C_27
    6  A    between atoms: C_16  and  S_30
                            x       y       z     vdW  Elec       q    Type
                         _______ _______ _______ _____ _____    ______ ____

>  <TORSDO>
F 6

$$$$
=
 OpenBabel11052412293D

 30 33  0  0  1  0  0  0  0  0999 V2000
  188.3460  178.2550  138.0630 C   0  0  0  0  0  2  0  0  0  0  0  0
  190.0820  176.7210  137.0660 C   0  0  2  0  0  3  0  0  0  0  0  0
  184.8210  175.5130  136.7430 S   0  0  0  0  0  0  0  0  0  0  0  0
  186.9720  178.3440  138.7510 C   0  0  1  0  0  3  0  0  0  0  0  0
  183.7300  176.5810  137.7550 C   0  0  1  0  0  3  0  0  0  0  0  0
  190.0690  177.0660  135.5730 C   0  0  0  0  0  2  0  0  0  0  0  0
  190.6600  175.3340  137.2810 C   0  0  0  0  0  1  0  0  0  0  0  0
  186.2360  176.4410  137.3080 C   0  0  0  0  0  0  0  0  0  0  0  0
  188.8830  176.3900  134.8860 C   0  0  0  0  0  2  0  0  0  0  0  0
  188.6840  176.8120  137.6860 C   0  0  2  0  0  3  0  0  0  0  0  0
  185.9390  177.4330  138.1360 C   0  0  0  0  0  0  0  0  0  0  0  0
  183.0230  175.7690  138.7280 N   0  0  0  0  0  1  0  0  0  0  0  0
  184.5620  177.5520  138.4460 N   0  0  0  0  0  2  0  0  0  0  0  0
  187.6860  176.8320  135.4720 O   0  0  0  0  0  0  0  0  0  0  0  0
  187.6100  176.2290  136.7420 C   0  0  2  0  0  3  0  0  0  0  0  0
  187.0240  178.1800  140.2780 C   0  0  2  0  0  3  0  0  0  0  0  0
  186.5390  177.8160  143.2080 C   0  0  0  0  0  2  0  0  0  0  0  0
  185.2250  179.7560  140.3820 O   0  0  0  0  0  0  0  0  0  0  0  0
  185.9490  178.9350  141.0070 C   0  0  0  0  0  0  0  0  0  0  0  0
  184.7470  179.4400  143.1770 C   0  0  0  0  0  2  0  0  0  0  0  0
  185.7530  178.7370  142.4120 N   0  0  0  0  0  0  0  0  0  0  0  0
  185.9130  177.8350  144.5890 C   0  0  0  0  0  2  0  0  0  0  0  0
  184.9710  179.0310  144.6200 C   0  0  0  0  0  2  0  0  0  0  0  0
  188.3920  178.3000  140.8960 C   0  0  0  0  0  2  0  0  0  0  0  0
  189.2350  177.0260  141.4230 S   0  0  0  0  0  0  0  0  0  0  0  0
  190.6650  177.7690  142.2230 C   0  0  0  0  0  2  0  0  0  0  0  0
  190.2430  178.4080  143.5320 C   0  0  0  0  0  2  0  0  0  0  0  0
  191.6570  177.0620  145.0790 O   0  0  0  0  0  0  0  0  0  0  0  0
  190.3910  177.4300  144.6420 C   0  0  0  0  0  0  0  0  0  0  0  0
  189.3700  176.9600  145.2070 O   0  0  0  0  0  1  0  0  0  0  0  0
  1  4  1  0  0  0  0
  2  7  1  6  0  0  0
  2 10  1  0  0  0  0
  3  8  1  0  0  0  0
  3  5  1  0  0  0  0
  4 16  1  1  0  0  0
  5 13  1  0  0  0  0
  5 12  1  1  0  0  0
  6  2  1  0  0  0  0
  8 11  2  0  0  0  0
  9 14  1  0  0  0  0
  9  6  1  0  0  0  0
 10  1  1  6  0  0  0
 11 13  1  0  0  0  0
 11  4  1  0  0  0  0
 15 14  1  6  0  0  0
 15  8  1  0  0  0  0
 15 10  1  0  0  0  0
 16 24  1  1  0  0  0
 16 19  1  0  0  0  0
 17 22  1  0  0  0  0
 18 19  2  0  0  0  0
 19 21  1  0  0  0  0
 20 23  1  0  0  0  0
 21 20  1  0  0  0  0
 21 17  1  0  0  0  0
 22 23  1  0  0  0  0
 24 25  1  0  0  0  0
 25 26  1  0  0  0  0
 26 27  1  0  0  0  0
 27 29  1  0  0  0  0
 29 28  2  0  0  0  0
 29 30  1  0  0  0  0
M  END
>  <MODEL>
4

>  <REMARK>
 VINA RESULT:      -5.8      2.513      4.687
  Name = 
  6 active torsions:
  status: ('A' for Active; 'I' for Inactive)
    1  A    between atoms: C_4  and  C_13
    2  A    between atoms: C_7  and  C_15
    3  A    between atoms: C_7  and  C_16
    4  A    between atoms: C_8  and  C_13
    5  A    between atoms: C_13  and  C_27
    6  A    between atoms: C_16  and  S_30
                            x       y       z     vdW  Elec       q    Type
                         _______ _______ _______ _____ _____    ______ ____

>  <TORSDO>
F 6

$$$$
=
 OpenBabel11052412293D

 30 33  0  0  1  0  0  0  0  0999 V2000
  188.9350  176.6240  143.2500 C   0  0  0  0  0  2  0  0  0  0  0  0
  191.2010  177.5680  143.8280 C   0  0  2  0  0  3  0  0  0  0  0  0
  186.9450  178.4410  147.0470 S   0  0  0  0  0  0  0  0  0  0  0  0
  187.4120  176.8360  143.3220 C   0  0  1  0  0  3  0  0  0  0  0  0
  185.3350  177.9280  146.3400 C   0  0  1  0  0  3  0  0  0  0  0  0
  191.7570  176.5910  144.8690 C   0  0  0  0  0  2  0  0  0  0  0  0
  191.8990  178.9110  143.9410 C   0  0  0  0  0  1  0  0  0  0  0  0
  187.7640  177.8820  145.5640 C   0  0  2  0  0  3  0  0  0  0  0  0
  191.1410  176.8740  146.2390 C   0  0  0  0  0  2  0  0  0  0  0  0
  189.6860  177.7490  143.9640 C   0  0  2  0  0  3  0  0  0  0  0  0
  186.9490  177.3630  144.6570 C   0  0  0  0  0  0  0  0  0  0  0  0
  184.4610  179.0820  146.2330 N   0  0  0  0  0  1  0  0  0  0  0  0
  185.5780  177.3790  145.0160 N   0  0  0  0  0  0  0  0  0  0  0  0
  189.7460  176.7270  146.1670 O   0  0  0  0  0  0  0  0  0  0  0  0
  189.2600  177.8340  145.4460 C   0  0  2  0  0  3  0  0  0  0  0  0
  186.8400  177.6680  142.1640 C   0  0  2  0  0  3  0  0  0  0  0  0
  187.6570  177.0690  139.3480 C   0  0  0  0  0  2  0  0  0  0  0  0
  188.4100  179.4700  142.0210 O   0  0  0  0  0  0  0  0  0  0  0  0
  187.8690  178.4900  141.4410 C   0  0  0  0  0  0  0  0  0  0  0  0
  189.2000  178.9320  139.3320 C   0  0  0  0  0  2  0  0  0  0  0  0
  188.2280  178.1740  140.0910 N   0  0  0  0  0  0  0  0  0  0  0  0
  188.4080  177.0330  138.0310 C   0  0  0  0  0  2  0  0  0  0  0  0
  189.1770  178.3430  137.9350 C   0  0  0  0  0  2  0  0  0  0  0  0
  185.5610  178.4040  142.4640 C   0  0  0  0  0  2  0  0  0  0  0  0
  184.1600  178.0720  141.7290 S   0  0  0  0  0  0  0  0  0  0  0  0
  183.0570  179.3620  142.3240 C   0  0  0  0  0  2  0  0  0  0  0  0
  182.2270  178.8320  143.4770 C   0  0  0  0  0  2  0  0  0  0  0  0
  179.8180  178.2080  143.5760 O   0  0  0  0  0  1  0  0  0  0  0  0
  180.7910  179.1450  143.2540 C   0  0  0  0  0  0  0  0  0  0  0  0
  180.4550  180.2700  142.8010 O   0  0  0  0  0  0  0  0  0  0  0  0
  1  4  1  0  0  0  0
  2  7  1  1  0  0  0
  2 10  1  0  0  0  0
  2  6  1  0  0  0  0
  4 16  1  6  0  0  0
  4 11  1  0  0  0  0
  5 12  1  6  0  0  0
  5  3  1  0  0  0  0
  6  9  1  0  0  0  0
  8 11  1  1  0  0  0
  8  3  1  0  0  0  0
 10  1  1  1  0  0  0
 10 15  1  0  0  0  0
 11 13  2  0  0  0  0
 13  5  1  0  0  0  0
 14  9  1  0  0  0  0
 15  8  1  0  0  0  0
 15 14  1  1  0  0  0
 16 24  1  1  0  0  0
 17 21  1  0  0  0  0
 19 18  2  0  0  0  0
 19 16  1  0  0  0  0
 20 21  1  0  0  0  0
 21 19  1  0  0  0  0
 22 17  1  0  0  0  0
 23 22  1  0  0  0  0
 23 20  1  0  0  0  0
 25 26  1  0  0  0  0
 25 24  1  0  0  0  0
 26 27  1  0  0  0  0
 29 27  1  0  0  0  0
 29 28  1  0  0  0  0
 30 29  2  0  0  0  0
M  END
>  <MODEL>
5

>  <REMARK>
 VINA RESULT:      -5.8      3.132      5.831
  Name = 
  6 active torsions:
  status: ('A' for Active; 'I' for Inactive)
    1  A    between atoms: C_4  and  C_13
    2  A    between atoms: C_7  and  C_15
    3  A    between atoms: C_7  and  C_16
    4  A    between atoms: C_8  and  C_13
    5  A    between atoms: C_13  and  C_27
    6  A    between atoms: C_16  and  S_30
                            x       y       z     vdW  Elec       q    Type
                         _______ _______ _______ _____ _____    ______ ____

>  <TORSDO>
F 6

$$$$
=
 OpenBabel11052412293D

 30 33  0  0  1  0  0  0  0  0999 V2000
  182.2290  176.4440  139.1740 C   0  0  0  0  0  2  0  0  0  0  0  0
  180.6270  175.6010  137.4170 C   0  0  2  0  0  3  0  0  0  0  0  0
  185.6390  177.1260  136.0770 S   0  0  0  0  0  0  0  0  0  0  0  0
  183.3950  177.4010  139.4770 C   0  0  1  0  0  3  0  0  0  0  0  0
  186.5630  177.9680  137.4150 C   0  0  1  0  0  3  0  0  0  0  0  0
  181.0410  174.1410  137.2060 C   0  0  0  0  0  2  0  0  0  0  0  0
  179.8630  176.1110  136.2090 C   0  0  0  0  0  1  0  0  0  0  0  0
  184.2410  176.9430  137.1710 C   0  0  0  0  0  0  0  0  0  0  0  0
  182.2750  174.0680  136.3070 C   0  0  0  0  0  2  0  0  0  0  0  0
  181.8330  176.5030  137.6980 C   0  0  2  0  0  3  0  0  0  0  0  0
  184.4380  177.4320  138.3880 C   0  0  0  0  0  0  0  0  0  0  0  0
  186.9170  179.3100  136.9910 N   0  0  0  0  0  1  0  0  0  0  0  0
  185.7020  178.0390  138.5840 N   0  0  0  0  0  2  0  0  0  0  0  0
  183.3350  174.7660  136.9070 O   0  0  0  0  0  0  0  0  0  0  0  0
  183.0320  176.1360  136.7970 C   0  0  2  0  0  3  0  0  0  0  0  0
  182.9550  178.8200  139.8700 C   0  0  2  0  0  3  0  0  0  0  0  0
  184.5640  178.7460  142.3900 C   0  0  0  0  0  2  0  0  0  0  0  0
  181.0630  179.0170  141.3230 O   0  0  0  0  0  0  0  0  0  0  0  0
  182.3140  178.9040  141.2260 C   0  0  0  0  0  0  0  0  0  0  0  0
  182.5720  178.9620  143.7450 C   0  0  0  0  0  2  0  0  0  0  0  0
  183.1210  178.8720  142.4090 N   0  0  0  0  0  0  0  0  0  0  0  0
  184.9810  178.6260  143.8440 C   0  0  0  0  0  2  0  0  0  0  0  0
  183.7670  179.0170  144.6760 C   0  0  0  0  0  2  0  0  0  0  0  0
  182.2350  179.5950  138.7970 C   0  0  0  0  0  2  0  0  0  0  0  0
  182.2470  181.2090  138.7190 S   0  0  0  0  0  0  0  0  0  0  0  0
  181.0890  181.5740  137.3910 C   0  0  0  0  0  2  0  0  0  0  0  0
  180.4860  182.9490  137.6040 C   0  0  0  0  0  2  0  0  0  0  0  0
  182.3070  184.6480  137.5910 O   0  0  0  0  0  1  0  0  0  0  0  0
  181.3040  183.9750  136.9050 C   0  0  0  0  0  0  0  0  0  0  0  0
  181.1100  184.2110  135.6850 O   0  0  0  0  0  0  0  0  0  0  0  0
  1  4  1  0  0  0  0
  2  7  1  6  0  0  0
  2 10  1  0  0  0  0
  3  8  1  0  0  0  0
  3  5  1  0  0  0  0
  4 16  1  6  0  0  0
  5 12  1  6  0  0  0
  5 13  1  0  0  0  0
  6  2  1  0  0  0  0
  8 11  2  0  0  0  0
  9 14  1  0  0  0  0
  9  6  1  0  0  0  0
 10  1  1  1  0  0  0
 11 13  1  0  0  0  0
 11  4  1  0  0  0  0
 15 14  1  1  0  0  0
 15  8  1  0  0  0  0
 15 10  1  0  0  0  0
 16 24  1  6  0  0  0
 16 19  1  0  0  0  0
 17 21  1  0  0  0  0
 17 22  1  0  0  0  0
 19 18  2  0  0  0  0
 19 21  1  0  0  0  0
 20 23  1  0  0  0  0
 21 20  1  0  0  0  0
 22 23  1  0  0  0  0
 25 24  1  0  0  0  0
 26 27  1  0  0  0  0
 26 25  1  0  0  0  0
 29 28  1  0  0  0  0
 29 27  1  0  0  0  0
 30 29  2  0  0  0  0
M  END
>  <MODEL>
6

>  <REMARK>
 VINA RESULT:      -5.7      4.088      7.508
  Name = 
  6 active torsions:
  status: ('A' for Active; 'I' for Inactive)
    1  A    between atoms: C_4  and  C_13
    2  A    between atoms: C_7  and  C_15
    3  A    between atoms: C_7  and  C_16
    4  A    between atoms: C_8  and  C_13
    5  A    between atoms: C_13  and  C_27
    6  A    between atoms: C_16  and  S_30
                            x       y       z     vdW  Elec       q    Type
                         _______ _______ _______ _____ _____    ______ ____

>  <TORSDO>
F 6

$$$$
=
 OpenBabel11052412293D

 30 33  0  0  1  0  0  0  0  0999 V2000
  189.2820  177.0340  141.1080 C   0  0  0  0  0  2  0  0  0  0  0  0
  190.2640  177.8000  143.3010 C   0  0  2  0  0  3  0  0  0  0  0  0
  185.2890  179.3210  141.8250 S   0  0  0  0  0  0  0  0  0  0  0  0
  188.3540  177.3950  139.9340 C   0  0  1  0  0  3  0  0  0  0  0  0
  184.8480  178.9100  140.0950 C   0  0  1  0  0  3  0  0  0  0  0  0
  189.6420  176.8590  144.3370 C   0  0  0  0  0  2  0  0  0  0  0  0
  190.7440  179.0760  143.9700 C   0  0  0  0  0  1  0  0  0  0  0  0
  186.8910  178.5730  141.5830 C   0  0  2  0  0  3  0  0  0  0  0  0
  188.2180  177.3040  144.6650 C   0  0  0  0  0  2  0  0  0  0  0  0
  189.2860  178.1340  142.1700 C   0  0  2  0  0  3  0  0  0  0  0  0
  187.0750  178.0650  140.3720 C   0  0  0  0  0  0  0  0  0  0  0  0
  184.5550  180.1300  139.3650 N   0  0  0  0  0  1  0  0  0  0  0  0
  185.9840  178.2400  139.4850 N   0  0  0  0  0  0  0  0  0  0  0  0
  187.4380  177.2850  143.4980 O   0  0  0  0  0  0  0  0  0  0  0  0
  187.8600  178.3740  142.7120 C   0  0  2  0  0  3  0  0  0  0  0  0
  189.0430  178.1860  138.8110 C   0  0  2  0  0  3  0  0  0  0  0  0
  187.8410  175.7550  137.5470 C   0  0  0  0  0  2  0  0  0  0  0  0
  188.0540  179.3760  136.9850 O   0  0  0  0  0  0  0  0  0  0  0  0
  188.2420  178.2610  137.5420 C   0  0  0  0  0  0  0  0  0  0  0  0
  186.8850  177.0780  135.7620 C   0  0  0  0  0  2  0  0  0  0  0  0
  187.6780  177.0750  136.9730 N   0  0  0  0  0  0  0  0  0  0  0  0
  187.1970  174.7990  136.5600 C   0  0  0  0  0  2  0  0  0  0  0  0
  186.3910  175.6540  135.5930 C   0  0  0  0  0  2  0  0  0  0  0  0
  190.5020  177.8780  138.6030 C   0  0  0  0  0  2  0  0  0  0  0  0
  191.0220  176.5760  137.7990 S   0  0  0  0  0  0  0  0  0  0  0  0
  192.8060  176.6200  138.0350 C   0  0  0  0  0  2  0  0  0  0  0  0
  193.4620  175.5770  137.1520 C   0  0  0  0  0  2  0  0  0  0  0  0
  194.3770  173.3480  137.7840 O   0  0  0  0  0  0  0  0  0  0  0  0
  194.3710  174.7250  137.9640 C   0  0  0  0  0  0  0  0  0  0  0  0
  195.1560  175.2540  138.7930 O   0  0  0  0  0  1  0  0  0  0  0  0
  2  7  1  1  0  0  0
  2  6  1  0  0  0  0
  4 16  1  6  0  0  0
  4 11  1  0  0  0  0
  4  1  1  0  0  0  0
  5 12  1  6  0  0  0
  5  3  1  0  0  0  0
  6  9  1  0  0  0  0
  8 11  1  1  0  0  0
  8  3  1  0  0  0  0
  8 15  1  0  0  0  0
 10  1  1  6  0  0  0
 10 15  1  0  0  0  0
 10  2  1  0  0  0  0
 13  5  1  0  0  0  0
 13 11  2  0  0  0  0
 14  9  1  0  0  0  0
 15 14  1  6  0  0  0
 16 24  1  6  0  0  0
 18 19  2  0  0  0  0
 19 16  1  0  0  0  0
 20 21  1  0  0  0  0
 21 19  1  0  0  0  0
 21 17  1  0  0  0  0
 22 17  1  0  0  0  0
 23 20  1  0  0  0  0
 23 22  1  0  0  0  0
 25 26  1  0  0  0  0
 25 24  1  0  0  0  0
 27 29  1  0  0  0  0
 27 26  1  0  0  0  0
 28 29  2  0  0  0  0
 29 30  1  0  0  0  0
M  END
>  <MODEL>
7

>  <REMARK>
 VINA RESULT:      -5.7      2.738      6.480
  Name = 
  6 active torsions:
  status: ('A' for Active; 'I' for Inactive)
    1  A    between atoms: C_4  and  C_13
    2  A    between atoms: C_7  and  C_15
    3  A    between atoms: C_7  and  C_16
    4  A    between atoms: C_8  and  C_13
    5  A    between atoms: C_13  and  C_27
    6  A    between atoms: C_16  and  S_30
                            x       y       z     vdW  Elec       q    Type
                         _______ _______ _______ _____ _____    ______ ____

>  <TORSDO>
F 6

$$$$
=
 OpenBabel11052412293D

 30 33  0  0  1  0  0  0  0  0999 V2000
  186.8440  178.5920  137.8870 C   0  0  0  0  0  2  0  0  0  0  0  0
  189.1240  177.7570  138.5700 C   0  0  2  0  0  3  0  0  0  0  0  0
  185.4180  174.3530  136.5910 S   0  0  0  0  0  0  0  0  0  0  0  0
  185.3460  178.2580  137.7830 C   0  0  1  0  0  3  0  0  0  0  0  0
  183.7420  175.0700  136.4130 C   0  0  1  0  0  3  0  0  0  0  0  0
  189.8920  177.6500  137.2500 C   0  0  0  0  0  2  0  0  0  0  0  0
  189.7620  176.8710  139.6240 C   0  0  0  0  0  1  0  0  0  0  0  0
  186.0090  175.9150  137.2190 C   0  0  2  0  0  3  0  0  0  0  0  0
  189.4970  176.3710  136.5130 C   0  0  0  0  0  2  0  0  0  0  0  0
  187.6450  177.3960  138.4040 C   0  0  2  0  0  3  0  0  0  0  0  0
  185.0820  176.8610  137.2760 C   0  0  0  0  0  0  0  0  0  0  0  0
  182.8050  174.3240  137.2330 N   0  0  0  0  0  1  0  0  0  0  0  0
  183.7900  176.4500  136.8640 N   0  0  0  0  0  0  0  0  0  0  0  0
  188.1190  176.3900  136.2440 O   0  0  0  0  0  0  0  0  0  0  0  0
  187.4650  176.1770  137.4730 C   0  0  2  0  0  3  0  0  0  0  0  0
  184.5490  178.5460  139.0650 C   0  0  2  0  0  3  0  0  0  0  0  0
  181.5880  178.3000  139.4190 C   0  0  0  0  0  2  0  0  0  0  0  0
  184.1100  180.8740  138.7180 O   0  0  0  0  0  0  0  0  0  0  0  0
  183.6330  179.7320  138.9570 C   0  0  0  0  0  0  0  0  0  0  0  0
  181.2840  180.6730  139.0630 C   0  0  0  0  0  2  0  0  0  0  0  0
  182.2210  179.5720  139.1400 N   0  0  0  0  0  0  0  0  0  0  0  0
  180.0970  178.5750  139.4070 C   0  0  0  0  0  2  0  0  0  0  0  0
  179.9370  180.0890  139.4390 C   0  0  0  0  0  2  0  0  0  0  0  0
  185.3400  178.4910  140.3460 C   0  0  0  0  0  2  0  0  0  0  0  0
  184.6500  178.4690  141.8070 S   0  0  0  0  0  0  0  0  0  0  0  0
  186.0470  178.6000  142.9340 C   0  0  0  0  0  2  0  0  0  0  0  0
  187.2980  178.0740  142.2580 C   0  0  0  0  0  2  0  0  0  0  0  0
  188.9230  177.8760  144.1350 O   0  0  0  0  0  1  0  0  0  0  0  0
  188.0860  177.2560  143.2180 C   0  0  0  0  0  0  0  0  0  0  0  0
  187.9700  176.0030  143.2190 O   0  0  0  0  0  0  0  0  0  0  0  0
  2  7  1  1  0  0  0
  4  1  1  0  0  0  0
  4 16  1  1  0  0  0
  5  3  1  0  0  0  0
  5 13  1  0  0  0  0
  5 12  1  1  0  0  0
  6  2  1  0  0  0  0
  8  3  1  6  0  0  0
  8 11  1  0  0  0  0
  8 15  1  0  0  0  0
  9  6  1  0  0  0  0
 10  1  1  6  0  0  0
 10  2  1  0  0  0  0
 11  4  1  0  0  0  0
 13 11  2  0  0  0  0
 14  9  1  0  0  0  0
 15 14  1  6  0  0  0
 15 10  1  0  0  0  0
 16 24  1  1  0  0  0
 18 19  2  0  0  0  0
 19 16  1  0  0  0  0
 19 21  1  0  0  0  0
 20 21  1  0  0  0  0
 20 23  1  0  0  0  0
 21 17  1  0  0  0  0
 22 17  1  0  0  0  0
 22 23  1  0  0  0  0
 24 25  1  0  0  0  0
 25 26  1  0  0  0  0
 27 26  1  0  0  0  0
 27 29  1  0  0  0  0
 29 30  2  0  0  0  0
 29 28  1  0  0  0  0
M  END
>  <MODEL>
8

>  <REMARK>
 VINA RESULT:      -5.7      2.438      3.467
  Name = 
  6 active torsions:
  status: ('A' for Active; 'I' for Inactive)
    1  A    between atoms: C_4  and  C_13
    2  A    between atoms: C_7  and  C_15
    3  A    between atoms: C_7  and  C_16
    4  A    between atoms: C_8  and  C_13
    5  A    between atoms: C_13  and  C_27
    6  A    between atoms: C_16  and  S_30
                            x       y       z     vdW  Elec       q    Type
                         _______ _______ _______ _____ _____    ______ ____

>  <TORSDO>
F 6

$$$$
=
 OpenBabel11052412293D

 30 33  0  0  1  0  0  0  0  0999 V2000
  189.9540  178.1250  138.6920 C   0  0  0  0  0  2  0  0  0  0  0  0
  191.2070  176.1440  137.7620 C   0  0  2  0  0  3  0  0  0  0  0  0
  185.8760  176.6410  137.0040 S   0  0  0  0  0  0  0  0  0  0  0  0
  188.6240  178.6280  139.2800 C   0  0  1  0  0  3  0  0  0  0  0  0
  185.0890  177.9790  137.9770 C   0  0  1  0  0  3  0  0  0  0  0  0
  191.4240  176.4990  136.2870 C   0  0  0  0  0  2  0  0  0  0  0  0
  191.3070  174.6420  137.9610 C   0  0  0  0  0  1  0  0  0  0  0  0
  187.4570  177.0720  137.7100 C   0  0  0  0  0  0  0  0  0  0  0  0
  190.1490  176.2380  135.4880 C   0  0  0  0  0  2  0  0  0  0  0  0
  189.8590  176.6550  138.2810 C   0  0  2  0  0  3  0  0  0  0  0  0
  187.4140  178.0940  138.5540 C   0  0  0  0  0  0  0  0  0  0  0  0
  184.0880  177.4120  138.8620 N   0  0  0  0  0  1  0  0  0  0  0  0
  186.1210  178.6310  138.7670 N   0  0  0  0  0  2  0  0  0  0  0  0
  189.1030  177.0210  136.0020 O   0  0  0  0  0  0  0  0  0  0  0  0
  188.7400  176.4520  137.2370 C   0  0  2  0  0  3  0  0  0  0  0  0
  188.4960  178.4300  140.7980 C   0  0  2  0  0  3  0  0  0  0  0  0
  190.4890  178.6210  143.0210 C   0  0  0  0  0  2  0  0  0  0  0  0
  189.0020  176.0900  140.8170 O   0  0  0  0  0  0  0  0  0  0  0  0
  189.2280  177.2250  141.3170 C   0  0  0  0  0  0  0  0  0  0  0  0
  190.9000  176.2380  142.9440 C   0  0  0  0  0  2  0  0  0  0  0  0
  190.1710  177.3580  142.3880 N   0  0  0  0  0  0  0  0  0  0  0  0
  191.6110  178.3160  143.9970 C   0  0  0  0  0  2  0  0  0  0  0  0
  191.6750  176.8000  144.1200 C   0  0  0  0  0  2  0  0  0  0  0  0
  187.1090  178.5990  141.3600 C   0  0  0  0  0  2  0  0  0  0  0  0
  186.6430  177.9550  142.7670 S   0  0  0  0  0  0  0  0  0  0  0  0
  184.8800  178.3060  142.8280 C   0  0  0  0  0  2  0  0  0  0  0  0
  184.6200  179.4460  143.7940 C   0  0  0  0  0  2  0  0  0  0  0  0
  184.1770  179.0010  146.2040 O   0  0  0  0  0  1  0  0  0  0  0  0
  183.7270  178.9870  144.8900 C   0  0  0  0  0  0  0  0  0  0  0  0
  182.5530  178.6160  144.6320 O   0  0  0  0  0  0  0  0  0  0  0  0
  1  4  1  0  0  0  0
  2  7  1  6  0  0  0
  2 10  1  0  0  0  0
  3  8  1  0  0  0  0
  3  5  1  0  0  0  0
  4 16  1  1  0  0  0
  5 13  1  0  0  0  0
  5 12  1  1  0  0  0
  6  2  1  0  0  0  0
  8 11  2  0  0  0  0
  9 14  1  0  0  0  0
  9  6  1  0  0  0  0
 10  1  1  6  0  0  0
 11 13  1  0  0  0  0
 11  4  1  0  0  0  0
 15 14  1  6  0  0  0
 15  8  1  0  0  0  0
 15 10  1  0  0  0  0
 16 19  1  0  0  0  0
 16 24  1  6  0  0  0
 17 22  1  0  0  0  0
 18 19  2  0  0  0  0
 19 21  1  0  0  0  0
 20 23  1  0  0  0  0
 21 20  1  0  0  0  0
 21 17  1  0  0  0  0
 22 23  1  0  0  0  0
 24 25  1  0  0  0  0
 25 26  1  0  0  0  0
 26 27  1  0  0  0  0
 27 29  1  0  0  0  0
 29 28  1  0  0  0  0
 30 29  2  0  0  0  0
M  END
>  <MODEL>
9

>  <REMARK>
 VINA RESULT:      -5.7      2.455      5.299
  Name = 
  6 active torsions:
  status: ('A' for Active; 'I' for Inactive)
    1  A    between atoms: C_4  and  C_13
    2  A    between atoms: C_7  and  C_15
    3  A    between atoms: C_7  and  C_16
    4  A    between atoms: C_8  and  C_13
    5  A    between atoms: C_13  and  C_27
    6  A    between atoms: C_16  and  S_30
                            x       y       z     vdW  Elec       q    Type
                         _______ _______ _______ _____ _____    ______ ____

>  <TORSDO>
F 6

$$$$
