=
 OpenBabel11052415133D

 55 57  0  0  1  0  0  0  0  0999 V2000
  186.7340  178.2410  145.4500 S   0  0  0  0  0  0  0  0  0  0  0  0
  185.3290  178.9230  142.8270 C   0  0  2  0  0  3  0  0  0  0  0  0
  186.4500  177.8820  142.7060 C   0  0  2  0  0  3  0  0  0  0  0  0
  184.9700  178.7410  145.3250 C   0  0  0  0  0  2  0  0  0  0  0  0
  186.7330  177.1210  144.0070 C   0  0  0  0  0  2  0  0  0  0  0  0
  184.3470  178.5470  143.9370 C   0  0  0  0  0  2  0  0  0  0  0  0
  184.6080  179.0000  141.4930 C   0  0  0  0  0  2  0  0  0  0  0  0
  183.6200  178.0190  141.3970 O   0  0  0  0  0  0  0  0  0  0  0  0
  182.5410  178.6950  140.8180 C   0  0  0  0  0  2  0  0  0  0  0  0
  181.4600  177.7150  140.3900 C   0  0  1  0  0  3  0  0  0  0  0  0
  180.1680  178.0980  141.0900 C   0  0  0  0  0  1  0  0  0  0  0  0
  181.2840  177.7830  138.9900 O   0  0  0  0  0  0  0  0  0  0  0  0
  181.6170  176.5340  138.3970 C   0  0  2  0  0  0  0  0  0  0  0  0
  182.5640  175.8640  139.1740 F   0  0  0  0  0  0  0  0  0  0  0  0
  184.2760  175.2380  137.1910 C   0  0  0  0  0  2  0  0  0  0  0  0
  184.4700  177.6030  137.8600 C   0  0  0  0  0  1  0  0  0  0  0  0
  181.7920  178.1700  136.4770 C   0  0  0  0  0  1  0  0  0  0  0  0
  182.2120  176.7710  136.9520 C   0  0  1  0  0  0  0  0  0  0  0  0
  182.4670  174.5920  135.5340 C   0  0  0  0  0  2  0  0  0  0  0  0
  184.3040  177.0290  135.5030 C   0  0  0  0  0  1  0  0  0  0  0  0
  183.3480  174.1240  136.6800 C   0  0  1  0  0  3  0  0  0  0  0  0
  183.7860  176.6620  136.8920 C   0  0  0  0  0  0  0  0  0  0  0  0
  181.5660  175.7630  135.9590 C   0  0  0  0  0  2  0  0  0  0  0  0
  184.1470  172.9290  136.2710 C   0  0  0  0  0  0  0  0  0  0  0  0
  184.0360  171.7000  136.9770 N   0  0  0  0  0  1  0  0  0  0  0  0
  184.9310  173.0190  135.2860 O   0  0  0  0  0  0  0  0  0  0  0  0
  179.2630  176.1820  138.0210 O   0  0  0  0  0  0  0  0  0  0  0  0
  180.3690  175.6690  138.3210 C   0  0  0  0  0  0  0  0  0  0  0  0
  180.4330  174.3120  138.6090 O   0  0  0  0  0  1  0  0  0  0  0  0
  187.7170  178.5230  142.1640 C   0  0  0  0  0  2  0  0  0  0  0  0
  187.8750  178.1600  140.8130 O   0  0  0  0  0  0  0  0  0  0  0  0
  189.0050  177.3150  140.6950 C   0  0  1  0  0  3  0  0  0  0  0  0
  190.8360  176.9460  139.1040 C   0  0  0  0  0  3  0  0  0  0  0  0
  189.5160  177.1160  139.2750 C   0  0  0  0  0  0  0  0  0  0  0  0
  188.6470  178.5710  137.4280 C   0  0  0  0  0  2  0  0  0  0  0  0
  187.9480  177.5610  135.2510 C   0  0  0  0  0  2  0  0  0  0  0  0
  188.8130  176.0700  137.0720 C   0  0  1  0  0  3  0  0  0  0  0  0
  187.8350  176.1870  135.9060 C   0  0  0  0  0  2  0  0  0  0  0  0
  187.6500  178.6540  136.2710 C   0  0  0  0  0  2  0  0  0  0  0  0
  188.5810  177.1950  138.0910 C   0  0  1  0  0  3  0  0  0  0  0  0
  188.6570  174.8270  137.6780 O   0  0  0  0  0  1  0  0  0  0  0  0
  191.5760  176.7070  137.8500 C   0  0  0  0  0  3  0  0  0  0  0  0
  192.8550  176.3500  137.7830 C   0  0  0  0  0  3  0  0  0  0  0  0
  193.5420  176.1750  136.4990 C   0  0  0  0  0  0  0  0  0  0  0  0
  194.6580  176.7330  136.3130 O   0  0  0  0  0  0  0  0  0  0  0  0
  192.9550  175.4160  135.4460 N   0  0  0  0  0  1  0  0  0  0  0  0
  190.0730  177.5930  141.7560 C   0  0  0  0  0  2  0  0  0  0  0  0
  190.4460  176.3070  142.4640 C   0  0  0  0  0  2  0  0  0  0  0  0
  191.1420  176.6440  143.7620 C   0  0  0  0  0  2  0  0  0  0  0  0
  190.5910  176.8160  146.2190 C   0  0  0  0  0  0  0  0  0  0  0  0
  191.7740  177.1400  146.4970 O   0  0  0  0  0  0  0  0  0  0  0  0
  190.2170  176.5050  144.8760 N   0  0  0  0  0  2  0  0  0  0  0  0
  189.5790  176.7280  147.3050 C   0  0  0  0  0  2  0  0  0  0  0  0
  189.4850  178.0370  148.0710 C   0  0  0  0  0  2  0  0  0  0  0  0
  188.2710  178.0670  148.8680 N   0  0  0  0  0  1  0  0  0  0  0  0
  2  7  1  6  0  0  0
  2  6  1  0  0  0  0
  3 30  1  1  0  0  0
  3  2  1  0  0  0  0
  3  5  1  0  0  0  0
  4  1  1  0  0  0  0
  5  1  1  0  0  0  0
  6  4  1  0  0  0  0
  8  7  1  0  0  0  0
  9  8  1  0  0  0  0
 10  9  1  0  0  0  0
 10 11  1  1  0  0  0
 12 10  1  0  0  0  0
 13 12  1  0  0  0  0
 13 14  1  1  0  0  0
 18 17  1  6  0  0  0
 18 13  1  0  0  0  0
 19 23  1  0  0  0  0
 19 21  1  0  0  0  0
 20 22  1  0  0  0  0
 21 24  1  6  0  0  0
 21 15  1  0  0  0  0
 22 18  1  0  0  0  0
 22 15  1  0  0  0  0
 22 16  1  0  0  0  0
 23 18  1  0  0  0  0
 24 25  1  0  0  0  0
 26 24  2  0  0  0  0
 27 28  2  0  0  0  0
 28 13  1  0  0  0  0
 28 29  1  0  0  0  0
 31 30  1  0  0  0  0
 32 31  1  0  0  0  0
 32 47  1  1  0  0  0
 33 34  2  0  0  0  0
 34 32  1  0  0  0  0
 35 40  1  0  0  0  0
 36 38  1  0  0  0  0
 36 39  1  0  0  0  0
 37 41  1  1  0  0  0
 37 40  1  0  0  0  0
 38 37  1  0  0  0  0
 39 35  1  0  0  0  0
 40 34  1  1  0  0  0
 42 33  1  0  0  0  0
 43 42  2  0  0  0  0
 44 43  1  0  0  0  0
 45 44  2  0  0  0  0
 46 44  1  0  0  0  0
 47 48  1  0  0  0  0
 48 49  1  0  0  0  0
 49 52  1  0  0  0  0
 50 51  2  0  0  0  0
 50 53  1  0  0  0  0
 52 50  1  0  0  0  0
 53 54  1  0  0  0  0
 54 55  1  0  0  0  0
M  END
>  <MODEL>
1

>  <REMARK>
 VINA RESULT:      -6.8      0.000      0.000
  Name = 
  22 active torsions:
  status: ('A' for Active; 'I' for Inactive)
    1  A    between atoms: C_1  and  C_29
    2  A    between atoms: C_2  and  O_28
    3  A    between atoms: C_2  and  C_31
    4  A    between atoms: C_4  and  C_40
    5  A    between atoms: C_6  and  C_14
    6  A    between atoms: C_6  and  C_20
    7  A    between atoms: C_6  and  O_22
    8  A    between atoms: C_8  and  O_22
    9  A    between atoms: C_8  and  C_35
   10  A    between atoms: C_10  and  C_32
   11  A    between atoms: C_13  and  N_48
   12  A    between atoms: C_13  and  C_52
   13  A    between atoms: C_19  and  C_45
   14  A    between atoms: C_26  and  C_49
   15  A    between atoms: C_27  and  C_54
   16  A    between atoms: O_28  and  C_33
   17  A    between atoms: C_32  and  C_39
   18  A    between atoms: C_33  and  C_34
   19  A    between atoms: C_33  and  C_49
   20  A    between atoms: C_34  and  C_52
   21  A    between atoms: C_35  and  O_51
   22  A    between atoms: O_51  and  C_54
                            x       y       z     vdW  Elec       q    Type
                         _______ _______ _______ _____ _____    ______ ____

>  <TORSDO>
F 22

$$$$
=
 OpenBabel11052415133D

 55 57  0  0  1  0  0  0  0  0999 V2000
  188.5500  175.6090  136.5740 S   0  0  0  0  0  0  0  0  0  0  0  0
  186.5210  177.4120  137.9700 C   0  0  2  0  0  3  0  0  0  0  0  0
  187.7070  178.1480  137.3330 C   0  0  2  0  0  3  0  0  0  0  0  0
  186.7550  175.2360  136.6980 C   0  0  0  0  0  2  0  0  0  0  0  0
  188.3660  177.3830  136.1800 C   0  0  0  0  0  2  0  0  0  0  0  0
  185.8670  176.4570  136.9710 C   0  0  0  0  0  2  0  0  0  0  0  0
  185.5170  178.4490  138.4400 C   0  0  0  0  0  2  0  0  0  0  0  0
  185.2480  178.3090  139.8020 O   0  0  0  0  0  0  0  0  0  0  0  0
  184.1490  179.1490  140.0080 C   0  0  0  0  0  2  0  0  0  0  0  0
  182.9820  178.3730  140.5990 C   0  0  1  0  0  3  0  0  0  0  0  0
  182.8280  178.7830  142.0530 C   0  0  0  0  0  1  0  0  0  0  0  0
  181.8000  178.6790  139.8890 O   0  0  0  0  0  0  0  0  0  0  0  0
  180.8900  177.5880  139.9680 C   0  0  2  0  0  0  0  0  0  0  0  0
  181.5750  176.4020  140.2350 F   0  0  0  0  0  0  0  0  0  0  0  0
  181.9560  176.1480  137.3220 C   0  0  0  0  0  2  0  0  0  0  0  0
  181.9710  178.6140  137.2570 C   0  0  0  0  0  1  0  0  0  0  0  0
  179.1480  178.6210  138.4530 C   0  0  0  0  0  1  0  0  0  0  0  0
  180.1170  177.4390  138.5970 C   0  0  1  0  0  0  0  0  0  0  0  0
  179.7720  174.9640  137.8340 C   0  0  0  0  0  2  0  0  0  0  0  0
  180.2570  177.3880  136.0440 C   0  0  0  0  0  1  0  0  0  0  0  0
  181.2880  174.8870  137.8950 C   0  0  1  0  0  3  0  0  0  0  0  0
  181.0690  177.4020  137.3370 C   0  0  0  0  0  0  0  0  0  0  0  0
  179.2350  176.1580  138.6410 C   0  0  0  0  0  2  0  0  0  0  0  0
  181.7790  173.6700  137.1800 C   0  0  0  0  0  0  0  0  0  0  0  0
  180.9910  172.4890  137.1240 N   0  0  0  0  0  1  0  0  0  0  0  0
  182.9110  173.6980  136.6210 O   0  0  0  0  0  0  0  0  0  0  0  0
  179.4610  176.8750  141.7720 O   0  0  0  0  0  1  0  0  0  0  0  0
  179.9110  177.8370  141.1030 C   0  0  0  0  0  0  0  0  0  0  0  0
  179.4830  179.1260  141.3950 O   0  0  0  0  0  0  0  0  0  0  0  0
  188.7310  178.5250  138.3910 C   0  0  0  0  0  2  0  0  0  0  0  0
  189.0490  177.3840  139.1530 O   0  0  0  0  0  0  0  0  0  0  0  0
  190.0300  177.7320  140.1110 C   0  0  1  0  0  3  0  0  0  0  0  0
  188.2670  177.6890  141.8170 C   0  0  0  0  0  3  0  0  0  0  0  0
  189.5830  177.6220  141.5620 C   0  0  0  0  0  0  0  0  0  0  0  0
  190.6480  178.8350  143.4800 C   0  0  0  0  0  2  0  0  0  0  0  0
  191.4130  177.5750  145.4980 C   0  0  0  0  0  2  0  0  0  0  0  0
  190.3520  176.3240  143.6020 C   0  0  1  0  0  3  0  0  0  0  0  0
  191.4040  176.2690  144.7080 C   0  0  0  0  0  2  0  0  0  0  0  0
  191.7160  178.7460  144.5720 C   0  0  0  0  0  2  0  0  0  0  0  0
  190.5900  177.5310  142.6840 C   0  0  1  0  0  3  0  0  0  0  0  0
  190.3960  175.1410  142.8700 O   0  0  0  0  0  1  0  0  0  0  0  0
  187.5770  177.5830  143.1170 C   0  0  0  0  0  3  0  0  0  0  0  0
  186.3950  178.1240  143.3920 C   0  0  0  0  0  3  0  0  0  0  0  0
  185.7880  178.0190  144.7230 C   0  0  0  0  0  0  0  0  0  0  0  0
  186.3280  177.2830  145.5940 O   0  0  0  0  0  0  0  0  0  0  0  0
  184.5800  178.7060  145.0400 N   0  0  0  0  0  1  0  0  0  0  0  0
  191.4100  177.1490  139.7920 C   0  0  0  0  0  2  0  0  0  0  0  0
  191.3030  176.1720  138.6380 C   0  0  0  0  0  2  0  0  0  0  0  0
  192.3690  176.4990  137.6180 C   0  0  0  0  0  2  0  0  0  0  0  0
  193.9510  174.8720  136.5140 C   0  0  0  0  0  0  0  0  0  0  0  0
  194.9520  175.5050  136.9360 O   0  0  0  0  0  0  0  0  0  0  0  0
  192.6280  175.3420  136.7760 N   0  0  0  0  0  2  0  0  0  0  0  0
  194.1480  173.6370  135.7080 C   0  0  0  0  0  2  0  0  0  0  0  0
  193.8460  172.3960  136.5290 C   0  0  0  0  0  2  0  0  0  0  0  0
  195.0100  172.0150  137.3120 N   0  0  0  0  0  1  0  0  0  0  0  0
  1  4  1  0  0  0  0
  2  7  1  6  0  0  0
  3  2  1  0  0  0  0
  3 30  1  1  0  0  0
  4  6  1  0  0  0  0
  5  1  1  0  0  0  0
  5  3  1  0  0  0  0
  6  2  1  0  0  0  0
  7  8  1  0  0  0  0
  8  9  1  0  0  0  0
  9 10  1  0  0  0  0
 10 11  1  1  0  0  0
 12 13  1  0  0  0  0
 12 10  1  0  0  0  0
 13 14  1  1  0  0  0
 13 28  1  0  0  0  0
 15 22  1  0  0  0  0
 15 21  1  0  0  0  0
 16 22  1  0  0  0  0
 18 17  1  6  0  0  0
 18 23  1  0  0  0  0
 18 13  1  0  0  0  0
 19 21  1  0  0  0  0
 19 23  1  0  0  0  0
 20 22  1  0  0  0  0
 21 24  1  6  0  0  0
 22 18  1  0  0  0  0
 25 24  1  0  0  0  0
 26 24  2  0  0  0  0
 28 29  2  0  0  0  0
 28 27  1  0  0  0  0
 30 31  1  0  0  0  0
 31 32  1  0  0  0  0
 32 47  1  1  0  0  0
 32 34  1  0  0  0  0
 33 42  1  0  0  0  0
 34 33  2  0  0  0  0
 35 39  1  0  0  0  0
 37 41  1  6  0  0  0
 37 38  1  0  0  0  0
 38 36  1  0  0  0  0
 39 36  1  0  0  0  0
 40 34  1  6  0  0  0
 40 35  1  0  0  0  0
 40 37  1  0  0  0  0
 42 43  2  0  0  0  0
 43 44  1  0  0  0  0
 44 46  1  0  0  0  0
 44 45  2  0  0  0  0
 48 47  1  0  0  0  0
 49 48  1  0  0  0  0
 50 52  1  0  0  0  0
 50 51  2  0  0  0  0
 52 49  1  0  0  0  0
 53 50  1  0  0  0  0
 53 54  1  0  0  0  0
 54 55  1  0  0  0  0
M  END
>  <MODEL>
2

>  <REMARK>
 VINA RESULT:      -5.6      2.457      6.787
  Name = 
  22 active torsions:
  status: ('A' for Active; 'I' for Inactive)
    1  A    between atoms: C_1  and  C_29
    2  A    between atoms: C_2  and  O_28
    3  A    between atoms: C_2  and  C_31
    4  A    between atoms: C_4  and  C_40
    5  A    between atoms: C_6  and  C_14
    6  A    between atoms: C_6  and  C_20
    7  A    between atoms: C_6  and  O_22
    8  A    between atoms: C_8  and  O_22
    9  A    between atoms: C_8  and  C_35
   10  A    between atoms: C_10  and  C_32
   11  A    between atoms: C_13  and  N_48
   12  A    between atoms: C_13  and  C_52
   13  A    between atoms: C_19  and  C_45
   14  A    between atoms: C_26  and  C_49
   15  A    between atoms: C_27  and  C_54
   16  A    between atoms: O_28  and  C_33
   17  A    between atoms: C_32  and  C_39
   18  A    between atoms: C_33  and  C_34
   19  A    between atoms: C_33  and  C_49
   20  A    between atoms: C_34  and  C_52
   21  A    between atoms: C_35  and  O_51
   22  A    between atoms: O_51  and  C_54
                            x       y       z     vdW  Elec       q    Type
                         _______ _______ _______ _____ _____    ______ ____

>  <TORSDO>
F 22

$$$$
=
 OpenBabel11052415133D

 55 57  0  0  1  0  0  0  0  0999 V2000
  183.7190  179.5090  144.0990 S   0  0  0  0  0  0  0  0  0  0  0  0
  182.9680  178.9490  141.1940 C   0  0  2  0  0  3  0  0  0  0  0  0
  184.2160  178.2070  141.6920 C   0  0  2  0  0  3  0  0  0  0  0  0
  181.9970  179.5300  143.4570 C   0  0  0  0  0  2  0  0  0  0  0  0
  184.2520  178.0050  143.2120 C   0  0  0  0  0  2  0  0  0  0  0  0
  181.7930  178.7510  142.1520 C   0  0  0  0  0  2  0  0  0  0  0  0
  182.6180  178.4150  139.8160 C   0  0  0  0  0  2  0  0  0  0  0  0
  182.7610  177.0280  139.7630 O   0  0  0  0  0  0  0  0  0  0  0  0
  181.4770  176.5780  139.4370 C   0  0  0  0  0  2  0  0  0  0  0  0
  181.5470  175.3090  138.6010 C   0  0  1  0  0  3  0  0  0  0  0  0
  180.1600  174.6940  138.5560 C   0  0  0  0  0  1  0  0  0  0  0  0
  181.9730  175.6260  137.2930 O   0  0  0  0  0  0  0  0  0  0  0  0
  183.0950  174.8250  136.9400 C   0  0  2  0  0  0  0  0  0  0  0  0
  183.9530  174.6830  138.0320 F   0  0  0  0  0  0  0  0  0  0  0  0
  186.2590  175.2030  136.7160 C   0  0  0  0  0  2  0  0  0  0  0  0
  184.9950  177.2410  137.2900 C   0  0  0  0  0  1  0  0  0  0  0  0
  182.9670  176.5500  135.0950 C   0  0  0  0  0  1  0  0  0  0  0  0
  183.8830  175.5060  135.7510 C   0  0  1  0  0  0  0  0  0  0  0  0
  185.6360  173.9450  134.6030 C   0  0  0  0  0  2  0  0  0  0  0  0
  185.8630  176.9580  135.0360 C   0  0  0  0  0  1  0  0  0  0  0  0
  186.2410  173.8460  135.9930 C   0  0  1  0  0  3  0  0  0  0  0  0
  185.2210  176.2120  136.2040 C   0  0  0  0  0  0  0  0  0  0  0  0
  184.1810  174.4420  134.6560 C   0  0  0  0  0  2  0  0  0  0  0  0
  187.6200  173.2760  135.9240 C   0  0  0  0  0  0  0  0  0  0  0  0
  188.2030  172.6340  137.0500 N   0  0  0  0  0  1  0  0  0  0  0  0
  188.2730  173.3710  134.8470 O   0  0  0  0  0  0  0  0  0  0  0  0
  181.6220  173.3180  135.7710 O   0  0  0  0  0  0  0  0  0  0  0  0
  182.6120  173.4420  136.5320 C   0  0  0  0  0  0  0  0  0  0  0  0
  183.2430  172.3040  137.0190 O   0  0  0  0  0  1  0  0  0  0  0  0
  185.4780  178.9000  141.2060 C   0  0  0  0  0  2  0  0  0  0  0  0
  186.4650  177.9300  140.9450 O   0  0  0  0  0  0  0  0  0  0  0  0
  187.7340  178.4700  141.2640 C   0  0  1  0  0  3  0  0  0  0  0  0
  187.3710  178.0380  143.6530 C   0  0  0  0  0  3  0  0  0  0  0  0
  188.2580  178.1110  142.6470 C   0  0  0  0  0  0  0  0  0  0  0  0
  190.2770  179.0270  143.8170 C   0  0  0  0  0  2  0  0  0  0  0  0
  192.0890  177.4900  144.5930 C   0  0  0  0  0  2  0  0  0  0  0  0
  190.0850  176.5330  143.4290 C   0  0  1  0  0  3  0  0  0  0  0  0
  191.5900  176.3980  143.6510 C   0  0  0  0  0  2  0  0  0  0  0  0
  191.7870  178.8650  144.0090 C   0  0  0  0  0  2  0  0  0  0  0  0
  189.7370  177.9300  142.8980 C   0  0  1  0  0  3  0  0  0  0  0  0
  189.6650  175.5550  142.5330 O   0  0  0  0  0  1  0  0  0  0  0  0
  187.6120  177.6850  145.0650 C   0  0  0  0  0  3  0  0  0  0  0  0
  187.0020  178.2540  146.1000 C   0  0  0  0  0  3  0  0  0  0  0  0
  187.3250  177.8870  147.4830 C   0  0  0  0  0  0  0  0  0  0  0  0
  186.9870  178.6580  148.4230 O   0  0  0  0  0  0  0  0  0  0  0  0
  188.0430  176.6940  147.7810 N   0  0  0  0  0  1  0  0  0  0  0  0
  188.7400  178.3510  140.1170 C   0  0  0  0  0  2  0  0  0  0  0  0
  188.0120  178.0680  138.8180 C   0  0  0  0  0  2  0  0  0  0  0  0
  188.9360  178.3700  137.6610 C   0  0  0  0  0  2  0  0  0  0  0  0
  190.4970  176.4080  137.3740 C   0  0  0  0  0  0  0  0  0  0  0  0
  191.2850  176.8630  138.2420 O   0  0  0  0  0  0  0  0  0  0  0  0
  189.3270  177.1370  136.9980 N   0  0  0  0  0  2  0  0  0  0  0  0
  190.8030  175.1120  136.7110 C   0  0  0  0  0  2  0  0  0  0  0  0
  191.9770  174.4200  137.3810 C   0  0  0  0  0  2  0  0  0  0  0  0
  192.6590  173.5550  136.4330 N   0  0  0  0  0  1  0  0  0  0  0  0
  2  7  1  6  0  0  0
  2  3  1  0  0  0  0
  2  6  1  0  0  0  0
  3 30  1  1  0  0  0
  3  5  1  0  0  0  0
  4  1  1  0  0  0  0
  5  1  1  0  0  0  0
  6  4  1  0  0  0  0
  8  7  1  0  0  0  0
  9  8  1  0  0  0  0
 10 11  1  6  0  0  0
 10  9  1  0  0  0  0
 12 10  1  0  0  0  0
 13 12  1  0  0  0  0
 13 14  1  1  0  0  0
 18 17  1  6  0  0  0
 18 22  1  0  0  0  0
 18 13  1  0  0  0  0
 19 23  1  0  0  0  0
 19 21  1  0  0  0  0
 20 22  1  0  0  0  0
 21 24  1  6  0  0  0
 21 15  1  0  0  0  0
 22 15  1  0  0  0  0
 22 16  1  0  0  0  0
 23 18  1  0  0  0  0
 24 25  1  0  0  0  0
 26 24  2  0  0  0  0
 27 28  2  0  0  0  0
 28 13  1  0  0  0  0
 28 29  1  0  0  0  0
 31 30  1  0  0  0  0
 31 32  1  0  0  0  0
 32 47  1  6  0  0  0
 32 34  1  0  0  0  0
 33 42  1  0  0  0  0
 34 33  2  0  0  0  0
 35 39  1  0  0  0  0
 37 41  1  6  0  0  0
 37 38  1  0  0  0  0
 38 36  1  0  0  0  0
 39 36  1  0  0  0  0
 40 34  1  1  0  0  0
 40 37  1  0  0  0  0
 40 35  1  0  0  0  0
 42 43  2  0  0  0  0
 43 44  1  0  0  0  0
 44 46  1  0  0  0  0
 44 45  2  0  0  0  0
 48 47  1  0  0  0  0
 49 48  1  0  0  0  0
 50 51  2  0  0  0  0
 52 50  1  0  0  0  0
 52 49  1  0  0  0  0
 53 50  1  0  0  0  0
 53 54  1  0  0  0  0
 55 54  1  0  0  0  0
M  END
>  <MODEL>
3

>  <REMARK>
 VINA RESULT:      -5.5      2.153      6.277
  Name = 
  22 active torsions:
  status: ('A' for Active; 'I' for Inactive)
    1  A    between atoms: C_1  and  C_29
    2  A    between atoms: C_2  and  O_28
    3  A    between atoms: C_2  and  C_31
    4  A    between atoms: C_4  and  C_40
    5  A    between atoms: C_6  and  C_14
    6  A    between atoms: C_6  and  C_20
    7  A    between atoms: C_6  and  O_22
    8  A    between atoms: C_8  and  O_22
    9  A    between atoms: C_8  and  C_35
   10  A    between atoms: C_10  and  C_32
   11  A    between atoms: C_13  and  N_48
   12  A    between atoms: C_13  and  C_52
   13  A    between atoms: C_19  and  C_45
   14  A    between atoms: C_26  and  C_49
   15  A    between atoms: C_27  and  C_54
   16  A    between atoms: O_28  and  C_33
   17  A    between atoms: C_32  and  C_39
   18  A    between atoms: C_33  and  C_34
   19  A    between atoms: C_33  and  C_49
   20  A    between atoms: C_34  and  C_52
   21  A    between atoms: C_35  and  O_51
   22  A    between atoms: O_51  and  C_54
                            x       y       z     vdW  Elec       q    Type
                         _______ _______ _______ _____ _____    ______ ____

>  <TORSDO>
F 22

$$$$
=
 OpenBabel11052415133D

 55 57  0  0  1  0  0  0  0  0999 V2000
  189.4370  175.0250  136.5660 S   0  0  0  0  0  0  0  0  0  0  0  0
  187.2710  177.0330  137.3340 C   0  0  2  0  0  3  0  0  0  0  0  0
  188.6000  177.6570  136.8890 C   0  0  2  0  0  3  0  0  0  0  0  0
  187.6360  174.7300  136.3510 C   0  0  0  0  0  2  0  0  0  0  0  0
  189.4350  176.7530  135.9750 C   0  0  0  0  0  2  0  0  0  0  0  0
  186.7810  176.0030  136.3170 C   0  0  0  0  0  2  0  0  0  0  0  0
  186.2510  178.1480  137.4860 C   0  0  0  0  0  2  0  0  0  0  0  0
  185.8750  178.3080  138.8200 O   0  0  0  0  0  0  0  0  0  0  0  0
  184.5540  178.7610  138.7360 C   0  0  0  0  0  2  0  0  0  0  0  0
  183.6000  177.7610  139.3710 C   0  0  1  0  0  3  0  0  0  0  0  0
  183.6220  177.9740  140.8740 C   0  0  0  0  0  1  0  0  0  0  0  0
  182.2940  177.9700  138.8770 O   0  0  0  0  0  0  0  0  0  0  0  0
  181.6700  176.7210  138.6090 C   0  0  2  0  0  0  0  0  0  0  0  0
  182.6170  175.6960  138.6030 F   0  0  0  0  0  0  0  0  0  0  0  0
  181.9540  174.5870  136.2480 C   0  0  0  0  0  2  0  0  0  0  0  0
  183.1820  176.6990  135.9110 C   0  0  0  0  0  1  0  0  0  0  0  0
  180.6990  178.2420  136.8380 C   0  0  0  0  0  1  0  0  0  0  0  0
  180.9570  176.7720  137.1990 C   0  0  1  0  0  0  0  0  0  0  0  0
  179.4580  174.6940  136.6880 C   0  0  0  0  0  2  0  0  0  0  0  0
  181.1160  176.2990  134.6910 C   0  0  0  0  0  1  0  0  0  0  0  0
  180.7380  173.9030  136.8940 C   0  0  1  0  0  3  0  0  0  0  0  0
  181.7980  176.1010  136.0430 C   0  0  0  0  0  0  0  0  0  0  0  0
  179.5590  176.0990  137.3060 C   0  0  0  0  0  2  0  0  0  0  0  0
  180.5840  172.5130  136.3670 C   0  0  0  0  0  0  0  0  0  0  0  0
  179.9300  171.5100  137.1320 N   0  0  0  0  0  1  0  0  0  0  0  0
  181.0460  172.2320  135.2250 O   0  0  0  0  0  0  0  0  0  0  0  0
  179.9890  177.3560  140.2150 O   0  0  0  0  0  1  0  0  0  0  0  0
  180.6570  176.4250  139.7040 C   0  0  0  0  0  0  0  0  0  0  0  0
  180.4820  175.1270  140.1700 O   0  0  0  0  0  0  0  0  0  0  0  0
  189.4080  178.1070  138.0960 C   0  0  0  0  0  2  0  0  0  0  0  0
  189.3010  177.1360  139.1100 O   0  0  0  0  0  0  0  0  0  0  0  0
  190.4320  177.2310  139.9560 C   0  0  1  0  0  3  0  0  0  0  0  0
  191.1560  177.3690  142.2970 C   0  0  0  0  0  3  0  0  0  0  0  0
  190.1210  177.3040  141.4440 C   0  0  0  0  0  0  0  0  0  0  0  0
  188.6160  176.3590  143.2120 C   0  0  0  0  0  2  0  0  0  0  0  0
  186.5780  177.6140  143.9340 C   0  0  0  0  0  2  0  0  0  0  0  0
  188.0580  178.5950  142.1640 C   0  0  1  0  0  3  0  0  0  0  0  0
  186.6210  178.4500  142.6590 C   0  0  0  0  0  2  0  0  0  0  0  0
  187.1630  176.2310  143.6740 C   0  0  0  0  0  2  0  0  0  0  0  0
  188.7000  177.2170  141.9490 C   0  0  1  0  0  3  0  0  0  0  0  0
  188.0630  179.3230  140.9780 O   0  0  0  0  0  1  0  0  0  0  0  0
  191.1270  177.4750  143.7680 C   0  0  0  0  0  3  0  0  0  0  0  0
  191.5540  176.5320  144.6020 C   0  0  0  0  0  3  0  0  0  0  0  0
  191.4520  176.6850  146.0570 C   0  0  0  0  0  0  0  0  0  0  0  0
  192.4100  176.3100  146.7880 O   0  0  0  0  0  0  0  0  0  0  0  0
  190.2780  177.2170  146.6630 N   0  0  0  0  0  1  0  0  0  0  0  0
  191.5590  176.2750  139.5560 C   0  0  0  0  0  2  0  0  0  0  0  0
  192.6930  177.0510  138.9160 C   0  0  0  0  0  2  0  0  0  0  0  0
  193.1660  176.3070  137.6890 C   0  0  0  0  0  2  0  0  0  0  0  0
  195.1320  174.8600  137.0510 C   0  0  0  0  0  0  0  0  0  0  0  0
  194.9250  175.0570  135.8260 O   0  0  0  0  0  0  0  0  0  0  0  0
  194.2600  175.4140  138.0360 N   0  0  0  0  0  2  0  0  0  0  0  0
  196.2810  174.0150  137.4740 C   0  0  0  0  0  2  0  0  0  0  0  0
  195.8030  172.7120  138.0910 C   0  0  0  0  0  2  0  0  0  0  0  0
  194.7730  172.1110  137.2610 N   0  0  0  0  0  1  0  0  0  0  0  0
  2  7  1  6  0  0  0
  3  2  1  0  0  0  0
  3 30  1  1  0  0  0
  4  1  1  0  0  0  0
  5  1  1  0  0  0  0
  5  3  1  0  0  0  0
  6  4  1  0  0  0  0
  6  2  1  0  0  0  0
  7  8  1  0  0  0  0
  9  8  1  0  0  0  0
  9 10  1  0  0  0  0
 10 11  1  1  0  0  0
 12 10  1  0  0  0  0
 13 14  1  6  0  0  0
 13 12  1  0  0  0  0
 13 28  1  0  0  0  0
 15 21  1  0  0  0  0
 16 22  1  0  0  0  0
 18 17  1  6  0  0  0
 18 23  1  0  0  0  0
 18 13  1  0  0  0  0
 19 21  1  0  0  0  0
 19 23  1  0  0  0  0
 20 22  1  0  0  0  0
 21 24  1  6  0  0  0
 22 15  1  0  0  0  0
 22 18  1  0  0  0  0
 24 25  1  0  0  0  0
 26 24  2  0  0  0  0
 28 29  2  0  0  0  0
 28 27  1  0  0  0  0
 30 31  1  0  0  0  0
 31 32  1  0  0  0  0
 32 47  1  1  0  0  0
 32 34  1  0  0  0  0
 33 42  1  0  0  0  0
 34 33  2  0  0  0  0
 35 39  1  0  0  0  0
 37 41  1  6  0  0  0
 37 38  1  0  0  0  0
 38 36  1  0  0  0  0
 39 36  1  0  0  0  0
 40 34  1  1  0  0  0
 40 37  1  0  0  0  0
 40 35  1  0  0  0  0
 42 43  2  0  0  0  0
 43 44  1  0  0  0  0
 44 46  1  0  0  0  0
 44 45  2  0  0  0  0
 48 47  1  0  0  0  0
 49 52  1  0  0  0  0
 49 48  1  0  0  0  0
 50 53  1  0  0  0  0
 50 52  1  0  0  0  0
 51 50  2  0  0  0  0
 53 54  1  0  0  0  0
 55 54  1  0  0  0  0
M  END
>  <MODEL>
4

>  <REMARK>
 VINA RESULT:      -5.3      2.297      6.428
  Name = 
  22 active torsions:
  status: ('A' for Active; 'I' for Inactive)
    1  A    between atoms: C_1  and  C_29
    2  A    between atoms: C_2  and  O_28
    3  A    between atoms: C_2  and  C_31
    4  A    between atoms: C_4  and  C_40
    5  A    between atoms: C_6  and  C_14
    6  A    between atoms: C_6  and  C_20
    7  A    between atoms: C_6  and  O_22
    8  A    between atoms: C_8  and  O_22
    9  A    between atoms: C_8  and  C_35
   10  A    between atoms: C_10  and  C_32
   11  A    between atoms: C_13  and  N_48
   12  A    between atoms: C_13  and  C_52
   13  A    between atoms: C_19  and  C_45
   14  A    between atoms: C_26  and  C_49
   15  A    between atoms: C_27  and  C_54
   16  A    between atoms: O_28  and  C_33
   17  A    between atoms: C_32  and  C_39
   18  A    between atoms: C_33  and  C_34
   19  A    between atoms: C_33  and  C_49
   20  A    between atoms: C_34  and  C_52
   21  A    between atoms: C_35  and  O_51
   22  A    between atoms: O_51  and  C_54
                            x       y       z     vdW  Elec       q    Type
                         _______ _______ _______ _____ _____    ______ ____

>  <TORSDO>
F 22

$$$$
=
 OpenBabel11052415133D

 55 57  0  0  1  0  0  0  0  0999 V2000
  191.0600  176.7810  143.9680 S   0  0  0  0  0  0  0  0  0  0  0  0
  188.8920  177.9760  142.1830 C   0  0  2  0  0  3  0  0  0  0  0  0
  189.4600  176.6350  141.6980 C   0  0  2  0  0  3  0  0  0  0  0  0
  189.6790  177.8250  144.5830 C   0  0  0  0  0  2  0  0  0  0  0  0
  190.0610  175.7760  142.8160 C   0  0  0  0  0  2  0  0  0  0  0  0
  188.4650  177.8940  143.6490 C   0  0  0  0  0  2  0  0  0  0  0  0
  187.7030  178.3310  141.3090 C   0  0  0  0  0  2  0  0  0  0  0  0
  186.5780  178.6240  142.0820 O   0  0  0  0  0  0  0  0  0  0  0  0
  185.5890  178.9000  141.1330 C   0  0  0  0  0  2  0  0  0  0  0  0
  184.2180  178.4960  141.6510 C   0  0  1  0  0  3  0  0  0  0  0  0
  184.2030  178.6920  143.1560 C   0  0  0  0  0  1  0  0  0  0  0  0
  183.2270  179.3050  141.0530 O   0  0  0  0  0  0  0  0  0  0  0  0
  182.1110  178.5070  140.6750 C   0  0  2  0  0  0  0  0  0  0  0  0
  182.4350  177.1510  140.7510 F   0  0  0  0  0  0  0  0  0  0  0  0
  181.6460  176.4320  138.2910 C   0  0  0  0  0  2  0  0  0  0  0  0
  183.7560  177.7040  138.1810 C   0  0  0  0  0  1  0  0  0  0  0  0
  182.2010  180.2600  138.8530 C   0  0  0  0  0  1  0  0  0  0  0  0
  181.6880  178.8520  139.1910 C   0  0  1  0  0  0  0  0  0  0  0  0
  179.4630  177.7160  138.4270 C   0  0  0  0  0  2  0  0  0  0  0  0
  181.9150  178.2950  136.7060 C   0  0  0  0  0  1  0  0  0  0  0  0
  180.1810  176.4190  138.7590 C   0  0  1  0  0  3  0  0  0  0  0  0
  182.2490  177.8340  138.1220 C   0  0  0  0  0  0  0  0  0  0  0  0
  180.1370  178.9220  139.1030 C   0  0  0  0  0  2  0  0  0  0  0  0
  179.4570  175.2540  138.1680 C   0  0  0  0  0  0  0  0  0  0  0  0
  178.9810  174.1960  138.9900 N   0  0  0  0  0  1  0  0  0  0  0  0
  179.2700  175.2130  136.9190 O   0  0  0  0  0  0  0  0  0  0  0  0
  180.8430  179.8970  142.1790 O   0  0  0  0  0  1  0  0  0  0  0  0
  180.9600  178.7750  141.6300 C   0  0  0  0  0  0  0  0  0  0  0  0
  180.0420  177.7740  141.9260 O   0  0  0  0  0  0  0  0  0  0  0  0
  190.4650  176.8550  140.5800 C   0  0  0  0  0  2  0  0  0  0  0  0
  189.8030  176.7720  139.3400 O   0  0  0  0  0  0  0  0  0  0  0  0
  190.5850  175.9950  138.4540 C   0  0  1  0  0  3  0  0  0  0  0  0
  190.0680  173.9360  137.2220 C   0  0  0  0  0  3  0  0  0  0  0  0
  189.7980  175.2400  137.3910 C   0  0  0  0  0  0  0  0  0  0  0  0
  187.6230  176.4830  137.3020 C   0  0  0  0  0  2  0  0  0  0  0  0
  187.2680  178.2820  135.6040 C   0  0  0  0  0  2  0  0  0  0  0  0
  189.4590  177.0640  135.6590 C   0  0  1  0  0  3  0  0  0  0  0  0
  188.4230  177.7410  134.7650 C   0  0  0  0  0  2  0  0  0  0  0  0
  186.6040  177.1470  136.3740 C   0  0  0  0  0  2  0  0  0  0  0  0
  188.8110  175.9540  136.4980 C   0  0  1  0  0  3  0  0  0  0  0  0
  190.4770  176.5420  134.8670 O   0  0  0  0  0  1  0  0  0  0  0  0
  189.4360  172.9820  136.2910 C   0  0  0  0  0  3  0  0  0  0  0  0
  188.2880  172.3510  136.5200 C   0  0  0  0  0  3  0  0  0  0  0  0
  187.7390  171.3780  135.5700 C   0  0  0  0  0  0  0  0  0  0  0  0
  188.1830  170.1970  135.5670 O   0  0  0  0  0  0  0  0  0  0  0  0
  186.7390  171.7510  134.6260 N   0  0  0  0  0  1  0  0  0  0  0  0
  191.8370  176.7260  137.9640 C   0  0  0  0  0  2  0  0  0  0  0  0
  193.0390  175.8070  138.0480 C   0  0  0  0  0  2  0  0  0  0  0  0
  193.6140  175.6220  136.6630 C   0  0  0  0  0  2  0  0  0  0  0  0
  195.5120  173.9880  136.9680 C   0  0  0  0  0  0  0  0  0  0  0  0
  196.2690  174.8930  137.4030 O   0  0  0  0  0  0  0  0  0  0  0  0
  194.1870  174.2920  136.5320 N   0  0  0  0  0  2  0  0  0  0  0  0
  196.0150  172.5900  136.8790 C   0  0  0  0  0  2  0  0  0  0  0  0
  197.5030  172.5250  137.1770 C   0  0  0  0  0  2  0  0  0  0  0  0
  198.1120  171.4220  136.4550 N   0  0  0  0  0  1  0  0  0  0  0  0
  1  4  1  0  0  0  0
  2  7  1  6  0  0  0
  2  6  1  0  0  0  0
  3 30  1  6  0  0  0
  3  2  1  0  0  0  0
  3  5  1  0  0  0  0
  5  1  1  0  0  0  0
  6  4  1  0  0  0  0
  7  8  1  0  0  0  0
  9 10  1  0  0  0  0
  9  8  1  0  0  0  0
 10 11  1  1  0  0  0
 12 10  1  0  0  0  0
 13 14  1  1  0  0  0
 13 12  1  0  0  0  0
 13 28  1  0  0  0  0
 15 21  1  0  0  0  0
 18 17  1  6  0  0  0
 18 13  1  0  0  0  0
 19 21  1  0  0  0  0
 19 23  1  0  0  0  0
 20 22  1  0  0  0  0
 21 24  1  6  0  0  0
 22 16  1  0  0  0  0
 22 15  1  0  0  0  0
 22 18  1  0  0  0  0
 23 18  1  0  0  0  0
 24 25  1  0  0  0  0
 26 24  2  0  0  0  0
 28 29  2  0  0  0  0
 28 27  1  0  0  0  0
 31 30  1  0  0  0  0
 32 47  1  6  0  0  0
 32 31  1  0  0  0  0
 33 34  2  0  0  0  0
 34 32  1  0  0  0  0
 36 39  1  0  0  0  0
 37 41  1  6  0  0  0
 37 40  1  0  0  0  0
 38 36  1  0  0  0  0
 38 37  1  0  0  0  0
 39 35  1  0  0  0  0
 40 35  1  0  0  0  0
 40 34  1  1  0  0  0
 42 43  2  0  0  0  0
 42 33  1  0  0  0  0
 44 43  1  0  0  0  0
 45 44  2  0  0  0  0
 46 44  1  0  0  0  0
 47 48  1  0  0  0  0
 49 48  1  0  0  0  0
 50 51  2  0  0  0  0
 52 49  1  0  0  0  0
 52 50  1  0  0  0  0
 53 50  1  0  0  0  0
 53 54  1  0  0  0  0
 55 54  1  0  0  0  0
M  END
>  <MODEL>
5

>  <REMARK>
 VINA RESULT:      -5.3      3.214      5.907
  Name = 
  22 active torsions:
  status: ('A' for Active; 'I' for Inactive)
    1  A    between atoms: C_1  and  C_29
    2  A    between atoms: C_2  and  O_28
    3  A    between atoms: C_2  and  C_31
    4  A    between atoms: C_4  and  C_40
    5  A    between atoms: C_6  and  C_14
    6  A    between atoms: C_6  and  C_20
    7  A    between atoms: C_6  and  O_22
    8  A    between atoms: C_8  and  O_22
    9  A    between atoms: C_8  and  C_35
   10  A    between atoms: C_10  and  C_32
   11  A    between atoms: C_13  and  N_48
   12  A    between atoms: C_13  and  C_52
   13  A    between atoms: C_19  and  C_45
   14  A    between atoms: C_26  and  C_49
   15  A    between atoms: C_27  and  C_54
   16  A    between atoms: O_28  and  C_33
   17  A    between atoms: C_32  and  C_39
   18  A    between atoms: C_33  and  C_34
   19  A    between atoms: C_33  and  C_49
   20  A    between atoms: C_34  and  C_52
   21  A    between atoms: C_35  and  O_51
   22  A    between atoms: O_51  and  C_54
                            x       y       z     vdW  Elec       q    Type
                         _______ _______ _______ _____ _____    ______ ____

>  <TORSDO>
F 22

$$$$
=
 OpenBabel11052415133D

 55 57  0  0  1  0  0  0  0  0999 V2000
  191.8900  177.5770  143.0740 S   0  0  0  0  0  0  0  0  0  0  0  0
  189.0400  177.8080  142.0060 C   0  0  2  0  0  3  0  0  0  0  0  0
  189.6860  176.4280  141.8260 C   0  0  2  0  0  3  0  0  0  0  0  0
  190.6080  178.6820  143.7900 C   0  0  0  0  0  2  0  0  0  0  0  0
  190.8030  176.1290  142.8330 C   0  0  0  0  0  2  0  0  0  0  0  0
  189.1650  178.2880  143.4530 C   0  0  0  0  0  2  0  0  0  0  0  0
  187.5770  177.7010  141.6130 C   0  0  0  0  0  2  0  0  0  0  0  0
  186.9170  178.9180  141.7930 O   0  0  0  0  0  0  0  0  0  0  0  0
  185.9160  178.8960  140.8170 C   0  0  0  0  0  2  0  0  0  0  0  0
  184.5930  178.4390  141.4130 C   0  0  1  0  0  3  0  0  0  0  0  0
  184.6090  178.7530  142.8980 C   0  0  0  0  0  1  0  0  0  0  0  0
  183.5290  179.1270  140.7900 O   0  0  0  0  0  0  0  0  0  0  0  0
  182.4970  178.2130  140.4400 C   0  0  2  0  0  0  0  0  0  0  0  0
  182.9410  176.8980  140.5930 F   0  0  0  0  0  0  0  0  0  0  0  0
  182.4020  176.0090  138.1290 C   0  0  0  0  0  2  0  0  0  0  0  0
  184.3100  177.5670  138.0180 C   0  0  0  0  0  1  0  0  0  0  0  0
  182.3870  179.8950  138.5540 C   0  0  0  0  0  1  0  0  0  0  0  0
  182.0720  178.4400  138.9340 C   0  0  1  0  0  0  0  0  0  0  0  0
  180.0550  176.9690  138.1640 C   0  0  0  0  0  2  0  0  0  0  0  0
  182.4470  177.8340  136.4780 C   0  0  0  0  0  1  0  0  0  0  0  0
  180.9420  175.8020  138.5630 C   0  0  1  0  0  3  0  0  0  0  0  0
  182.8030  177.4770  137.9190 C   0  0  0  0  0  0  0  0  0  0  0  0
  180.5290  178.2830  138.8070 C   0  0  0  0  0  2  0  0  0  0  0  0
  180.4100  174.5240  138.0010 C   0  0  0  0  0  0  0  0  0  0  0  0
  180.6370  174.1740  136.6420 N   0  0  0  0  0  1  0  0  0  0  0  0
  179.7490  173.7490  138.7480 O   0  0  0  0  0  0  0  0  0  0  0  0
  180.4520  177.5180  141.5060 O   0  0  0  0  0  0  0  0  0  0  0  0
  181.3090  178.4230  141.3640 C   0  0  0  0  0  0  0  0  0  0  0  0
  181.1450  179.6270  142.0370 O   0  0  0  0  0  1  0  0  0  0  0  0
  190.1790  176.2530  140.3990 C   0  0  0  0  0  2  0  0  0  0  0  0
  190.6360  177.4930  139.9130 O   0  0  0  0  0  0  0  0  0  0  0  0
  190.7850  177.4070  138.5080 C   0  0  1  0  0  3  0  0  0  0  0  0
  193.1100  176.6500  138.7220 C   0  0  0  0  0  3  0  0  0  0  0  0
  191.9600  176.5630  138.0340 C   0  0  0  0  0  0  0  0  0  0  0  0
  193.0850  175.9240  135.8870 C   0  0  0  0  0  2  0  0  0  0  0  0
  192.7660  173.6380  134.9290 C   0  0  0  0  0  2  0  0  0  0  0  0
  191.6230  174.2350  137.0790 C   0  0  1  0  0  3  0  0  0  0  0  0
  191.5180  173.4360  135.7830 C   0  0  0  0  0  2  0  0  0  0  0  0
  192.9410  175.1150  134.5970 C   0  0  0  0  0  2  0  0  0  0  0  0
  191.8620  175.7220  136.7820 C   0  0  1  0  0  3  0  0  0  0  0  0
  190.4550  174.0690  137.8170 O   0  0  0  0  0  1  0  0  0  0  0  0
  194.3740  175.9240  138.4910 C   0  0  0  0  0  3  0  0  0  0  0  0
  194.6600  174.7260  138.9910 C   0  0  0  0  0  3  0  0  0  0  0  0
  195.9570  174.0830  138.7590 C   0  0  0  0  0  0  0  0  0  0  0  0
  196.0080  172.8330  138.5960 O   0  0  0  0  0  0  0  0  0  0  0  0
  197.1650  174.8390  138.7490 N   0  0  0  0  0  1  0  0  0  0  0  0
  189.4590  177.1750  137.7790 C   0  0  0  0  0  2  0  0  0  0  0  0
  189.1970  178.3090  136.8090 C   0  0  0  0  0  2  0  0  0  0  0  0
  189.1530  177.7530  135.4040 C   0  0  0  0  0  2  0  0  0  0  0  0
  187.0310  176.3960  135.2620 C   0  0  0  0  0  0  0  0  0  0  0  0
  186.3250  177.4370  135.2430 O   0  0  0  0  0  0  0  0  0  0  0  0
  188.4500  176.4800  135.3920 N   0  0  0  0  0  2  0  0  0  0  0  0
  186.3760  175.0630  135.1770 C   0  0  0  0  0  2  0  0  0  0  0  0
  186.8480  174.1500  136.2960 C   0  0  0  0  0  2  0  0  0  0  0  0
  185.8480  174.0840  137.3470 N   0  0  0  0  0  1  0  0  0  0  0  0
  1  4  1  0  0  0  0
  2  7  1  1  0  0  0
  2  6  1  0  0  0  0
  3 30  1  6  0  0  0
  3  2  1  0  0  0  0
  3  5  1  0  0  0  0
  5  1  1  0  0  0  0
  6  4  1  0  0  0  0
  7  8  1  0  0  0  0
  9 10  1  0  0  0  0
  9  8  1  0  0  0  0
 10 11  1  1  0  0  0
 12 10  1  0  0  0  0
 13 14  1  1  0  0  0
 13 12  1  0  0  0  0
 13 28  1  0  0  0  0
 15 21  1  0  0  0  0
 18 17  1  6  0  0  0
 18 13  1  0  0  0  0
 19 21  1  0  0  0  0
 19 23  1  0  0  0  0
 20 22  1  0  0  0  0
 21 24  1  6  0  0  0
 22 16  1  0  0  0  0
 22 15  1  0  0  0  0
 22 18  1  0  0  0  0
 23 18  1  0  0  0  0
 24 26  2  0  0  0  0
 25 24  1  0  0  0  0
 28 27  2  0  0  0  0
 28 29  1  0  0  0  0
 31 30  1  0  0  0  0
 32 47  1  6  0  0  0
 32 31  1  0  0  0  0
 34 32  1  0  0  0  0
 34 33  2  0  0  0  0
 35 40  1  0  0  0  0
 36 38  1  0  0  0  0
 37 41  1  6  0  0  0
 38 37  1  0  0  0  0
 39 36  1  0  0  0  0
 39 35  1  0  0  0  0
 40 37  1  0  0  0  0
 40 34  1  1  0  0  0
 42 33  1  0  0  0  0
 42 43  2  0  0  0  0
 44 43  1  0  0  0  0
 45 44  2  0  0  0  0
 46 44  1  0  0  0  0
 48 47  1  0  0  0  0
 49 48  1  0  0  0  0
 50 52  1  0  0  0  0
 51 50  2  0  0  0  0
 52 49  1  0  0  0  0
 53 50  1  0  0  0  0
 53 54  1  0  0  0  0
 54 55  1  0  0  0  0
M  END
>  <MODEL>
6

>  <REMARK>
 VINA RESULT:      -4.8      3.149      5.604
  Name = 
  22 active torsions:
  status: ('A' for Active; 'I' for Inactive)
    1  A    between atoms: C_1  and  C_29
    2  A    between atoms: C_2  and  O_28
    3  A    between atoms: C_2  and  C_31
    4  A    between atoms: C_4  and  C_40
    5  A    between atoms: C_6  and  C_14
    6  A    between atoms: C_6  and  C_20
    7  A    between atoms: C_6  and  O_22
    8  A    between atoms: C_8  and  O_22
    9  A    between atoms: C_8  and  C_35
   10  A    between atoms: C_10  and  C_32
   11  A    between atoms: C_13  and  N_48
   12  A    between atoms: C_13  and  C_52
   13  A    between atoms: C_19  and  C_45
   14  A    between atoms: C_26  and  C_49
   15  A    between atoms: C_27  and  C_54
   16  A    between atoms: O_28  and  C_33
   17  A    between atoms: C_32  and  C_39
   18  A    between atoms: C_33  and  C_34
   19  A    between atoms: C_33  and  C_49
   20  A    between atoms: C_34  and  C_52
   21  A    between atoms: C_35  and  O_51
   22  A    between atoms: O_51  and  C_54
                            x       y       z     vdW  Elec       q    Type
                         _______ _______ _______ _____ _____    ______ ____

>  <TORSDO>
F 22

$$$$
=
 OpenBabel11052415133D

 55 57  0  0  1  0  0  0  0  0999 V2000
  190.0030  177.1060  143.7530 S   0  0  0  0  0  0  0  0  0  0  0  0
  190.3110  176.8200  140.7290 C   0  0  2  0  0  3  0  0  0  0  0  0
  189.3590  177.9370  141.1780 C   0  0  2  0  0  3  0  0  0  0  0  0
  191.5360  176.5220  142.9230 C   0  0  0  0  0  2  0  0  0  0  0  0
  189.6440  178.4660  142.5890 C   0  0  0  0  0  2  0  0  0  0  0  0
  191.6560  176.9240  141.4480 C   0  0  0  0  0  2  0  0  0  0  0  0
  190.5060  176.9400  139.2280 C   0  0  0  0  0  2  0  0  0  0  0  0
  190.8270  175.7050  138.6620 O   0  0  0  0  0  0  0  0  0  0  0  0
  191.7270  176.0350  137.6430 C   0  0  0  0  0  2  0  0  0  0  0  0
  191.4620  175.1990  136.4000 C   0  0  1  0  0  3  0  0  0  0  0  0
  190.6690  176.0440  135.4200 C   0  0  0  0  0  1  0  0  0  0  0  0
  192.6900  174.8150  135.8170 O   0  0  0  0  0  0  0  0  0  0  0  0
  193.0320  173.4970  136.2300 C   0  0  2  0  0  0  0  0  0  0  0  0
  192.7940  173.3390  137.5970 F   0  0  0  0  0  0  0  0  0  0  0  0
  195.4980  175.2930  137.1790 C   0  0  0  0  0  2  0  0  0  0  0  0
  194.8950  175.5090  134.7980 C   0  0  0  0  0  1  0  0  0  0  0  0
  194.6800  172.4550  134.6190 C   0  0  0  0  0  1  0  0  0  0  0  0
  194.5630  173.2290  135.9400 C   0  0  1  0  0  0  0  0  0  0  0  0
  196.0270  172.9860  138.0910 C   0  0  0  0  0  2  0  0  0  0  0  0
  196.8620  174.2260  135.4300 C   0  0  0  0  0  1  0  0  0  0  0  0
  195.5200  174.3800  138.4160 C   0  0  1  0  0  3  0  0  0  0  0  0
  195.4260  174.5470  135.8390 C   0  0  0  0  0  0  0  0  0  0  0  0
  195.1380  172.2940  137.0430 C   0  0  0  0  0  2  0  0  0  0  0  0
  196.3440  174.9960  139.5000 C   0  0  0  0  0  0  0  0  0  0  0  0
  197.7610  174.8740  139.4990 N   0  0  0  0  0  1  0  0  0  0  0  0
  195.7690  175.6310  140.4280 O   0  0  0  0  0  0  0  0  0  0  0  0
  191.3550  172.8960  134.6080 O   0  0  0  0  0  0  0  0  0  0  0  0
  192.1680  172.4980  135.4780 C   0  0  0  0  0  0  0  0  0  0  0  0
  192.2470  171.1410  135.7650 O   0  0  0  0  0  1  0  0  0  0  0  0
  187.9120  177.4900  141.0480 C   0  0  0  0  0  2  0  0  0  0  0  0
  187.2710  178.2790  140.0740 O   0  0  0  0  0  0  0  0  0  0  0  0
  186.0250  178.7150  140.5850 C   0  0  1  0  0  3  0  0  0  0  0  0
  184.0530  179.6910  139.4980 C   0  0  0  0  0  3  0  0  0  0  0  0
  184.8600  178.6240  139.6090 C   0  0  0  0  0  0  0  0  0  0  0  0
  183.1830  176.8050  139.2070 C   0  0  0  0  0  2  0  0  0  0  0  0
  183.0570  175.6770  136.9800 C   0  0  0  0  0  2  0  0  0  0  0  0
  184.7490  177.4930  137.3400 C   0  0  1  0  0  3  0  0  0  0  0  0
  184.4580  176.1730  136.6310 C   0  0  0  0  0  2  0  0  0  0  0  0
  182.9310  175.4800  138.4860 C   0  0  0  0  0  2  0  0  0  0  0  0
  184.5700  177.3460  138.8580 C   0  0  1  0  0  3  0  0  0  0  0  0
  186.0460  177.8990  137.0410 O   0  0  0  0  0  1  0  0  0  0  0  0
  182.8840  179.8700  138.6150 C   0  0  0  0  0  3  0  0  0  0  0  0
  181.7840  180.5390  138.9450 C   0  0  0  0  0  3  0  0  0  0  0  0
  180.6390  180.6370  138.0350 C   0  0  0  0  0  0  0  0  0  0  0  0
  180.6980  180.0850  136.9020 O   0  0  0  0  0  0  0  0  0  0  0  0
  179.4730  181.3740  138.3920 N   0  0  0  0  0  1  0  0  0  0  0  0
  185.7500  178.2070  142.0030 C   0  0  0  0  0  2  0  0  0  0  0  0
  185.4240  179.3720  142.9150 C   0  0  0  0  0  2  0  0  0  0  0  0
  184.8630  178.8380  144.2130 C   0  0  0  0  0  2  0  0  0  0  0  0
  185.9040  178.3550  146.4600 C   0  0  0  0  0  0  0  0  0  0  0  0
  184.9830  178.9690  147.0580 O   0  0  0  0  0  0  0  0  0  0  0  0
  185.9330  178.2940  145.0330 N   0  0  0  0  0  2  0  0  0  0  0  0
  186.9900  177.7120  147.2480 C   0  0  0  0  0  2  0  0  0  0  0  0
  188.3060  177.7440  146.4910 C   0  0  0  0  0  2  0  0  0  0  0  0
  189.3970  177.3400  147.3610 N   0  0  0  0  0  1  0  0  0  0  0  0
  2  7  1  6  0  0  0
  2  3  1  0  0  0  0
  2  6  1  0  0  0  0
  3 30  1  1  0  0  0
  3  5  1  0  0  0  0
  4  1  1  0  0  0  0
  5  1  1  0  0  0  0
  6  4  1  0  0  0  0
  8  7  1  0  0  0  0
  9  8  1  0  0  0  0
 10 11  1  6  0  0  0
 10  9  1  0  0  0  0
 12 13  1  0  0  0  0
 12 10  1  0  0  0  0
 13 14  1  1  0  0  0
 15 21  1  0  0  0  0
 16 22  1  0  0  0  0
 18 17  1  6  0  0  0
 18 13  1  0  0  0  0
 18 23  1  0  0  0  0
 19 21  1  0  0  0  0
 20 22  1  0  0  0  0
 21 24  1  1  0  0  0
 22 18  1  0  0  0  0
 22 15  1  0  0  0  0
 23 19  1  0  0  0  0
 24 26  2  0  0  0  0
 25 24  1  0  0  0  0
 27 28  2  0  0  0  0
 28 29  1  0  0  0  0
 28 13  1  0  0  0  0
 31 32  1  0  0  0  0
 31 30  1  0  0  0  0
 32 47  1  1  0  0  0
 33 34  2  0  0  0  0
 34 32  1  0  0  0  0
 36 39  1  0  0  0  0
 37 41  1  1  0  0  0
 37 40  1  0  0  0  0
 38 36  1  0  0  0  0
 38 37  1  0  0  0  0
 39 35  1  0  0  0  0
 40 35  1  0  0  0  0
 40 34  1  1  0  0  0
 42 43  2  0  0  0  0
 42 33  1  0  0  0  0
 44 46  1  0  0  0  0
 44 43  1  0  0  0  0
 45 44  2  0  0  0  0
 47 48  1  0  0  0  0
 48 49  1  0  0  0  0
 49 52  1  0  0  0  0
 50 51  2  0  0  0  0
 50 53  1  0  0  0  0
 52 50  1  0  0  0  0
 54 53  1  0  0  0  0
 54 55  1  0  0  0  0
M  END
>  <MODEL>
7

>  <REMARK>
 VINA RESULT:      -4.4      3.529      9.400
  Name = 
  22 active torsions:
  status: ('A' for Active; 'I' for Inactive)
    1  A    between atoms: C_1  and  C_29
    2  A    between atoms: C_2  and  O_28
    3  A    between atoms: C_2  and  C_31
    4  A    between atoms: C_4  and  C_40
    5  A    between atoms: C_6  and  C_14
    6  A    between atoms: C_6  and  C_20
    7  A    between atoms: C_6  and  O_22
    8  A    between atoms: C_8  and  O_22
    9  A    between atoms: C_8  and  C_35
   10  A    between atoms: C_10  and  C_32
   11  A    between atoms: C_13  and  N_48
   12  A    between atoms: C_13  and  C_52
   13  A    between atoms: C_19  and  C_45
   14  A    between atoms: C_26  and  C_49
   15  A    between atoms: C_27  and  C_54
   16  A    between atoms: O_28  and  C_33
   17  A    between atoms: C_32  and  C_39
   18  A    between atoms: C_33  and  C_34
   19  A    between atoms: C_33  and  C_49
   20  A    between atoms: C_34  and  C_52
   21  A    between atoms: C_35  and  O_51
   22  A    between atoms: O_51  and  C_54
                            x       y       z     vdW  Elec       q    Type
                         _______ _______ _______ _____ _____    ______ ____

>  <TORSDO>
F 22

$$$$
=
 OpenBabel11052415133D

 55 57  0  0  1  0  0  0  0  0999 V2000
  185.5700  178.0860  143.4320 S   0  0  0  0  0  0  0  0  0  0  0  0
  187.2210  178.0670  140.8650 C   0  0  2  0  0  3  0  0  0  0  0  0
  186.0670  179.0780  140.8820 C   0  0  2  0  0  3  0  0  0  0  0  0
  187.3600  177.6740  143.3610 C   0  0  0  0  0  2  0  0  0  0  0  0
  185.6410  179.5090  142.2900 C   0  0  0  0  0  2  0  0  0  0  0  0
  188.0870  178.2010  142.1170 C   0  0  0  0  0  2  0  0  0  0  0  0
  188.0540  178.3200  139.6210 C   0  0  0  0  0  2  0  0  0  0  0  0
  188.0160  177.2240  138.7580 O   0  0  0  0  0  0  0  0  0  0  0  0
  189.3650  176.9700  138.4900 C   0  0  0  0  0  2  0  0  0  0  0  0
  189.5380  176.4010  137.0900 C   0  0  1  0  0  3  0  0  0  0  0  0
  188.7060  177.2360  136.1330 C   0  0  0  0  0  1  0  0  0  0  0  0
  190.8990  176.4610  136.7180 O   0  0  0  0  0  0  0  0  0  0  0  0
  191.5100  175.1900  136.9030 C   0  0  2  0  0  0  0  0  0  0  0  0
  191.9450  175.0470  138.2220 F   0  0  0  0  0  0  0  0  0  0  0  0
  194.5760  174.9020  137.7550 C   0  0  0  0  0  2  0  0  0  0  0  0
  193.9260  177.1220  136.9010 C   0  0  0  0  0  1  0  0  0  0  0  0
  192.4160  175.7520  134.6090 C   0  0  0  0  0  1  0  0  0  0  0  0
  192.7510  175.0490  135.9330 C   0  0  1  0  0  0  0  0  0  0  0  0
  194.1450  172.8700  136.2980 C   0  0  0  0  0  2  0  0  0  0  0  0
  195.2040  175.6140  135.4840 C   0  0  0  0  0  1  0  0  0  0  0  0
  194.3100  173.3880  137.7170 C   0  0  1  0  0  3  0  0  0  0  0  0
  194.0810  175.6660  136.5180 C   0  0  0  0  0  0  0  0  0  0  0  0
  192.9630  173.5480  135.5850 C   0  0  0  0  0  2  0  0  0  0  0  0
  195.4050  172.6510  138.4180 C   0  0  0  0  0  0  0  0  0  0  0  0
  195.5060  171.2360  138.3300 N   0  0  0  0  0  1  0  0  0  0  0  0
  196.2470  173.3000  139.0990 O   0  0  0  0  0  0  0  0  0  0  0  0
  190.0770  173.3630  137.5470 O   0  0  0  0  0  1  0  0  0  0  0  0
  190.4890  174.1000  136.6180 C   0  0  0  0  0  0  0  0  0  0  0  0
  190.0240  173.8900  135.3260 O   0  0  0  0  0  0  0  0  0  0  0  0
  184.8810  178.5480  140.0930 C   0  0  0  0  0  2  0  0  0  0  0  0
  184.7530  179.2860  138.9010 O   0  0  0  0  0  0  0  0  0  0  0  0
  183.4970  178.9950  138.3150 C   0  0  1  0  0  3  0  0  0  0  0  0
  184.4920  177.0580  137.1850 C   0  0  0  0  0  3  0  0  0  0  0  0
  183.3800  177.6100  137.6950 C   0  0  0  0  0  0  0  0  0  0  0  0
  181.6560  176.7130  136.1120 C   0  0  0  0  0  2  0  0  0  0  0  0
  180.2660  174.7370  136.7520 C   0  0  0  0  0  2  0  0  0  0  0  0
  181.9800  175.6020  138.3630 C   0  0  1  0  0  3  0  0  0  0  0  0
  180.6060  174.9530  138.2240 C   0  0  0  0  0  2  0  0  0  0  0  0
  180.2720  176.0690  136.0110 C   0  0  0  0  0  2  0  0  0  0  0  0
  182.0420  176.9190  137.5770 C   0  0  1  0  0  3  0  0  0  0  0  0
  182.2460  175.8280  139.7110 O   0  0  0  0  0  1  0  0  0  0  0  0
  184.6540  175.7310  136.5600 C   0  0  0  0  0  3  0  0  0  0  0  0
  185.6480  174.8880  136.8230 C   0  0  0  0  0  3  0  0  0  0  0  0
  185.7740  173.6020  136.1290 C   0  0  0  0  0  0  0  0  0  0  0  0
  185.2690  172.5680  136.6450 O   0  0  0  0  0  0  0  0  0  0  0  0
  186.4860  173.4940  134.8990 N   0  0  0  0  0  1  0  0  0  0  0  0
  182.3160  179.4410  139.1820 C   0  0  0  0  0  2  0  0  0  0  0  0
  181.8550  180.8210  138.7570 C   0  0  0  0  0  2  0  0  0  0  0  0
  180.9440  180.6860  137.5590 C   0  0  0  0  0  2  0  0  0  0  0  0
  180.5280  182.0950  135.5080 C   0  0  0  0  0  0  0  0  0  0  0  0
  180.5280  181.0790  134.7670 O   0  0  0  0  0  0  0  0  0  0  0  0
  180.7800  181.9760  136.9080 N   0  0  0  0  0  2  0  0  0  0  0  0
  180.2920  183.4380  134.9120 C   0  0  0  0  0  2  0  0  0  0  0  0
  180.0930  184.4870  135.9930 C   0  0  0  0  0  2  0  0  0  0  0  0
  181.2480  185.3650  136.0600 N   0  0  0  0  0  1  0  0  0  0  0  0
  2  7  1  6  0  0  0
  2  3  1  0  0  0  0
  2  6  1  0  0  0  0
  3 30  1  1  0  0  0
  3  5  1  0  0  0  0
  4  1  1  0  0  0  0
  5  1  1  0  0  0  0
  6  4  1  0  0  0  0
  8  7  1  0  0  0  0
  9  8  1  0  0  0  0
 10 11  1  6  0  0  0
 10  9  1  0  0  0  0
 12 13  1  0  0  0  0
 12 10  1  0  0  0  0
 13 14  1  1  0  0  0
 18 17  1  6  0  0  0
 18 22  1  0  0  0  0
 18 13  1  0  0  0  0
 19 21  1  0  0  0  0
 20 22  1  0  0  0  0
 21 15  1  0  0  0  0
 21 24  1  6  0  0  0
 22 16  1  0  0  0  0
 22 15  1  0  0  0  0
 23 18  1  0  0  0  0
 23 19  1  0  0  0  0
 24 26  2  0  0  0  0
 25 24  1  0  0  0  0
 28 13  1  0  0  0  0
 28 27  1  0  0  0  0
 29 28  2  0  0  0  0
 31 30  1  0  0  0  0
 32 31  1  0  0  0  0
 32 47  1  1  0  0  0
 33 34  2  0  0  0  0
 34 32  1  0  0  0  0
 35 40  1  0  0  0  0
 36 38  1  0  0  0  0
 37 41  1  1  0  0  0
 38 37  1  0  0  0  0
 39 35  1  0  0  0  0
 39 36  1  0  0  0  0
 40 34  1  6  0  0  0
 40 37  1  0  0  0  0
 42 43  2  0  0  0  0
 42 33  1  0  0  0  0
 44 45  2  0  0  0  0
 44 43  1  0  0  0  0
 46 44  1  0  0  0  0
 48 47  1  0  0  0  0
 49 48  1  0  0  0  0
 50 52  1  0  0  0  0
 51 50  2  0  0  0  0
 52 49  1  0  0  0  0
 53 50  1  0  0  0  0
 53 54  1  0  0  0  0
 54 55  1  0  0  0  0
M  END
>  <MODEL>
8

>  <REMARK>
 VINA RESULT:      -4.3      3.744      9.676
  Name = 
  22 active torsions:
  status: ('A' for Active; 'I' for Inactive)
    1  A    between atoms: C_1  and  C_29
    2  A    between atoms: C_2  and  O_28
    3  A    between atoms: C_2  and  C_31
    4  A    between atoms: C_4  and  C_40
    5  A    between atoms: C_6  and  C_14
    6  A    between atoms: C_6  and  C_20
    7  A    between atoms: C_6  and  O_22
    8  A    between atoms: C_8  and  O_22
    9  A    between atoms: C_8  and  C_35
   10  A    between atoms: C_10  and  C_32
   11  A    between atoms: C_13  and  N_48
   12  A    between atoms: C_13  and  C_52
   13  A    between atoms: C_19  and  C_45
   14  A    between atoms: C_26  and  C_49
   15  A    between atoms: C_27  and  C_54
   16  A    between atoms: O_28  and  C_33
   17  A    between atoms: C_32  and  C_39
   18  A    between atoms: C_33  and  C_34
   19  A    between atoms: C_33  and  C_49
   20  A    between atoms: C_34  and  C_52
   21  A    between atoms: C_35  and  O_51
   22  A    between atoms: O_51  and  C_54
                            x       y       z     vdW  Elec       q    Type
                         _______ _______ _______ _____ _____    ______ ____

>  <TORSDO>
F 22

$$$$
=
 OpenBabel11052415133D

 55 57  0  0  1  0  0  0  0  0999 V2000
  186.1810  177.7940  143.8300 S   0  0  0  0  0  0  0  0  0  0  0  0
  187.9140  177.8150  141.3170 C   0  0  2  0  0  3  0  0  0  0  0  0
  186.7870  178.8570  141.3320 C   0  0  2  0  0  3  0  0  0  0  0  0
  187.9610  177.3350  143.8010 C   0  0  0  0  0  2  0  0  0  0  0  0
  186.3270  179.2520  142.7400 C   0  0  0  0  0  2  0  0  0  0  0  0
  188.7420  177.8830  142.6000 C   0  0  0  0  0  2  0  0  0  0  0  0
  188.7930  178.0860  140.1090 C   0  0  0  0  0  2  0  0  0  0  0  0
  188.7070  177.0480  139.1800 O   0  0  0  0  0  0  0  0  0  0  0  0
  190.0440  176.7760  138.8690 C   0  0  0  0  0  2  0  0  0  0  0  0
  190.1860  176.3860  137.4050 C   0  0  1  0  0  3  0  0  0  0  0  0
  189.4260  177.3990  136.5690 C   0  0  0  0  0  1  0  0  0  0  0  0
  191.5510  176.3930  137.0430 O   0  0  0  0  0  0  0  0  0  0  0  0
  192.0180  175.0600  136.8830 C   0  0  2  0  0  0  0  0  0  0  0  0
  192.0500  174.4050  138.1160 F   0  0  0  0  0  0  0  0  0  0  0  0
  194.4760  173.2140  137.7560 C   0  0  0  0  0  2  0  0  0  0  0  0
  194.5820  175.5480  138.5440 C   0  0  0  0  0  1  0  0  0  0  0  0
  193.7660  176.4870  135.7410 C   0  0  0  0  0  1  0  0  0  0  0  0
  193.4760  175.0750  136.2710 C   0  0  1  0  0  0  0  0  0  0  0  0
  194.2340  172.7850  135.2680 C   0  0  0  0  0  2  0  0  0  0  0  0
  195.9870  174.8380  136.6910 C   0  0  0  0  0  1  0  0  0  0  0  0
  193.9740  172.2520  136.6660 C   0  0  1  0  0  3  0  0  0  0  0  0
  194.5990  174.6770  137.3070 C   0  0  0  0  0  0  0  0  0  0  0  0
  193.5250  174.1300  135.0370 C   0  0  0  0  0  2  0  0  0  0  0  0
  194.5970  170.9050  136.8370 C   0  0  0  0  0  0  0  0  0  0  0  0
  194.4780  169.9120  135.8260 N   0  0  0  0  0  1  0  0  0  0  0  0
  195.2350  170.6500  137.8960 O   0  0  0  0  0  0  0  0  0  0  0  0
  190.6270  173.1790  136.3070 O   0  0  0  0  0  1  0  0  0  0  0  0
  191.0680  174.3040  135.9690 C   0  0  0  0  0  0  0  0  0  0  0  0
  190.7000  174.8370  134.7390 O   0  0  0  0  0  0  0  0  0  0  0  0
  185.6140  178.3870  140.4890 C   0  0  0  0  0  2  0  0  0  0  0  0
  185.5820  179.1250  139.2900 O   0  0  0  0  0  0  0  0  0  0  0  0
  184.4400  178.7430  138.5470 C   0  0  1  0  0  3  0  0  0  0  0  0
  185.7020  177.0260  137.3290 C   0  0  0  0  0  3  0  0  0  0  0  0
  184.5310  177.3760  137.8840 C   0  0  0  0  0  0  0  0  0  0  0  0
  182.6490  176.2930  139.1370 C   0  0  0  0  0  2  0  0  0  0  0  0
  180.4600  175.8710  138.0060 C   0  0  0  0  0  2  0  0  0  0  0  0
  182.3160  176.9580  136.7170 C   0  0  1  0  0  3  0  0  0  0  0  0
  181.1210  176.0110  136.6380 C   0  0  0  0  0  2  0  0  0  0  0  0
  181.4630  175.3330  139.0200 C   0  0  0  0  0  2  0  0  0  0  0  0
  183.3190  176.4790  137.7750 C   0  0  1  0  0  3  0  0  0  0  0  0
  182.9260  177.0320  135.4680 O   0  0  0  0  0  1  0  0  0  0  0  0
  186.0590  175.7610  136.6570 C   0  0  0  0  0  3  0  0  0  0  0  0
  186.8140  174.8080  137.1930 C   0  0  0  0  0  3  0  0  0  0  0  0
  187.1680  173.5950  136.4500 C   0  0  0  0  0  0  0  0  0  0  0  0
  187.0990  173.5970  135.1900 O   0  0  0  0  0  0  0  0  0  0  0  0
  187.5570  172.4020  137.1260 N   0  0  0  0  0  1  0  0  0  0  0  0
  183.1260  179.0480  139.2700 C   0  0  0  0  0  2  0  0  0  0  0  0
  182.2950  180.0120  138.4470 C   0  0  0  0  0  2  0  0  0  0  0  0
  180.9090  180.0990  139.0440 C   0  0  0  0  0  2  0  0  0  0  0  0
  180.4490  179.2590  141.3780 C   0  0  0  0  0  0  0  0  0  0  0  0
  179.7920  178.2820  140.9360 O   0  0  0  0  0  0  0  0  0  0  0  0
  180.9940  180.2340  140.4890 N   0  0  0  0  0  2  0  0  0  0  0  0
  180.6350  179.4130  142.8460 C   0  0  0  0  0  2  0  0  0  0  0  0
  182.0790  179.1560  143.2440 C   0  0  0  0  0  2  0  0  0  0  0  0
  182.1420  178.6440  144.6020 N   0  0  0  0  0  1  0  0  0  0  0  0
  2  7  1  6  0  0  0
  2  3  1  0  0  0  0
  2  6  1  0  0  0  0
  3 30  1  6  0  0  0
  3  5  1  0  0  0  0
  4  1  1  0  0  0  0
  5  1  1  0  0  0  0
  6  4  1  0  0  0  0
  8  7  1  0  0  0  0
  9  8  1  0  0  0  0
 10 11  1  6  0  0  0
 10  9  1  0  0  0  0
 12 10  1  0  0  0  0
 13 12  1  0  0  0  0
 13 14  1  1  0  0  0
 18 17  1  6  0  0  0
 18 13  1  0  0  0  0
 18 22  1  0  0  0  0
 19 21  1  0  0  0  0
 20 22  1  0  0  0  0
 21 24  1  6  0  0  0
 21 15  1  0  0  0  0
 22 15  1  0  0  0  0
 22 16  1  0  0  0  0
 23 19  1  0  0  0  0
 23 18  1  0  0  0  0
 24 26  2  0  0  0  0
 25 24  1  0  0  0  0
 28 27  1  0  0  0  0
 28 13  1  0  0  0  0
 29 28  2  0  0  0  0
 31 30  1  0  0  0  0
 32 47  1  1  0  0  0
 32 31  1  0  0  0  0
 33 34  2  0  0  0  0
 34 32  1  0  0  0  0
 36 39  1  0  0  0  0
 37 41  1  6  0  0  0
 37 40  1  0  0  0  0
 38 37  1  0  0  0  0
 38 36  1  0  0  0  0
 39 35  1  0  0  0  0
 40 34  1  1  0  0  0
 40 35  1  0  0  0  0
 42 43  2  0  0  0  0
 42 33  1  0  0  0  0
 44 46  1  0  0  0  0
 44 43  1  0  0  0  0
 45 44  2  0  0  0  0
 48 49  1  0  0  0  0
 48 47  1  0  0  0  0
 49 52  1  0  0  0  0
 50 53  1  0  0  0  0
 51 50  2  0  0  0  0
 52 50  1  0  0  0  0
 53 54  1  0  0  0  0
 54 55  1  0  0  0  0
M  END
>  <MODEL>
9

>  <REMARK>
 VINA RESULT:      -4.2      3.253      8.728
  Name = 
  22 active torsions:
  status: ('A' for Active; 'I' for Inactive)
    1  A    between atoms: C_1  and  C_29
    2  A    between atoms: C_2  and  O_28
    3  A    between atoms: C_2  and  C_31
    4  A    between atoms: C_4  and  C_40
    5  A    between atoms: C_6  and  C_14
    6  A    between atoms: C_6  and  C_20
    7  A    between atoms: C_6  and  O_22
    8  A    between atoms: C_8  and  O_22
    9  A    between atoms: C_8  and  C_35
   10  A    between atoms: C_10  and  C_32
   11  A    between atoms: C_13  and  N_48
   12  A    between atoms: C_13  and  C_52
   13  A    between atoms: C_19  and  C_45
   14  A    between atoms: C_26  and  C_49
   15  A    between atoms: C_27  and  C_54
   16  A    between atoms: O_28  and  C_33
   17  A    between atoms: C_32  and  C_39
   18  A    between atoms: C_33  and  C_34
   19  A    between atoms: C_33  and  C_49
   20  A    between atoms: C_34  and  C_52
   21  A    between atoms: C_35  and  O_51
   22  A    between atoms: O_51  and  C_54
                            x       y       z     vdW  Elec       q    Type
                         _______ _______ _______ _____ _____    ______ ____

>  <TORSDO>
F 22

$$$$
