=
 OpenBabel11052414213D

 34 38  0  0  1  0  0  0  0  0999 V2000
  189.5560  177.0440  146.3930 C   0  0  0  0  0  0  0  0  0  0  0  0
  191.2550  176.2130  144.7310 C   0  0  2  0  0  3  0  0  0  0  0  0
  189.0190  177.3410  144.0160 C   0  0  0  0  0  0  0  0  0  0  0  0
  188.3690  177.7690  141.6940 C   0  0  0  0  0  0  0  0  0  0  0  0
  190.4880  176.8340  147.4080 O   0  0  0  0  0  0  0  0  0  0  0  0
  192.1180  175.8680  145.9540 C   0  0  0  0  0  2  0  0  0  0  0  0
  190.6800  177.2950  142.1630 C   0  0  0  0  0  3  0  0  0  0  0  0
  189.9300  176.9080  145.0380 C   0  0  0  0  0  0  0  0  0  0  0  0
  190.9710  177.4060  140.8050 C   0  0  0  0  0  3  0  0  0  0  0  0
  188.6750  177.8650  140.3710 N   0  0  0  0  0  0  0  0  0  0  0  0
  191.8760  176.8130  147.1150 C   0  0  0  0  0  2  0  0  0  0  0  0
  187.6860  177.6890  144.3940 C   0  0  0  0  0  0  0  0  0  0  0  0
  188.2590  177.4000  146.7370 C   0  0  0  0  0  3  0  0  0  0  0  0
  190.9950  174.9030  144.0030 C   0  0  0  0  0  1  0  0  0  0  0  0
  187.1030  178.0190  142.0960 N   0  0  0  0  0  0  0  0  0  0  0  0
  186.7260  178.0130  143.4010 C   0  0  0  0  0  0  0  0  0  0  0  0
  189.9410  177.6890  139.9110 C   0  0  0  0  0  0  0  0  0  0  0  0
  189.3680  177.4480  142.6380 C   0  0  0  0  0  0  0  0  0  0  0  0
  187.3320  177.6900  145.7490 C   0  0  0  0  0  3  0  0  0  0  0  0
  183.0400  178.7130  142.9110 C   0  0  0  0  0  0  0  0  0  0  0  0
  182.6610  179.0640  144.2070 C   0  0  0  0  0  3  0  0  0  0  0  0
  185.3070  178.3510  143.6980 C   0  0  0  0  0  0  0  0  0  0  0  0
  183.5810  179.0660  145.2070 N   0  0  0  0  0  0  0  0  0  0  0  0
  184.3670  178.3630  142.6590 C   0  0  0  0  0  3  0  0  0  0  0  0
  184.8790  178.7260  144.9810 C   0  0  0  0  0  3  0  0  0  0  0  0
  182.0440  178.7180  141.8100 C   0  0  0  0  0  1  0  0  0  0  0  0
  190.2230  177.7810  138.4540 C   0  0  0  0  0  2  0  0  0  0  0  0
  188.9960  177.3650  137.6620 C   0  0  0  0  0  2  0  0  0  0  0  0
  189.0390  179.7230  137.2610 O   0  0  0  0  0  1  0  0  0  0  0  0
  188.4960  178.5200  136.8090 C   0  0  2  0  0  3  0  0  0  0  0  0
  186.9620  178.5970  136.7410 C   0  0  0  0  0  2  0  0  0  0  0  0
  185.4460  178.8860  138.6030 O   0  0  0  0  0  1  0  0  0  0  0  0
  186.2120  177.9490  137.9090 C   0  0  0  0  0  3  0  0  0  0  0  0
  185.4040  176.8980  137.4730 O   0  0  0  0  0  1  0  0  0  0  0  0
  1 13  1  0  0  0  0
  1  5  1  0  0  0  0
  2 14  1  1  0  0  0
  2  8  1  0  0  0  0
  2  6  1  0  0  0  0
  3 12  2  0  0  0  0
  3  8  1  0  0  0  0
  4 15  1  0  0  0  0
  4 18  1  0  0  0  0
  6 11  1  0  0  0  0
  7 18  2  0  0  0  0
  8  1  2  0  0  0  0
  9  7  1  0  0  0  0
 10  4  2  0  0  0  0
 11  5  1  0  0  0  0
 12 19  1  0  0  0  0
 15 16  2  0  0  0  0
 16 22  1  0  0  0  0
 16 12  1  0  0  0  0
 17 10  1  0  0  0  0
 17  9  2  0  0  0  0
 18  3  1  0  0  0  0
 19 13  2  0  0  0  0
 20 21  1  0  0  0  0
 21 23  2  0  0  0  0
 22 25  2  0  0  0  0
 24 20  2  0  0  0  0
 24 22  1  0  0  0  0
 25 23  1  0  0  0  0
 26 20  1  0  0  0  0
 27 17  1  0  0  0  0
 28 27  1  0  0  0  0
 30 29  1  1  0  0  0
 30 28  1  0  0  0  0
 31 30  1  0  0  0  0
 31 33  1  0  0  0  0
 33 32  1  0  0  0  0
 34 33  1  0  0  0  0
M  END
>  <MODEL>
1

>  <REMARK>
 VINA RESULT:     -10.0      0.000      0.000
  Name = 
  6 active torsions:
  status: ('A' for Active; 'I' for Inactive)
    1  A    between atoms: C_3  and  C_13
    2  A    between atoms: C_3  and  C_29
    3  A    between atoms: C_12  and  C_28
    4  A    between atoms: C_13  and  C_33
    5  A    between atoms: C_20  and  C_22
    6  A    between atoms: C_22  and  C_33
                            x       y       z     vdW  Elec       q    Type
                         _______ _______ _______ _____ _____    ______ ____

>  <TORSDO>
F 6

$$$$
=
 OpenBabel11052414213D

 34 38  0  0  1  0  0  0  0  0999 V2000
  189.1000  177.1650  145.7340 C   0  0  0  0  0  0  0  0  0  0  0  0
  190.7110  176.5080  143.9130 C   0  0  2  0  0  3  0  0  0  0  0  0
  188.4060  177.6180  143.4230 C   0  0  0  0  0  0  0  0  0  0  0  0
  187.6000  178.1950  141.1840 C   0  0  0  0  0  0  0  0  0  0  0  0
  190.1000  176.9080  146.6720 O   0  0  0  0  0  0  0  0  0  0  0  0
  191.6580  176.1000  145.0520 C   0  0  0  0  0  2  0  0  0  0  0  0
  189.9480  177.7580  141.4730 C   0  0  0  0  0  3  0  0  0  0  0  0
  189.3910  177.1390  144.3520 C   0  0  0  0  0  0  0  0  0  0  0  0
  190.1490  177.9770  140.1120 C   0  0  0  0  0  3  0  0  0  0  0  0
  187.8190  178.3970  139.8560 N   0  0  0  0  0  0  0  0  0  0  0  0
  191.4670  176.9500  146.2920 C   0  0  0  0  0  2  0  0  0  0  0  0
  187.0920  177.8980  143.9080 C   0  0  0  0  0  0  0  0  0  0  0  0
  187.8200  177.4550  146.1830 C   0  0  0  0  0  3  0  0  0  0  0  0
  190.4390  175.2480  143.1070 C   0  0  0  0  0  1  0  0  0  0  0  0
  186.3560  178.3770  141.6810 N   0  0  0  0  0  0  0  0  0  0  0  0
  186.0630  178.2640  143.0020 C   0  0  0  0  0  0  0  0  0  0  0  0
  189.0570  178.2930  139.3070 C   0  0  0  0  0  0  0  0  0  0  0  0
  188.6650  177.8360  142.0380 C   0  0  0  0  0  0  0  0  0  0  0  0
  186.8240  177.7890  145.2780 C   0  0  0  0  0  3  0  0  0  0  0  0
  182.3250  178.8160  142.8010 C   0  0  0  0  0  0  0  0  0  0  0  0
  182.0300  179.1300  144.1280 C   0  0  0  0  0  3  0  0  0  0  0  0
  184.6580  178.5380  143.4100 C   0  0  0  0  0  0  0  0  0  0  0  0
  183.0220  179.1540  145.0560 N   0  0  0  0  0  0  0  0  0  0  0  0
  183.6420  178.5260  142.4440 C   0  0  0  0  0  3  0  0  0  0  0  0
  184.3120  178.8740  144.7280 C   0  0  0  0  0  3  0  0  0  0  0  0
  181.2490  178.7960  141.7770 C   0  0  0  0  0  1  0  0  0  0  0  0
  189.2440  178.5000  137.8460 C   0  0  0  0  0  2  0  0  0  0  0  0
  187.9910  178.0780  137.1000 C   0  0  0  0  0  2  0  0  0  0  0  0
  187.3850  175.7900  137.4480 O   0  0  0  0  0  1  0  0  0  0  0  0
  188.1160  176.6410  136.6190 C   0  0  2  0  0  3  0  0  0  0  0  0
  189.5750  176.1720  136.4980 C   0  0  0  0  0  2  0  0  0  0  0  0
  190.5190  173.9500  136.3540 O   0  0  0  0  0  1  0  0  0  0  0  0
  189.9140  174.8630  137.2180 C   0  0  0  0  0  3  0  0  0  0  0  0
  190.7340  175.0900  138.3240 O   0  0  0  0  0  1  0  0  0  0  0  0
  1 13  1  0  0  0  0
  1  5  1  0  0  0  0
  2 14  1  1  0  0  0
  2  8  1  0  0  0  0
  2  6  1  0  0  0  0
  3 12  2  0  0  0  0
  3  8  1  0  0  0  0
  4 15  1  0  0  0  0
  4 18  1  0  0  0  0
  6 11  1  0  0  0  0
  7 18  2  0  0  0  0
  8  1  2  0  0  0  0
  9  7  1  0  0  0  0
 10  4  2  0  0  0  0
 11  5  1  0  0  0  0
 12 19  1  0  0  0  0
 15 16  2  0  0  0  0
 16 22  1  0  0  0  0
 16 12  1  0  0  0  0
 17 10  1  0  0  0  0
 17  9  2  0  0  0  0
 18  3  1  0  0  0  0
 19 13  2  0  0  0  0
 20 21  1  0  0  0  0
 21 23  2  0  0  0  0
 22 25  2  0  0  0  0
 24 20  2  0  0  0  0
 24 22  1  0  0  0  0
 25 23  1  0  0  0  0
 26 20  1  0  0  0  0
 27 17  1  0  0  0  0
 28 27  1  0  0  0  0
 30 28  1  0  0  0  0
 30 29  1  1  0  0  0
 31 30  1  0  0  0  0
 31 33  1  0  0  0  0
 32 33  1  0  0  0  0
 33 34  1  0  0  0  0
M  END
>  <MODEL>
2

>  <REMARK>
 VINA RESULT:      -9.9      1.707      2.243
  Name = 
  6 active torsions:
  status: ('A' for Active; 'I' for Inactive)
    1  A    between atoms: C_3  and  C_13
    2  A    between atoms: C_3  and  C_29
    3  A    between atoms: C_12  and  C_28
    4  A    between atoms: C_13  and  C_33
    5  A    between atoms: C_20  and  C_22
    6  A    between atoms: C_22  and  C_33
                            x       y       z     vdW  Elec       q    Type
                         _______ _______ _______ _____ _____    ______ ____

>  <TORSDO>
F 6

$$$$
=
 OpenBabel11052414213D

 34 38  0  0  1  0  0  0  0  0999 V2000
  184.3440  178.7470  144.9530 C   0  0  0  0  0  0  0  0  0  0  0  0
  186.7160  177.9320  144.7330 C   0  0  2  0  0  3  0  0  0  0  0  0
  185.2510  178.5770  142.6780 C   0  0  0  0  0  0  0  0  0  0  0  0
  186.0290  178.5270  140.3570 C   0  0  0  0  0  0  0  0  0  0  0  0
  184.5350  178.8450  146.3310 O   0  0  0  0  0  0  0  0  0  0  0  0
  186.7370  177.9210  146.2680 C   0  0  0  0  0  2  0  0  0  0  0  0
  187.6740  178.4920  142.1120 C   0  0  0  0  0  3  0  0  0  0  0  0
  185.4290  178.4560  144.0980 C   0  0  0  0  0  0  0  0  0  0  0  0
  188.6840  178.4290  141.1550 C   0  0  0  0  0  3  0  0  0  0  0  0
  187.0320  178.4570  139.4400 N   0  0  0  0  0  0  0  0  0  0  0  0
  185.8420  178.9900  146.8640 C   0  0  0  0  0  2  0  0  0  0  0  0
  183.9290  178.7730  142.1720 C   0  0  0  0  0  0  0  0  0  0  0  0
  183.0710  178.9510  144.4380 C   0  0  0  0  0  3  0  0  0  0  0  0
  186.9640  176.4990  144.2880 C   0  0  0  0  0  1  0  0  0  0  0  0
  184.7530  178.6410  139.9280 N   0  0  0  0  0  0  0  0  0  0  0  0
  183.6980  178.7850  140.7720 C   0  0  0  0  0  0  0  0  0  0  0  0
  188.3390  178.4050  139.8050 C   0  0  0  0  0  0  0  0  0  0  0  0
  186.3200  178.5160  141.7380 C   0  0  0  0  0  0  0  0  0  0  0  0
  182.8650  178.9350  143.0680 C   0  0  0  0  0  3  0  0  0  0  0  0
  180.9210  180.0390  138.5290 C   0  0  0  0  0  0  0  0  0  0  0  0
  179.8300  179.3320  139.0360 C   0  0  0  0  0  3  0  0  0  0  0  0
  182.3530  178.9450  140.1550 C   0  0  0  0  0  0  0  0  0  0  0  0
  180.0000  178.4720  140.0730 N   0  0  0  0  0  0  0  0  0  0  0  0
  182.1810  179.8470  139.0960 C   0  0  0  0  0  3  0  0  0  0  0  0
  181.2210  178.2710  140.6380 C   0  0  0  0  0  3  0  0  0  0  0  0
  180.7430  180.9890  137.4010 C   0  0  0  0  0  1  0  0  0  0  0  0
  189.4000  178.3070  138.7680 C   0  0  0  0  0  2  0  0  0  0  0  0
  189.3170  176.9610  138.0700 C   0  0  0  0  0  2  0  0  0  0  0  0
  190.5550  174.9150  138.1370 O   0  0  0  0  0  1  0  0  0  0  0  0
  190.6850  176.2990  138.0260 C   0  0  2  0  0  3  0  0  0  0  0  0
  191.6540  176.8490  139.0860 C   0  0  0  0  0  2  0  0  0  0  0  0
  193.5050  176.8710  137.5290 O   0  0  0  0  0  1  0  0  0  0  0  0
  193.1390  176.5630  138.8400 C   0  0  0  0  0  3  0  0  0  0  0  0
  193.9450  177.2630  139.7390 O   0  0  0  0  0  1  0  0  0  0  0  0
  1  5  1  0  0  0  0
  2 14  1  6  0  0  0
  2  6  1  0  0  0  0
  3  8  1  0  0  0  0
  4 18  1  0  0  0  0
  5 11  1  0  0  0  0
  6 11  1  0  0  0  0
  8  2  1  0  0  0  0
  8  1  2  0  0  0  0
  9  7  1  0  0  0  0
 10 17  1  0  0  0  0
 10  4  2  0  0  0  0
 12  3  2  0  0  0  0
 12 19  1  0  0  0  0
 13  1  1  0  0  0  0
 15  4  1  0  0  0  0
 15 16  2  0  0  0  0
 16 12  1  0  0  0  0
 17  9  2  0  0  0  0
 18  7  2  0  0  0  0
 18  3  1  0  0  0  0
 19 13  2  0  0  0  0
 20 21  2  0  0  0  0
 20 24  1  0  0  0  0
 21 23  1  0  0  0  0
 22 25  1  0  0  0  0
 22 16  1  0  0  0  0
 23 25  2  0  0  0  0
 24 22  2  0  0  0  0
 26 20  1  0  0  0  0
 27 17  1  0  0  0  0
 28 27  1  0  0  0  0
 30 28  1  0  0  0  0
 30 29  1  1  0  0  0
 30 31  1  0  0  0  0
 32 33  1  0  0  0  0
 33 31  1  0  0  0  0
 33 34  1  0  0  0  0
M  END
>  <MODEL>
3

>  <REMARK>
 VINA RESULT:      -9.7      3.201      5.009
  Name = 
  6 active torsions:
  status: ('A' for Active; 'I' for Inactive)
    1  A    between atoms: C_3  and  C_13
    2  A    between atoms: C_3  and  C_29
    3  A    between atoms: C_12  and  C_28
    4  A    between atoms: C_13  and  C_33
    5  A    between atoms: C_20  and  C_22
    6  A    between atoms: C_22  and  C_33
                            x       y       z     vdW  Elec       q    Type
                         _______ _______ _______ _____ _____    ______ ____

>  <TORSDO>
F 6

$$$$
=
 OpenBabel11052414213D

 34 38  0  0  1  0  0  0  0  0999 V2000
  188.8110  177.2870  146.1800 C   0  0  0  0  0  0  0  0  0  0  0  0
  186.6760  178.2900  147.0600 C   0  0  2  0  0  3  0  0  0  0  0  0
  187.1070  177.8970  144.5220 C   0  0  0  0  0  0  0  0  0  0  0  0
  185.4860  178.3880  142.7530 C   0  0  0  0  0  0  0  0  0  0  0  0
  189.1710  176.9740  147.4900 O   0  0  0  0  0  0  0  0  0  0  0  0
  187.2670  178.0460  148.4560 C   0  0  0  0  0  2  0  0  0  0  0  0
  184.6930  178.2430  145.0200 C   0  0  0  0  0  3  0  0  0  0  0  0
  187.5240  177.7920  145.8910 C   0  0  0  0  0  0  0  0  0  0  0  0
  183.4030  178.5340  144.5800 C   0  0  0  0  0  3  0  0  0  0  0  0
  184.2200  178.6790  142.3470 N   0  0  0  0  0  0  0  0  0  0  0  0
  188.1770  176.8330  148.4930 C   0  0  0  0  0  2  0  0  0  0  0  0
  188.0810  177.6970  143.4960 C   0  0  0  0  0  0  0  0  0  0  0  0
  189.7370  177.0850  145.1650 C   0  0  0  0  0  3  0  0  0  0  0  0
  186.4620  179.7910  146.9390 C   0  0  0  0  0  1  0  0  0  0  0  0
  186.4610  178.2580  141.8260 N   0  0  0  0  0  0  0  0  0  0  0  0
  187.7350  177.9030  142.1360 C   0  0  0  0  0  0  0  0  0  0  0  0
  183.1850  178.7590  143.2220 C   0  0  0  0  0  0  0  0  0  0  0  0
  185.7710  178.1880  144.1210 C   0  0  0  0  0  0  0  0  0  0  0  0
  189.3830  177.3150  143.8450 C   0  0  0  0  0  3  0  0  0  0  0  0
  189.3050  178.2630  138.7120 C   0  0  0  0  0  0  0  0  0  0  0  0
  190.4170  177.4290  138.8400 C   0  0  0  0  0  3  0  0  0  0  0  0
  188.6910  177.7550  141.0050 C   0  0  0  0  0  0  0  0  0  0  0  0
  190.6450  176.7770  140.0100 N   0  0  0  0  0  0  0  0  0  0  0  0
  188.4410  178.4180  139.7960 C   0  0  0  0  0  3  0  0  0  0  0  0
  189.8140  176.9170  141.0770 C   0  0  0  0  0  3  0  0  0  0  0  0
  189.0420  178.9730  137.4340 C   0  0  0  0  0  1  0  0  0  0  0  0
  181.8220  179.1020  142.7350 C   0  0  0  0  0  2  0  0  0  0  0  0
  181.6260  178.5660  141.3280 C   0  0  0  0  0  2  0  0  0  0  0  0
  179.7080  179.3930  140.1620 O   0  0  0  0  0  1  0  0  0  0  0  0
  181.0550  179.6450  140.4220 C   0  0  2  0  0  3  0  0  0  0  0  0
  181.8470  179.8140  139.1150 C   0  0  0  0  0  2  0  0  0  0  0  0
  183.4810  178.4150  138.0090 O   0  0  0  0  0  1  0  0  0  0  0  0
  183.2650  179.2330  139.1180 C   0  0  0  0  0  3  0  0  0  0  0  0
  184.2270  180.2440  139.1620 O   0  0  0  0  0  1  0  0  0  0  0  0
  1  5  1  0  0  0  0
  2 14  1  6  0  0  0
  2  6  1  0  0  0  0
  3  8  2  0  0  0  0
  4 18  1  0  0  0  0
  5 11  1  0  0  0  0
  6 11  1  0  0  0  0
  8  1  1  0  0  0  0
  8  2  1  0  0  0  0
  9  7  1  0  0  0  0
 10  4  2  0  0  0  0
 10 17  1  0  0  0  0
 12 19  2  0  0  0  0
 12  3  1  0  0  0  0
 13  1  2  0  0  0  0
 15 16  2  0  0  0  0
 15  4  1  0  0  0  0
 16 12  1  0  0  0  0
 17  9  2  0  0  0  0
 18  3  1  0  0  0  0
 18  7  2  0  0  0  0
 19 13  1  0  0  0  0
 20 21  2  0  0  0  0
 20 24  1  0  0  0  0
 21 23  1  0  0  0  0
 22 25  1  0  0  0  0
 22 16  1  0  0  0  0
 23 25  2  0  0  0  0
 24 22  2  0  0  0  0
 26 20  1  0  0  0  0
 27 17  1  0  0  0  0
 28 27  1  0  0  0  0
 30 29  1  6  0  0  0
 30 28  1  0  0  0  0
 31 33  1  0  0  0  0
 31 30  1  0  0  0  0
 32 33  1  0  0  0  0
 33 34  1  0  0  0  0
M  END
>  <MODEL>
4

>  <REMARK>
 VINA RESULT:      -9.6      1.819      5.856
  Name = 
  6 active torsions:
  status: ('A' for Active; 'I' for Inactive)
    1  A    between atoms: C_3  and  C_13
    2  A    between atoms: C_3  and  C_29
    3  A    between atoms: C_12  and  C_28
    4  A    between atoms: C_13  and  C_33
    5  A    between atoms: C_20  and  C_22
    6  A    between atoms: C_22  and  C_33
                            x       y       z     vdW  Elec       q    Type
                         _______ _______ _______ _____ _____    ______ ____

>  <TORSDO>
F 6

$$$$
=
 OpenBabel11052414213D

 34 38  0  0  1  0  0  0  0  0999 V2000
  191.2830  176.3880  144.9280 C   0  0  0  0  0  0  0  0  0  0  0  0
  189.7810  177.2370  146.7630 C   0  0  2  0  0  3  0  0  0  0  0  0
  189.0750  177.2240  144.2560 C   0  0  0  0  0  0  0  0  0  0  0  0
  186.8880  177.9580  143.4330 C   0  0  0  0  0  0  0  0  0  0  0  0
  192.1450  175.8890  145.9040 O   0  0  0  0  0  0  0  0  0  0  0  0
  190.8930  176.7940  147.7260 C   0  0  0  0  0  2  0  0  0  0  0  0
  187.1220  177.4770  145.7790 C   0  0  0  0  0  3  0  0  0  0  0  0
  190.0250  176.9210  145.2880 C   0  0  0  0  0  0  0  0  0  0  0  0
  185.7860  177.8210  145.9750 C   0  0  0  0  0  3  0  0  0  0  0  0
  185.5880  178.2970  143.6500 N   0  0  0  0  0  0  0  0  0  0  0  0
  191.6610  175.5950  147.2050 C   0  0  0  0  0  2  0  0  0  0  0  0
  189.5100  177.1830  142.8960 C   0  0  0  0  0  0  0  0  0  0  0  0
  191.6780  176.3440  143.5990 C   0  0  0  0  0  3  0  0  0  0  0  0
  189.6210  178.7370  146.9500 C   0  0  0  0  0  1  0  0  0  0  0  0
  187.3700  177.9730  142.1710 N   0  0  0  0  0  0  0  0  0  0  0  0
  188.6320  177.5850  141.8560 C   0  0  0  0  0  0  0  0  0  0  0  0
  185.0260  178.2410  144.8860 C   0  0  0  0  0  0  0  0  0  0  0  0
  187.7130  177.5620  144.5080 C   0  0  0  0  0  0  0  0  0  0  0  0
  190.8130  176.7630  142.6010 C   0  0  0  0  0  3  0  0  0  0  0  0
  190.4560  176.8420  138.6240 C   0  0  0  0  0  0  0  0  0  0  0  0
  189.7980  177.7010  137.7440 C   0  0  0  0  0  3  0  0  0  0  0  0
  189.0100  177.6110  140.4160 C   0  0  0  0  0  0  0  0  0  0  0  0
  188.7880  178.4920  138.1930 N   0  0  0  0  0  0  0  0  0  0  0  0
  190.0630  176.8050  139.9620 C   0  0  0  0  0  3  0  0  0  0  0  0
  188.3900  178.4690  139.4940 C   0  0  0  0  0  3  0  0  0  0  0  0
  191.5660  175.9810  138.1440 C   0  0  0  0  0  1  0  0  0  0  0  0
  183.6070  178.6420  145.0780 C   0  0  0  0  0  2  0  0  0  0  0  0
  183.1610  179.5300  143.9300 C   0  0  0  0  0  2  0  0  0  0  0  0
  182.5690  178.6610  141.7810 O   0  0  0  0  0  1  0  0  0  0  0  0
  182.1100  178.8240  143.0890 C   0  0  2  0  0  3  0  0  0  0  0  0
  180.7460  179.5310  143.1110 C   0  0  0  0  0  2  0  0  0  0  0  0
  179.2740  177.8850  142.1240 O   0  0  0  0  0  1  0  0  0  0  0  0
  179.5270  178.6180  143.2830 C   0  0  0  0  0  3  0  0  0  0  0  0
  179.6890  177.7570  144.3690 O   0  0  0  0  0  1  0  0  0  0  0  0
  1  8  1  0  0  0  0
  1  5  1  0  0  0  0
  2 14  1  6  0  0  0
  2  6  1  0  0  0  0
  3 18  1  0  0  0  0
  3  8  2  0  0  0  0
  4 10  2  0  0  0  0
  4 18  1  0  0  0  0
  5 11  1  0  0  0  0
  7  9  1  0  0  0  0
  8  2  1  0  0  0  0
 10 17  1  0  0  0  0
 11  6  1  0  0  0  0
 12  3  1  0  0  0  0
 13  1  2  0  0  0  0
 15  4  1  0  0  0  0
 16 15  2  0  0  0  0
 16 12  1  0  0  0  0
 17 27  1  0  0  0  0
 17  9  2  0  0  0  0
 18  7  2  0  0  0  0
 19 12  2  0  0  0  0
 19 13  1  0  0  0  0
 20 24  1  0  0  0  0
 21 23  1  0  0  0  0
 21 20  2  0  0  0  0
 22 16  1  0  0  0  0
 23 25  2  0  0  0  0
 24 22  2  0  0  0  0
 25 22  1  0  0  0  0
 26 20  1  0  0  0  0
 28 27  1  0  0  0  0
 30 29  1  6  0  0  0
 30 31  1  0  0  0  0
 30 28  1  0  0  0  0
 31 33  1  0  0  0  0
 32 33  1  0  0  0  0
 33 34  1  0  0  0  0
M  END
>  <MODEL>
5

>  <REMARK>
 VINA RESULT:      -9.6      2.381      6.268
  Name = 
  6 active torsions:
  status: ('A' for Active; 'I' for Inactive)
    1  A    between atoms: C_3  and  C_13
    2  A    between atoms: C_3  and  C_29
    3  A    between atoms: C_12  and  C_28
    4  A    between atoms: C_13  and  C_33
    5  A    between atoms: C_20  and  C_22
    6  A    between atoms: C_22  and  C_33
                            x       y       z     vdW  Elec       q    Type
                         _______ _______ _______ _____ _____    ______ ____

>  <TORSDO>
F 6

$$$$
=
 OpenBabel11052414213D

 34 38  0  0  1  0  0  0  0  0999 V2000
  189.5190  177.1560  146.2820 C   0  0  0  0  0  0  0  0  0  0  0  0
  191.5370  176.2290  145.0950 C   0  0  2  0  0  3  0  0  0  0  0  0
  189.5210  177.2890  143.8310 C   0  0  0  0  0  0  0  0  0  0  0  0
  189.4030  177.5560  141.3990 C   0  0  0  0  0  0  0  0  0  0  0  0
  190.2020  177.0210  147.4900 O   0  0  0  0  0  0  0  0  0  0  0  0
  192.1060  175.9730  146.4990 C   0  0  0  0  0  2  0  0  0  0  0  0
  191.5500  177.1320  142.3970 C   0  0  0  0  0  3  0  0  0  0  0  0
  190.1810  176.9320  145.0550 C   0  0  0  0  0  0  0  0  0  0  0  0
  192.1340  177.1540  141.1320 C   0  0  0  0  0  3  0  0  0  0  0  0
  189.9930  177.5650  140.1740 N   0  0  0  0  0  0  0  0  0  0  0  0
  191.6210  176.9910  147.5120 C   0  0  0  0  0  2  0  0  0  0  0  0
  188.1400  177.6510  143.8820 C   0  0  0  0  0  0  0  0  0  0  0  0
  188.1810  177.5240  146.3080 C   0  0  0  0  0  3  0  0  0  0  0  0
  191.4340  174.8710  144.4180 C   0  0  0  0  0  1  0  0  0  0  0  0
  188.0810  177.8220  141.4950 N   0  0  0  0  0  0  0  0  0  0  0  0
  187.4260  177.9000  142.6820 C   0  0  0  0  0  0  0  0  0  0  0  0
  191.3280  177.3680  140.0170 C   0  0  0  0  0  0  0  0  0  0  0  0
  190.1660  177.3060  142.5600 C   0  0  0  0  0  0  0  0  0  0  0  0
  187.4960  177.7400  145.1220 C   0  0  0  0  0  3  0  0  0  0  0  0
  183.9030  178.6960  143.8100 C   0  0  0  0  0  0  0  0  0  0  0  0
  183.2500  178.8120  142.5830 C   0  0  0  0  0  3  0  0  0  0  0  0
  185.9790  178.2470  142.6360 C   0  0  0  0  0  0  0  0  0  0  0  0
  183.9420  178.6400  141.4260 N   0  0  0  0  0  0  0  0  0  0  0  0
  185.2670  178.4070  143.8330 C   0  0  0  0  0  3  0  0  0  0  0  0
  185.2730  178.3590  141.4280 C   0  0  0  0  0  3  0  0  0  0  0  0
  183.1520  178.8730  145.0790 C   0  0  0  0  0  1  0  0  0  0  0  0
  191.9250  177.3650  138.6550 C   0  0  0  0  0  2  0  0  0  0  0  0
  193.0730  176.3720  138.5960 C   0  0  0  0  0  2  0  0  0  0  0  0
  191.5640  174.5980  138.0530 O   0  0  0  0  0  1  0  0  0  0  0  0
  192.7410  175.2290  137.6510 C   0  0  2  0  0  3  0  0  0  0  0  0
  193.8870  174.2160  137.5050 C   0  0  0  0  0  2  0  0  0  0  0  0
  195.4770  173.3140  139.0890 O   0  0  0  0  0  1  0  0  0  0  0  0
  195.1110  174.4660  138.3930 C   0  0  0  0  0  3  0  0  0  0  0  0
  196.1920  174.9370  137.6460 O   0  0  0  0  0  1  0  0  0  0  0  0
  1 13  1  0  0  0  0
  1  5  1  0  0  0  0
  2 14  1  1  0  0  0
  2  6  1  0  0  0  0
  3 12  2  0  0  0  0
  3  8  1  0  0  0  0
  4 15  1  0  0  0  0
  4 18  1  0  0  0  0
  5 11  1  0  0  0  0
  6 11  1  0  0  0  0
  7 18  2  0  0  0  0
  8  2  1  0  0  0  0
  8  1  2  0  0  0  0
  9  7  1  0  0  0  0
 10  4  2  0  0  0  0
 12 19  1  0  0  0  0
 15 16  2  0  0  0  0
 16 12  1  0  0  0  0
 17 10  1  0  0  0  0
 17  9  2  0  0  0  0
 18  3  1  0  0  0  0
 19 13  2  0  0  0  0
 20 24  1  0  0  0  0
 20 26  1  0  0  0  0
 21 20  2  0  0  0  0
 22 16  1  0  0  0  0
 22 24  2  0  0  0  0
 23 25  2  0  0  0  0
 23 21  1  0  0  0  0
 25 22  1  0  0  0  0
 27 17  1  0  0  0  0
 28 27  1  0  0  0  0
 30 29  1  1  0  0  0
 30 28  1  0  0  0  0
 31 30  1  0  0  0  0
 31 33  1  0  0  0  0
 33 32  1  0  0  0  0
 34 33  1  0  0  0  0
M  END
>  <MODEL>
6

>  <REMARK>
 VINA RESULT:      -9.5      3.008      4.047
  Name = 
  6 active torsions:
  status: ('A' for Active; 'I' for Inactive)
    1  A    between atoms: C_3  and  C_13
    2  A    between atoms: C_3  and  C_29
    3  A    between atoms: C_12  and  C_28
    4  A    between atoms: C_13  and  C_33
    5  A    between atoms: C_20  and  C_22
    6  A    between atoms: C_22  and  C_33
                            x       y       z     vdW  Elec       q    Type
                         _______ _______ _______ _____ _____    ______ ____

>  <TORSDO>
F 6

$$$$
=
 OpenBabel11052414213D

 34 38  0  0  1  0  0  0  0  0999 V2000
  181.1170  178.8020  141.4980 C   0  0  0  0  0  0  0  0  0  0  0  0
  181.8240  179.2670  139.1270 C   0  0  2  0  0  3  0  0  0  0  0  0
  183.5220  178.7040  141.0190 C   0  0  0  0  0  0  0  0  0  0  0  0
  185.9410  178.5010  140.6890 C   0  0  0  0  0  0  0  0  0  0  0  0
  179.7910  178.7650  141.0660 O   0  0  0  0  0  0  0  0  0  0  0  0
  180.3230  179.3710  138.8170 C   0  0  0  0  0  2  0  0  0  0  0  0
  184.5140  178.4190  138.7540 C   0  0  0  0  0  3  0  0  0  0  0  0
  182.1730  178.8870  140.5650 C   0  0  0  0  0  0  0  0  0  0  0  0
  185.6370  178.2820  137.9410 C   0  0  0  0  0  3  0  0  0  0  0  0
  187.0230  178.3750  139.8750 N   0  0  0  0  0  0  0  0  0  0  0  0
  179.4880  178.4750  139.7100 C   0  0  0  0  0  2  0  0  0  0  0  0
  183.7670  178.6600  142.4260 C   0  0  0  0  0  0  0  0  0  0  0  0
  181.3780  178.7450  142.8600 C   0  0  0  0  0  3  0  0  0  0  0  0
  182.4280  180.6220  138.7900 C   0  0  0  0  0  1  0  0  0  0  0  0
  186.1240  178.5380  142.0280 N   0  0  0  0  0  0  0  0  0  0  0  0
  185.0970  178.5940  142.9150 C   0  0  0  0  0  0  0  0  0  0  0  0
  186.9010  178.2680  138.5270 C   0  0  0  0  0  0  0  0  0  0  0  0
  184.6390  178.5580  140.1450 C   0  0  0  0  0  0  0  0  0  0  0  0
  182.6860  178.7030  143.3160 C   0  0  0  0  0  3  0  0  0  0  0  0
  186.9890  177.9510  146.1280 C   0  0  0  0  0  0  0  0  0  0  0  0
  186.0980  178.4680  147.0690 C   0  0  0  0  0  3  0  0  0  0  0  0
  185.4490  178.5820  144.3610 C   0  0  0  0  0  0  0  0  0  0  0  0
  184.9210  179.0120  146.6640 N   0  0  0  0  0  0  0  0  0  0  0  0
  186.6580  178.0050  144.7740 C   0  0  0  0  0  3  0  0  0  0  0  0
  184.5820  179.0740  145.3480 C   0  0  0  0  0  3  0  0  0  0  0  0
  188.2730  177.3450  146.5630 C   0  0  0  0  0  1  0  0  0  0  0  0
  188.1150  178.1540  137.6750 C   0  0  0  0  0  2  0  0  0  0  0  0
  189.3380  178.6010  138.4560 C   0  0  0  0  0  2  0  0  0  0  0  0
  189.6150  176.2250  138.4290 O   0  0  0  0  0  1  0  0  0  0  0  0
  190.2700  177.4250  138.7040 C   0  0  2  0  0  3  0  0  0  0  0  0
  190.8630  177.4170  140.1220 C   0  0  0  0  0  2  0  0  0  0  0  0
  190.3720  175.8800  141.9240 O   0  0  0  0  0  1  0  0  0  0  0  0
  189.9030  177.0030  141.2420 C   0  0  0  0  0  3  0  0  0  0  0  0
  189.6860  178.0510  142.1380 O   0  0  0  0  0  1  0  0  0  0  0  0
  1 13  1  0  0  0  0
  2 14  1  1  0  0  0
  2  8  1  0  0  0  0
  3 12  2  0  0  0  0
  4 15  1  0  0  0  0
  5  1  1  0  0  0  0
  6  2  1  0  0  0  0
  6 11  1  0  0  0  0
  7 18  2  0  0  0  0
  8  3  1  0  0  0  0
  8  1  2  0  0  0  0
  9 17  2  0  0  0  0
  9  7  1  0  0  0  0
 10  4  2  0  0  0  0
 11  5  1  0  0  0  0
 12 16  1  0  0  0  0
 12 19  1  0  0  0  0
 13 19  2  0  0  0  0
 15 16  2  0  0  0  0
 16 22  1  0  0  0  0
 17 10  1  0  0  0  0
 18  4  1  0  0  0  0
 18  3  1  0  0  0  0
 20 26  1  0  0  0  0
 20 21  1  0  0  0  0
 22 24  1  0  0  0  0
 22 25  2  0  0  0  0
 23 21  2  0  0  0  0
 24 20  2  0  0  0  0
 25 23  1  0  0  0  0
 27 28  1  0  0  0  0
 27 17  1  0  0  0  0
 28 30  1  0  0  0  0
 30 29  1  1  0  0  0
 30 31  1  0  0  0  0
 31 33  1  0  0  0  0
 33 32  1  0  0  0  0
 33 34  1  0  0  0  0
M  END
>  <MODEL>
7

>  <REMARK>
 VINA RESULT:      -9.3      2.423      6.880
  Name = 
  6 active torsions:
  status: ('A' for Active; 'I' for Inactive)
    1  A    between atoms: C_3  and  C_13
    2  A    between atoms: C_3  and  C_29
    3  A    between atoms: C_12  and  C_28
    4  A    between atoms: C_13  and  C_33
    5  A    between atoms: C_20  and  C_22
    6  A    between atoms: C_22  and  C_33
                            x       y       z     vdW  Elec       q    Type
                         _______ _______ _______ _____ _____    ______ ____

>  <TORSDO>
F 6

$$$$
=
 OpenBabel11052414213D

 34 38  0  0  1  0  0  0  0  0999 V2000
  186.6280  178.0080  145.2690 C   0  0  0  0  0  0  0  0  0  0  0  0
  188.7470  177.3440  144.0820 C   0  0  2  0  0  3  0  0  0  0  0  0
  186.6360  178.2030  142.8220 C   0  0  0  0  0  0  0  0  0  0  0  0
  186.5080  178.5180  140.3970 C   0  0  0  0  0  0  0  0  0  0  0  0
  187.3130  177.9200  146.4810 O   0  0  0  0  0  0  0  0  0  0  0  0
  189.3310  177.1180  145.4850 C   0  0  0  0  0  2  0  0  0  0  0  0
  188.6810  178.3130  141.4080 C   0  0  0  0  0  3  0  0  0  0  0  0
  187.3220  177.8920  144.0450 C   0  0  0  0  0  0  0  0  0  0  0  0
  189.2700  178.4330  140.1500 C   0  0  0  0  0  3  0  0  0  0  0  0
  187.1040  178.6250  139.1780 N   0  0  0  0  0  0  0  0  0  0  0  0
  188.7250  178.0490  146.5180 C   0  0  0  0  0  2  0  0  0  0  0  0
  185.2230  178.4070  142.8670 C   0  0  0  0  0  0  0  0  0  0  0  0
  185.2570  178.2220  145.2890 C   0  0  0  0  0  3  0  0  0  0  0  0
  188.8040  176.0020  143.3710 C   0  0  0  0  0  1  0  0  0  0  0  0
  185.1640  178.6310  140.4850 N   0  0  0  0  0  0  0  0  0  0  0  0
  184.4940  178.6050  141.6660 C   0  0  0  0  0  0  0  0  0  0  0  0
  188.4530  178.5840  139.0310 C   0  0  0  0  0  0  0  0  0  0  0  0
  187.2860  178.3250  141.5590 C   0  0  0  0  0  0  0  0  0  0  0  0
  184.5620  178.3910  144.1020 C   0  0  0  0  0  3  0  0  0  0  0  0
  180.8720  178.7750  142.7450 C   0  0  0  0  0  0  0  0  0  0  0  0
  180.2430  179.0390  141.5280 C   0  0  0  0  0  3  0  0  0  0  0  0
  183.0180  178.7870  141.6120 C   0  0  0  0  0  0  0  0  0  0  0  0
  180.9820  179.1610  140.3940 N   0  0  0  0  0  0  0  0  0  0  0  0
  182.2600  178.6440  142.7820 C   0  0  0  0  0  3  0  0  0  0  0  0
  182.3370  179.0380  140.4110 C   0  0  0  0  0  3  0  0  0  0  0  0
  180.0710  178.6300  143.9880 C   0  0  0  0  0  1  0  0  0  0  0  0
  189.0590  178.6830  137.6770 C   0  0  0  0  0  2  0  0  0  0  0  0
  188.1670  177.9920  136.6600 C   0  0  0  0  0  2  0  0  0  0  0  0
  188.2850  176.4210  134.8600 O   0  0  0  0  0  1  0  0  0  0  0  0
  188.8700  176.7770  136.0750 C   0  0  2  0  0  3  0  0  0  0  0  0
  188.9090  175.5810  137.0400 C   0  0  0  0  0  2  0  0  0  0  0  0
  190.5970  175.6270  138.7710 O   0  0  0  0  0  1  0  0  0  0  0  0
  190.3040  175.1420  137.4960 C   0  0  0  0  0  3  0  0  0  0  0  0
  190.4310  173.7520  137.4720 O   0  0  0  0  0  1  0  0  0  0  0  0
  1 13  1  0  0  0  0
  1  5  1  0  0  0  0
  2 14  1  6  0  0  0
  2  6  1  0  0  0  0
  3 12  2  0  0  0  0
  3  8  1  0  0  0  0
  4 15  1  0  0  0  0
  4 18  1  0  0  0  0
  5 11  1  0  0  0  0
  6 11  1  0  0  0  0
  7 18  2  0  0  0  0
  8  2  1  0  0  0  0
  8  1  2  0  0  0  0
  9  7  1  0  0  0  0
 10  4  2  0  0  0  0
 12 19  1  0  0  0  0
 15 16  2  0  0  0  0
 16 12  1  0  0  0  0
 17 10  1  0  0  0  0
 17  9  2  0  0  0  0
 18  3  1  0  0  0  0
 19 13  2  0  0  0  0
 20 24  1  0  0  0  0
 20 26  1  0  0  0  0
 21 20  2  0  0  0  0
 22 16  1  0  0  0  0
 22 24  2  0  0  0  0
 23 25  2  0  0  0  0
 23 21  1  0  0  0  0
 25 22  1  0  0  0  0
 27 17  1  0  0  0  0
 28 27  1  0  0  0  0
 30 29  1  6  0  0  0
 30 28  1  0  0  0  0
 30 31  1  0  0  0  0
 31 33  1  0  0  0  0
 33 32  1  0  0  0  0
 34 33  1  0  0  0  0
M  END
>  <MODEL>
8

>  <REMARK>
 VINA RESULT:      -9.3      2.280      3.370
  Name = 
  6 active torsions:
  status: ('A' for Active; 'I' for Inactive)
    1  A    between atoms: C_3  and  C_13
    2  A    between atoms: C_3  and  C_29
    3  A    between atoms: C_12  and  C_28
    4  A    between atoms: C_13  and  C_33
    5  A    between atoms: C_20  and  C_22
    6  A    between atoms: C_22  and  C_33
                            x       y       z     vdW  Elec       q    Type
                         _______ _______ _______ _____ _____    ______ ____

>  <TORSDO>
F 6

$$$$
=
 OpenBabel11052414213D

 34 38  0  0  1  0  0  0  0  0999 V2000
  184.3240  178.7290  144.9020 C   0  0  0  0  0  0  0  0  0  0  0  0
  186.7210  177.9800  144.7090 C   0  0  2  0  0  3  0  0  0  0  0  0
  185.2540  178.5600  142.6370 C   0  0  0  0  0  0  0  0  0  0  0  0
  186.0520  178.5070  140.3220 C   0  0  0  0  0  0  0  0  0  0  0  0
  184.5020  178.8470  146.2810 O   0  0  0  0  0  0  0  0  0  0  0  0
  186.7300  177.9870  146.2460 C   0  0  0  0  0  2  0  0  0  0  0  0
  187.6820  178.5390  142.0900 C   0  0  0  0  0  3  0  0  0  0  0  0
  185.4240  178.4600  144.0590 C   0  0  0  0  0  0  0  0  0  0  0  0
  188.7020  178.4950  141.1410 C   0  0  0  0  0  3  0  0  0  0  0  0
  187.0630  178.4560  139.4130 N   0  0  0  0  0  0  0  0  0  0  0  0
  185.8000  179.0360  146.8230 C   0  0  0  0  0  2  0  0  0  0  0  0
  183.9310  178.7130  142.1190 C   0  0  0  0  0  0  0  0  0  0  0  0
  183.0510  178.8890  144.3760 C   0  0  0  0  0  3  0  0  0  0  0  0
  187.0140  176.5500  144.2830 C   0  0  0  0  0  1  0  0  0  0  0  0
  184.7760  178.5800  139.8830 N   0  0  0  0  0  0  0  0  0  0  0  0
  183.7110  178.7020  140.7170 C   0  0  0  0  0  0  0  0  0  0  0  0
  188.3680  178.4470  139.7900 C   0  0  0  0  0  0  0  0  0  0  0  0
  186.3320  178.5190  141.7060 C   0  0  0  0  0  0  0  0  0  0  0  0
  182.8550  178.8530  143.0040 C   0  0  0  0  0  3  0  0  0  0  0  0
  180.7520  180.1330  138.8420 C   0  0  0  0  0  0  0  0  0  0  0  0
  179.8270  179.0970  138.9740 C   0  0  0  0  0  3  0  0  0  0  0  0
  182.3670  178.8170  140.0880 C   0  0  0  0  0  0  0  0  0  0  0  0
  180.1640  177.9670  139.6500 N   0  0  0  0  0  0  0  0  0  0  0  0
  182.0200  179.9910  139.4070 C   0  0  0  0  0  3  0  0  0  0  0  0
  181.3950  177.8100  140.2060 C   0  0  0  0  0  3  0  0  0  0  0  0
  180.3900  181.3750  138.1140 C   0  0  0  0  0  1  0  0  0  0  0  0
  189.4400  178.3680  138.7610 C   0  0  0  0  0  2  0  0  0  0  0  0
  188.8380  178.5220  137.3750 C   0  0  0  0  0  2  0  0  0  0  0  0
  187.7950  176.7680  136.1280 O   0  0  0  0  0  1  0  0  0  0  0  0
  189.0280  177.2480  136.5680 C   0  0  2  0  0  3  0  0  0  0  0  0
  189.8030  176.1620  137.3310 C   0  0  0  0  0  2  0  0  0  0  0  0
  190.4610  174.7490  135.4820 O   0  0  0  0  0  1  0  0  0  0  0  0
  189.7830  174.7660  136.7010 C   0  0  0  0  0  3  0  0  0  0  0  0
  190.3260  173.8120  137.5630 O   0  0  0  0  0  1  0  0  0  0  0  0
  1  5  1  0  0  0  0
  2 14  1  1  0  0  0
  2  6  1  0  0  0  0
  3  8  1  0  0  0  0
  4 18  1  0  0  0  0
  5 11  1  0  0  0  0
  6 11  1  0  0  0  0
  8  2  1  0  0  0  0
  8  1  2  0  0  0  0
  9  7  1  0  0  0  0
 10 17  1  0  0  0  0
 10  4  2  0  0  0  0
 12  3  2  0  0  0  0
 12 19  1  0  0  0  0
 13  1  1  0  0  0  0
 15  4  1  0  0  0  0
 15 16  2  0  0  0  0
 16 12  1  0  0  0  0
 17  9  2  0  0  0  0
 18  7  2  0  0  0  0
 18  3  1  0  0  0  0
 19 13  2  0  0  0  0
 20 21  2  0  0  0  0
 20 24  1  0  0  0  0
 21 23  1  0  0  0  0
 22 25  1  0  0  0  0
 22 16  1  0  0  0  0
 23 25  2  0  0  0  0
 24 22  2  0  0  0  0
 26 20  1  0  0  0  0
 27 17  1  0  0  0  0
 28 27  1  0  0  0  0
 30 29  1  1  0  0  0
 30 31  1  0  0  0  0
 30 28  1  0  0  0  0
 32 33  1  0  0  0  0
 33 31  1  0  0  0  0
 33 34  1  0  0  0  0
M  END
>  <MODEL>
9

>  <REMARK>
 VINA RESULT:      -9.2      2.857      4.635
  Name = 
  6 active torsions:
  status: ('A' for Active; 'I' for Inactive)
    1  A    between atoms: C_3  and  C_13
    2  A    between atoms: C_3  and  C_29
    3  A    between atoms: C_12  and  C_28
    4  A    between atoms: C_13  and  C_33
    5  A    between atoms: C_20  and  C_22
    6  A    between atoms: C_22  and  C_33
                            x       y       z     vdW  Elec       q    Type
                         _______ _______ _______ _____ _____    ______ ____

>  <TORSDO>
F 6

$$$$
