=
 OpenBabel11052412523D

 25 28  0  0  1  0  0  0  0  0999 V2000
  187.7460  177.8330  145.9050 C   0  0  0  0  0  0  0  0  0  0  0  0
  186.9150  178.0150  144.7830 C   0  0  0  0  0  0  0  0  0  0  0  0
  186.0320  178.6660  147.3450 N   0  0  0  0  0  0  0  0  0  0  0  0
  189.0640  177.3400  145.9710 C   0  0  0  0  0  0  0  0  0  0  0  0
  187.0910  178.6250  142.3450 C   0  0  2  0  0  3  0  0  0  0  0  0
  191.6550  176.4260  146.5000 C   0  0  0  0  0  3  0  0  0  0  0  0
  185.2290  178.8420  146.2960 N   0  0  0  0  0  0  0  0  0  0  0  0
  189.5640  177.3090  147.2740 C   0  0  0  0  0  0  0  0  0  0  0  0
  190.8500  176.8590  147.5630 C   0  0  0  0  0  3  0  0  0  0  0  0
  184.6170  178.8620  143.8990 C   0  0  2  0  0  3  0  0  0  0  0  0
  183.1800  178.9000  144.3970 C   0  0  0  0  0  1  0  0  0  0  0  0
  187.4170  177.6000  143.4230 C   0  0  0  0  0  2  0  0  0  0  0  0
  191.1680  176.4530  145.1800 C   0  0  0  0  0  3  0  0  0  0  0  0
  187.2710  178.1670  147.1630 C   0  0  0  0  0  0  0  0  0  0  0  0
  188.4140  177.8790  148.3670 S   0  0  0  0  0  0  0  0  0  0  0  0
  184.6810  177.9130  142.7130 C   0  0  0  0  0  2  0  0  0  0  0  0
  189.8690  176.9110  144.9100 C   0  0  0  0  0  3  0  0  0  0  0  0
  185.7270  178.3740  141.7030 C   0  0  0  0  0  2  0  0  0  0  0  0
  185.5950  178.5210  145.0140 C   0  0  0  0  0  0  0  0  0  0  0  0
  188.2000  178.7860  141.2940 C   0  0  0  0  0  2  0  0  0  0  0  0
  188.3080  177.6900  138.9980 C   0  0  0  0  0  1  0  0  0  0  0  0
  188.5940  177.5410  140.4820 C   0  0  1  0  0  3  0  0  0  0  0  0
  189.9800  177.0440  140.7480 C   0  0  0  0  0  0  0  0  0  0  0  0
  191.0730  177.6100  140.1030 O   0  0  0  0  0  0  0  0  0  0  0  0
  190.1600  176.1270  141.5900 O   0  0  0  0  0  1  0  0  0  0  0  0
  1  4  1  0  0  0  0
  1 14  2  0  0  0  0
  2 19  2  0  0  0  0
  2  1  1  0  0  0  0
  4  8  1  0  0  0  0
  5 20  1  6  0  0  0
  5 12  1  0  0  0  0
  6  9  1  0  0  0  0
  7  3  2  0  0  0  0
  8  9  2  0  0  0  0
  8 15  1  0  0  0  0
 10 11  1  1  0  0  0
 10 19  1  0  0  0  0
 12  2  1  0  0  0  0
 13  6  2  0  0  0  0
 14  3  1  0  0  0  0
 14 15  1  0  0  0  0
 16 10  1  0  0  0  0
 17 13  1  0  0  0  0
 17  4  2  0  0  0  0
 18  5  1  0  0  0  0
 18 16  1  0  0  0  0
 19  7  1  0  0  0  0
 22 21  1  6  0  0  0
 22 23  1  0  0  0  0
 22 20  1  0  0  0  0
 23 25  1  0  0  0  0
 24 23  2  0  0  0  0
M  END
>  <MODEL>
1

>  <REMARK>
 VINA RESULT:     -10.4      0.000      0.000
  Name = 
  3 active torsions:
  status: ('A' for Active; 'I' for Inactive)
    1  A    between atoms: C_2  and  C_25
    2  A    between atoms: C_6  and  C_15
    3  A    between atoms: C_15  and  C_25
                            x       y       z     vdW  Elec       q    Type
                         _______ _______ _______ _____ _____    ______ ____

>  <TORSDO>
F 3

$$$$
=
 OpenBabel11052412523D

 25 28  0  0  1  0  0  0  0  0999 V2000
  186.6450  178.2600  142.4070 C   0  0  0  0  0  0  0  0  0  0  0  0
  187.9620  177.7760  142.5250 C   0  0  0  0  0  0  0  0  0  0  0  0
  186.9260  178.5380  140.0530 N   0  0  0  0  0  0  0  0  0  0  0  0
  185.6690  178.4490  143.4070 C   0  0  0  0  0  0  0  0  0  0  0  0
  189.8780  177.8050  144.1590 C   0  0  2  0  0  3  0  0  0  0  0  0
  183.4970  178.9620  145.0940 C   0  0  0  0  0  3  0  0  0  0  0  0
  188.1740  178.0790  140.1410 N   0  0  0  0  0  0  0  0  0  0  0  0
  184.4710  178.9550  142.9020 C   0  0  0  0  0  0  0  0  0  0  0  0
  183.3750  179.2190  143.7200 C   0  0  0  0  0  3  0  0  0  0  0  0
  190.1980  177.2540  141.2980 C   0  0  2  0  0  3  0  0  0  0  0  0
  190.6240  176.7530  139.9260 C   0  0  0  0  0  1  0  0  0  0  0  0
  188.4610  177.3260  143.8750 C   0  0  0  0  0  2  0  0  0  0  0  0
  184.6980  178.4540  145.6190 C   0  0  0  0  0  3  0  0  0  0  0  0
  186.1640  178.6280  141.1620 C   0  0  0  0  0  0  0  0  0  0  0  0
  184.5750  179.1820  141.2350 S   0  0  0  0  0  0  0  0  0  0  0  0
  190.5540  176.1870  142.3220 C   0  0  0  0  0  2  0  0  0  0  0  0
  185.7910  178.1950  144.7770 C   0  0  0  0  0  3  0  0  0  0  0  0
  190.9330  176.8200  143.6570 C   0  0  0  0  0  2  0  0  0  0  0  0
  188.7330  177.6660  141.3230 C   0  0  0  0  0  0  0  0  0  0  0  0
  190.1100  178.1990  145.6260 C   0  0  0  0  0  2  0  0  0  0  0  0
  191.1290  176.6180  147.3430 C   0  0  0  0  0  1  0  0  0  0  0  0
  189.8510  177.1280  146.6980 C   0  0  1  0  0  3  0  0  0  0  0  0
  188.8130  177.5020  147.7070 C   0  0  0  0  0  0  0  0  0  0  0  0
  189.1500  178.2530  148.8270 O   0  0  0  0  0  1  0  0  0  0  0  0
  187.6160  177.1630  147.5230 O   0  0  0  0  0  0  0  0  0  0  0  0
  1  2  1  0  0  0  0
  1  4  1  0  0  0  0
  2 12  1  0  0  0  0
  3  7  2  0  0  0  0
  3 14  1  0  0  0  0
  4 17  1  0  0  0  0
  5 20  1  1  0  0  0
  6 13  1  0  0  0  0
  7 19  1  0  0  0  0
  8  4  2  0  0  0  0
  8  9  1  0  0  0  0
  9  6  2  0  0  0  0
 10 11  1  6  0  0  0
 10 19  1  0  0  0  0
 10 16  1  0  0  0  0
 12  5  1  0  0  0  0
 14 15  1  0  0  0  0
 14  1  2  0  0  0  0
 15  8  1  0  0  0  0
 16 18  1  0  0  0  0
 17 13  2  0  0  0  0
 18  5  1  0  0  0  0
 19  2  2  0  0  0  0
 20 22  1  0  0  0  0
 22 21  1  1  0  0  0
 22 23  1  0  0  0  0
 23 24  1  0  0  0  0
 25 23  2  0  0  0  0
M  END
>  <MODEL>
2

>  <REMARK>
 VINA RESULT:     -10.1      3.476      6.487
  Name = 
  3 active torsions:
  status: ('A' for Active; 'I' for Inactive)
    1  A    between atoms: C_2  and  C_25
    2  A    between atoms: C_6  and  C_15
    3  A    between atoms: C_15  and  C_25
                            x       y       z     vdW  Elec       q    Type
                         _______ _______ _______ _____ _____    ______ ____

>  <TORSDO>
F 3

$$$$
=
 OpenBabel11052412523D

 25 28  0  0  1  0  0  0  0  0999 V2000
  187.2010  177.9030  145.5230 C   0  0  0  0  0  0  0  0  0  0  0  0
  188.5420  177.5910  145.2250 C   0  0  0  0  0  0  0  0  0  0  0  0
  187.5560  177.3680  147.8230 N   0  0  0  0  0  0  0  0  0  0  0  0
  186.1740  178.3430  144.6640 C   0  0  0  0  0  0  0  0  0  0  0  0
  189.9140  176.6180  143.3510 C   0  0  2  0  0  3  0  0  0  0  0  0
  183.8990  179.2140  143.2880 C   0  0  0  0  0  3  0  0  0  0  0  0
  188.8300  177.0720  147.5630 N   0  0  0  0  0  0  0  0  0  0  0  0
  184.9650  178.5470  145.3310 C   0  0  0  0  0  0  0  0  0  0  0  0
  183.8180  178.9800  144.6680 C   0  0  0  0  0  3  0  0  0  0  0  0
  190.8200  176.7210  146.1370 C   0  0  2  0  0  3  0  0  0  0  0  0
  191.6090  176.8190  147.4340 C   0  0  0  0  0  1  0  0  0  0  0  0
  189.0430  177.7770  143.8150 C   0  0  0  0  0  2  0  0  0  0  0  0
  185.1090  179.0120  142.6010 C   0  0  0  0  0  3  0  0  0  0  0  0
  186.7480  177.7810  146.8260 C   0  0  0  0  0  0  0  0  0  0  0  0
  185.1210  178.1960  146.9710 S   0  0  0  0  0  0  0  0  0  0  0  0
  191.5820  177.4790  145.0620 C   0  0  0  0  0  2  0  0  0  0  0  0
  186.2540  178.5740  143.2860 C   0  0  0  0  0  3  0  0  0  0  0  0
  191.3880  176.8280  143.6960 C   0  0  0  0  0  2  0  0  0  0  0  0
  189.3800  177.1830  146.3120 C   0  0  0  0  0  0  0  0  0  0  0  0
  189.7160  176.2540  141.8720 C   0  0  0  0  0  2  0  0  0  0  0  0
  191.2350  177.2140  140.0670 C   0  0  0  0  0  1  0  0  0  0  0  0
  189.9320  177.3670  140.8320 C   0  0  1  0  0  3  0  0  0  0  0  0
  188.7640  177.6030  139.9290 C   0  0  0  0  0  0  0  0  0  0  0  0
  187.8770  178.6450  140.1740 O   0  0  0  0  0  1  0  0  0  0  0  0
  188.6020  176.8730  138.9170 O   0  0  0  0  0  0  0  0  0  0  0  0
  1 14  1  0  0  0  0
  2  1  2  0  0  0  0
  2 19  1  0  0  0  0
  4  8  1  0  0  0  0
  4  1  1  0  0  0  0
  5 20  1  6  0  0  0
  5 18  1  0  0  0  0
  5 12  1  0  0  0  0
  6  9  1  0  0  0  0
  7  3  1  0  0  0  0
  8 15  1  0  0  0  0
  9  8  2  0  0  0  0
 10 19  1  0  0  0  0
 10 11  1  1  0  0  0
 12  2  1  0  0  0  0
 13 17  1  0  0  0  0
 13  6  2  0  0  0  0
 14 15  1  0  0  0  0
 14  3  2  0  0  0  0
 16 10  1  0  0  0  0
 17  4  2  0  0  0  0
 18 16  1  0  0  0  0
 19  7  2  0  0  0  0
 22 21  1  6  0  0  0
 22 20  1  0  0  0  0
 23 24  1  0  0  0  0
 23 22  1  0  0  0  0
 25 23  2  0  0  0  0
M  END
>  <MODEL>
3

>  <REMARK>
 VINA RESULT:      -9.7      1.664      4.850
  Name = 
  3 active torsions:
  status: ('A' for Active; 'I' for Inactive)
    1  A    between atoms: C_2  and  C_25
    2  A    between atoms: C_6  and  C_15
    3  A    between atoms: C_15  and  C_25
                            x       y       z     vdW  Elec       q    Type
                         _______ _______ _______ _____ _____    ______ ____

>  <TORSDO>
F 3

$$$$
=
 OpenBabel11052412523D

 25 28  0  0  1  0  0  0  0  0999 V2000
  186.7250  178.2320  142.8990 C   0  0  0  0  0  0  0  0  0  0  0  0
  188.0090  177.8350  142.4770 C   0  0  0  0  0  0  0  0  0  0  0  0
  186.1740  178.9110  140.6770 N   0  0  0  0  0  0  0  0  0  0  0  0
  186.1500  178.1820  144.1850 C   0  0  0  0  0  0  0  0  0  0  0  0
  190.3700  177.7410  143.3500 C   0  0  2  0  0  3  0  0  0  0  0  0
  184.6840  178.2490  146.5660 C   0  0  0  0  0  3  0  0  0  0  0  0
  187.3830  178.5380  140.2570 N   0  0  0  0  0  0  0  0  0  0  0  0
  184.8440  178.6730  144.2110 C   0  0  0  0  0  0  0  0  0  0  0  0
  184.0940  178.7170  145.3830 C   0  0  0  0  0  3  0  0  0  0  0  0
  189.6940  177.6900  140.4990 C   0  0  2  0  0  3  0  0  0  0  0  0
  189.6280  177.4520  138.9970 C   0  0  0  0  0  1  0  0  0  0  0  0
  188.9490  177.2090  143.4780 C   0  0  0  0  0  2  0  0  0  0  0  0
  186.0000  177.7530  146.5580 C   0  0  0  0  0  3  0  0  0  0  0  0
  185.8400  178.7610  141.9740 C   0  0  0  0  0  0  0  0  0  0  0  0
  184.3650  179.1750  142.6750 S   0  0  0  0  0  0  0  0  0  0  0  0
  190.3960  176.5000  141.1350 C   0  0  0  0  0  2  0  0  0  0  0  0
  186.7400  177.7180  145.3650 C   0  0  0  0  0  3  0  0  0  0  0  0
  191.2020  176.9330  142.3550 C   0  0  0  0  0  2  0  0  0  0  0  0
  188.3210  177.9810  141.0880 C   0  0  0  0  0  0  0  0  0  0  0  0
  191.0870  177.9070  144.6980 C   0  0  0  0  0  2  0  0  0  0  0  0
  192.0060  175.7080  145.5970 C   0  0  0  0  0  1  0  0  0  0  0  0
  190.9330  176.7750  145.7280 C   0  0  1  0  0  3  0  0  0  0  0  0
  190.7620  177.2430  147.1390 C   0  0  0  0  0  0  0  0  0  0  0  0
  189.5410  177.7410  147.5780 O   0  0  0  0  0  0  0  0  0  0  0  0
  191.7240  177.1530  147.9450 O   0  0  0  0  0  1  0  0  0  0  0  0
  1  4  1  0  0  0  0
  2  1  1  0  0  0  0
  2 12  1  0  0  0  0
  3 14  1  0  0  0  0
  4  8  2  0  0  0  0
  4 17  1  0  0  0  0
  5 12  1  0  0  0  0
  5 20  1  1  0  0  0
  7  3  2  0  0  0  0
  7 19  1  0  0  0  0
  8  9  1  0  0  0  0
  9  6  2  0  0  0  0
 10 11  1  6  0  0  0
 10 19  1  0  0  0  0
 10 16  1  0  0  0  0
 13  6  1  0  0  0  0
 14 15  1  0  0  0  0
 14  1  2  0  0  0  0
 15  8  1  0  0  0  0
 16 18  1  0  0  0  0
 17 13  2  0  0  0  0
 18  5  1  0  0  0  0
 19  2  2  0  0  0  0
 20 22  1  0  0  0  0
 22 21  1  1  0  0  0
 22 23  1  0  0  0  0
 23 24  2  0  0  0  0
 23 25  1  0  0  0  0
M  END
>  <MODEL>
4

>  <REMARK>
 VINA RESULT:      -9.6      3.157      5.842
  Name = 
  3 active torsions:
  status: ('A' for Active; 'I' for Inactive)
    1  A    between atoms: C_2  and  C_25
    2  A    between atoms: C_6  and  C_15
    3  A    between atoms: C_15  and  C_25
                            x       y       z     vdW  Elec       q    Type
                         _______ _______ _______ _____ _____    ______ ____

>  <TORSDO>
F 3

$$$$
=
 OpenBabel11052412523D

 25 28  0  0  1  0  0  0  0  0999 V2000
  185.5510  178.3360  144.3840 C   0  0  0  0  0  0  0  0  0  0  0  0
  186.8120  178.0390  144.9380 C   0  0  0  0  0  0  0  0  0  0  0  0
  184.5560  178.2920  146.5540 N   0  0  0  0  0  0  0  0  0  0  0  0
  185.1920  178.5420  143.0370 C   0  0  0  0  0  0  0  0  0  0  0  0
  188.9150  176.7810  144.3550 C   0  0  2  0  0  3  0  0  0  0  0  0
  184.1040  179.0030  140.5020 C   0  0  0  0  0  3  0  0  0  0  0  0
  185.7410  178.0150  147.0990 N   0  0  0  0  0  0  0  0  0  0  0  0
  183.8330  178.8140  142.8770 C   0  0  0  0  0  0  0  0  0  0  0  0
  183.2670  179.0470  141.6260 C   0  0  0  0  0  3  0  0  0  0  0  0
  188.1570  177.4870  147.0970 C   0  0  2  0  0  3  0  0  0  0  0  0
  188.1150  177.8830  148.5660 C   0  0  0  0  0  1  0  0  0  0  0  0
  188.0130  177.9640  144.0290 C   0  0  0  0  0  2  0  0  0  0  0  0
  185.4760  178.7290  140.6450 C   0  0  0  0  0  3  0  0  0  0  0  0
  184.4530  178.4550  145.2200 C   0  0  0  0  0  0  0  0  0  0  0  0
  183.0440  178.8080  144.3660 S   0  0  0  0  0  0  0  0  0  0  0  0
  189.4320  178.0520  146.4920 C   0  0  0  0  0  2  0  0  0  0  0  0
  186.0270  178.4960  141.9150 C   0  0  0  0  0  3  0  0  0  0  0  0
  189.9710  177.1310  145.4020 C   0  0  0  0  0  2  0  0  0  0  0  0
  186.8910  177.9010  146.3610 C   0  0  0  0  0  0  0  0  0  0  0  0
  189.5320  176.1190  143.1140 C   0  0  0  0  0  2  0  0  0  0  0  0
  191.7140  177.1280  142.2740 C   0  0  0  0  0  1  0  0  0  0  0  0
  190.2100  177.0370  142.0830 C   0  0  1  0  0  3  0  0  0  0  0  0
  189.8310  176.7560  140.6630 C   0  0  0  0  0  0  0  0  0  0  0  0
  188.7080  177.3490  140.0990 O   0  0  0  0  0  1  0  0  0  0  0  0
  190.5550  176.0030  139.9630 O   0  0  0  0  0  0  0  0  0  0  0  0
  1  2  2  0  0  0  0
  1 14  1  0  0  0  0
  2 19  1  0  0  0  0
  3  7  1  0  0  0  0
  4  1  1  0  0  0  0
  5 20  1  6  0  0  0
  5 18  1  0  0  0  0
  6 13  2  0  0  0  0
  6  9  1  0  0  0  0
  8  4  1  0  0  0  0
  8 15  1  0  0  0  0
  9  8  2  0  0  0  0
 10 11  1  1  0  0  0
 12  5  1  0  0  0  0
 12  2  1  0  0  0  0
 13 17  1  0  0  0  0
 14  3  2  0  0  0  0
 15 14  1  0  0  0  0
 16 10  1  0  0  0  0
 17  4  2  0  0  0  0
 18 16  1  0  0  0  0
 19 10  1  0  0  0  0
 19  7  2  0  0  0  0
 22 21  1  6  0  0  0
 22 20  1  0  0  0  0
 23 22  1  0  0  0  0
 24 23  1  0  0  0  0
 25 23  2  0  0  0  0
M  END
>  <MODEL>
5

>  <REMARK>
 VINA RESULT:      -9.5      1.893      5.030
  Name = 
  3 active torsions:
  status: ('A' for Active; 'I' for Inactive)
    1  A    between atoms: C_2  and  C_25
    2  A    between atoms: C_6  and  C_15
    3  A    between atoms: C_15  and  C_25
                            x       y       z     vdW  Elec       q    Type
                         _______ _______ _______ _____ _____    ______ ____

>  <TORSDO>
F 3

$$$$
=
 OpenBabel11052412523D

 25 28  0  0  1  0  0  0  0  0999 V2000
  189.2680  177.6120  143.8470 C   0  0  0  0  0  0  0  0  0  0  0  0
  188.1960  177.7540  144.7500 C   0  0  0  0  0  0  0  0  0  0  0  0
  190.8250  177.5750  145.6570 N   0  0  0  0  0  0  0  0  0  0  0  0
  189.2480  177.5430  142.4400 C   0  0  0  0  0  0  0  0  0  0  0  0
  185.9400  178.8650  144.8900 C   0  0  2  0  0  3  0  0  0  0  0  0
  189.6110  177.3770  139.6710 C   0  0  0  0  0  3  0  0  0  0  0  0
  189.8250  177.7040  146.5280 N   0  0  0  0  0  0  0  0  0  0  0  0
  190.5230  177.4040  141.8890 C   0  0  0  0  0  0  0  0  0  0  0  0
  190.7300  177.3200  140.5140 C   0  0  0  0  0  3  0  0  0  0  0  0
  187.4760  178.0180  147.2380 C   0  0  2  0  0  3  0  0  0  0  0  0
  187.9520  177.5140  148.5930 C   0  0  0  0  0  1  0  0  0  0  0  0
  186.7860  177.7940  144.2160 C   0  0  0  0  0  2  0  0  0  0  0  0
  188.3190  177.5180  140.2090 C   0  0  0  0  0  3  0  0  0  0  0  0
  190.5610  177.5250  144.3360 C   0  0  0  0  0  0  0  0  0  0  0  0
  191.6940  177.3640  143.1000 S   0  0  0  0  0  0  0  0  0  0  0  0
  186.1210  177.3920  146.9510 C   0  0  0  0  0  2  0  0  0  0  0  0
  188.1320  177.6030  141.5980 C   0  0  0  0  0  3  0  0  0  0  0  0
  185.2420  178.3440  146.1460 C   0  0  0  0  0  2  0  0  0  0  0  0
  188.5100  177.7740  146.1470 C   0  0  0  0  0  0  0  0  0  0  0  0
  184.9600  179.5640  143.9360 C   0  0  0  0  0  2  0  0  0  0  0  0
  182.5000  178.9940  143.6090 C   0  0  0  0  0  1  0  0  0  0  0  0
  183.9310  178.6860  143.2050 C   0  0  1  0  0  3  0  0  0  0  0  0
  184.1060  178.6350  141.7200 C   0  0  0  0  0  0  0  0  0  0  0  0
  185.1080  179.3720  141.0990 O   0  0  0  0  0  1  0  0  0  0  0  0
  183.3620  177.8910  141.0310 O   0  0  0  0  0  0  0  0  0  0  0  0
  1 14  1  0  0  0  0
  1  2  2  0  0  0  0
  2 19  1  0  0  0  0
  3  7  1  0  0  0  0
  4  1  1  0  0  0  0
  5 20  1  6  0  0  0
  5 18  1  0  0  0  0
  6 13  2  0  0  0  0
  6  9  1  0  0  0  0
  8  4  1  0  0  0  0
  8 15  1  0  0  0  0
  9  8  2  0  0  0  0
 10 11  1  1  0  0  0
 12  2  1  0  0  0  0
 12  5  1  0  0  0  0
 13 17  1  0  0  0  0
 14  3  2  0  0  0  0
 15 14  1  0  0  0  0
 16 10  1  0  0  0  0
 17  4  2  0  0  0  0
 18 16  1  0  0  0  0
 19  7  2  0  0  0  0
 19 10  1  0  0  0  0
 22 21  1  6  0  0  0
 22 20  1  0  0  0  0
 23 22  1  0  0  0  0
 24 23  1  0  0  0  0
 25 23  2  0  0  0  0
M  END
>  <MODEL>
6

>  <REMARK>
 VINA RESULT:      -9.4      2.783      5.149
  Name = 
  3 active torsions:
  status: ('A' for Active; 'I' for Inactive)
    1  A    between atoms: C_2  and  C_25
    2  A    between atoms: C_6  and  C_15
    3  A    between atoms: C_15  and  C_25
                            x       y       z     vdW  Elec       q    Type
                         _______ _______ _______ _____ _____    ______ ____

>  <TORSDO>
F 3

$$$$
=
 OpenBabel11052412523D

 25 28  0  0  1  0  0  0  0  0999 V2000
  186.6800  178.2910  142.5100 C   0  0  0  0  0  0  0  0  0  0  0  0
  187.6130  177.9140  141.5240 C   0  0  0  0  0  0  0  0  0  0  0  0
  185.3190  179.3490  140.8580 N   0  0  0  0  0  0  0  0  0  0  0  0
  186.7020  178.0550  143.8990 C   0  0  0  0  0  0  0  0  0  0  0  0
  190.0950  177.5770  141.2620 C   0  0  2  0  0  3  0  0  0  0  0  0
  186.3990  177.7920  146.6670 C   0  0  0  0  0  3  0  0  0  0  0  0
  186.1870  178.9990  139.9090 N   0  0  0  0  0  0  0  0  0  0  0  0
  185.5920  178.5900  144.5540 C   0  0  0  0  0  0  0  0  0  0  0  0
  185.4190  178.4730  145.9310 C   0  0  0  0  0  3  0  0  0  0  0  0
  188.2740  178.0240  139.0090 C   0  0  2  0  0  3  0  0  0  0  0  0
  187.5530  178.0400  137.6690 C   0  0  0  0  0  1  0  0  0  0  0  0
  188.8130  177.0930  141.9250 C   0  0  0  0  0  2  0  0  0  0  0  0
  187.5250  177.2480  146.0230 C   0  0  0  0  0  3  0  0  0  0  0  0
  185.5500  179.0020  142.1400 C   0  0  0  0  0  0  0  0  0  0  0  0
  184.5670  179.3580  143.4600 S   0  0  0  0  0  0  0  0  0  0  0  0
  189.0440  176.7170  139.1150 C   0  0  0  0  0  2  0  0  0  0  0  0
  187.6820  177.3780  144.6340 C   0  0  0  0  0  3  0  0  0  0  0  0
  190.3330  176.9080  139.9080 C   0  0  0  0  0  2  0  0  0  0  0  0
  187.3210  178.2730  140.1690 C   0  0  0  0  0  0  0  0  0  0  0  0
  191.3290  177.4870  142.1720 C   0  0  0  0  0  2  0  0  0  0  0  0
  191.6760  175.6090  143.8560 C   0  0  0  0  0  1  0  0  0  0  0  0
  191.1130  176.9980  143.6140 C   0  0  1  0  0  3  0  0  0  0  0  0
  191.5330  177.9750  144.6670 C   0  0  0  0  0  0  0  0  0  0  0  0
  191.7100  179.3190  144.3570 O   0  0  0  0  0  0  0  0  0  0  0  0
  191.6930  177.5830  145.8510 O   0  0  0  0  0  1  0  0  0  0  0  0
  1  4  1  0  0  0  0
  2 12  1  0  0  0  0
  2  1  1  0  0  0  0
  3 14  1  0  0  0  0
  4  8  2  0  0  0  0
  4 17  1  0  0  0  0
  5 12  1  0  0  0  0
  5 20  1  1  0  0  0
  7 19  1  0  0  0  0
  7  3  2  0  0  0  0
  8  9  1  0  0  0  0
  9  6  2  0  0  0  0
 10 11  1  6  0  0  0
 10 16  1  0  0  0  0
 10 19  1  0  0  0  0
 13  6  1  0  0  0  0
 14  1  2  0  0  0  0
 14 15  1  0  0  0  0
 15  8  1  0  0  0  0
 16 18  1  0  0  0  0
 17 13  2  0  0  0  0
 18  5  1  0  0  0  0
 19  2  2  0  0  0  0
 20 22  1  0  0  0  0
 22 21  1  1  0  0  0
 22 23  1  0  0  0  0
 23 25  1  0  0  0  0
 24 23  2  0  0  0  0
M  END
>  <MODEL>
7

>  <REMARK>
 VINA RESULT:      -9.3      2.855      5.036
  Name = 
  3 active torsions:
  status: ('A' for Active; 'I' for Inactive)
    1  A    between atoms: C_2  and  C_25
    2  A    between atoms: C_6  and  C_15
    3  A    between atoms: C_15  and  C_25
                            x       y       z     vdW  Elec       q    Type
                         _______ _______ _______ _____ _____    ______ ____

>  <TORSDO>
F 3

$$$$
=
 OpenBabel11052412523D

 25 28  0  0  1  0  0  0  0  0999 V2000
  186.3210  178.0500  145.0420 C   0  0  0  0  0  0  0  0  0  0  0  0
  185.4070  178.2450  143.9880 C   0  0  0  0  0  0  0  0  0  0  0  0
  184.6660  178.7000  146.6350 N   0  0  0  0  0  0  0  0  0  0  0  0
  187.6660  177.6330  144.9930 C   0  0  0  0  0  0  0  0  0  0  0  0
  185.3840  178.9970  141.5840 C   0  0  2  0  0  3  0  0  0  0  0  0
  190.3330  176.8440  145.2990 C   0  0  0  0  0  3  0  0  0  0  0  0
  183.7840  178.8870  145.6520 N   0  0  0  0  0  0  0  0  0  0  0  0
  188.2530  177.5590  146.2570 C   0  0  0  0  0  0  0  0  0  0  0  0
  189.5790  177.1690  146.4360 C   0  0  0  0  0  3  0  0  0  0  0  0
  183.0120  179.0030  143.3060 C   0  0  2  0  0  3  0  0  0  0  0  0
  181.6120  178.9290  143.8970 C   0  0  0  0  0  1  0  0  0  0  0  0
  185.8380  177.9350  142.5760 C   0  0  0  0  0  2  0  0  0  0  0  0
  189.7570  176.9150  144.0180 C   0  0  0  0  0  3  0  0  0  0  0  0
  185.9150  178.2850  146.3450 C   0  0  0  0  0  0  0  0  0  0  0  0
  187.1510  177.9990  147.4530 S   0  0  0  0  0  0  0  0  0  0  0  0
  183.0470  178.1260  142.0640 C   0  0  0  0  0  2  0  0  0  0  0  0
  188.4190  177.3110  143.8590 C   0  0  0  0  0  3  0  0  0  0  0  0
  183.9950  178.7030  141.0180 C   0  0  0  0  0  2  0  0  0  0  0  0
  184.0810  178.6580  144.3330 C   0  0  0  0  0  0  0  0  0  0  0  0
  186.4090  179.2810  140.4750 C   0  0  0  0  0  2  0  0  0  0  0  0
  186.4020  177.8150  138.3930 C   0  0  0  0  0  1  0  0  0  0  0  0
  187.0270  178.0720  139.7530 C   0  0  1  0  0  3  0  0  0  0  0  0
  188.5220  178.0810  139.7020 C   0  0  0  0  0  0  0  0  0  0  0  0
  189.2630  177.1850  140.4630 O   0  0  0  0  0  1  0  0  0  0  0  0
  189.1130  178.8850  138.9360 O   0  0  0  0  0  0  0  0  0  0  0  0
  1 14  2  0  0  0  0
  2 19  2  0  0  0  0
  2  1  1  0  0  0  0
  4  1  1  0  0  0  0
  4  8  1  0  0  0  0
  5 20  1  6  0  0  0
  5 12  1  0  0  0  0
  6  9  1  0  0  0  0
  7  3  2  0  0  0  0
  8  9  2  0  0  0  0
  8 15  1  0  0  0  0
 10 11  1  1  0  0  0
 10 19  1  0  0  0  0
 12  2  1  0  0  0  0
 13  6  2  0  0  0  0
 14  3  1  0  0  0  0
 14 15  1  0  0  0  0
 16 10  1  0  0  0  0
 17 13  1  0  0  0  0
 17  4  2  0  0  0  0
 18  5  1  0  0  0  0
 18 16  1  0  0  0  0
 19  7  1  0  0  0  0
 22 21  1  6  0  0  0
 22 20  1  0  0  0  0
 23 22  1  0  0  0  0
 23 24  1  0  0  0  0
 25 23  2  0  0  0  0
M  END
>  <MODEL>
8

>  <REMARK>
 VINA RESULT:      -8.9      1.349      1.917
  Name = 
  3 active torsions:
  status: ('A' for Active; 'I' for Inactive)
    1  A    between atoms: C_2  and  C_25
    2  A    between atoms: C_6  and  C_15
    3  A    between atoms: C_15  and  C_25
                            x       y       z     vdW  Elec       q    Type
                         _______ _______ _______ _____ _____    ______ ____

>  <TORSDO>
F 3

$$$$
=
 OpenBabel11052412523D

 25 28  0  0  1  0  0  0  0  0999 V2000
  187.7880  178.0840  142.1340 C   0  0  0  0  0  0  0  0  0  0  0  0
  187.1150  178.2510  143.3600 C   0  0  0  0  0  0  0  0  0  0  0  0
  185.7260  178.2750  140.9450 N   0  0  0  0  0  0  0  0  0  0  0  0
  189.1610  177.8850  141.8870 C   0  0  0  0  0  0  0  0  0  0  0  0
  187.2660  177.4730  145.7520 C   0  0  2  0  0  3  0  0  0  0  0  0
  191.7840  177.4730  141.0060 C   0  0  0  0  0  3  0  0  0  0  0  0
  185.0710  178.4380  142.0950 N   0  0  0  0  0  0  0  0  0  0  0  0
  189.4510  177.7580  140.5280 C   0  0  0  0  0  0  0  0  0  0  0  0
  190.7480  177.5520  140.0640 C   0  0  0  0  0  3  0  0  0  0  0  0
  184.8220  178.5580  144.5520 C   0  0  2  0  0  3  0  0  0  0  0  0
  183.4980  179.2480  144.2570 C   0  0  0  0  0  1  0  0  0  0  0  0
  187.9160  178.2840  144.6380 C   0  0  0  0  0  2  0  0  0  0  0  0
  191.5090  177.5970  142.3800 C   0  0  0  0  0  3  0  0  0  0  0  0
  187.0630  178.1040  140.9540 C   0  0  0  0  0  0  0  0  0  0  0  0
  188.0470  177.8850  139.6040 S   0  0  0  0  0  0  0  0  0  0  0  0
  185.4810  179.2790  145.7170 C   0  0  0  0  0  2  0  0  0  0  0  0
  190.1940  177.8040  142.8270 C   0  0  0  0  0  3  0  0  0  0  0  0
  186.2840  178.3070  146.5740 C   0  0  0  0  0  2  0  0  0  0  0  0
  185.7000  178.4590  143.3130 C   0  0  0  0  0  0  0  0  0  0  0  0
  188.2750  176.7300  146.6400 C   0  0  0  0  0  2  0  0  0  0  0  0
  189.3740  178.0570  148.5160 C   0  0  0  0  0  1  0  0  0  0  0  0
  189.5170  177.5070  147.1070 C   0  0  1  0  0  3  0  0  0  0  0  0
  190.8110  176.7830  146.9060 C   0  0  0  0  0  0  0  0  0  0  0  0
  191.7370  177.2320  145.9720 O   0  0  0  0  0  0  0  0  0  0  0  0
  191.0770  175.7770  147.6130 O   0  0  0  0  0  1  0  0  0  0  0  0
  1  2  2  0  0  0  0
  2 12  1  0  0  0  0
  3 14  2  0  0  0  0
  3  7  1  0  0  0  0
  4  1  1  0  0  0  0
  4 17  1  0  0  0  0
  5 18  1  0  0  0  0
  5 20  1  1  0  0  0
  6 13  1  0  0  0  0
  7 19  2  0  0  0  0
  8  4  2  0  0  0  0
  9  8  1  0  0  0  0
  9  6  2  0  0  0  0
 10 11  1  6  0  0  0
 10 16  1  0  0  0  0
 12  5  1  0  0  0  0
 13 17  2  0  0  0  0
 14  1  1  0  0  0  0
 15  8  1  0  0  0  0
 15 14  1  0  0  0  0
 16 18  1  0  0  0  0
 19  2  1  0  0  0  0
 19 10  1  0  0  0  0
 20 22  1  0  0  0  0
 22 21  1  1  0  0  0
 23 22  1  0  0  0  0
 23 25  1  0  0  0  0
 24 23  2  0  0  0  0
M  END
>  <MODEL>
9

>  <REMARK>
 VINA RESULT:      -8.7      2.938      5.257
  Name = 
  3 active torsions:
  status: ('A' for Active; 'I' for Inactive)
    1  A    between atoms: C_2  and  C_25
    2  A    between atoms: C_6  and  C_15
    3  A    between atoms: C_15  and  C_25
                            x       y       z     vdW  Elec       q    Type
                         _______ _______ _______ _____ _____    ______ ____

>  <TORSDO>
F 3

$$$$
