=
 OpenBabel11052412193D

 30 33  0  0  1  0  0  0  0  0999 V2000
  180.8090  178.8940  139.4630 C   0  0  0  0  0  0  0  0  0  0  0  0
  181.6170  177.6880  139.0000 C   0  0  1  0  0  3  0  0  0  0  0  0
  180.9530  179.3690  140.7060 C   0  0  0  0  0  3  0  0  0  0  0  0
  183.9510  177.4790  141.7630 O   0  0  0  0  0  0  0  0  0  0  0  0
  183.0370  177.9730  141.0510 C   0  0  0  0  0  0  0  0  0  0  0  0
  181.8850  179.1860  142.9140 C   0  0  0  0  0  3  0  0  0  0  0  0
  181.9630  178.8270  141.6270 C   0  0  0  0  0  0  0  0  0  0  0  0
  183.0460  177.7150  139.5690 C   0  0  2  0  0  3  0  0  0  0  0  0
  179.9570  179.1260  137.1090 C   0  0  0  0  0  0  0  0  0  0  0  0
  180.7670  179.8310  136.0560 C   0  0  0  0  0  2  0  0  0  0  0  0
  179.3950  178.0770  136.8290 O   0  0  0  0  0  0  0  0  0  0  0  0
  180.0570  181.1640  138.6300 C   0  0  0  0  0  2  0  0  0  0  0  0
  181.2670  183.1830  137.8520 C   0  0  0  0  0  1  0  0  0  0  0  0
  179.9010  179.6410  138.5270 C   0  0  2  0  0  3  0  0  0  0  0  0
  180.7740  181.3420  136.2610 C   0  0  0  0  0  2  0  0  0  0  0  0
  181.1450  181.6830  137.6970 C   0  0  2  0  0  3  0  0  0  0  0  0
  185.0750  178.2350  138.0430 C   0  0  0  0  0  2  0  0  0  0  0  0
  183.8520  178.6040  137.4390 O   0  0  0  0  0  0  0  0  0  0  0  0
  183.9750  180.0500  139.2450 O   0  0  0  0  0  1  0  0  0  0  0  0
  183.9320  178.7170  138.8350 C   0  0  1  0  0  0  0  0  0  0  0  0
  179.6110  176.2460  138.9890 O   0  0  0  0  0  0  0  0  0  0  0  0
  179.7490  174.7540  140.8550 C   0  0  0  0  0  1  0  0  0  0  0  0
  180.9740  176.3220  139.3120 C   0  0  2  0  0  0  0  0  0  0  0  0
  179.9300  176.1820  140.3650 C   0  0  1  0  0  3  0  0  0  0  0  0
  181.5240  175.5890  136.5940 O   0  0  0  0  0  0  0  0  0  0  0  0
  181.9510  174.8320  137.5040 C   0  0  0  0  0  0  0  0  0  0  0  0
  182.7400  173.6250  137.1430 C   0  0  0  0  0  1  0  0  0  0  0  0
  181.6880  175.1220  138.8780 N   0  0  0  0  0  2  0  0  0  0  0  0
  183.9020  179.7930  144.2020 C   0  0  0  0  0  1  0  0  0  0  0  0
  182.8190  178.7500  143.9960 C   0  0  0  0  0  2  0  0  0  0  0  0
  1  3  2  0  0  0  0
  2 23  1  0  0  0  0
  2  1  1  1  0  0  0
  2  8  1  0  0  0  0
  3  7  1  0  0  0  0
  5  7  1  0  0  0  0
  5  4  2  0  0  0  0
  6 30  1  0  0  0  0
  7  6  2  0  0  0  0
  8  5  1  1  0  0  0
  9 14  1  0  0  0  0
 10 15  1  0  0  0  0
 10  9  1  0  0  0  0
 11  9  2  0  0  0  0
 14 12  1  0  0  0  0
 14  1  1  1  0  0  0
 15 16  1  0  0  0  0
 16 13  1  6  0  0  0
 16 12  1  0  0  0  0
 17 20  1  0  0  0  0
 18 17  1  0  0  0  0
 18 20  1  0  0  0  0
 20 19  1  1  0  0  0
 20  8  1  0  0  0  0
 21 23  1  0  0  0  0
 21 24  1  0  0  0  0
 23 28  1  6  0  0  0
 23 24  1  0  0  0  0
 24 22  1  6  0  0  0
 25 26  2  0  0  0  0
 26 28  1  0  0  0  0
 27 26  1  0  0  0  0
 30 29  1  0  0  0  0
M  END
>  <MODEL>
1

>  <REMARK>
 VINA RESULT:      -4.9      0.000      0.000
  Name = 
  5 active torsions:
  status: ('A' for Active; 'I' for Inactive)
    1  A    between atoms: C_1  and  C_22
    2  A    between atoms: C_4  and  C_23
    3  A    between atoms: C_9  and  C_21
    4  A    between atoms: C_13  and  C_30
    5  A    between atoms: C_23  and  N_25
                            x       y       z     vdW  Elec       q    Type
                         _______ _______ _______ _____ _____    ______ ____

>  <TORSDO>
F 5

$$$$
=
 OpenBabel11052412193D

 30 33  0  0  1  0  0  0  0  0999 V2000
  180.7750  177.6100  139.3600 C   0  0  0  0  0  0  0  0  0  0  0  0
  181.0560  178.3960  138.0850 C   0  0  1  0  0  3  0  0  0  0  0  0
  181.6940  177.5470  140.3320 C   0  0  0  0  0  3  0  0  0  0  0  0
  184.0620  180.1230  139.1360 O   0  0  0  0  0  0  0  0  0  0  0  0
  183.0330  179.4070  139.2560 C   0  0  0  0  0  0  0  0  0  0  0  0
  183.9070  178.0140  141.1440 C   0  0  0  0  0  3  0  0  0  0  0  0
  182.9470  178.3130  140.2610 C   0  0  0  0  0  0  0  0  0  0  0  0
  181.8440  179.6840  138.3780 C   0  0  2  0  0  3  0  0  0  0  0  0
  179.3810  176.2190  140.9220 C   0  0  0  0  0  0  0  0  0  0  0  0
  179.5330  174.7230  140.9770 C   0  0  0  0  0  2  0  0  0  0  0  0
  179.2810  176.8480  141.9650 O   0  0  0  0  0  0  0  0  0  0  0  0
  178.9420  176.1400  138.4170 C   0  0  0  0  0  2  0  0  0  0  0  0
  178.9380  173.9420  137.2680 C   0  0  0  0  0  1  0  0  0  0  0  0
  179.4420  176.9640  139.6110 C   0  0  2  0  0  3  0  0  0  0  0  0
  178.9330  174.0460  139.7490 C   0  0  0  0  0  2  0  0  0  0  0  0
  179.4450  174.7020  138.4740 C   0  0  2  0  0  3  0  0  0  0  0  0
  180.7320  182.0200  138.2220 C   0  0  0  0  0  2  0  0  0  0  0  0
  179.7750  180.9800  138.2400 O   0  0  0  0  0  0  0  0  0  0  0  0
  180.7260  180.8220  140.3470 O   0  0  0  0  0  1  0  0  0  0  0  0
  180.9540  180.7730  138.9710 C   0  0  1  0  0  0  0  0  0  0  0  0
  182.7730  178.3280  136.3100 O   0  0  0  0  0  0  0  0  0  0  0  0
  182.0200  176.8410  134.5940 C   0  0  0  0  0  1  0  0  0  0  0  0
  181.7820  177.5980  136.9830 C   0  0  2  0  0  0  0  0  0  0  0  0
  181.6410  177.9630  135.5460 C   0  0  1  0  0  3  0  0  0  0  0  0
  184.5040  176.8430  137.4760 O   0  0  0  0  0  0  0  0  0  0  0  0
  183.6200  175.9530  137.5750 C   0  0  0  0  0  0  0  0  0  0  0  0
  184.0100  174.5730  137.9710 C   0  0  0  0  0  1  0  0  0  0  0  0
  182.2480  176.2540  137.3140 N   0  0  0  0  0  2  0  0  0  0  0  0
  185.4230  179.2930  142.6150 C   0  0  0  0  0  1  0  0  0  0  0  0
  185.2410  178.6830  141.2380 C   0  0  0  0  0  2  0  0  0  0  0  0
  1  3  2  0  0  0  0
  2  8  1  0  0  0  0
  2  1  1  1  0  0  0
  4  5  2  0  0  0  0
  5  7  1  0  0  0  0
  6 30  1  0  0  0  0
  7  3  1  0  0  0  0
  7  6  2  0  0  0  0
  8 20  1  0  0  0  0
  8  5  1  1  0  0  0
  9 10  1  0  0  0  0
  9 11  2  0  0  0  0
 12 16  1  0  0  0  0
 12 14  1  0  0  0  0
 14  1  1  6  0  0  0
 14  9  1  0  0  0  0
 15 10  1  0  0  0  0
 16 13  1  6  0  0  0
 16 15  1  0  0  0  0
 17 18  1  0  0  0  0
 17 20  1  0  0  0  0
 18 20  1  0  0  0  0
 20 19  1  1  0  0  0
 21 23  1  0  0  0  0
 23 28  1  1  0  0  0
 23  2  1  0  0  0  0
 24 22  1  6  0  0  0
 24 21  1  0  0  0  0
 24 23  1  0  0  0  0
 25 26  2  0  0  0  0
 26 27  1  0  0  0  0
 28 26  1  0  0  0  0
 30 29  1  0  0  0  0
M  END
>  <MODEL>
2

>  <REMARK>
 VINA RESULT:      -4.8      1.992      4.565
  Name = 
  5 active torsions:
  status: ('A' for Active; 'I' for Inactive)
    1  A    between atoms: C_1  and  C_22
    2  A    between atoms: C_4  and  C_23
    3  A    between atoms: C_9  and  C_21
    4  A    between atoms: C_13  and  C_30
    5  A    between atoms: C_23  and  N_25
                            x       y       z     vdW  Elec       q    Type
                         _______ _______ _______ _____ _____    ______ ____

>  <TORSDO>
F 5

$$$$
=
 OpenBabel11052412193D

 30 33  0  0  1  0  0  0  0  0999 V2000
  185.1620  176.9840  137.4810 C   0  0  0  0  0  0  0  0  0  0  0  0
  183.7150  177.4020  137.7130 C   0  0  1  0  0  3  0  0  0  0  0  0
  185.4850  175.6900  137.3780 C   0  0  0  0  0  3  0  0  0  0  0  0
  182.1050  174.2120  137.1150 O   0  0  0  0  0  0  0  0  0  0  0  0
  183.0460  175.0480  137.1510 C   0  0  0  0  0  0  0  0  0  0  0  0
  184.8700  173.3700  137.5050 C   0  0  0  0  0  3  0  0  0  0  0  0
  184.4580  174.6360  137.3710 C   0  0  0  0  0  0  0  0  0  0  0  0
  182.7370  176.5050  136.9350 C   0  0  2  0  0  3  0  0  0  0  0  0
  186.8910  177.9060  135.9050 C   0  0  0  0  0  0  0  0  0  0  0  0
  188.2110  177.2140  135.7090 C   0  0  0  0  0  2  0  0  0  0  0  0
  186.2900  178.3360  134.9310 O   0  0  0  0  0  0  0  0  0  0  0  0
  187.2660  178.0360  138.4180 C   0  0  0  0  0  2  0  0  0  0  0  0
  189.3610  177.1080  139.3670 C   0  0  0  0  0  1  0  0  0  0  0  0
  186.2500  177.9990  137.2690 C   0  0  2  0  0  3  0  0  0  0  0  0
  189.1320  177.3950  136.9130 C   0  0  0  0  0  2  0  0  0  0  0  0
  188.4010  177.0410  138.2000 C   0  0  2  0  0  3  0  0  0  0  0  0
  181.4330  177.2560  134.8250 C   0  0  0  0  0  2  0  0  0  0  0  0
  182.4090  178.2030  135.2080 O   0  0  0  0  0  0  0  0  0  0  0  0
  183.6970  176.3770  134.5940 O   0  0  0  0  0  1  0  0  0  0  0  0
  182.7030  176.8530  135.4500 C   0  0  1  0  0  0  0  0  0  0  0  0
  182.4330  176.4060  139.5760 O   0  0  0  0  0  0  0  0  0  0  0  0
  181.7090  178.1730  141.0180 C   0  0  0  0  0  1  0  0  0  0  0  0
  183.2880  177.4510  139.1940 C   0  0  2  0  0  0  0  0  0  0  0  0
  181.8720  177.7030  139.5810 C   0  0  1  0  0  3  0  0  0  0  0  0
  184.5370  179.9650  139.7800 O   0  0  0  0  0  0  0  0  0  0  0  0
  184.8910  178.9620  140.4520 C   0  0  0  0  0  0  0  0  0  0  0  0
  185.9030  179.1230  141.5310 C   0  0  0  0  0  1  0  0  0  0  0  0
  184.3310  177.6740  140.1930 N   0  0  0  0  0  2  0  0  0  0  0  0
  184.0610  171.4520  136.1770 C   0  0  0  0  0  1  0  0  0  0  0  0
  183.9850  172.1650  137.5140 C   0  0  0  0  0  2  0  0  0  0  0  0
  2  1  1  1  0  0  0
  2 23  1  0  0  0  0
  3  1  2  0  0  0  0
  4  5  2  0  0  0  0
  5  7  1  0  0  0  0
  6 30  1  0  0  0  0
  7  3  1  0  0  0  0
  7  6  2  0  0  0  0
  8  5  1  6  0  0  0
  8  2  1  0  0  0  0
  9 14  1  0  0  0  0
 10  9  1  0  0  0  0
 10 15  1  0  0  0  0
 11  9  2  0  0  0  0
 14  1  1  1  0  0  0
 14 12  1  0  0  0  0
 15 16  1  0  0  0  0
 16 12  1  0  0  0  0
 16 13  1  1  0  0  0
 17 18  1  0  0  0  0
 17 20  1  0  0  0  0
 18 20  1  0  0  0  0
 20 19  1  6  0  0  0
 20  8  1  0  0  0  0
 21 24  1  0  0  0  0
 23 21  1  0  0  0  0
 23 24  1  0  0  0  0
 23 28  1  1  0  0  0
 24 22  1  1  0  0  0
 25 26  2  0  0  0  0
 26 27  1  0  0  0  0
 28 26  1  0  0  0  0
 29 30  1  0  0  0  0
M  END
>  <MODEL>
3

>  <REMARK>
 VINA RESULT:      -4.7      2.812      6.544
  Name = 
  5 active torsions:
  status: ('A' for Active; 'I' for Inactive)
    1  A    between atoms: C_1  and  C_22
    2  A    between atoms: C_4  and  C_23
    3  A    between atoms: C_9  and  C_21
    4  A    between atoms: C_13  and  C_30
    5  A    between atoms: C_23  and  N_25
                            x       y       z     vdW  Elec       q    Type
                         _______ _______ _______ _____ _____    ______ ____

>  <TORSDO>
F 5

$$$$
=
 OpenBabel11052412193D

 30 33  0  0  1  0  0  0  0  0999 V2000
  182.8780  176.2750  138.4930 C   0  0  0  0  0  0  0  0  0  0  0  0
  183.2980  177.2190  137.3730 C   0  0  1  0  0  3  0  0  0  0  0  0
  183.1480  176.5750  139.7690 C   0  0  0  0  0  3  0  0  0  0  0  0
  184.2370  180.0880  139.3770 O   0  0  0  0  0  0  0  0  0  0  0  0
  183.7550  178.9500  139.1330 C   0  0  0  0  0  0  0  0  0  0  0  0
  184.2070  177.9880  141.4000 C   0  0  0  0  0  3  0  0  0  0  0  0
  183.7520  177.8620  140.1480 C   0  0  0  0  0  0  0  0  0  0  0  0
  183.1370  178.6910  137.7860 C   0  0  2  0  0  3  0  0  0  0  0  0
  182.7310  174.1110  137.2210 C   0  0  0  0  0  0  0  0  0  0  0  0
  182.2970  174.0840  135.7810 C   0  0  0  0  0  2  0  0  0  0  0  0
  183.6810  173.4270  137.5730 O   0  0  0  0  0  0  0  0  0  0  0  0
  180.6040  175.3330  137.8980 C   0  0  0  0  0  2  0  0  0  0  0  0
  178.9310  175.8850  136.1540 C   0  0  0  0  0  1  0  0  0  0  0  0
  182.0750  175.0350  138.2190 C   0  0  2  0  0  3  0  0  0  0  0  0
  180.8000  174.3360  135.6340 C   0  0  0  0  0  2  0  0  0  0  0  0
  180.3900  175.5800  136.4090 C   0  0  2  0  0  3  0  0  0  0  0  0
  181.2800  180.2570  136.8820 C   0  0  0  0  0  2  0  0  0  0  0  0
  181.0650  178.9120  136.5070 O   0  0  0  0  0  0  0  0  0  0  0  0
  180.8230  178.8340  138.8100 O   0  0  0  0  0  1  0  0  0  0  0  0
  181.6770  179.1360  137.7490 C   0  0  1  0  0  0  0  0  0  0  0  0
  185.0760  177.8260  135.7680 O   0  0  0  0  0  0  0  0  0  0  0  0
  186.3670  175.8660  135.3010 C   0  0  0  0  0  1  0  0  0  0  0  0
  184.7300  176.9960  136.8450 C   0  0  2  0  0  0  0  0  0  0  0  0
  184.9730  176.4460  135.4820 C   0  0  1  0  0  3  0  0  0  0  0  0
  186.7630  178.9770  137.2490 O   0  0  0  0  0  0  0  0  0  0  0  0
  186.7770  177.9620  137.9920 C   0  0  0  0  0  0  0  0  0  0  0  0
  187.8090  177.8460  139.0560 C   0  0  0  0  0  1  0  0  0  0  0  0
  185.8110  176.9220  137.8260 N   0  0  0  0  0  2  0  0  0  0  0  0
  184.7550  179.1840  143.4890 C   0  0  0  0  0  1  0  0  0  0  0  0
  184.8420  179.2130  141.9750 C   0  0  0  0  0  2  0  0  0  0  0  0
  1  3  2  0  0  0  0
  2  8  1  0  0  0  0
  2  1  1  1  0  0  0
  3  7  1  0  0  0  0
  5  4  2  0  0  0  0
  5  7  1  0  0  0  0
  6 30  1  0  0  0  0
  7  6  2  0  0  0  0
  8  5  1  1  0  0  0
  9 11  2  0  0  0  0
  9 14  1  0  0  0  0
 10  9  1  0  0  0  0
 12 14  1  0  0  0  0
 14  1  1  6  0  0  0
 15 10  1  0  0  0  0
 15 16  1  0  0  0  0
 16 13  1  1  0  0  0
 16 12  1  0  0  0  0
 17 20  1  0  0  0  0
 18 17  1  0  0  0  0
 18 20  1  0  0  0  0
 20  8  1  0  0  0  0
 20 19  1  1  0  0  0
 21 23  1  0  0  0  0
 23  2  1  0  0  0  0
 23 28  1  1  0  0  0
 24 22  1  1  0  0  0
 24 21  1  0  0  0  0
 24 23  1  0  0  0  0
 25 26  2  0  0  0  0
 26 27  1  0  0  0  0
 28 26  1  0  0  0  0
 30 29  1  0  0  0  0
M  END
>  <MODEL>
4

>  <REMARK>
 VINA RESULT:      -4.5      2.250      5.084
  Name = 
  5 active torsions:
  status: ('A' for Active; 'I' for Inactive)
    1  A    between atoms: C_1  and  C_22
    2  A    between atoms: C_4  and  C_23
    3  A    between atoms: C_9  and  C_21
    4  A    between atoms: C_13  and  C_30
    5  A    between atoms: C_23  and  N_25
                            x       y       z     vdW  Elec       q    Type
                         _______ _______ _______ _____ _____    ______ ____

>  <TORSDO>
F 5

$$$$
=
 OpenBabel11052412193D

 30 33  0  0  1  0  0  0  0  0999 V2000
  181.5380  177.5250  138.6300 C   0  0  0  0  0  0  0  0  0  0  0  0
  182.3710  178.7990  138.6960 C   0  0  1  0  0  3  0  0  0  0  0  0
  180.6370  177.2550  139.5830 C   0  0  0  0  0  3  0  0  0  0  0  0
  180.5830  180.5060  141.3450 O   0  0  0  0  0  0  0  0  0  0  0  0
  180.8080  179.6160  140.4830 C   0  0  0  0  0  0  0  0  0  0  0  0
  179.6130  177.7790  141.6930 C   0  0  0  0  0  3  0  0  0  0  0  0
  180.3380  178.2150  140.6570 C   0  0  0  0  0  0  0  0  0  0  0  0
  181.5480  179.9860  139.2260 C   0  0  2  0  0  3  0  0  0  0  0  0
  180.6990  176.9520  136.3310 C   0  0  0  0  0  0  0  0  0  0  0  0
  179.3870  176.2410  136.1370 C   0  0  0  0  0  2  0  0  0  0  0  0
  180.9820  177.8930  135.6040 O   0  0  0  0  0  0  0  0  0  0  0  0
  181.5340  175.1090  137.8730 C   0  0  0  0  0  2  0  0  0  0  0  0
  180.0550  173.1750  138.3430 C   0  0  0  0  0  1  0  0  0  0  0  0
  181.6280  176.5840  137.4620 C   0  0  2  0  0  3  0  0  0  0  0  0
  179.4740  174.7700  136.5320 C   0  0  0  0  0  2  0  0  0  0  0  0
  180.0890  174.6260  137.9170 C   0  0  2  0  0  3  0  0  0  0  0  0
  180.8070  181.9030  137.6480 C   0  0  0  0  0  2  0  0  0  0  0  0
  181.2280  180.7610  136.9300 O   0  0  0  0  0  0  0  0  0  0  0  0
  179.3240  180.0000  138.0110 O   0  0  0  0  0  1  0  0  0  0  0  0
  180.6020  180.5410  138.1660 C   0  0  1  0  0  0  0  0  0  0  0  0
  183.7780  177.4810  140.2420 O   0  0  0  0  0  0  0  0  0  0  0  0
  184.9830  179.0030  141.6420 C   0  0  0  0  0  1  0  0  0  0  0  0
  183.6710  178.6780  139.5180 C   0  0  2  0  0  0  0  0  0  0  0  0
  183.6440  178.6630  141.0070 C   0  0  1  0  0  3  0  0  0  0  0  0
  185.0620  177.0060  137.6500 O   0  0  0  0  0  0  0  0  0  0  0  0
  185.5540  178.1350  137.9070 C   0  0  0  0  0  0  0  0  0  0  0  0
  186.7990  178.5660  137.2170 C   0  0  0  0  0  1  0  0  0  0  0  0
  184.9280  179.0070  138.8500 N   0  0  0  0  0  2  0  0  0  0  0  0
  180.0560  178.2530  144.0750 C   0  0  0  0  0  1  0  0  0  0  0  0
  179.1990  178.6000  142.8720 C   0  0  0  0  0  2  0  0  0  0  0  0
  1  3  2  0  0  0  0
  2  1  1  1  0  0  0
  2  8  1  0  0  0  0
  2 23  1  0  0  0  0
  3  7  1  0  0  0  0
  5  7  1  0  0  0  0
  5  4  2  0  0  0  0
  6 30  1  0  0  0  0
  7  6  2  0  0  0  0
  8  5  1  1  0  0  0
  9 14  1  0  0  0  0
 10  9  1  0  0  0  0
 10 15  1  0  0  0  0
 11  9  2  0  0  0  0
 12 16  1  0  0  0  0
 14 12  1  0  0  0  0
 14  1  1  1  0  0  0
 15 16  1  0  0  0  0
 16 13  1  6  0  0  0
 17 20  1  0  0  0  0
 18 17  1  0  0  0  0
 18 20  1  0  0  0  0
 20 19  1  6  0  0  0
 20  8  1  0  0  0  0
 21 24  1  0  0  0  0
 23 28  1  6  0  0  0
 23 21  1  0  0  0  0
 23 24  1  0  0  0  0
 24 22  1  1  0  0  0
 25 26  2  0  0  0  0
 26 28  1  0  0  0  0
 27 26  1  0  0  0  0
 30 29  1  0  0  0  0
M  END
>  <MODEL>
5

>  <REMARK>
 VINA RESULT:      -4.4      2.165      4.670
  Name = 
  5 active torsions:
  status: ('A' for Active; 'I' for Inactive)
    1  A    between atoms: C_1  and  C_22
    2  A    between atoms: C_4  and  C_23
    3  A    between atoms: C_9  and  C_21
    4  A    between atoms: C_13  and  C_30
    5  A    between atoms: C_23  and  N_25
                            x       y       z     vdW  Elec       q    Type
                         _______ _______ _______ _____ _____    ______ ____

>  <TORSDO>
F 5

$$$$
=
 OpenBabel11052412193D

 30 33  0  0  1  0  0  0  0  0999 V2000
  182.1490  178.4580  139.6010 C   0  0  0  0  0  0  0  0  0  0  0  0
  181.9430  178.3500  138.0950 C   0  0  1  0  0  3  0  0  0  0  0  0
  181.4960  177.6400  140.4340 C   0  0  0  0  0  3  0  0  0  0  0  0
  180.1230  175.2190  137.9980 O   0  0  0  0  0  0  0  0  0  0  0  0
  180.7950  176.1560  138.5060 C   0  0  0  0  0  0  0  0  0  0  0  0
  179.8520  175.9280  140.8140 C   0  0  0  0  0  3  0  0  0  0  0  0
  180.6510  176.5430  139.9350 C   0  0  0  0  0  0  0  0  0  0  0  0
  181.7940  176.8850  137.6490 C   0  0  2  0  0  3  0  0  0  0  0  0
  184.5010  179.3430  139.5280 C   0  0  0  0  0  0  0  0  0  0  0  0
  185.6380  178.5790  140.1510 C   0  0  0  0  0  2  0  0  0  0  0  0
  184.6560  179.8520  138.4270 O   0  0  0  0  0  0  0  0  0  0  0  0
  183.2160  179.3340  141.7240 C   0  0  0  0  0  2  0  0  0  0  0  0
  184.2290  178.2370  143.7030 C   0  0  0  0  0  1  0  0  0  0  0  0
  183.1480  179.4120  140.1930 C   0  0  2  0  0  3  0  0  0  0  0  0
  185.6000  178.6490  141.6750 C   0  0  0  0  0  2  0  0  0  0  0  0
  184.2160  178.2820  142.1910 C   0  0  2  0  0  3  0  0  0  0  0  0
  183.8000  175.9120  136.3290 C   0  0  0  0  0  2  0  0  0  0  0  0
  184.1910  176.9720  137.1770 O   0  0  0  0  0  0  0  0  0  0  0  0
  183.5210  175.3460  138.6850 O   0  0  0  0  0  1  0  0  0  0  0  0
  183.1360  176.1600  137.6190 C   0  0  1  0  0  0  0  0  0  0  0  0
  179.9980  178.4940  136.5780 O   0  0  0  0  0  0  0  0  0  0  0  0
  179.7590  180.7690  135.8770 C   0  0  0  0  0  1  0  0  0  0  0  0
  180.7580  179.1690  137.5450 C   0  0  2  0  0  0  0  0  0  0  0  0
  180.7230  179.6200  136.1260 C   0  0  1  0  0  3  0  0  0  0  0  0
  181.2830  181.7210  138.7430 O   0  0  0  0  0  0  0  0  0  0  0  0
  180.2110  181.1380  139.0490 C   0  0  0  0  0  0  0  0  0  0  0  0
  179.2560  181.7990  139.9780 C   0  0  0  0  0  1  0  0  0  0  0  0
  179.9000  179.8510  138.5110 N   0  0  0  0  0  2  0  0  0  0  0  0
  179.0150  173.7400  141.5940 C   0  0  0  0  0  1  0  0  0  0  0  0
  178.9310  174.7930  140.5040 C   0  0  0  0  0  2  0  0  0  0  0  0
  1  3  2  0  0  0  0
  2  1  1  1  0  0  0
  4  5  2  0  0  0  0
  5  7  1  0  0  0  0
  7  3  1  0  0  0  0
  7  6  2  0  0  0  0
  8  2  1  0  0  0  0
  8  5  1  1  0  0  0
  9 10  1  0  0  0  0
  9 14  1  0  0  0  0
 10 15  1  0  0  0  0
 11  9  2  0  0  0  0
 12 16  1  0  0  0  0
 14  1  1  6  0  0  0
 14 12  1  0  0  0  0
 15 16  1  0  0  0  0
 16 13  1  1  0  0  0
 17 18  1  0  0  0  0
 17 20  1  0  0  0  0
 18 20  1  0  0  0  0
 20  8  1  0  0  0  0
 20 19  1  1  0  0  0
 21 23  1  0  0  0  0
 23  2  1  0  0  0  0
 23 28  1  1  0  0  0
 24 22  1  1  0  0  0
 24 21  1  0  0  0  0
 24 23  1  0  0  0  0
 25 26  2  0  0  0  0
 26 27  1  0  0  0  0
 28 26  1  0  0  0  0
 30  6  1  0  0  0  0
 30 29  1  0  0  0  0
M  END
>  <MODEL>
6

>  <REMARK>
 VINA RESULT:      -4.4      1.845      5.371
  Name = 
  5 active torsions:
  status: ('A' for Active; 'I' for Inactive)
    1  A    between atoms: C_1  and  C_22
    2  A    between atoms: C_4  and  C_23
    3  A    between atoms: C_9  and  C_21
    4  A    between atoms: C_13  and  C_30
    5  A    between atoms: C_23  and  N_25
                            x       y       z     vdW  Elec       q    Type
                         _______ _______ _______ _____ _____    ______ ____

>  <TORSDO>
F 5

$$$$
=
 OpenBabel11052412193D

 30 33  0  0  1  0  0  0  0  0999 V2000
  182.3930  176.2550  138.4350 C   0  0  0  0  0  0  0  0  0  0  0  0
  183.1180  177.4150  137.7630 C   0  0  1  0  0  3  0  0  0  0  0  0
  181.6260  176.4680  139.5110 C   0  0  0  0  0  3  0  0  0  0  0  0
  181.4840  180.1630  139.4680 O   0  0  0  0  0  0  0  0  0  0  0  0
  181.6900  178.9690  139.1230 C   0  0  0  0  0  0  0  0  0  0  0  0
  180.7910  177.9370  141.2200 C   0  0  0  0  0  3  0  0  0  0  0  0
  181.3620  177.8240  140.0150 C   0  0  0  0  0  0  0  0  0  0  0  0
  182.2580  178.6900  137.7580 C   0  0  2  0  0  3  0  0  0  0  0  0
  183.6690  174.6010  137.0360 C   0  0  0  0  0  0  0  0  0  0  0  0
  183.6200  174.6530  135.5330 C   0  0  0  0  0  2  0  0  0  0  0  0
  184.7420  174.4180  137.5930 O   0  0  0  0  0  0  0  0  0  0  0  0
  181.1330  174.4590  137.1710 C   0  0  0  0  0  2  0  0  0  0  0  0
  179.8170  174.4540  135.0690 C   0  0  0  0  0  1  0  0  0  0  0  0
  182.4380  174.8640  137.8690 C   0  0  2  0  0  3  0  0  0  0  0  0
  182.2810  174.1620  134.9920 C   0  0  0  0  0  2  0  0  0  0  0  0
  181.1300  174.8610  135.7010 C   0  0  2  0  0  3  0  0  0  0  0  0
  181.1800  179.5840  135.5780 C   0  0  0  0  0  2  0  0  0  0  0  0
  181.6350  178.2540  135.4350 O   0  0  0  0  0  0  0  0  0  0  0  0
  179.9320  178.0370  136.9920 O   0  0  0  0  0  1  0  0  0  0  0  0
  181.1600  178.6320  136.7000 C   0  0  1  0  0  0  0  0  0  0  0  0
  185.0080  178.9930  137.9730 O   0  0  0  0  0  0  0  0  0  0  0  0
  187.0180  177.7230  138.2450 C   0  0  0  0  0  1  0  0  0  0  0  0
  184.5030  177.7410  138.3580 C   0  0  2  0  0  0  0  0  0  0  0  0
  185.7070  177.8630  137.4900 C   0  0  1  0  0  3  0  0  0  0  0  0
  184.8150  179.7710  140.3600 O   0  0  0  0  0  0  0  0  0  0  0  0
  184.8210  178.5700  140.7350 C   0  0  0  0  0  0  0  0  0  0  0  0
  184.9530  178.2550  142.1820 C   0  0  0  0  0  1  0  0  0  0  0  0
  184.6990  177.5080  139.7870 N   0  0  0  0  0  2  0  0  0  0  0  0
  181.2390  179.3760  143.1760 C   0  0  0  0  0  1  0  0  0  0  0  0
  180.4370  179.2210  141.8970 C   0  0  0  0  0  2  0  0  0  0  0  0
  1  3  2  0  0  0  0
  2 23  1  0  0  0  0
  2  1  1  1  0  0  0
  3  7  1  0  0  0  0
  5  4  2  0  0  0  0
  5  7  1  0  0  0  0
  6 30  1  0  0  0  0
  7  6  2  0  0  0  0
  8  2  1  0  0  0  0
  8  5  1  1  0  0  0
  9 11  2  0  0  0  0
  9 14  1  0  0  0  0
 10  9  1  0  0  0  0
 12 14  1  0  0  0  0
 14  1  1  6  0  0  0
 15 10  1  0  0  0  0
 15 16  1  0  0  0  0
 16 13  1  6  0  0  0
 16 12  1  0  0  0  0
 17 20  1  0  0  0  0
 18 17  1  0  0  0  0
 18 20  1  0  0  0  0
 20 19  1  1  0  0  0
 20  8  1  0  0  0  0
 21 23  1  0  0  0  0
 23 28  1  1  0  0  0
 24 21  1  0  0  0  0
 24 22  1  1  0  0  0
 24 23  1  0  0  0  0
 25 26  2  0  0  0  0
 26 27  1  0  0  0  0
 28 26  1  0  0  0  0
 30 29  1  0  0  0  0
M  END
>  <MODEL>
7

>  <REMARK>
 VINA RESULT:      -4.4      2.077      5.301
  Name = 
  5 active torsions:
  status: ('A' for Active; 'I' for Inactive)
    1  A    between atoms: C_1  and  C_22
    2  A    between atoms: C_4  and  C_23
    3  A    between atoms: C_9  and  C_21
    4  A    between atoms: C_13  and  C_30
    5  A    between atoms: C_23  and  N_25
                            x       y       z     vdW  Elec       q    Type
                         _______ _______ _______ _____ _____    ______ ____

>  <TORSDO>
F 5

$$$$
=
 OpenBabel11052412193D

 30 33  0  0  1  0  0  0  0  0999 V2000
  182.4800  177.4370  137.8240 C   0  0  0  0  0  0  0  0  0  0  0  0
  180.9860  177.4190  137.5270 C   0  0  1  0  0  3  0  0  0  0  0  0
  182.9260  177.7940  139.0350 C   0  0  0  0  0  3  0  0  0  0  0  0
  179.7340  177.8160  140.9040 O   0  0  0  0  0  0  0  0  0  0  0  0
  180.5890  177.6320  139.9970 C   0  0  0  0  0  0  0  0  0  0  0  0
  182.5080  178.6490  141.2420 C   0  0  0  0  0  3  0  0  0  0  0  0
  182.0020  178.0720  140.1460 C   0  0  0  0  0  0  0  0  0  0  0  0
  180.1760  176.9220  138.7360 C   0  0  2  0  0  3  0  0  0  0  0  0
  182.8890  176.6910  135.4590 C   0  0  0  0  0  0  0  0  0  0  0  0
  182.5740  175.2870  135.0210 C   0  0  0  0  0  2  0  0  0  0  0  0
  182.5820  177.6270  134.7330 O   0  0  0  0  0  0  0  0  0  0  0  0
  184.3780  175.8330  137.3350 C   0  0  0  0  0  2  0  0  0  0  0  0
  184.6610  173.3860  137.6180 C   0  0  0  0  0  1  0  0  0  0  0  0
  183.4910  176.9720  136.8140 C   0  0  2  0  0  3  0  0  0  0  0  0
  183.5810  174.2810  135.5700 C   0  0  0  0  0  2  0  0  0  0  0  0
  183.7550  174.4670  137.0700 C   0  0  2  0  0  3  0  0  0  0  0  0
  179.1370  174.5640  138.4650 C   0  0  0  0  0  2  0  0  0  0  0  0
  180.2950  174.7250  137.6710 O   0  0  0  0  0  0  0  0  0  0  0  0
  181.1430  174.8480  139.8240 O   0  0  0  0  0  1  0  0  0  0  0  0
  180.2630  175.4070  138.8960 C   0  0  1  0  0  0  0  0  0  0  0  0
  179.0940  179.0070  137.4800 O   0  0  0  0  0  0  0  0  0  0  0  0
  179.1340  180.1610  135.3840 C   0  0  0  0  0  1  0  0  0  0  0  0
  180.4070  178.7660  137.0490 C   0  0  2  0  0  0  0  0  0  0  0  0
  179.2700  178.8210  136.0900 C   0  0  1  0  0  3  0  0  0  0  0  0
  180.0460  180.8220  139.0160 O   0  0  0  0  0  0  0  0  0  0  0  0
  181.0200  180.9290  138.2270 C   0  0  0  0  0  0  0  0  0  0  0  0
  181.9520  182.0800  138.3640 C   0  0  0  0  0  1  0  0  0  0  0  0
  181.2420  179.9560  137.2050 N   0  0  0  0  0  2  0  0  0  0  0  0
  182.6500  178.9760  143.6860 C   0  0  0  0  0  1  0  0  0  0  0  0
  181.7370  179.0000  142.4740 C   0  0  0  0  0  2  0  0  0  0  0  0
  1  3  2  0  0  0  0
  2  1  1  1  0  0  0
  2  8  1  0  0  0  0
  3  7  1  0  0  0  0
  5  7  1  0  0  0  0
  5  4  2  0  0  0  0
  6 30  1  0  0  0  0
  7  6  2  0  0  0  0
  8 20  1  0  0  0  0
  8  5  1  1  0  0  0
  9 14  1  0  0  0  0
 10  9  1  0  0  0  0
 10 15  1  0  0  0  0
 11  9  2  0  0  0  0
 14 12  1  0  0  0  0
 14  1  1  1  0  0  0
 15 16  1  0  0  0  0
 16 12  1  0  0  0  0
 16 13  1  6  0  0  0
 17 20  1  0  0  0  0
 18 17  1  0  0  0  0
 18 20  1  0  0  0  0
 20 19  1  1  0  0  0
 23 28  1  1  0  0  0
 23 21  1  0  0  0  0
 23  2  1  0  0  0  0
 24 22  1  6  0  0  0
 24 23  1  0  0  0  0
 24 21  1  0  0  0  0
 26 27  1  0  0  0  0
 26 25  2  0  0  0  0
 28 26  1  0  0  0  0
 30 29  1  0  0  0  0
M  END
>  <MODEL>
8

>  <REMARK>
 VINA RESULT:      -4.4      2.054      5.286
  Name = 
  5 active torsions:
  status: ('A' for Active; 'I' for Inactive)
    1  A    between atoms: C_1  and  C_22
    2  A    between atoms: C_4  and  C_23
    3  A    between atoms: C_9  and  C_21
    4  A    between atoms: C_13  and  C_30
    5  A    between atoms: C_23  and  N_25
                            x       y       z     vdW  Elec       q    Type
                         _______ _______ _______ _____ _____    ______ ____

>  <TORSDO>
F 5

$$$$
=
 OpenBabel11052412193D

 30 33  0  0  1  0  0  0  0  0999 V2000
  181.0260  178.5910  138.0900 C   0  0  0  0  0  0  0  0  0  0  0  0
  180.9600  177.8260  139.4060 C   0  0  1  0  0  3  0  0  0  0  0  0
  181.9870  178.3220  137.1970 C   0  0  0  0  0  3  0  0  0  0  0  0
  183.3620  175.2170  138.6620 O   0  0  0  0  0  0  0  0  0  0  0  0
  182.6120  176.2030  138.4350 C   0  0  0  0  0  0  0  0  0  0  0  0
  184.0030  177.1650  136.5890 C   0  0  0  0  0  3  0  0  0  0  0  0
  182.9380  177.2170  137.3960 C   0  0  0  0  0  0  0  0  0  0  0  0
  181.3350  176.3460  139.2180 C   0  0  2  0  0  3  0  0  0  0  0  0
  180.5130  180.7250  136.8630 C   0  0  0  0  0  0  0  0  0  0  0  0
  180.8370  182.0640  137.4650 C   0  0  0  0  0  2  0  0  0  0  0  0
  180.7600  180.5240  135.6830 O   0  0  0  0  0  0  0  0  0  0  0  0
  179.1430  180.0740  138.9060 C   0  0  0  0  0  2  0  0  0  0  0  0
  178.9310  181.6920  140.7730 C   0  0  0  0  0  1  0  0  0  0  0  0
  179.9760  179.5960  137.7090 C   0  0  2  0  0  3  0  0  0  0  0  0
  179.8830  182.4220  138.6000 C   0  0  0  0  0  2  0  0  0  0  0  0
  179.7820  181.2750  139.5940 C   0  0  2  0  0  3  0  0  0  0  0  0
  179.3840  174.6530  139.4170 C   0  0  0  0  0  2  0  0  0  0  0  0
  178.9320  175.9360  139.0370 O   0  0  0  0  0  0  0  0  0  0  0  0
  180.2030  175.2920  137.2100 O   0  0  0  0  0  1  0  0  0  0  0  0
  180.2010  175.5480  138.5820 C   0  0  1  0  0  0  0  0  0  0  0  0
  182.8410  179.2710  140.0990 O   0  0  0  0  0  0  0  0  0  0  0  0
  183.7990  178.3520  142.0900 C   0  0  0  0  0  1  0  0  0  0  0  0
  181.8140  178.4230  140.5430 C   0  0  2  0  0  0  0  0  0  0  0  0
  183.2490  178.0600  140.7030 C   0  0  1  0  0  3  0  0  0  0  0  0
  179.6540  177.1930  141.9710 O   0  0  0  0  0  0  0  0  0  0  0  0
  180.0580  178.3150  142.3710 C   0  0  0  0  0  0  0  0  0  0  0  0
  179.4340  178.9340  143.5700 C   0  0  0  0  0  1  0  0  0  0  0  0
  181.1120  178.9970  141.6880 N   0  0  0  0  0  2  0  0  0  0  0  0
  186.3800  176.7280  137.0990 C   0  0  0  0  0  1  0  0  0  0  0  0
  185.0720  176.1200  136.6270 C   0  0  0  0  0  2  0  0  0  0  0  0
  2  1  1  6  0  0  0
  2 23  1  0  0  0  0
  3  7  1  0  0  0  0
  3  1  2  0  0  0  0
  5  4  2  0  0  0  0
  6 30  1  0  0  0  0
  6  7  2  0  0  0  0
  7  5  1  0  0  0  0
  8  5  1  6  0  0  0
  8  2  1  0  0  0  0
  9 10  1  0  0  0  0
  9 14  1  0  0  0  0
 10 15  1  0  0  0  0
 11  9  2  0  0  0  0
 12 16  1  0  0  0  0
 14  1  1  1  0  0  0
 14 12  1  0  0  0  0
 15 16  1  0  0  0  0
 16 13  1  1  0  0  0
 18 17  1  0  0  0  0
 20 19  1  6  0  0  0
 20 18  1  0  0  0  0
 20  8  1  0  0  0  0
 20 17  1  0  0  0  0
 21 23  1  0  0  0  0
 21 24  1  0  0  0  0
 23 24  1  0  0  0  0
 23 28  1  1  0  0  0
 24 22  1  1  0  0  0
 25 26  2  0  0  0  0
 26 27  1  0  0  0  0
 28 26  1  0  0  0  0
 30 29  1  0  0  0  0
M  END
>  <MODEL>
9

>  <REMARK>
 VINA RESULT:      -4.3      1.957      4.823
  Name = 
  5 active torsions:
  status: ('A' for Active; 'I' for Inactive)
    1  A    between atoms: C_1  and  C_22
    2  A    between atoms: C_4  and  C_23
    3  A    between atoms: C_9  and  C_21
    4  A    between atoms: C_13  and  C_30
    5  A    between atoms: C_23  and  N_25
                            x       y       z     vdW  Elec       q    Type
                         _______ _______ _______ _____ _____    ______ ____

>  <TORSDO>
F 5

$$$$
