=
 OpenBabel11052415563D

 34 38  0  0  1  0  0  0  0  0999 V2000
  187.2210  177.9240  144.6000 C   0  0  0  0  0  0  0  0  0  0  0  0
  188.9140  177.8170  147.8700 C   0  0  0  0  0  3  0  0  0  0  0  0
  186.7090  177.9750  147.3090 N   0  0  0  0  0  2  0  0  0  0  0  0
  186.4500  178.1790  142.2890 C   0  0  0  0  0  0  0  0  0  0  0  0
  187.4600  177.9130  143.2140 C   0  0  0  0  0  3  0  0  0  0  0  0
  184.8830  178.4760  144.1190 C   0  0  0  0  0  0  0  0  0  0  0  0
  183.5480  178.7740  144.5210 N   0  0  0  0  0  1  0  0  0  0  0  0
  185.1680  178.4640  142.7520 C   0  0  0  0  0  3  0  0  0  0  0  0
  185.6760  178.1710  146.4530 C   0  0  0  0  0  0  0  0  0  0  0  0
  185.9080  178.2020  145.0650 C   0  0  0  0  0  0  0  0  0  0  0  0
  184.5230  178.3450  146.9320 O   0  0  0  0  0  0  0  0  0  0  0  0
  190.3870  177.9230  147.6680 C   0  0  0  0  0  2  0  0  0  0  0  0
  190.9530  176.7580  146.9420 C   0  0  0  0  0  0  0  0  0  0  0  0
  190.5390  176.4610  145.7140 C   0  0  0  0  0  3  0  0  0  0  0  0
  187.9870  177.7650  146.9060 C   0  0  0  0  0  0  0  0  0  0  0  0
  189.3880  177.0610  145.0150 C   0  0  0  0  0  3  0  0  0  0  0  0
  188.2630  177.6220  145.5150 C   0  0  0  0  0  0  0  0  0  0  0  0
  192.0960  176.0370  147.5280 C   0  0  0  0  0  0  0  0  0  0  0  0
  192.7480  176.5540  148.6410 O   0  0  0  0  0  1  0  0  0  0  0  0
  192.4910  174.9470  147.0340 O   0  0  0  0  0  0  0  0  0  0  0  0
  186.6850  178.1770  140.9060 O   0  0  0  0  0  0  0  0  0  0  0  0
  188.5760  176.8880  138.4240 C   0  0  0  0  0  2  0  0  0  0  0  0
  189.1370  177.9490  141.0010 C   0  0  0  0  0  2  0  0  0  0  0  0
  192.4090  176.5890  138.7370 C   0  0  0  0  0  0  0  0  0  0  0  0
  191.0360  176.5170  138.1130 C   0  0  0  0  0  2  0  0  0  0  0  0
  189.9190  176.6840  139.1450 C   0  0  1  0  0  3  0  0  0  0  0  0
  191.3930  177.3390  140.8710 C   0  0  0  0  0  2  0  0  0  0  0  0
  190.2500  177.7790  140.0730 N   0  0  2  0  0  0  0  0  0  0  0  0
  192.5700  177.0310  139.9920 C   0  0  0  0  0  3  0  0  0  0  0  0
  187.9180  178.5230  140.2690 C   0  0  1  0  0  3  0  0  0  0  0  0
  187.9050  178.2210  138.7640 C   0  0  0  0  0  2  0  0  0  0  0  0
  193.5850  176.2710  137.9100 C   0  0  0  0  0  0  0  0  0  0  0  0
  193.6870  176.7220  136.7370 O   0  0  0  0  0  0  0  0  0  0  0  0
  194.5990  175.4700  138.4210 O   0  0  0  0  0  1  0  0  0  0  0  0
  1 10  1  0  0  0  0
  1 17  1  0  0  0  0
  4  8  2  0  0  0  0
  4  5  1  0  0  0  0
  5  1  2  0  0  0  0
  6  7  1  0  0  0  0
  6 10  2  0  0  0  0
  8  6  1  0  0  0  0
  9 11  2  0  0  0  0
  9  3  1  0  0  0  0
 10  9  1  0  0  0  0
 12  2  1  0  0  0  0
 13 18  1  0  0  0  0
 13 12  1  0  0  0  0
 14 13  2  0  0  0  0
 15  3  1  0  0  0  0
 15  2  2  0  0  0  0
 16 17  2  0  0  0  0
 16 14  1  0  0  0  0
 17 15  1  0  0  0  0
 18 19  1  0  0  0  0
 20 18  2  0  0  0  0
 21  4  1  0  0  0  0
 22 31  1  0  0  0  0
 22 26  1  0  0  0  0
 24 29  2  0  0  0  0
 25 24  1  0  0  0  0
 26 25  1  6  0  0  0
 26 28  1  0  0  0  0
 28 27  1  1  0  0  0
 28 23  1  0  0  0  0
 29 27  1  0  0  0  0
 30 21  1  1  0  0  0
 30 23  1  0  0  0  0
 31 30  1  0  0  0  0
 32 34  1  0  0  0  0
 32 24  1  0  0  0  0
 33 32  2  0  0  0  0
M  END
>  <MODEL>
1

>  <REMARK>
 VINA RESULT:     -11.1      0.000      0.000
  Name = 
  4 active torsions:
  status: ('A' for Active; 'I' for Inactive)
    1  A    between atoms: C_3  and  C_25
    2  A    between atoms: C_7  and  C_11
    3  A    between atoms: C_8  and  O_18
    4  A    between atoms: O_18  and  C_30
                            x       y       z     vdW  Elec       q    Type
                         _______ _______ _______ _____ _____    ______ ____

>  <TORSDO>
F 4

$$$$
=
 OpenBabel11052415563D

 34 38  0  0  1  0  0  0  0  0999 V2000
  182.9740  178.6030  141.6570 C   0  0  0  0  0  0  0  0  0  0  0  0
  183.2350  177.9340  138.0430 C   0  0  0  0  0  3  0  0  0  0  0  0
  181.4970  178.6620  139.3290 N   0  0  0  0  0  2  0  0  0  0  0  0
  183.0920  178.7450  144.0990 C   0  0  0  0  0  0  0  0  0  0  0  0
  183.7050  178.5680  142.8580 C   0  0  0  0  0  3  0  0  0  0  0  0
  180.9550  179.0170  142.9810 C   0  0  0  0  0  0  0  0  0  0  0  0
  179.5540  179.2460  143.1080 N   0  0  0  0  0  1  0  0  0  0  0  0
  181.7180  178.9640  144.1480 C   0  0  0  0  0  3  0  0  0  0  0  0
  180.8640  178.9110  140.5010 C   0  0  0  0  0  0  0  0  0  0  0  0
  181.5740  178.8390  141.7140 C   0  0  0  0  0  0  0  0  0  0  0  0
  179.6330  179.1810  140.4740 O   0  0  0  0  0  0  0  0  0  0  0  0
  184.5390  177.2720  137.7560 C   0  0  0  0  0  2  0  0  0  0  0  0
  185.7030  178.1510  138.0340 C   0  0  0  0  0  0  0  0  0  0  0  0
  185.9130  178.6270  139.2580 C   0  0  0  0  0  3  0  0  0  0  0  0
  182.8200  178.3740  139.2370 C   0  0  0  0  0  0  0  0  0  0  0  0
  184.9790  178.5430  140.3960 C   0  0  0  0  0  3  0  0  0  0  0  0
  183.6290  178.4460  140.4070 C   0  0  0  0  0  0  0  0  0  0  0  0
  186.7150  178.3520  136.9830 C   0  0  0  0  0  0  0  0  0  0  0  0
  187.8220  179.1580  137.2280 O   0  0  0  0  0  1  0  0  0  0  0  0
  186.5940  177.7970  135.8580 O   0  0  0  0  0  0  0  0  0  0  0  0
  183.8150  178.7040  145.3010 O   0  0  0  0  0  0  0  0  0  0  0  0
  186.7770  177.3190  144.4590 C   0  0  0  0  0  2  0  0  0  0  0  0
  185.7690  178.5820  146.7980 C   0  0  0  0  0  2  0  0  0  0  0  0
  189.7380  177.1990  146.9290 C   0  0  0  0  0  0  0  0  0  0  0  0
  188.9690  177.0270  145.6400 C   0  0  0  0  0  2  0  0  0  0  0  0
  187.4640  177.2210  145.8320 C   0  0  1  0  0  3  0  0  0  0  0  0
  187.6880  178.0580  148.0300 C   0  0  0  0  0  2  0  0  0  0  0  0
  187.2120  178.3920  146.6900 N   0  0  2  0  0  0  0  0  0  0  0  0
  189.1550  177.7360  148.0090 C   0  0  0  0  0  3  0  0  0  0  0  0
  185.1930  179.0530  145.4570 C   0  0  1  0  0  3  0  0  0  0  0  0
  186.0410  178.6440  144.2450 C   0  0  0  0  0  2  0  0  0  0  0  0
  191.1730  176.8710  146.9500 C   0  0  0  0  0  0  0  0  0  0  0  0
  191.8530  177.0320  147.9990 O   0  0  0  0  0  1  0  0  0  0  0  0
  191.7910  176.3730  145.8100 O   0  0  0  0  0  0  0  0  0  0  0  0
  1 10  2  0  0  0  0
  1  5  1  0  0  0  0
  2 15  2  0  0  0  0
  3  9  1  0  0  0  0
  4  8  1  0  0  0  0
  4 21  1  0  0  0  0
  5  4  2  0  0  0  0
  6  7  1  0  0  0  0
  6  8  2  0  0  0  0
  9 10  1  0  0  0  0
 10  6  1  0  0  0  0
 11  9  2  0  0  0  0
 12 13  1  0  0  0  0
 12  2  1  0  0  0  0
 13 14  2  0  0  0  0
 14 16  1  0  0  0  0
 15  3  1  0  0  0  0
 15 17  1  0  0  0  0
 16 17  2  0  0  0  0
 17  1  1  0  0  0  0
 18 19  1  0  0  0  0
 18 13  1  0  0  0  0
 20 18  2  0  0  0  0
 24 32  1  0  0  0  0
 24 29  2  0  0  0  0
 25 26  1  0  0  0  0
 25 24  1  0  0  0  0
 26 22  1  6  0  0  0
 26 28  1  0  0  0  0
 28 23  1  1  0  0  0
 28 27  1  0  0  0  0
 29 27  1  0  0  0  0
 30 21  1  6  0  0  0
 30 23  1  0  0  0  0
 31 22  1  0  0  0  0
 31 30  1  0  0  0  0
 32 33  1  0  0  0  0
 34 32  2  0  0  0  0
M  END
>  <MODEL>
2

>  <REMARK>
 VINA RESULT:     -10.4      3.660      8.204
  Name = 
  4 active torsions:
  status: ('A' for Active; 'I' for Inactive)
    1  A    between atoms: C_3  and  C_25
    2  A    between atoms: C_7  and  C_11
    3  A    between atoms: C_8  and  O_18
    4  A    between atoms: O_18  and  C_30
                            x       y       z     vdW  Elec       q    Type
                         _______ _______ _______ _____ _____    ______ ____

>  <TORSDO>
F 4

$$$$
=
 OpenBabel11052415563D

 34 38  0  0  1  0  0  0  0  0999 V2000
  188.4760  177.5520  144.5540 C   0  0  0  0  0  0  0  0  0  0  0  0
  191.7730  177.1470  142.9590 C   0  0  0  0  0  3  0  0  0  0  0  0
  191.0810  176.8360  145.1100 N   0  0  0  0  0  2  0  0  0  0  0  0
  186.2210  178.1190  145.3230 C   0  0  0  0  0  0  0  0  0  0  0  0
  187.1450  177.9260  144.2950 C   0  0  0  0  0  3  0  0  0  0  0  0
  187.9370  177.5540  146.9430 C   0  0  0  0  0  0  0  0  0  0  0  0
  188.2840  177.3830  148.3160 N   0  0  0  0  0  1  0  0  0  0  0  0
  186.6290  177.9360  146.6410 C   0  0  0  0  0  3  0  0  0  0  0  0
  190.2070  176.9400  146.1400 C   0  0  0  0  0  0  0  0  0  0  0  0
  188.8820  177.3530  145.9010 C   0  0  0  0  0  0  0  0  0  0  0  0
  190.6150  176.6840  147.3040 O   0  0  0  0  0  0  0  0  0  0  0  0
  191.7200  177.6870  141.5710 C   0  0  0  0  0  2  0  0  0  0  0  0
  190.8070  176.9170  140.6890 C   0  0  0  0  0  0  0  0  0  0  0  0
  189.5140  176.8120  140.9810 C   0  0  0  0  0  3  0  0  0  0  0  0
  190.7480  177.0740  143.8160 C   0  0  0  0  0  0  0  0  0  0  0  0
  188.8700  177.2280  142.2400 C   0  0  0  0  0  3  0  0  0  0  0  0
  189.3860  177.3360  143.4860 C   0  0  0  0  0  0  0  0  0  0  0  0
  191.3140  176.4120  139.4010 C   0  0  0  0  0  0  0  0  0  0  0  0
  192.5560  176.8250  138.9320 O   0  0  0  0  0  1  0  0  0  0  0  0
  190.6350  175.6020  138.7150 O   0  0  0  0  0  0  0  0  0  0  0  0
  184.8940  178.5000  145.0710 O   0  0  0  0  0  0  0  0  0  0  0  0
  182.2620  178.5740  142.9580 C   0  0  0  0  0  2  0  0  0  0  0  0
  185.0640  178.9450  142.6530 C   0  0  0  0  0  2  0  0  0  0  0  0
  182.7010  179.2750  139.1900 C   0  0  0  0  0  0  0  0  0  0  0  0
  182.0030  179.0110  140.5030 C   0  0  0  0  0  2  0  0  0  0  0  0
  182.9710  178.5500  141.5930 C   0  0  1  0  0  3  0  0  0  0  0  0
  184.8980  179.0540  140.3210 C   0  0  0  0  0  2  0  0  0  0  0  0
  184.1940  179.3710  141.5620 N   0  0  2  0  0  0  0  0  0  0  0  0
  184.0370  179.3570  139.1280 C   0  0  0  0  0  3  0  0  0  0  0  0
  184.4580  179.3460  144.0030 C   0  0  1  0  0  3  0  0  0  0  0  0
  182.9320  179.5070  143.9700 C   0  0  0  0  0  2  0  0  0  0  0  0
  181.8880  179.5540  137.9950 C   0  0  0  0  0  0  0  0  0  0  0  0
  181.3920  180.6970  137.8070 O   0  0  0  0  0  1  0  0  0  0  0  0
  181.6650  178.5540  137.0560 O   0  0  0  0  0  0  0  0  0  0  0  0
  1 10  1  0  0  0  0
  2 15  2  0  0  0  0
  3  9  1  0  0  0  0
  4  8  2  0  0  0  0
  5  1  2  0  0  0  0
  5  4  1  0  0  0  0
  6  7  1  0  0  0  0
  8  6  1  0  0  0  0
  9 11  2  0  0  0  0
 10  9  1  0  0  0  0
 10  6  2  0  0  0  0
 12  2  1  0  0  0  0
 13 14  2  0  0  0  0
 13 12  1  0  0  0  0
 14 16  1  0  0  0  0
 15  3  1  0  0  0  0
 16 17  2  0  0  0  0
 17 15  1  0  0  0  0
 17  1  1  0  0  0  0
 18 13  1  0  0  0  0
 19 18  1  0  0  0  0
 20 18  2  0  0  0  0
 21  4  1  0  0  0  0
 22 31  1  0  0  0  0
 23 30  1  0  0  0  0
 24 25  1  0  0  0  0
 26 25  1  6  0  0  0
 26 22  1  0  0  0  0
 28 27  1  6  0  0  0
 28 26  1  0  0  0  0
 28 23  1  0  0  0  0
 29 24  2  0  0  0  0
 29 27  1  0  0  0  0
 30 21  1  1  0  0  0
 31 30  1  0  0  0  0
 32 24  1  0  0  0  0
 33 32  1  0  0  0  0
 34 32  2  0  0  0  0
M  END
>  <MODEL>
3

>  <REMARK>
 VINA RESULT:     -10.4      2.895      7.033
  Name = 
  4 active torsions:
  status: ('A' for Active; 'I' for Inactive)
    1  A    between atoms: C_3  and  C_25
    2  A    between atoms: C_7  and  C_11
    3  A    between atoms: C_8  and  O_18
    4  A    between atoms: O_18  and  C_30
                            x       y       z     vdW  Elec       q    Type
                         _______ _______ _______ _____ _____    ______ ____

>  <TORSDO>
F 4

$$$$
=
 OpenBabel11052415563D

 34 38  0  0  1  0  0  0  0  0999 V2000
  184.5610  178.4670  142.7420 C   0  0  0  0  0  0  0  0  0  0  0  0
  185.0950  178.8660  146.3650 C   0  0  0  0  0  3  0  0  0  0  0  0
  183.1910  178.8100  145.1100 N   0  0  0  0  0  2  0  0  0  0  0  0
  184.5810  178.3910  140.2940 C   0  0  0  0  0  0  0  0  0  0  0  0
  185.2400  178.3050  141.5210 C   0  0  0  0  0  3  0  0  0  0  0  0
  182.4970  178.8020  141.4660 C   0  0  0  0  0  0  0  0  0  0  0  0
  181.0970  179.0570  141.3750 N   0  0  0  0  0  1  0  0  0  0  0  0
  183.2130  178.6450  140.2790 C   0  0  0  0  0  3  0  0  0  0  0  0
  182.4900  178.8330  143.9500 C   0  0  0  0  0  0  0  0  0  0  0  0
  183.1620  178.7120  142.7190 C   0  0  0  0  0  0  0  0  0  0  0  0
  181.2410  178.9870  144.0060 O   0  0  0  0  0  0  0  0  0  0  0  0
  186.5500  179.0440  146.6340 C   0  0  0  0  0  2  0  0  0  0  0  0
  187.3490  177.8400  146.2930 C   0  0  0  0  0  0  0  0  0  0  0  0
  187.3660  177.3700  145.0490 C   0  0  0  0  0  3  0  0  0  0  0  0
  184.5350  178.6370  145.1710 C   0  0  0  0  0  0  0  0  0  0  0  0
  186.4940  177.8060  143.9430 C   0  0  0  0  0  3  0  0  0  0  0  0
  185.2530  178.3470  143.9750 C   0  0  0  0  0  0  0  0  0  0  0  0
  188.2540  177.2720  147.3060 C   0  0  0  0  0  0  0  0  0  0  0  0
  187.9510  177.3940  148.6570 O   0  0  0  0  0  1  0  0  0  0  0  0
  189.3060  176.6670  146.9630 O   0  0  0  0  0  0  0  0  0  0  0  0
  185.2550  178.2380  139.0730 O   0  0  0  0  0  0  0  0  0  0  0  0
  187.8020  176.9740  137.2530 C   0  0  0  0  0  2  0  0  0  0  0  0
  187.5760  178.0430  139.8770 C   0  0  0  0  0  2  0  0  0  0  0  0
  191.3830  176.7270  138.6670 C   0  0  0  0  0  0  0  0  0  0  0  0
  190.2510  176.6360  137.6710 C   0  0  0  0  0  2  0  0  0  0  0  0
  188.8810  176.7880  138.3340 C   0  0  1  0  0  3  0  0  0  0  0  0
  189.7810  177.4650  140.4110 C   0  0  0  0  0  2  0  0  0  0  0  0
  188.9140  177.8880  139.3140 N   0  0  2  0  0  0  0  0  0  0  0  0
  191.1670  177.1720  139.9130 C   0  0  0  0  0  3  0  0  0  0  0  0
  186.6160  178.6010  138.8200 C   0  0  1  0  0  3  0  0  0  0  0  0
  187.0440  178.2980  137.3780 C   0  0  0  0  0  2  0  0  0  0  0  0
  192.7520  176.4240  138.2190 C   0  0  0  0  0  0  0  0  0  0  0  0
  192.9540  175.8160  137.1340 O   0  0  0  0  0  0  0  0  0  0  0  0
  193.8400  176.8140  138.9910 O   0  0  0  0  0  1  0  0  0  0  0  0
  1 17  1  0  0  0  0
  2 12  1  0  0  0  0
  3 15  1  0  0  0  0
  4  5  1  0  0  0  0
  5  1  2  0  0  0  0
  6 10  2  0  0  0  0
  7  6  1  0  0  0  0
  8  4  2  0  0  0  0
  8  6  1  0  0  0  0
  9 11  2  0  0  0  0
  9  3  1  0  0  0  0
 10  1  1  0  0  0  0
 10  9  1  0  0  0  0
 13 12  1  0  0  0  0
 13 18  1  0  0  0  0
 14 13  2  0  0  0  0
 15  2  2  0  0  0  0
 16 17  2  0  0  0  0
 16 14  1  0  0  0  0
 17 15  1  0  0  0  0
 18 19  1  0  0  0  0
 20 18  2  0  0  0  0
 21  4  1  0  0  0  0
 22 31  1  0  0  0  0
 24 29  2  0  0  0  0
 25 26  1  0  0  0  0
 25 24  1  0  0  0  0
 26 22  1  6  0  0  0
 26 28  1  0  0  0  0
 28 23  1  1  0  0  0
 28 27  1  0  0  0  0
 29 27  1  0  0  0  0
 30 21  1  1  0  0  0
 30 23  1  0  0  0  0
 31 30  1  0  0  0  0
 32 24  1  0  0  0  0
 32 34  1  0  0  0  0
 33 32  2  0  0  0  0
M  END
>  <MODEL>
4

>  <REMARK>
 VINA RESULT:     -10.2      1.990      3.059
  Name = 
  4 active torsions:
  status: ('A' for Active; 'I' for Inactive)
    1  A    between atoms: C_3  and  C_25
    2  A    between atoms: C_7  and  C_11
    3  A    between atoms: C_8  and  O_18
    4  A    between atoms: O_18  and  C_30
                            x       y       z     vdW  Elec       q    Type
                         _______ _______ _______ _____ _____    ______ ____

>  <TORSDO>
F 4

$$$$
=
 OpenBabel11052415563D

 34 38  0  0  1  0  0  0  0  0999 V2000
  185.3590  178.5750  142.7040 C   0  0  0  0  0  0  0  0  0  0  0  0
  185.1180  178.7830  146.3740 C   0  0  0  0  0  3  0  0  0  0  0  0
  183.5170  178.7100  144.7510 N   0  0  0  0  0  2  0  0  0  0  0  0
  185.8830  178.6460  140.3120 C   0  0  0  0  0  0  0  0  0  0  0  0
  186.2820  178.5190  141.6440 C   0  0  0  0  0  3  0  0  0  0  0  0
  183.5830  178.8840  141.0460 C   0  0  0  0  0  0  0  0  0  0  0  0
  182.2180  179.0770  140.6790 N   0  0  0  0  0  1  0  0  0  0  0  0
  184.5340  178.8330  140.0260 C   0  0  0  0  0  3  0  0  0  0  0  0
  183.0670  178.7670  143.4740 C   0  0  0  0  0  0  0  0  0  0  0  0
  183.9830  178.7530  142.4030 C   0  0  0  0  0  0  0  0  0  0  0  0
  181.8260  178.8570  143.2770 O   0  0  0  0  0  0  0  0  0  0  0  0
  186.4740  179.0160  146.9460 C   0  0  0  0  0  2  0  0  0  0  0  0
  187.3970  177.8740  146.7200 C   0  0  0  0  0  0  0  0  0  0  0  0
  187.6950  177.4800  145.4860 C   0  0  0  0  0  3  0  0  0  0  0  0
  184.8280  178.5990  145.0800 C   0  0  0  0  0  0  0  0  0  0  0  0
  187.0420  177.9380  144.2460 C   0  0  0  0  0  3  0  0  0  0  0  0
  185.7910  178.4150  144.0460 C   0  0  0  0  0  0  0  0  0  0  0  0
  188.1080  177.2910  147.8710 C   0  0  0  0  0  0  0  0  0  0  0  0
  187.8710  177.7730  149.1530 O   0  0  0  0  0  1  0  0  0  0  0  0
  188.9320  176.3510  147.7090 O   0  0  0  0  0  0  0  0  0  0  0  0
  186.8000  178.5980  139.2510 O   0  0  0  0  0  0  0  0  0  0  0  0
  190.0640  177.7690  139.4870 C   0  0  0  0  0  2  0  0  0  0  0  0
  188.1010  177.5420  137.4440 C   0  0  0  0  0  2  0  0  0  0  0  0
  191.9600  176.1290  136.5550 C   0  0  0  0  0  0  0  0  0  0  0  0
  191.7080  176.6790  137.9390 C   0  0  0  0  0  2  0  0  0  0  0  0
  190.4090  177.4840  138.0160 C   0  0  1  0  0  3  0  0  0  0  0  0
  189.6740  176.8070  135.8740 C   0  0  0  0  0  2  0  0  0  0  0  0
  189.3350  176.7770  137.2960 N   0  0  2  0  0  0  0  0  0  0  0  0
  190.9940  176.1340  135.6270 C   0  0  0  0  0  3  0  0  0  0  0  0
  187.6010  177.4690  138.8910 C   0  0  1  0  0  3  0  0  0  0  0  0
  188.7120  177.1910  139.9140 C   0  0  0  0  0  2  0  0  0  0  0  0
  193.2530  175.4830  136.2710 C   0  0  0  0  0  0  0  0  0  0  0  0
  194.3340  176.0200  136.6340 O   0  0  0  0  0  1  0  0  0  0  0  0
  193.2910  174.2660  135.6010 O   0  0  0  0  0  0  0  0  0  0  0  0
  1 17  1  0  0  0  0
  2 12  1  0  0  0  0
  3 15  1  0  0  0  0
  4  5  1  0  0  0  0
  5  1  2  0  0  0  0
  6 10  2  0  0  0  0
  7  6  1  0  0  0  0
  8  4  2  0  0  0  0
  8  6  1  0  0  0  0
  9  3  1  0  0  0  0
 10  1  1  0  0  0  0
 10  9  1  0  0  0  0
 11  9  2  0  0  0  0
 13 12  1  0  0  0  0
 13 18  1  0  0  0  0
 14 13  2  0  0  0  0
 15  2  2  0  0  0  0
 16 14  1  0  0  0  0
 17 16  2  0  0  0  0
 17 15  1  0  0  0  0
 18 19  1  0  0  0  0
 20 18  2  0  0  0  0
 21  4  1  0  0  0  0
 22 31  1  0  0  0  0
 23 30  1  0  0  0  0
 24 25  1  0  0  0  0
 26 25  1  1  0  0  0
 26 22  1  0  0  0  0
 28 27  1  6  0  0  0
 28 23  1  0  0  0  0
 28 26  1  0  0  0  0
 29 27  1  0  0  0  0
 29 24  2  0  0  0  0
 30 21  1  1  0  0  0
 30 31  1  0  0  0  0
 32 24  1  0  0  0  0
 32 33  1  0  0  0  0
 34 32  2  0  0  0  0
M  END
>  <MODEL>
5

>  <REMARK>
 VINA RESULT:     -10.2      2.132      3.314
  Name = 
  4 active torsions:
  status: ('A' for Active; 'I' for Inactive)
    1  A    between atoms: C_3  and  C_25
    2  A    between atoms: C_7  and  C_11
    3  A    between atoms: C_8  and  O_18
    4  A    between atoms: O_18  and  C_30
                            x       y       z     vdW  Elec       q    Type
                         _______ _______ _______ _____ _____    ______ ____

>  <TORSDO>
F 4

$$$$
=
 OpenBabel11052415563D

 34 38  0  0  1  0  0  0  0  0999 V2000
  188.3810  177.7990  140.9880 C   0  0  0  0  0  0  0  0  0  0  0  0
  187.9770  177.3350  144.6200 C   0  0  0  0  0  3  0  0  0  0  0  0
  189.8350  177.4050  143.2980 N   0  0  0  0  0  2  0  0  0  0  0  0
  188.2720  177.9210  138.5440 C   0  0  0  0  0  0  0  0  0  0  0  0
  187.6590  177.9870  139.7960 C   0  0  0  0  0  3  0  0  0  0  0  0
  190.3960  177.4780  139.6320 C   0  0  0  0  0  0  0  0  0  0  0  0
  191.7900  177.2170  139.4840 N   0  0  0  0  0  1  0  0  0  0  0  0
  189.6380  177.6610  138.4740 C   0  0  0  0  0  3  0  0  0  0  0  0
  190.4930  177.4010  142.1130 C   0  0  0  0  0  0  0  0  0  0  0  0
  189.7770  177.5470  140.9090 C   0  0  0  0  0  0  0  0  0  0  0  0
  191.7420  177.2390  142.1200 O   0  0  0  0  0  0  0  0  0  0  0  0
  186.5320  177.1580  144.9380 C   0  0  0  0  0  2  0  0  0  0  0  0
  185.7280  178.3730  144.6490 C   0  0  0  0  0  0  0  0  0  0  0  0
  185.6680  178.8660  143.4150 C   0  0  0  0  0  3  0  0  0  0  0  0
  188.4940  177.5830  143.4110 C   0  0  0  0  0  0  0  0  0  0  0  0
  186.4970  178.4470  142.2710 C   0  0  0  0  0  3  0  0  0  0  0  0
  187.7350  177.9000  142.2470 C   0  0  0  0  0  0  0  0  0  0  0  0
  184.8630  178.9270  145.7050 C   0  0  0  0  0  0  0  0  0  0  0  0
  185.4120  179.3150  146.9220 O   0  0  0  0  0  1  0  0  0  0  0  0
  183.6240  179.0590  145.5190 O   0  0  0  0  0  0  0  0  0  0  0  0
  187.5550  178.1000  137.3510 O   0  0  0  0  0  0  0  0  0  0  0  0
  184.5080  176.6470  137.3240 C   0  0  0  0  0  2  0  0  0  0  0  0
  187.1750  175.6710  137.1840 C   0  0  0  0  0  2  0  0  0  0  0  0
  184.0850  172.8210  137.0680 C   0  0  0  0  0  0  0  0  0  0  0  0
  183.7020  174.2800  137.1400 C   0  0  0  0  0  2  0  0  0  0  0  0
  184.8780  175.1700  137.5460 C   0  0  1  0  0  3  0  0  0  0  0  0
  186.4730  173.4420  137.3170 C   0  0  0  0  0  2  0  0  0  0  0  0
  186.0930  174.7620  136.8190 N   0  0  2  0  0  0  0  0  0  0  0  0
  185.3720  172.4480  137.0860 C   0  0  0  0  0  3  0  0  0  0  0  0
  186.9180  177.0640  136.5970 C   0  0  1  0  0  3  0  0  0  0  0  0
  185.4350  177.3590  136.3360 C   0  0  0  0  0  2  0  0  0  0  0  0
  183.0280  171.8160  136.8650 C   0  0  0  0  0  0  0  0  0  0  0  0
  181.8120  172.1470  136.8930 O   0  0  0  0  0  1  0  0  0  0  0  0
  183.3650  170.4880  136.6350 O   0  0  0  0  0  0  0  0  0  0  0  0
  1 17  1  0  0  0  0
  2 12  1  0  0  0  0
  3 15  1  0  0  0  0
  4  5  1  0  0  0  0
  5  1  2  0  0  0  0
  6 10  2  0  0  0  0
  7  6  1  0  0  0  0
  8  4  2  0  0  0  0
  8  6  1  0  0  0  0
  9 11  2  0  0  0  0
  9  3  1  0  0  0  0
 10  1  1  0  0  0  0
 10  9  1  0  0  0  0
 13 12  1  0  0  0  0
 13 18  1  0  0  0  0
 14 13  2  0  0  0  0
 15  2  2  0  0  0  0
 16 14  1  0  0  0  0
 17 16  2  0  0  0  0
 17 15  1  0  0  0  0
 18 19  1  0  0  0  0
 20 18  2  0  0  0  0
 21  4  1  0  0  0  0
 22 26  1  0  0  0  0
 24 29  2  0  0  0  0
 24 25  1  0  0  0  0
 26 25  1  6  0  0  0
 28 23  1  1  0  0  0
 28 27  1  0  0  0  0
 28 26  1  0  0  0  0
 29 27  1  0  0  0  0
 30 23  1  0  0  0  0
 30 21  1  1  0  0  0
 31 30  1  0  0  0  0
 31 22  1  0  0  0  0
 32 33  1  0  0  0  0
 32 24  1  0  0  0  0
 34 32  2  0  0  0  0
M  END
>  <MODEL>
6

>  <REMARK>
 VINA RESULT:     -10.0      3.870      6.985
  Name = 
  4 active torsions:
  status: ('A' for Active; 'I' for Inactive)
    1  A    between atoms: C_3  and  C_25
    2  A    between atoms: C_7  and  C_11
    3  A    between atoms: C_8  and  O_18
    4  A    between atoms: O_18  and  C_30
                            x       y       z     vdW  Elec       q    Type
                         _______ _______ _______ _____ _____    ______ ____

>  <TORSDO>
F 4

$$$$
=
 OpenBabel11052415563D

 34 38  0  0  1  0  0  0  0  0999 V2000
  186.3240  178.0690  143.7140 C   0  0  0  0  0  0  0  0  0  0  0  0
  188.8310  177.8370  146.4030 C   0  0  0  0  0  3  0  0  0  0  0  0
  186.5700  178.1330  146.4590 N   0  0  0  0  0  2  0  0  0  0  0  0
  184.9720  178.3860  141.6960 C   0  0  0  0  0  0  0  0  0  0  0  0
  186.1780  178.0520  142.3150 C   0  0  0  0  0  3  0  0  0  0  0  0
  183.9820  178.7640  143.8790 C   0  0  0  0  0  0  0  0  0  0  0  0
  182.8260  179.1400  144.6250 N   0  0  0  0  0  1  0  0  0  0  0  0
  183.8840  178.7450  142.4870 C   0  0  0  0  0  3  0  0  0  0  0  0
  185.3580  178.3960  145.9140 C   0  0  0  0  0  0  0  0  0  0  0  0
  185.2060  178.4230  144.5140 C   0  0  0  0  0  0  0  0  0  0  0  0
  184.3910  178.6370  146.6850 O   0  0  0  0  0  0  0  0  0  0  0  0
  190.1980  177.8560  145.8080 C   0  0  0  0  0  2  0  0  0  0  0  0
  190.4750  176.6630  144.9680 C   0  0  0  0  0  0  0  0  0  0  0  0
  189.7260  176.4000  143.9010 C   0  0  0  0  0  3  0  0  0  0  0  0
  187.6760  177.8480  145.7270 C   0  0  0  0  0  0  0  0  0  0  0  0
  188.4670  177.0740  143.5340 C   0  0  0  0  0  3  0  0  0  0  0  0
  187.5550  177.6980  144.3150 C   0  0  0  0  0  0  0  0  0  0  0  0
  191.6880  175.8700  145.2290 C   0  0  0  0  0  0  0  0  0  0  0  0
  192.3520  175.9940  146.4450 O   0  0  0  0  0  1  0  0  0  0  0  0
  192.1350  175.0720  144.3620 O   0  0  0  0  0  0  0  0  0  0  0  0
  184.8220  178.3790  140.3010 O   0  0  0  0  0  0  0  0  0  0  0  0
  186.0690  176.9440  137.5110 C   0  0  0  0  0  2  0  0  0  0  0  0
  187.2260  178.1950  139.7870 C   0  0  0  0  0  2  0  0  0  0  0  0
  189.8660  176.7270  136.8610 C   0  0  0  0  0  0  0  0  0  0  0  0
  188.3820  176.5900  136.6110 C   0  0  0  0  0  2  0  0  0  0  0  0
  187.5570  176.8130  137.8790 C   0  0  1  0  0  3  0  0  0  0  0  0
  189.3950  177.6130  139.1290 C   0  0  0  0  0  2  0  0  0  0  0  0
  188.0750  177.9760  138.6200 N   0  0  2  0  0  0  0  0  0  0  0  0
  190.3230  177.2610  138.0020 C   0  0  0  0  0  3  0  0  0  0  0  0
  185.8440  178.6970  139.3510 C   0  0  1  0  0  3  0  0  0  0  0  0
  185.4620  178.2880  137.9220 C   0  0  0  0  0  2  0  0  0  0  0  0
  190.8050  176.3690  135.7850 C   0  0  0  0  0  0  0  0  0  0  0  0
  190.5790  176.7120  134.5940 O   0  0  0  0  0  0  0  0  0  0  0  0
  191.9570  175.6500  136.0780 O   0  0  0  0  0  1  0  0  0  0  0  0
  1 17  1  0  0  0  0
  1 10  1  0  0  0  0
  4  5  1  0  0  0  0
  4  8  2  0  0  0  0
  5  1  2  0  0  0  0
  6 10  2  0  0  0  0
  6  7  1  0  0  0  0
  8  6  1  0  0  0  0
  9  3  1  0  0  0  0
  9 11  2  0  0  0  0
 10  9  1  0  0  0  0
 12  2  1  0  0  0  0
 13 18  1  0  0  0  0
 13 12  1  0  0  0  0
 14 13  2  0  0  0  0
 15  2  2  0  0  0  0
 15  3  1  0  0  0  0
 16 14  1  0  0  0  0
 16 17  2  0  0  0  0
 17 15  1  0  0  0  0
 18 19  1  0  0  0  0
 20 18  2  0  0  0  0
 21  4  1  0  0  0  0
 22 26  1  0  0  0  0
 22 31  1  0  0  0  0
 24 29  2  0  0  0  0
 25 24  1  0  0  0  0
 26 25  1  6  0  0  0
 26 28  1  0  0  0  0
 28 27  1  1  0  0  0
 28 23  1  0  0  0  0
 29 27  1  0  0  0  0
 30 23  1  0  0  0  0
 30 21  1  1  0  0  0
 31 30  1  0  0  0  0
 32 34  1  0  0  0  0
 32 24  1  0  0  0  0
 33 32  2  0  0  0  0
M  END
>  <MODEL>
7

>  <REMARK>
 VINA RESULT:      -9.9      1.721      2.217
  Name = 
  4 active torsions:
  status: ('A' for Active; 'I' for Inactive)
    1  A    between atoms: C_3  and  C_25
    2  A    between atoms: C_7  and  C_11
    3  A    between atoms: C_8  and  O_18
    4  A    between atoms: O_18  and  C_30
                            x       y       z     vdW  Elec       q    Type
                         _______ _______ _______ _____ _____    ______ ____

>  <TORSDO>
F 4

$$$$
=
 OpenBabel11052415563D

 34 38  0  0  1  0  0  0  0  0999 V2000
  187.4640  178.0480  144.7240 C   0  0  0  0  0  0  0  0  0  0  0  0
  189.0220  177.7520  148.0500 C   0  0  0  0  0  3  0  0  0  0  0  0
  186.8410  177.9330  147.4080 N   0  0  0  0  0  2  0  0  0  0  0  0
  186.7870  178.4380  142.4030 C   0  0  0  0  0  0  0  0  0  0  0  0
  187.7610  178.1210  143.3510 C   0  0  0  0  0  3  0  0  0  0  0  0
  185.1440  178.6140  144.1800 C   0  0  0  0  0  0  0  0  0  0  0  0
  183.7920  178.8810  144.5440 N   0  0  0  0  0  1  0  0  0  0  0  0
  185.4860  178.6870  142.8290 C   0  0  0  0  0  3  0  0  0  0  0  0
  185.8420  178.1740  146.5240 C   0  0  0  0  0  0  0  0  0  0  0  0
  186.1310  178.2900  145.1500 C   0  0  0  0  0  0  0  0  0  0  0  0
  184.6700  178.3120  146.9630 O   0  0  0  0  0  0  0  0  0  0  0  0
  190.5010  177.8790  147.9160 C   0  0  0  0  0  2  0  0  0  0  0  0
  191.1060  176.7620  147.1460 C   0  0  0  0  0  0  0  0  0  0  0  0
  190.7450  176.5370  145.8860 C   0  0  0  0  0  3  0  0  0  0  0  0
  188.1360  177.7530  147.0470 C   0  0  0  0  0  0  0  0  0  0  0  0
  189.6200  177.1730  145.1770 C   0  0  0  0  0  3  0  0  0  0  0  0
  188.4700  177.6960  145.6620 C   0  0  0  0  0  0  0  0  0  0  0  0
  192.2290  176.0140  147.7350 C   0  0  0  0  0  0  0  0  0  0  0  0
  192.7550  174.9110  147.0700 O   0  0  0  0  0  0  0  0  0  0  0  0
  192.7280  176.3630  148.8380 O   0  0  0  0  0  1  0  0  0  0  0  0
  187.0790  178.5200  141.0330 O   0  0  0  0  0  0  0  0  0  0  0  0
  190.2370  177.3990  140.6200 C   0  0  0  0  0  2  0  0  0  0  0  0
  188.0920  177.9900  138.8500 C   0  0  0  0  0  2  0  0  0  0  0  0
  191.6770  176.6260  137.1260 C   0  0  0  0  0  0  0  0  0  0  0  0
  191.6070  176.7270  138.6320 C   0  0  0  0  0  2  0  0  0  0  0  0
  190.4200  177.5680  139.1020 C   0  0  1  0  0  3  0  0  0  0  0  0
  189.4320  177.6660  136.9580 C   0  0  0  0  0  2  0  0  0  0  0  0
  189.2150  177.2150  138.3310 N   0  0  2  0  0  0  0  0  0  0  0  0
  190.6410  177.0020  136.3640 C   0  0  0  0  0  3  0  0  0  0  0  0
  187.7140  177.5020  140.2530 C   0  0  1  0  0  3  0  0  0  0  0  0
  188.8690  176.8260  141.0030 C   0  0  0  0  0  2  0  0  0  0  0  0
  192.8590  176.0020  136.5080 C   0  0  0  0  0  0  0  0  0  0  0  0
  192.7280  175.0950  135.6420 O   0  0  0  0  0  0  0  0  0  0  0  0
  194.1350  176.4120  136.8740 O   0  0  0  0  0  1  0  0  0  0  0  0
  1 10  1  0  0  0  0
  1 17  1  0  0  0  0
  4  8  2  0  0  0  0
  4  5  1  0  0  0  0
  5  1  2  0  0  0  0
  6  7  1  0  0  0  0
  6 10  2  0  0  0  0
  8  6  1  0  0  0  0
  9 11  2  0  0  0  0
  9  3  1  0  0  0  0
 10  9  1  0  0  0  0
 12  2  1  0  0  0  0
 13 18  1  0  0  0  0
 13 12  1  0  0  0  0
 14 13  2  0  0  0  0
 15  3  1  0  0  0  0
 15  2  2  0  0  0  0
 16 17  2  0  0  0  0
 16 14  1  0  0  0  0
 17 15  1  0  0  0  0
 18 20  1  0  0  0  0
 19 18  2  0  0  0  0
 21  4  1  0  0  0  0
 22 31  1  0  0  0  0
 23 30  1  0  0  0  0
 24 25  1  0  0  0  0
 26 25  1  6  0  0  0
 26 22  1  0  0  0  0
 28 27  1  6  0  0  0
 28 23  1  0  0  0  0
 28 26  1  0  0  0  0
 29 27  1  0  0  0  0
 29 24  2  0  0  0  0
 30 31  1  0  0  0  0
 30 21  1  1  0  0  0
 32 34  1  0  0  0  0
 32 24  1  0  0  0  0
 33 32  2  0  0  0  0
M  END
>  <MODEL>
8

>  <REMARK>
 VINA RESULT:      -9.9      0.905      1.636
  Name = 
  4 active torsions:
  status: ('A' for Active; 'I' for Inactive)
    1  A    between atoms: C_3  and  C_25
    2  A    between atoms: C_7  and  C_11
    3  A    between atoms: C_8  and  O_18
    4  A    between atoms: O_18  and  C_30
                            x       y       z     vdW  Elec       q    Type
                         _______ _______ _______ _____ _____    ______ ____

>  <TORSDO>
F 4

$$$$
=
 OpenBabel11052415563D

 34 38  0  0  1  0  0  0  0  0999 V2000
  185.6610  178.2860  143.4060 C   0  0  0  0  0  0  0  0  0  0  0  0
  182.2870  178.6280  141.9660 C   0  0  0  0  0  3  0  0  0  0  0  0
  183.0620  178.8990  144.0940 N   0  0  0  0  0  2  0  0  0  0  0  0
  187.9650  177.7710  144.0600 C   0  0  0  0  0  0  0  0  0  0  0  0
  186.9910  177.9640  143.0790 C   0  0  0  0  0  3  0  0  0  0  0  0
  186.3040  178.2330  145.7690 C   0  0  0  0  0  0  0  0  0  0  0  0
  186.0120  178.3520  147.1590 N   0  0  0  0  0  1  0  0  0  0  0  0
  187.6090  177.9030  145.4000 C   0  0  0  0  0  3  0  0  0  0  0  0
  183.9830  178.7940  145.0820 C   0  0  0  0  0  0  0  0  0  0  0  0
  185.3090  178.4320  144.7740 C   0  0  0  0  0  0  0  0  0  0  0  0
  183.6170  179.0020  146.2700 O   0  0  0  0  0  0  0  0  0  0  0  0
  182.2970  178.1300  140.5610 C   0  0  0  0  0  2  0  0  0  0  0  0
  183.1450  178.9560  139.6640 C   0  0  0  0  0  0  0  0  0  0  0  0
  184.4460  179.0940  139.9040 C   0  0  0  0  0  3  0  0  0  0  0  0
  183.3460  178.7100  142.7810 C   0  0  0  0  0  0  0  0  0  0  0  0
  185.1570  178.6630  141.1210 C   0  0  0  0  0  3  0  0  0  0  0  0
  184.6990  178.5030  142.3850 C   0  0  0  0  0  0  0  0  0  0  0  0
  182.5670  179.4800  138.4150 C   0  0  0  0  0  0  0  0  0  0  0  0
  182.3160  178.6220  137.3510 O   0  0  0  0  0  0  0  0  0  0  0  0
  182.2900  180.7040  138.2980 O   0  0  0  0  0  1  0  0  0  0  0  0
  189.2900  177.4420  143.7410 O   0  0  0  0  0  0  0  0  0  0  0  0
  192.0550  177.1280  141.8290 C   0  0  0  0  0  2  0  0  0  0  0  0
  189.2630  177.1340  141.2960 C   0  0  0  0  0  2  0  0  0  0  0  0
  191.8390  176.6620  138.0060 C   0  0  0  0  0  0  0  0  0  0  0  0
  192.4560  176.7750  139.3800 C   0  0  0  0  0  2  0  0  0  0  0  0
  191.4670  177.3060  140.4190 C   0  0  1  0  0  3  0  0  0  0  0  0
  189.6030  177.1120  138.9800 C   0  0  0  0  0  2  0  0  0  0  0  0
  190.1580  176.6500  140.2500 N   0  0  2  0  0  0  0  0  0  0  0  0
  190.5120  176.7550  137.8390 C   0  0  0  0  0  3  0  0  0  0  0  0
  189.7030  176.5970  142.6630 C   0  0  1  0  0  3  0  0  0  0  0  0
  191.1950  176.2430  142.7350 C   0  0  0  0  0  2  0  0  0  0  0  0
  192.7050  176.3370  136.8600 C   0  0  0  0  0  0  0  0  0  0  0  0
  192.2550  175.6850  135.8790 O   0  0  0  0  0  0  0  0  0  0  0  0
  194.0300  176.7530  136.8490 O   0  0  0  0  0  1  0  0  0  0  0  0
  1 10  1  0  0  0  0
  2 15  2  0  0  0  0
  3  9  1  0  0  0  0
  4  8  2  0  0  0  0
  5  1  2  0  0  0  0
  5  4  1  0  0  0  0
  6  7  1  0  0  0  0
  8  6  1  0  0  0  0
  9 11  2  0  0  0  0
 10  9  1  0  0  0  0
 10  6  2  0  0  0  0
 12  2  1  0  0  0  0
 13 14  2  0  0  0  0
 13 12  1  0  0  0  0
 14 16  1  0  0  0  0
 15  3  1  0  0  0  0
 16 17  2  0  0  0  0
 17 15  1  0  0  0  0
 17  1  1  0  0  0  0
 18 13  1  0  0  0  0
 19 18  2  0  0  0  0
 20 18  1  0  0  0  0
 21  4  1  0  0  0  0
 22 31  1  0  0  0  0
 23 30  1  0  0  0  0
 24 25  1  0  0  0  0
 26 25  1  6  0  0  0
 26 22  1  0  0  0  0
 28 27  1  6  0  0  0
 28 26  1  0  0  0  0
 28 23  1  0  0  0  0
 29 24  2  0  0  0  0
 29 27  1  0  0  0  0
 30 31  1  0  0  0  0
 30 21  1  1  0  0  0
 32 24  1  0  0  0  0
 33 32  2  0  0  0  0
 34 32  1  0  0  0  0
M  END
>  <MODEL>
9

>  <REMARK>
 VINA RESULT:      -9.8      2.345      6.236
  Name = 
  4 active torsions:
  status: ('A' for Active; 'I' for Inactive)
    1  A    between atoms: C_3  and  C_25
    2  A    between atoms: C_7  and  C_11
    3  A    between atoms: C_8  and  O_18
    4  A    between atoms: O_18  and  C_30
                            x       y       z     vdW  Elec       q    Type
                         _______ _______ _______ _____ _____    ______ ____

>  <TORSDO>
F 4

$$$$
