=
 OpenBabel11052413063D

 31 34  0  0  0  0  0  0  0  0999 V2000
  185.5520  178.4340  146.0600 C   0  0  0  0  0  0  0  0  0  0  0  0
  188.7170  177.4020  144.2960 C   0  0  0  0  0  0  0  0  0  0  0  0
  189.6810  177.0950  145.3080 C   0  0  0  0  0  0  0  0  0  0  0  0
  190.2650  176.9190  147.7000 C   0  0  0  0  0  3  0  0  0  0  0  0
  187.3810  177.8360  144.5530 C   0  0  0  0  0  0  0  0  0  0  0  0
  184.7230  178.6980  144.9710 C   0  0  0  0  0  3  0  0  0  0  0  0
  189.3760  177.2010  146.7520 C   0  0  0  0  0  3  0  0  0  0  0  0
  188.2230  177.5530  141.8990 C   0  0  0  0  0  0  0  0  0  0  0  0
  185.0850  178.5910  147.3210 F   0  0  0  0  0  0  0  0  0  0  0  0
  191.2990  176.5640  143.5840 C   0  0  0  0  0  3  0  0  0  0  0  0
  191.6200  176.4790  147.3570 C   0  0  0  0  0  0  0  0  0  0  0  0
  186.9620  177.9620  142.1870 N   0  0  0  0  0  0  0  0  0  0  0  0
  189.1210  177.2660  142.9380 C   0  0  0  0  0  0  0  0  0  0  0  0
  186.8660  178.0090  145.8500 C   0  0  0  0  0  3  0  0  0  0  0  0
  192.4370  176.2200  148.2780 O   0  0  0  0  0  0  0  0  0  0  0  0
  186.5210  178.1100  143.4580 C   0  0  0  0  0  0  0  0  0  0  0  0
  185.2080  178.5370  143.6730 C   0  0  0  0  0  3  0  0  0  0  0  0
  190.3830  176.8570  142.6350 N   0  0  0  0  0  0  0  0  0  0  0  0
  190.9780  176.6740  144.9300 C   0  0  0  0  0  0  0  0  0  0  0  0
  192.0510  176.3310  145.9290 C   0  0  0  0  0  2  0  0  0  0  0  0
  188.8830  178.4520  139.7070 C   0  0  0  0  0  3  0  0  0  0  0  0
  188.6440  177.4110  140.4960 C   0  0  0  0  0  3  0  0  0  0  0  0
  189.3050  178.2400  138.2920 C   0  0  0  0  0  2  0  0  0  0  0  0
  188.1700  178.5180  137.3080 C   0  0  0  0  0  2  0  0  0  0  0  0
  187.1220  177.4080  137.2790 C   0  0  0  0  0  2  0  0  0  0  0  0
  184.8090  177.7690  136.8360 O   0  0  0  0  0  0  0  0  0  0  0  0
  185.7680  177.9210  137.6390 C   0  0  0  0  0  0  0  0  0  0  0  0
  185.5830  178.5660  138.9030 N   0  0  0  0  0  2  0  0  0  0  0  0
  184.3490  179.0950  139.4000 C   0  0  0  0  0  0  0  0  0  0  0  0
  183.8720  180.3730  138.9900 N   0  0  0  0  0  1  0  0  0  0  0  0
  183.4710  178.2130  140.4550 S   0  0  0  0  0  0  0  0  0  0  0  0
  1  9  1  0  0  0  0
  2  5  1  0  0  0  0
  2  3  1  0  0  0  0
  3  7  1  0  0  0  0
  5 14  2  0  0  0  0
  6  1  2  0  0  0  0
  7  4  2  0  0  0  0
  8 12  2  0  0  0  0
  8 13  1  0  0  0  0
 10 19  1  0  0  0  0
 11  4  1  0  0  0  0
 11 15  2  0  0  0  0
 12 16  1  0  0  0  0
 13  2  2  0  0  0  0
 14  1  1  0  0  0  0
 16 17  2  0  0  0  0
 16  5  1  0  0  0  0
 17  6  1  0  0  0  0
 18 13  1  0  0  0  0
 18 10  2  0  0  0  0
 19  3  2  0  0  0  0
 19 20  1  0  0  0  0
 20 11  1  0  0  0  0
 21 22  2  0  0  0  0
 22  8  1  0  0  0  0
 23 21  1  0  0  0  0
 24 23  1  0  0  0  0
 25 24  1  0  0  0  0
 25 27  1  0  0  0  0
 26 27  2  0  0  0  0
 27 28  1  0  0  0  0
 28 29  1  0  0  0  0
 29 31  2  0  0  0  0
 30 29  1  0  0  0  0
M  END
>  <MODEL>
1

>  <REMARK>
 VINA RESULT:     -10.2      0.000      0.000
  Name = 
  6 active torsions:
  status: ('A' for Active; 'I' for Inactive)
    1  A    between atoms: C_1  and  N_24
    2  A    between atoms: C_3  and  C_19
    3  A    between atoms: C_3  and  C_22
    4  A    between atoms: C_7  and  C_9
    5  A    between atoms: C_7  and  C_22
    6  A    between atoms: C_15  and  C_23
                            x       y       z     vdW  Elec       q    Type
                         _______ _______ _______ _____ _____    ______ ____

>  <TORSDO>
F 6

$$$$
=
 OpenBabel11052413063D

 31 34  0  0  0  0  0  0  0  0999 V2000
  185.0150  178.3070  146.0130 C   0  0  0  0  0  0  0  0  0  0  0  0
  188.1960  177.7840  144.0640 C   0  0  0  0  0  0  0  0  0  0  0  0
  189.2110  177.4190  145.0050 C   0  0  0  0  0  0  0  0  0  0  0  0
  189.8760  176.9630  147.3380 C   0  0  0  0  0  3  0  0  0  0  0  0
  186.8390  178.0700  144.4040 C   0  0  0  0  0  0  0  0  0  0  0  0
  184.1360  178.6500  144.9860 C   0  0  0  0  0  3  0  0  0  0  0  0
  188.9400  177.3010  146.4550 C   0  0  0  0  0  3  0  0  0  0  0  0
  187.6220  178.2230  141.7200 C   0  0  0  0  0  0  0  0  0  0  0  0
  184.5730  178.2510  147.2920 F   0  0  0  0  0  0  0  0  0  0  0  0
  190.8130  177.2620  143.1950 C   0  0  0  0  0  3  0  0  0  0  0  0
  191.2500  176.6850  146.9130 C   0  0  0  0  0  0  0  0  0  0  0  0
  186.3430  178.4870  142.0860 N   0  0  0  0  0  0  0  0  0  0  0  0
  188.5700  177.8690  142.6930 C   0  0  0  0  0  0  0  0  0  0  0  0
  186.3500  178.0210  145.7210 C   0  0  0  0  0  3  0  0  0  0  0  0
  192.1110  176.3670  147.7740 O   0  0  0  0  0  0  0  0  0  0  0  0
  185.9290  178.4230  143.3730 C   0  0  0  0  0  0  0  0  0  0  0  0
  184.5940  178.7090  143.6700 C   0  0  0  0  0  3  0  0  0  0  0  0
  189.8500  177.6080  142.3120 N   0  0  0  0  0  0  0  0  0  0  0  0
  190.5240  177.1600  144.5490 C   0  0  0  0  0  0  0  0  0  0  0  0
  191.6490  176.7690  145.4700 C   0  0  0  0  0  2  0  0  0  0  0  0
  187.1750  178.0370  139.3100 C   0  0  0  0  0  3  0  0  0  0  0  0
  188.0120  178.3100  140.3040 C   0  0  0  0  0  3  0  0  0  0  0  0
  187.6340  178.1420  137.8940 C   0  0  0  0  0  2  0  0  0  0  0  0
  189.1570  178.2030  137.7880 C   0  0  0  0  0  2  0  0  0  0  0  0
  189.7560  176.9740  137.1090 C   0  0  0  0  0  2  0  0  0  0  0  0
  190.5650  175.5890  138.8700 O   0  0  0  0  0  0  0  0  0  0  0  0
  190.8500  176.3730  137.9270 C   0  0  0  0  0  0  0  0  0  0  0  0
  192.2090  176.6900  137.6100 N   0  0  0  0  0  2  0  0  0  0  0  0
  193.3660  176.1840  138.2850 C   0  0  0  0  0  0  0  0  0  0  0  0
  193.8930  176.8340  139.4390 N   0  0  0  0  0  1  0  0  0  0  0  0
  194.0920  174.8360  137.7230 S   0  0  0  0  0  0  0  0  0  0  0  0
  1  9  1  0  0  0  0
  2  5  1  0  0  0  0
  2  3  1  0  0  0  0
  3  7  1  0  0  0  0
  5 14  2  0  0  0  0
  6  1  2  0  0  0  0
  7  4  2  0  0  0  0
  8 12  2  0  0  0  0
  8 13  1  0  0  0  0
 10 19  1  0  0  0  0
 11  4  1  0  0  0  0
 11 15  2  0  0  0  0
 12 16  1  0  0  0  0
 13  2  2  0  0  0  0
 14  1  1  0  0  0  0
 16 17  2  0  0  0  0
 16  5  1  0  0  0  0
 17  6  1  0  0  0  0
 18 13  1  0  0  0  0
 18 10  2  0  0  0  0
 19  3  2  0  0  0  0
 19 20  1  0  0  0  0
 20 11  1  0  0  0  0
 21 22  2  0  0  0  0
 22  8  1  0  0  0  0
 23 21  1  0  0  0  0
 24 23  1  0  0  0  0
 25 24  1  0  0  0  0
 25 27  1  0  0  0  0
 27 26  2  0  0  0  0
 28 27  1  0  0  0  0
 28 29  1  0  0  0  0
 29 30  1  0  0  0  0
 31 29  2  0  0  0  0
M  END
>  <MODEL>
2

>  <REMARK>
 VINA RESULT:     -10.2      2.952      3.940
  Name = 
  6 active torsions:
  status: ('A' for Active; 'I' for Inactive)
    1  A    between atoms: C_1  and  N_24
    2  A    between atoms: C_3  and  C_19
    3  A    between atoms: C_3  and  C_22
    4  A    between atoms: C_7  and  C_9
    5  A    between atoms: C_7  and  C_22
    6  A    between atoms: C_15  and  C_23
                            x       y       z     vdW  Elec       q    Type
                         _______ _______ _______ _____ _____    ______ ____

>  <TORSDO>
F 6

$$$$
=
 OpenBabel11052413063D

 31 34  0  0  0  0  0  0  0  0999 V2000
  189.9200  177.7380  140.8170 C   0  0  0  0  0  0  0  0  0  0  0  0
  188.2580  177.7080  144.1980 C   0  0  0  0  0  0  0  0  0  0  0  0
  189.2670  177.3840  145.1600 C   0  0  0  0  0  0  0  0  0  0  0  0
  191.6180  176.8240  145.6630 C   0  0  0  0  0  3  0  0  0  0  0  0
  188.4830  177.8190  142.7920 C   0  0  0  0  0  0  0  0  0  0  0  0
  188.8370  178.0610  140.0000 C   0  0  0  0  0  3  0  0  0  0  0  0
  190.6730  177.1270  144.7770 C   0  0  0  0  0  3  0  0  0  0  0  0
  185.9030  178.2540  143.7880 C   0  0  0  0  0  0  0  0  0  0  0  0
  191.1440  177.5390  140.2730 F   0  0  0  0  0  0  0  0  0  0  0  0
  187.6140  177.5360  146.9240 C   0  0  0  0  0  3  0  0  0  0  0  0
  191.3100  176.7280  147.0910 C   0  0  0  0  0  0  0  0  0  0  0  0
  186.1590  178.3510  142.4590 N   0  0  0  0  0  0  0  0  0  0  0  0
  186.9380  177.9340  144.6800 C   0  0  0  0  0  0  0  0  0  0  0  0
  189.7400  177.6190  142.1970 C   0  0  0  0  0  3  0  0  0  0  0  0
  192.2280  176.4390  147.9030 O   0  0  0  0  0  0  0  0  0  0  0  0
  187.3940  178.1470  141.9430 C   0  0  0  0  0  0  0  0  0  0  0  0
  187.5780  178.2640  140.5630 C   0  0  0  0  0  3  0  0  0  0  0  0
  186.6660  177.8410  146.0090 N   0  0  0  0  0  0  0  0  0  0  0  0
  188.9240  177.3010  146.5290 C   0  0  0  0  0  0  0  0  0  0  0  0
  189.9220  176.9670  147.6050 C   0  0  0  0  0  2  0  0  0  0  0  0
  183.4880  178.6090  143.4860 C   0  0  0  0  0  3  0  0  0  0  0  0
  184.5390  178.4880  144.2890 C   0  0  0  0  0  3  0  0  0  0  0  0
  182.1310  178.8470  144.0590 C   0  0  0  0  0  2  0  0  0  0  0  0
  181.1710  179.4390  143.0280 C   0  0  0  0  0  2  0  0  0  0  0  0
  180.8960  178.4950  141.8600 C   0  0  0  0  0  2  0  0  0  0  0  0
  181.0400  179.7490  139.8400 O   0  0  0  0  0  0  0  0  0  0  0  0
  181.6000  178.9350  140.6200 C   0  0  0  0  0  0  0  0  0  0  0  0
  182.9120  178.4310  140.3510 N   0  0  0  0  0  2  0  0  0  0  0  0
  183.7220  178.7670  139.2190 C   0  0  0  0  0  0  0  0  0  0  0  0
  184.5250  179.9440  139.2070 N   0  0  0  0  0  1  0  0  0  0  0  0
  183.7290  177.7780  137.9210 S   0  0  0  0  0  0  0  0  0  0  0  0
  1 14  1  0  0  0  0
  2 13  2  0  0  0  0
  2  3  1  0  0  0  0
  3 19  2  0  0  0  0
  4 11  1  0  0  0  0
  5  2  1  0  0  0  0
  6 17  1  0  0  0  0
  6  1  2  0  0  0  0
  7  3  1  0  0  0  0
  7  4  2  0  0  0  0
  8 22  1  0  0  0  0
  8 13  1  0  0  0  0
  9  1  1  0  0  0  0
 11 20  1  0  0  0  0
 11 15  2  0  0  0  0
 12  8  2  0  0  0  0
 13 18  1  0  0  0  0
 14  5  2  0  0  0  0
 16 12  1  0  0  0  0
 16  5  1  0  0  0  0
 17 16  2  0  0  0  0
 18 10  2  0  0  0  0
 19 10  1  0  0  0  0
 19 20  1  0  0  0  0
 21 23  1  0  0  0  0
 21 22  2  0  0  0  0
 24 23  1  0  0  0  0
 25 24  1  0  0  0  0
 26 27  2  0  0  0  0
 27 25  1  0  0  0  0
 28 27  1  0  0  0  0
 29 28  1  0  0  0  0
 30 29  1  0  0  0  0
 31 29  2  0  0  0  0
M  END
>  <MODEL>
3

>  <REMARK>
 VINA RESULT:      -9.8      2.614      4.735
  Name = 
  6 active torsions:
  status: ('A' for Active; 'I' for Inactive)
    1  A    between atoms: C_1  and  N_24
    2  A    between atoms: C_3  and  C_19
    3  A    between atoms: C_3  and  C_22
    4  A    between atoms: C_7  and  C_9
    5  A    between atoms: C_7  and  C_22
    6  A    between atoms: C_15  and  C_23
                            x       y       z     vdW  Elec       q    Type
                         _______ _______ _______ _____ _____    ______ ____

>  <TORSDO>
F 6

$$$$
=
 OpenBabel11052413063D

 31 34  0  0  0  0  0  0  0  0999 V2000
  190.4930  176.7470  146.6910 C   0  0  0  0  0  0  0  0  0  0  0  0
  188.2810  177.5420  143.7470 C   0  0  0  0  0  0  0  0  0  0  0  0
  187.0040  177.9200  144.2710 C   0  0  0  0  0  0  0  0  0  0  0  0
  185.5390  178.3060  146.2200 C   0  0  0  0  0  3  0  0  0  0  0  0
  189.4050  177.1630  144.5430 C   0  0  0  0  0  0  0  0  0  0  0  0
  191.6760  176.4020  146.0390 C   0  0  0  0  0  3  0  0  0  0  0  0
  186.7220  177.9560  145.7230 C   0  0  0  0  0  3  0  0  0  0  0  0
  189.6650  177.1790  141.7550 C   0  0  0  0  0  0  0  0  0  0  0  0
  190.4310  176.7180  148.0430 F   0  0  0  0  0  0  0  0  0  0  0  0
  186.1920  178.2540  142.0120 C   0  0  0  0  0  3  0  0  0  0  0  0
  184.4320  178.6820  145.3380 C   0  0  0  0  0  0  0  0  0  0  0  0
  190.7080  176.8260  142.5480 N   0  0  0  0  0  0  0  0  0  0  0  0
  188.4380  177.5420  142.3320 C   0  0  0  0  0  0  0  0  0  0  0  0
  189.3720  177.1230  145.9470 C   0  0  0  0  0  3  0  0  0  0  0  0
  183.3250  179.0080  145.8410 O   0  0  0  0  0  0  0  0  0  0  0  0
  190.6180  176.8070  143.8980 C   0  0  0  0  0  0  0  0  0  0  0  0
  191.7370  176.4310  144.6460 C   0  0  0  0  0  3  0  0  0  0  0  0
  187.4010  177.8940  141.5250 N   0  0  0  0  0  0  0  0  0  0  0  0
  185.9630  178.2760  143.3810 C   0  0  0  0  0  0  0  0  0  0  0  0
  184.5920  178.6870  143.8470 C   0  0  0  0  0  2  0  0  0  0  0  0
  190.9320  176.7640  139.6890 C   0  0  0  0  0  3  0  0  0  0  0  0
  189.8250  177.1820  140.2920 C   0  0  0  0  0  3  0  0  0  0  0  0
  191.0310  176.7940  138.2000 C   0  0  0  0  0  2  0  0  0  0  0  0
  189.6560  176.8160  137.5350 C   0  0  0  0  0  2  0  0  0  0  0  0
  189.3600  178.1350  136.8240 C   0  0  0  0  0  2  0  0  0  0  0  0
  187.5620  179.6780  136.5810 O   0  0  0  0  0  0  0  0  0  0  0  0
  187.9480  178.5670  137.0320 C   0  0  0  0  0  0  0  0  0  0  0  0
  187.0500  177.6980  137.7310 N   0  0  0  0  0  2  0  0  0  0  0  0
  185.6680  177.9590  137.9970 C   0  0  0  0  0  0  0  0  0  0  0  0
  185.2680  179.0110  138.8710 N   0  0  0  0  0  1  0  0  0  0  0  0
  184.5300  177.0360  137.2810 S   0  0  0  0  0  0  0  0  0  0  0  0
  1  9  1  0  0  0  0
  2  3  1  0  0  0  0
  2  5  1  0  0  0  0
  3  7  1  0  0  0  0
  5 14  1  0  0  0  0
  6  1  1  0  0  0  0
  7  4  2  0  0  0  0
  8 13  1  0  0  0  0
  8 12  2  0  0  0  0
 10 19  1  0  0  0  0
 11 15  2  0  0  0  0
 11  4  1  0  0  0  0
 12 16  1  0  0  0  0
 13  2  2  0  0  0  0
 14  1  2  0  0  0  0
 16  5  2  0  0  0  0
 16 17  1  0  0  0  0
 17  6  2  0  0  0  0
 18 10  2  0  0  0  0
 18 13  1  0  0  0  0
 19 20  1  0  0  0  0
 19  3  2  0  0  0  0
 20 11  1  0  0  0  0
 21 22  2  0  0  0  0
 22  8  1  0  0  0  0
 23 21  1  0  0  0  0
 24 23  1  0  0  0  0
 25 27  1  0  0  0  0
 25 24  1  0  0  0  0
 26 27  2  0  0  0  0
 27 28  1  0  0  0  0
 28 29  1  0  0  0  0
 29 30  1  0  0  0  0
 31 29  2  0  0  0  0
M  END
>  <MODEL>
4

>  <REMARK>
 VINA RESULT:      -9.8      2.412      4.469
  Name = 
  6 active torsions:
  status: ('A' for Active; 'I' for Inactive)
    1  A    between atoms: C_1  and  N_24
    2  A    between atoms: C_3  and  C_19
    3  A    between atoms: C_3  and  C_22
    4  A    between atoms: C_7  and  C_9
    5  A    between atoms: C_7  and  C_22
    6  A    between atoms: C_15  and  C_23
                            x       y       z     vdW  Elec       q    Type
                         _______ _______ _______ _____ _____    ______ ____

>  <TORSDO>
F 6

$$$$
=
 OpenBabel11052413063D

 31 34  0  0  0  0  0  0  0  0999 V2000
  188.8930  177.3390  147.5860 C   0  0  0  0  0  0  0  0  0  0  0  0
  187.7590  177.7850  144.0210 C   0  0  0  0  0  0  0  0  0  0  0  0
  186.3730  178.1400  144.0620 C   0  0  0  0  0  0  0  0  0  0  0  0
  184.3390  178.6060  145.3820 C   0  0  0  0  0  3  0  0  0  0  0  0
  188.5650  177.5270  145.1720 C   0  0  0  0  0  0  0  0  0  0  0  0
  190.2320  177.0020  147.3910 C   0  0  0  0  0  3  0  0  0  0  0  0
  185.6270  178.2770  145.3330 C   0  0  0  0  0  3  0  0  0  0  0  0
  189.7300  177.3340  142.6340 C   0  0  0  0  0  0  0  0  0  0  0  0
  188.3890  177.4150  148.8410 F   0  0  0  0  0  0  0  0  0  0  0  0
  186.3450  178.2510  141.6420 C   0  0  0  0  0  3  0  0  0  0  0  0
  183.5780  178.8550  144.1560 C   0  0  0  0  0  0  0  0  0  0  0  0
  190.4610  177.0980  143.7520 N   0  0  0  0  0  0  0  0  0  0  0  0
  188.3740  177.6810  142.7420 C   0  0  0  0  0  0  0  0  0  0  0  0
  188.0720  177.5980  146.4860 C   0  0  0  0  0  3  0  0  0  0  0  0
  182.3610  179.1640  144.2370 O   0  0  0  0  0  0  0  0  0  0  0  0
  189.9300  177.1820  144.9940 C   0  0  0  0  0  0  0  0  0  0  0  0
  190.7480  176.9230  146.0980 C   0  0  0  0  0  3  0  0  0  0  0  0
  187.6540  177.9150  141.6120 N   0  0  0  0  0  0  0  0  0  0  0  0
  185.6770  178.3710  142.8530 C   0  0  0  0  0  0  0  0  0  0  0  0
  184.2210  178.7500  142.8060 C   0  0  0  0  0  2  0  0  0  0  0  0
  191.6590  177.4410  141.1120 C   0  0  0  0  0  3  0  0  0  0  0  0
  190.3630  177.2280  141.3090 C   0  0  0  0  0  3  0  0  0  0  0  0
  192.2390  177.3190  139.7430 C   0  0  0  0  0  2  0  0  0  0  0  0
  191.4170  176.3880  138.8540 C   0  0  0  0  0  2  0  0  0  0  0  0
  191.9480  176.3070  137.4250 C   0  0  0  0  0  2  0  0  0  0  0  0
  194.2790  176.3920  136.9420 O   0  0  0  0  0  0  0  0  0  0  0  0
  193.3150  175.7100  137.3790 C   0  0  0  0  0  0  0  0  0  0  0  0
  193.5060  174.3730  137.8500 N   0  0  0  0  0  2  0  0  0  0  0  0
  194.7510  173.6680  137.8880 C   0  0  0  0  0  0  0  0  0  0  0  0
  195.5060  173.5610  139.0920 N   0  0  0  0  0  1  0  0  0  0  0  0
  195.3130  172.9680  136.5260 S   0  0  0  0  0  0  0  0  0  0  0  0
  1  9  1  0  0  0  0
  2  3  1  0  0  0  0
  2  5  1  0  0  0  0
  3  7  1  0  0  0  0
  5 14  1  0  0  0  0
  6  1  1  0  0  0  0
  7  4  2  0  0  0  0
  8 13  1  0  0  0  0
  8 12  2  0  0  0  0
 10 19  1  0  0  0  0
 11 15  2  0  0  0  0
 11  4  1  0  0  0  0
 12 16  1  0  0  0  0
 13  2  2  0  0  0  0
 14  1  2  0  0  0  0
 16  5  2  0  0  0  0
 16 17  1  0  0  0  0
 17  6  2  0  0  0  0
 18 10  2  0  0  0  0
 18 13  1  0  0  0  0
 19  3  2  0  0  0  0
 20 19  1  0  0  0  0
 20 11  1  0  0  0  0
 21 22  2  0  0  0  0
 22  8  1  0  0  0  0
 23 21  1  0  0  0  0
 24 23  1  0  0  0  0
 25 24  1  0  0  0  0
 26 27  2  0  0  0  0
 27 25  1  0  0  0  0
 27 28  1  0  0  0  0
 28 29  1  0  0  0  0
 29 30  1  0  0  0  0
 31 29  2  0  0  0  0
M  END
>  <MODEL>
5

>  <REMARK>
 VINA RESULT:      -9.6      4.307      6.692
  Name = 
  6 active torsions:
  status: ('A' for Active; 'I' for Inactive)
    1  A    between atoms: C_1  and  N_24
    2  A    between atoms: C_3  and  C_19
    3  A    between atoms: C_3  and  C_22
    4  A    between atoms: C_7  and  C_9
    5  A    between atoms: C_7  and  C_22
    6  A    between atoms: C_15  and  C_23
                            x       y       z     vdW  Elec       q    Type
                         _______ _______ _______ _____ _____    ______ ____

>  <TORSDO>
F 6

$$$$
=
 OpenBabel11052413063D

 31 34  0  0  0  0  0  0  0  0999 V2000
  188.7580  177.5240  147.9370 C   0  0  0  0  0  0  0  0  0  0  0  0
  187.6010  177.7040  144.3560 C   0  0  0  0  0  0  0  0  0  0  0  0
  186.2240  178.0970  144.3780 C   0  0  0  0  0  0  0  0  0  0  0  0
  184.2160  178.7230  145.6700 C   0  0  0  0  0  3  0  0  0  0  0  0
  188.4110  177.5210  145.5180 C   0  0  0  0  0  0  0  0  0  0  0  0
  190.0860  177.1370  147.7600 C   0  0  0  0  0  3  0  0  0  0  0  0
  185.4950  178.3580  145.6390 C   0  0  0  0  0  3  0  0  0  0  0  0
  189.5460  177.0890  142.9950 C   0  0  0  0  0  0  0  0  0  0  0  0
  188.2680  177.7170  149.1840 F   0  0  0  0  0  0  0  0  0  0  0  0
  186.1760  178.0090  141.9570 C   0  0  0  0  0  3  0  0  0  0  0  0
  183.4490  178.8900  144.4340 C   0  0  0  0  0  0  0  0  0  0  0  0
  190.2810  176.9270  144.1240 N   0  0  0  0  0  0  0  0  0  0  0  0
  188.2000  177.4780  143.0850 C   0  0  0  0  0  0  0  0  0  0  0  0
  187.9330  177.7120  146.8260 C   0  0  0  0  0  3  0  0  0  0  0  0
  182.2410  179.2360  144.4990 O   0  0  0  0  0  0  0  0  0  0  0  0
  189.7650  177.1270  145.3590 C   0  0  0  0  0  0  0  0  0  0  0  0
  190.5870  176.9390  146.4740 C   0  0  0  0  0  3  0  0  0  0  0  0
  187.4750  177.6370  141.9450 N   0  0  0  0  0  0  0  0  0  0  0  0
  185.5230  178.2460  143.1590 C   0  0  0  0  0  0  0  0  0  0  0  0
  184.0760  178.6570  143.0920 C   0  0  0  0  0  2  0  0  0  0  0  0
  191.2530  177.4980  141.2730 C   0  0  0  0  0  3  0  0  0  0  0  0
  190.1630  176.8570  141.6790 C   0  0  0  0  0  3  0  0  0  0  0  0
  191.8290  177.2180  139.9250 C   0  0  0  0  0  2  0  0  0  0  0  0
  190.8650  176.4240  139.0450 C   0  0  0  0  0  2  0  0  0  0  0  0
  190.3200  177.2390  137.8730 C   0  0  0  0  0  2  0  0  0  0  0  0
  188.7650  178.6800  138.9570 O   0  0  0  0  0  0  0  0  0  0  0  0
  188.9400  177.7350  138.1440 C   0  0  0  0  0  0  0  0  0  0  0  0
  187.8380  177.1340  137.4560 N   0  0  0  0  0  2  0  0  0  0  0  0
  186.4620  177.5060  137.5920 C   0  0  0  0  0  0  0  0  0  0  0  0
  186.0730  178.6270  138.3800 N   0  0  0  0  0  1  0  0  0  0  0  0
  185.3200  176.6300  136.8250 S   0  0  0  0  0  0  0  0  0  0  0  0
  1  9  1  0  0  0  0
  2  3  1  0  0  0  0
  2  5  1  0  0  0  0
  3  7  1  0  0  0  0
  5 14  1  0  0  0  0
  6  1  1  0  0  0  0
  7  4  2  0  0  0  0
  8 13  1  0  0  0  0
  8 12  2  0  0  0  0
 10 19  1  0  0  0  0
 11 15  2  0  0  0  0
 11  4  1  0  0  0  0
 12 16  1  0  0  0  0
 13  2  2  0  0  0  0
 14  1  2  0  0  0  0
 16  5  2  0  0  0  0
 16 17  1  0  0  0  0
 17  6  2  0  0  0  0
 18 10  2  0  0  0  0
 18 13  1  0  0  0  0
 19  3  2  0  0  0  0
 20 19  1  0  0  0  0
 20 11  1  0  0  0  0
 21 22  2  0  0  0  0
 22  8  1  0  0  0  0
 23 21  1  0  0  0  0
 24 23  1  0  0  0  0
 25 27  1  0  0  0  0
 25 24  1  0  0  0  0
 27 26  2  0  0  0  0
 28 29  1  0  0  0  0
 28 27  1  0  0  0  0
 29 30  1  0  0  0  0
 31 29  2  0  0  0  0
M  END
>  <MODEL>
6

>  <REMARK>
 VINA RESULT:      -9.6      2.618      4.790
  Name = 
  6 active torsions:
  status: ('A' for Active; 'I' for Inactive)
    1  A    between atoms: C_1  and  N_24
    2  A    between atoms: C_3  and  C_19
    3  A    between atoms: C_3  and  C_22
    4  A    between atoms: C_7  and  C_9
    5  A    between atoms: C_7  and  C_22
    6  A    between atoms: C_15  and  C_23
                            x       y       z     vdW  Elec       q    Type
                         _______ _______ _______ _____ _____    ______ ____

>  <TORSDO>
F 6

$$$$
=
 OpenBabel11052413063D

 31 34  0  0  0  0  0  0  0  0999 V2000
  189.6990  177.8430  140.6730 C   0  0  0  0  0  0  0  0  0  0  0  0
  188.0540  177.7610  144.0620 C   0  0  0  0  0  0  0  0  0  0  0  0
  189.0700  177.4280  145.0140 C   0  0  0  0  0  0  0  0  0  0  0  0
  191.4250  176.8700  145.4970 C   0  0  0  0  0  3  0  0  0  0  0  0
  188.2720  177.8930  142.6560 C   0  0  0  0  0  0  0  0  0  0  0  0
  188.6110  178.1740  139.8660 C   0  0  0  0  0  3  0  0  0  0  0  0
  190.4750  177.1820  144.6200 C   0  0  0  0  0  3  0  0  0  0  0  0
  185.6950  178.3040  143.6710 C   0  0  0  0  0  0  0  0  0  0  0  0
  190.9210  177.6560  140.1210 F   0  0  0  0  0  0  0  0  0  0  0  0
  187.4240  177.5490  146.7880 C   0  0  0  0  0  3  0  0  0  0  0  0
  191.1250  176.7530  146.9260 C   0  0  0  0  0  0  0  0  0  0  0  0
  185.9440  178.4200  142.3420 N   0  0  0  0  0  0  0  0  0  0  0  0
  186.7360  177.9760  144.5530 C   0  0  0  0  0  0  0  0  0  0  0  0
  189.5270  177.7050  142.0520 C   0  0  0  0  0  3  0  0  0  0  0  0
  192.0470  176.4570  147.7290 O   0  0  0  0  0  0  0  0  0  0  0  0
  187.1770  178.2270  141.8170 C   0  0  0  0  0  0  0  0  0  0  0  0
  187.3540  178.3640  140.4380 C   0  0  0  0  0  3  0  0  0  0  0  0
  186.4720  177.8630  145.8830 N   0  0  0  0  0  0  0  0  0  0  0  0
  188.7330  177.3250  146.3840 C   0  0  0  0  0  0  0  0  0  0  0  0
  189.7390  176.9800  147.4500 C   0  0  0  0  0  2  0  0  0  0  0  0
  183.2740  178.6290  143.3880 C   0  0  0  0  0  3  0  0  0  0  0  0
  184.3330  178.5260  144.1820 C   0  0  0  0  0  3  0  0  0  0  0  0
  181.9190  178.8550  143.9700 C   0  0  0  0  0  2  0  0  0  0  0  0
  180.9680  179.5100  142.9690 C   0  0  0  0  0  2  0  0  0  0  0  0
  179.7010  178.6920  142.7300 C   0  0  0  0  0  2  0  0  0  0  0  0
  179.3050  176.5680  141.7280 O   0  0  0  0  0  0  0  0  0  0  0  0
  179.8960  177.6780  141.6540 C   0  0  0  0  0  0  0  0  0  0  0  0
  180.7420  177.9950  140.5440 N   0  0  0  0  0  2  0  0  0  0  0  0
  181.0160  177.1410  139.4290 C   0  0  0  0  0  0  0  0  0  0  0  0
  180.1670  177.1210  138.2840 N   0  0  0  0  0  1  0  0  0  0  0  0
  182.3290  176.1740  139.4690 S   0  0  0  0  0  0  0  0  0  0  0  0
  1 14  1  0  0  0  0
  2 13  2  0  0  0  0
  2  3  1  0  0  0  0
  3 19  2  0  0  0  0
  4 11  1  0  0  0  0
  5  2  1  0  0  0  0
  6 17  1  0  0  0  0
  6  1  2  0  0  0  0
  7  3  1  0  0  0  0
  7  4  2  0  0  0  0
  8 22  1  0  0  0  0
  8 13  1  0  0  0  0
  9  1  1  0  0  0  0
 11 20  1  0  0  0  0
 11 15  2  0  0  0  0
 12  8  2  0  0  0  0
 13 18  1  0  0  0  0
 14  5  2  0  0  0  0
 16 12  1  0  0  0  0
 16  5  1  0  0  0  0
 17 16  2  0  0  0  0
 18 10  2  0  0  0  0
 19 10  1  0  0  0  0
 19 20  1  0  0  0  0
 21 23  1  0  0  0  0
 21 22  2  0  0  0  0
 24 23  1  0  0  0  0
 25 24  1  0  0  0  0
 27 26  2  0  0  0  0
 27 25  1  0  0  0  0
 28 27  1  0  0  0  0
 29 31  2  0  0  0  0
 29 28  1  0  0  0  0
 30 29  1  0  0  0  0
M  END
>  <MODEL>
7

>  <REMARK>
 VINA RESULT:      -9.5      3.238      5.199
  Name = 
  6 active torsions:
  status: ('A' for Active; 'I' for Inactive)
    1  A    between atoms: C_1  and  N_24
    2  A    between atoms: C_3  and  C_19
    3  A    between atoms: C_3  and  C_22
    4  A    between atoms: C_7  and  C_9
    5  A    between atoms: C_7  and  C_22
    6  A    between atoms: C_15  and  C_23
                            x       y       z     vdW  Elec       q    Type
                         _______ _______ _______ _____ _____    ______ ____

>  <TORSDO>
F 6

$$$$
=
 OpenBabel11052413063D

 31 34  0  0  0  0  0  0  0  0999 V2000
  185.1710  178.2990  145.8960 C   0  0  0  0  0  0  0  0  0  0  0  0
  188.4280  177.6530  144.1150 C   0  0  0  0  0  0  0  0  0  0  0  0
  189.3960  177.3220  145.1160 C   0  0  0  0  0  0  0  0  0  0  0  0
  189.9530  176.9680  147.4950 C   0  0  0  0  0  3  0  0  0  0  0  0
  187.0610  177.9690  144.3810 C   0  0  0  0  0  0  0  0  0  0  0  0
  184.3430  178.6040  144.8160 C   0  0  0  0  0  3  0  0  0  0  0  0
  189.0610  177.2740  146.5570 C   0  0  0  0  0  3  0  0  0  0  0  0
  187.9620  177.9880  141.7310 C   0  0  0  0  0  0  0  0  0  0  0  0
  184.6740  178.3080  147.1550 F   0  0  0  0  0  0  0  0  0  0  0  0
  191.0730  177.0620  143.3870 C   0  0  0  0  0  3  0  0  0  0  0  0
  191.3400  176.6550  147.1440 C   0  0  0  0  0  0  0  0  0  0  0  0
  186.6710  178.2820  142.0270 N   0  0  0  0  0  0  0  0  0  0  0  0
  188.8620  177.6690  142.7600 C   0  0  0  0  0  0  0  0  0  0  0  0
  186.5150  177.9860  145.6760 C   0  0  0  0  0  3  0  0  0  0  0  0
  192.1590  176.3690  148.0550 O   0  0  0  0  0  0  0  0  0  0  0  0
  186.2010  178.2820  143.2960 C   0  0  0  0  0  0  0  0  0  0  0  0
  184.8580  178.5960  143.5210 C   0  0  0  0  0  3  0  0  0  0  0  0
  190.1540  177.3770  142.4480 N   0  0  0  0  0  0  0  0  0  0  0  0
  190.7240  177.0270  144.7300 C   0  0  0  0  0  0  0  0  0  0  0  0
  191.8030  176.6680  145.7170 C   0  0  0  0  0  2  0  0  0  0  0  0
  187.6020  178.2740  139.3150 C   0  0  0  0  0  3  0  0  0  0  0  0
  188.4140  178.0040  140.3310 C   0  0  0  0  0  3  0  0  0  0  0  0
  188.1230  178.2710  137.9170 C   0  0  0  0  0  2  0  0  0  0  0  0
  188.8560  176.9740  137.5820 C   0  0  0  0  0  2  0  0  0  0  0  0
  188.6270  176.5150  136.1430 C   0  0  0  0  0  2  0  0  0  0  0  0
  187.7890  174.5510  135.0890 O   0  0  0  0  0  0  0  0  0  0  0  0
  187.7310  175.3250  136.0810 C   0  0  0  0  0  0  0  0  0  0  0  0
  186.8300  175.0760  137.1650 N   0  0  0  0  0  2  0  0  0  0  0  0
  185.9230  173.9730  137.2630 C   0  0  0  0  0  0  0  0  0  0  0  0
  186.3940  172.6340  137.3820 N   0  0  0  0  0  1  0  0  0  0  0  0
  184.3160  174.2580  137.2430 S   0  0  0  0  0  0  0  0  0  0  0  0
  1  9  1  0  0  0  0
  2  5  1  0  0  0  0
  2  3  1  0  0  0  0
  3  7  1  0  0  0  0
  5 14  2  0  0  0  0
  6  1  2  0  0  0  0
  7  4  2  0  0  0  0
  8 12  2  0  0  0  0
  8 13  1  0  0  0  0
 10 19  1  0  0  0  0
 11  4  1  0  0  0  0
 11 15  2  0  0  0  0
 12 16  1  0  0  0  0
 13  2  2  0  0  0  0
 14  1  1  0  0  0  0
 16 17  2  0  0  0  0
 16  5  1  0  0  0  0
 17  6  1  0  0  0  0
 18 13  1  0  0  0  0
 18 10  2  0  0  0  0
 19  3  2  0  0  0  0
 19 20  1  0  0  0  0
 20 11  1  0  0  0  0
 21 22  2  0  0  0  0
 22  8  1  0  0  0  0
 23 21  1  0  0  0  0
 24 23  1  0  0  0  0
 25 24  1  0  0  0  0
 26 27  2  0  0  0  0
 27 25  1  0  0  0  0
 27 28  1  0  0  0  0
 28 29  1  0  0  0  0
 29 30  1  0  0  0  0
 31 29  2  0  0  0  0
M  END
>  <MODEL>
8

>  <REMARK>
 VINA RESULT:      -9.3      2.100      2.515
  Name = 
  6 active torsions:
  status: ('A' for Active; 'I' for Inactive)
    1  A    between atoms: C_1  and  N_24
    2  A    between atoms: C_3  and  C_19
    3  A    between atoms: C_3  and  C_22
    4  A    between atoms: C_7  and  C_9
    5  A    between atoms: C_7  and  C_22
    6  A    between atoms: C_15  and  C_23
                            x       y       z     vdW  Elec       q    Type
                         _______ _______ _______ _____ _____    ______ ____

>  <TORSDO>
F 6

$$$$
=
 OpenBabel11052413063D

 31 34  0  0  0  0  0  0  0  0999 V2000
  189.4810  177.3280  147.3280 C   0  0  0  0  0  0  0  0  0  0  0  0
  188.0850  177.8980  143.8750 C   0  0  0  0  0  0  0  0  0  0  0  0
  189.1700  177.7480  142.9530 C   0  0  0  0  0  0  0  0  0  0  0  0
  191.5610  177.2870  142.5460 C   0  0  0  0  0  3  0  0  0  0  0  0
  188.2000  177.7600  145.2920 C   0  0  0  0  0  0  0  0  0  0  0  0
  188.3340  177.5040  148.1020 C   0  0  0  0  0  3  0  0  0  0  0  0
  190.5460  177.4270  143.3940 C   0  0  0  0  0  3  0  0  0  0  0  0
  185.7000  178.3700  144.1900 C   0  0  0  0  0  0  0  0  0  0  0  0
  190.6620  177.0350  147.9220 F   0  0  0  0  0  0  0  0  0  0  0  0
  187.6560  178.2110  141.1190 C   0  0  0  0  0  3  0  0  0  0  0  0
  191.3650  177.4440  141.1030 C   0  0  0  0  0  0  0  0  0  0  0  0
  185.8510  178.2290  145.5310 N   0  0  0  0  0  0  0  0  0  0  0  0
  186.8040  178.2080  143.3390 C   0  0  0  0  0  0  0  0  0  0  0  0
  189.4100  177.4560  145.9390 C   0  0  0  0  0  3  0  0  0  0  0  0
  192.3470  177.3040  140.3280 O   0  0  0  0  0  0  0  0  0  0  0  0
  187.0440  177.9350  146.0970 C   0  0  0  0  0  0  0  0  0  0  0  0
  187.1200  177.8070  147.4870 C   0  0  0  0  0  3  0  0  0  0  0  0
  186.6370  178.3510  141.9960 N   0  0  0  0  0  0  0  0  0  0  0  0
  188.9350  177.9090  141.5680 C   0  0  0  0  0  0  0  0  0  0  0  0
  190.0170  177.7680  140.5320 C   0  0  0  0  0  2  0  0  0  0  0  0
  183.3280  178.9870  144.3910 C   0  0  0  0  0  3  0  0  0  0  0  0
  184.3760  178.6900  143.6320 C   0  0  0  0  0  3  0  0  0  0  0  0
  182.0120  179.3010  143.7630 C   0  0  0  0  0  2  0  0  0  0  0  0
  181.4990  178.1480  142.9020 C   0  0  0  0  0  2  0  0  0  0  0  0
  180.6910  178.6190  141.6950 C   0  0  0  0  0  2  0  0  0  0  0  0
  181.2950  180.1260  139.9520 O   0  0  0  0  0  0  0  0  0  0  0  0
  181.5760  179.0740  140.5840 C   0  0  0  0  0  0  0  0  0  0  0  0
  182.7430  178.3090  140.2670 N   0  0  0  0  0  2  0  0  0  0  0  0
  183.6970  178.6190  139.2460 C   0  0  0  0  0  0  0  0  0  0  0  0
  184.5180  179.7810  139.3290 N   0  0  0  0  0  1  0  0  0  0  0  0
  183.8490  177.6200  137.9660 S   0  0  0  0  0  0  0  0  0  0  0  0
  1  9  1  0  0  0  0
  1  6  1  0  0  0  0
  2  5  1  0  0  0  0
  3  7  1  0  0  0  0
  3  2  1  0  0  0  0
  4  7  2  0  0  0  0
  5 14  1  0  0  0  0
  5 16  2  0  0  0  0
  8 12  2  0  0  0  0
 10 19  1  0  0  0  0
 10 18  2  0  0  0  0
 11  4  1  0  0  0  0
 12 16  1  0  0  0  0
 13  2  2  0  0  0  0
 13  8  1  0  0  0  0
 14  1  2  0  0  0  0
 15 11  2  0  0  0  0
 16 17  1  0  0  0  0
 17  6  2  0  0  0  0
 18 13  1  0  0  0  0
 19  3  2  0  0  0  0
 20 11  1  0  0  0  0
 20 19  1  0  0  0  0
 22  8  1  0  0  0  0
 22 21  2  0  0  0  0
 23 21  1  0  0  0  0
 24 23  1  0  0  0  0
 25 24  1  0  0  0  0
 26 27  2  0  0  0  0
 27 25  1  0  0  0  0
 28 27  1  0  0  0  0
 29 30  1  0  0  0  0
 29 28  1  0  0  0  0
 31 29  2  0  0  0  0
M  END
>  <MODEL>
9

>  <REMARK>
 VINA RESULT:      -9.1      2.740      4.965
  Name = 
  6 active torsions:
  status: ('A' for Active; 'I' for Inactive)
    1  A    between atoms: C_1  and  N_24
    2  A    between atoms: C_3  and  C_19
    3  A    between atoms: C_3  and  C_22
    4  A    between atoms: C_7  and  C_9
    5  A    between atoms: C_7  and  C_22
    6  A    between atoms: C_15  and  C_23
                            x       y       z     vdW  Elec       q    Type
                         _______ _______ _______ _____ _____    ______ ____

>  <TORSDO>
F 6

$$$$
