=
 OpenBabel11052412513D

 25 27  0  0  1  0  0  0  0  0999 V2000
  190.3850  177.2790  140.7230 C   0  0  1  0  0  3  0  0  0  0  0  0
  190.0180  176.3090  141.8120 C   0  0  2  0  0  3  0  0  0  0  0  0
  191.7440  177.6350  140.9020 O   0  0  0  0  0  0  0  0  0  0  0  0
  192.0820  177.3560  142.2060 N   0  0  0  0  0  2  0  0  0  0  0  0
  190.6090  176.6320  144.0270 C   0  0  0  0  0  0  0  0  0  0  0  0
  191.3620  176.7740  145.0260 O   0  0  0  0  0  0  0  0  0  0  0  0
  188.2530  177.9250  142.2790 O   0  0  0  0  0  1  0  0  0  0  0  0
  189.1350  176.5620  144.0950 C   0  0  2  0  0  3  0  0  0  0  0  0
  188.7330  176.6500  142.6070 C   0  0  2  0  0  3  0  0  0  0  0  0
  191.1020  176.4970  142.7110 N   0  0  0  0  0  0  0  0  0  0  0  0
  189.1010  177.0690  138.5280 N   0  0  0  0  0  0  0  0  0  0  0  0
  186.8660  177.7030  137.0130 O   0  0  0  0  0  0  0  0  0  0  0  0
  188.8900  176.4240  137.2310 C   0  0  0  0  0  2  0  0  0  0  0  0
  187.3940  176.4030  136.9170 C   0  0  0  0  0  2  0  0  0  0  0  0
  186.8650  178.0320  138.3830 C   0  0  0  0  0  2  0  0  0  0  0  0
  190.1800  176.6480  139.3770 C   0  0  0  0  0  0  0  0  0  0  0  0
  190.9350  175.7030  139.0160 O   0  0  0  0  0  0  0  0  0  0  0  0
  188.3000  178.2460  138.8650 C   0  0  0  0  0  2  0  0  0  0  0  0
  188.4480  177.8930  145.1430 S   0  0  0  0  0  0  0  0  0  0  0  0
  186.7860  177.1570  145.1190 C   0  0  0  0  0  2  0  0  0  0  0  0
  185.7590  178.2010  145.4160 C   0  0  0  0  0  0  0  0  0  0  0  0
  185.7750  178.8970  146.9020 S   0  0  0  0  0  0  0  0  0  0  0  0
  184.7460  178.5300  144.4460 N   0  0  0  0  0  0  0  0  0  0  0  0
  184.9910  178.3530  143.0230 C   0  0  0  0  0  1  0  0  0  0  0  0
  183.4460  179.0530  144.8450 C   0  0  0  0  0  1  0  0  0  0  0  0
  1 16  1  6  0  0  0
  1  3  1  0  0  0  0
  1  2  1  0  0  0  0
  2  9  1  0  0  0  0
  2 10  1  1  0  0  0
  3  4  1  0  0  0  0
  4 10  1  0  0  0  0
  5  8  1  0  0  0  0
  5  6  2  0  0  0  0
  8 19  1  1  0  0  0
  9  7  1  6  0  0  0
  9  8  1  0  0  0  0
 10  5  1  0  0  0  0
 11 18  1  0  0  0  0
 11 16  1  0  0  0  0
 12 15  1  0  0  0  0
 13 11  1  0  0  0  0
 14 12  1  0  0  0  0
 14 13  1  0  0  0  0
 15 18  1  0  0  0  0
 17 16  2  0  0  0  0
 20 19  1  0  0  0  0
 20 21  1  0  0  0  0
 21 22  2  0  0  0  0
 23 25  1  0  0  0  0
 23 21  1  0  0  0  0
 24 23  1  0  0  0  0
M  END
>  <MODEL>
1

>  <REMARK>
 VINA RESULT:      -6.9      0.000      0.000
  Name = 
  5 active torsions:
  status: ('A' for Active; 'I' for Inactive)
    1  A    between atoms: C_1  and  C_18
    2  A    between atoms: N_2  and  C_21
    3  A    between atoms: S_6  and  C_15
    4  A    between atoms: S_6  and  C_20
    5  A    between atoms: C_15  and  C_21
                            x       y       z     vdW  Elec       q    Type
                         _______ _______ _______ _____ _____    ______ ____

>  <TORSDO>
F 5

$$$$
=
 OpenBabel11052412513D

 25 27  0  0  1  0  0  0  0  0999 V2000
  188.9650  177.8870  142.5780 C   0  0  1  0  0  3  0  0  0  0  0  0
  187.7190  177.2040  143.0710 C   0  0  2  0  0  3  0  0  0  0  0  0
  189.7770  178.1670  143.7040 O   0  0  0  0  0  0  0  0  0  0  0  0
  188.9700  178.1490  144.8180 N   0  0  0  0  0  2  0  0  0  0  0  0
  186.5280  177.9470  144.9120 C   0  0  0  0  0  0  0  0  0  0  0  0
  186.3020  178.2420  146.1150 O   0  0  0  0  0  0  0  0  0  0  0  0
  186.5890  179.0130  141.8890 O   0  0  0  0  0  1  0  0  0  0  0  0
  185.5210  178.0070  143.8330 C   0  0  2  0  0  3  0  0  0  0  0  0
  186.3820  177.8050  142.5680 C   0  0  2  0  0  3  0  0  0  0  0  0
  187.7870  177.4960  144.4590 N   0  0  0  0  0  0  0  0  0  0  0  0
  189.6820  177.2850  140.2050 N   0  0  0  0  0  0  0  0  0  0  0  0
  189.4370  177.6940  137.4730 O   0  0  0  0  0  0  0  0  0  0  0  0
  190.3690  176.3940  139.2680 C   0  0  0  0  0  2  0  0  0  0  0  0
  189.6110  176.3790  137.9400 C   0  0  0  0  0  2  0  0  0  0  0  0
  188.4990  178.3010  138.3300 C   0  0  0  0  0  2  0  0  0  0  0  0
  189.6940  176.9990  141.6120 C   0  0  0  0  0  0  0  0  0  0  0  0
  190.2770  175.9660  142.0420 O   0  0  0  0  0  0  0  0  0  0  0  0
  189.1300  178.5430  139.7010 C   0  0  0  0  0  2  0  0  0  0  0  0
  184.5910  179.5810  143.8710 S   0  0  0  0  0  0  0  0  0  0  0  0
  183.0120  178.7280  144.1620 C   0  0  0  0  0  2  0  0  0  0  0  0
  182.1220  178.8800  142.9720 C   0  0  0  0  0  0  0  0  0  0  0  0
  182.7980  178.7550  141.4820 S   0  0  0  0  0  0  0  0  0  0  0  0
  180.7260  179.1990  143.1350 N   0  0  0  0  0  0  0  0  0  0  0  0
  179.9450  178.5970  144.2050 C   0  0  0  0  0  1  0  0  0  0  0  0
  180.0430  180.1250  142.2420 C   0  0  0  0  0  1  0  0  0  0  0  0
  1 16  1  6  0  0  0
  1  2  1  0  0  0  0
  1  3  1  0  0  0  0
  2 10  1  1  0  0  0
  3  4  1  0  0  0  0
  5  6  2  0  0  0  0
  8 19  1  6  0  0  0
  8  5  1  0  0  0  0
  9  7  1  1  0  0  0
  9  2  1  0  0  0  0
  9  8  1  0  0  0  0
 10  4  1  0  0  0  0
 10  5  1  0  0  0  0
 11 16  1  0  0  0  0
 12 14  1  0  0  0  0
 12 15  1  0  0  0  0
 13 11  1  0  0  0  0
 14 13  1  0  0  0  0
 15 18  1  0  0  0  0
 16 17  2  0  0  0  0
 18 11  1  0  0  0  0
 19 20  1  0  0  0  0
 21 23  1  0  0  0  0
 21 20  1  0  0  0  0
 22 21  2  0  0  0  0
 23 24  1  0  0  0  0
 25 23  1  0  0  0  0
M  END
>  <MODEL>
2

>  <REMARK>
 VINA RESULT:      -6.7      2.701      3.651
  Name = 
  5 active torsions:
  status: ('A' for Active; 'I' for Inactive)
    1  A    between atoms: C_1  and  C_18
    2  A    between atoms: N_2  and  C_21
    3  A    between atoms: S_6  and  C_15
    4  A    between atoms: S_6  and  C_20
    5  A    between atoms: C_15  and  C_21
                            x       y       z     vdW  Elec       q    Type
                         _______ _______ _______ _____ _____    ______ ____

>  <TORSDO>
F 5

$$$$
=
 OpenBabel11052412513D

 25 27  0  0  1  0  0  0  0  0999 V2000
  187.5340  177.2800  145.8750 C   0  0  1  0  0  3  0  0  0  0  0  0
  188.5980  178.1580  145.2770 C   0  0  2  0  0  3  0  0  0  0  0  0
  188.0300  176.7780  147.1040 O   0  0  0  0  0  0  0  0  0  0  0  0
  189.4010  176.8820  147.0760 N   0  0  0  0  0  2  0  0  0  0  0  0
  190.8280  177.5450  145.1960 C   0  0  0  0  0  0  0  0  0  0  0  0
  191.9680  177.2250  145.6260 O   0  0  0  0  0  0  0  0  0  0  0  0
  188.3520  176.6780  143.3540 O   0  0  0  0  0  1  0  0  0  0  0  0
  190.5000  177.7480  143.7700 C   0  0  2  0  0  3  0  0  0  0  0  0
  188.9610  177.8590  143.8000 C   0  0  2  0  0  3  0  0  0  0  0  0
  189.7260  177.7720  146.0490 N   0  0  0  0  0  0  0  0  0  0  0  0
  185.3590  178.3030  145.0190 N   0  0  0  0  0  0  0  0  0  0  0  0
  183.7300  178.9720  142.8770 O   0  0  0  0  0  0  0  0  0  0  0  0
  184.1520  179.1010  145.2400 C   0  0  0  0  0  2  0  0  0  0  0  0
  183.8130  179.8660  143.9610 C   0  0  0  0  0  2  0  0  0  0  0  0
  185.0460  178.5430  142.6130 C   0  0  0  0  0  2  0  0  0  0  0  0
  186.2770  178.0680  146.0990 C   0  0  0  0  0  0  0  0  0  0  0  0
  186.0560  178.5700  147.2360 O   0  0  0  0  0  0  0  0  0  0  0  0
  185.5260  177.6230  143.7350 C   0  0  0  0  0  2  0  0  0  0  0  0
  191.1390  176.3840  142.7340 S   0  0  0  0  0  0  0  0  0  0  0  0
  191.6560  177.5270  141.4180 C   0  0  0  0  0  2  0  0  0  0  0  0
  190.9090  177.2290  140.1590 C   0  0  0  0  0  0  0  0  0  0  0  0
  189.3120  177.6020  140.1040 S   0  0  0  0  0  0  0  0  0  0  0  0
  191.5610  176.5670  139.0570 N   0  0  0  0  0  0  0  0  0  0  0  0
  190.8100  175.7080  138.1540 C   0  0  0  0  0  1  0  0  0  0  0  0
  192.9870  176.7260  138.8050 C   0  0  0  0  0  1  0  0  0  0  0  0
  1 16  1  1  0  0  0
  1  3  1  0  0  0  0
  2  1  1  0  0  0  0
  2 10  1  1  0  0  0
  4  3  1  0  0  0  0
  5  6  2  0  0  0  0
  5 10  1  0  0  0  0
  8 19  1  6  0  0  0
  8  9  1  0  0  0  0
  8  5  1  0  0  0  0
  9  7  1  1  0  0  0
  9  2  1  0  0  0  0
 10  4  1  0  0  0  0
 11 13  1  0  0  0  0
 11 16  1  0  0  0  0
 12 14  1  0  0  0  0
 14 13  1  0  0  0  0
 15 12  1  0  0  0  0
 15 18  1  0  0  0  0
 16 17  2  0  0  0  0
 18 11  1  0  0  0  0
 20 19  1  0  0  0  0
 21 20  1  0  0  0  0
 22 21  2  0  0  0  0
 23 21  1  0  0  0  0
 24 23  1  0  0  0  0
 25 23  1  0  0  0  0
M  END
>  <MODEL>
3

>  <REMARK>
 VINA RESULT:      -6.4      3.195      6.619
  Name = 
  5 active torsions:
  status: ('A' for Active; 'I' for Inactive)
    1  A    between atoms: C_1  and  C_18
    2  A    between atoms: N_2  and  C_21
    3  A    between atoms: S_6  and  C_15
    4  A    between atoms: S_6  and  C_20
    5  A    between atoms: C_15  and  C_21
                            x       y       z     vdW  Elec       q    Type
                         _______ _______ _______ _____ _____    ______ ____

>  <TORSDO>
F 5

$$$$
=
 OpenBabel11052412513D

 25 27  0  0  1  0  0  0  0  0999 V2000
  189.6060  176.8240  144.6820 C   0  0  1  0  0  3  0  0  0  0  0  0
  189.9050  177.9370  143.7150 C   0  0  2  0  0  3  0  0  0  0  0  0
  190.8190  176.1390  144.9400 O   0  0  0  0  0  0  0  0  0  0  0  0
  191.6850  176.4190  143.9090 N   0  0  0  0  0  2  0  0  0  0  0  0
  191.2220  177.6420  141.8350 C   0  0  0  0  0  0  0  0  0  0  0  0
  192.2540  177.3840  141.1600 O   0  0  0  0  0  0  0  0  0  0  0  0
  188.1560  176.8800  142.3830 O   0  0  0  0  0  1  0  0  0  0  0  0
  189.9410  178.1000  141.2600 C   0  0  2  0  0  3  0  0  0  0  0  0
  188.9860  178.0060  142.4690 C   0  0  2  0  0  3  0  0  0  0  0  0
  191.1850  177.5410  143.2430 N   0  0  0  0  0  0  0  0  0  0  0  0
  187.6300  177.6450  146.0710 N   0  0  0  0  0  0  0  0  0  0  0  0
  184.9630  178.3960  146.1960 O   0  0  0  0  0  0  0  0  0  0  0  0
  187.0890  178.2200  147.3040 C   0  0  0  0  0  2  0  0  0  0  0  0
  185.8980  179.1160  146.9620 C   0  0  0  0  0  2  0  0  0  0  0  0
  185.5480  178.2040  144.9300 C   0  0  0  0  0  2  0  0  0  0  0  0
  189.0360  177.3810  145.9530 C   0  0  0  0  0  0  0  0  0  0  0  0
  189.8140  177.6660  146.9060 O   0  0  0  0  0  0  0  0  0  0  0  0
  186.6960  177.2010  145.0360 C   0  0  0  0  0  2  0  0  0  0  0  0
  189.4460  177.0800  139.8260 S   0  0  0  0  0  0  0  0  0  0  0  0
  188.2580  178.3300  139.2520 C   0  0  0  0  0  2  0  0  0  0  0  0
  187.8690  178.0540  137.8360 C   0  0  0  0  0  0  0  0  0  0  0  0
  189.0500  178.0580  136.6970 S   0  0  0  0  0  0  0  0  0  0  0  0
  186.4860  177.8610  137.4790 N   0  0  0  0  0  0  0  0  0  0  0  0
  186.1220  177.2500  136.2090 C   0  0  0  0  0  1  0  0  0  0  0  0
  185.4030  178.2700  138.3630 C   0  0  0  0  0  1  0  0  0  0  0  0
  1  3  1  0  0  0  0
  1 16  1  1  0  0  0
  2 10  1  6  0  0  0
  2  1  1  0  0  0  0
  4  3  1  0  0  0  0
  5 10  1  0  0  0  0
  6  5  2  0  0  0  0
  8 19  1  6  0  0  0
  8  5  1  0  0  0  0
  8  9  1  0  0  0  0
  9  7  1  6  0  0  0
  9  2  1  0  0  0  0
 10  4  1  0  0  0  0
 11 13  1  0  0  0  0
 12 14  1  0  0  0  0
 14 13  1  0  0  0  0
 15 18  1  0  0  0  0
 15 12  1  0  0  0  0
 16 11  1  0  0  0  0
 16 17  2  0  0  0  0
 18 11  1  0  0  0  0
 20 19  1  0  0  0  0
 21 20  1  0  0  0  0
 22 21  2  0  0  0  0
 23 21  1  0  0  0  0
 23 25  1  0  0  0  0
 24 23  1  0  0  0  0
M  END
>  <MODEL>
4

>  <REMARK>
 VINA RESULT:      -6.3      2.792      6.455
  Name = 
  5 active torsions:
  status: ('A' for Active; 'I' for Inactive)
    1  A    between atoms: C_1  and  C_18
    2  A    between atoms: N_2  and  C_21
    3  A    between atoms: S_6  and  C_15
    4  A    between atoms: S_6  and  C_20
    5  A    between atoms: C_15  and  C_21
                            x       y       z     vdW  Elec       q    Type
                         _______ _______ _______ _____ _____    ______ ____

>  <TORSDO>
F 5

$$$$
=
 OpenBabel11052412513D

 25 27  0  0  1  0  0  0  0  0999 V2000
  189.5350  176.5110  143.3930 C   0  0  1  0  0  3  0  0  0  0  0  0
  189.4030  177.8460  142.7130 C   0  0  2  0  0  3  0  0  0  0  0  0
  190.3290  175.6820  142.5640 O   0  0  0  0  0  0  0  0  0  0  0  0
  190.2940  176.2040  141.2920 N   0  0  0  0  0  2  0  0  0  0  0  0
  188.9280  178.0620  140.4580 C   0  0  0  0  0  0  0  0  0  0  0  0
  189.0900  177.9490  139.2140 O   0  0  0  0  0  0  0  0  0  0  0  0
  187.0130  177.4230  142.9490 O   0  0  0  0  0  1  0  0  0  0  0  0
  187.8070  178.7850  141.0920 C   0  0  2  0  0  3  0  0  0  0  0  0
  187.9570  178.3880  142.5760 C   0  0  2  0  0  3  0  0  0  0  0  0
  189.8300  177.5180  141.3990 N   0  0  0  0  0  0  0  0  0  0  0  0
  189.3770  176.9410  145.9030 N   0  0  0  0  0  0  0  0  0  0  0  0
  187.8560  177.7100  148.0910 O   0  0  0  0  0  0  0  0  0  0  0  0
  190.0160  177.1340  147.2060 C   0  0  0  0  0  2  0  0  0  0  0  0
  189.1970  178.1310  148.0260 C   0  0  0  0  0  2  0  0  0  0  0  0
  187.3190  177.8910  146.8020 C   0  0  0  0  0  2  0  0  0  0  0  0
  190.1760  176.6770  144.7390 C   0  0  0  0  0  0  0  0  0  0  0  0
  191.4340  176.6330  144.8340 O   0  0  0  0  0  0  0  0  0  0  0  0
  187.9180  176.8640  145.8420 C   0  0  0  0  0  2  0  0  0  0  0  0
  186.2030  178.3230  140.3460 S   0  0  0  0  0  0  0  0  0  0  0  0
  185.2690  179.2750  141.5820 C   0  0  0  0  0  2  0  0  0  0  0  0
  183.9120  178.6790  141.7680 C   0  0  0  0  0  0  0  0  0  0  0  0
  183.2410  177.8800  140.5020 S   0  0  0  0  0  0  0  0  0  0  0  0
  183.1900  178.8660  143.0020 N   0  0  0  0  0  0  0  0  0  0  0  0
  183.8950  178.9430  144.2730 C   0  0  0  0  0  1  0  0  0  0  0  0
  181.7390  178.9820  143.0290 C   0  0  0  0  0  1  0  0  0  0  0  0
  1 16  1  1  0  0  0
  2 10  1  6  0  0  0
  2  1  1  0  0  0  0
  3  1  1  0  0  0  0
  4 10  1  0  0  0  0
  4  3  1  0  0  0  0
  5  8  1  0  0  0  0
  5 10  1  0  0  0  0
  6  5  2  0  0  0  0
  8 19  1  6  0  0  0
  8  9  1  0  0  0  0
  9  2  1  0  0  0  0
  9  7  1  6  0  0  0
 11 13  1  0  0  0  0
 13 14  1  0  0  0  0
 14 12  1  0  0  0  0
 15 12  1  0  0  0  0
 16 17  2  0  0  0  0
 16 11  1  0  0  0  0
 18 11  1  0  0  0  0
 18 15  1  0  0  0  0
 19 20  1  0  0  0  0
 20 21  1  0  0  0  0
 21 23  1  0  0  0  0
 22 21  2  0  0  0  0
 23 25  1  0  0  0  0
 23 24  1  0  0  0  0
M  END
>  <MODEL>
5

>  <REMARK>
 VINA RESULT:      -6.2      2.847      5.767
  Name = 
  5 active torsions:
  status: ('A' for Active; 'I' for Inactive)
    1  A    between atoms: C_1  and  C_18
    2  A    between atoms: N_2  and  C_21
    3  A    between atoms: S_6  and  C_15
    4  A    between atoms: S_6  and  C_20
    5  A    between atoms: C_15  and  C_21
                            x       y       z     vdW  Elec       q    Type
                         _______ _______ _______ _____ _____    ______ ____

>  <TORSDO>
F 5

$$$$
=
 OpenBabel11052412513D

 25 27  0  0  1  0  0  0  0  0999 V2000
  187.6390  178.5170  139.0110 C   0  0  1  0  0  3  0  0  0  0  0  0
  188.2960  177.3590  139.7090 C   0  0  2  0  0  3  0  0  0  0  0  0
  188.5460  179.0060  138.0390 O   0  0  0  0  0  0  0  0  0  0  0  0
  189.8060  178.5810  138.3900 N   0  0  0  0  0  2  0  0  0  0  0  0
  190.4930  177.4190  140.4370 C   0  0  0  0  0  0  0  0  0  0  0  0
  191.7470  177.5030  140.3610 O   0  0  0  0  0  0  0  0  0  0  0  0
  187.8280  178.6590  141.7190 O   0  0  0  0  0  1  0  0  0  0  0  0
  189.7480  177.1600  141.6870 C   0  0  2  0  0  3  0  0  0  0  0  0
  188.2880  177.4180  141.2580 C   0  0  2  0  0  3  0  0  0  0  0  0
  189.6480  177.5420  139.3130 N   0  0  0  0  0  0  0  0  0  0  0  0
  185.1040  178.2330  139.0340 N   0  0  0  0  0  0  0  0  0  0  0  0
  182.7170  178.3060  140.4450 O   0  0  0  0  0  0  0  0  0  0  0  0
  183.8670  177.7660  138.4040 C   0  0  0  0  0  2  0  0  0  0  0  0
  182.8990  177.2910  139.4870 C   0  0  0  0  0  2  0  0  0  0  0  0
  183.9260  178.3970  141.1630 C   0  0  0  0  0  2  0  0  0  0  0  0
  186.3620  178.0730  138.3600 C   0  0  0  0  0  0  0  0  0  0  0  0
  186.4070  177.5060  137.2330 O   0  0  0  0  0  0  0  0  0  0  0  0
  185.0120  179.0030  140.2740 C   0  0  0  0  0  2  0  0  0  0  0  0
  190.3340  178.2270  143.0510 S   0  0  0  0  0  0  0  0  0  0  0  0
  190.3620  176.8380  144.2240 C   0  0  0  0  0  2  0  0  0  0  0  0
  189.4680  177.1300  145.3840 C   0  0  0  0  0  0  0  0  0  0  0  0
  187.9000  177.5030  145.0740 S   0  0  0  0  0  0  0  0  0  0  0  0
  189.9900  177.1530  146.7270 N   0  0  0  0  0  0  0  0  0  0  0  0
  191.3050  176.6060  147.0240 C   0  0  0  0  0  1  0  0  0  0  0  0
  189.2300  177.7160  147.8350 C   0  0  0  0  0  1  0  0  0  0  0  0
  1 16  1  6  0  0  0
  1  2  1  0  0  0  0
  2 10  1  6  0  0  0
  2  9  1  0  0  0  0
  3  4  1  0  0  0  0
  3  1  1  0  0  0  0
  4 10  1  0  0  0  0
  5  8  1  0  0  0  0
  6  5  2  0  0  0  0
  8 19  1  1  0  0  0
  9  8  1  0  0  0  0
  9  7  1  6  0  0  0
 10  5  1  0  0  0  0
 11 18  1  0  0  0  0
 12 15  1  0  0  0  0
 13 11  1  0  0  0  0
 13 14  1  0  0  0  0
 14 12  1  0  0  0  0
 16 11  1  0  0  0  0
 17 16  2  0  0  0  0
 18 15  1  0  0  0  0
 19 20  1  0  0  0  0
 20 21  1  0  0  0  0
 21 23  1  0  0  0  0
 22 21  2  0  0  0  0
 23 24  1  0  0  0  0
 23 25  1  0  0  0  0
M  END
>  <MODEL>
6

>  <REMARK>
 VINA RESULT:      -6.1      2.541      4.402
  Name = 
  5 active torsions:
  status: ('A' for Active; 'I' for Inactive)
    1  A    between atoms: C_1  and  C_18
    2  A    between atoms: N_2  and  C_21
    3  A    between atoms: S_6  and  C_15
    4  A    between atoms: S_6  and  C_20
    5  A    between atoms: C_15  and  C_21
                            x       y       z     vdW  Elec       q    Type
                         _______ _______ _______ _____ _____    ______ ____

>  <TORSDO>
F 5

$$$$
=
 OpenBabel11052412513D

 25 27  0  0  1  0  0  0  0  0999 V2000
  188.6220  176.9320  143.6030 C   0  0  1  0  0  3  0  0  0  0  0  0
  189.2440  177.9350  142.6720 C   0  0  2  0  0  3  0  0  0  0  0  0
  189.4220  175.7640  143.5770 O   0  0  0  0  0  0  0  0  0  0  0  0
  190.1630  175.7900  142.4180 N   0  0  0  0  0  2  0  0  0  0  0  0
  190.0020  177.3780  140.5570 C   0  0  0  0  0  0  0  0  0  0  0  0
  190.6990  176.8030  139.6800 O   0  0  0  0  0  0  0  0  0  0  0  0
  187.0350  177.9360  141.6380 O   0  0  0  0  0  1  0  0  0  0  0  0
  188.9940  178.4200  140.2720 C   0  0  2  0  0  3  0  0  0  0  0  0
  188.2840  178.5710  141.6350 C   0  0  2  0  0  3  0  0  0  0  0  0
  190.1280  177.1020  141.9360 N   0  0  0  0  0  0  0  0  0  0  0  0
  187.2900  177.8380  145.5820 N   0  0  0  0  0  0  0  0  0  0  0  0
  184.8780  178.7500  146.6050 O   0  0  0  0  0  0  0  0  0  0  0  0
  187.2370  178.4130  146.9270 C   0  0  0  0  0  2  0  0  0  0  0  0
  186.0640  179.3890  147.0120 C   0  0  0  0  0  2  0  0  0  0  0  0
  184.9880  178.5550  145.2140 C   0  0  0  0  0  2  0  0  0  0  0  0
  188.5530  177.4900  144.9950 C   0  0  0  0  0  0  0  0  0  0  0  0
  189.6240  177.7010  145.6290 O   0  0  0  0  0  0  0  0  0  0  0  0
  186.0340  177.4800  144.9220 C   0  0  0  0  0  2  0  0  0  0  0  0
  187.8920  177.9290  138.8980 S   0  0  0  0  0  0  0  0  0  0  0  0
  189.1540  178.3200  137.6480 C   0  0  0  0  0  2  0  0  0  0  0  0
  189.0560  177.3610  136.5060 C   0  0  0  0  0  0  0  0  0  0  0  0
  187.9920  177.7010  135.3040 S   0  0  0  0  0  0  0  0  0  0  0  0
  189.8240  176.1420  136.5030 N   0  0  0  0  0  0  0  0  0  0  0  0
  191.1980  176.1280  136.0250 C   0  0  0  0  0  1  0  0  0  0  0  0
  189.2610  174.8820  136.9700 C   0  0  0  0  0  1  0  0  0  0  0  0
  1 16  1  1  0  0  0
  2 10  1  6  0  0  0
  2  1  1  0  0  0  0
  3  1  1  0  0  0  0
  4  3  1  0  0  0  0
  5 10  1  0  0  0  0
  6  5  2  0  0  0  0
  8 19  1  6  0  0  0
  8  5  1  0  0  0  0
  8  9  1  0  0  0  0
  9  7  1  6  0  0  0
  9  2  1  0  0  0  0
 10  4  1  0  0  0  0
 11 13  1  0  0  0  0
 12 14  1  0  0  0  0
 13 14  1  0  0  0  0
 15 12  1  0  0  0  0
 16 11  1  0  0  0  0
 16 17  2  0  0  0  0
 18 15  1  0  0  0  0
 18 11  1  0  0  0  0
 20 19  1  0  0  0  0
 21 20  1  0  0  0  0
 22 21  2  0  0  0  0
 23 21  1  0  0  0  0
 23 25  1  0  0  0  0
 24 23  1  0  0  0  0
M  END
>  <MODEL>
7

>  <REMARK>
 VINA RESULT:      -6.1      3.061      7.161
  Name = 
  5 active torsions:
  status: ('A' for Active; 'I' for Inactive)
    1  A    between atoms: C_1  and  C_18
    2  A    between atoms: N_2  and  C_21
    3  A    between atoms: S_6  and  C_15
    4  A    between atoms: S_6  and  C_20
    5  A    between atoms: C_15  and  C_21
                            x       y       z     vdW  Elec       q    Type
                         _______ _______ _______ _____ _____    ______ ____

>  <TORSDO>
F 5

$$$$
=
 OpenBabel11052412513D

 25 27  0  0  1  0  0  0  0  0999 V2000
  189.1860  178.2780  139.1260 C   0  0  1  0  0  3  0  0  0  0  0  0
  189.0960  177.0160  138.3140 C   0  0  2  0  0  3  0  0  0  0  0  0
  188.8860  179.3650  138.2680 O   0  0  0  0  0  0  0  0  0  0  0  0
  189.0800  178.9430  136.9740 N   0  0  0  0  0  2  0  0  0  0  0  0
  190.0250  176.8160  136.2030 C   0  0  0  0  0  0  0  0  0  0  0  0
  190.2100  177.0550  134.9800 O   0  0  0  0  0  0  0  0  0  0  0  0
  191.3760  176.6680  139.1070 O   0  0  0  0  0  1  0  0  0  0  0  0
  190.7060  175.7420  136.9560 C   0  0  2  0  0  3  0  0  0  0  0  0
  190.3170  176.0660  138.4140 C   0  0  2  0  0  3  0  0  0  0  0  0
  189.1130  177.5460  136.9960 N   0  0  0  0  0  0  0  0  0  0  0  0
  188.6230  177.7270  141.5530 N   0  0  0  0  0  0  0  0  0  0  0  0
  189.3420  176.5180  143.9430 O   0  0  0  0  0  0  0  0  0  0  0  0
  187.6600  177.6520  142.6530 C   0  0  0  0  0  2  0  0  0  0  0  0
  187.9960  176.4500  143.5360 C   0  0  0  0  0  2  0  0  0  0  0  0
  190.1180  176.2560  142.7970 C   0  0  0  0  0  2  0  0  0  0  0  0
  188.2160  178.2280  140.2700 C   0  0  0  0  0  0  0  0  0  0  0  0
  187.0200  178.5830  140.0810 O   0  0  0  0  0  0  0  0  0  0  0  0
  190.0300  177.4370  141.8310 C   0  0  0  0  0  2  0  0  0  0  0  0
  192.5070  175.7380  136.6380 S   0  0  0  0  0  0  0  0  0  0  0  0
  192.6910  174.0470  137.2790 C   0  0  0  0  0  2  0  0  0  0  0  0
  193.9960  173.4700  136.8340 C   0  0  0  0  0  0  0  0  0  0  0  0
  193.9630  172.2150  135.7770 S   0  0  0  0  0  0  0  0  0  0  0  0
  195.2380  173.9590  137.3770 N   0  0  0  0  0  0  0  0  0  0  0  0
  195.5270  173.8440  138.7980 C   0  0  0  0  0  1  0  0  0  0  0  0
  196.2460  174.5880  136.5340 C   0  0  0  0  0  1  0  0  0  0  0  0
  1 16  1  1  0  0  0
  2 10  1  6  0  0  0
  2  9  1  0  0  0  0
  2  1  1  0  0  0  0
  3  1  1  0  0  0  0
  4 10  1  0  0  0  0
  4  3  1  0  0  0  0
  5  8  1  0  0  0  0
  5 10  1  0  0  0  0
  6  5  2  0  0  0  0
  8 19  1  1  0  0  0
  8  9  1  0  0  0  0
  9  7  1  6  0  0  0
 11 18  1  0  0  0  0
 11 13  1  0  0  0  0
 13 14  1  0  0  0  0
 14 12  1  0  0  0  0
 15 12  1  0  0  0  0
 16 11  1  0  0  0  0
 17 16  2  0  0  0  0
 18 15  1  0  0  0  0
 19 20  1  0  0  0  0
 21 20  1  0  0  0  0
 21 23  1  0  0  0  0
 22 21  2  0  0  0  0
 23 24  1  0  0  0  0
 25 23  1  0  0  0  0
M  END
>  <MODEL>
8

>  <REMARK>
 VINA RESULT:      -6.1      4.454      8.425
  Name = 
  5 active torsions:
  status: ('A' for Active; 'I' for Inactive)
    1  A    between atoms: C_1  and  C_18
    2  A    between atoms: N_2  and  C_21
    3  A    between atoms: S_6  and  C_15
    4  A    between atoms: S_6  and  C_20
    5  A    between atoms: C_15  and  C_21
                            x       y       z     vdW  Elec       q    Type
                         _______ _______ _______ _____ _____    ______ ____

>  <TORSDO>
F 5

$$$$
=
 OpenBabel11052412513D

 25 27  0  0  1  0  0  0  0  0999 V2000
  190.7900  177.4920  139.8850 C   0  0  1  0  0  3  0  0  0  0  0  0
  190.1700  176.5410  140.8710 C   0  0  2  0  0  3  0  0  0  0  0  0
  192.1280  177.7210  140.2880 O   0  0  0  0  0  0  0  0  0  0  0  0
  192.2270  177.3910  141.6190 N   0  0  0  0  0  2  0  0  0  0  0  0
  190.4240  176.7710  143.1600 C   0  0  0  0  0  0  0  0  0  0  0  0
  191.0160  176.8280  144.2700 O   0  0  0  0  0  0  0  0  0  0  0  0
  188.4990  178.3020  141.1030 O   0  0  0  0  0  1  0  0  0  0  0  0
  188.9570  176.8340  142.9920 C   0  0  2  0  0  3  0  0  0  0  0  0
  188.8080  176.9830  141.4630 C   0  0  2  0  0  3  0  0  0  0  0  0
  191.1080  176.6150  141.9350 N   0  0  0  0  0  0  0  0  0  0  0  0
  189.8160  177.3940  137.5290 N   0  0  0  0  0  0  0  0  0  0  0  0
  187.8390  178.1600  135.7400 O   0  0  0  0  0  0  0  0  0  0  0  0
  189.7630  176.7910  136.1950 C   0  0  0  0  0  2  0  0  0  0  0  0
  188.3250  176.8410  135.6770 C   0  0  0  0  0  2  0  0  0  0  0  0
  187.6600  178.4530  137.1070 C   0  0  0  0  0  2  0  0  0  0  0  0
  190.7500  176.9050  138.5040 C   0  0  0  0  0  0  0  0  0  0  0  0
  191.5110  175.9400  138.2210 O   0  0  0  0  0  0  0  0  0  0  0  0
  189.0210  178.5940  137.7890 C   0  0  0  0  0  2  0  0  0  0  0  0
  188.2290  178.2030  143.9600 S   0  0  0  0  0  0  0  0  0  0  0  0
  187.3830  177.0560  145.0880 C   0  0  0  0  0  2  0  0  0  0  0  0
  187.2100  177.6910  146.4290 C   0  0  0  0  0  0  0  0  0  0  0  0
  185.8880  178.6330  146.6710 S   0  0  0  0  0  0  0  0  0  0  0  0
  188.2150  177.5360  147.4510 N   0  0  0  0  0  0  0  0  0  0  0  0
  188.0550  178.1650  148.7530 C   0  0  0  0  0  1  0  0  0  0  0  0
  189.4230  176.7550  147.2230 C   0  0  0  0  0  1  0  0  0  0  0  0
  1 16  1  6  0  0  0
  1  3  1  0  0  0  0
  1  2  1  0  0  0  0
  2  9  1  0  0  0  0
  2 10  1  1  0  0  0
  3  4  1  0  0  0  0
  4 10  1  0  0  0  0
  5  6  2  0  0  0  0
  8  5  1  0  0  0  0
  8 19  1  1  0  0  0
  9  7  1  1  0  0  0
  9  8  1  0  0  0  0
 10  5  1  0  0  0  0
 11 18  1  0  0  0  0
 11 16  1  0  0  0  0
 12 15  1  0  0  0  0
 13 11  1  0  0  0  0
 14 12  1  0  0  0  0
 14 13  1  0  0  0  0
 15 18  1  0  0  0  0
 17 16  2  0  0  0  0
 19 20  1  0  0  0  0
 20 21  1  0  0  0  0
 21 22  2  0  0  0  0
 21 23  1  0  0  0  0
 23 24  1  0  0  0  0
 25 23  1  0  0  0  0
M  END
>  <MODEL>
9

>  <REMARK>
 VINA RESULT:      -6.1      1.798      2.375
  Name = 
  5 active torsions:
  status: ('A' for Active; 'I' for Inactive)
    1  A    between atoms: C_1  and  C_18
    2  A    between atoms: N_2  and  C_21
    3  A    between atoms: S_6  and  C_15
    4  A    between atoms: S_6  and  C_20
    5  A    between atoms: C_15  and  C_21
                            x       y       z     vdW  Elec       q    Type
                         _______ _______ _______ _____ _____    ______ ____

>  <TORSDO>
F 5

$$$$
