=
 OpenBabel11052415273D

 37 40  0  0  1  0  0  0  0  0999 V2000
  183.0850  179.8000  139.5800 C   0  0  0  0  0  2  0  0  0  0  0  0
  179.2090  178.3240  139.4300 C   0  0  0  0  0  2  0  0  0  0  0  0
  184.8430  177.1500  136.8040 C   0  0  0  0  0  3  0  0  0  0  0  0
  182.1000  178.8710  138.8460 C   0  0  1  0  0  0  0  0  0  0  0  0
  184.1950  177.8940  137.7930 C   0  0  0  0  0  0  0  0  0  0  0  0
  180.9500  179.7090  138.4000 N   0  0  0  0  0  0  0  0  0  0  0  0
  184.9420  178.3650  138.9190 N   0  0  0  0  0  0  0  0  0  0  0  0
  182.8100  178.1410  137.7030 C   0  0  0  0  0  0  0  0  0  0  0  0
  182.7470  176.8540  135.6380 C   0  0  0  0  0  3  0  0  0  0  0  0
  184.4540  179.1990  139.7870 C   0  0  0  0  0  0  0  0  0  0  0  0
  182.0930  177.5890  136.6280 C   0  0  0  0  0  3  0  0  0  0  0  0
  179.7710  178.8930  138.1260 C   0  0  0  0  0  2  0  0  0  0  0  0
  181.6380  177.7920  139.8560 C   0  0  0  0  0  2  0  0  0  0  0  0
  184.1240  176.6350  135.7150 C   0  0  0  0  0  0  0  0  0  0  0  0
  180.2780  178.0710  140.5210 C   0  0  1  0  0  0  0  0  0  0  0  0
  184.7500  175.8980  134.7060 O   0  0  0  0  0  0  0  0  0  0  0  0
  185.0590  174.5170  134.8430 C   0  0  0  0  0  1  0  0  0  0  0  0
  186.2620  178.7350  141.3990 C   0  0  0  0  0  1  0  0  0  0  0  0
  185.2410  179.5730  140.8770 O   0  0  0  0  0  0  0  0  0  0  0  0
  180.4010  179.3220  141.4160 C   0  0  0  0  0  2  0  0  0  0  0  0
  180.6810  178.9530  142.7940 N   0  0  0  0  0  2  0  0  0  0  0  0
  183.1070  179.1180  143.7260 C   0  0  0  0  0  3  0  0  0  0  0  0
  181.9830  179.0420  143.2950 C   0  0  0  0  0  0  0  0  0  0  0  0
  179.9490  176.9210  141.2850 O   0  0  0  0  0  0  0  0  0  0  0  0
  179.1510  176.0410  140.5280 C   0  0  0  0  0  2  0  0  0  0  0  0
  179.7170  174.6400  140.6240 C   0  0  0  0  0  2  0  0  0  0  0  0
  179.2080  174.7240  138.4820 C   0  0  0  0  0  1  0  0  0  0  0  0
  179.2170  173.8650  139.5790 O   0  0  0  0  0  0  0  0  0  0  0  0
  181.2530  180.4960  137.2060 C   0  0  0  0  0  2  0  0  0  0  0  0
  179.9790  181.1100  136.6540 C   0  0  0  0  0  2  0  0  0  0  0  0
  180.7380  183.2290  135.5610 C   0  0  0  0  0  3  0  0  0  0  0  0
  180.1030  182.5920  136.6330 C   0  0  0  0  0  0  0  0  0  0  0  0
  179.6130  183.3490  137.7020 C   0  0  0  0  0  3  0  0  0  0  0  0
  179.1350  185.6850  139.0340 Cl  0  0  0  0  0  0  0  0  0  0  0  0
  180.3790  185.3770  136.6210 C   0  0  0  0  0  3  0  0  0  0  0  0
  179.7480  184.7400  137.6960 C   0  0  0  0  0  0  0  0  0  0  0  0
  180.8740  184.6210  135.5530 C   0  0  0  0  0  3  0  0  0  0  0  0
  1 10  1  0  0  0  0
  2 15  1  0  0  0  0
  3  5  1  0  0  0  0
  4  1  1  1  0  0  0
  4 13  1  0  0  0  0
  5  7  1  0  0  0  0
  6  4  1  0  0  0  0
  7 10  2  0  0  0  0
  8  5  2  0  0  0  0
  8  4  1  0  0  0  0
  9 14  1  0  0  0  0
  9 11  2  0  0  0  0
 10 19  1  0  0  0  0
 11  8  1  0  0  0  0
 12  6  1  0  0  0  0
 12  2  1  0  0  0  0
 13 15  1  0  0  0  0
 14  3  2  0  0  0  0
 15 24  1  0  0  0  0
 15 20  1  1  0  0  0
 16 17  1  0  0  0  0
 16 14  1  0  0  0  0
 19 18  1  0  0  0  0
 20 21  1  0  0  0  0
 21 23  1  0  0  0  0
 23 22  3  0  0  0  0
 25 26  1  0  0  0  0
 25 24  1  0  0  0  0
 27 28  1  0  0  0  0
 28 26  1  0  0  0  0
 29  6  1  0  0  0  0
 30 29  1  0  0  0  0
 31 32  1  0  0  0  0
 32 30  1  0  0  0  0
 32 33  2  0  0  0  0
 35 36  2  0  0  0  0
 36 33  1  0  0  0  0
 36 34  1  0  0  0  0
 37 31  2  0  0  0  0
 37 35  1  0  0  0  0
M  END
>  <MODEL>
1

>  <REMARK>
 VINA RESULT:      -5.6      0.000      0.000
  Name = 
  12 active torsions:
  status: ('A' for Active; 'I' for Inactive)
    1  A    between atoms: C_1  and  N_5
    2  A    between atoms: C_1  and  C_36
    3  A    between atoms: O_3  and  C_32
    4  A    between atoms: N_5  and  C_23
    5  A    between atoms: C_6  and  C_31
    6  A    between atoms: N_14  and  C_37
    7  A    between atoms: C_17  and  C_26
    8  A    between atoms: C_17  and  O_33
    9  A    between atoms: C_24  and  O_28
   10  A    between atoms: C_26  and  O_34
   11  A    between atoms: C_31  and  C_37
   12  A    between atoms: O_33  and  C_36
                            x       y       z     vdW  Elec       q    Type
                         _______ _______ _______ _____ _____    ______ ____

>  <TORSDO>
F 12

$$$$
=
 OpenBabel11052415273D

 37 40  0  0  1  0  0  0  0  0999 V2000
  184.0450  177.3900  137.7220 C   0  0  0  0  0  2  0  0  0  0  0  0
  182.1660  179.2350  140.9310 C   0  0  0  0  0  2  0  0  0  0  0  0
  181.6230  173.9390  137.5140 C   0  0  0  0  0  3  0  0  0  0  0  0
  182.8210  177.3900  138.6580 C   0  0  1  0  0  0  0  0  0  0  0  0
  182.4360  175.0520  137.7440 C   0  0  0  0  0  0  0  0  0  0  0  0
  182.1700  178.7260  138.5330 N   0  0  0  0  0  0  0  0  0  0  0  0
  183.8300  174.9790  137.4300 N   0  0  0  0  0  0  0  0  0  0  0  0
  181.8950  176.2200  138.3200 C   0  0  0  0  0  0  0  0  0  0  0  0
  179.7310  175.1120  138.4550 C   0  0  0  0  0  3  0  0  0  0  0  0
  184.6110  176.0160  137.4570 C   0  0  0  0  0  0  0  0  0  0  0  0
  180.5410  176.2230  138.6960 C   0  0  0  0  0  3  0  0  0  0  0  0
  181.3140  179.0100  139.6810 C   0  0  0  0  0  2  0  0  0  0  0  0
  183.3370  177.1600  140.0980 C   0  0  0  0  0  2  0  0  0  0  0  0
  180.2630  173.9670  137.8590 C   0  0  0  0  0  0  0  0  0  0  0  0
  183.4960  178.4410  140.9400 C   0  0  1  0  0  0  0  0  0  0  0  0
  179.4250  172.8720  137.6280 O   0  0  0  0  0  0  0  0  0  0  0  0
  179.8610  171.7030  136.9480 C   0  0  0  0  0  1  0  0  0  0  0  0
  186.9210  176.8760  137.3840 C   0  0  0  0  0  1  0  0  0  0  0  0
  185.9670  175.8450  137.1750 O   0  0  0  0  0  0  0  0  0  0  0  0
  184.6150  179.3090  140.3290 C   0  0  0  0  0  2  0  0  0  0  0  0
  185.7210  179.4670  141.2590 N   0  0  0  0  0  2  0  0  0  0  0  0
  187.9670  178.2140  140.8440 C   0  0  0  0  0  3  0  0  0  0  0  0
  186.9270  178.7940  141.0370 C   0  0  0  0  0  0  0  0  0  0  0  0
  183.8240  178.0300  142.2580 O   0  0  0  0  0  0  0  0  0  0  0  0
  182.9960  178.6790  143.1940 C   0  0  0  0  0  2  0  0  0  0  0  0
  183.8410  179.2030  144.3360 C   0  0  0  0  0  2  0  0  0  0  0  0
  185.3310  178.4750  145.7870 C   0  0  0  0  0  1  0  0  0  0  0  0
  185.0100  178.4500  144.4310 O   0  0  0  0  0  0  0  0  0  0  0  0
  181.3660  178.8520  137.3180 C   0  0  0  0  0  2  0  0  0  0  0  0
  180.2200  179.8190  137.5540 C   0  0  0  0  0  2  0  0  0  0  0  0
  180.3520  181.0070  135.3560 C   0  0  0  0  0  3  0  0  0  0  0  0
  180.4300  181.0540  136.7520 C   0  0  0  0  0  0  0  0  0  0  0  0
  180.7390  182.2590  137.3930 C   0  0  0  0  0  3  0  0  0  0  0  0
  181.3450  184.9220  137.4440 Cl  0  0  0  0  0  0  0  0  0  0  0  0
  180.8760  183.3690  135.2440 C   0  0  0  0  0  3  0  0  0  0  0  0
  180.9590  183.4160  136.6400 C   0  0  0  0  0  0  0  0  0  0  0  0
  180.5720  182.1640  134.6020 C   0  0  0  0  0  3  0  0  0  0  0  0
  2 15  1  0  0  0  0
  3  5  2  0  0  0  0
  3 14  1  0  0  0  0
  4  1  1  6  0  0  0
  4 13  1  0  0  0  0
  5  8  1  0  0  0  0
  6  4  1  0  0  0  0
  6 12  1  0  0  0  0
  7 10  2  0  0  0  0
  7  5  1  0  0  0  0
  8  4  1  0  0  0  0
  8 11  2  0  0  0  0
  9 11  1  0  0  0  0
 10  1  1  0  0  0  0
 12  2  1  0  0  0  0
 13 15  1  0  0  0  0
 14  9  2  0  0  0  0
 15 20  1  6  0  0  0
 15 24  1  0  0  0  0
 16 14  1  0  0  0  0
 17 16  1  0  0  0  0
 19 18  1  0  0  0  0
 19 10  1  0  0  0  0
 20 21  1  0  0  0  0
 22 23  3  0  0  0  0
 23 21  1  0  0  0  0
 24 25  1  0  0  0  0
 25 26  1  0  0  0  0
 26 28  1  0  0  0  0
 28 27  1  0  0  0  0
 29 30  1  0  0  0  0
 29  6  1  0  0  0  0
 31 32  1  0  0  0  0
 32 33  2  0  0  0  0
 32 30  1  0  0  0  0
 35 36  2  0  0  0  0
 36 33  1  0  0  0  0
 36 34  1  0  0  0  0
 37 35  1  0  0  0  0
 37 31  2  0  0  0  0
M  END
>  <MODEL>
2

>  <REMARK>
 VINA RESULT:      -5.5      2.003      4.453
  Name = 
  12 active torsions:
  status: ('A' for Active; 'I' for Inactive)
    1  A    between atoms: C_1  and  N_5
    2  A    between atoms: C_1  and  C_36
    3  A    between atoms: O_3  and  C_32
    4  A    between atoms: N_5  and  C_23
    5  A    between atoms: C_6  and  C_31
    6  A    between atoms: N_14  and  C_37
    7  A    between atoms: C_17  and  C_26
    8  A    between atoms: C_17  and  O_33
    9  A    between atoms: C_24  and  O_28
   10  A    between atoms: C_26  and  O_34
   11  A    between atoms: C_31  and  C_37
   12  A    between atoms: O_33  and  C_36
                            x       y       z     vdW  Elec       q    Type
                         _______ _______ _______ _____ _____    ______ ____

>  <TORSDO>
F 12

$$$$
=
 OpenBabel11052415273D

 37 40  0  0  1  0  0  0  0  0999 V2000
  180.6240  179.1290  140.4480 C   0  0  0  0  0  2  0  0  0  0  0  0
  184.0700  177.8220  138.5380 C   0  0  0  0  0  2  0  0  0  0  0  0
  179.5940  182.2260  137.7720 C   0  0  0  0  0  3  0  0  0  0  0  0
  181.4880  179.2100  139.1750 C   0  0  1  0  0  0  0  0  0  0  0  0
  180.0870  181.2640  138.6570 C   0  0  0  0  0  0  0  0  0  0  0  0
  181.6200  177.8230  138.6420 N   0  0  0  0  0  0  0  0  0  0  0  0
  179.8220  181.3970  140.0570 N   0  0  0  0  0  0  0  0  0  0  0  0
  180.8730  180.1960  138.1790 C   0  0  0  0  0  0  0  0  0  0  0  0
  180.6830  181.1050  135.9290 C   0  0  0  0  0  3  0  0  0  0  0  0
  180.0980  180.4640  140.9160 C   0  0  0  0  0  0  0  0  0  0  0  0
  181.1860  180.1460  136.8100 C   0  0  0  0  0  3  0  0  0  0  0  0
  182.7660  177.7050  137.7460 C   0  0  0  0  0  2  0  0  0  0  0  0
  182.8670  179.7780  139.5850 C   0  0  0  0  0  2  0  0  0  0  0  0
  179.8810  182.1460  136.4010 C   0  0  0  0  0  0  0  0  0  0  0  0
  183.9650  178.7190  139.7970 C   0  0  1  0  0  0  0  0  0  0  0  0
  179.3910  183.0880  135.4930 O   0  0  0  0  0  0  0  0  0  0  0  0
  180.1880  184.1480  134.9820 C   0  0  0  0  0  1  0  0  0  0  0  0
  179.7830  179.6450  143.2210 C   0  0  0  0  0  1  0  0  0  0  0  0
  179.8430  180.6960  142.2680 O   0  0  0  0  0  0  0  0  0  0  0  0
  183.5970  177.8490  141.0160 C   0  0  0  0  0  2  0  0  0  0  0  0
  183.5050  178.6530  142.2240 N   0  0  0  0  0  2  0  0  0  0  0  0
  185.2190  178.3140  144.1560 C   0  0  0  0  0  3  0  0  0  0  0  0
  184.4250  178.4710  143.2610 C   0  0  0  0  0  0  0  0  0  0  0  0
  185.1800  179.4210  140.0120 O   0  0  0  0  0  0  0  0  0  0  0  0
  186.2820  178.5780  139.7730 C   0  0  0  0  0  2  0  0  0  0  0  0
  187.2230  178.6300  140.9580 C   0  0  0  0  0  2  0  0  0  0  0  0
  188.8710  177.6010  141.9970 C   0  0  0  0  0  1  0  0  0  0  0  0
  188.2940  177.7670  140.7390 O   0  0  0  0  0  0  0  0  0  0  0  0
  180.4270  177.3760  137.9250 C   0  0  0  0  0  2  0  0  0  0  0  0
  180.8260  176.4850  136.7620 C   0  0  0  0  0  2  0  0  0  0  0  0
  179.4310  174.6780  137.7850 C   0  0  0  0  0  3  0  0  0  0  0  0
  180.6020  175.0590  137.1200 C   0  0  0  0  0  0  0  0  0  0  0  0
  181.5790  174.1020  136.8230 C   0  0  0  0  0  3  0  0  0  0  0  0
  182.6030  171.5700  136.8060 Cl  0  0  0  0  0  0  0  0  0  0  0  0
  180.2070  172.3830  137.8380 C   0  0  0  0  0  3  0  0  0  0  0  0
  181.3800  172.7650  137.1790 C   0  0  0  0  0  0  0  0  0  0  0  0
  179.2320  173.3400  138.1410 C   0  0  0  0  0  3  0  0  0  0  0  0
  1 10  1  0  0  0  0
  2 15  1  0  0  0  0
  3  5  1  0  0  0  0
  4 13  1  1  0  0  0
  4  1  1  0  0  0  0
  5  7  1  0  0  0  0
  6  4  1  0  0  0  0
  7 10  2  0  0  0  0
  8  5  2  0  0  0  0
  8  4  1  0  0  0  0
  9 14  1  0  0  0  0
  9 11  2  0  0  0  0
 10 19  1  0  0  0  0
 11  8  1  0  0  0  0
 12  2  1  0  0  0  0
 12  6  1  0  0  0  0
 13 15  1  0  0  0  0
 14  3  2  0  0  0  0
 15 24  1  0  0  0  0
 15 20  1  1  0  0  0
 16 14  1  0  0  0  0
 17 16  1  0  0  0  0
 19 18  1  0  0  0  0
 20 21  1  0  0  0  0
 21 23  1  0  0  0  0
 23 22  3  0  0  0  0
 25 24  1  0  0  0  0
 25 26  1  0  0  0  0
 28 26  1  0  0  0  0
 28 27  1  0  0  0  0
 29  6  1  0  0  0  0
 30 32  1  0  0  0  0
 30 29  1  0  0  0  0
 31 37  1  0  0  0  0
 32 31  2  0  0  0  0
 33 32  1  0  0  0  0
 33 36  2  0  0  0  0
 34 36  1  0  0  0  0
 35 37  2  0  0  0  0
 36 35  1  0  0  0  0
M  END
>  <MODEL>
3

>  <REMARK>
 VINA RESULT:      -5.0      3.453      7.190
  Name = 
  12 active torsions:
  status: ('A' for Active; 'I' for Inactive)
    1  A    between atoms: C_1  and  N_5
    2  A    between atoms: C_1  and  C_36
    3  A    between atoms: O_3  and  C_32
    4  A    between atoms: N_5  and  C_23
    5  A    between atoms: C_6  and  C_31
    6  A    between atoms: N_14  and  C_37
    7  A    between atoms: C_17  and  C_26
    8  A    between atoms: C_17  and  O_33
    9  A    between atoms: C_24  and  O_28
   10  A    between atoms: C_26  and  O_34
   11  A    between atoms: C_31  and  C_37
   12  A    between atoms: O_33  and  C_36
                            x       y       z     vdW  Elec       q    Type
                         _______ _______ _______ _____ _____    ______ ____

>  <TORSDO>
F 12

$$$$
=
 OpenBabel11052415273D

 37 40  0  0  1  0  0  0  0  0999 V2000
  191.9420  176.7480  138.3040 C   0  0  0  0  0  2  0  0  0  0  0  0
  188.7790  177.6370  140.8410 C   0  0  0  0  0  2  0  0  0  0  0  0
  190.1830  173.4940  136.2710 C   0  0  0  0  0  3  0  0  0  0  0  0
  190.4600  176.4920  138.6350 C   0  0  1  0  0  0  0  0  0  0  0  0
  190.7160  174.4980  137.0830 C   0  0  0  0  0  0  0  0  0  0  0  0
  189.7650  177.8110  138.6030 N   0  0  0  0  0  0  0  0  0  0  0  0
  192.1230  174.5130  137.3480 N   0  0  0  0  0  0  0  0  0  0  0  0
  189.8700  175.4620  137.6690 C   0  0  0  0  0  0  0  0  0  0  0  0
  187.9580  174.3650  136.6370 C   0  0  0  0  0  3  0  0  0  0  0  0
  192.7140  175.5010  137.9490 C   0  0  0  0  0  0  0  0  0  0  0  0
  188.4850  175.3640  137.4570 C   0  0  0  0  0  3  0  0  0  0  0  0
  188.5060  177.7690  139.3420 C   0  0  0  0  0  2  0  0  0  0  0  0
  190.4010  175.8720  140.0520 C   0  0  0  0  0  2  0  0  0  0  0  0
  188.8020  173.4280  136.0350 C   0  0  0  0  0  0  0  0  0  0  0  0
  190.0810  176.8690  141.1810 C   0  0  1  0  0  0  0  0  0  0  0  0
  188.2430  172.4410  135.2180 O   0  0  0  0  0  0  0  0  0  0  0  0
  186.8410  172.3030  135.0300 C   0  0  0  0  0  1  0  0  0  0  0  0
  194.8090  174.2030  138.0310 C   0  0  0  0  0  1  0  0  0  0  0  0
  194.0830  175.4120  138.2020 O   0  0  0  0  0  0  0  0  0  0  0  0
  191.2460  177.8710  141.3140 C   0  0  0  0  0  2  0  0  0  0  0  0
  191.8320  177.8180  142.6430 N   0  0  0  0  0  2  0  0  0  0  0  0
  191.3240  179.6980  144.3730 C   0  0  0  0  0  3  0  0  0  0  0  0
  191.5590  178.8280  143.5720 C   0  0  0  0  0  0  0  0  0  0  0  0
  189.9160  176.1090  142.3680 O   0  0  0  0  0  0  0  0  0  0  0  0
  188.7090  176.4510  143.0060 C   0  0  0  0  0  2  0  0  0  0  0  0
  188.9730  176.7250  144.4720 C   0  0  0  0  0  2  0  0  0  0  0  0
  186.9220  177.3940  144.0220 C   0  0  0  0  0  1  0  0  0  0  0  0
  187.8000  177.1660  145.0810 O   0  0  0  0  0  0  0  0  0  0  0  0
  189.4850  178.2700  137.2440 C   0  0  0  0  0  2  0  0  0  0  0  0
  188.2120  179.0970  137.2280 C   0  0  0  0  0  2  0  0  0  0  0  0
  187.2350  177.9680  135.2200 C   0  0  0  0  0  3  0  0  0  0  0  0
  187.1210  178.3310  136.5670 C   0  0  0  0  0  0  0  0  0  0  0  0
  185.9650  178.0020  137.2830 C   0  0  0  0  0  3  0  0  0  0  0  0
  183.4850  176.8910  137.5550 Cl  0  0  0  0  0  0  0  0  0  0  0  0
  185.0460  176.9350  135.3130 C   0  0  0  0  0  3  0  0  0  0  0  0
  184.9300  177.3020  136.6580 C   0  0  0  0  0  0  0  0  0  0  0  0
  186.1990  177.2680  134.5940 C   0  0  0  0  0  3  0  0  0  0  0  0
  2 15  1  0  0  0  0
  3  5  1  0  0  0  0
  4  1  1  6  0  0  0
  4 13  1  0  0  0  0
  5  7  1  0  0  0  0
  5  8  2  0  0  0  0
  6  4  1  0  0  0  0
  6 12  1  0  0  0  0
  7 10  2  0  0  0  0
  8  4  1  0  0  0  0
  9 11  2  0  0  0  0
 10 19  1  0  0  0  0
 10  1  1  0  0  0  0
 11  8  1  0  0  0  0
 12  2  1  0  0  0  0
 13 15  1  0  0  0  0
 14  3  2  0  0  0  0
 14  9  1  0  0  0  0
 15 20  1  1  0  0  0
 15 24  1  0  0  0  0
 16 14  1  0  0  0  0
 17 16  1  0  0  0  0
 18 19  1  0  0  0  0
 20 21  1  0  0  0  0
 21 23  1  0  0  0  0
 23 22  3  0  0  0  0
 24 25  1  0  0  0  0
 25 26  1  0  0  0  0
 26 28  1  0  0  0  0
 27 28  1  0  0  0  0
 29  6  1  0  0  0  0
 30 29  1  0  0  0  0
 31 32  1  0  0  0  0
 32 30  1  0  0  0  0
 32 33  2  0  0  0  0
 35 36  2  0  0  0  0
 36 33  1  0  0  0  0
 36 34  1  0  0  0  0
 37 31  2  0  0  0  0
 37 35  1  0  0  0  0
M  END
>  <MODEL>
4

>  <REMARK>
 VINA RESULT:      -5.0      6.277      8.840
  Name = 
  12 active torsions:
  status: ('A' for Active; 'I' for Inactive)
    1  A    between atoms: C_1  and  N_5
    2  A    between atoms: C_1  and  C_36
    3  A    between atoms: O_3  and  C_32
    4  A    between atoms: N_5  and  C_23
    5  A    between atoms: C_6  and  C_31
    6  A    between atoms: N_14  and  C_37
    7  A    between atoms: C_17  and  C_26
    8  A    between atoms: C_17  and  O_33
    9  A    between atoms: C_24  and  O_28
   10  A    between atoms: C_26  and  O_34
   11  A    between atoms: C_31  and  C_37
   12  A    between atoms: O_33  and  C_36
                            x       y       z     vdW  Elec       q    Type
                         _______ _______ _______ _____ _____    ______ ____

>  <TORSDO>
F 12

$$$$
=
 OpenBabel11052415273D

 37 40  0  0  1  0  0  0  0  0999 V2000
  188.5780  174.7900  137.9500 C   0  0  0  0  0  2  0  0  0  0  0  0
  188.7820  178.9280  137.7030 C   0  0  0  0  0  2  0  0  0  0  0  0
  192.0740  173.8860  135.7660 C   0  0  0  0  0  3  0  0  0  0  0  0
  189.4420  176.0050  137.5630 C   0  0  1  0  0  0  0  0  0  0  0  0
  190.8780  174.2860  136.3650 C   0  0  0  0  0  0  0  0  0  0  0  0
  189.5620  176.8650  138.7750 N   0  0  0  0  0  0  0  0  0  0  0  0
  189.7340  173.4290  136.2900 N   0  0  0  0  0  0  0  0  0  0  0  0
  190.7880  175.5410  137.0010 C   0  0  0  0  0  0  0  0  0  0  0  0
  193.1010  175.9840  136.3870 C   0  0  0  0  0  3  0  0  0  0  0  0
  188.6450  173.6520  136.9610 C   0  0  0  0  0  0  0  0  0  0  0  0
  191.9050  176.3930  136.9790 C   0  0  0  0  0  3  0  0  0  0  0  0
  189.9380  178.2310  138.4230 C   0  0  0  0  0  2  0  0  0  0  0  0
  188.7070  176.7530  136.4250 C   0  0  0  0  0  2  0  0  0  0  0  0
  193.1960  174.7280  135.7820 C   0  0  0  0  0  0  0  0  0  0  0  0
  187.8830  177.9720  136.8800 C   0  0  1  0  0  0  0  0  0  0  0  0
  194.4090  174.3470  135.2010 O   0  0  0  0  0  0  0  0  0  0  0  0
  195.6120  175.0800  135.3850 C   0  0  0  0  0  1  0  0  0  0  0  0
  187.1660  172.3040  135.5190 C   0  0  0  0  0  1  0  0  0  0  0  0
  187.5640  172.7850  136.7950 O   0  0  0  0  0  0  0  0  0  0  0  0
  186.7110  177.4880  137.7580 C   0  0  0  0  0  2  0  0  0  0  0  0
  185.9590  178.6120  138.2920 N   0  0  0  0  0  2  0  0  0  0  0  0
  185.6200  178.8570  140.8630 C   0  0  0  0  0  3  0  0  0  0  0  0
  185.7770  178.7430  139.6730 C   0  0  0  0  0  0  0  0  0  0  0  0
  187.4150  178.6150  135.7040 O   0  0  0  0  0  0  0  0  0  0  0  0
  187.1280  177.6650  134.7060 C   0  0  0  0  0  2  0  0  0  0  0  0
  185.6280  177.4900  134.5940 C   0  0  0  0  0  2  0  0  0  0  0  0
  184.2100  176.0540  135.4780 C   0  0  0  0  0  1  0  0  0  0  0  0
  185.3140  176.1330  134.6310 O   0  0  0  0  0  0  0  0  0  0  0  0
  190.5360  176.3540  139.7380 C   0  0  0  0  0  2  0  0  0  0  0  0
  190.9510  177.4600  140.6910 C   0  0  0  0  0  2  0  0  0  0  0  0
  188.9620  177.1440  142.1760 C   0  0  0  0  0  3  0  0  0  0  0  0
  190.3520  177.2220  142.0320 C   0  0  0  0  0  0  0  0  0  0  0  0
  191.1770  177.1090  143.1560 C   0  0  0  0  0  3  0  0  0  0  0  0
  191.6490  176.7660  145.8240 Cl  0  0  0  0  0  0  0  0  0  0  0  0
  189.2260  176.8250  144.5620 C   0  0  0  0  0  3  0  0  0  0  0  0
  190.6150  176.9080  144.4190 C   0  0  0  0  0  0  0  0  0  0  0  0
  188.3990  176.9430  143.4400 C   0  0  0  0  0  3  0  0  0  0  0  0
  2 12  1  0  0  0  0
  3 14  2  0  0  0  0
  3  5  1  0  0  0  0
  4 13  1  6  0  0  0
  4  1  1  0  0  0  0
  4  6  1  0  0  0  0
  5  8  2  0  0  0  0
  6 29  1  0  0  0  0
  7  5  1  0  0  0  0
  7 10  2  0  0  0  0
  8  4  1  0  0  0  0
  9 11  2  0  0  0  0
 10  1  1  0  0  0  0
 11  8  1  0  0  0  0
 12  6  1  0  0  0  0
 13 15  1  0  0  0  0
 14  9  1  0  0  0  0
 15  2  1  0  0  0  0
 15 20  1  1  0  0  0
 16 17  1  0  0  0  0
 16 14  1  0  0  0  0
 18 19  1  0  0  0  0
 19 10  1  0  0  0  0
 20 21  1  0  0  0  0
 21 23  1  0  0  0  0
 23 22  3  0  0  0  0
 24 15  1  0  0  0  0
 25 24  1  0  0  0  0
 26 28  1  0  0  0  0
 26 25  1  0  0  0  0
 28 27  1  0  0  0  0
 29 30  1  0  0  0  0
 30 32  1  0  0  0  0
 31 37  1  0  0  0  0
 32 31  2  0  0  0  0
 32 33  1  0  0  0  0
 33 36  2  0  0  0  0
 36 35  1  0  0  0  0
 36 34  1  0  0  0  0
 37 35  2  0  0  0  0
M  END
>  <MODEL>
5

>  <REMARK>
 VINA RESULT:      -4.8      6.148      9.971
  Name = 
  12 active torsions:
  status: ('A' for Active; 'I' for Inactive)
    1  A    between atoms: C_1  and  N_5
    2  A    between atoms: C_1  and  C_36
    3  A    between atoms: O_3  and  C_32
    4  A    between atoms: N_5  and  C_23
    5  A    between atoms: C_6  and  C_31
    6  A    between atoms: N_14  and  C_37
    7  A    between atoms: C_17  and  C_26
    8  A    between atoms: C_17  and  O_33
    9  A    between atoms: C_24  and  O_28
   10  A    between atoms: C_26  and  O_34
   11  A    between atoms: C_31  and  C_37
   12  A    between atoms: O_33  and  C_36
                            x       y       z     vdW  Elec       q    Type
                         _______ _______ _______ _____ _____    ______ ____

>  <TORSDO>
F 12

$$$$
=
 OpenBabel11052415273D

 37 40  0  0  1  0  0  0  0  0999 V2000
  181.0870  179.4820  139.9850 C   0  0  0  0  0  2  0  0  0  0  0  0
  182.4000  175.6460  139.0990 C   0  0  0  0  0  2  0  0  0  0  0  0
  182.5950  179.7380  143.9190 C   0  0  0  0  0  3  0  0  0  0  0  0
  181.9750  178.3030  140.4250 C   0  0  1  0  0  0  0  0  0  0  0  0
  182.0350  179.5070  142.6600 C   0  0  0  0  0  0  0  0  0  0  0  0
  182.9300  178.0300  139.3120 N   0  0  0  0  0  0  0  0  0  0  0  0
  180.8020  180.1450  142.3140 N   0  0  0  0  0  0  0  0  0  0  0  0
  182.6570  178.6210  141.7570 C   0  0  0  0  0  0  0  0  0  0  0  0
  184.3810  178.1860  143.4210 C   0  0  0  0  0  3  0  0  0  0  0  0
  180.3090  180.1150  141.1120 C   0  0  0  0  0  0  0  0  0  0  0  0
  183.8190  177.9450  142.1660 C   0  0  0  0  0  3  0  0  0  0  0  0
  183.4830  176.6820  139.4040 C   0  0  0  0  0  2  0  0  0  0  0  0
  181.0470  177.0880  140.6670 C   0  0  0  0  0  2  0  0  0  0  0  0
  183.7770  179.0870  144.3020 C   0  0  0  0  0  0  0  0  0  0  0  0
  180.9710  176.0900  139.4960 C   0  0  1  0  0  0  0  0  0  0  0  0
  184.3660  179.3090  145.5500 O   0  0  0  0  0  0  0  0  0  0  0  0
  185.5140  178.5990  145.9950 C   0  0  0  0  0  1  0  0  0  0  0  0
  178.9320  181.7970  139.9470 C   0  0  0  0  0  1  0  0  0  0  0  0
  179.0790  180.7310  140.8740 O   0  0  0  0  0  0  0  0  0  0  0  0
  180.2960  176.7790  138.2920 C   0  0  0  0  0  2  0  0  0  0  0  0
  181.0400  176.5370  137.0660 N   0  0  0  0  0  2  0  0  0  0  0  0
  181.5270  178.4970  135.4210 C   0  0  0  0  0  3  0  0  0  0  0  0
  181.3010  177.5900  136.1830 C   0  0  0  0  0  0  0  0  0  0  0  0
  180.2100  174.9810  139.9480 O   0  0  0  0  0  0  0  0  0  0  0  0
  179.0740  174.8010  139.1360 C   0  0  0  0  0  2  0  0  0  0  0  0
  179.0340  173.3730  138.6350 C   0  0  0  0  0  2  0  0  0  0  0  0
  179.9300  171.9070  137.2550 C   0  0  0  0  0  1  0  0  0  0  0  0
  180.2030  173.0960  137.9290 O   0  0  0  0  0  0  0  0  0  0  0  0
  184.0400  178.9810  139.2730 C   0  0  0  0  0  2  0  0  0  0  0  0
  185.1090  178.4900  138.3130 C   0  0  0  0  0  2  0  0  0  0  0  0
  186.4840  178.6350  140.3980 C   0  0  0  0  0  3  0  0  0  0  0  0
  186.3950  178.3120  139.0390 C   0  0  0  0  0  0  0  0  0  0  0  0
  187.5260  177.8540  138.3550 C   0  0  0  0  0  3  0  0  0  0  0  0
  190.1540  177.1340  138.1720 Cl  0  0  0  0  0  0  0  0  0  0  0  0
  188.8290  178.0250  140.3890 C   0  0  0  0  0  3  0  0  0  0  0  0
  188.7410  177.7080  139.0290 C   0  0  0  0  0  0  0  0  0  0  0  0
  187.7000  178.4890  141.0740 C   0  0  0  0  0  3  0  0  0  0  0  0
  1 10  1  0  0  0  0
  2 12  1  0  0  0  0
  2 15  1  0  0  0  0
  3 14  1  0  0  0  0
  4  1  1  6  0  0  0
  4 13  1  0  0  0  0
  4  8  1  0  0  0  0
  5  3  2  0  0  0  0
  6 12  1  0  0  0  0
  6  4  1  0  0  0  0
  7  5  1  0  0  0  0
  8 11  2  0  0  0  0
  8  5  1  0  0  0  0
  9 14  2  0  0  0  0
 10  7  2  0  0  0  0
 11  9  1  0  0  0  0
 14 16  1  0  0  0  0
 15 20  1  6  0  0  0
 15 24  1  0  0  0  0
 15 13  1  0  0  0  0
 16 17  1  0  0  0  0
 18 19  1  0  0  0  0
 19 10  1  0  0  0  0
 21 20  1  0  0  0  0
 22 23  3  0  0  0  0
 23 21  1  0  0  0  0
 25 24  1  0  0  0  0
 26 25  1  0  0  0  0
 27 28  1  0  0  0  0
 28 26  1  0  0  0  0
 29  6  1  0  0  0  0
 30 32  1  0  0  0  0
 30 29  1  0  0  0  0
 31 37  1  0  0  0  0
 32 31  2  0  0  0  0
 33 36  2  0  0  0  0
 33 32  1  0  0  0  0
 34 36  1  0  0  0  0
 35 37  2  0  0  0  0
 36 35  1  0  0  0  0
M  END
>  <MODEL>
6

>  <REMARK>
 VINA RESULT:      -4.7      3.627      7.072
  Name = 
  12 active torsions:
  status: ('A' for Active; 'I' for Inactive)
    1  A    between atoms: C_1  and  N_5
    2  A    between atoms: C_1  and  C_36
    3  A    between atoms: O_3  and  C_32
    4  A    between atoms: N_5  and  C_23
    5  A    between atoms: C_6  and  C_31
    6  A    between atoms: N_14  and  C_37
    7  A    between atoms: C_17  and  C_26
    8  A    between atoms: C_17  and  O_33
    9  A    between atoms: C_24  and  O_28
   10  A    between atoms: C_26  and  O_34
   11  A    between atoms: C_31  and  C_37
   12  A    between atoms: O_33  and  C_36
                            x       y       z     vdW  Elec       q    Type
                         _______ _______ _______ _____ _____    ______ ____

>  <TORSDO>
F 12

$$$$
=
 OpenBabel11052415273D

 37 40  0  0  1  0  0  0  0  0999 V2000
  182.9460  177.6150  139.6740 C   0  0  0  0  0  2  0  0  0  0  0  0
  181.8790  175.7820  136.1070 C   0  0  0  0  0  2  0  0  0  0  0  0
  182.1840  181.6110  138.5460 C   0  0  0  0  0  3  0  0  0  0  0  0
  182.2780  177.7920  138.2980 C   0  0  1  0  0  0  0  0  0  0  0  0
  182.5190  180.2740  138.7780 C   0  0  0  0  0  0  0  0  0  0  0  0
  181.1640  176.8040  138.2180 N   0  0  0  0  0  0  0  0  0  0  0  0
  183.5950  179.9650  139.6690 N   0  0  0  0  0  0  0  0  0  0  0  0
  181.8300  179.2430  138.1080 C   0  0  0  0  0  0  0  0  0  0  0  0
  180.5010  180.9240  136.9530 C   0  0  0  0  0  3  0  0  0  0  0  0
  183.8550  178.7560  140.0640 C   0  0  0  0  0  0  0  0  0  0  0  0
  180.8380  179.5870  137.1740 C   0  0  0  0  0  3  0  0  0  0  0  0
  180.7740  176.5520  136.8330 C   0  0  0  0  0  2  0  0  0  0  0  0
  183.3510  177.5020  137.2210 C   0  0  0  0  0  2  0  0  0  0  0  0
  181.1660  181.9420  137.6400 C   0  0  0  0  0  0  0  0  0  0  0  0
  183.3060  176.0810  136.6290 C   0  0  1  0  0  0  0  0  0  0  0  0
  180.8030  183.2700  137.3980 O   0  0  0  0  0  0  0  0  0  0  0  0
  179.5170  183.7840  137.7180 C   0  0  0  0  0  1  0  0  0  0  0  0
  185.0230  179.0910  142.2100 C   0  0  0  0  0  1  0  0  0  0  0  0
  184.9500  178.5420  140.9020 O   0  0  0  0  0  0  0  0  0  0  0  0
  183.6710  175.0650  137.7320 C   0  0  0  0  0  2  0  0  0  0  0  0
  183.2130  173.7300  137.3850 N   0  0  0  0  0  2  0  0  0  0  0  0
  184.8960  171.9660  136.4670 C   0  0  0  0  0  3  0  0  0  0  0  0
  184.1170  172.7830  136.8930 C   0  0  0  0  0  0  0  0  0  0  0  0
  184.2440  176.0470  135.5650 O   0  0  0  0  0  0  0  0  0  0  0  0
  185.2030  177.0660  135.7240 C   0  0  0  0  0  2  0  0  0  0  0  0
  186.5860  176.4980  135.4830 C   0  0  0  0  0  2  0  0  0  0  0  0
  187.4950  175.4950  137.2220 C   0  0  0  0  0  1  0  0  0  0  0  0
  186.6940  175.2570  136.1070 O   0  0  0  0  0  0  0  0  0  0  0  0
  179.9770  177.2290  138.9590 C   0  0  0  0  0  2  0  0  0  0  0  0
  180.1000  176.8160  140.4140 C   0  0  0  0  0  2  0  0  0  0  0  0
  180.0680  177.8800  142.6780 C   0  0  0  0  0  3  0  0  0  0  0  0
  179.9200  178.0030  141.2920 C   0  0  0  0  0  0  0  0  0  0  0  0
  179.5700  179.2370  140.7340 C   0  0  0  0  0  3  0  0  0  0  0  0
  178.9400  181.8920  140.8600 Cl  0  0  0  0  0  0  0  0  0  0  0  0
  179.5310  180.2280  142.9450 C   0  0  0  0  0  3  0  0  0  0  0  0
  179.3780  180.3490  141.5590 C   0  0  0  0  0  0  0  0  0  0  0  0
  179.8770  178.9930  143.5040 C   0  0  0  0  0  3  0  0  0  0  0  0
  1 10  1  0  0  0  0
  2 15  1  0  0  0  0
  2 12  1  0  0  0  0
  3  5  1  0  0  0  0
  4 13  1  6  0  0  0
  4  1  1  0  0  0  0
  5  7  1  0  0  0  0
  6  4  1  0  0  0  0
  6 29  1  0  0  0  0
  7 10  2  0  0  0  0
  8  4  1  0  0  0  0
  8  5  2  0  0  0  0
  9 11  2  0  0  0  0
  9 14  1  0  0  0  0
 10 19  1  0  0  0  0
 11  8  1  0  0  0  0
 12  6  1  0  0  0  0
 14  3  2  0  0  0  0
 15 13  1  0  0  0  0
 15 20  1  1  0  0  0
 16 14  1  0  0  0  0
 16 17  1  0  0  0  0
 19 18  1  0  0  0  0
 21 20  1  0  0  0  0
 22 23  3  0  0  0  0
 23 21  1  0  0  0  0
 24 25  1  0  0  0  0
 24 15  1  0  0  0  0
 26 25  1  0  0  0  0
 26 28  1  0  0  0  0
 28 27  1  0  0  0  0
 29 30  1  0  0  0  0
 30 32  1  0  0  0  0
 31 37  1  0  0  0  0
 32 31  2  0  0  0  0
 33 32  1  0  0  0  0
 33 36  2  0  0  0  0
 34 36  1  0  0  0  0
 35 37  2  0  0  0  0
 36 35  1  0  0  0  0
M  END
>  <MODEL>
7

>  <REMARK>
 VINA RESULT:      -4.7      2.334      6.256
  Name = 
  12 active torsions:
  status: ('A' for Active; 'I' for Inactive)
    1  A    between atoms: C_1  and  N_5
    2  A    between atoms: C_1  and  C_36
    3  A    between atoms: O_3  and  C_32
    4  A    between atoms: N_5  and  C_23
    5  A    between atoms: C_6  and  C_31
    6  A    between atoms: N_14  and  C_37
    7  A    between atoms: C_17  and  C_26
    8  A    between atoms: C_17  and  O_33
    9  A    between atoms: C_24  and  O_28
   10  A    between atoms: C_26  and  O_34
   11  A    between atoms: C_31  and  C_37
   12  A    between atoms: O_33  and  C_36
                            x       y       z     vdW  Elec       q    Type
                         _______ _______ _______ _____ _____    ______ ____

>  <TORSDO>
F 12

$$$$
=
 OpenBabel11052415273D

 37 40  0  0  1  0  0  0  0  0999 V2000
  181.1650  177.8500  139.2660 C   0  0  0  0  0  2  0  0  0  0  0  0
  183.3280  177.3180  135.7640 C   0  0  0  0  0  2  0  0  0  0  0  0
  180.3140  181.9600  138.8270 C   0  0  0  0  0  3  0  0  0  0  0  0
  181.5840  178.4650  137.9170 C   0  0  1  0  0  0  0  0  0  0  0  0
  180.7520  180.6380  138.9370 C   0  0  0  0  0  0  0  0  0  0  0  0
  181.1380  177.5280  136.8470 N   0  0  0  0  0  0  0  0  0  0  0  0
  180.9770  180.0790  140.2340 N   0  0  0  0  0  0  0  0  0  0  0  0
  181.0090  179.8770  137.7780 C   0  0  0  0  0  0  0  0  0  0  0  0
  180.4130  181.8050  136.4170 C   0  0  0  0  0  3  0  0  0  0  0  0
  181.2190  178.8170  140.4230 C   0  0  0  0  0  0  0  0  0  0  0  0
  180.8600  180.4870  136.5210 C   0  0  0  0  0  3  0  0  0  0  0  0
  181.8700  177.7540  135.6040 C   0  0  0  0  0  2  0  0  0  0  0  0
  183.1250  178.6010  137.9270 C   0  0  0  0  0  2  0  0  0  0  0  0
  180.1330  182.5480  137.5660 C   0  0  0  0  0  0  0  0  0  0  0  0
  183.8780  177.4690  137.2040 C   0  0  1  0  0  0  0  0  0  0  0  0
  179.6850  183.8650  137.4280 O   0  0  0  0  0  0  0  0  0  0  0  0
  180.5030  184.9040  136.9080 C   0  0  0  0  0  1  0  0  0  0  0  0
  181.4990  179.2460  142.8360 C   0  0  0  0  0  1  0  0  0  0  0  0
  181.4670  178.3670  141.7200 O   0  0  0  0  0  0  0  0  0  0  0  0
  183.6640  176.1500  137.9740 C   0  0  0  0  0  2  0  0  0  0  0  0
  183.7630  175.0030  137.0850 N   0  0  0  0  0  2  0  0  0  0  0  0
  185.3170  173.0050  137.6950 C   0  0  0  0  0  3  0  0  0  0  0  0
  184.5980  173.9300  137.4130 C   0  0  0  0  0  0  0  0  0  0  0  0
  185.2490  177.8350  137.1790 O   0  0  0  0  0  0  0  0  0  0  0  0
  185.6680  178.2530  138.4570 C   0  0  0  0  0  2  0  0  0  0  0  0
  187.1470  177.9720  138.6190 C   0  0  0  0  0  2  0  0  0  0  0  0
  189.2110  178.5670  138.1270 C   0  0  0  0  0  1  0  0  0  0  0  0
  187.8800  178.9250  137.9150 O   0  0  0  0  0  0  0  0  0  0  0  0
  179.7080  177.6310  136.5630 C   0  0  0  0  0  2  0  0  0  0  0  0
  179.2170  176.3530  135.9060 C   0  0  0  0  0  2  0  0  0  0  0  0
  178.9310  175.1320  138.0710 C   0  0  0  0  0  3  0  0  0  0  0  0
  179.4960  175.1910  136.7920 C   0  0  0  0  0  0  0  0  0  0  0  0
  180.3510  174.1720  136.3600 C   0  0  0  0  0  3  0  0  0  0  0  0
  181.7030  171.8170  136.6570 Cl  0  0  0  0  0  0  0  0  0  0  0  0
  180.0630  173.0300  138.4760 C   0  0  0  0  0  3  0  0  0  0  0  0
  180.6330  173.0910  137.2000 C   0  0  0  0  0  0  0  0  0  0  0  0
  179.2120  174.0510  138.9120 C   0  0  0  0  0  3  0  0  0  0  0  0
  1 10  1  0  0  0  0
  2 15  1  0  0  0  0
  3  5  1  0  0  0  0
  4 13  1  6  0  0  0
  4  1  1  0  0  0  0
  5  7  1  0  0  0  0
  6  4  1  0  0  0  0
  7 10  2  0  0  0  0
  8  4  1  0  0  0  0
  8  5  2  0  0  0  0
  9 11  2  0  0  0  0
  9 14  1  0  0  0  0
 10 19  1  0  0  0  0
 11  8  1  0  0  0  0
 12  2  1  0  0  0  0
 12  6  1  0  0  0  0
 14  3  2  0  0  0  0
 15 13  1  0  0  0  0
 15 20  1  1  0  0  0
 16 14  1  0  0  0  0
 17 16  1  0  0  0  0
 19 18  1  0  0  0  0
 21 23  1  0  0  0  0
 21 20  1  0  0  0  0
 23 22  3  0  0  0  0
 24 15  1  0  0  0  0
 24 25  1  0  0  0  0
 25 26  1  0  0  0  0
 28 27  1  0  0  0  0
 28 26  1  0  0  0  0
 29  6  1  0  0  0  0
 30 29  1  0  0  0  0
 30 32  1  0  0  0  0
 31 37  1  0  0  0  0
 32 31  2  0  0  0  0
 33 32  1  0  0  0  0
 33 36  2  0  0  0  0
 34 36  1  0  0  0  0
 35 37  2  0  0  0  0
 36 35  1  0  0  0  0
M  END
>  <MODEL>
8

>  <REMARK>
 VINA RESULT:      -4.6      3.393      7.461
  Name = 
  12 active torsions:
  status: ('A' for Active; 'I' for Inactive)
    1  A    between atoms: C_1  and  N_5
    2  A    between atoms: C_1  and  C_36
    3  A    between atoms: O_3  and  C_32
    4  A    between atoms: N_5  and  C_23
    5  A    between atoms: C_6  and  C_31
    6  A    between atoms: N_14  and  C_37
    7  A    between atoms: C_17  and  C_26
    8  A    between atoms: C_17  and  O_33
    9  A    between atoms: C_24  and  O_28
   10  A    between atoms: C_26  and  O_34
   11  A    between atoms: C_31  and  C_37
   12  A    between atoms: O_33  and  C_36
                            x       y       z     vdW  Elec       q    Type
                         _______ _______ _______ _____ _____    ______ ____

>  <TORSDO>
F 12

$$$$
=
 OpenBabel11052415273D

 37 40  0  0  1  0  0  0  0  0999 V2000
  190.2900  175.2800  135.7230 C   0  0  0  0  0  2  0  0  0  0  0  0
  189.2040  177.4700  139.0770 C   0  0  0  0  0  2  0  0  0  0  0  0
  187.3470  172.2670  135.9960 C   0  0  0  0  0  3  0  0  0  0  0  0
  189.2280  175.4990  136.8160 C   0  0  1  0  0  0  0  0  0  0  0  0
  188.3510  173.2360  136.0640 C   0  0  0  0  0  0  0  0  0  0  0  0
  188.7850  176.9200  136.7250 N   0  0  0  0  0  0  0  0  0  0  0  0
  189.6570  172.9310  135.5650 N   0  0  0  0  0  0  0  0  0  0  0  0
  188.0890  174.4880  136.6590 C   0  0  0  0  0  0  0  0  0  0  0  0
  185.8190  173.7510  137.1370 C   0  0  0  0  0  3  0  0  0  0  0  0
  190.5880  173.8280  135.4400 C   0  0  0  0  0  0  0  0  0  0  0  0
  186.8210  174.7200  137.2170 C   0  0  0  0  0  3  0  0  0  0  0  0
  188.1580  177.3630  137.9670 C   0  0  0  0  0  2  0  0  0  0  0  0
  189.9010  175.2160  138.1810 C   0  0  0  0  0  2  0  0  0  0  0  0
  186.0730  172.5230  136.5220 C   0  0  0  0  0  0  0  0  0  0  0  0
  190.3790  176.4700  138.9370 C   0  0  1  0  0  0  0  0  0  0  0  0
  185.0470  171.5750  136.4560 O   0  0  0  0  0  0  0  0  0  0  0  0
  183.6800  171.9080  136.6570 C   0  0  0  0  0  1  0  0  0  0  0  0
  192.6550  172.5070  135.6940 C   0  0  0  0  0  1  0  0  0  0  0  0
  191.8460  173.4320  134.9830 O   0  0  0  0  0  0  0  0  0  0  0  0
  191.5230  177.1320  138.1420 C   0  0  0  0  0  2  0  0  0  0  0  0
  192.7610  176.3840  138.2850 N   0  0  0  0  0  2  0  0  0  0  0  0
  194.2210  175.8560  136.1940 C   0  0  0  0  0  3  0  0  0  0  0  0
  193.5440  176.1000  137.1620 C   0  0  0  0  0  0  0  0  0  0  0  0
  190.8220  176.0380  140.2140 O   0  0  0  0  0  0  0  0  0  0  0  0
  190.1870  176.7780  141.2300 C   0  0  0  0  0  2  0  0  0  0  0  0
  190.2400  176.0000  142.5280 C   0  0  0  0  0  2  0  0  0  0  0  0
  188.3730  177.1380  142.8060 C   0  0  0  0  0  1  0  0  0  0  0  0
  188.9560  175.8970  143.0600 O   0  0  0  0  0  0  0  0  0  0  0  0
  187.8470  177.1510  135.6280 C   0  0  0  0  0  2  0  0  0  0  0  0
  186.7780  178.1380  136.0610 C   0  0  0  0  0  2  0  0  0  0  0  0
  184.9970  176.9900  134.7310 C   0  0  0  0  0  3  0  0  0  0  0  0
  185.4360  177.5060  135.9560 C   0  0  0  0  0  0  0  0  0  0  0  0
  184.5970  177.4570  137.0750 C   0  0  0  0  0  3  0  0  0  0  0  0
  182.2800  176.8220  138.3740 Cl  0  0  0  0  0  0  0  0  0  0  0  0
  182.8900  176.3630  135.7500 C   0  0  0  0  0  3  0  0  0  0  0  0
  183.3270  176.8830  136.9730 C   0  0  0  0  0  0  0  0  0  0  0  0
  183.7250  176.4160  134.6290 C   0  0  0  0  0  3  0  0  0  0  0  0
  3  5  2  0  0  0  0
  3 14  1  0  0  0  0
  4  1  1  6  0  0  0
  4 13  1  0  0  0  0
  5  8  1  0  0  0  0
  6  4  1  0  0  0  0
  6 12  1  0  0  0  0
  7  5  1  0  0  0  0
  8  4  1  0  0  0  0
  8 11  2  0  0  0  0
  9 11  1  0  0  0  0
 10  7  2  0  0  0  0
 10  1  1  0  0  0  0
 12  2  1  0  0  0  0
 13 15  1  0  0  0  0
 14  9  2  0  0  0  0
 15 20  1  6  0  0  0
 15  2  1  0  0  0  0
 15 24  1  0  0  0  0
 16 14  1  0  0  0  0
 16 17  1  0  0  0  0
 19 10  1  0  0  0  0
 19 18  1  0  0  0  0
 20 21  1  0  0  0  0
 22 23  3  0  0  0  0
 23 21  1  0  0  0  0
 24 25  1  0  0  0  0
 25 26  1  0  0  0  0
 26 28  1  0  0  0  0
 27 28  1  0  0  0  0
 29 30  1  0  0  0  0
 29  6  1  0  0  0  0
 31 32  1  0  0  0  0
 32 30  1  0  0  0  0
 32 33  2  0  0  0  0
 35 36  2  0  0  0  0
 36 33  1  0  0  0  0
 36 34  1  0  0  0  0
 37 31  2  0  0  0  0
 37 35  1  0  0  0  0
M  END
>  <MODEL>
9

>  <REMARK>
 VINA RESULT:      -4.6      5.740      9.091
  Name = 
  12 active torsions:
  status: ('A' for Active; 'I' for Inactive)
    1  A    between atoms: C_1  and  N_5
    2  A    between atoms: C_1  and  C_36
    3  A    between atoms: O_3  and  C_32
    4  A    between atoms: N_5  and  C_23
    5  A    between atoms: C_6  and  C_31
    6  A    between atoms: N_14  and  C_37
    7  A    between atoms: C_17  and  C_26
    8  A    between atoms: C_17  and  O_33
    9  A    between atoms: C_24  and  O_28
   10  A    between atoms: C_26  and  O_34
   11  A    between atoms: C_31  and  C_37
   12  A    between atoms: O_33  and  C_36
                            x       y       z     vdW  Elec       q    Type
                         _______ _______ _______ _____ _____    ______ ____

>  <TORSDO>
F 12

$$$$
