=
 OpenBabel11052412533D

 25 28  0  0  1  0  0  0  0  0999 V2000
  187.1570  178.0110  145.7030 C   0  0  0  0  0  0  0  0  0  0  0  0
  188.4790  177.6390  145.3930 C   0  0  0  0  0  0  0  0  0  0  0  0
  187.5990  178.1580  148.0700 C   0  0  0  0  0  3  0  0  0  0  0  0
  186.0420  178.2260  144.9190 C   0  0  1  0  0  3  0  0  0  0  0  0
  189.9350  177.1920  143.3140 C   0  0  0  0  0  0  0  0  0  0  0  0
  183.5190  178.7990  143.9260 C   0  0  0  0  0  3  0  0  0  0  0  0
  188.9210  177.7830  147.8100 C   0  0  0  0  0  3  0  0  0  0  0  0
  185.0260  178.5830  145.7790 C   0  0  0  0  0  0  0  0  0  0  0  0
  183.7470  178.8770  145.3110 C   0  0  0  0  0  3  0  0  0  0  0  0
  190.8620  177.1670  146.3970 C   0  0  1  0  0  3  0  0  0  0  0  0
  191.3110  176.5070  147.5450 O   0  0  0  0  0  1  0  0  0  0  0  0
  188.7760  177.3970  143.9550 C   0  0  0  0  0  3  0  0  0  0  0  0
  184.5610  178.4350  143.0470 C   0  0  0  0  0  3  0  0  0  0  0  0
  186.7330  178.2590  146.9950 C   0  0  0  0  0  0  0  0  0  0  0  0
  185.4300  178.6120  147.0660 N   0  0  0  0  0  0  0  0  0  0  0  0
  191.2430  176.3390  145.1960 C   0  0  0  0  0  2  0  0  0  0  0  0
  185.8440  178.1440  143.5410 C   0  0  0  0  0  3  0  0  0  0  0  0
  191.2500  177.2500  144.0000 C   0  0  0  0  0  2  0  0  0  0  0  0
  189.3850  177.4950  146.5020 C   0  0  0  0  0  0  0  0  0  0  0  0
  189.5360  177.5010  139.5020 N   0  0  0  0  0  0  0  0  0  0  0  0
  188.8810  178.2830  138.4670 C   0  0  0  0  0  1  0  0  0  0  0  0
  190.4360  176.4350  139.0980 C   0  0  0  0  0  1  0  0  0  0  0  0
  189.9580  176.9870  141.8940 N   0  0  0  0  0  2  0  0  0  0  0  0
  188.5120  178.7030  141.2180 O   0  0  0  0  0  0  0  0  0  0  0  0
  189.3040  177.7790  140.8890 C   0  0  0  0  0  0  0  0  0  0  0  0
  1 14  1  0  0  0  0
  2  1  2  0  0  0  0
  2 19  1  0  0  0  0
  4 17  1  6  0  0  0
  4  1  1  0  0  0  0
  4  8  1  0  0  0  0
  5 12  2  0  0  0  0
  5 18  1  0  0  0  0
  6  9  2  0  0  0  0
  7  3  1  0  0  0  0
  8 15  2  0  0  0  0
  9  8  1  0  0  0  0
 10 19  1  0  0  0  0
 10 11  1  1  0  0  0
 12  2  1  0  0  0  0
 13 17  2  0  0  0  0
 13  6  1  0  0  0  0
 14 15  1  0  0  0  0
 14  3  2  0  0  0  0
 16 10  1  0  0  0  0
 18 16  1  0  0  0  0
 19  7  2  0  0  0  0
 20 25  1  0  0  0  0
 21 20  1  0  0  0  0
 22 20  1  0  0  0  0
 23  5  1  0  0  0  0
 25 24  2  0  0  0  0
 25 23  1  0  0  0  0
M  END
>  <MODEL>
1

>  <REMARK>
 VINA RESULT:     -12.2      0.000      0.000
  Name = 
  1 active torsions:
  status: ('A' for Active; 'I' for Inactive)
    1  A    between atoms: C_6  and  N_15
                            x       y       z     vdW  Elec       q    Type
                         _______ _______ _______ _____ _____    ______ ____

>  <TORSDO>
F 1

$$$$
=
 OpenBabel11052412533D

 25 28  0  0  1  0  0  0  0  0999 V2000
  187.4890  177.9280  145.5390 C   0  0  0  0  0  0  0  0  0  0  0  0
  188.7590  177.7140  144.9680 C   0  0  0  0  0  0  0  0  0  0  0  0
  188.2730  177.5300  147.7860 C   0  0  0  0  0  3  0  0  0  0  0  0
  186.2670  178.2620  144.9930 C   0  0  1  0  0  3  0  0  0  0  0  0
  189.9010  177.8580  142.6630 C   0  0  0  0  0  0  0  0  0  0  0  0
  183.6140  178.9150  144.5280 C   0  0  0  0  0  3  0  0  0  0  0  0
  189.5490  177.3010  147.2620 C   0  0  0  0  0  3  0  0  0  0  0  0
  185.3810  178.3470  146.0460 C   0  0  0  0  0  0  0  0  0  0  0  0
  184.0420  178.6730  145.8460 C   0  0  0  0  0  3  0  0  0  0  0  0
  191.2720  177.1490  145.4870 C   0  0  1  0  0  3  0  0  0  0  0  0
  191.8990  176.2610  146.3670 O   0  0  0  0  0  1  0  0  0  0  0  0
  188.8460  177.8400  143.4870 C   0  0  0  0  0  3  0  0  0  0  0  0
  184.5220  178.8290  143.4520 C   0  0  0  0  0  3  0  0  0  0  0  0
  187.2560  177.8370  146.8980 C   0  0  0  0  0  0  0  0  0  0  0  0
  185.9700  178.0900  147.2320 N   0  0  0  0  0  0  0  0  0  0  0  0
  191.4890  176.6540  144.0800 C   0  0  0  0  0  2  0  0  0  0  0  0
  185.8700  178.5000  143.6770 C   0  0  0  0  0  3  0  0  0  0  0  0
  191.3010  177.8240  143.1540 C   0  0  0  0  0  2  0  0  0  0  0  0
  189.8210  177.3610  145.8720 C   0  0  0  0  0  0  0  0  0  0  0  0
  189.6650  177.2950  138.8670 N   0  0  0  0  0  0  0  0  0  0  0  0
  189.9750  176.3370  137.8170 C   0  0  0  0  0  1  0  0  0  0  0  0
  188.9720  178.5190  138.5030 C   0  0  0  0  0  1  0  0  0  0  0  0
  189.7180  177.9990  141.2470 N   0  0  0  0  0  2  0  0  0  0  0  0
  190.6380  175.9700  140.5200 O   0  0  0  0  0  0  0  0  0  0  0  0
  190.0290  177.0340  140.2280 C   0  0  0  0  0  0  0  0  0  0  0  0
  1 14  1  0  0  0  0
  2  1  2  0  0  0  0
  2 19  1  0  0  0  0
  4 17  1  1  0  0  0
  4  1  1  0  0  0  0
  4  8  1  0  0  0  0
  5 18  1  0  0  0  0
  5 12  2  0  0  0  0
  6  9  2  0  0  0  0
  7  3  1  0  0  0  0
  8 15  2  0  0  0  0
  9  8  1  0  0  0  0
 10 19  1  0  0  0  0
 10 11  1  1  0  0  0
 12  2  1  0  0  0  0
 13 17  2  0  0  0  0
 13  6  1  0  0  0  0
 14 15  1  0  0  0  0
 14  3  2  0  0  0  0
 16 10  1  0  0  0  0
 18 16  1  0  0  0  0
 19  7  2  0  0  0  0
 20 25  1  0  0  0  0
 21 20  1  0  0  0  0
 22 20  1  0  0  0  0
 23  5  1  0  0  0  0
 25 24  2  0  0  0  0
 25 23  1  0  0  0  0
M  END
>  <MODEL>
2

>  <REMARK>
 VINA RESULT:     -11.5      1.061      1.269
  Name = 
  1 active torsions:
  status: ('A' for Active; 'I' for Inactive)
    1  A    between atoms: C_6  and  N_15
                            x       y       z     vdW  Elec       q    Type
                         _______ _______ _______ _____ _____    ______ ____

>  <TORSDO>
F 1

$$$$
=
 OpenBabel11052412533D

 25 28  0  0  1  0  0  0  0  0999 V2000
  187.8970  177.6750  145.6220 C   0  0  0  0  0  0  0  0  0  0  0  0
  187.0410  178.0530  144.5690 C   0  0  0  0  0  0  0  0  0  0  0  0
  186.1670  177.8720  147.2920 C   0  0  0  0  0  3  0  0  0  0  0  0
  189.2280  177.3110  145.6550 C   0  0  0  0  0  0  0  0  0  0  0  0
  187.0970  178.2670  142.0010 C   0  0  0  0  0  0  0  0  0  0  0  0
  191.7820  176.5070  146.3690 C   0  0  0  0  0  3  0  0  0  0  0  0
  185.2840  178.2600  146.2790 C   0  0  0  0  0  3  0  0  0  0  0  0
  189.5220  177.0350  146.9730 C   0  0  0  0  0  0  0  0  0  0  0  0
  190.7950  176.6290  147.3650 C   0  0  0  0  0  3  0  0  0  0  0  0
  184.5840  178.7520  143.9530 C   0  0  1  0  0  3  0  0  0  0  0  0
  183.6360  179.5800  144.5620 O   0  0  0  0  0  1  0  0  0  0  0  0
  187.6500  178.1070  143.2110 C   0  0  0  0  0  3  0  0  0  0  0  0
  191.4780  176.7890  145.0210 C   0  0  0  0  0  3  0  0  0  0  0  0
  187.4750  177.5900  146.9350 C   0  0  1  0  0  3  0  0  0  0  0  0
  188.4540  177.1990  147.7810 N   0  0  0  0  0  0  0  0  0  0  0  0
  185.0530  179.4220  142.6870 C   0  0  0  0  0  2  0  0  0  0  0  0
  190.1850  177.1950  144.6480 C   0  0  0  0  0  3  0  0  0  0  0  0
  185.6300  178.3560  141.7970 C   0  0  0  0  0  2  0  0  0  0  0  0
  185.6870  178.3830  144.9260 C   0  0  0  0  0  0  0  0  0  0  0  0
  189.6450  177.4760  139.2330 N   0  0  0  0  0  0  0  0  0  0  0  0
  190.7670  176.6110  138.9050 C   0  0  0  0  0  1  0  0  0  0  0  0
  189.1740  178.4090  138.2240 C   0  0  0  0  0  1  0  0  0  0  0  0
  187.9140  178.2770  140.8220 N   0  0  0  0  0  2  0  0  0  0  0  0
  189.4470  176.5950  141.3830 O   0  0  0  0  0  0  0  0  0  0  0  0
  189.0160  177.4060  140.5180 C   0  0  0  0  0  0  0  0  0  0  0  0
  1  4  2  0  0  0  0
  1 14  1  0  0  0  0
  2 19  2  0  0  0  0
  2  1  1  0  0  0  0
  4  8  1  0  0  0  0
  5 12  2  0  0  0  0
  6  9  2  0  0  0  0
  7  3  2  0  0  0  0
  8  9  1  0  0  0  0
  8 15  2  0  0  0  0
 10 11  1  1  0  0  0
 10 19  1  0  0  0  0
 12  2  1  0  0  0  0
 13  6  1  0  0  0  0
 14  3  1  6  0  0  0
 14 15  1  0  0  0  0
 16 10  1  0  0  0  0
 17 13  2  0  0  0  0
 17  4  1  0  0  0  0
 18  5  1  0  0  0  0
 18 16  1  0  0  0  0
 19  7  1  0  0  0  0
 20 25  1  0  0  0  0
 21 20  1  0  0  0  0
 22 20  1  0  0  0  0
 23  5  1  0  0  0  0
 25 23  1  0  0  0  0
 25 24  2  0  0  0  0
M  END
>  <MODEL>
3

>  <REMARK>
 VINA RESULT:     -10.9      1.852      4.720
  Name = 
  1 active torsions:
  status: ('A' for Active; 'I' for Inactive)
    1  A    between atoms: C_6  and  N_15
                            x       y       z     vdW  Elec       q    Type
                         _______ _______ _______ _____ _____    ______ ____

>  <TORSDO>
F 1

$$$$
=
 OpenBabel11052412533D

 25 28  0  0  1  0  0  0  0  0999 V2000
  189.5410  177.4360  144.1390 C   0  0  0  0  0  0  0  0  0  0  0  0
  188.5440  177.6330  145.1150 C   0  0  0  0  0  0  0  0  0  0  0  0
  191.2290  176.8780  145.7700 C   0  0  0  0  0  3  0  0  0  0  0  0
  189.5250  177.5180  142.7620 C   0  0  0  0  0  0  0  0  0  0  0  0
  186.0200  178.1380  145.2380 C   0  0  0  0  0  0  0  0  0  0  0  0
  190.1290  177.5040  140.0570 C   0  0  0  0  0  3  0  0  0  0  0  0
  190.2730  177.0710  146.7720 C   0  0  0  0  0  3  0  0  0  0  0  0
  190.8000  177.2060  142.3400 C   0  0  0  0  0  0  0  0  0  0  0  0
  191.1360  177.1910  140.9880 C   0  0  0  0  0  2  0  0  0  0  0  0
  188.0250  177.5680  147.6900 C   0  0  1  0  0  3  0  0  0  0  0  0
  188.7320  177.9730  148.8260 O   0  0  0  0  0  1  0  0  0  0  0  0
  187.2000  178.0310  144.6120 C   0  0  0  0  0  3  0  0  0  0  0  0
  188.8250  177.8220  140.4910 C   0  0  0  0  0  3  0  0  0  0  0  0
  190.8360  177.0740  144.4570 C   0  0  0  0  0  0  0  0  0  0  0  0
  191.6260  176.9270  143.3700 N   0  0  0  0  0  0  0  0  0  0  0  0
  186.8460  178.4900  147.5120 C   0  0  0  0  0  2  0  0  0  0  0  0
  188.5080  177.8300  141.8600 C   0  0  0  0  0  3  0  0  0  0  0  0
  185.8330  177.7720  146.6640 C   0  0  0  0  0  2  0  0  0  0  0  0
  188.9430  177.4680  146.4870 C   0  0  0  0  0  0  0  0  0  0  0  0
  183.2810  178.6900  142.5950 N   0  0  0  0  0  0  0  0  0  0  0  0
  182.9740  178.4890  141.1890 C   0  0  0  0  0  1  0  0  0  0  0  0
  182.2570  179.2600  143.4530 C   0  0  0  0  0  1  0  0  0  0  0  0
  184.8470  178.5420  144.5170 N   0  0  0  0  0  2  0  0  0  0  0  0
  185.4410  177.8410  142.3610 O   0  0  0  0  0  0  0  0  0  0  0  0
  184.5630  178.3270  143.1250 C   0  0  0  0  0  0  0  0  0  0  0  0
  1 14  1  0  0  0  0
  1  2  2  0  0  0  0
  2 19  1  0  0  0  0
  3  7  1  0  0  0  0
  4  1  1  0  0  0  0
  5 18  1  0  0  0  0
  6 13  2  0  0  0  0
  6  9  1  0  0  0  0
  8  4  1  0  0  0  0
  8 15  2  0  0  0  0
  9  8  1  0  0  0  0
 10 11  1  1  0  0  0
 12  2  1  0  0  0  0
 12  5  2  0  0  0  0
 13 17  1  0  0  0  0
 14  3  2  0  0  0  0
 15 14  1  0  0  0  0
 16 10  1  0  0  0  0
 17  4  2  0  0  0  0
 18 16  1  0  0  0  0
 19  7  2  0  0  0  0
 19 10  1  0  0  0  0
 20 25  1  0  0  0  0
 20 22  1  0  0  0  0
 21 20  1  0  0  0  0
 23  5  1  0  0  0  0
 24 25  2  0  0  0  0
 25 23  1  0  0  0  0
M  END
>  <MODEL>
4

>  <REMARK>
 VINA RESULT:     -10.2      1.807      5.360
  Name = 
  1 active torsions:
  status: ('A' for Active; 'I' for Inactive)
    1  A    between atoms: C_6  and  N_15
                            x       y       z     vdW  Elec       q    Type
                         _______ _______ _______ _____ _____    ______ ____

>  <TORSDO>
F 1

$$$$
=
 OpenBabel11052412533D

 25 28  0  0  1  0  0  0  0  0999 V2000
  189.1040  177.5720  143.6140 C   0  0  0  0  0  0  0  0  0  0  0  0
  187.8830  177.7980  144.2810 C   0  0  0  0  0  0  0  0  0  0  0  0
  190.3420  177.3020  145.6660 C   0  0  0  0  0  3  0  0  0  0  0  0
  189.4360  177.5130  142.2750 C   0  0  0  0  0  0  0  0  0  0  0  0
  185.3930  178.1360  143.7130 C   0  0  0  0  0  0  0  0  0  0  0  0
  190.7090  177.2670  139.8270 C   0  0  0  0  0  3  0  0  0  0  0  0
  189.1550  177.5290  146.3700 C   0  0  0  0  0  3  0  0  0  0  0  0
  190.7880  177.2490  142.2230 C   0  0  0  0  0  0  0  0  0  0  0  0
  191.4570  177.1200  141.0080 C   0  0  0  0  0  2  0  0  0  0  0  0
  186.7290  177.9580  146.6360 C   0  0  1  0  0  3  0  0  0  0  0  0
  187.1050  178.5250  147.8570 O   0  0  0  0  0  1  0  0  0  0  0  0
  186.6960  178.0480  143.4180 C   0  0  0  0  0  3  0  0  0  0  0  0
  189.3250  177.5350  139.8830 C   0  0  0  0  0  3  0  0  0  0  0  0
  190.2880  177.3350  144.2830 C   0  0  0  0  0  0  0  0  0  0  0  0
  191.3350  177.1340  143.4510 N   0  0  0  0  0  0  0  0  0  0  0  0
  185.5970  178.7730  146.0650 C   0  0  0  0  0  2  0  0  0  0  0  0
  188.6700  177.6600  141.1200 C   0  0  0  0  0  3  0  0  0  0  0  0
  184.8640  177.9050  145.0800 C   0  0  0  0  0  2  0  0  0  0  0  0
  187.9260  177.8000  145.7190 C   0  0  0  0  0  0  0  0  0  0  0  0
  183.5940  179.0500  140.4400 N   0  0  0  0  0  0  0  0  0  0  0  0
  183.7980  179.6720  139.1420 C   0  0  0  0  0  1  0  0  0  0  0  0
  182.2910  178.4800  140.7360 C   0  0  0  0  0  1  0  0  0  0  0  0
  184.4260  178.3820  142.6810 N   0  0  0  0  0  2  0  0  0  0  0  0
  185.7750  179.5030  141.1280 O   0  0  0  0  0  0  0  0  0  0  0  0
  184.6540  178.9950  141.4020 C   0  0  0  0  0  0  0  0  0  0  0  0
  1  2  2  0  0  0  0
  1 14  1  0  0  0  0
  2 19  1  0  0  0  0
  3  7  1  0  0  0  0
  4  1  1  0  0  0  0
  5 18  1  0  0  0  0
  6 13  2  0  0  0  0
  6  9  1  0  0  0  0
  8  4  1  0  0  0  0
  8 15  2  0  0  0  0
  9  8  1  0  0  0  0
 10 11  1  1  0  0  0
 12  5  2  0  0  0  0
 12  2  1  0  0  0  0
 13 17  1  0  0  0  0
 14  3  2  0  0  0  0
 15 14  1  0  0  0  0
 16 10  1  0  0  0  0
 17  4  2  0  0  0  0
 18 16  1  0  0  0  0
 19  7  2  0  0  0  0
 19 10  1  0  0  0  0
 20 22  1  0  0  0  0
 20 25  1  0  0  0  0
 21 20  1  0  0  0  0
 23  5  1  0  0  0  0
 24 25  2  0  0  0  0
 25 23  1  0  0  0  0
M  END
>  <MODEL>
5

>  <REMARK>
 VINA RESULT:      -9.9      2.381      5.360
  Name = 
  1 active torsions:
  status: ('A' for Active; 'I' for Inactive)
    1  A    between atoms: C_6  and  N_15
                            x       y       z     vdW  Elec       q    Type
                         _______ _______ _______ _____ _____    ______ ____

>  <TORSDO>
F 1

$$$$
=
 OpenBabel11052412533D

 25 28  0  0  1  0  0  0  0  0999 V2000
  187.9540  177.7050  143.3710 C   0  0  0  0  0  0  0  0  0  0  0  0
  186.6210  178.0730  143.6410 C   0  0  0  0  0  0  0  0  0  0  0  0
  188.4570  177.2750  145.6910 C   0  0  0  0  0  3  0  0  0  0  0  0
  188.6760  177.6140  142.1980 C   0  0  0  0  0  0  0  0  0  0  0  0
  184.4840  178.7140  142.3520 C   0  0  0  0  0  0  0  0  0  0  0  0
  190.6090  177.2300  140.2500 C   0  0  0  0  0  3  0  0  0  0  0  0
  187.1440  177.6390  146.0060 C   0  0  0  0  0  3  0  0  0  0  0  0
  189.9380  177.1890  142.5520 C   0  0  0  0  0  0  0  0  0  0  0  0
  190.9320  176.9870  141.5970 C   0  0  0  0  0  2  0  0  0  0  0  0
  184.8200  178.3590  145.5330 C   0  0  1  0  0  3  0  0  0  0  0  0
  184.8610  178.8680  146.8350 O   0  0  0  0  0  1  0  0  0  0  0  0
  185.7970  178.4700  142.4670 C   0  0  0  0  0  3  0  0  0  0  0  0
  189.3150  177.6640  139.8910 C   0  0  0  0  0  3  0  0  0  0  0  0
  188.8390  177.3220  144.3610 C   0  0  0  0  0  0  0  0  0  0  0  0
  190.0620  177.0010  143.8830 N   0  0  0  0  0  0  0  0  0  0  0  0
  184.0210  179.3080  144.6780 C   0  0  0  0  0  2  0  0  0  0  0  0
  188.3270  177.8600  140.8710 C   0  0  0  0  0  3  0  0  0  0  0  0
  183.5360  178.5410  143.4790 C   0  0  0  0  0  2  0  0  0  0  0  0
  186.2170  178.0620  145.0220 C   0  0  0  0  0  0  0  0  0  0  0  0
  182.6190  178.7890  138.9900 N   0  0  0  0  0  0  0  0  0  0  0  0
  181.9230  177.9430  138.0340 C   0  0  0  0  0  1  0  0  0  0  0  0
  182.6760  180.2180  138.7360 C   0  0  0  0  0  1  0  0  0  0  0  0
  183.9190  179.0810  141.0850 N   0  0  0  0  0  2  0  0  0  0  0  0
  183.1760  176.9820  140.3550 O   0  0  0  0  0  0  0  0  0  0  0  0
  183.2300  178.2270  140.1580 C   0  0  0  0  0  0  0  0  0  0  0  0
  1  2  2  0  0  0  0
  1 14  1  0  0  0  0
  2 19  1  0  0  0  0
  3  7  1  0  0  0  0
  4  8  1  0  0  0  0
  4  1  1  0  0  0  0
  5 12  2  0  0  0  0
  5 18  1  0  0  0  0
  6  9  1  0  0  0  0
  8 15  2  0  0  0  0
  9  8  1  0  0  0  0
 10 11  1  1  0  0  0
 12  2  1  0  0  0  0
 13  6  2  0  0  0  0
 13 17  1  0  0  0  0
 14  3  2  0  0  0  0
 15 14  1  0  0  0  0
 16 10  1  0  0  0  0
 17  4  2  0  0  0  0
 18 16  1  0  0  0  0
 19 10  1  0  0  0  0
 19  7  2  0  0  0  0
 20 25  1  0  0  0  0
 21 20  1  0  0  0  0
 22 20  1  0  0  0  0
 23  5  1  0  0  0  0
 25 24  2  0  0  0  0
 25 23  1  0  0  0  0
M  END
>  <MODEL>
6

>  <REMARK>
 VINA RESULT:      -9.9      3.168      5.855
  Name = 
  1 active torsions:
  status: ('A' for Active; 'I' for Inactive)
    1  A    between atoms: C_6  and  N_15
                            x       y       z     vdW  Elec       q    Type
                         _______ _______ _______ _____ _____    ______ ____

>  <TORSDO>
F 1

$$$$
=
 OpenBabel11052412533D

 25 28  0  0  1  0  0  0  0  0999 V2000
  189.4040  177.5240  144.4170 C   0  0  0  0  0  0  0  0  0  0  0  0
  189.1100  177.6380  143.0440 C   0  0  0  0  0  0  0  0  0  0  0  0
  191.7300  177.0190  144.0250 C   0  0  0  0  0  3  0  0  0  0  0  0
  188.6300  177.6730  145.5500 C   0  0  1  0  0  3  0  0  0  0  0  0
  187.1280  178.2860  141.5290 C   0  0  0  0  0  0  0  0  0  0  0  0
  187.6480  177.8380  148.1360 C   0  0  0  0  0  3  0  0  0  0  0  0
  191.4820  177.1150  142.6520 C   0  0  0  0  0  3  0  0  0  0  0  0
  189.4670  177.4510  146.6230 C   0  0  0  0  0  0  0  0  0  0  0  0
  189.0050  177.5270  147.9350 C   0  0  0  0  0  3  0  0  0  0  0  0
  190.1210  177.5250  140.6220 C   0  0  1  0  0  3  0  0  0  0  0  0
  191.0450  176.6780  140.0010 O   0  0  0  0  0  1  0  0  0  0  0  0
  187.6980  177.9580  142.6970 C   0  0  0  0  0  2  0  0  0  0  0  0
  186.7930  178.0650  147.0370 C   0  0  0  0  0  3  0  0  0  0  0  0
  190.6670  177.2240  144.8880 C   0  0  0  0  0  0  0  0  0  0  0  0
  190.7310  177.1740  146.2380 N   0  0  0  0  0  0  0  0  0  0  0  0
  188.7620  177.2580  140.0280 C   0  0  0  0  0  2  0  0  0  0  0  0
  187.2820  177.9860  145.7220 C   0  0  0  0  0  3  0  0  0  0  0  0
  187.9090  178.4700  140.2810 C   0  0  0  0  0  2  0  0  0  0  0  0
  190.1940  177.3960  142.1310 C   0  0  0  0  0  0  0  0  0  0  0  0
  183.5360  179.0230  140.3720 N   0  0  0  0  0  0  0  0  0  0  0  0
  182.7460  179.3780  139.2050 C   0  0  0  0  0  1  0  0  0  0  0  0
  182.8450  178.7850  141.6280 C   0  0  0  0  0  1  0  0  0  0  0  0
  185.7210  178.5590  141.4550 N   0  0  0  0  0  0  0  0  0  0  0  0
  185.5420  179.1240  139.1880 O   0  0  0  0  0  0  0  0  0  0  0  0
  184.9610  178.9040  140.2860 C   0  0  0  0  0  0  0  0  0  0  0  0
  1 14  2  0  0  0  0
  1  4  1  0  0  0  0
  2  1  1  0  0  0  0
  3 14  1  0  0  0  0
  4 17  1  1  0  0  0
  4  8  1  0  0  0  0
  5 12  1  0  0  0  0
  7  3  2  0  0  0  0
  8  9  1  0  0  0  0
  9  6  2  0  0  0  0
 10 11  1  6  0  0  0
 10 19  1  0  0  0  0
 12  2  1  0  0  0  0
 13  6  1  0  0  0  0
 14 15  1  0  0  0  0
 15  8  2  0  0  0  0
 16 18  1  0  0  0  0
 16 10  1  0  0  0  0
 17 13  2  0  0  0  0
 18  5  1  0  0  0  0
 19  7  1  0  0  0  0
 19  2  2  0  0  0  0
 20 22  1  0  0  0  0
 21 20  1  0  0  0  0
 23  5  2  0  0  0  0
 24 25  2  0  0  0  0
 25 20  1  0  0  0  0
 25 23  1  0  0  0  0
M  END
>  <MODEL>
7

>  <REMARK>
 VINA RESULT:      -9.7      2.738      5.102
  Name = 
  1 active torsions:
  status: ('A' for Active; 'I' for Inactive)
    1  A    between atoms: C_6  and  N_15
                            x       y       z     vdW  Elec       q    Type
                         _______ _______ _______ _____ _____    ______ ____

>  <TORSDO>
F 1

$$$$
=
 OpenBabel11052412533D

 25 28  0  0  1  0  0  0  0  0999 V2000
  187.7810  177.7360  145.1040 C   0  0  0  0  0  0  0  0  0  0  0  0
  186.8670  178.1060  144.0980 C   0  0  0  0  0  0  0  0  0  0  0  0
  186.1460  177.9380  146.8670 C   0  0  0  0  0  3  0  0  0  0  0  0
  189.1130  177.3760  145.0650 C   0  0  0  0  0  0  0  0  0  0  0  0
  186.7790  178.3050  141.5310 C   0  0  0  0  0  0  0  0  0  0  0  0
  191.7050  176.5840  145.6410 C   0  0  0  0  0  3  0  0  0  0  0  0
  185.2070  178.3170  145.9030 C   0  0  0  0  0  3  0  0  0  0  0  0
  189.4810  177.1080  146.3660 C   0  0  0  0  0  0  0  0  0  0  0  0
  190.7750  176.7090  146.6890 C   0  0  0  0  0  3  0  0  0  0  0  0
  184.3770  178.7940  143.6170 C   0  0  1  0  0  3  0  0  0  0  0  0
  183.4610  179.6220  144.2730 O   0  0  0  0  0  1  0  0  0  0  0  0
  187.3980  178.1530  142.7090 C   0  0  0  0  0  2  0  0  0  0  0  0
  191.3260  176.8570  144.3100 C   0  0  0  0  0  3  0  0  0  0  0  0
  187.4330  177.6570  146.4390 C   0  0  1  0  0  3  0  0  0  0  0  0
  188.4590  177.2740  147.2320 N   0  0  0  0  0  0  0  0  0  0  0  0
  184.7720  179.4570  142.3230 C   0  0  0  0  0  2  0  0  0  0  0  0
  190.0130  177.2580  144.0070 C   0  0  0  0  0  3  0  0  0  0  0  0
  185.3020  178.3880  141.4080 C   0  0  0  0  0  2  0  0  0  0  0  0
  185.5340  178.4330  144.5290 C   0  0  0  0  0  0  0  0  0  0  0  0
  187.9040  178.4210  137.8560 N   0  0  0  0  0  0  0  0  0  0  0  0
  187.4030  178.3910  136.4910 C   0  0  0  0  0  1  0  0  0  0  0  0
  189.3300  178.5970  138.0660 C   0  0  0  0  0  1  0  0  0  0  0  0
  187.5290  178.3110  140.3070 N   0  0  0  0  0  0  0  0  0  0  0  0
  185.7760  178.1250  138.7630 O   0  0  0  0  0  0  0  0  0  0  0  0
  187.0100  178.2850  138.9680 C   0  0  0  0  0  0  0  0  0  0  0  0
  1 14  1  0  0  0  0
  2 19  2  0  0  0  0
  2  1  1  0  0  0  0
  4  1  2  0  0  0  0
  4  8  1  0  0  0  0
  5 12  1  0  0  0  0
  6  9  2  0  0  0  0
  7  3  2  0  0  0  0
  8  9  1  0  0  0  0
  8 15  2  0  0  0  0
 10 11  1  1  0  0  0
 10 19  1  0  0  0  0
 12  2  1  0  0  0  0
 13  6  1  0  0  0  0
 14  3  1  6  0  0  0
 14 15  1  0  0  0  0
 16 10  1  0  0  0  0
 17 13  2  0  0  0  0
 17  4  1  0  0  0  0
 18  5  1  0  0  0  0
 18 16  1  0  0  0  0
 19  7  1  0  0  0  0
 20 22  1  0  0  0  0
 20 25  1  0  0  0  0
 21 20  1  0  0  0  0
 23  5  2  0  0  0  0
 24 25  2  0  0  0  0
 25 23  1  0  0  0  0
M  END
>  <MODEL>
8

>  <REMARK>
 VINA RESULT:      -9.5      2.477      4.894
  Name = 
  1 active torsions:
  status: ('A' for Active; 'I' for Inactive)
    1  A    between atoms: C_6  and  N_15
                            x       y       z     vdW  Elec       q    Type
                         _______ _______ _______ _____ _____    ______ ____

>  <TORSDO>
F 1

$$$$
=
 OpenBabel11052412533D

 25 28  0  0  1  0  0  0  0  0999 V2000
  188.3780  177.5710  144.4600 C   0  0  0  0  0  0  0  0  0  0  0  0
  188.1820  177.7460  143.0750 C   0  0  0  0  0  0  0  0  0  0  0  0
  186.0980  178.1450  145.0010 C   0  0  0  0  0  3  0  0  0  0  0  0
  189.4760  177.1910  145.2040 C   0  0  0  0  0  0  0  0  0  0  0  0
  189.4840  177.4290  140.8740 C   0  0  0  0  0  0  0  0  0  0  0  0
  191.2600  176.4920  147.2060 C   0  0  0  0  0  3  0  0  0  0  0  0
  185.8600  178.3380  143.6370 C   0  0  0  0  0  3  0  0  0  0  0  0
  189.0680  177.1840  146.5200 C   0  0  0  0  0  0  0  0  0  0  0  0
  189.9400  176.8380  147.5500 C   0  0  0  0  0  3  0  0  0  0  0  0
  186.4220  178.3600  141.2230 C   0  0  1  0  0  3  0  0  0  0  0  0
  185.4060  179.3170  141.1380 O   0  0  0  0  0  1  0  0  0  0  0  0
  189.3670  177.5070  142.2060 C   0  0  0  0  0  3  0  0  0  0  0  0
  191.6740  176.4990  145.8580 C   0  0  0  0  0  3  0  0  0  0  0  0
  187.3720  177.7660  145.3870 C   0  0  1  0  0  3  0  0  0  0  0  0
  187.7730  177.5340  146.6580 N   0  0  0  0  0  0  0  0  0  0  0  0
  187.5160  178.7460  140.2610 C   0  0  0  0  0  2  0  0  0  0  0  0
  190.7770  176.8500  144.8340 C   0  0  0  0  0  3  0  0  0  0  0  0
  188.3160  177.5080  139.9620 C   0  0  0  0  0  2  0  0  0  0  0  0
  186.8730  178.1730  142.6590 C   0  0  0  0  0  0  0  0  0  0  0  0
  192.3550  176.3230  138.5680 N   0  0  0  0  0  0  0  0  0  0  0  0
  192.6560  175.4990  137.4090 C   0  0  0  0  0  1  0  0  0  0  0  0
  193.4270  177.1080  139.1560 C   0  0  0  0  0  1  0  0  0  0  0  0
  190.7600  177.1780  140.2670 N   0  0  0  0  0  2  0  0  0  0  0  0
  190.1170  175.6670  138.5960 O   0  0  0  0  0  0  0  0  0  0  0  0
  191.0310  176.3630  139.1160 C   0  0  0  0  0  0  0  0  0  0  0  0
  1  4  2  0  0  0  0
  1 14  1  0  0  0  0
  2  1  1  0  0  0  0
  4  8  1  0  0  0  0
  5 12  2  0  0  0  0
  6  9  2  0  0  0  0
  7  3  2  0  0  0  0
  8 15  2  0  0  0  0
  8  9  1  0  0  0  0
 10 11  1  1  0  0  0
 10 19  1  0  0  0  0
 12  2  1  0  0  0  0
 13  6  1  0  0  0  0
 14  3  1  6  0  0  0
 14 15  1  0  0  0  0
 16 10  1  0  0  0  0
 17  4  1  0  0  0  0
 17 13  2  0  0  0  0
 18 16  1  0  0  0  0
 18  5  1  0  0  0  0
 19  2  2  0  0  0  0
 19  7  1  0  0  0  0
 20 25  1  0  0  0  0
 20 22  1  0  0  0  0
 21 20  1  0  0  0  0
 23  5  1  0  0  0  0
 24 25  2  0  0  0  0
 25 23  1  0  0  0  0
M  END
>  <MODEL>
9

>  <REMARK>
 VINA RESULT:      -9.5      2.378      4.930
  Name = 
  1 active torsions:
  status: ('A' for Active; 'I' for Inactive)
    1  A    between atoms: C_6  and  N_15
                            x       y       z     vdW  Elec       q    Type
                         _______ _______ _______ _____ _____    ______ ____

>  <TORSDO>
F 1

$$$$
