=
 OpenBabel11052413243D

 28 30  0  0  1  0  0  0  0  0999 V2000
  190.4020  175.7050  143.6820 O   0  0  0  0  0  0  0  0  0  0  0  0
  190.5950  176.9620  143.0930 C   0  0  2  0  0  3  0  0  0  0  0  0
  191.7580  177.0900  145.9180 C   0  0  0  0  0  2  0  0  0  0  0  0
  191.0600  179.3400  143.7690 C   0  0  0  0  0  1  0  0  0  0  0  0
  191.7930  175.5900  145.6210 C   0  0  0  0  0  2  0  0  0  0  0  0
  190.4120  177.7530  145.5730 C   0  0  1  0  0  3  0  0  0  0  0  0
  191.6690  175.3170  144.1300 C   0  0  0  0  0  2  0  0  0  0  0  0
  190.2470  178.0960  144.0840 C   0  0  2  0  0  3  0  0  0  0  0  0
  189.7470  177.0650  141.8150 C   0  0  1  0  0  3  0  0  0  0  0  0
  188.6060  177.8000  139.3080 C   0  0  0  0  0  3  0  0  0  0  0  0
  188.9730  178.3800  141.7360 C   0  0  0  0  0  2  0  0  0  0  0  0
  191.6570  177.8090  140.5390 O   0  0  0  0  0  1  0  0  0  0  0  0
  190.5910  176.9050  140.5370 C   0  0  2  0  0  3  0  0  0  0  0  0
  189.7650  177.1230  139.2960 C   0  0  0  0  0  3  0  0  0  0  0  0
  187.9760  178.3090  140.5810 C   0  0  0  0  0  2  0  0  0  0  0  0
  189.2760  176.9730  146.0530 N   0  0  0  0  0  2  0  0  0  0  0  0
  188.1400  177.5230  148.4170 S   0  0  0  0  0  0  0  0  0  0  0  0
  188.1690  177.5240  146.7790 C   0  0  0  0  0  0  0  0  0  0  0  0
  186.8350  177.9010  144.7700 C   0  0  0  0  0  3  0  0  0  0  0  0
  187.0460  178.1330  146.0610 C   0  0  0  0  0  3  0  0  0  0  0  0
  184.5770  178.8460  145.0600 C   0  0  0  0  0  2  0  0  0  0  0  0
  185.1780  177.5600  143.0010 C   0  0  0  0  0  2  0  0  0  0  0  0
  182.6420  179.1190  143.4310 C   0  0  1  0  0  3  0  0  0  0  0  0
  185.6860  178.5300  144.0600 C   0  0  2  0  0  3  0  0  0  0  0  0
  183.3280  178.9830  142.1010 C   0  0  0  0  0  3  0  0  0  0  0  0
  184.4580  178.2880  141.9070 C   0  0  0  0  0  3  0  0  0  0  0  0
  182.1720  177.8950  143.8780 F   0  0  0  0  0  0  0  0  0  0  0  0
  183.5310  179.7930  144.4760 C   0  0  0  0  0  2  0  0  0  0  0  0
  1  7  1  0  0  0  0
  2  1  1  1  0  0  0
  2  8  1  0  0  0  0
  5  3  1  0  0  0  0
  6  3  1  0  0  0  0
  6 16  1  6  0  0  0
  7  5  1  0  0  0  0
  8  4  1  6  0  0  0
  8  6  1  0  0  0  0
  9 11  1  6  0  0  0
  9  2  1  0  0  0  0
 10 15  1  0  0  0  0
 13 12  1  1  0  0  0
 13  9  1  0  0  0  0
 14 10  2  0  0  0  0
 14 13  1  0  0  0  0
 15 11  1  0  0  0  0
 16 18  1  0  0  0  0
 18 17  2  0  0  0  0
 19 20  2  0  0  0  0
 20 18  1  0  0  0  0
 22 24  1  0  0  0  0
 23 27  1  1  0  0  0
 23 28  1  0  0  0  0
 24 19  1  1  0  0  0
 24 21  1  0  0  0  0
 25 23  1  0  0  0  0
 26 25  2  0  0  0  0
 26 22  1  0  0  0  0
 28 21  1  0  0  0  0
M  END
>  <MODEL>
1

>  <REMARK>
 VINA RESULT:      -8.5      0.000      0.000
  Name = 
  5 active torsions:
  status: ('A' for Active; 'I' for Inactive)
    1  A    between atoms: C_2  and  C_3
    2  A    between atoms: N_5  and  C_20
    3  A    between atoms: N_5  and  C_21
    4  A    between atoms: C_10  and  C_13
    5  A    between atoms: C_20  and  C_25
                            x       y       z     vdW  Elec       q    Type
                         _______ _______ _______ _____ _____    ______ ____

>  <TORSDO>
F 5

$$$$
=
 OpenBabel11052413243D

 28 30  0  0  1  0  0  0  0  0999 V2000
  190.3350  178.6980  143.6300 O   0  0  0  0  0  0  0  0  0  0  0  0
  189.7090  177.5800  144.1970 C   0  0  2  0  0  3  0  0  0  0  0  0
  190.8810  176.7050  141.5120 C   0  0  0  0  0  2  0  0  0  0  0  0
  188.7970  175.3410  143.5050 C   0  0  0  0  0  1  0  0  0  0  0  0
  191.7360  177.9250  141.8570 C   0  0  0  0  0  2  0  0  0  0  0  0
  189.3700  176.9450  141.6900 C   0  0  1  0  0  3  0  0  0  0  0  0
  191.6350  178.2750  143.3330 C   0  0  0  0  0  2  0  0  0  0  0  0
  188.8830  176.8140  143.1410 C   0  0  2  0  0  3  0  0  0  0  0  0
  188.8260  178.0290  145.3730 C   0  0  1  0  0  3  0  0  0  0  0  0
  187.2030  178.1720  147.7130 C   0  0  0  0  0  3  0  0  0  0  0  0
  187.4280  177.4150  145.3170 C   0  0  0  0  0  2  0  0  0  0  0  0
  189.7910  176.3500  146.8140 O   0  0  0  0  0  1  0  0  0  0  0  0
  189.4590  177.7050  146.7390 C   0  0  2  0  0  3  0  0  0  0  0  0
  188.5300  178.0470  147.8760 C   0  0  0  0  0  3  0  0  0  0  0  0
  186.5390  178.0880  146.3600 C   0  0  0  0  0  2  0  0  0  0  0  0
  188.9440  178.2160  141.1140 N   0  0  0  0  0  2  0  0  0  0  0  0
  188.2530  178.0480  138.5300 S   0  0  0  0  0  0  0  0  0  0  0  0
  187.9300  178.3460  140.1080 C   0  0  0  0  0  0  0  0  0  0  0  0
  186.1560  178.6960  141.7480 C   0  0  0  0  0  3  0  0  0  0  0  0
  186.5640  178.7200  140.4840 C   0  0  0  0  0  3  0  0  0  0  0  0
  184.6410  179.2060  143.6240 C   0  0  0  0  0  2  0  0  0  0  0  0
  183.8110  178.0130  141.5890 C   0  0  0  0  0  2  0  0  0  0  0  0
  182.1080  179.0780  143.8290 C   0  0  1  0  0  3  0  0  0  0  0  0
  184.7630  179.0830  142.1080 C   0  0  2  0  0  3  0  0  0  0  0  0
  181.6770  179.0450  142.3900 C   0  0  0  0  0  3  0  0  0  0  0  0
  182.4330  178.5710  141.3900 C   0  0  0  0  0  3  0  0  0  0  0  0
  182.2730  177.7970  144.3300 F   0  0  0  0  0  0  0  0  0  0  0  0
  183.3610  179.9280  144.0400 C   0  0  0  0  0  2  0  0  0  0  0  0
  2  1  1  6  0  0  0
  2  9  1  0  0  0  0
  3  6  1  0  0  0  0
  3  5  1  0  0  0  0
  5  7  1  0  0  0  0
  6 16  1  1  0  0  0
  6  8  1  0  0  0  0
  7  1  1  0  0  0  0
  8  4  1  1  0  0  0
  8  2  1  0  0  0  0
  9 11  1  6  0  0  0
  9 13  1  0  0  0  0
 10 14  2  0  0  0  0
 11 15  1  0  0  0  0
 13 12  1  6  0  0  0
 13 14  1  0  0  0  0
 15 10  1  0  0  0  0
 17 18  2  0  0  0  0
 18 20  1  0  0  0  0
 18 16  1  0  0  0  0
 20 19  2  0  0  0  0
 21 28  1  0  0  0  0
 22 24  1  0  0  0  0
 23 28  1  0  0  0  0
 23 27  1  6  0  0  0
 24 19  1  1  0  0  0
 24 21  1  0  0  0  0
 25 23  1  0  0  0  0
 26 22  1  0  0  0  0
 26 25  2  0  0  0  0
M  END
>  <MODEL>
2

>  <REMARK>
 VINA RESULT:      -7.5      2.679      4.758
  Name = 
  5 active torsions:
  status: ('A' for Active; 'I' for Inactive)
    1  A    between atoms: C_2  and  C_3
    2  A    between atoms: N_5  and  C_20
    3  A    between atoms: N_5  and  C_21
    4  A    between atoms: C_10  and  C_13
    5  A    between atoms: C_20  and  C_25
                            x       y       z     vdW  Elec       q    Type
                         _______ _______ _______ _____ _____    ______ ____

>  <TORSDO>
F 5

$$$$
=
 OpenBabel11052413243D

 28 30  0  0  1  0  0  0  0  0999 V2000
  188.6800  175.4320  137.8610 O   0  0  0  0  0  0  0  0  0  0  0  0
  188.2840  176.6800  137.3630 C   0  0  2  0  0  3  0  0  0  0  0  0
  191.2240  176.9120  138.1690 C   0  0  0  0  0  2  0  0  0  0  0  0
  189.0120  179.0870  137.4310 C   0  0  0  0  0  1  0  0  0  0  0  0
  191.0680  175.4070  137.9440 C   0  0  0  0  0  2  0  0  0  0  0  0
  190.1050  177.5240  139.0300 C   0  0  1  0  0  3  0  0  0  0  0  0
  189.8230  175.0950  137.1280 C   0  0  0  0  0  2  0  0  0  0  0  0
  188.8130  177.8250  138.2550 C   0  0  2  0  0  3  0  0  0  0  0  0
  186.7520  176.7250  137.2540 C   0  0  1  0  0  3  0  0  0  0  0  0
  184.0390  177.4170  136.7130 C   0  0  0  0  0  3  0  0  0  0  0  0
  186.1510  177.9170  137.9990 C   0  0  0  0  0  2  0  0  0  0  0  0
  186.8780  177.8040  135.0980 O   0  0  0  0  0  1  0  0  0  0  0  0
  186.2680  176.7560  135.7920 C   0  0  2  0  0  3  0  0  0  0  0  0
  184.7720  176.9160  135.7060 C   0  0  0  0  0  3  0  0  0  0  0  0
  184.6330  177.7620  138.0570 C   0  0  0  0  0  2  0  0  0  0  0  0
  189.8210  176.7200  140.2150 N   0  0  0  0  0  2  0  0  0  0  0  0
  191.1230  177.4320  142.4460 S   0  0  0  0  0  0  0  0  0  0  0  0
  189.7650  177.2420  141.5490 C   0  0  0  0  0  0  0  0  0  0  0  0
  187.8980  176.9480  143.0940 C   0  0  0  0  0  3  0  0  0  0  0  0
  188.4830  177.6500  142.1280 C   0  0  0  0  0  3  0  0  0  0  0  0
  185.8250  178.2010  142.6370 C   0  0  0  0  0  2  0  0  0  0  0  0
  186.8650  178.2220  144.9100 C   0  0  0  0  0  2  0  0  0  0  0  0
  184.1690  179.3450  144.1920 C   0  0  1  0  0  3  0  0  0  0  0  0
  186.5940  177.3820  143.6700 C   0  0  2  0  0  3  0  0  0  0  0  0
  184.4870  178.7070  145.5150 C   0  0  0  0  0  3  0  0  0  0  0  0
  185.6880  178.2060  145.8380 C   0  0  0  0  0  3  0  0  0  0  0  0
  184.8950  180.5100  144.0120 F   0  0  0  0  0  0  0  0  0  0  0  0
  184.3580  178.3800  143.0220 C   0  0  0  0  0  2  0  0  0  0  0  0
  2  1  1  1  0  0  0
  2  8  1  0  0  0  0
  3  6  1  0  0  0  0
  5  3  1  0  0  0  0
  6 16  1  1  0  0  0
  7  1  1  0  0  0  0
  7  5  1  0  0  0  0
  8  4  1  6  0  0  0
  8  6  1  0  0  0  0
  9  2  1  0  0  0  0
  9 11  1  1  0  0  0
 10 15  1  0  0  0  0
 11 15  1  0  0  0  0
 13 12  1  6  0  0  0
 13  9  1  0  0  0  0
 14 13  1  0  0  0  0
 14 10  2  0  0  0  0
 16 18  1  0  0  0  0
 18 20  1  0  0  0  0
 18 17  2  0  0  0  0
 20 19  2  0  0  0  0
 21 28  1  0  0  0  0
 21 24  1  0  0  0  0
 22 26  1  0  0  0  0
 23 27  1  6  0  0  0
 23 25  1  0  0  0  0
 24 19  1  6  0  0  0
 24 22  1  0  0  0  0
 25 26  2  0  0  0  0
 28 23  1  0  0  0  0
M  END
>  <MODEL>
3

>  <REMARK>
 VINA RESULT:      -7.5      3.367      5.348
  Name = 
  5 active torsions:
  status: ('A' for Active; 'I' for Inactive)
    1  A    between atoms: C_2  and  C_3
    2  A    between atoms: N_5  and  C_20
    3  A    between atoms: N_5  and  C_21
    4  A    between atoms: C_10  and  C_13
    5  A    between atoms: C_20  and  C_25
                            x       y       z     vdW  Elec       q    Type
                         _______ _______ _______ _____ _____    ______ ____

>  <TORSDO>
F 5

$$$$
=
 OpenBabel11052413243D

 28 30  0  0  1  0  0  0  0  0999 V2000
  189.8590  178.7430  143.9820 O   0  0  0  0  0  0  0  0  0  0  0  0
  189.0440  177.6760  144.3820 C   0  0  2  0  0  3  0  0  0  0  0  0
  190.9450  176.6170  142.2340 C   0  0  0  0  0  2  0  0  0  0  0  0
  188.2970  175.4230  143.5500 C   0  0  0  0  0  1  0  0  0  0  0  0
  191.7030  177.8340  142.7660 C   0  0  0  0  0  2  0  0  0  0  0  0
  189.4640  176.9030  141.9250 C   0  0  1  0  0  3  0  0  0  0  0  0
  191.1680  178.2720  144.1210 C   0  0  0  0  0  2  0  0  0  0  0  0
  188.5500  176.8690  143.1600 C   0  0  2  0  0  3  0  0  0  0  0  0
  187.8630  178.2140  145.2050 C   0  0  1  0  0  3  0  0  0  0  0  0
  185.6090  178.5330  146.9220 C   0  0  0  0  0  3  0  0  0  0  0  0
  186.5260  177.6280  144.7530 C   0  0  0  0  0  2  0  0  0  0  0  0
  188.2740  176.6040  146.9550 O   0  0  0  0  0  1  0  0  0  0  0  0
  188.0340  177.9590  146.7140 C   0  0  2  0  0  3  0  0  0  0  0  0
  186.8170  178.3890  147.4910 C   0  0  0  0  0  3  0  0  0  0  0  0
  185.3870  178.3820  145.4370 C   0  0  0  0  0  2  0  0  0  0  0  0
  189.2870  178.1490  141.1850 N   0  0  0  0  0  2  0  0  0  0  0  0
  189.4210  178.0490  138.5110 S   0  0  0  0  0  0  0  0  0  0  0  0
  188.6150  178.2480  139.9230 C   0  0  0  0  0  0  0  0  0  0  0  0
  186.4820  178.8150  140.9650 C   0  0  0  0  0  3  0  0  0  0  0  0
  187.1730  178.5010  139.8740 C   0  0  0  0  0  3  0  0  0  0  0  0
  184.2870  178.1480  141.8660 C   0  0  0  0  0  2  0  0  0  0  0  0
  184.5450  178.8080  139.4680 C   0  0  0  0  0  2  0  0  0  0  0  0
  181.9420  178.3210  140.8940 C   0  0  1  0  0  3  0  0  0  0  0  0
  185.0160  179.0700  140.8920 C   0  0  2  0  0  3  0  0  0  0  0  0
  182.1250  179.3440  139.8080 C   0  0  0  0  0  3  0  0  0  0  0  0
  183.2840  179.5620  139.1710 C   0  0  0  0  0  3  0  0  0  0  0  0
  182.1150  177.0370  140.4040 F   0  0  0  0  0  0  0  0  0  0  0  0
  182.8430  178.5860  142.1000 C   0  0  0  0  0  2  0  0  0  0  0  0
  1  7  1  0  0  0  0
  2  1  1  6  0  0  0
  2  9  1  0  0  0  0
  3  5  1  0  0  0  0
  5  7  1  0  0  0  0
  6 16  1  1  0  0  0
  6  3  1  0  0  0  0
  6  8  1  0  0  0  0
  8  4  1  1  0  0  0
  8  2  1  0  0  0  0
  9 11  1  6  0  0  0
  9 13  1  0  0  0  0
 10 14  2  0  0  0  0
 11 15  1  0  0  0  0
 13 12  1  6  0  0  0
 13 14  1  0  0  0  0
 15 10  1  0  0  0  0
 17 18  2  0  0  0  0
 18 16  1  0  0  0  0
 20 18  1  0  0  0  0
 20 19  2  0  0  0  0
 21 28  1  0  0  0  0
 22 24  1  0  0  0  0
 23 27  1  6  0  0  0
 23 28  1  0  0  0  0
 24 19  1  6  0  0  0
 24 21  1  0  0  0  0
 25 23  1  0  0  0  0
 26 22  1  0  0  0  0
 26 25  2  0  0  0  0
M  END
>  <MODEL>
4

>  <REMARK>
 VINA RESULT:      -7.4      2.809      5.032
  Name = 
  5 active torsions:
  status: ('A' for Active; 'I' for Inactive)
    1  A    between atoms: C_2  and  C_3
    2  A    between atoms: N_5  and  C_20
    3  A    between atoms: N_5  and  C_21
    4  A    between atoms: C_10  and  C_13
    5  A    between atoms: C_20  and  C_25
                            x       y       z     vdW  Elec       q    Type
                         _______ _______ _______ _____ _____    ______ ____

>  <TORSDO>
F 5

$$$$
=
 OpenBabel11052413243D

 28 30  0  0  1  0  0  0  0  0999 V2000
  180.7420  181.3710  139.4980 O   0  0  0  0  0  0  0  0  0  0  0  0
  180.5550  180.9900  138.1630 C   0  0  2  0  0  3  0  0  0  0  0  0
  180.5110  178.4430  139.8540 C   0  0  0  0  0  2  0  0  0  0  0  0
  180.7460  178.9430  136.7130 C   0  0  0  0  0  1  0  0  0  0  0  0
  180.1340  179.5170  140.8750 C   0  0  0  0  0  2  0  0  0  0  0  0
  181.7330  178.8150  138.9940 C   0  0  1  0  0  3  0  0  0  0  0  0
  179.6730  180.7950  140.1930 C   0  0  0  0  0  2  0  0  0  0  0  0
  181.4090  179.7490  137.8180 C   0  0  2  0  0  3  0  0  0  0  0  0
  180.8970  182.1710  137.2400 C   0  0  1  0  0  3  0  0  0  0  0  0
  180.8300  184.4710  135.5560 C   0  0  0  0  0  3  0  0  0  0  0  0
  180.2570  182.0320  135.8590 C   0  0  0  0  0  2  0  0  0  0  0  0
  179.1370  183.5100  138.2080 O   0  0  0  0  0  1  0  0  0  0  0  0
  180.4860  183.5260  137.8460 C   0  0  2  0  0  3  0  0  0  0  0  0
  180.7230  184.6590  136.8810 C   0  0  0  0  0  3  0  0  0  0  0  0
  180.8320  183.0980  134.9280 C   0  0  0  0  0  2  0  0  0  0  0  0
  182.8260  179.3550  139.7970 N   0  0  0  0  0  2  0  0  0  0  0  0
  185.0460  178.4590  138.5920 S   0  0  0  0  0  0  0  0  0  0  0  0
  184.1190  178.7460  139.9120 C   0  0  0  0  0  0  0  0  0  0  0  0
  183.9350  178.5490  142.3380 C   0  0  0  0  0  3  0  0  0  0  0  0
  184.6530  178.3950  141.2300 C   0  0  0  0  0  3  0  0  0  0  0  0
  183.8820  179.0720  144.7460 C   0  0  0  0  0  2  0  0  0  0  0  0
  186.0070  178.3760  143.6290 C   0  0  0  0  0  2  0  0  0  0  0  0
  185.5940  178.7010  146.5900 C   0  0  1  0  0  3  0  0  0  0  0  0
  184.4970  178.1830  143.6690 C   0  0  2  0  0  3  0  0  0  0  0  0
  186.4980  177.6690  145.9780 C   0  0  0  0  0  3  0  0  0  0  0  0
  186.6850  177.5220  144.6590 C   0  0  0  0  0  3  0  0  0  0  0  0
  186.0550  179.9820  146.3380 F   0  0  0  0  0  0  0  0  0  0  0  0
  184.1400  178.5330  146.1520 C   0  0  0  0  0  2  0  0  0  0  0  0
  1  7  1  0  0  0  0
  2  1  1  1  0  0  0
  3  5  1  0  0  0  0
  6 16  1  1  0  0  0
  6  3  1  0  0  0  0
  7  5  1  0  0  0  0
  8  4  1  6  0  0  0
  8  2  1  0  0  0  0
  8  6  1  0  0  0  0
  9 11  1  6  0  0  0
  9 13  1  0  0  0  0
  9  2  1  0  0  0  0
 10 14  2  0  0  0  0
 13 12  1  6  0  0  0
 14 13  1  0  0  0  0
 15 10  1  0  0  0  0
 15 11  1  0  0  0  0
 16 18  1  0  0  0  0
 17 18  2  0  0  0  0
 18 20  1  0  0  0  0
 20 19  2  0  0  0  0
 21 28  1  0  0  0  0
 22 24  1  0  0  0  0
 22 26  1  0  0  0  0
 23 27  1  6  0  0  0
 24 19  1  6  0  0  0
 24 21  1  0  0  0  0
 25 23  1  0  0  0  0
 26 25  2  0  0  0  0
 28 23  1  0  0  0  0
M  END
>  <MODEL>
5

>  <REMARK>
 VINA RESULT:      -7.1      6.172      9.582
  Name = 
  5 active torsions:
  status: ('A' for Active; 'I' for Inactive)
    1  A    between atoms: C_2  and  C_3
    2  A    between atoms: N_5  and  C_20
    3  A    between atoms: N_5  and  C_21
    4  A    between atoms: C_10  and  C_13
    5  A    between atoms: C_20  and  C_25
                            x       y       z     vdW  Elec       q    Type
                         _______ _______ _______ _____ _____    ______ ____

>  <TORSDO>
F 5

$$$$
=
 OpenBabel11052413243D

 28 30  0  0  1  0  0  0  0  0999 V2000
  188.3670  175.3620  137.6530 O   0  0  0  0  0  0  0  0  0  0  0  0
  187.9790  176.6280  137.1950 C   0  0  2  0  0  3  0  0  0  0  0  0
  190.9770  176.7500  137.7820 C   0  0  0  0  0  2  0  0  0  0  0  0
  188.7930  179.0080  137.2290 C   0  0  0  0  0  1  0  0  0  0  0  0
  190.7510  175.2550  137.5570 C   0  0  0  0  0  2  0  0  0  0  0  0
  189.9460  177.3910  138.7290 C   0  0  1  0  0  3  0  0  0  0  0  0
  189.4390  174.9940  136.8340 C   0  0  0  0  0  2  0  0  0  0  0  0
  188.6120  177.7450  138.0550 C   0  0  2  0  0  3  0  0  0  0  0  0
  186.4450  176.7270  137.2010 C   0  0  1  0  0  3  0  0  0  0  0  0
  183.7250  177.5090  136.8560 C   0  0  0  0  0  3  0  0  0  0  0  0
  185.9450  177.9490  137.9720 C   0  0  0  0  0  2  0  0  0  0  0  0
  186.4450  177.7740  135.0260 O   0  0  0  0  0  1  0  0  0  0  0  0
  185.8530  176.7570  135.7800 C   0  0  2  0  0  3  0  0  0  0  0  0
  184.3610  176.9700  135.8040 C   0  0  0  0  0  3  0  0  0  0  0  0
  184.4300  177.8500  138.1460 C   0  0  0  0  0  2  0  0  0  0  0  0
  189.7230  176.5850  139.9250 N   0  0  0  0  0  2  0  0  0  0  0  0
  191.7410  177.5040  141.4310 S   0  0  0  0  0  0  0  0  0  0  0  0
  190.2250  176.9170  141.2270 C   0  0  0  0  0  0  0  0  0  0  0  0
  189.6520  177.3710  143.5560 C   0  0  0  0  0  3  0  0  0  0  0  0
  189.3700  176.7660  142.4070 C   0  0  0  0  0  3  0  0  0  0  0  0
  187.3400  177.6020  144.3770 C   0  0  0  0  0  2  0  0  0  0  0  0
  189.2880  178.0920  145.8660 C   0  0  0  0  0  2  0  0  0  0  0  0
  186.4080  177.9340  146.7200 C   0  0  1  0  0  3  0  0  0  0  0  0
  188.7670  177.2050  144.7430 C   0  0  2  0  0  3  0  0  0  0  0  0
  187.5630  177.5090  147.5820 C   0  0  0  0  0  3  0  0  0  0  0  0
  188.8470  177.5780  147.2040 C   0  0  0  0  0  3  0  0  0  0  0  0
  186.4420  179.2970  146.4760 F   0  0  0  0  0  0  0  0  0  0  0  0
  186.3280  177.1350  145.4200 C   0  0  0  0  0  2  0  0  0  0  0  0
  2  9  1  0  0  0  0
  2  1  1  1  0  0  0
  2  8  1  0  0  0  0
  3  6  1  0  0  0  0
  5  3  1  0  0  0  0
  6 16  1  1  0  0  0
  7  5  1  0  0  0  0
  7  1  1  0  0  0  0
  8  4  1  6  0  0  0
  8  6  1  0  0  0  0
  9 11  1  6  0  0  0
 10 15  1  0  0  0  0
 11 15  1  0  0  0  0
 13 12  1  6  0  0  0
 13 14  1  0  0  0  0
 13  9  1  0  0  0  0
 14 10  2  0  0  0  0
 16 18  1  0  0  0  0
 18 17  2  0  0  0  0
 18 20  1  0  0  0  0
 20 19  2  0  0  0  0
 21 24  1  0  0  0  0
 21 28  1  0  0  0  0
 22 26  1  0  0  0  0
 23 27  1  6  0  0  0
 23 25  1  0  0  0  0
 24 19  1  6  0  0  0
 24 22  1  0  0  0  0
 26 25  2  0  0  0  0
 28 23  1  0  0  0  0
M  END
>  <MODEL>
6

>  <REMARK>
 VINA RESULT:      -7.0      3.631      6.083
  Name = 
  5 active torsions:
  status: ('A' for Active; 'I' for Inactive)
    1  A    between atoms: C_2  and  C_3
    2  A    between atoms: N_5  and  C_20
    3  A    between atoms: N_5  and  C_21
    4  A    between atoms: C_10  and  C_13
    5  A    between atoms: C_20  and  C_25
                            x       y       z     vdW  Elec       q    Type
                         _______ _______ _______ _____ _____    ______ ____

>  <TORSDO>
F 5

$$$$
=
 OpenBabel11052413243D

 28 30  0  0  1  0  0  0  0  0999 V2000
  183.2670  180.2180  139.3680 O   0  0  0  0  0  0  0  0  0  0  0  0
  183.7270  178.9160  139.1280 C   0  0  2  0  0  3  0  0  0  0  0  0
  180.7080  178.7470  139.5840 C   0  0  0  0  0  2  0  0  0  0  0  0
  183.0040  176.5340  139.4860 C   0  0  0  0  0  1  0  0  0  0  0  0
  180.8880  180.2000  139.1440 C   0  0  0  0  0  2  0  0  0  0  0  0
  181.7100  178.3040  140.6650 C   0  0  1  0  0  3  0  0  0  0  0  0
  182.2270  180.4090  138.4520 C   0  0  0  0  0  2  0  0  0  0  0  0
  183.0920  177.9140  140.1170 C   0  0  2  0  0  3  0  0  0  0  0  0
  185.2610  178.8900  139.2210 C   0  0  1  0  0  3  0  0  0  0  0  0
  188.0100  178.1420  139.3440 C   0  0  0  0  0  3  0  0  0  0  0  0
  185.7540  178.1670  140.4740 C   0  0  0  0  0  2  0  0  0  0  0  0
  185.3760  176.9770  137.7540 O   0  0  0  0  0  1  0  0  0  0  0  0
  185.9140  178.2470  137.9840 C   0  0  2  0  0  3  0  0  0  0  0  0
  187.4070  178.1250  138.1440 C   0  0  0  0  0  3  0  0  0  0  0  0
  187.2570  178.3920  140.6280 C   0  0  0  0  0  2  0  0  0  0  0  0
  181.8380  179.2900  141.7340 N   0  0  0  0  0  2  0  0  0  0  0  0
  180.2200  178.5560  143.7400 S   0  0  0  0  0  0  0  0  0  0  0  0
  181.6750  178.9950  143.1270 C   0  0  0  0  0  0  0  0  0  0  0  0
  184.0490  178.7230  143.6270 C   0  0  0  0  0  3  0  0  0  0  0  0
  182.8260  179.0510  144.0320 C   0  0  0  0  0  3  0  0  0  0  0  0
  186.2420  177.7390  144.1710 C   0  0  0  0  0  2  0  0  0  0  0  0
  184.7040  178.5290  145.9770 C   0  0  0  0  0  2  0  0  0  0  0  0
  187.5570  177.6490  146.3470 C   0  0  1  0  0  3  0  0  0  0  0  0
  185.2060  178.7890  144.5630 C   0  0  2  0  0  3  0  0  0  0  0  0
  186.9010  178.7320  147.1560 C   0  0  0  0  0  3  0  0  0  0  0  0
  185.6300  179.1260  146.9930 C   0  0  0  0  0  3  0  0  0  0  0  0
  186.9630  176.4200  146.5840 F   0  0  0  0  0  0  0  0  0  0  0  0
  187.5870  177.9770  144.8540 C   0  0  0  0  0  2  0  0  0  0  0  0
  2  9  1  0  0  0  0
  2  1  1  1  0  0  0
  2  8  1  0  0  0  0
  3  6  1  0  0  0  0
  5  3  1  0  0  0  0
  6 16  1  1  0  0  0
  7  5  1  0  0  0  0
  7  1  1  0  0  0  0
  8  4  1  6  0  0  0
  8  6  1  0  0  0  0
  9 11  1  1  0  0  0
 10 15  1  0  0  0  0
 11 15  1  0  0  0  0
 13 12  1  1  0  0  0
 13 14  1  0  0  0  0
 13  9  1  0  0  0  0
 14 10  2  0  0  0  0
 16 18  1  0  0  0  0
 18 17  2  0  0  0  0
 18 20  1  0  0  0  0
 19 20  2  0  0  0  0
 21 24  1  0  0  0  0
 21 28  1  0  0  0  0
 22 26  1  0  0  0  0
 23 27  1  6  0  0  0
 23 25  1  0  0  0  0
 24 19  1  6  0  0  0
 24 22  1  0  0  0  0
 26 25  2  0  0  0  0
 28 23  1  0  0  0  0
M  END
>  <MODEL>
7

>  <REMARK>
 VINA RESULT:      -6.9      4.047      7.227
  Name = 
  5 active torsions:
  status: ('A' for Active; 'I' for Inactive)
    1  A    between atoms: C_2  and  C_3
    2  A    between atoms: N_5  and  C_20
    3  A    between atoms: N_5  and  C_21
    4  A    between atoms: C_10  and  C_13
    5  A    between atoms: C_20  and  C_25
                            x       y       z     vdW  Elec       q    Type
                         _______ _______ _______ _____ _____    ______ ____

>  <TORSDO>
F 5

$$$$
=
 OpenBabel11052413243D

 28 30  0  0  1  0  0  0  0  0999 V2000
  188.7760  178.9320  138.4020 O   0  0  0  0  0  0  0  0  0  0  0  0
  188.9080  177.5370  138.3930 C   0  0  2  0  0  3  0  0  0  0  0  0
  186.8250  178.2690  136.2780 C   0  0  0  0  0  2  0  0  0  0  0  0
  187.6440  175.5000  137.6310 C   0  0  0  0  0  1  0  0  0  0  0  0
  187.6270  179.5650  136.4050 C   0  0  0  0  0  2  0  0  0  0  0  0
  186.4150  177.6640  137.6320 C   0  0  1  0  0  3  0  0  0  0  0  0
  188.9710  179.3230  137.0730 C   0  0  0  0  0  2  0  0  0  0  0  0
  187.5260  176.8510  138.3160 C   0  0  2  0  0  3  0  0  0  0  0  0
  189.6800  177.0880  139.6440 C   0  0  1  0  0  3  0  0  0  0  0  0
  191.0290  176.9330  142.1510 C   0  0  0  0  0  3  0  0  0  0  0  0
  191.0260  177.7990  139.7810 C   0  0  0  0  0  2  0  0  0  0  0  0
  188.4350  178.6190  141.0330 O   0  0  0  0  0  1  0  0  0  0  0  0
  188.8720  177.2950  140.9380 C   0  0  2  0  0  3  0  0  0  0  0  0
  189.6870  176.9590  142.1610 C   0  0  0  0  0  3  0  0  0  0  0  0
  191.8370  177.1340  140.8920 C   0  0  0  0  0  2  0  0  0  0  0  0
  185.8760  178.6700  138.5430 N   0  0  0  0  0  2  0  0  0  0  0  0
  183.2010  178.7760  138.6720 S   0  0  0  0  0  0  0  0  0  0  0  0
  184.6810  178.4980  139.3170 C   0  0  0  0  0  0  0  0  0  0  0  0
  184.9080  178.8840  141.7170 C   0  0  0  0  0  3  0  0  0  0  0  0
  184.7630  178.0350  140.7050 C   0  0  0  0  0  3  0  0  0  0  0  0
  184.2630  179.3650  144.0470 C   0  0  0  0  0  2  0  0  0  0  0  0
  186.4520  178.2790  143.5170 C   0  0  0  0  0  2  0  0  0  0  0  0
  185.2740  178.6300  146.2620 C   0  0  1  0  0  3  0  0  0  0  0  0
  184.9860  178.3910  143.1210 C   0  0  2  0  0  3  0  0  0  0  0  0
  186.1080  177.4490  145.8520 C   0  0  0  0  0  3  0  0  0  0  0  0
  186.6340  177.2910  144.6290 C   0  0  0  0  0  3  0  0  0  0  0  0
  186.0180  179.7980  146.2420 F   0  0  0  0  0  0  0  0  0  0  0  0
  184.0020  178.7620  145.4250 C   0  0  0  0  0  2  0  0  0  0  0  0
  2  1  1  1  0  0  0
  2  9  1  0  0  0  0
  3  5  1  0  0  0  0
  3  6  1  0  0  0  0
  5  7  1  0  0  0  0
  6  8  1  0  0  0  0
  6 16  1  1  0  0  0
  7  1  1  0  0  0  0
  8  4  1  6  0  0  0
  8  2  1  0  0  0  0
  9 11  1  1  0  0  0
  9 13  1  0  0  0  0
 10 14  2  0  0  0  0
 11 15  1  0  0  0  0
 13 12  1  1  0  0  0
 13 14  1  0  0  0  0
 15 10  1  0  0  0  0
 16 18  1  0  0  0  0
 17 18  2  0  0  0  0
 18 20  1  0  0  0  0
 20 19  2  0  0  0  0
 21 28  1  0  0  0  0
 22 26  1  0  0  0  0
 23 27  1  6  0  0  0
 24 19  1  6  0  0  0
 24 22  1  0  0  0  0
 24 21  1  0  0  0  0
 25 23  1  0  0  0  0
 26 25  2  0  0  0  0
 28 23  1  0  0  0  0
M  END
>  <MODEL>
8

>  <REMARK>
 VINA RESULT:      -6.9      3.449      6.038
  Name = 
  5 active torsions:
  status: ('A' for Active; 'I' for Inactive)
    1  A    between atoms: C_2  and  C_3
    2  A    between atoms: N_5  and  C_20
    3  A    between atoms: N_5  and  C_21
    4  A    between atoms: C_10  and  C_13
    5  A    between atoms: C_20  and  C_25
                            x       y       z     vdW  Elec       q    Type
                         _______ _______ _______ _____ _____    ______ ____

>  <TORSDO>
F 5

$$$$
=
 OpenBabel11052413243D

 28 30  0  0  1  0  0  0  0  0999 V2000
  183.5740  176.5890  138.9990 O   0  0  0  0  0  0  0  0  0  0  0  0
  182.2350  176.9830  139.1150 C   0  0  2  0  0  3  0  0  0  0  0  0
  183.9610  179.4540  139.6290 C   0  0  0  0  0  2  0  0  0  0  0  0
  180.8680  178.8450  140.1120 C   0  0  0  0  0  1  0  0  0  0  0  0
  184.9000  178.5670  138.8100 C   0  0  0  0  0  2  0  0  0  0  0  0
  183.2620  178.7090  140.7810 C   0  0  1  0  0  3  0  0  0  0  0  0
  184.1340  177.4770  138.0750 C   0  0  0  0  0  2  0  0  0  0  0  0
  182.0320  177.8970  140.3450 C   0  0  2  0  0  3  0  0  0  0  0  0
  181.3390  175.7370  139.1980 C   0  0  1  0  0  3  0  0  0  0  0  0
  179.1640  173.8930  139.2180 C   0  0  0  0  0  3  0  0  0  0  0  0
  180.3410  175.8140  140.3530 C   0  0  0  0  0  2  0  0  0  0  0  0
  179.8550  176.6200  137.5120 O   0  0  0  0  0  1  0  0  0  0  0  0
  180.5690  175.4800  137.8900 C   0  0  2  0  0  3  0  0  0  0  0  0
  179.6110  174.3240  138.0270 C   0  0  0  0  0  3  0  0  0  0  0  0
  179.6630  174.4570  140.5260 C   0  0  0  0  0  2  0  0  0  0  0  0
  184.1890  177.8770  141.5400 N   0  0  0  0  0  2  0  0  0  0  0  0
  184.2670  179.3250  143.7940 S   0  0  0  0  0  0  0  0  0  0  0  0
  184.9370  178.3320  142.6760 C   0  0  0  0  0  0  0  0  0  0  0  0
  186.7300  177.3870  144.0360 C   0  0  0  0  0  3  0  0  0  0  0  0
  186.3180  177.8860  142.8750 C   0  0  0  0  0  3  0  0  0  0  0  0
  188.8570  177.8760  145.1810 C   0  0  0  0  0  2  0  0  0  0  0  0
  188.8310  176.9470  142.8600 C   0  0  0  0  0  2  0  0  0  0  0  0
  191.2600  177.2760  144.6030 C   0  0  1  0  0  3  0  0  0  0  0  0
  188.1390  176.9370  144.2160 C   0  0  2  0  0  3  0  0  0  0  0  0
  191.0770  176.1520  143.6220 C   0  0  0  0  0  3  0  0  0  0  0  0
  189.9960  176.0040  142.8440 C   0  0  0  0  0  3  0  0  0  0  0  0
  191.3460  178.4960  143.9540 F   0  0  0  0  0  0  0  0  0  0  0  0
  190.1750  177.2890  145.6800 C   0  0  0  0  0  2  0  0  0  0  0  0
  2  1  1  1  0  0  0
  2  9  1  0  0  0  0
  2  8  1  0  0  0  0
  3  6  1  0  0  0  0
  5  3  1  0  0  0  0
  6 16  1  6  0  0  0
  7  5  1  0  0  0  0
  7  1  1  0  0  0  0
  8  4  1  6  0  0  0
  8  6  1  0  0  0  0
  9 11  1  1  0  0  0
 10 15  1  0  0  0  0
 11 15  1  0  0  0  0
 13 12  1  1  0  0  0
 13 14  1  0  0  0  0
 13  9  1  0  0  0  0
 14 10  2  0  0  0  0
 16 18  1  0  0  0  0
 18 20  1  0  0  0  0
 18 17  2  0  0  0  0
 20 19  2  0  0  0  0
 21 28  1  0  0  0  0
 22 24  1  0  0  0  0
 23 27  1  6  0  0  0
 23 28  1  0  0  0  0
 24 19  1  6  0  0  0
 24 21  1  0  0  0  0
 25 23  1  0  0  0  0
 26 22  1  0  0  0  0
 26 25  2  0  0  0  0
M  END
>  <MODEL>
9

>  <REMARK>
 VINA RESULT:      -6.8      4.971      8.343
  Name = 
  5 active torsions:
  status: ('A' for Active; 'I' for Inactive)
    1  A    between atoms: C_2  and  C_3
    2  A    between atoms: N_5  and  C_20
    3  A    between atoms: N_5  and  C_21
    4  A    between atoms: C_10  and  C_13
    5  A    between atoms: C_20  and  C_25
                            x       y       z     vdW  Elec       q    Type
                         _______ _______ _______ _____ _____    ______ ____

>  <TORSDO>
F 5

$$$$
