=
 OpenBabel11052414193D

 34 38  0  0  1  0  0  0  0  0999 V2000
  182.1360  178.4050  140.4150 N   0  0  0  0  0  0  0  0  0  0  0  0
  183.3360  179.4750  138.6070 C   0  0  2  0  0  3  0  0  0  0  0  0
  181.3840  179.5860  139.9930 C   0  0  1  0  0  3  0  0  0  0  0  0
  181.9230  180.0230  138.6480 C   0  0  1  0  0  3  0  0  0  0  0  0
  183.2760  178.2520  139.5070 C   0  0  2  0  0  3  0  0  0  0  0  0
  184.2500  180.3830  139.1490 O   0  0  0  0  0  1  0  0  0  0  0  0
  181.3360  175.4230  139.6180 C   0  0  2  0  0  3  0  0  0  0  0  0
  181.6070  175.9630  137.2600 C   0  0  2  0  0  3  0  0  0  0  0  0
  183.1200  176.9740  138.6800 C   0  0  2  0  0  3  0  0  0  0  0  0
  179.2730  175.3240  138.0460 C   0  0  0  0  0  2  0  0  0  0  0  0
  180.1470  175.7940  136.8620 C   0  0  0  0  0  2  0  0  0  0  0  0
  183.4120  177.2480  137.2030 C   0  0  0  0  0  2  0  0  0  0  0  0
  181.6900  176.5320  138.6370 C   0  0  2  0  0  3  0  0  0  0  0  0
  180.0440  174.7380  139.2540 C   0  0  2  0  0  3  0  0  0  0  0  0
  180.1200  175.7230  140.2590 O   0  0  0  0  0  0  0  0  0  0  0  0
  182.3200  176.8170  136.4170 O   0  0  0  0  0  0  0  0  0  0  0  0
  181.8400  181.5380  138.4720 C   0  0  0  0  0  2  0  0  0  0  0  0
  180.7950  181.9060  137.4340 C   0  0  0  0  0  2  0  0  0  0  0  0
  179.8510  182.7680  137.9940 O   0  0  0  0  0  1  0  0  0  0  0  0
  182.6800  178.6870  141.7360 C   0  0  0  0  0  2  0  0  0  0  0  0
  184.1170  178.2110  141.8100 C   0  0  0  0  0  2  0  0  0  0  0  0
  185.8150  177.8940  143.5260 C   0  0  0  0  0  3  0  0  0  0  0  0
  184.5970  178.3130  143.2110 C   0  0  0  0  0  3  0  0  0  0  0  0
  188.3470  176.8770  144.4650 O   0  0  0  0  0  0  0  0  0  0  0  0
  186.3130  177.9760  144.8640 N   0  0  0  0  0  0  0  0  0  0  0  0
  187.5640  177.4580  145.2640 C   0  0  0  0  0  0  0  0  0  0  0  0
  189.1020  177.1870  147.2530 C   0  0  0  0  0  1  0  0  0  0  0  0
  186.8300  178.3360  147.3730 C   0  0  0  0  0  2  0  0  0  0  0  0
  185.4510  178.7320  146.2130 S   0  0  0  0  0  0  0  0  0  0  0  0
  187.8710  177.6430  146.6320 N   0  0  0  0  0  0  0  0  0  0  0  0
  179.9080  179.2330  139.8870 C   0  0  0  0  0  2  0  0  0  0  0  0
  179.2460  179.3000  141.2490 C   0  0  0  0  0  2  0  0  0  0  0  0
  179.4150  180.6670  141.8150 C   0  0  0  0  0  3  0  0  0  0  0  0
  180.0130  180.8220  142.8670 O   0  0  0  0  0  0  0  0  0  0  0  0
  1 20  1  0  0  0  0
  2  4  1  0  0  0  0
  2  6  1  1  0  0  0
  2  5  1  0  0  0  0
  3 31  1  6  0  0  0
  3  1  1  0  0  0  0
  4 17  1  1  0  0  0
  4  3  1  0  0  0  0
  5  1  1  1  0  0  0
  7 15  1  1  0  0  0
  8 11  1  6  0  0  0
  8 13  1  0  0  0  0
  9 12  1  6  0  0  0
  9  5  1  0  0  0  0
 10 14  1  0  0  0  0
 11 10  1  0  0  0  0
 13  9  1  0  0  0  0
 13  7  1  0  0  0  0
 14  7  1  0  0  0  0
 14 15  1  0  0  0  0
 16 12  1  0  0  0  0
 16  8  1  0  0  0  0
 18 19  1  0  0  0  0
 18 17  1  0  0  0  0
 20 21  1  0  0  0  0
 21 23  1  0  0  0  0
 22 25  1  0  0  0  0
 23 22  2  0  0  0  0
 24 26  2  0  0  0  0
 25 26  1  0  0  0  0
 25 29  1  0  0  0  0
 26 30  1  0  0  0  0
 29 28  1  0  0  0  0
 30 27  1  0  0  0  0
 30 28  1  0  0  0  0
 31 32  1  0  0  0  0
 32 33  1  0  0  0  0
 33 34  2  0  0  0  0
M  END
>  <MODEL>
1

>  <REMARK>
 VINA RESULT:      -6.4      0.000      0.000
  Name = 
  10 active torsions:
  status: ('A' for Active; 'I' for Inactive)
    1  A    between atoms: C_3  and  N_13
    2  A    between atoms: C_4  and  C_31
    3  A    between atoms: N_5  and  C_18
    4  A    between atoms: C_7  and  C_8
    5  A    between atoms: C_8  and  C_28
    6  A    between atoms: C_12  and  C_16
    7  A    between atoms: C_16  and  C_23
    8  A    between atoms: C_17  and  C_29
    9  A    between atoms: C_18  and  C_29
   10  A    between atoms: C_23  and  C_26
                            x       y       z     vdW  Elec       q    Type
                         _______ _______ _______ _____ _____    ______ ____

>  <TORSDO>
F 10

$$$$
=
 OpenBabel11052414193D

 34 38  0  0  1  0  0  0  0  0999 V2000
  183.0130  177.6700  140.1990 N   0  0  0  0  0  0  0  0  0  0  0  0
  183.3070  179.3810  138.5140 C   0  0  2  0  0  3  0  0  0  0  0  0
  181.9580  178.6700  140.3620 C   0  0  1  0  0  3  0  0  0  0  0  0
  181.9180  179.5110  139.1040 C   0  0  1  0  0  3  0  0  0  0  0  0
  183.7840  178.0240  139.0040 C   0  0  2  0  0  3  0  0  0  0  0  0
  184.1680  180.3620  139.0160 O   0  0  0  0  0  1  0  0  0  0  0  0
  185.3100  177.1530  136.0560 C   0  0  2  0  0  3  0  0  0  0  0  0
  184.6330  175.0650  137.1080 C   0  0  2  0  0  3  0  0  0  0  0  0
  183.5940  176.9570  137.9220 C   0  0  2  0  0  3  0  0  0  0  0  0
  186.9720  175.1600  136.1120 C   0  0  0  0  0  2  0  0  0  0  0  0
  185.9430  174.3180  136.8980 C   0  0  0  0  0  2  0  0  0  0  0  0
  183.0430  175.6660  138.5300 C   0  0  0  0  0  2  0  0  0  0  0  0
  184.9120  176.5060  137.3740 C   0  0  2  0  0  3  0  0  0  0  0  0
  186.3950  176.3800  135.3520 C   0  0  2  0  0  3  0  0  0  0  0  0
  186.6600  177.5430  136.1020 O   0  0  0  0  0  0  0  0  0  0  0  0
  183.8810  174.5840  138.1820 O   0  0  0  0  0  0  0  0  0  0  0  0
  181.5020  180.9510  139.4010 C   0  0  0  0  0  2  0  0  0  0  0  0
  180.9000  181.6060  138.1710 C   0  0  0  0  0  2  0  0  0  0  0  0
  181.6240  182.7520  137.8410 O   0  0  0  0  0  1  0  0  0  0  0  0
  183.9100  177.7980  141.3370 C   0  0  0  0  0  2  0  0  0  0  0  0
  183.4240  178.9050  142.2520 C   0  0  0  0  0  2  0  0  0  0  0  0
  185.2490  178.0630  143.6270 C   0  0  0  0  0  3  0  0  0  0  0  0
  184.2290  178.9010  143.5000 C   0  0  0  0  0  3  0  0  0  0  0  0
  188.0500  177.3910  143.7750 O   0  0  0  0  0  0  0  0  0  0  0  0
  186.0470  178.0300  144.8140 N   0  0  0  0  0  0  0  0  0  0  0  0
  187.4180  177.6920  144.8220 C   0  0  0  0  0  0  0  0  0  0  0  0
  189.4230  177.4060  146.3360 C   0  0  0  0  0  1  0  0  0  0  0  0
  187.1150  178.0930  147.1690 C   0  0  0  0  0  2  0  0  0  0  0  0
  185.4490  178.4040  146.4380 S   0  0  0  0  0  0  0  0  0  0  0  0
  188.0250  177.7200  146.0990 N   0  0  0  0  0  0  0  0  0  0  0  0
  180.6260  177.9670  140.5770 C   0  0  0  0  0  2  0  0  0  0  0  0
  180.0850  178.2650  141.9610 C   0  0  0  0  0  2  0  0  0  0  0  0
  179.5240  179.6440  141.9870 C   0  0  0  0  0  3  0  0  0  0  0  0
  179.9770  180.4720  142.7610 O   0  0  0  0  0  0  0  0  0  0  0  0
  1  3  1  0  0  0  0
  1 20  1  0  0  0  0
  2  5  1  0  0  0  0
  2  6  1  1  0  0  0
  2  4  1  0  0  0  0
  3 31  1  6  0  0  0
  4 17  1  1  0  0  0
  4  3  1  0  0  0  0
  5  1  1  1  0  0  0
  7 15  1  1  0  0  0
  7 13  1  0  0  0  0
  8 11  1  1  0  0  0
  8 13  1  0  0  0  0
  8 16  1  0  0  0  0
  9 12  1  1  0  0  0
  9  5  1  0  0  0  0
 10 11  1  0  0  0  0
 13  9  1  0  0  0  0
 14  7  1  0  0  0  0
 14 15  1  0  0  0  0
 14 10  1  0  0  0  0
 16 12  1  0  0  0  0
 18 17  1  0  0  0  0
 19 18  1  0  0  0  0
 20 21  1  0  0  0  0
 21 23  1  0  0  0  0
 22 25  1  0  0  0  0
 23 22  2  0  0  0  0
 24 26  2  0  0  0  0
 25 26  1  0  0  0  0
 25 29  1  0  0  0  0
 26 30  1  0  0  0  0
 29 28  1  0  0  0  0
 30 27  1  0  0  0  0
 30 28  1  0  0  0  0
 31 32  1  0  0  0  0
 32 33  1  0  0  0  0
 33 34  2  0  0  0  0
M  END
>  <MODEL>
2

>  <REMARK>
 VINA RESULT:      -6.4      1.819      3.029
  Name = 
  10 active torsions:
  status: ('A' for Active; 'I' for Inactive)
    1  A    between atoms: C_3  and  N_13
    2  A    between atoms: C_4  and  C_31
    3  A    between atoms: N_5  and  C_18
    4  A    between atoms: C_7  and  C_8
    5  A    between atoms: C_8  and  C_28
    6  A    between atoms: C_12  and  C_16
    7  A    between atoms: C_16  and  C_23
    8  A    between atoms: C_17  and  C_29
    9  A    between atoms: C_18  and  C_29
   10  A    between atoms: C_23  and  C_26
                            x       y       z     vdW  Elec       q    Type
                         _______ _______ _______ _____ _____    ______ ____

>  <TORSDO>
F 10

$$$$
=
 OpenBabel11052414193D

 34 38  0  0  1  0  0  0  0  0999 V2000
  189.3920  177.2400  138.4400 N   0  0  0  0  0  0  0  0  0  0  0  0
  191.4050  176.8780  139.7320 C   0  0  2  0  0  3  0  0  0  0  0  0
  190.2140  176.2470  137.7500 C   0  0  1  0  0  3  0  0  0  0  0  0
  191.2620  175.7540  138.7260 C   0  0  1  0  0  3  0  0  0  0  0  0
  190.0460  177.5580  139.7120 C   0  0  2  0  0  3  0  0  0  0  0  0
  192.3710  177.8040  139.3260 O   0  0  0  0  0  1  0  0  0  0  0  0
  190.5590  176.0220  142.7390 C   0  0  2  0  0  3  0  0  0  0  0  0
  188.7430  177.6050  143.0850 C   0  0  2  0  0  3  0  0  0  0  0  0
  189.1810  177.0790  140.8810 C   0  0  2  0  0  3  0  0  0  0  0  0
  190.5670  177.5230  144.8560 C   0  0  0  0  0  2  0  0  0  0  0  0
  189.2660  178.2080  144.3810 C   0  0  0  0  0  2  0  0  0  0  0  0
  187.9550  177.9780  141.0470 C   0  0  0  0  0  2  0  0  0  0  0  0
  189.8870  177.2710  142.1870 C   0  0  2  0  0  3  0  0  0  0  0  0
  190.8750  176.1520  144.2070 C   0  0  2  0  0  3  0  0  0  0  0  0
  191.8480  176.3390  143.2040 O   0  0  0  0  0  0  0  0  0  0  0  0
  187.8960  178.4580  142.3740 O   0  0  0  0  0  0  0  0  0  0  0  0
  192.5640  175.3850  138.0170 C   0  0  0  0  0  2  0  0  0  0  0  0
  192.7070  176.1510  136.7140 C   0  0  0  0  0  2  0  0  0  0  0  0
  193.9980  176.6680  136.6050 O   0  0  0  0  0  1  0  0  0  0  0  0
  189.4120  178.4530  137.6370 C   0  0  0  0  0  2  0  0  0  0  0  0
  188.0900  178.6100  136.9120 C   0  0  0  0  0  2  0  0  0  0  0  0
  185.7430  178.4920  137.5490 C   0  0  0  0  0  3  0  0  0  0  0  0
  186.9920  178.1100  137.7770 C   0  0  0  0  0  3  0  0  0  0  0  0
  184.8390  179.6820  140.0170 O   0  0  0  0  0  0  0  0  0  0  0  0
  184.6590  178.0310  138.3600 N   0  0  0  0  0  0  0  0  0  0  0  0
  184.2630  178.6580  139.5620 C   0  0  0  0  0  0  0  0  0  0  0  0
  182.5990  178.5260  141.4610 C   0  0  0  0  0  1  0  0  0  0  0  0
  182.6530  176.8790  139.5170 C   0  0  0  0  0  2  0  0  0  0  0  0
  183.6540  176.6210  137.9890 S   0  0  0  0  0  0  0  0  0  0  0  0
  183.1670  178.0470  140.2140 N   0  0  0  0  0  0  0  0  0  0  0  0
  189.3340  175.0970  137.2870 C   0  0  0  0  0  2  0  0  0  0  0  0
  189.0880  175.1830  135.7930 C   0  0  0  0  0  2  0  0  0  0  0  0
  187.6310  175.0410  135.5220 C   0  0  0  0  0  3  0  0  0  0  0  0
  186.8390  175.0080  136.4490 O   0  0  0  0  0  0  0  0  0  0  0  0
  2  6  1  6  0  0  0
  3 31  1  1  0  0  0
  3  1  1  0  0  0  0
  3  4  1  0  0  0  0
  4 17  1  6  0  0  0
  4  2  1  0  0  0  0
  5  1  1  6  0  0  0
  5  2  1  0  0  0  0
  5  9  1  0  0  0  0
  7 15  1  6  0  0  0
  7 14  1  0  0  0  0
  8 11  1  1  0  0  0
  9 12  1  1  0  0  0
  9 13  1  0  0  0  0
 11 10  1  0  0  0  0
 12 16  1  0  0  0  0
 13  7  1  0  0  0  0
 13  8  1  0  0  0  0
 14 10  1  0  0  0  0
 15 14  1  0  0  0  0
 16  8  1  0  0  0  0
 18 17  1  0  0  0  0
 19 18  1  0  0  0  0
 20  1  1  0  0  0  0
 21 20  1  0  0  0  0
 21 23  1  0  0  0  0
 22 23  2  0  0  0  0
 22 25  1  0  0  0  0
 25 26  1  0  0  0  0
 26 24  2  0  0  0  0
 26 30  1  0  0  0  0
 28 30  1  0  0  0  0
 29 25  1  0  0  0  0
 29 28  1  0  0  0  0
 30 27  1  0  0  0  0
 32 31  1  0  0  0  0
 33 32  1  0  0  0  0
 33 34  2  0  0  0  0
M  END
>  <MODEL>
3

>  <REMARK>
 VINA RESULT:      -6.3      5.306      9.640
  Name = 
  10 active torsions:
  status: ('A' for Active; 'I' for Inactive)
    1  A    between atoms: C_3  and  N_13
    2  A    between atoms: C_4  and  C_31
    3  A    between atoms: N_5  and  C_18
    4  A    between atoms: C_7  and  C_8
    5  A    between atoms: C_8  and  C_28
    6  A    between atoms: C_12  and  C_16
    7  A    between atoms: C_16  and  C_23
    8  A    between atoms: C_17  and  C_29
    9  A    between atoms: C_18  and  C_29
   10  A    between atoms: C_23  and  C_26
                            x       y       z     vdW  Elec       q    Type
                         _______ _______ _______ _____ _____    ______ ____

>  <TORSDO>
F 10

$$$$
=
 OpenBabel11052414193D

 34 38  0  0  1  0  0  0  0  0999 V2000
  182.9900  178.6790  139.2850 N   0  0  0  0  0  0  0  0  0  0  0  0
  181.7490  178.5990  141.3610 C   0  0  2  0  0  3  0  0  0  0  0  0
  181.7240  179.3850  139.0970 C   0  0  1  0  0  3  0  0  0  0  0  0
  181.1370  179.6570  140.4650 C   0  0  1  0  0  3  0  0  0  0  0  0
  183.0790  178.2870  140.6950 C   0  0  2  0  0  3  0  0  0  0  0  0
  180.9750  177.4350  141.3770 O   0  0  0  0  0  1  0  0  0  0  0  0
  183.8410  179.3210  143.8770 C   0  0  2  0  0  3  0  0  0  0  0  0
  185.9510  178.6640  142.8580 C   0  0  2  0  0  3  0  0  0  0  0  0
  184.2210  179.0420  141.3790 C   0  0  2  0  0  3  0  0  0  0  0  0
  185.5140  177.8760  145.2370 C   0  0  0  0  0  2  0  0  0  0  0  0
  186.4730  177.8400  144.0280 C   0  0  0  0  0  2  0  0  0  0  0  0
  185.5510  178.7540  140.6800 C   0  0  0  0  0  2  0  0  0  0  0  0
  184.4710  178.5090  142.7550 C   0  0  2  0  0  3  0  0  0  0  0  0
  184.4550  179.0060  145.2170 C   0  0  2  0  0  3  0  0  0  0  0  0
  183.2230  178.4600  144.8030 O   0  0  0  0  0  0  0  0  0  0  0  0
  186.4920  178.2910  141.6260 O   0  0  0  0  0  0  0  0  0  0  0  0
  179.6090  179.6390  140.4370 C   0  0  0  0  0  2  0  0  0  0  0  0
  179.0380  180.0060  141.7950 C   0  0  0  0  0  2  0  0  0  0  0  0
  179.5030  181.2630  142.1830 O   0  0  0  0  0  1  0  0  0  0  0  0
  182.9220  177.4510  138.5060 C   0  0  0  0  0  2  0  0  0  0  0  0
  183.8060  177.5730  137.2810 C   0  0  0  0  0  2  0  0  0  0  0  0
  186.2390  177.5240  137.1990 C   0  0  0  0  0  3  0  0  0  0  0  0
  185.1120  176.9190  137.5490 C   0  0  0  0  0  3  0  0  0  0  0  0
  188.3390  178.6090  138.8530 O   0  0  0  0  0  0  0  0  0  0  0  0
  187.5160  176.9270  137.4410 N   0  0  0  0  0  0  0  0  0  0  0  0
  188.5060  177.5080  138.2630 C   0  0  0  0  0  0  0  0  0  0  0  0
  190.8440  177.1700  139.1650 C   0  0  0  0  0  1  0  0  0  0  0  0
  189.6790  175.5190  137.6120 C   0  0  0  0  0  2  0  0  0  0  0  0
  188.0500  175.3830  136.7570 S   0  0  0  0  0  0  0  0  0  0  0  0
  189.6990  176.7570  138.3730 N   0  0  0  0  0  0  0  0  0  0  0  0
  181.9790  180.6890  138.3560 C   0  0  0  0  0  2  0  0  0  0  0  0
  181.0550  180.8110  137.1610 C   0  0  0  0  0  2  0  0  0  0  0  0
  180.2790  182.0780  137.2630 C   0  0  0  0  0  3  0  0  0  0  0  0
  179.1950  182.0860  137.8220 O   0  0  0  0  0  0  0  0  0  0  0  0
  2  6  1  6  0  0  0
  3 31  1  1  0  0  0
  3  1  1  0  0  0  0
  3  4  1  0  0  0  0
  4 17  1  6  0  0  0
  4  2  1  0  0  0  0
  5  1  1  6  0  0  0
  5  2  1  0  0  0  0
  5  9  1  0  0  0  0
  7 15  1  1  0  0  0
  7 14  1  0  0  0  0
  8 11  1  1  0  0  0
  9 12  1  6  0  0  0
  9 13  1  0  0  0  0
 11 10  1  0  0  0  0
 12 16  1  0  0  0  0
 13  8  1  0  0  0  0
 13  7  1  0  0  0  0
 14 10  1  0  0  0  0
 15 14  1  0  0  0  0
 16  8  1  0  0  0  0
 17 18  1  0  0  0  0
 18 19  1  0  0  0  0
 20  1  1  0  0  0  0
 21 23  1  0  0  0  0
 21 20  1  0  0  0  0
 22 25  1  0  0  0  0
 22 23  2  0  0  0  0
 25 26  1  0  0  0  0
 26 30  1  0  0  0  0
 26 24  2  0  0  0  0
 28 30  1  0  0  0  0
 29 25  1  0  0  0  0
 29 28  1  0  0  0  0
 30 27  1  0  0  0  0
 32 33  1  0  0  0  0
 32 31  1  0  0  0  0
 33 34  2  0  0  0  0
M  END
>  <MODEL>
4

>  <REMARK>
 VINA RESULT:      -6.2      3.487      6.186
  Name = 
  10 active torsions:
  status: ('A' for Active; 'I' for Inactive)
    1  A    between atoms: C_3  and  N_13
    2  A    between atoms: C_4  and  C_31
    3  A    between atoms: N_5  and  C_18
    4  A    between atoms: C_7  and  C_8
    5  A    between atoms: C_8  and  C_28
    6  A    between atoms: C_12  and  C_16
    7  A    between atoms: C_16  and  C_23
    8  A    between atoms: C_17  and  C_29
    9  A    between atoms: C_18  and  C_29
   10  A    between atoms: C_23  and  C_26
                            x       y       z     vdW  Elec       q    Type
                         _______ _______ _______ _____ _____    ______ ____

>  <TORSDO>
F 10

$$$$
=
 OpenBabel11052414193D

 34 38  0  0  1  0  0  0  0  0999 V2000
  182.8660  178.1870  140.2720 N   0  0  0  0  0  0  0  0  0  0  0  0
  182.2570  176.5010  138.6470 C   0  0  2  0  0  3  0  0  0  0  0  0
  183.3660  178.6010  138.9620 C   0  0  1  0  0  3  0  0  0  0  0  0
  182.6730  177.7600  137.9120 C   0  0  1  0  0  3  0  0  0  0  0  0
  182.0850  176.9600  140.0850 C   0  0  2  0  0  3  0  0  0  0  0  0
  183.2640  175.5320  138.6060 O   0  0  0  0  0  1  0  0  0  0  0  0
  180.2930  178.4100  142.6270 C   0  0  2  0  0  3  0  0  0  0  0  0
  179.1280  178.9830  140.5680 C   0  0  2  0  0  3  0  0  0  0  0  0
  180.6110  177.2230  140.4010 C   0  0  2  0  0  3  0  0  0  0  0  0
  179.4630  180.8440  142.2700 C   0  0  0  0  0  2  0  0  0  0  0  0
  178.9310  180.4620  140.8720 C   0  0  0  0  0  2  0  0  0  0  0  0
  179.8180  177.4600  139.1140 C   0  0  0  0  0  2  0  0  0  0  0  0
  180.4380  178.5260  141.1160 C   0  0  2  0  0  3  0  0  0  0  0  0
  179.7100  179.6590  143.2370 C   0  0  2  0  0  3  0  0  0  0  0  0
  181.0920  179.3790  143.2610 O   0  0  0  0  0  0  0  0  0  0  0  0
  179.1260  178.6870  139.2030 O   0  0  0  0  0  0  0  0  0  0  0  0
  183.5750  177.5050  136.7060 C   0  0  0  0  0  2  0  0  0  0  0  0
  182.7630  177.4510  135.4240 C   0  0  0  0  0  2  0  0  0  0  0  0
  182.1750  176.1940  135.2850 O   0  0  0  0  0  1  0  0  0  0  0  0
  184.0200  177.8360  141.0860 C   0  0  0  0  0  2  0  0  0  0  0  0
  183.9940  178.6270  142.3790 C   0  0  0  0  0  2  0  0  0  0  0  0
  185.1980  178.1950  144.4510 C   0  0  0  0  0  3  0  0  0  0  0  0
  185.2440  178.3710  143.1370 C   0  0  0  0  0  3  0  0  0  0  0  0
  185.5830  178.8190  147.2410 O   0  0  0  0  0  0  0  0  0  0  0  0
  186.3810  177.9460  145.2150 N   0  0  0  0  0  0  0  0  0  0  0  0
  186.5100  178.2760  146.5820 C   0  0  0  0  0  0  0  0  0  0  0  0
  188.1050  178.1980  148.5420 C   0  0  0  0  0  1  0  0  0  0  0  0
  188.6840  177.3270  146.2180 C   0  0  0  0  0  2  0  0  0  0  0  0
  187.8520  177.1950  144.5760 S   0  0  0  0  0  0  0  0  0  0  0  0
  187.7600  177.9460  147.1550 N   0  0  0  0  0  0  0  0  0  0  0  0
  183.0620  180.0760  138.7490 C   0  0  0  0  0  2  0  0  0  0  0  0
  181.7600  180.2470  137.9910 C   0  0  0  0  0  2  0  0  0  0  0  0
  181.3700  181.6840  137.9940 C   0  0  0  0  0  3  0  0  0  0  0  0
  180.2090  182.0000  138.1950 O   0  0  0  0  0  0  0  0  0  0  0  0
  1 20  1  0  0  0  0
  2  6  1  1  0  0  0
  2  5  1  0  0  0  0
  3 31  1  6  0  0  0
  3  1  1  0  0  0  0
  4 17  1  6  0  0  0
  4  2  1  0  0  0  0
  4  3  1  0  0  0  0
  5  1  1  6  0  0  0
  5  9  1  0  0  0  0
  7 14  1  0  0  0  0
  7 15  1  1  0  0  0
  8 11  1  6  0  0  0
  8 13  1  0  0  0  0
  9 12  1  6  0  0  0
  9 13  1  0  0  0  0
 10 14  1  0  0  0  0
 11 10  1  0  0  0  0
 12 16  1  0  0  0  0
 13  7  1  0  0  0  0
 14 15  1  0  0  0  0
 16  8  1  0  0  0  0
 18 17  1  0  0  0  0
 19 18  1  0  0  0  0
 20 21  1  0  0  0  0
 21 23  1  0  0  0  0
 22 25  1  0  0  0  0
 23 22  2  0  0  0  0
 25 26  1  0  0  0  0
 26 30  1  0  0  0  0
 26 24  2  0  0  0  0
 28 30  1  0  0  0  0
 29 25  1  0  0  0  0
 29 28  1  0  0  0  0
 30 27  1  0  0  0  0
 32 33  1  0  0  0  0
 32 31  1  0  0  0  0
 33 34  2  0  0  0  0
M  END
>  <MODEL>
5

>  <REMARK>
 VINA RESULT:      -6.1      1.815      3.962
  Name = 
  10 active torsions:
  status: ('A' for Active; 'I' for Inactive)
    1  A    between atoms: C_3  and  N_13
    2  A    between atoms: C_4  and  C_31
    3  A    between atoms: N_5  and  C_18
    4  A    between atoms: C_7  and  C_8
    5  A    between atoms: C_8  and  C_28
    6  A    between atoms: C_12  and  C_16
    7  A    between atoms: C_16  and  C_23
    8  A    between atoms: C_17  and  C_29
    9  A    between atoms: C_18  and  C_29
   10  A    between atoms: C_23  and  C_26
                            x       y       z     vdW  Elec       q    Type
                         _______ _______ _______ _____ _____    ______ ____

>  <TORSDO>
F 10

$$$$
=
 OpenBabel11052414193D

 34 38  0  0  1  0  0  0  0  0999 V2000
  191.1150  176.1850  137.3550 N   0  0  0  0  0  0  0  0  0  0  0  0
  189.6510  174.4910  136.4360 C   0  0  2  0  0  3  0  0  0  0  0  0
  191.8880  175.3520  136.4350 C   0  0  1  0  0  3  0  0  0  0  0  0
  190.9100  174.5570  135.5950 C   0  0  1  0  0  3  0  0  0  0  0  0
  189.7170  175.7490  137.2870 C   0  0  2  0  0  3  0  0  0  0  0  0
  189.6630  173.3800  137.2840 O   0  0  0  0  0  1  0  0  0  0  0  0
  186.5130  176.0500  136.0960 C   0  0  2  0  0  3  0  0  0  0  0  0
  187.0140  178.1480  137.2230 C   0  0  2  0  0  3  0  0  0  0  0  0
  188.8500  176.8580  136.6870 C   0  0  2  0  0  3  0  0  0  0  0  0
  184.7410  177.0990  137.6780 C   0  0  0  0  0  2  0  0  0  0  0  0
  185.7130  178.2540  138.0060 C   0  0  0  0  0  2  0  0  0  0  0  0
  189.2280  178.2170  137.2790 C   0  0  0  0  0  2  0  0  0  0  0  0
  187.4230  176.7180  137.1160 C   0  0  2  0  0  3  0  0  0  0  0  0
  185.0560  176.3110  136.3820 C   0  0  2  0  0  3  0  0  0  0  0  0
  185.6920  175.1030  136.7340 O   0  0  0  0  0  0  0  0  0  0  0  0
  188.0760  178.8400  137.8080 O   0  0  0  0  0  0  0  0  0  0  0  0
  191.4740  173.1900  135.2140 C   0  0  0  0  0  2  0  0  0  0  0  0
  192.6990  172.8570  136.0490 C   0  0  0  0  0  2  0  0  0  0  0  0
  193.7140  172.3640  135.2290 O   0  0  0  0  0  1  0  0  0  0  0  0
  191.5860  175.8950  138.7010 C   0  0  0  0  0  2  0  0  0  0  0  0
  191.5620  177.1610  139.5350 C   0  0  0  0  0  2  0  0  0  0  0  0
  190.8870  177.5570  141.8410 C   0  0  0  0  0  3  0  0  0  0  0  0
  190.6270  176.9810  140.6750 C   0  0  0  0  0  3  0  0  0  0  0  0
  191.6750  177.4470  144.6140 O   0  0  0  0  0  0  0  0  0  0  0  0
  190.0100  177.4070  142.9620 N   0  0  0  0  0  0  0  0  0  0  0  0
  190.4580  177.3600  144.3000 C   0  0  0  0  0  0  0  0  0  0  0  0
  189.6680  177.1360  146.6920 C   0  0  0  0  0  1  0  0  0  0  0  0
  188.1000  177.1290  144.6830 C   0  0  0  0  0  2  0  0  0  0  0  0
  188.2490  177.2610  142.8490 S   0  0  0  0  0  0  0  0  0  0  0  0
  189.4310  177.2090  145.2610 N   0  0  0  0  0  0  0  0  0  0  0  0
  192.7490  176.2410  135.5510 C   0  0  0  0  0  2  0  0  0  0  0  0
  194.1580  176.3340  136.1030 C   0  0  0  0  0  2  0  0  0  0  0  0
  195.0290  177.0370  135.1210 C   0  0  0  0  0  3  0  0  0  0  0  0
  195.6150  178.0570  135.4450 O   0  0  0  0  0  0  0  0  0  0  0  0
  1 20  1  0  0  0  0
  2  6  1  1  0  0  0
  2  5  1  0  0  0  0
  3 31  1  6  0  0  0
  3  1  1  0  0  0  0
  4 17  1  1  0  0  0
  4  3  1  0  0  0  0
  4  2  1  0  0  0  0
  5  1  1  6  0  0  0
  7 14  1  0  0  0  0
  7 15  1  1  0  0  0
  7 13  1  0  0  0  0
  8 16  1  0  0  0  0
  8 11  1  1  0  0  0
  9 13  1  0  0  0  0
  9 12  1  1  0  0  0
  9  5  1  0  0  0  0
 10 11  1  0  0  0  0
 12 16  1  0  0  0  0
 13  8  1  0  0  0  0
 14 15  1  0  0  0  0
 14 10  1  0  0  0  0
 17 18  1  0  0  0  0
 19 18  1  0  0  0  0
 20 21  1  0  0  0  0
 21 23  1  0  0  0  0
 22 25  1  0  0  0  0
 23 22  2  0  0  0  0
 25 26  1  0  0  0  0
 26 24  2  0  0  0  0
 26 30  1  0  0  0  0
 28 30  1  0  0  0  0
 29 25  1  0  0  0  0
 29 28  1  0  0  0  0
 30 27  1  0  0  0  0
 31 32  1  0  0  0  0
 33 34  2  0  0  0  0
 33 32  1  0  0  0  0
M  END
>  <MODEL>
6

>  <REMARK>
 VINA RESULT:      -6.0      6.799      9.396
  Name = 
  10 active torsions:
  status: ('A' for Active; 'I' for Inactive)
    1  A    between atoms: C_3  and  N_13
    2  A    between atoms: C_4  and  C_31
    3  A    between atoms: N_5  and  C_18
    4  A    between atoms: C_7  and  C_8
    5  A    between atoms: C_8  and  C_28
    6  A    between atoms: C_12  and  C_16
    7  A    between atoms: C_16  and  C_23
    8  A    between atoms: C_17  and  C_29
    9  A    between atoms: C_18  and  C_29
   10  A    between atoms: C_23  and  C_26
                            x       y       z     vdW  Elec       q    Type
                         _______ _______ _______ _____ _____    ______ ____

>  <TORSDO>
F 10

$$$$
=
 OpenBabel11052414193D

 34 38  0  0  1  0  0  0  0  0999 V2000
  188.7410  177.8090  141.7610 N   0  0  0  0  0  0  0  0  0  0  0  0
  190.6330  178.0620  143.2480 C   0  0  2  0  0  3  0  0  0  0  0  0
  189.9470  177.3770  141.0560 C   0  0  1  0  0  3  0  0  0  0  0  0
  191.0400  177.1790  142.0850 C   0  0  1  0  0  3  0  0  0  0  0  0
  189.1190  178.1260  143.1410 C   0  0  2  0  0  3  0  0  0  0  0  0
  191.1440  179.3560  143.1080 O   0  0  0  0  0  1  0  0  0  0  0  0
  189.8540  176.7510  146.1980 C   0  0  2  0  0  3  0  0  0  0  0  0
  187.4450  177.0970  146.1770 C   0  0  2  0  0  3  0  0  0  0  0  0
  188.4620  177.1350  144.1060 C   0  0  2  0  0  3  0  0  0  0  0  0
  188.6980  177.7790  148.2830 C   0  0  0  0  0  2  0  0  0  0  0  0
  187.3360  177.7300  147.5570 C   0  0  0  0  0  2  0  0  0  0  0  0
  186.9380  177.2330  144.0230 C   0  0  0  0  0  2  0  0  0  0  0  0
  188.7220  177.5160  145.5290 C   0  0  2  0  0  3  0  0  0  0  0  0
  189.7980  176.8570  147.7010 C   0  0  2  0  0  3  0  0  0  0  0  0
  190.6720  177.6390  146.9190 O   0  0  0  0  0  0  0  0  0  0  0  0
  186.4070  177.4550  145.3130 O   0  0  0  0  0  0  0  0  0  0  0  0
  192.4190  177.5030  141.5130 C   0  0  0  0  0  2  0  0  0  0  0  0
  192.3730  177.5740  139.9970 C   0  0  0  0  0  2  0  0  0  0  0  0
  193.6310  177.2810  139.4690 O   0  0  0  0  0  1  0  0  0  0  0  0
  188.3010  179.0510  141.1450 C   0  0  0  0  0  2  0  0  0  0  0  0
  187.0220  178.8130  140.3660 C   0  0  0  0  0  2  0  0  0  0  0  0
  184.6730  178.5120  140.9300 C   0  0  0  0  0  3  0  0  0  0  0  0
  185.8560  179.0090  141.2640 C   0  0  0  0  0  3  0  0  0  0  0  0
  181.9170  178.4390  140.0800 O   0  0  0  0  0  0  0  0  0  0  0  0
  183.5260  178.6800  141.7690 N   0  0  0  0  0  0  0  0  0  0  0  0
  182.1980  178.6340  141.2920 C   0  0  0  0  0  0  0  0  0  0  0  0
  179.7810  178.8140  142.0130 C   0  0  0  0  0  1  0  0  0  0  0  0
  181.7500  179.0310  143.6170 C   0  0  0  0  0  2  0  0  0  0  0  0
  183.5910  178.9680  143.5150 S   0  0  0  0  0  0  0  0  0  0  0  0
  181.2070  178.8220  142.2840 N   0  0  0  0  0  0  0  0  0  0  0  0
  189.6630  176.0740  140.3230 C   0  0  0  0  0  2  0  0  0  0  0  0
  189.2330  176.3500  138.8960 C   0  0  0  0  0  2  0  0  0  0  0  0
  189.9990  175.4710  137.9690 C   0  0  0  0  0  3  0  0  0  0  0  0
  191.0310  174.9420  138.3450 O   0  0  0  0  0  0  0  0  0  0  0  0
  2  6  1  6  0  0  0
  3 31  1  1  0  0  0
  3  1  1  0  0  0  0
  3  4  1  0  0  0  0
  4 17  1  6  0  0  0
  4  2  1  0  0  0  0
  5  1  1  6  0  0  0
  5  2  1  0  0  0  0
  5  9  1  0  0  0  0
  7 15  1  6  0  0  0
  7 14  1  0  0  0  0
  8 11  1  1  0  0  0
  9 12  1  1  0  0  0
  9 13  1  0  0  0  0
 11 10  1  0  0  0  0
 12 16  1  0  0  0  0
 13  8  1  0  0  0  0
 13  7  1  0  0  0  0
 14 10  1  0  0  0  0
 15 14  1  0  0  0  0
 16  8  1  0  0  0  0
 18 17  1  0  0  0  0
 19 18  1  0  0  0  0
 20  1  1  0  0  0  0
 21 20  1  0  0  0  0
 21 23  1  0  0  0  0
 22 23  2  0  0  0  0
 22 25  1  0  0  0  0
 24 26  2  0  0  0  0
 25 29  1  0  0  0  0
 26 25  1  0  0  0  0
 26 30  1  0  0  0  0
 27 30  1  0  0  0  0
 29 28  1  0  0  0  0
 30 28  1  0  0  0  0
 32 31  1  0  0  0  0
 33 34  2  0  0  0  0
 33 32  1  0  0  0  0
M  END
>  <MODEL>
7

>  <REMARK>
 VINA RESULT:      -5.8      3.804      9.618
  Name = 
  10 active torsions:
  status: ('A' for Active; 'I' for Inactive)
    1  A    between atoms: C_3  and  N_13
    2  A    between atoms: C_4  and  C_31
    3  A    between atoms: N_5  and  C_18
    4  A    between atoms: C_7  and  C_8
    5  A    between atoms: C_8  and  C_28
    6  A    between atoms: C_12  and  C_16
    7  A    between atoms: C_16  and  C_23
    8  A    between atoms: C_17  and  C_29
    9  A    between atoms: C_18  and  C_29
   10  A    between atoms: C_23  and  C_26
                            x       y       z     vdW  Elec       q    Type
                         _______ _______ _______ _____ _____    ______ ____

>  <TORSDO>
F 10

$$$$
=
 OpenBabel11052414193D

 34 38  0  0  1  0  0  0  0  0999 V2000
  181.6510  177.7400  140.4340 N   0  0  0  0  0  0  0  0  0  0  0  0
  181.5180  178.4010  138.1100 C   0  0  2  0  0  3  0  0  0  0  0  0
  181.5510  179.1980  140.3710 C   0  0  1  0  0  3  0  0  0  0  0  0
  181.0940  179.5710  138.9760 C   0  0  1  0  0  3  0  0  0  0  0  0
  181.5190  177.2230  139.0690 C   0  0  2  0  0  3  0  0  0  0  0  0
  182.8150  178.5760  137.6180 O   0  0  0  0  0  1  0  0  0  0  0  0
  179.8230  175.6080  136.5600 C   0  0  2  0  0  3  0  0  0  0  0  0
  179.5330  174.2460  138.5560 C   0  0  2  0  0  3  0  0  0  0  0  0
  180.2270  176.4130  138.9380 C   0  0  2  0  0  3  0  0  0  0  0  0
  180.1000  173.0320  136.3930 C   0  0  0  0  0  2  0  0  0  0  0  0
  179.8410  172.9020  137.9100 C   0  0  0  0  0  2  0  0  0  0  0  0
  179.9410  175.6420  140.2280 C   0  0  0  0  0  2  0  0  0  0  0  0
  180.3830  175.3060  137.9430 C   0  0  2  0  0  3  0  0  0  0  0  0
  179.6220  174.3550  135.7460 C   0  0  2  0  0  3  0  0  0  0  0  0
  180.7390  175.1990  135.5730 O   0  0  0  0  0  0  0  0  0  0  0  0
  179.7680  174.2710  139.9320 O   0  0  0  0  0  0  0  0  0  0  0  0
  181.6740  180.9130  138.5330 C   0  0  0  0  0  2  0  0  0  0  0  0
  180.5680  181.9180  138.2640 C   0  0  0  0  0  2  0  0  0  0  0  0
  180.5130  182.2120  136.9010 O   0  0  0  0  0  1  0  0  0  0  0  0
  182.9980  177.4180  140.8820 C   0  0  0  0  0  2  0  0  0  0  0  0
  183.7800  178.6950  141.1160 C   0  0  0  0  0  2  0  0  0  0  0  0
  184.7760  178.4360  143.3230 C   0  0  0  0  0  3  0  0  0  0  0  0
  184.9330  178.4100  142.0070 C   0  0  0  0  0  3  0  0  0  0  0  0
  184.7980  178.8980  146.1710 O   0  0  0  0  0  0  0  0  0  0  0  0
  185.8630  178.1670  144.2130 N   0  0  0  0  0  0  0  0  0  0  0  0
  185.8130  178.4150  145.6020 C   0  0  0  0  0  0  0  0  0  0  0  0
  187.1580  178.2520  147.7370 C   0  0  0  0  0  1  0  0  0  0  0  0
  188.0420  177.5360  145.4560 C   0  0  0  0  0  2  0  0  0  0  0  0
  187.4210  177.4860  143.7190 S   0  0  0  0  0  0  0  0  0  0  0  0
  186.9930  178.0780  146.3050 N   0  0  0  0  0  0  0  0  0  0  0  0
  180.5480  179.6800  141.4070 C   0  0  0  0  0  2  0  0  0  0  0  0
  179.9070  178.5020  142.1150 C   0  0  0  0  0  2  0  0  0  0  0  0
  180.1330  178.6240  143.5820 C   0  0  0  0  0  3  0  0  0  0  0  0
  179.6740  177.7870  144.3410 O   0  0  0  0  0  0  0  0  0  0  0  0
  1 20  1  0  0  0  0
  2  6  1  1  0  0  0
  2  4  1  0  0  0  0
  2  5  1  0  0  0  0
  3  1  1  0  0  0  0
  3 31  1  1  0  0  0
  4 17  1  6  0  0  0
  4  3  1  0  0  0  0
  5  1  1  1  0  0  0
  7 15  1  6  0  0  0
  7 13  1  0  0  0  0
  8 11  1  6  0  0  0
  8 16  1  0  0  0  0
  9  5  1  0  0  0  0
  9 12  1  1  0  0  0
 10 11  1  0  0  0  0
 13  8  1  0  0  0  0
 13  9  1  0  0  0  0
 14 10  1  0  0  0  0
 14  7  1  0  0  0  0
 15 14  1  0  0  0  0
 16 12  1  0  0  0  0
 18 17  1  0  0  0  0
 19 18  1  0  0  0  0
 20 21  1  0  0  0  0
 21 23  1  0  0  0  0
 22 25  1  0  0  0  0
 23 22  2  0  0  0  0
 25 26  1  0  0  0  0
 26 24  2  0  0  0  0
 26 30  1  0  0  0  0
 28 30  1  0  0  0  0
 29 25  1  0  0  0  0
 29 28  1  0  0  0  0
 30 27  1  0  0  0  0
 31 32  1  0  0  0  0
 32 33  1  0  0  0  0
 33 34  2  0  0  0  0
M  END
>  <MODEL>
8

>  <REMARK>
 VINA RESULT:      -5.8      1.786      2.633
  Name = 
  10 active torsions:
  status: ('A' for Active; 'I' for Inactive)
    1  A    between atoms: C_3  and  N_13
    2  A    between atoms: C_4  and  C_31
    3  A    between atoms: N_5  and  C_18
    4  A    between atoms: C_7  and  C_8
    5  A    between atoms: C_8  and  C_28
    6  A    between atoms: C_12  and  C_16
    7  A    between atoms: C_16  and  C_23
    8  A    between atoms: C_17  and  C_29
    9  A    between atoms: C_18  and  C_29
   10  A    between atoms: C_23  and  C_26
                            x       y       z     vdW  Elec       q    Type
                         _______ _______ _______ _____ _____    ______ ____

>  <TORSDO>
F 10

$$$$
=
 OpenBabel11052414193D

 34 38  0  0  1  0  0  0  0  0999 V2000
  186.9390  177.5780  138.6860 N   0  0  0  0  0  0  0  0  0  0  0  0
  189.2690  178.2320  138.6850 C   0  0  2  0  0  3  0  0  0  0  0  0
  187.5800  177.0110  137.5010 C   0  0  1  0  0  3  0  0  0  0  0  0
  189.0790  177.0980  137.6980 C   0  0  1  0  0  3  0  0  0  0  0  0
  187.9770  178.2350  139.4860 C   0  0  2  0  0  3  0  0  0  0  0  0
  189.3900  179.4610  138.0310 O   0  0  0  0  0  1  0  0  0  0  0  0
  190.5780  176.8410  141.2370 C   0  0  2  0  0  3  0  0  0  0  0  0
  189.0960  177.8240  142.8990 C   0  0  2  0  0  3  0  0  0  0  0  0
  188.1590  177.4990  140.8160 C   0  0  2  0  0  3  0  0  0  0  0  0
  191.5910  178.2290  143.1830 C   0  0  0  0  0  2  0  0  0  0  0  0
  190.1730  178.5200  143.7200 C   0  0  0  0  0  2  0  0  0  0  0  0
  187.1510  178.0020  141.8510 C   0  0  0  0  0  2  0  0  0  0  0  0
  189.4650  177.8550  141.4540 C   0  0  2  0  0  3  0  0  0  0  0  0
  191.7060  177.0210  142.2210 C   0  0  2  0  0  3  0  0  0  0  0  0
  191.7710  177.5050  140.8990 O   0  0  0  0  0  0  0  0  0  0  0  0
  187.8350  178.4130  143.0170 O   0  0  0  0  0  0  0  0  0  0  0  0
  189.8110  177.2990  136.3730 C   0  0  0  0  0  2  0  0  0  0  0  0
  190.7770  176.1580  136.1080 C   0  0  0  0  0  2  0  0  0  0  0  0
  190.6300  175.1740  137.0860 O   0  0  0  0  0  1  0  0  0  0  0  0
  186.0310  178.6200  138.2310 C   0  0  0  0  0  2  0  0  0  0  0  0
  184.5980  178.1430  138.3610 C   0  0  0  0  0  2  0  0  0  0  0  0
  183.4280  177.8590  140.4770 C   0  0  0  0  0  3  0  0  0  0  0  0
  184.0120  178.6800  139.6150 C   0  0  0  0  0  3  0  0  0  0  0  0
  180.6490  178.5010  140.9100 O   0  0  0  0  0  0  0  0  0  0  0  0
  182.8530  178.3390  141.6960 N   0  0  0  0  0  0  0  0  0  0  0  0
  181.4810  178.6370  141.8470 C   0  0  0  0  0  0  0  0  0  0  0  0
  179.7580  179.4610  143.5040 C   0  0  0  0  0  1  0  0  0  0  0  0
  182.2290  179.1790  144.0620 C   0  0  0  0  0  2  0  0  0  0  0  0
  183.7590  178.6300  143.1890 S   0  0  0  0  0  0  0  0  0  0  0  0
  181.1140  179.0970  143.1320 N   0  0  0  0  0  0  0  0  0  0  0  0
  187.1470  175.5620  137.3380 C   0  0  0  0  0  2  0  0  0  0  0  0
  185.8470  175.4800  136.5620 C   0  0  0  0  0  2  0  0  0  0  0  0
  184.9470  174.4840  137.2070 C   0  0  0  0  0  3  0  0  0  0  0  0
  185.3710  173.3780  137.4990 O   0  0  0  0  0  0  0  0  0  0  0  0
  2  6  1  6  0  0  0
  2  5  1  0  0  0  0
  3 31  1  1  0  0  0
  3  4  1  0  0  0  0
  3  1  1  0  0  0  0
  4 17  1  6  0  0  0
  4  2  1  0  0  0  0
  5  1  1  6  0  0  0
  5  9  1  0  0  0  0
  7 15  1  6  0  0  0
  7 13  1  0  0  0  0
  7 14  1  0  0  0  0
  8 16  1  0  0  0  0
  8 11  1  1  0  0  0
  9 13  1  0  0  0  0
  9 12  1  1  0  0  0
 10 11  1  0  0  0  0
 12 16  1  0  0  0  0
 13  8  1  0  0  0  0
 14 10  1  0  0  0  0
 15 14  1  0  0  0  0
 18 17  1  0  0  0  0
 18 19  1  0  0  0  0
 20 21  1  0  0  0  0
 20  1  1  0  0  0  0
 21 23  1  0  0  0  0
 22 25  1  0  0  0  0
 23 22  2  0  0  0  0
 24 26  2  0  0  0  0
 25 26  1  0  0  0  0
 25 29  1  0  0  0  0
 26 30  1  0  0  0  0
 29 28  1  0  0  0  0
 30 27  1  0  0  0  0
 30 28  1  0  0  0  0
 32 33  1  0  0  0  0
 32 31  1  0  0  0  0
 33 34  2  0  0  0  0
M  END
>  <MODEL>
9

>  <REMARK>
 VINA RESULT:      -5.7      4.177      8.444
  Name = 
  10 active torsions:
  status: ('A' for Active; 'I' for Inactive)
    1  A    between atoms: C_3  and  N_13
    2  A    between atoms: C_4  and  C_31
    3  A    between atoms: N_5  and  C_18
    4  A    between atoms: C_7  and  C_8
    5  A    between atoms: C_8  and  C_28
    6  A    between atoms: C_12  and  C_16
    7  A    between atoms: C_16  and  C_23
    8  A    between atoms: C_17  and  C_29
    9  A    between atoms: C_18  and  C_29
   10  A    between atoms: C_23  and  C_26
                            x       y       z     vdW  Elec       q    Type
                         _______ _______ _______ _____ _____    ______ ____

>  <TORSDO>
F 10

$$$$
