=
 OpenBabel11052414133D

 34 38  0  0  1  0  0  0  0  0999 V2000
  189.5920  177.3330  147.0800 C   0  0  0  0  0  0  0  0  0  0  0  0
  189.9130  176.7980  144.7210 C   0  0  0  0  0  0  0  0  0  0  0  0
  187.7700  177.6550  145.5040 C   0  0  0  0  0  0  0  0  0  0  0  0
  186.2950  178.4130  143.6500 N   0  0  0  0  0  0  0  0  0  0  0  0
  191.7130  176.4510  146.3070 C   0  0  0  0  0  3  0  0  0  0  0  0
  191.2250  176.4020  144.9950 C   0  0  0  0  0  3  0  0  0  0  0  0
  188.2130  177.1990  143.1020 C   0  0  0  0  0  0  0  0  0  0  0  0
  189.0910  177.2540  145.7680 C   0  0  0  0  0  0  0  0  0  0  0  0
  186.3920  178.3300  142.1840 C   0  0  0  0  0  2  0  0  0  0  0  0
  190.9010  176.9220  147.3460 C   0  0  0  0  0  3  0  0  0  0  0  0
  187.4660  178.2170  147.7970 C   0  0  0  0  0  3  0  0  0  0  0  0
  188.7750  177.8270  148.0990 C   0  0  0  0  0  3  0  0  0  0  0  0
  189.4520  176.8990  143.3650 N   0  0  0  0  0  0  0  0  0  0  0  0
  187.7300  177.6960  141.7990 C   0  0  1  0  0  3  0  0  0  0  0  0
  187.1750  177.3640  144.1470 C   0  0  1  0  0  3  0  0  0  0  0  0
  186.9910  178.1090  146.5250 N   0  0  0  0  0  0  0  0  0  0  0  0
  188.6420  178.7890  141.2460 C   0  0  0  0  0  2  0  0  0  0  0  0
  189.3150  178.3280  139.9630 C   0  0  0  0  0  2  0  0  0  0  0  0
  188.7700  177.0510  139.5430 N   0  0  0  0  0  2  0  0  0  0  0  0
  188.6300  177.1090  138.0980 C   0  0  0  0  0  2  0  0  0  0  0  0
  187.1700  176.9140  137.7040 C   0  0  0  0  0  2  0  0  0  0  0  0
  186.4280  178.2350  137.5040 C   0  0  2  0  0  3  0  0  0  0  0  0
  187.2650  179.1920  136.9210 O   0  0  0  0  0  1  0  0  0  0  0  0
  184.5460  178.6830  138.5830 C   0  0  0  0  0  1  0  0  0  0  0  0
  185.9350  178.7150  138.7220 O   0  0  0  0  0  0  0  0  0  0  0  0
  184.9380  178.0320  144.0020 C   0  0  0  0  0  2  0  0  0  0  0  0
  184.0460  179.2600  144.0010 C   0  0  0  0  0  2  0  0  0  0  0  0
  179.7470  178.6930  142.5850 C   0  0  0  0  0  3  0  0  0  0  0  0
  180.2960  178.4470  143.7750 C   0  0  0  0  0  3  0  0  0  0  0  0
  182.7370  178.9310  143.3710 C   0  0  0  0  0  0  0  0  0  0  0  0
  181.6700  178.8100  144.1760 C   0  0  0  0  0  3  0  0  0  0  0  0
  181.7110  178.8200  141.0930 C   0  0  0  0  0  3  0  0  0  0  0  0
  182.7360  178.6280  141.9240 C   0  0  0  0  0  3  0  0  0  0  0  0
  180.4330  179.4700  141.5110 C   0  0  0  0  0  2  0  0  0  0  0  0
  1 10  1  0  0  0  0
  1 12  1  0  0  0  0
  2  6  2  0  0  0  0
  2  8  1  0  0  0  0
  3  8  1  0  0  0  0
  3 16  2  0  0  0  0
  4 26  1  0  0  0  0
  4 15  1  0  0  0  0
  5 10  2  0  0  0  0
  6  5  1  0  0  0  0
  7 13  2  0  0  0  0
  8  1  2  0  0  0  0
  9  4  1  0  0  0  0
 11 12  2  0  0  0  0
 13  2  1  0  0  0  0
 14 17  1  1  0  0  0
 14  9  1  0  0  0  0
 14  7  1  0  0  0  0
 15  7  1  6  0  0  0
 15  3  1  0  0  0  0
 16 11  1  0  0  0  0
 18 17  1  0  0  0  0
 19 18  1  0  0  0  0
 20 19  1  0  0  0  0
 21 20  1  0  0  0  0
 22 23  1  1  0  0  0
 22 21  1  0  0  0  0
 22 25  1  0  0  0  0
 24 25  1  0  0  0  0
 27 26  1  0  0  0  0
 28 29  2  0  0  0  0
 29 31  1  0  0  0  0
 30 27  1  0  0  0  0
 30 31  2  0  0  0  0
 32 34  1  0  0  0  0
 32 33  2  0  0  0  0
 33 30  1  0  0  0  0
 34 28  1  0  0  0  0
M  END
>  <MODEL>
1

>  <REMARK>
 VINA RESULT:      -8.7      0.000      0.000
  Name = 
  10 active torsions:
  status: ('A' for Active; 'I' for Inactive)
    1  A    between atoms: C_3  and  N_13
    2  A    between atoms: C_3  and  C_17
    3  A    between atoms: N_5  and  C_26
    4  A    between atoms: C_12  and  C_28
    5  A    between atoms: N_13  and  C_33
    6  A    between atoms: O_14  and  C_20
    7  A    between atoms: C_17  and  C_29
    8  A    between atoms: C_20  and  C_34
    9  A    between atoms: C_26  and  C_28
   10  A    between atoms: C_33  and  C_34
                            x       y       z     vdW  Elec       q    Type
                         _______ _______ _______ _____ _____    ______ ____

>  <TORSDO>
F 10

$$$$
=
 OpenBabel11052414133D

 34 38  0  0  1  0  0  0  0  0999 V2000
  189.6230  177.3710  147.1950 C   0  0  0  0  0  0  0  0  0  0  0  0
  189.8340  176.7650  144.8400 C   0  0  0  0  0  0  0  0  0  0  0  0
  187.7480  177.7010  145.6840 C   0  0  0  0  0  0  0  0  0  0  0  0
  186.2200  178.4500  143.8700 N   0  0  0  0  0  0  0  0  0  0  0  0
  191.6870  176.4110  146.3630 C   0  0  0  0  0  3  0  0  0  0  0  0
  191.1450  176.3410  145.0730 C   0  0  0  0  0  3  0  0  0  0  0  0
  188.0820  177.1710  143.2800 C   0  0  0  0  0  0  0  0  0  0  0  0
  189.0670  177.2700  145.9060 C   0  0  0  0  0  0  0  0  0  0  0  0
  186.2560  178.3280  142.4040 C   0  0  0  0  0  2  0  0  0  0  0  0
  190.9300  176.9300  147.4200 C   0  0  0  0  0  3  0  0  0  0  0  0
  187.5510  178.3310  147.9720 C   0  0  0  0  0  3  0  0  0  0  0  0
  188.8610  177.9130  148.2320 C   0  0  0  0  0  3  0  0  0  0  0  0
  189.3220  176.8440  143.5010 N   0  0  0  0  0  0  0  0  0  0  0  0
  187.5600  177.6470  141.9840 C   0  0  1  0  0  3  0  0  0  0  0  0
  187.0910  177.3910  144.3600 C   0  0  1  0  0  3  0  0  0  0  0  0
  187.0230  178.2030  146.7220 N   0  0  0  0  0  0  0  0  0  0  0  0
  188.4770  178.7000  141.3660 C   0  0  0  0  0  2  0  0  0  0  0  0
  188.6450  178.4560  139.8740 C   0  0  0  0  0  2  0  0  0  0  0  0
  189.2870  177.1740  139.6460 N   0  0  0  0  0  2  0  0  0  0  0  0
  190.6820  177.3310  140.0200 C   0  0  0  0  0  2  0  0  0  0  0  0
  191.5810  176.6740  138.9780 C   0  0  0  0  0  2  0  0  0  0  0  0
  190.7960  175.8840  137.9300 C   0  0  2  0  0  3  0  0  0  0  0  0
  191.0610  174.5150  138.0390 O   0  0  0  0  0  1  0  0  0  0  0  0
  189.8740  176.6140  136.0530 C   0  0  0  0  0  1  0  0  0  0  0  0
  191.1080  176.3280  136.6400 O   0  0  0  0  0  0  0  0  0  0  0  0
  184.8680  178.1170  144.2850 C   0  0  0  0  0  2  0  0  0  0  0  0
  183.9730  179.3330  144.1380 C   0  0  0  0  0  2  0  0  0  0  0  0
  179.7380  178.5460  142.6380 C   0  0  0  0  0  3  0  0  0  0  0  0
  180.2820  178.3070  143.8320 C   0  0  0  0  0  3  0  0  0  0  0  0
  182.6960  178.9420  143.4800 C   0  0  0  0  0  0  0  0  0  0  0  0
  181.6260  178.7420  144.2640 C   0  0  0  0  0  3  0  0  0  0  0  0
  181.7150  178.8190  141.1830 C   0  0  0  0  0  3  0  0  0  0  0  0
  182.7360  178.6690  142.0270 C   0  0  0  0  0  3  0  0  0  0  0  0
  180.3940  179.3840  141.5920 C   0  0  0  0  0  2  0  0  0  0  0  0
  1 10  1  0  0  0  0
  1 12  1  0  0  0  0
  2  6  2  0  0  0  0
  2  8  1  0  0  0  0
  3  8  1  0  0  0  0
  3 16  2  0  0  0  0
  4 26  1  0  0  0  0
  4 15  1  0  0  0  0
  5 10  2  0  0  0  0
  6  5  1  0  0  0  0
  7 13  2  0  0  0  0
  8  1  2  0  0  0  0
  9  4  1  0  0  0  0
 11 12  2  0  0  0  0
 13  2  1  0  0  0  0
 14 17  1  1  0  0  0
 14  9  1  0  0  0  0
 14  7  1  0  0  0  0
 15  7  1  6  0  0  0
 15  3  1  0  0  0  0
 16 11  1  0  0  0  0
 18 17  1  0  0  0  0
 19 18  1  0  0  0  0
 19 20  1  0  0  0  0
 21 20  1  0  0  0  0
 22 23  1  6  0  0  0
 22 21  1  0  0  0  0
 24 25  1  0  0  0  0
 25 22  1  0  0  0  0
 27 26  1  0  0  0  0
 28 29  2  0  0  0  0
 29 31  1  0  0  0  0
 30 27  1  0  0  0  0
 30 31  2  0  0  0  0
 32 34  1  0  0  0  0
 32 33  2  0  0  0  0
 33 30  1  0  0  0  0
 34 28  1  0  0  0  0
M  END
>  <MODEL>
2

>  <REMARK>
 VINA RESULT:      -8.6      1.724      2.229
  Name = 
  10 active torsions:
  status: ('A' for Active; 'I' for Inactive)
    1  A    between atoms: C_3  and  N_13
    2  A    between atoms: C_3  and  C_17
    3  A    between atoms: N_5  and  C_26
    4  A    between atoms: C_12  and  C_28
    5  A    between atoms: N_13  and  C_33
    6  A    between atoms: O_14  and  C_20
    7  A    between atoms: C_17  and  C_29
    8  A    between atoms: C_20  and  C_34
    9  A    between atoms: C_26  and  C_28
   10  A    between atoms: C_33  and  C_34
                            x       y       z     vdW  Elec       q    Type
                         _______ _______ _______ _____ _____    ______ ____

>  <TORSDO>
F 10

$$$$
=
 OpenBabel11052414133D

 34 38  0  0  1  0  0  0  0  0999 V2000
  190.6360  176.7180  137.9150 C   0  0  0  0  0  0  0  0  0  0  0  0
  191.8870  177.1190  139.9720 C   0  0  0  0  0  0  0  0  0  0  0  0
  189.4520  177.2220  139.9780 C   0  0  0  0  0  0  0  0  0  0  0  0
  188.4890  177.1910  142.2710 N   0  0  0  0  0  0  0  0  0  0  0  0
  193.0580  176.6470  137.9020 C   0  0  0  0  0  3  0  0  0  0  0  0
  193.0830  176.9230  139.2750 C   0  0  0  0  0  3  0  0  0  0  0  0
  190.7920  177.5010  142.0510 C   0  0  0  0  0  0  0  0  0  0  0  0
  190.6610  177.0280  139.2880 C   0  0  0  0  0  0  0  0  0  0  0  0
  189.0800  177.2560  143.6160 C   0  0  0  0  0  2  0  0  0  0  0  0
  191.8370  176.5380  137.2250 C   0  0  0  0  0  3  0  0  0  0  0  0
  188.2260  176.7910  137.9840 C   0  0  0  0  0  3  0  0  0  0  0  0
  189.4080  176.5900  137.2620 C   0  0  0  0  0  3  0  0  0  0  0  0
  191.8910  177.2490  141.4020 N   0  0  0  0  0  0  0  0  0  0  0  0
  190.6060  177.2800  143.4990 C   0  0  1  0  0  3  0  0  0  0  0  0
  189.4940  177.7650  141.3870 C   0  0  1  0  0  3  0  0  0  0  0  0
  188.2730  177.1150  139.3060 N   0  0  0  0  0  0  0  0  0  0  0  0
  191.1450  175.9170  143.9290 C   0  0  0  0  0  2  0  0  0  0  0  0
  191.9090  176.0310  145.2380 C   0  0  0  0  0  2  0  0  0  0  0  0
  191.5230  177.2420  145.9400 N   0  0  0  0  0  2  0  0  0  0  0  0
  191.0500  176.8340  147.2520 C   0  0  0  0  0  2  0  0  0  0  0  0
  189.5360  176.6510  147.2300 C   0  0  0  0  0  2  0  0  0  0  0  0
  188.7810  177.8970  147.6910 C   0  0  2  0  0  3  0  0  0  0  0  0
  189.4310  178.4990  148.7730 O   0  0  0  0  0  1  0  0  0  0  0  0
  186.6690  178.3860  147.2350 C   0  0  0  0  0  1  0  0  0  0  0  0
  187.4660  177.5750  148.0450 O   0  0  0  0  0  0  0  0  0  0  0  0
  187.3530  178.0980  142.2690 C   0  0  0  0  0  2  0  0  0  0  0  0
  186.4980  177.8480  143.4970 C   0  0  0  0  0  2  0  0  0  0  0  0
  182.1800  178.8890  142.4550 C   0  0  0  0  0  3  0  0  0  0  0  0
  183.2080  178.6010  141.6560 C   0  0  0  0  0  3  0  0  0  0  0  0
  185.1290  178.3920  143.2760 C   0  0  0  0  0  0  0  0  0  0  0  0
  184.5340  178.1270  142.1030 C   0  0  0  0  0  3  0  0  0  0  0  0
  183.2890  179.4670  144.5850 C   0  0  0  0  0  3  0  0  0  0  0  0
  184.5830  179.2980  144.3100 C   0  0  0  0  0  3  0  0  0  0  0  0
  182.2050  178.6730  143.9320 C   0  0  0  0  0  2  0  0  0  0  0  0
  1  8  1  0  0  0  0
  2 13  1  0  0  0  0
  4  9  1  0  0  0  0
  5  6  1  0  0  0  0
  6  2  2  0  0  0  0
  7 14  1  0  0  0  0
  8  2  1  0  0  0  0
  8  3  2  0  0  0  0
 10  5  2  0  0  0  0
 10  1  1  0  0  0  0
 11 16  2  0  0  0  0
 12  1  2  0  0  0  0
 12 11  1  0  0  0  0
 13  7  2  0  0  0  0
 14  9  1  0  0  0  0
 14 17  1  6  0  0  0
 15  3  1  6  0  0  0
 15  7  1  0  0  0  0
 15  4  1  0  0  0  0
 16  3  1  0  0  0  0
 17 18  1  0  0  0  0
 18 19  1  0  0  0  0
 19 20  1  0  0  0  0
 21 20  1  0  0  0  0
 21 22  1  0  0  0  0
 22 25  1  0  0  0  0
 22 23  1  1  0  0  0
 24 25  1  0  0  0  0
 26  4  1  0  0  0  0
 26 27  1  0  0  0  0
 28 34  1  0  0  0  0
 29 31  1  0  0  0  0
 29 28  2  0  0  0  0
 30 27  1  0  0  0  0
 30 33  1  0  0  0  0
 31 30  2  0  0  0  0
 33 32  2  0  0  0  0
 34 32  1  0  0  0  0
M  END
>  <MODEL>
3

>  <REMARK>
 VINA RESULT:      -8.2      3.062      6.745
  Name = 
  10 active torsions:
  status: ('A' for Active; 'I' for Inactive)
    1  A    between atoms: C_3  and  N_13
    2  A    between atoms: C_3  and  C_17
    3  A    between atoms: N_5  and  C_26
    4  A    between atoms: C_12  and  C_28
    5  A    between atoms: N_13  and  C_33
    6  A    between atoms: O_14  and  C_20
    7  A    between atoms: C_17  and  C_29
    8  A    between atoms: C_20  and  C_34
    9  A    between atoms: C_26  and  C_28
   10  A    between atoms: C_33  and  C_34
                            x       y       z     vdW  Elec       q    Type
                         _______ _______ _______ _____ _____    ______ ____

>  <TORSDO>
F 10

$$$$
=
 OpenBabel11052414133D

 34 38  0  0  1  0  0  0  0  0999 V2000
  184.5610  178.7890  143.4730 C   0  0  0  0  0  0  0  0  0  0  0  0
  186.5480  177.9010  144.5780 C   0  0  0  0  0  0  0  0  0  0  0  0
  186.5230  178.2110  142.1600 C   0  0  0  0  0  0  0  0  0  0  0  0
  188.7910  178.0860  141.1460 N   0  0  0  0  0  0  0  0  0  0  0  0
  184.5740  178.4520  145.8730 C   0  0  0  0  0  3  0  0  0  0  0  0
  185.8940  177.9880  145.8100 C   0  0  0  0  0  3  0  0  0  0  0  0
  188.5450  177.4260  143.3720 C   0  0  0  0  0  0  0  0  0  0  0  0
  185.8760  178.2920  143.4050 C   0  0  0  0  0  0  0  0  0  0  0  0
  190.1170  177.7370  141.6770 C   0  0  0  0  0  2  0  0  0  0  0  0
  183.9110  178.8580  144.7080 C   0  0  0  0  0  3  0  0  0  0  0  0
  184.6020  179.1140  141.0830 C   0  0  0  0  0  3  0  0  0  0  0  0
  183.9240  179.2100  142.3040 C   0  0  0  0  0  3  0  0  0  0  0  0
  187.9460  177.5770  144.5170 N   0  0  0  0  0  0  0  0  0  0  0  0
  190.0080  177.4730  143.1810 C   0  0  1  0  0  3  0  0  0  0  0  0
  187.8420  177.4790  142.0690 C   0  0  1  0  0  3  0  0  0  0  0  0
  185.8660  178.6070  141.0360 N   0  0  0  0  0  0  0  0  0  0  0  0
  190.6300  178.6520  143.9250 C   0  0  0  0  0  2  0  0  0  0  0  0
  191.7840  178.1870  144.7990 C   0  0  0  0  0  2  0  0  0  0  0  0
  191.6480  176.7740  145.0970 N   0  0  0  0  0  2  0  0  0  0  0  0
  191.7330  176.6390  146.5410 C   0  0  0  0  0  2  0  0  0  0  0  0
  190.3800  176.2270  147.1100 C   0  0  0  0  0  2  0  0  0  0  0  0
  189.5470  177.4180  147.5840 C   0  0  2  0  0  3  0  0  0  0  0  0
  190.2240  178.1340  148.5760 O   0  0  0  0  0  1  0  0  0  0  0  0
  187.8540  178.0420  148.8690 C   0  0  0  0  0  1  0  0  0  0  0  0
  188.3060  176.9920  148.0680 O   0  0  0  0  0  0  0  0  0  0  0  0
  188.6530  177.3930  139.8770 C   0  0  0  0  0  2  0  0  0  0  0  0
  189.9050  177.5970  139.0440 C   0  0  0  0  0  2  0  0  0  0  0  0
  190.8850  173.7270  136.8370 C   0  0  0  0  0  3  0  0  0  0  0  0
  191.6990  174.6290  137.3860 C   0  0  0  0  0  3  0  0  0  0  0  0
  190.1040  176.4300  138.1400 C   0  0  0  0  0  0  0  0  0  0  0  0
  191.2730  175.7760  138.2140 C   0  0  0  0  0  3  0  0  0  0  0  0
  188.7610  174.9690  136.6180 C   0  0  0  0  0  3  0  0  0  0  0  0
  189.0540  176.1640  137.1330 C   0  0  0  0  0  3  0  0  0  0  0  0
  189.4110  173.7030  137.0720 C   0  0  0  0  0  2  0  0  0  0  0  0
  1 10  2  0  0  0  0
  2  6  1  0  0  0  0
  3  8  1  0  0  0  0
  4  9  1  0  0  0  0
  4 15  1  0  0  0  0
  6  5  2  0  0  0  0
  7 13  2  0  0  0  0
  8  1  1  0  0  0  0
  8  2  2  0  0  0  0
  9 14  1  0  0  0  0
 10  5  1  0  0  0  0
 11 12  2  0  0  0  0
 12  1  1  0  0  0  0
 13  2  1  0  0  0  0
 14  7  1  0  0  0  0
 14 17  1  1  0  0  0
 15  3  1  1  0  0  0
 15  7  1  0  0  0  0
 16 11  1  0  0  0  0
 16  3  2  0  0  0  0
 17 18  1  0  0  0  0
 18 19  1  0  0  0  0
 19 20  1  0  0  0  0
 20 21  1  0  0  0  0
 21 22  1  0  0  0  0
 22 25  1  0  0  0  0
 22 23  1  1  0  0  0
 25 24  1  0  0  0  0
 26  4  1  0  0  0  0
 27 26  1  0  0  0  0
 28 34  1  0  0  0  0
 28 29  2  0  0  0  0
 29 31  1  0  0  0  0
 30 31  2  0  0  0  0
 30 27  1  0  0  0  0
 32 34  1  0  0  0  0
 32 33  2  0  0  0  0
 33 30  1  0  0  0  0
M  END
>  <MODEL>
4

>  <REMARK>
 VINA RESULT:      -8.0      3.212      7.897
  Name = 
  10 active torsions:
  status: ('A' for Active; 'I' for Inactive)
    1  A    between atoms: C_3  and  N_13
    2  A    between atoms: C_3  and  C_17
    3  A    between atoms: N_5  and  C_26
    4  A    between atoms: C_12  and  C_28
    5  A    between atoms: N_13  and  C_33
    6  A    between atoms: O_14  and  C_20
    7  A    between atoms: C_17  and  C_29
    8  A    between atoms: C_20  and  C_34
    9  A    between atoms: C_26  and  C_28
   10  A    between atoms: C_33  and  C_34
                            x       y       z     vdW  Elec       q    Type
                         _______ _______ _______ _____ _____    ______ ____

>  <TORSDO>
F 10

$$$$
=
 OpenBabel11052414133D

 34 38  0  0  1  0  0  0  0  0999 V2000
  184.2640  178.5650  141.8750 C   0  0  0  0  0  0  0  0  0  0  0  0
  185.5470  178.7120  139.8040 C   0  0  0  0  0  0  0  0  0  0  0  0
  186.6860  178.3600  141.9300 C   0  0  0  0  0  0  0  0  0  0  0  0
  189.0480  177.6310  141.6530 N   0  0  0  0  0  0  0  0  0  0  0  0
  183.1350  178.9470  139.7660 C   0  0  0  0  0  3  0  0  0  0  0  0
  184.3610  178.9040  139.0900 C   0  0  0  0  0  3  0  0  0  0  0  0
  187.9070  178.4020  139.7670 C   0  0  0  0  0  0  0  0  0  0  0  0
  185.5000  178.5540  141.2020 C   0  0  0  0  0  0  0  0  0  0  0  0
  189.9330  177.4960  140.4860 C   0  0  0  0  0  2  0  0  0  0  0  0
  183.0850  178.7720  141.1540 C   0  0  0  0  0  3  0  0  0  0  0  0
  185.4350  178.1750  143.9470 C   0  0  0  0  0  3  0  0  0  0  0  0
  184.2330  178.3650  143.2570 C   0  0  0  0  0  3  0  0  0  0  0  0
  186.7890  178.5110  139.1120 N   0  0  0  0  0  0  0  0  0  0  0  0
  189.1480  177.8270  139.2130 C   0  0  1  0  0  3  0  0  0  0  0  0
  188.0110  178.5660  141.2360 C   0  0  1  0  0  3  0  0  0  0  0  0
  186.6230  178.1920  143.2800 N   0  0  0  0  0  0  0  0  0  0  0  0
  188.8750  176.5260  138.4630 C   0  0  0  0  0  2  0  0  0  0  0  0
  190.0720  176.1350  137.6110 C   0  0  0  0  0  2  0  0  0  0  0  0
  190.5270  174.8040  137.9690 N   0  0  0  0  0  2  0  0  0  0  0  0
  191.9530  174.7590  137.6930 C   0  0  0  0  0  2  0  0  0  0  0  0
  192.5420  176.1640  137.7510 C   0  0  0  0  0  2  0  0  0  0  0  0
  193.6760  176.3750  136.7480 C   0  0  2  0  0  3  0  0  0  0  0  0
  193.2730  176.0090  135.4600 O   0  0  0  0  0  1  0  0  0  0  0  0
  195.1990  174.9750  135.9570 C   0  0  0  0  0  1  0  0  0  0  0  0
  194.8070  175.6400  137.1200 O   0  0  0  0  0  0  0  0  0  0  0  0
  189.8220  178.2890  142.6910 C   0  0  0  0  0  2  0  0  0  0  0  0
  190.8910  177.3440  143.2080 C   0  0  0  0  0  2  0  0  0  0  0  0
  190.7790  176.6790  147.7190 C   0  0  0  0  0  3  0  0  0  0  0  0
  191.6500  176.2400  146.8100 C   0  0  0  0  0  3  0  0  0  0  0  0
  190.6380  177.0320  144.6410 C   0  0  0  0  0  0  0  0  0  0  0  0
  191.6800  176.6410  145.3890 C   0  0  0  0  0  3  0  0  0  0  0  0
  188.8270  177.3110  146.3440 C   0  0  0  0  0  3  0  0  0  0  0  0
  189.2320  177.0450  145.1010 C   0  0  0  0  0  3  0  0  0  0  0  0
  189.7580  177.7300  147.4340 C   0  0  0  0  0  2  0  0  0  0  0  0
  1 12  1  0  0  0  0
  2  8  1  0  0  0  0
  3 16  2  0  0  0  0
  4 26  1  0  0  0  0
  5 10  2  0  0  0  0
  6  5  1  0  0  0  0
  6  2  2  0  0  0  0
  8  1  2  0  0  0  0
  8  3  1  0  0  0  0
  9  4  1  0  0  0  0
 10  1  1  0  0  0  0
 12 11  2  0  0  0  0
 13  7  2  0  0  0  0
 13  2  1  0  0  0  0
 14 17  1  1  0  0  0
 14  7  1  0  0  0  0
 14  9  1  0  0  0  0
 15  7  1  6  0  0  0
 15  4  1  0  0  0  0
 15  3  1  0  0  0  0
 16 11  1  0  0  0  0
 18 19  1  0  0  0  0
 18 17  1  0  0  0  0
 20 21  1  0  0  0  0
 20 19  1  0  0  0  0
 22 23  1  6  0  0  0
 22 25  1  0  0  0  0
 22 21  1  0  0  0  0
 24 25  1  0  0  0  0
 26 27  1  0  0  0  0
 27 30  1  0  0  0  0
 29 28  2  0  0  0  0
 30 33  1  0  0  0  0
 30 31  2  0  0  0  0
 31 29  1  0  0  0  0
 32 34  1  0  0  0  0
 33 32  2  0  0  0  0
 34 28  1  0  0  0  0
M  END
>  <MODEL>
5

>  <REMARK>
 VINA RESULT:      -8.0      2.885      7.369
  Name = 
  10 active torsions:
  status: ('A' for Active; 'I' for Inactive)
    1  A    between atoms: C_3  and  N_13
    2  A    between atoms: C_3  and  C_17
    3  A    between atoms: N_5  and  C_26
    4  A    between atoms: C_12  and  C_28
    5  A    between atoms: N_13  and  C_33
    6  A    between atoms: O_14  and  C_20
    7  A    between atoms: C_17  and  C_29
    8  A    between atoms: C_20  and  C_34
    9  A    between atoms: C_26  and  C_28
   10  A    between atoms: C_33  and  C_34
                            x       y       z     vdW  Elec       q    Type
                         _______ _______ _______ _____ _____    ______ ____

>  <TORSDO>
F 10

$$$$
=
 OpenBabel11052414133D

 34 38  0  0  1  0  0  0  0  0999 V2000
  188.2170  177.5710  137.4510 C   0  0  0  0  0  0  0  0  0  0  0  0
  189.6510  177.5590  139.4260 C   0  0  0  0  0  0  0  0  0  0  0  0
  187.3010  178.1750  139.6200 C   0  0  0  0  0  0  0  0  0  0  0  0
  186.4980  178.1960  141.9740 N   0  0  0  0  0  0  0  0  0  0  0  0
  190.5610  176.9890  137.2530 C   0  0  0  0  0  3  0  0  0  0  0  0
  190.7310  177.1610  138.6330 C   0  0  0  0  0  3  0  0  0  0  0  0
  188.7960  178.0240  141.5990 C   0  0  0  0  0  0  0  0  0  0  0  0
  188.3940  177.7760  138.8320 C   0  0  0  0  0  0  0  0  0  0  0  0
  187.1720  178.0430  143.2730 C   0  0  0  0  0  2  0  0  0  0  0  0
  189.3070  177.1870  136.6640 C   0  0  0  0  0  3  0  0  0  0  0  0
  185.8890  178.1490  137.7040 C   0  0  0  0  0  3  0  0  0  0  0  0
  186.9530  177.7500  136.8860 C   0  0  0  0  0  3  0  0  0  0  0  0
  189.7720  177.5890  140.8570 N   0  0  0  0  0  0  0  0  0  0  0  0
  188.6560  177.7500  143.0430 C   0  0  1  0  0  3  0  0  0  0  0  0
  187.5470  178.6010  141.0480 C   0  0  1  0  0  3  0  0  0  0  0  0
  186.0870  178.3660  139.0340 N   0  0  0  0  0  0  0  0  0  0  0  0
  188.9130  176.2790  143.3590 C   0  0  0  0  0  2  0  0  0  0  0  0
  190.2610  176.1040  144.0420 C   0  0  0  0  0  2  0  0  0  0  0  0
  190.5860  177.2870  144.8180 N   0  0  0  0  0  2  0  0  0  0  0  0
  191.4080  176.8450  145.9310 C   0  0  0  0  0  2  0  0  0  0  0  0
  190.5400  176.6070  147.1620 C   0  0  0  0  0  2  0  0  0  0  0  0
  189.3800  177.5970  147.2700 C   0  0  2  0  0  3  0  0  0  0  0  0
  189.4080  178.2620  148.5000 O   0  0  0  0  0  1  0  0  0  0  0  0
  187.2260  177.9620  146.9060 C   0  0  0  0  0  1  0  0  0  0  0  0
  188.1540  176.9410  147.1110 O   0  0  0  0  0  0  0  0  0  0  0  0
  185.5870  179.3200  142.1050 C   0  0  0  0  0  2  0  0  0  0  0  0
  184.7580  179.1630  143.3650 C   0  0  0  0  0  2  0  0  0  0  0  0
  180.2590  178.7430  142.7410 C   0  0  0  0  0  3  0  0  0  0  0  0
  180.9850  178.6160  143.8520 C   0  0  0  0  0  3  0  0  0  0  0  0
  183.3470  178.8540  143.0040 C   0  0  0  0  0  0  0  0  0  0  0  0
  182.4240  178.9240  143.9750 C   0  0  0  0  0  3  0  0  0  0  0  0
  181.9510  178.5200  140.9550 C   0  0  0  0  0  3  0  0  0  0  0  0
  183.0880  178.3610  141.6340 C   0  0  0  0  0  3  0  0  0  0  0  0
  180.7970  179.3150  141.4720 C   0  0  0  0  0  2  0  0  0  0  0  0
  1  8  1  0  0  0  0
  2 13  1  0  0  0  0
  4 26  1  0  0  0  0
  4  9  1  0  0  0  0
  5  6  1  0  0  0  0
  6  2  2  0  0  0  0
  7 14  1  0  0  0  0
  8  2  1  0  0  0  0
  8  3  2  0  0  0  0
 10  5  2  0  0  0  0
 10  1  1  0  0  0  0
 11 16  2  0  0  0  0
 12  1  2  0  0  0  0
 12 11  1  0  0  0  0
 13  7  2  0  0  0  0
 14  9  1  0  0  0  0
 14 17  1  6  0  0  0
 15  3  1  6  0  0  0
 15  7  1  0  0  0  0
 15  4  1  0  0  0  0
 16  3  1  0  0  0  0
 17 18  1  0  0  0  0
 18 19  1  0  0  0  0
 19 20  1  0  0  0  0
 20 21  1  0  0  0  0
 21 22  1  0  0  0  0
 22 23  1  1  0  0  0
 24 25  1  0  0  0  0
 25 22  1  0  0  0  0
 26 27  1  0  0  0  0
 28 29  2  0  0  0  0
 29 31  1  0  0  0  0
 30 27  1  0  0  0  0
 30 31  2  0  0  0  0
 32 34  1  0  0  0  0
 32 33  2  0  0  0  0
 33 30  1  0  0  0  0
 34 28  1  0  0  0  0
M  END
>  <MODEL>
6

>  <REMARK>
 VINA RESULT:      -7.9      2.661      6.442
  Name = 
  10 active torsions:
  status: ('A' for Active; 'I' for Inactive)
    1  A    between atoms: C_3  and  N_13
    2  A    between atoms: C_3  and  C_17
    3  A    between atoms: N_5  and  C_26
    4  A    between atoms: C_12  and  C_28
    5  A    between atoms: N_13  and  C_33
    6  A    between atoms: O_14  and  C_20
    7  A    between atoms: C_17  and  C_29
    8  A    between atoms: C_20  and  C_34
    9  A    between atoms: C_26  and  C_28
   10  A    between atoms: C_33  and  C_34
                            x       y       z     vdW  Elec       q    Type
                         _______ _______ _______ _____ _____    ______ ____

>  <TORSDO>
F 10

$$$$
=
 OpenBabel11052414133D

 34 38  0  0  1  0  0  0  0  0999 V2000
  189.8790  177.1280  146.9540 C   0  0  0  0  0  0  0  0  0  0  0  0
  190.9570  176.2370  144.9530 C   0  0  0  0  0  0  0  0  0  0  0  0
  188.7560  177.2730  144.8030 C   0  0  0  0  0  0  0  0  0  0  0  0
  188.0920  177.7960  142.4640 N   0  0  0  0  0  0  0  0  0  0  0  0
  192.0540  176.0700  147.1090 C   0  0  0  0  0  3  0  0  0  0  0  0
  192.0530  175.8430  145.7270 C   0  0  0  0  0  3  0  0  0  0  0  0
  189.9710  176.4510  142.7970 C   0  0  0  0  0  0  0  0  0  0  0  0
  189.8630  176.8710  145.5700 C   0  0  0  0  0  0  0  0  0  0  0  0
  188.6870  177.4930  141.1530 C   0  0  0  0  0  2  0  0  0  0  0  0
  190.9730  176.7170  147.7200 C   0  0  0  0  0  3  0  0  0  0  0  0
  187.7190  178.1790  146.7440 C   0  0  0  0  0  3  0  0  0  0  0  0
  188.8030  177.7950  147.5420 C   0  0  0  0  0  3  0  0  0  0  0  0
  191.0100  176.1520  143.5210 N   0  0  0  0  0  0  0  0  0  0  0  0
  190.0170  176.7640  141.3560 C   0  0  1  0  0  3  0  0  0  0  0  0
  188.6510  176.8030  143.3710 C   0  0  1  0  0  3  0  0  0  0  0  0
  187.7110  177.8990  145.4110 N   0  0  0  0  0  0  0  0  0  0  0  0
  191.1530  177.7320  141.0320 C   0  0  0  0  0  2  0  0  0  0  0  0
  191.9940  177.2050  139.8790 C   0  0  0  0  0  2  0  0  0  0  0  0
  191.2130  176.2910  139.0660 N   0  0  0  0  0  2  0  0  0  0  0  0
  191.3310  176.7460  137.6920 C   0  0  0  0  0  2  0  0  0  0  0  0
  190.0090  176.5460  136.9590 C   0  0  0  0  0  2  0  0  0  0  0  0
  189.2600  177.8570  136.7170 C   0  0  2  0  0  3  0  0  0  0  0  0
  189.2080  178.6220  137.8850 O   0  0  0  0  0  1  0  0  0  0  0  0
  187.1860  178.6320  136.7960 C   0  0  0  0  0  1  0  0  0  0  0  0
  187.9630  177.6060  136.2540 O   0  0  0  0  0  0  0  0  0  0  0  0
  186.6700  177.5170  142.3520 C   0  0  0  0  0  2  0  0  0  0  0  0
  185.9120  178.8120  142.1210 C   0  0  0  0  0  2  0  0  0  0  0  0
  181.7400  178.8570  143.9630 C   0  0  0  0  0  3  0  0  0  0  0  0
  182.9240  178.6330  144.5320 C   0  0  0  0  0  3  0  0  0  0  0  0
  184.4990  178.6540  142.5640 C   0  0  0  0  0  0  0  0  0  0  0  0
  184.2360  178.7920  143.8720 C   0  0  0  0  0  3  0  0  0  0  0  0
  182.2110  178.5080  141.5640 C   0  0  0  0  0  3  0  0  0  0  0  0
  183.5130  178.2220  141.5490 C   0  0  0  0  0  3  0  0  0  0  0  0
  181.5840  179.4020  142.5830 C   0  0  0  0  0  2  0  0  0  0  0  0
  1 12  1  0  0  0  0
  1 10  2  0  0  0  0
  2  8  2  0  0  0  0
  2  6  1  0  0  0  0
  3 16  2  0  0  0  0
  3  8  1  0  0  0  0
  4 15  1  0  0  0  0
  5 10  1  0  0  0  0
  6  5  2  0  0  0  0
  7 13  2  0  0  0  0
  8  1  1  0  0  0  0
  9 14  1  0  0  0  0
  9  4  1  0  0  0  0
 11 12  2  0  0  0  0
 13  2  1  0  0  0  0
 14 17  1  1  0  0  0
 14  7  1  0  0  0  0
 15  7  1  6  0  0  0
 15  3  1  0  0  0  0
 16 11  1  0  0  0  0
 18 17  1  0  0  0  0
 19 18  1  0  0  0  0
 20 19  1  0  0  0  0
 21 20  1  0  0  0  0
 22 21  1  0  0  0  0
 22 23  1  1  0  0  0
 25 22  1  0  0  0  0
 25 24  1  0  0  0  0
 26  4  1  0  0  0  0
 27 26  1  0  0  0  0
 27 30  1  0  0  0  0
 28 29  2  0  0  0  0
 30 31  2  0  0  0  0
 31 29  1  0  0  0  0
 32 34  1  0  0  0  0
 33 32  2  0  0  0  0
 33 30  1  0  0  0  0
 34 28  1  0  0  0  0
M  END
>  <MODEL>
7

>  <REMARK>
 VINA RESULT:      -7.8      1.506      2.126
  Name = 
  10 active torsions:
  status: ('A' for Active; 'I' for Inactive)
    1  A    between atoms: C_3  and  N_13
    2  A    between atoms: C_3  and  C_17
    3  A    between atoms: N_5  and  C_26
    4  A    between atoms: C_12  and  C_28
    5  A    between atoms: N_13  and  C_33
    6  A    between atoms: O_14  and  C_20
    7  A    between atoms: C_17  and  C_29
    8  A    between atoms: C_20  and  C_34
    9  A    between atoms: C_26  and  C_28
   10  A    between atoms: C_33  and  C_34
                            x       y       z     vdW  Elec       q    Type
                         _______ _______ _______ _____ _____    ______ ____

>  <TORSDO>
F 10

$$$$
=
 OpenBabel11052414133D

 34 38  0  0  1  0  0  0  0  0999 V2000
  183.9930  178.6380  142.0160 C   0  0  0  0  0  0  0  0  0  0  0  0
  185.1370  178.7800  139.8640 C   0  0  0  0  0  0  0  0  0  0  0  0
  186.4100  178.4030  141.9070 C   0  0  0  0  0  0  0  0  0  0  0  0
  188.7390  177.6480  141.4700 N   0  0  0  0  0  0  0  0  0  0  0  0
  182.7300  179.0440  139.9880 C   0  0  0  0  0  3  0  0  0  0  0  0
  183.9070  178.9890  139.2320 C   0  0  0  0  0  3  0  0  0  0  0  0
  187.4850  178.4420  139.6680 C   0  0  0  0  0  0  0  0  0  0  0  0
  185.1810  178.6160  141.2610 C   0  0  0  0  0  0  0  0  0  0  0  0
  189.5430  177.5080  140.2450 C   0  0  0  0  0  2  0  0  0  0  0  0
  182.7710  178.8620  141.3760 C   0  0  0  0  0  3  0  0  0  0  0  0
  185.2960  178.2240  144.0030 C   0  0  0  0  0  3  0  0  0  0  0  0
  184.0520  178.4320  143.3960 C   0  0  0  0  0  3  0  0  0  0  0  0
  186.3260  178.5680  139.0890 N   0  0  0  0  0  0  0  0  0  0  0  0
  188.6790  177.8540  139.0300 C   0  0  1  0  0  3  0  0  0  0  0  0
  187.6890  178.5970  141.1270 C   0  0  1  0  0  3  0  0  0  0  0  0
  186.4360  178.2300  143.2580 N   0  0  0  0  0  0  0  0  0  0  0  0
  188.3400  176.5610  138.2940 C   0  0  0  0  0  2  0  0  0  0  0  0
  188.2320  176.8060  136.7970 C   0  0  0  0  0  2  0  0  0  0  0  0
  187.7540  175.6110  136.1270 N   0  0  0  0  0  2  0  0  0  0  0  0
  186.7870  176.0460  135.1330 C   0  0  0  0  0  2  0  0  0  0  0  0
  185.8260  177.0590  135.7460 C   0  0  0  0  0  2  0  0  0  0  0  0
  184.5050  176.4300  136.1900 C   0  0  2  0  0  3  0  0  0  0  0  0
  183.4460  177.3260  136.0180 O   0  0  0  0  0  1  0  0  0  0  0  0
  184.1170  174.7100  137.5310 C   0  0  0  0  0  1  0  0  0  0  0  0
  184.5750  176.0280  137.5290 O   0  0  0  0  0  0  0  0  0  0  0  0
  189.5890  178.2910  142.4570 C   0  0  0  0  0  2  0  0  0  0  0  0
  190.6460  177.3130  142.9370 C   0  0  0  0  0  2  0  0  0  0  0  0
  190.6770  176.7940  147.4680 C   0  0  0  0  0  3  0  0  0  0  0  0
  191.5660  176.4000  146.5550 C   0  0  0  0  0  3  0  0  0  0  0  0
  190.4480  177.0290  144.3850 C   0  0  0  0  0  0  0  0  0  0  0  0
  191.5340  176.7540  145.1220 C   0  0  0  0  0  3  0  0  0  0  0  0
  188.6520  177.2090  146.1170 C   0  0  0  0  0  3  0  0  0  0  0  0
  189.0550  176.9370  144.8750 C   0  0  0  0  0  3  0  0  0  0  0  0
  189.5640  177.7430  147.1720 C   0  0  0  0  0  2  0  0  0  0  0  0
  1 12  1  0  0  0  0
  2  8  1  0  0  0  0
  3 16  2  0  0  0  0
  4 26  1  0  0  0  0
  5 10  2  0  0  0  0
  6  2  2  0  0  0  0
  6  5  1  0  0  0  0
  8  3  1  0  0  0  0
  8  1  2  0  0  0  0
  9  4  1  0  0  0  0
 10  1  1  0  0  0  0
 12 11  2  0  0  0  0
 13  7  2  0  0  0  0
 13  2  1  0  0  0  0
 14 17  1  1  0  0  0
 14  7  1  0  0  0  0
 14  9  1  0  0  0  0
 15  7  1  6  0  0  0
 15  4  1  0  0  0  0
 15  3  1  0  0  0  0
 16 11  1  0  0  0  0
 18 17  1  0  0  0  0
 19 18  1  0  0  0  0
 20 21  1  0  0  0  0
 20 19  1  0  0  0  0
 21 22  1  0  0  0  0
 22 23  1  1  0  0  0
 22 25  1  0  0  0  0
 25 24  1  0  0  0  0
 26 27  1  0  0  0  0
 27 30  1  0  0  0  0
 29 28  2  0  0  0  0
 30 33  1  0  0  0  0
 30 31  2  0  0  0  0
 31 29  1  0  0  0  0
 32 34  1  0  0  0  0
 33 32  2  0  0  0  0
 34 28  1  0  0  0  0
M  END
>  <MODEL>
8

>  <REMARK>
 VINA RESULT:      -7.6      1.858      6.730
  Name = 
  10 active torsions:
  status: ('A' for Active; 'I' for Inactive)
    1  A    between atoms: C_3  and  N_13
    2  A    between atoms: C_3  and  C_17
    3  A    between atoms: N_5  and  C_26
    4  A    between atoms: C_12  and  C_28
    5  A    between atoms: N_13  and  C_33
    6  A    between atoms: O_14  and  C_20
    7  A    between atoms: C_17  and  C_29
    8  A    between atoms: C_20  and  C_34
    9  A    between atoms: C_26  and  C_28
   10  A    between atoms: C_33  and  C_34
                            x       y       z     vdW  Elec       q    Type
                         _______ _______ _______ _____ _____    ______ ____

>  <TORSDO>
F 10

$$$$
=
 OpenBabel11052414133D

 34 38  0  0  1  0  0  0  0  0999 V2000
  184.7170  178.7070  144.5580 C   0  0  0  0  0  0  0  0  0  0  0  0
  186.9370  177.7180  144.7800 C   0  0  0  0  0  0  0  0  0  0  0  0
  186.0940  178.3590  142.5860 C   0  0  0  0  0  0  0  0  0  0  0  0
  187.8720  178.4250  140.8480 N   0  0  0  0  0  0  0  0  0  0  0  0
  185.5430  178.0410  146.7370 C   0  0  0  0  0  3  0  0  0  0  0  0
  186.7480  177.6180  146.1620 C   0  0  0  0  0  3  0  0  0  0  0  0
  188.3860  177.4570  142.9090 C   0  0  0  0  0  0  0  0  0  0  0  0
  185.9150  178.2530  143.9750 C   0  0  0  0  0  0  0  0  0  0  0  0
  189.2910  178.0340  140.8380 C   0  0  0  0  0  2  0  0  0  0  0  0
  184.5320  178.5900  145.9390 C   0  0  0  0  0  3  0  0  0  0  0  0
  183.9460  179.3620  142.3690 C   0  0  0  0  0  3  0  0  0  0  0  0
  183.7300  179.2730  143.7490 C   0  0  0  0  0  3  0  0  0  0  0  0
  188.2200  177.4350  144.2000 N   0  0  0  0  0  0  0  0  0  0  0  0
  189.6960  177.5620  142.2370 C   0  0  1  0  0  3  0  0  0  0  0  0
  187.2800  177.6760  141.9480 C   0  0  1  0  0  3  0  0  0  0  0  0
  185.1020  178.8930  141.8210 N   0  0  0  0  0  0  0  0  0  0  0  0
  190.5680  178.6390  142.8770 C   0  0  0  0  0  2  0  0  0  0  0  0
  191.6790  178.0110  143.7020 C   0  0  0  0  0  2  0  0  0  0  0  0
  191.6790  176.5700  143.5270 N   0  0  0  0  0  2  0  0  0  0  0  0
  191.6330  175.9860  144.8570 C   0  0  0  0  0  2  0  0  0  0  0  0
  191.6270  177.0860  145.9130 C   0  0  0  0  0  2  0  0  0  0  0  0
  191.2380  176.5750  147.3000 C   0  0  2  0  0  3  0  0  0  0  0  0
  191.5950  177.4980  148.2870 O   0  0  0  0  0  1  0  0  0  0  0  0
  192.8670  175.6290  148.4650 C   0  0  0  0  0  1  0  0  0  0  0  0
  191.8450  175.3410  147.5600 O   0  0  0  0  0  0  0  0  0  0  0  0
  187.2890  177.9120  139.6200 C   0  0  0  0  0  2  0  0  0  0  0  0
  188.3810  177.6770  138.5940 C   0  0  0  0  0  2  0  0  0  0  0  0
  186.1340  175.6510  135.1800 C   0  0  0  0  0  3  0  0  0  0  0  0
  186.8690  175.1180  136.1570 C   0  0  0  0  0  3  0  0  0  0  0  0
  187.7850  177.1500  137.3350 C   0  0  0  0  0  0  0  0  0  0  0  0
  187.4310  175.8570  137.3060 C   0  0  0  0  0  3  0  0  0  0  0  0
  186.8580  178.0120  135.1780 C   0  0  0  0  0  3  0  0  0  0  0  0
  187.7520  178.0570  136.1670 C   0  0  0  0  0  3  0  0  0  0  0  0
  185.6940  177.0770  135.1710 C   0  0  0  0  0  2  0  0  0  0  0  0
  1 10  2  0  0  0  0
  2  6  1  0  0  0  0
  3  8  1  0  0  0  0
  4 15  1  0  0  0  0
  6  5  2  0  0  0  0
  7 13  2  0  0  0  0
  8  1  1  0  0  0  0
  8  2  2  0  0  0  0
  9  4  1  0  0  0  0
  9 14  1  0  0  0  0
 10  5  1  0  0  0  0
 11 12  2  0  0  0  0
 12  1  1  0  0  0  0
 13  2  1  0  0  0  0
 14 17  1  1  0  0  0
 14  7  1  0  0  0  0
 15  3  1  1  0  0  0
 15  7  1  0  0  0  0
 16 11  1  0  0  0  0
 16  3  2  0  0  0  0
 17 18  1  0  0  0  0
 19 18  1  0  0  0  0
 19 20  1  0  0  0  0
 20 21  1  0  0  0  0
 21 22  1  0  0  0  0
 22 25  1  0  0  0  0
 22 23  1  1  0  0  0
 25 24  1  0  0  0  0
 26  4  1  0  0  0  0
 27 26  1  0  0  0  0
 28 29  2  0  0  0  0
 29 31  1  0  0  0  0
 30 27  1  0  0  0  0
 31 30  2  0  0  0  0
 32 33  2  0  0  0  0
 33 30  1  0  0  0  0
 34 32  1  0  0  0  0
 34 28  1  0  0  0  0
M  END
>  <MODEL>
9

>  <REMARK>
 VINA RESULT:      -7.4      3.408      7.140
  Name = 
  10 active torsions:
  status: ('A' for Active; 'I' for Inactive)
    1  A    between atoms: C_3  and  N_13
    2  A    between atoms: C_3  and  C_17
    3  A    between atoms: N_5  and  C_26
    4  A    between atoms: C_12  and  C_28
    5  A    between atoms: N_13  and  C_33
    6  A    between atoms: O_14  and  C_20
    7  A    between atoms: C_17  and  C_29
    8  A    between atoms: C_20  and  C_34
    9  A    between atoms: C_26  and  C_28
   10  A    between atoms: C_33  and  C_34
                            x       y       z     vdW  Elec       q    Type
                         _______ _______ _______ _____ _____    ______ ____

>  <TORSDO>
F 10

$$$$
