=
 OpenBabel11052415403D

 34 38  0  0  1  0  0  0  0  0999 V2000
  185.4780  178.2580  142.3570 C   0  0  2  0  0  3  0  0  0  0  0  0
  185.6540  179.3850  146.0320 C   0  0  0  0  0  2  0  0  0  0  0  0
  183.8540  179.5810  144.3540 C   0  0  0  0  0  2  0  0  0  0  0  0
  183.3700  177.6990  141.1050 C   0  0  0  0  0  3  0  0  0  0  0  0
  181.2000  178.4050  141.9170 C   0  0  0  0  0  3  0  0  0  0  0  0
  181.9810  177.7540  140.9560 C   0  0  0  0  0  3  0  0  0  0  0  0
  183.1950  178.9410  143.1790 C   0  0  0  0  0  0  0  0  0  0  0  0
  183.9810  178.2880  142.2170 C   0  0  0  0  0  0  0  0  0  0  0  0
  181.8070  179.0040  143.0260 C   0  0  0  0  0  3  0  0  0  0  0  0
  186.3500  178.3980  146.9590 C   0  0  0  0  0  2  0  0  0  0  0  0
  187.4760  177.7460  146.2870 N   0  0  0  0  0  0  0  0  0  0  0  0
  186.8920  176.6030  145.5860 C   0  0  0  0  0  2  0  0  0  0  0  0
  184.9460  178.6660  144.8930 C   0  0  1  0  0  3  0  0  0  0  0  0
  186.6660  176.9150  144.1060 C   0  0  0  0  0  2  0  0  0  0  0  0
  185.9850  178.2600  143.8160 C   0  0  1  0  0  3  0  0  0  0  0  0
  188.3830  177.2300  147.3220 C   0  0  0  0  0  3  0  0  0  0  0  0
  189.8120  177.1340  146.8070 C   0  0  0  0  0  1  0  0  0  0  0  0
  188.3980  178.1380  148.5420 C   0  0  0  0  0  1  0  0  0  0  0  0
  186.1310  179.3740  141.5470 C   0  0  0  0  0  2  0  0  0  0  0  0
  186.8180  178.8500  140.4450 O   0  0  0  0  0  0  0  0  0  0  0  0
  188.0540  178.4390  140.9510 C   0  0  0  0  0  2  0  0  0  0  0  0
  189.0430  176.8690  137.5750 C   0  0  0  0  0  2  0  0  0  0  0  0
  190.1420  177.5760  140.1080 N   0  0  0  0  0  0  0  0  0  0  0  0
  192.7310  176.0630  137.1180 C   0  0  0  0  0  0  0  0  0  0  0  0
  191.3670  176.2380  136.8440 C   0  0  0  0  0  3  0  0  0  0  0  0
  190.5170  176.7600  137.8230 C   0  0  0  0  0  0  0  0  0  0  0  0
  192.3790  176.8880  139.3730 C   0  0  0  0  0  3  0  0  0  0  0  0
  191.0230  177.0780  139.0940 C   0  0  0  0  0  0  0  0  0  0  0  0
  193.2310  176.3840  138.3870 C   0  0  0  0  0  3  0  0  0  0  0  0
  188.9180  177.9250  139.8480 C   0  0  0  0  0  0  0  0  0  0  0  0
  188.4180  177.9760  138.4280 C   0  0  0  0  0  2  0  0  0  0  0  0
  193.6690  175.5320  136.0820 C   0  0  1  0  0  3  0  0  0  0  0  0
  193.2710  176.0060  134.6970 C   0  0  0  0  0  1  0  0  0  0  0  0
  194.9810  175.9240  136.3650 O   0  0  0  0  0  1  0  0  0  0  0  0
  1 19  1  6  0  0  0
  1 15  1  0  0  0  0
  2 10  1  0  0  0  0
  4  8  1  0  0  0  0
  5  9  2  0  0  0  0
  6  4  2  0  0  0  0
  6  5  1  0  0  0  0
  7  3  1  0  0  0  0
  8  1  1  0  0  0  0
  8  7  2  0  0  0  0
  9  7  1  0  0  0  0
 11 10  1  0  0  0  0
 11 16  1  0  0  0  0
 12 11  1  0  0  0  0
 13  3  1  6  0  0  0
 13  2  1  0  0  0  0
 14 12  1  0  0  0  0
 15 14  1  1  0  0  0
 15 13  1  0  0  0  0
 16 18  1  0  0  0  0
 17 16  1  0  0  0  0
 20 21  1  0  0  0  0
 20 19  1  0  0  0  0
 22 26  1  0  0  0  0
 22 31  1  0  0  0  0
 24 29  1  0  0  0  0
 25 24  2  0  0  0  0
 25 26  1  0  0  0  0
 26 28  2  0  0  0  0
 28 27  1  0  0  0  0
 28 23  1  0  0  0  0
 29 27  2  0  0  0  0
 30 23  2  0  0  0  0
 30 21  1  0  0  0  0
 31 30  1  0  0  0  0
 32 33  1  6  0  0  0
 32 34  1  0  0  0  0
 32 24  1  0  0  0  0
M  END
>  <MODEL>
1

>  <REMARK>
 VINA RESULT:      -9.3      0.000      0.000
  Name = 
  6 active torsions:
  status: ('A' for Active; 'I' for Inactive)
    1  A    between atoms: C_1  and  C_9
    2  A    between atoms: C_3  and  N_25
    3  A    between atoms: C_7  and  C_11
    4  A    between atoms: O_8  and  C_9
    5  A    between atoms: O_8  and  C_18
    6  A    between atoms: C_18  and  C_30
                            x       y       z     vdW  Elec       q    Type
                         _______ _______ _______ _____ _____    ______ ____

>  <TORSDO>
F 6

$$$$
=
 OpenBabel11052415403D

 34 38  0  0  1  0  0  0  0  0999 V2000
  180.1440  179.4430  140.3100 C   0  0  2  0  0  3  0  0  0  0  0  0
  182.0130  182.2200  138.4130 C   0  0  0  0  0  2  0  0  0  0  0  0
  182.7050  179.9390  139.0580 C   0  0  0  0  0  2  0  0  0  0  0  0
  180.5860  176.9770  140.0900 C   0  0  0  0  0  3  0  0  0  0  0  0
  182.6440  176.1500  139.1160 C   0  0  0  0  0  3  0  0  0  0  0  0
  181.4010  175.9060  139.7100 C   0  0  0  0  0  3  0  0  0  0  0  0
  182.2540  178.5340  139.2740 C   0  0  0  0  0  0  0  0  0  0  0  0
  181.0070  178.2930  139.8700 C   0  0  0  0  0  0  0  0  0  0  0  0
  183.0730  177.4640  138.9030 C   0  0  0  0  0  3  0  0  0  0  0  0
  181.1510  182.9950  137.4260 C   0  0  0  0  0  2  0  0  0  0  0  0
  179.7940  183.1790  137.9420 N   0  0  0  0  0  0  0  0  0  0  0  0
  179.0700  181.9710  137.5500 C   0  0  0  0  0  2  0  0  0  0  0  0
  181.5430  180.7780  138.5390 C   0  0  1  0  0  3  0  0  0  0  0  0
  178.9790  180.9760  138.7090 C   0  0  0  0  0  2  0  0  0  0  0  0
  180.2960  180.7220  139.4570 C   0  0  1  0  0  3  0  0  0  0  0  0
  179.1910  184.3190  137.2350 C   0  0  0  0  0  3  0  0  0  0  0  0
  179.0950  185.5410  138.1370 C   0  0  0  0  0  1  0  0  0  0  0  0
  180.0190  184.7120  136.0200 C   0  0  0  0  0  1  0  0  0  0  0  0
  180.3420  179.7450  141.7930 C   0  0  0  0  0  2  0  0  0  0  0  0
  181.0960  178.7380  142.4070 O   0  0  0  0  0  0  0  0  0  0  0  0
  181.5750  179.3110  143.5870 C   0  0  0  0  0  2  0  0  0  0  0  0
  185.1040  177.9770  142.8070 C   0  0  0  0  0  2  0  0  0  0  0  0
  183.4770  178.8220  144.9890 N   0  0  0  0  0  0  0  0  0  0  0  0
  187.5180  177.8080  145.7400 C   0  0  0  0  0  0  0  0  0  0  0  0
  187.0120  177.7560  144.4320 C   0  0  0  0  0  3  0  0  0  0  0  0
  185.6840  178.1130  144.1810 C   0  0  0  0  0  0  0  0  0  0  0  0
  185.3470  178.5300  146.5480 C   0  0  0  0  0  3  0  0  0  0  0  0
  184.8470  178.4940  145.2440 C   0  0  0  0  0  0  0  0  0  0  0  0
  186.6800  178.1900  146.7940 C   0  0  0  0  0  3  0  0  0  0  0  0
  183.0140  178.9650  143.7830 C   0  0  0  0  0  0  0  0  0  0  0  0
  183.9420  178.9510  142.5960 C   0  0  0  0  0  2  0  0  0  0  0  0
  188.9410  177.4560  146.0340 C   0  0  1  0  0  3  0  0  0  0  0  0
  189.8770  178.0860  145.0190 C   0  0  0  0  0  1  0  0  0  0  0  0
  189.2870  177.8670  147.3250 O   0  0  0  0  0  1  0  0  0  0  0  0
  1 19  1  1  0  0  0
  3  7  1  0  0  0  0
  5  6  1  0  0  0  0
  6  4  2  0  0  0  0
  7  8  2  0  0  0  0
  8  4  1  0  0  0  0
  8  1  1  0  0  0  0
  9  5  2  0  0  0  0
  9  7  1  0  0  0  0
 10 11  1  0  0  0  0
 10  2  1  0  0  0  0
 12 11  1  0  0  0  0
 12 14  1  0  0  0  0
 13  2  1  1  0  0  0
 13  3  1  0  0  0  0
 13 15  1  0  0  0  0
 15 14  1  6  0  0  0
 15  1  1  0  0  0  0
 16 11  1  0  0  0  0
 16 17  1  0  0  0  0
 18 16  1  0  0  0  0
 19 20  1  0  0  0  0
 20 21  1  0  0  0  0
 21 30  1  0  0  0  0
 22 26  1  0  0  0  0
 23 28  1  0  0  0  0
 24 32  1  0  0  0  0
 24 29  1  0  0  0  0
 25 24  2  0  0  0  0
 26 25  1  0  0  0  0
 26 28  2  0  0  0  0
 27 29  2  0  0  0  0
 28 27  1  0  0  0  0
 30 23  2  0  0  0  0
 31 22  1  0  0  0  0
 31 30  1  0  0  0  0
 32 33  1  6  0  0  0
 32 34  1  0  0  0  0
M  END
>  <MODEL>
2

>  <REMARK>
 VINA RESULT:      -9.1      5.353      9.294
  Name = 
  6 active torsions:
  status: ('A' for Active; 'I' for Inactive)
    1  A    between atoms: C_1  and  C_9
    2  A    between atoms: C_3  and  N_25
    3  A    between atoms: C_7  and  C_11
    4  A    between atoms: O_8  and  C_9
    5  A    between atoms: O_8  and  C_18
    6  A    between atoms: C_18  and  C_30
                            x       y       z     vdW  Elec       q    Type
                         _______ _______ _______ _____ _____    ______ ____

>  <TORSDO>
F 6

$$$$
=
 OpenBabel11052415403D

 34 38  0  0  1  0  0  0  0  0999 V2000
  185.1940  177.9470  138.6050 C   0  0  2  0  0  3  0  0  0  0  0  0
  183.9540  176.8360  135.1370 C   0  0  0  0  0  2  0  0  0  0  0  0
  186.0780  177.8740  135.8500 C   0  0  0  0  0  2  0  0  0  0  0  0
  187.6030  178.1110  139.3070 C   0  0  0  0  0  3  0  0  0  0  0  0
  189.3890  178.1680  137.6700 C   0  0  0  0  0  3  0  0  0  0  0  0
  188.9660  178.1910  139.0040 C   0  0  0  0  0  3  0  0  0  0  0  0
  187.0880  177.9760  136.9430 C   0  0  0  0  0  0  0  0  0  0  0  0
  186.6610  177.9990  138.2790 C   0  0  0  0  0  0  0  0  0  0  0  0
  188.4500  178.0660  136.6390 C   0  0  0  0  0  3  0  0  0  0  0  0
  183.1810  175.5240  135.1370 C   0  0  0  0  0  2  0  0  0  0  0  0
  182.3550  175.3980  136.3390 N   0  0  0  0  0  0  0  0  0  0  0  0
  183.2400  174.8220  137.3510 C   0  0  0  0  0  2  0  0  0  0  0  0
  185.0130  176.8510  136.2300 C   0  0  1  0  0  3  0  0  0  0  0  0
  183.7890  175.8990  138.2880 C   0  0  0  0  0  2  0  0  0  0  0  0
  184.3400  177.1520  137.5940 C   0  0  1  0  0  3  0  0  0  0  0  0
  181.2910  174.4240  136.0580 C   0  0  0  0  0  3  0  0  0  0  0  0
  181.8450  173.1800  135.3780 C   0  0  0  0  0  1  0  0  0  0  0  0
  180.6030  173.9760  137.3390 C   0  0  0  0  0  1  0  0  0  0  0  0
  184.6280  179.3480  138.8220 C   0  0  0  0  0  2  0  0  0  0  0  0
  184.7520  179.7310  140.1640 O   0  0  0  0  0  0  0  0  0  0  0  0
  183.9400  178.8420  140.8710 C   0  0  0  0  0  2  0  0  0  0  0  0
  184.3150  179.1800  144.6900 C   0  0  0  0  0  2  0  0  0  0  0  0
  185.6990  178.2090  142.3950 N   0  0  0  0  0  0  0  0  0  0  0  0
  187.4130  177.5880  146.2170 C   0  0  0  0  0  0  0  0  0  0  0  0
  186.1720  178.2320  146.0990 C   0  0  0  0  0  3  0  0  0  0  0  0
  185.5950  178.4160  144.8390 C   0  0  0  0  0  0  0  0  0  0  0  0
  187.5180  177.3580  143.8030 C   0  0  0  0  0  3  0  0  0  0  0  0
  186.2740  177.9840  143.6870 C   0  0  0  0  0  0  0  0  0  0  0  0
  188.0840  177.1590  145.0650 C   0  0  0  0  0  3  0  0  0  0  0  0
  184.4790  178.6320  142.2470 C   0  0  0  0  0  0  0  0  0  0  0  0
  183.5570  178.7500  143.4320 C   0  0  0  0  0  2  0  0  0  0  0  0
  188.0420  177.3550  147.5520 C   0  0  1  0  0  3  0  0  0  0  0  0
  189.5340  177.1140  147.4150 C   0  0  0  0  0  1  0  0  0  0  0  0
  187.8080  178.4430  148.3990 O   0  0  0  0  0  1  0  0  0  0  0  0
  1 19  1  6  0  0  0
  2 10  1  0  0  0  0
  3 13  1  0  0  0  0
  3  7  1  0  0  0  0
  5  6  2  0  0  0  0
  6  4  1  0  0  0  0
  7  8  1  0  0  0  0
  8  1  1  0  0  0  0
  8  4  2  0  0  0  0
  9  7  2  0  0  0  0
  9  5  1  0  0  0  0
 10 11  1  0  0  0  0
 11 12  1  0  0  0  0
 12 14  1  0  0  0  0
 13  2  1  6  0  0  0
 13 15  1  0  0  0  0
 15 14  1  1  0  0  0
 15  1  1  0  0  0  0
 16 11  1  0  0  0  0
 16 18  1  0  0  0  0
 17 16  1  0  0  0  0
 19 20  1  0  0  0  0
 20 21  1  0  0  0  0
 21 30  1  0  0  0  0
 22 26  1  0  0  0  0
 23 28  1  0  0  0  0
 24 32  1  0  0  0  0
 25 24  1  0  0  0  0
 26 25  2  0  0  0  0
 27 29  1  0  0  0  0
 28 27  2  0  0  0  0
 28 26  1  0  0  0  0
 29 24  2  0  0  0  0
 30 23  2  0  0  0  0
 30 31  1  0  0  0  0
 31 22  1  0  0  0  0
 32 33  1  6  0  0  0
 32 34  1  0  0  0  0
M  END
>  <MODEL>
3

>  <REMARK>
 VINA RESULT:      -9.1      3.741      9.241
  Name = 
  6 active torsions:
  status: ('A' for Active; 'I' for Inactive)
    1  A    between atoms: C_1  and  C_9
    2  A    between atoms: C_3  and  N_25
    3  A    between atoms: C_7  and  C_11
    4  A    between atoms: O_8  and  C_9
    5  A    between atoms: O_8  and  C_18
    6  A    between atoms: C_18  and  C_30
                            x       y       z     vdW  Elec       q    Type
                         _______ _______ _______ _____ _____    ______ ____

>  <TORSDO>
F 6

$$$$
=
 OpenBabel11052415403D

 34 38  0  0  1  0  0  0  0  0999 V2000
  183.2530  178.7490  139.0260 C   0  0  2  0  0  3  0  0  0  0  0  0
  183.9180  176.0790  136.3380 C   0  0  0  0  0  2  0  0  0  0  0  0
  182.0520  177.6700  136.6250 C   0  0  0  0  0  2  0  0  0  0  0  0
  181.8740  180.8280  138.7050 C   0  0  0  0  0  3  0  0  0  0  0  0
  180.3310  181.0390  136.8500 C   0  0  0  0  0  3  0  0  0  0  0  0
  180.9190  181.5690  138.0030 C   0  0  0  0  0  3  0  0  0  0  0  0
  181.6590  179.0300  137.0940 C   0  0  0  0  0  0  0  0  0  0  0  0
  182.2500  179.5600  138.2510 C   0  0  0  0  0  0  0  0  0  0  0  0
  180.6970  179.7680  136.3980 C   0  0  0  0  0  3  0  0  0  0  0  0
  185.3730  175.9780  135.9000 C   0  0  0  0  0  2  0  0  0  0  0  0
  186.2800  176.1920  137.0290 N   0  0  0  0  0  0  0  0  0  0  0  0
  186.4550  177.6410  137.1080 C   0  0  0  0  0  2  0  0  0  0  0  0
  183.5620  177.5030  136.7400 C   0  0  1  0  0  3  0  0  0  0  0  0
  185.5590  178.2520  138.1870 C   0  0  0  0  0  2  0  0  0  0  0  0
  184.0980  177.7830  138.1680 C   0  0  1  0  0  3  0  0  0  0  0  0
  187.5790  175.5950  136.6860 C   0  0  0  0  0  3  0  0  0  0  0  0
  188.6820  176.1070  137.6000 C   0  0  0  0  0  1  0  0  0  0  0  0
  187.5400  174.0800  136.8210 C   0  0  0  0  0  1  0  0  0  0  0  0
  182.5890  178.0150  140.1880 C   0  0  0  0  0  2  0  0  0  0  0  0
  183.5320  177.6840  141.1690 O   0  0  0  0  0  0  0  0  0  0  0  0
  183.7830  178.8780  141.8490 C   0  0  0  0  0  2  0  0  0  0  0  0
  184.7910  179.0040  145.5650 C   0  0  0  0  0  2  0  0  0  0  0  0
  185.7930  178.2270  143.0130 N   0  0  0  0  0  0  0  0  0  0  0  0
  188.1480  177.4510  146.4450 C   0  0  0  0  0  0  0  0  0  0  0  0
  186.8870  178.0510  146.5790 C   0  0  0  0  0  3  0  0  0  0  0  0
  186.0990  178.2850  145.4480 C   0  0  0  0  0  0  0  0  0  0  0  0
  187.8490  177.3690  144.0380 C   0  0  0  0  0  3  0  0  0  0  0  0
  186.5860  177.9500  144.1730 C   0  0  0  0  0  0  0  0  0  0  0  0
  188.6270  177.1180  145.1720 C   0  0  0  0  0  3  0  0  0  0  0  0
  184.5540  178.6090  143.0980 C   0  0  0  0  0  0  0  0  0  0  0  0
  183.8430  178.6200  144.4260 C   0  0  0  0  0  2  0  0  0  0  0  0
  189.0010  177.1650  147.6390 C   0  0  1  0  0  3  0  0  0  0  0  0
  190.4010  176.7560  147.2190 C   0  0  0  0  0  1  0  0  0  0  0  0
  189.0590  178.2820  148.4760 O   0  0  0  0  0  1  0  0  0  0  0  0
  1 19  1  1  0  0  0
  3 13  1  0  0  0  0
  3  7  1  0  0  0  0
  5  6  1  0  0  0  0
  6  4  2  0  0  0  0
  7  8  2  0  0  0  0
  8  4  1  0  0  0  0
  8  1  1  0  0  0  0
  9  5  2  0  0  0  0
  9  7  1  0  0  0  0
 10  2  1  0  0  0  0
 10 11  1  0  0  0  0
 11 12  1  0  0  0  0
 12 14  1  0  0  0  0
 13  2  1  1  0  0  0
 13 15  1  0  0  0  0
 15 14  1  6  0  0  0
 15  1  1  0  0  0  0
 16 18  1  0  0  0  0
 16 11  1  0  0  0  0
 16 17  1  0  0  0  0
 19 20  1  0  0  0  0
 20 21  1  0  0  0  0
 21 30  1  0  0  0  0
 23 30  2  0  0  0  0
 23 28  1  0  0  0  0
 24 25  1  0  0  0  0
 24 32  1  0  0  0  0
 26 22  1  0  0  0  0
 26 25  2  0  0  0  0
 27 28  2  0  0  0  0
 27 29  1  0  0  0  0
 28 26  1  0  0  0  0
 29 24  2  0  0  0  0
 30 31  1  0  0  0  0
 31 22  1  0  0  0  0
 32 33  1  6  0  0  0
 32 34  1  0  0  0  0
M  END
>  <MODEL>
4

>  <REMARK>
 VINA RESULT:      -9.1      3.432      8.385
  Name = 
  6 active torsions:
  status: ('A' for Active; 'I' for Inactive)
    1  A    between atoms: C_1  and  C_9
    2  A    between atoms: C_3  and  N_25
    3  A    between atoms: C_7  and  C_11
    4  A    between atoms: O_8  and  C_9
    5  A    between atoms: O_8  and  C_18
    6  A    between atoms: C_18  and  C_30
                            x       y       z     vdW  Elec       q    Type
                         _______ _______ _______ _____ _____    ______ ____

>  <TORSDO>
F 6

$$$$
=
 OpenBabel11052415403D

 34 38  0  0  1  0  0  0  0  0999 V2000
  183.2900  179.1080  138.7270 C   0  0  2  0  0  3  0  0  0  0  0  0
  181.7430  175.6200  139.2250 C   0  0  0  0  0  2  0  0  0  0  0  0
  180.8510  177.8760  139.6840 C   0  0  0  0  0  2  0  0  0  0  0  0
  181.9980  181.2360  138.3690 C   0  0  0  0  0  3  0  0  0  0  0  0
  179.6420  181.3830  138.9100 C   0  0  0  0  0  3  0  0  0  0  0  0
  180.8150  181.9780  138.4360 C   0  0  0  0  0  3  0  0  0  0  0  0
  180.8300  179.3010  139.2440 C   0  0  0  0  0  0  0  0  0  0  0  0
  182.0090  179.8950  138.7680 C   0  0  0  0  0  0  0  0  0  0  0  0
  179.6500  180.0460  139.3190 C   0  0  0  0  0  3  0  0  0  0  0  0
  182.0400  174.6360  138.1020 C   0  0  0  0  0  2  0  0  0  0  0  0
  183.3960  174.8220  137.5820 N   0  0  0  0  0  0  0  0  0  0  0  0
  183.2750  175.8680  136.5680 C   0  0  0  0  0  2  0  0  0  0  0  0
  181.6680  177.0460  138.7000 C   0  0  1  0  0  3  0  0  0  0  0  0
  183.6960  177.2310  137.1200 C   0  0  0  0  0  2  0  0  0  0  0  0
  183.1040  177.5930  138.4900 C   0  0  1  0  0  3  0  0  0  0  0  0
  183.7970  173.5790  136.9070 C   0  0  0  0  0  3  0  0  0  0  0  0
  184.9420  172.8950  137.6400 C   0  0  0  0  0  1  0  0  0  0  0  0
  182.6410  172.5910  136.8430 C   0  0  0  0  0  1  0  0  0  0  0  0
  184.1370  179.3690  139.9700 C   0  0  0  0  0  2  0  0  0  0  0  0
  184.0810  178.2790  140.8460 O   0  0  0  0  0  0  0  0  0  0  0  0
  183.4640  178.7710  141.9990 C   0  0  0  0  0  2  0  0  0  0  0  0
  184.7470  178.9610  145.6260 C   0  0  0  0  0  2  0  0  0  0  0  0
  185.5500  178.1240  143.0230 N   0  0  0  0  0  0  0  0  0  0  0  0
  188.1480  177.3930  146.2860 C   0  0  0  0  0  0  0  0  0  0  0  0
  186.9050  178.0070  146.5010 C   0  0  0  0  0  3  0  0  0  0  0  0
  186.0380  178.2270  145.4270 C   0  0  0  0  0  0  0  0  0  0  0  0
  187.6690  177.2650  143.9100 C   0  0  0  0  0  3  0  0  0  0  0  0
  186.4250  177.8620  144.1270 C   0  0  0  0  0  0  0  0  0  0  0  0
  188.5270  177.0290  144.9880 C   0  0  0  0  0  3  0  0  0  0  0  0
  184.3240  178.5190  143.1920 C   0  0  0  0  0  0  0  0  0  0  0  0
  183.7140  178.5640  144.5690 C   0  0  0  0  0  2  0  0  0  0  0  0
  189.0850  177.1220  147.4180 C   0  0  1  0  0  3  0  0  0  0  0  0
  190.4960  176.8880  146.9100 C   0  0  0  0  0  1  0  0  0  0  0  0
  189.0720  178.1840  148.3270 O   0  0  0  0  0  1  0  0  0  0  0  0
  1  8  1  0  0  0  0
  1 19  1  1  0  0  0
  4  6  2  0  0  0  0
  4  8  1  0  0  0  0
  5  9  2  0  0  0  0
  6  5  1  0  0  0  0
  7  9  1  0  0  0  0
  7  3  1  0  0  0  0
  8  7  2  0  0  0  0
 10  2  1  0  0  0  0
 11 10  1  0  0  0  0
 12 14  1  0  0  0  0
 12 11  1  0  0  0  0
 13  2  1  1  0  0  0
 13  3  1  0  0  0  0
 15 14  1  6  0  0  0
 15 13  1  0  0  0  0
 15  1  1  0  0  0  0
 16 11  1  0  0  0  0
 16 17  1  0  0  0  0
 18 16  1  0  0  0  0
 19 20  1  0  0  0  0
 20 21  1  0  0  0  0
 21 30  1  0  0  0  0
 23 30  2  0  0  0  0
 23 28  1  0  0  0  0
 24 25  1  0  0  0  0
 24 32  1  0  0  0  0
 26 22  1  0  0  0  0
 26 25  2  0  0  0  0
 27 28  2  0  0  0  0
 27 29  1  0  0  0  0
 28 26  1  0  0  0  0
 29 24  2  0  0  0  0
 30 31  1  0  0  0  0
 31 22  1  0  0  0  0
 32 33  1  6  0  0  0
 32 34  1  0  0  0  0
M  END
>  <MODEL>
5

>  <REMARK>
 VINA RESULT:      -9.0      4.837      8.362
  Name = 
  6 active torsions:
  status: ('A' for Active; 'I' for Inactive)
    1  A    between atoms: C_1  and  C_9
    2  A    between atoms: C_3  and  N_25
    3  A    between atoms: C_7  and  C_11
    4  A    between atoms: O_8  and  C_9
    5  A    between atoms: O_8  and  C_18
    6  A    between atoms: C_18  and  C_30
                            x       y       z     vdW  Elec       q    Type
                         _______ _______ _______ _____ _____    ______ ____

>  <TORSDO>
F 6

$$$$
=
 OpenBabel11052415403D

 34 38  0  0  1  0  0  0  0  0999 V2000
  184.3080  177.8420  138.6760 C   0  0  2  0  0  3  0  0  0  0  0  0
  181.2370  176.8560  136.5780 C   0  0  0  0  0  2  0  0  0  0  0  0
  183.5450  177.4300  135.9150 C   0  0  0  0  0  2  0  0  0  0  0  0
  186.7050  177.5000  137.9980 C   0  0  0  0  0  3  0  0  0  0  0  0
  187.3110  177.0720  135.6920 C   0  0  0  0  0  3  0  0  0  0  0  0
  187.6830  177.2590  137.0280 C   0  0  0  0  0  3  0  0  0  0  0  0
  184.9850  177.3610  136.2960 C   0  0  0  0  0  0  0  0  0  0  0  0
  185.3550  177.5480  137.6370 C   0  0  0  0  0  0  0  0  0  0  0  0
  185.9630  177.1280  135.3250 C   0  0  0  0  0  3  0  0  0  0  0  0
  180.3870  175.7520  137.1900 C   0  0  0  0  0  2  0  0  0  0  0  0
  180.3300  175.8760  138.6480 N   0  0  0  0  0  0  0  0  0  0  0  0
  181.5130  175.1710  139.1370 C   0  0  0  0  0  2  0  0  0  0  0  0
  182.7030  176.6920  136.9490 C   0  0  1  0  0  3  0  0  0  0  0  0
  182.6450  176.1450  139.4670 C   0  0  0  0  0  2  0  0  0  0  0  0
  182.9290  177.2060  138.3940 C   0  0  1  0  0  3  0  0  0  0  0  0
  179.1410  175.1500  139.1180 C   0  0  0  0  0  3  0  0  0  0  0  0
  179.2050  173.6780  138.7400 C   0  0  0  0  0  1  0  0  0  0  0  0
  179.0130  175.2280  140.6320 C   0  0  0  0  0  1  0  0  0  0  0  0
  184.1810  179.3430  138.9220 C   0  0  0  0  0  2  0  0  0  0  0  0
  184.8510  179.7120  140.0950 O   0  0  0  0  0  0  0  0  0  0  0  0
  184.2140  179.0030  141.1150 C   0  0  0  0  0  2  0  0  0  0  0  0
  187.3280  177.5200  142.8300 C   0  0  0  0  0  2  0  0  0  0  0  0
  184.7950  178.6780  143.4330 N   0  0  0  0  0  0  0  0  0  0  0  0
  187.4010  177.7120  146.6270 C   0  0  0  0  0  0  0  0  0  0  0  0
  187.8020  177.4910  145.3010 C   0  0  0  0  0  3  0  0  0  0  0  0
  186.9510  177.8320  144.2460 C   0  0  0  0  0  0  0  0  0  0  0  0
  185.2740  178.5710  145.8360 C   0  0  0  0  0  3  0  0  0  0  0  0
  185.6800  178.3660  144.5150 C   0  0  0  0  0  0  0  0  0  0  0  0
  186.1340  178.2470  146.8890 C   0  0  0  0  0  3  0  0  0  0  0  0
  185.1860  178.6640  142.1940 C   0  0  0  0  0  0  0  0  0  0  0  0
  186.6410  178.4740  141.8500 C   0  0  0  0  0  2  0  0  0  0  0  0
  188.3010  177.3810  147.7740 C   0  0  1  0  0  3  0  0  0  0  0  0
  189.6080  176.7850  147.2840 C   0  0  0  0  0  1  0  0  0  0  0  0
  188.5520  178.5230  148.5420 O   0  0  0  0  0  1  0  0  0  0  0  0
  1 19  1  6  0  0  0
  2 13  1  0  0  0  0
  2 10  1  0  0  0  0
  3  7  1  0  0  0  0
  5  6  1  0  0  0  0
  6  4  2  0  0  0  0
  7  8  2  0  0  0  0
  8  4  1  0  0  0  0
  8  1  1  0  0  0  0
  9  5  2  0  0  0  0
  9  7  1  0  0  0  0
 10 11  1  0  0  0  0
 11 16  1  0  0  0  0
 11 12  1  0  0  0  0
 12 14  1  0  0  0  0
 13  3  1  6  0  0  0
 13 15  1  0  0  0  0
 15  1  1  0  0  0  0
 15 14  1  1  0  0  0
 16 18  1  0  0  0  0
 17 16  1  0  0  0  0
 19 20  1  0  0  0  0
 20 21  1  0  0  0  0
 21 30  1  0  0  0  0
 22 26  1  0  0  0  0
 23 28  1  0  0  0  0
 24 29  1  0  0  0  0
 24 32  1  0  0  0  0
 25 24  2  0  0  0  0
 26 28  2  0  0  0  0
 26 25  1  0  0  0  0
 27 29  2  0  0  0  0
 28 27  1  0  0  0  0
 30 23  2  0  0  0  0
 31 30  1  0  0  0  0
 31 22  1  0  0  0  0
 32 33  1  6  0  0  0
 32 34  1  0  0  0  0
M  END
>  <MODEL>
6

>  <REMARK>
 VINA RESULT:      -8.8      3.680      8.924
  Name = 
  6 active torsions:
  status: ('A' for Active; 'I' for Inactive)
    1  A    between atoms: C_1  and  C_9
    2  A    between atoms: C_3  and  N_25
    3  A    between atoms: C_7  and  C_11
    4  A    between atoms: O_8  and  C_9
    5  A    between atoms: O_8  and  C_18
    6  A    between atoms: C_18  and  C_30
                            x       y       z     vdW  Elec       q    Type
                         _______ _______ _______ _____ _____    ______ ____

>  <TORSDO>
F 6

$$$$
=
 OpenBabel11052415403D

 34 38  0  0  1  0  0  0  0  0999 V2000
  185.4710  178.1980  142.3450 C   0  0  2  0  0  3  0  0  0  0  0  0
  185.2440  179.6700  145.8930 C   0  0  0  0  0  2  0  0  0  0  0  0
  183.6510  179.7140  144.0070 C   0  0  0  0  0  2  0  0  0  0  0  0
  183.5120  177.5330  140.9160 C   0  0  0  0  0  3  0  0  0  0  0  0
  181.2750  178.3240  141.4020 C   0  0  0  0  0  3  0  0  0  0  0  0
  182.1500  177.5800  140.6040 C   0  0  0  0  0  3  0  0  0  0  0  0
  183.1210  178.9680  142.8300 C   0  0  0  0  0  0  0  0  0  0  0  0
  184.0010  178.2220  142.0310 C   0  0  0  0  0  0  0  0  0  0  0  0
  181.7600  179.0230  142.5120 C   0  0  0  0  0  3  0  0  0  0  0  0
  185.8140  178.7720  146.9820 C   0  0  0  0  0  2  0  0  0  0  0  0
  186.9990  178.0540  146.5090 N   0  0  0  0  0  0  0  0  0  0  0  0
  186.4810  176.8520  145.8560 C   0  0  0  0  0  2  0  0  0  0  0  0
  184.6600  178.8480  144.7520 C   0  0  1  0  0  3  0  0  0  0  0  0
  186.4300  177.0220  144.3370 C   0  0  0  0  0  2  0  0  0  0  0  0
  185.8090  178.3370  143.8460 C   0  0  1  0  0  3  0  0  0  0  0  0
  187.7740  177.6340  147.6850 C   0  0  0  0  0  3  0  0  0  0  0  0
  188.5790  176.3750  147.3970 C   0  0  0  0  0  1  0  0  0  0  0  0
  188.7540  178.7160  148.1120 C   0  0  0  0  0  1  0  0  0  0  0  0
  186.2300  179.2290  141.5130 C   0  0  0  0  0  2  0  0  0  0  0  0
  186.9030  178.6120  140.4520 O   0  0  0  0  0  0  0  0  0  0  0  0
  188.2030  179.1180  140.5020 C   0  0  0  0  0  2  0  0  0  0  0  0
  189.9960  176.0080  141.8990 C   0  0  0  0  0  2  0  0  0  0  0  0
  189.2740  178.6700  142.6160 N   0  0  0  0  0  0  0  0  0  0  0  0
  191.6230  176.4040  145.3130 C   0  0  0  0  0  0  0  0  0  0  0  0
  191.2420  175.8540  144.0800 C   0  0  0  0  0  3  0  0  0  0  0  0
  190.4860  176.6110  143.1800 C   0  0  0  0  0  0  0  0  0  0  0  0
  190.4460  178.4530  144.7590 C   0  0  0  0  0  3  0  0  0  0  0  0
  190.0810  177.9110  143.5240 C   0  0  0  0  0  0  0  0  0  0  0  0
  191.2180  177.7010  145.6500 C   0  0  0  0  0  3  0  0  0  0  0  0
  189.0510  178.2780  141.3980 C   0  0  0  0  0  0  0  0  0  0  0  0
  189.7700  177.0820  140.8310 C   0  0  0  0  0  2  0  0  0  0  0  0
  192.4530  175.6270  146.2840 C   0  0  1  0  0  3  0  0  0  0  0  0
  191.9430  175.8120  147.7020 C   0  0  0  0  0  1  0  0  0  0  0  0
  192.4550  174.2700  145.9480 O   0  0  0  0  0  1  0  0  0  0  0  0
  1 19  1  6  0  0  0
  1 15  1  0  0  0  0
  2 10  1  0  0  0  0
  4  8  1  0  0  0  0
  5  9  2  0  0  0  0
  6  4  2  0  0  0  0
  6  5  1  0  0  0  0
  7  3  1  0  0  0  0
  8  1  1  0  0  0  0
  8  7  2  0  0  0  0
  9  7  1  0  0  0  0
 11 10  1  0  0  0  0
 11 16  1  0  0  0  0
 12 11  1  0  0  0  0
 13  3  1  6  0  0  0
 13  2  1  0  0  0  0
 14 12  1  0  0  0  0
 15 14  1  1  0  0  0
 15 13  1  0  0  0  0
 16 18  1  0  0  0  0
 17 16  1  0  0  0  0
 20 21  1  0  0  0  0
 20 19  1  0  0  0  0
 21 30  1  0  0  0  0
 22 26  1  0  0  0  0
 23 28  1  0  0  0  0
 24 29  1  0  0  0  0
 24 32  1  0  0  0  0
 25 24  2  0  0  0  0
 26 28  2  0  0  0  0
 26 25  1  0  0  0  0
 27 29  2  0  0  0  0
 28 27  1  0  0  0  0
 30 23  2  0  0  0  0
 31 30  1  0  0  0  0
 31 22  1  0  0  0  0
 32 33  1  1  0  0  0
 34 32  1  0  0  0  0
M  END
>  <MODEL>
7

>  <REMARK>
 VINA RESULT:      -8.8      2.969      4.502
  Name = 
  6 active torsions:
  status: ('A' for Active; 'I' for Inactive)
    1  A    between atoms: C_1  and  C_9
    2  A    between atoms: C_3  and  N_25
    3  A    between atoms: C_7  and  C_11
    4  A    between atoms: O_8  and  C_9
    5  A    between atoms: O_8  and  C_18
    6  A    between atoms: C_18  and  C_30
                            x       y       z     vdW  Elec       q    Type
                         _______ _______ _______ _____ _____    ______ ____

>  <TORSDO>
F 6

$$$$
=
 OpenBabel11052415403D

 34 38  0  0  1  0  0  0  0  0999 V2000
  190.2510  177.0560  138.0810 C   0  0  2  0  0  3  0  0  0  0  0  0
  191.1130  173.5250  136.8190 C   0  0  0  0  0  2  0  0  0  0  0  0
  189.0860  174.9060  136.5340 C   0  0  0  0  0  2  0  0  0  0  0  0
  188.6250  178.6350  136.9920 C   0  0  0  0  0  3  0  0  0  0  0  0
  186.9910  177.8480  135.3860 C   0  0  0  0  0  3  0  0  0  0  0  0
  187.5600  178.8920  136.1230 C   0  0  0  0  0  3  0  0  0  0  0  0
  188.5560  176.2920  136.3800 C   0  0  0  0  0  0  0  0  0  0  0  0
  189.1290  177.3370  137.1200 C   0  0  0  0  0  0  0  0  0  0  0  0
  187.4850  176.5470  135.5180 C   0  0  0  0  0  3  0  0  0  0  0  0
  192.5500  173.3620  136.3420 C   0  0  0  0  0  2  0  0  0  0  0  0
  193.4720  174.1430  137.1690 N   0  0  0  0  0  0  0  0  0  0  0  0
  193.4780  175.4790  136.5760 C   0  0  0  0  0  2  0  0  0  0  0  0
  190.6090  174.9400  136.5740 C   0  0  1  0  0  3  0  0  0  0  0  0
  192.5630  176.4340  137.3460 C   0  0  0  0  0  2  0  0  0  0  0  0
  191.1670  175.8820  137.6710 C   0  0  1  0  0  3  0  0  0  0  0  0
  194.8170  173.5700  137.0120 C   0  0  0  0  0  3  0  0  0  0  0  0
  195.7970  174.5990  136.4690 C   0  0  0  0  0  1  0  0  0  0  0  0
  195.3630  173.0780  138.3450 C   0  0  0  0  0  1  0  0  0  0  0  0
  189.7280  176.8750  139.5030 C   0  0  0  0  0  2  0  0  0  0  0  0
  190.6780  176.2250  140.3010 O   0  0  0  0  0  0  0  0  0  0  0  0
  191.3780  177.2510  140.9400 C   0  0  0  0  0  2  0  0  0  0  0  0
  191.2980  177.7130  144.7630 C   0  0  0  0  0  2  0  0  0  0  0  0
  189.5780  177.2230  142.5440 N   0  0  0  0  0  0  0  0  0  0  0  0
  187.8530  177.7690  146.3720 C   0  0  0  0  0  0  0  0  0  0  0  0
  189.2430  177.8620  146.2080 C   0  0  0  0  0  3  0  0  0  0  0  0
  189.8100  177.7050  144.9400 C   0  0  0  0  0  0  0  0  0  0  0  0
  187.6070  177.3120  144.0020 C   0  0  0  0  0  3  0  0  0  0  0  0
  188.9900  177.4220  143.8350 C   0  0  0  0  0  0  0  0  0  0  0  0
  187.0400  177.4880  145.2670 C   0  0  0  0  0  3  0  0  0  0  0  0
  190.8300  177.4780  142.3090 C   0  0  0  0  0  0  0  0  0  0  0  0
  191.6860  178.1520  143.3490 C   0  0  0  0  0  2  0  0  0  0  0  0
  187.2160  177.9590  147.7110 C   0  0  1  0  0  3  0  0  0  0  0  0
  188.2630  178.2340  148.7750 C   0  0  0  0  0  1  0  0  0  0  0  0
  186.2900  179.0050  147.6680 O   0  0  0  0  0  1  0  0  0  0  0  0
  1 19  1  1  0  0  0
  4  8  1  0  0  0  0
  5  9  2  0  0  0  0
  5  6  1  0  0  0  0
  6  4  2  0  0  0  0
  7  3  1  0  0  0  0
  7  8  2  0  0  0  0
  8  1  1  0  0  0  0
  9  7  1  0  0  0  0
 10  2  1  0  0  0  0
 10 11  1  0  0  0  0
 12 11  1  0  0  0  0
 12 14  1  0  0  0  0
 13  3  1  1  0  0  0
 13  2  1  0  0  0  0
 13 15  1  0  0  0  0
 15 14  1  6  0  0  0
 15  1  1  0  0  0  0
 16 11  1  0  0  0  0
 16 18  1  0  0  0  0
 17 16  1  0  0  0  0
 19 20  1  0  0  0  0
 20 21  1  0  0  0  0
 21 30  1  0  0  0  0
 22 26  1  0  0  0  0
 23 28  1  0  0  0  0
 24 32  1  0  0  0  0
 25 24  1  0  0  0  0
 26 25  2  0  0  0  0
 27 29  1  0  0  0  0
 28 27  2  0  0  0  0
 28 26  1  0  0  0  0
 29 24  2  0  0  0  0
 30 23  2  0  0  0  0
 30 31  1  0  0  0  0
 31 22  1  0  0  0  0
 32 33  1  1  0  0  0
 34 32  1  0  0  0  0
M  END
>  <MODEL>
8

>  <REMARK>
 VINA RESULT:      -8.7      3.209      9.557
  Name = 
  6 active torsions:
  status: ('A' for Active; 'I' for Inactive)
    1  A    between atoms: C_1  and  C_9
    2  A    between atoms: C_3  and  N_25
    3  A    between atoms: C_7  and  C_11
    4  A    between atoms: O_8  and  C_9
    5  A    between atoms: O_8  and  C_18
    6  A    between atoms: C_18  and  C_30
                            x       y       z     vdW  Elec       q    Type
                         _______ _______ _______ _____ _____    ______ ____

>  <TORSDO>
F 6

$$$$
=
 OpenBabel11052415403D

 34 38  0  0  1  0  0  0  0  0999 V2000
  183.6730  178.2660  138.8500 C   0  0  2  0  0  3  0  0  0  0  0  0
  185.1230  175.7690  136.3070 C   0  0  0  0  0  2  0  0  0  0  0  0
  182.9430  176.9250  136.3910 C   0  0  0  0  0  2  0  0  0  0  0  0
  181.9160  179.9950  138.3530 C   0  0  0  0  0  3  0  0  0  0  0  0
  180.5300  179.8470  136.3710 C   0  0  0  0  0  3  0  0  0  0  0  0
  180.8890  180.5050  137.5530 C   0  0  0  0  0  3  0  0  0  0  0  0
  182.2300  178.1740  136.7850 C   0  0  0  0  0  0  0  0  0  0  0  0
  182.5920  178.8320  137.9700 C   0  0  0  0  0  0  0  0  0  0  0  0
  181.1970  178.6790  135.9900 C   0  0  0  0  0  3  0  0  0  0  0  0
  186.5990  175.9780  135.9940 C   0  0  0  0  0  2  0  0  0  0  0  0
  187.3370  176.3960  137.1870 N   0  0  0  0  0  0  0  0  0  0  0  0
  187.1920  177.8500  137.2360 C   0  0  0  0  0  2  0  0  0  0  0  0
  184.4390  177.0880  136.6350 C   0  0  1  0  0  3  0  0  0  0  0  0
  186.0960  178.2670  138.2180 C   0  0  0  0  0  2  0  0  0  0  0  0
  184.7760  177.4940  138.0930 C   0  0  1  0  0  3  0  0  0  0  0  0
  188.7590  176.0890  136.9700 C   0  0  0  0  0  3  0  0  0  0  0  0
  189.2780  176.7390  135.6960 C   0  0  0  0  0  1  0  0  0  0  0  0
  189.6130  176.5970  138.1230 C   0  0  0  0  0  1  0  0  0  0  0  0
  183.0820  177.4200  139.9750 C   0  0  0  0  0  2  0  0  0  0  0  0
  183.0240  178.1530  141.1670 O   0  0  0  0  0  0  0  0  0  0  0  0
  184.1260  179.0100  141.1210 C   0  0  0  0  0  2  0  0  0  0  0  0
  187.2140  177.4930  142.8550 C   0  0  0  0  0  2  0  0  0  0  0  0
  184.7020  178.7050  143.4430 N   0  0  0  0  0  0  0  0  0  0  0  0
  187.2910  177.7340  146.6490 C   0  0  0  0  0  0  0  0  0  0  0  0
  187.6880  177.4880  145.3260 C   0  0  0  0  0  3  0  0  0  0  0  0
  186.8430  177.8310  144.2670 C   0  0  0  0  0  0  0  0  0  0  0  0
  185.1790  178.6200  145.8470 C   0  0  0  0  0  3  0  0  0  0  0  0
  185.5820  178.3910  144.5290 C   0  0  0  0  0  0  0  0  0  0  0  0
  186.0340  178.2950  146.9040 C   0  0  0  0  0  3  0  0  0  0  0  0
  185.0930  178.6670  142.2040 C   0  0  0  0  0  0  0  0  0  0  0  0
  186.5440  178.4470  141.8630 C   0  0  0  0  0  2  0  0  0  0  0  0
  188.1850  177.4020  147.8010 C   0  0  1  0  0  3  0  0  0  0  0  0
  189.6110  177.1780  147.3330 C   0  0  0  0  0  1  0  0  0  0  0  0
  188.1480  178.4220  148.7560 O   0  0  0  0  0  1  0  0  0  0  0  0
  1 19  1  1  0  0  0
  3 13  1  0  0  0  0
  3  7  1  0  0  0  0
  5  6  1  0  0  0  0
  6  4  2  0  0  0  0
  7  8  2  0  0  0  0
  8  4  1  0  0  0  0
  8  1  1  0  0  0  0
  9  5  2  0  0  0  0
  9  7  1  0  0  0  0
 10  2  1  0  0  0  0
 10 11  1  0  0  0  0
 11 12  1  0  0  0  0
 12 14  1  0  0  0  0
 13  2  1  1  0  0  0
 13 15  1  0  0  0  0
 15 14  1  6  0  0  0
 15  1  1  0  0  0  0
 16 11  1  0  0  0  0
 16 18  1  0  0  0  0
 17 16  1  0  0  0  0
 19 20  1  0  0  0  0
 21 20  1  0  0  0  0
 21 30  1  0  0  0  0
 22 26  1  0  0  0  0
 23 28  1  0  0  0  0
 24 29  1  0  0  0  0
 24 32  1  0  0  0  0
 25 24  2  0  0  0  0
 26 28  2  0  0  0  0
 26 25  1  0  0  0  0
 27 29  2  0  0  0  0
 28 27  1  0  0  0  0
 30 23  2  0  0  0  0
 31 30  1  0  0  0  0
 31 22  1  0  0  0  0
 32 33  1  6  0  0  0
 32 34  1  0  0  0  0
M  END
>  <MODEL>
9

>  <REMARK>
 VINA RESULT:      -8.7      3.222      8.412
  Name = 
  6 active torsions:
  status: ('A' for Active; 'I' for Inactive)
    1  A    between atoms: C_1  and  C_9
    2  A    between atoms: C_3  and  N_25
    3  A    between atoms: C_7  and  C_11
    4  A    between atoms: O_8  and  C_9
    5  A    between atoms: O_8  and  C_18
    6  A    between atoms: C_18  and  C_30
                            x       y       z     vdW  Elec       q    Type
                         _______ _______ _______ _____ _____    ______ ____

>  <TORSDO>
F 6

$$$$
