=
 OpenBabel11052414513D

 55 64  0  0  1  0  0  0  0  0999 V2000
  187.7150  178.4350  140.1570 C   0  0  0  0  0  2  0  0  0  0  0  0
  181.9250  178.1070  141.3260 C   0  0  0  0  0  3  0  0  0  0  0  0
  183.5540  180.2450  142.4250 C   0  0  0  0  0  2  0  0  0  0  0  0
  181.5200  177.8020  138.3830 C   0  0  0  0  0  3  0  0  0  0  0  0
  180.8230  175.4240  138.7750 C   0  0  0  0  0  2  0  0  0  0  0  0
  184.7290  179.2540  145.3250 C   0  0  0  0  0  3  0  0  0  0  0  0
  184.6830  179.0660  146.8170 C   0  0  0  0  0  2  0  0  0  0  0  0
  186.0980  177.1910  145.0300 C   0  0  1  0  0  3  0  0  0  0  0  0
  185.8800  176.9280  146.5250 C   0  0  0  0  0  2  0  0  0  0  0  0
  185.9140  177.5540  142.2610 N   0  0  0  0  0  2  0  0  0  0  0  0
  179.4560  176.9860  137.5300 O   0  0  0  0  0  0  0  0  0  0  0  0
  179.4080  175.8890  138.4440 C   0  0  0  0  0  2  0  0  0  0  0  0
  185.8560  178.2340  147.3090 C   0  0  0  0  0  2  0  0  0  0  0  0
  186.4440  178.3600  136.5850 C   0  0  0  0  0  3  0  0  0  0  0  0
  185.2820  178.3550  144.4900 C   0  0  0  0  0  0  0  0  0  0  0  0
  184.9930  176.9630  137.9390 C   0  0  0  0  0  0  0  0  0  0  0  0
  187.8500  177.3220  140.9990 O   0  0  0  0  0  0  0  0  0  0  0  0
  185.7910  177.2420  139.0590 C   0  0  0  0  0  3  0  0  0  0  0  0
  187.9940  176.8860  143.3820 C   0  0  1  0  0  3  0  0  0  0  0  0
  181.1680  176.9710  140.7060 C   0  0  0  0  0  2  0  0  0  0  0  0
  187.5770  177.4320  144.7550 C   0  0  0  0  0  2  0  0  0  0  0  0
  183.1120  177.8990  141.8890 C   0  0  0  0  0  3  0  0  0  0  0  0
  183.9490  178.9760  142.4530 C   0  0  0  0  0  0  0  0  0  0  0  0
  187.2240  178.6480  137.7100 C   0  0  0  0  0  3  0  0  0  0  0  0
  180.4510  177.9730  137.5940 C   0  0  0  0  0  0  0  0  0  0  0  0
  181.6630  176.6010  139.2960 C   0  0  2  0  0  0  0  0  0  0  0  0
  186.9080  178.0800  138.9500 C   0  0  0  0  0  0  0  0  0  0  0  0
  185.3110  178.6560  143.0060 C   0  0  2  0  0  3  0  0  0  0  0  0
  187.3640  177.7290  142.2500 C   0  0  2  0  0  3  0  0  0  0  0  0
  183.1230  176.1410  139.3810 C   0  0  0  0  0  2  0  0  0  0  0  0
  183.8310  176.0190  138.0320 C   0  0  0  0  0  2  0  0  0  0  0  0
  185.3350  177.5140  136.6980 C   0  0  0  0  0  3  0  0  0  0  0  0
  191.1400  176.2910  145.7570 C   0  0  1  0  0  3  0  0  0  0  0  0
  190.1860  177.9180  144.1360 C   0  0  0  0  0  2  0  0  0  0  0  0
  192.9160  174.7020  145.5440 O   0  0  0  0  0  0  0  0  0  0  0  0
  191.2460  175.8670  144.3350 C   0  0  2  0  0  0  0  0  0  0  0  0
  190.0120  175.5810  143.7370 O   0  0  0  0  0  0  0  0  0  0  0  0
  192.3980  174.9010  144.2510 C   0  0  0  0  0  2  0  0  0  0  0  0
  192.4180  175.7460  146.3520 C   0  0  0  0  0  2  0  0  0  0  0  0
  191.4560  177.3070  144.6600 C   0  0  2  0  0  3  0  0  0  0  0  0
  189.5320  176.8280  143.2840 C   0  0  1  0  0  3  0  0  0  0  0  0
  181.8480  182.0430  138.5320 O   0  0  0  0  0  1  0  0  0  0  0  0
  181.4880  180.1590  136.5830 C   0  0  1  0  0  3  0  0  0  0  0  0
  180.2610  180.3880  138.7330 O   0  0  0  0  0  0  0  0  0  0  0  0
  180.1700  180.5780  137.3160 C   0  0  1  0  0  0  0  0  0  0  0  0
  180.5170  181.6770  138.3000 C   0  0  2  0  0  0  0  0  0  0  0  0
  182.5260  179.7830  137.4490 O   0  0  0  0  0  1  0  0  0  0  0  0
  180.3570  179.1810  136.6800 C   0  0  2  0  0  0  0  0  0  0  0  0
  179.5480  179.0310  135.3930 C   0  0  2  0  0  3  0  0  0  0  0  0
  180.0740  178.0020  134.6090 O   0  0  0  0  0  1  0  0  0  0  0  0
  179.5460  180.3240  134.5980 C   0  0  0  0  0  1  0  0  0  0  0  0
  179.4530  182.6280  138.7610 C   0  0  0  0  0  0  0  0  0  0  0  0
  178.9310  182.4670  139.8540 O   0  0  0  0  0  0  0  0  0  0  0  0
  178.9760  183.7330  137.8730 C   0  0  0  0  0  2  0  0  0  0  0  0
  178.9750  184.9940  138.5930 N   0  0  0  0  0  1  0  0  0  0  0  0
  1 17  1  0  0  0  0
  2 22  2  0  0  0  0
  3 23  2  0  0  0  0
  5 26  1  0  0  0  0
  6  7  1  0  0  0  0
  7 13  1  0  0  0  0
  8 21  1  1  0  0  0
  8  9  1  0  0  0  0
  9 13  1  0  0  0  0
 11 25  1  0  0  0  0
 11 12  1  0  0  0  0
 12  5  1  0  0  0  0
 14 32  2  0  0  0  0
 14 24  1  0  0  0  0
 15  8  1  0  0  0  0
 15  6  2  0  0  0  0
 16 31  1  0  0  0  0
 16 18  2  0  0  0  0
 19 21  1  1  0  0  0
 20  2  1  0  0  0  0
 22 23  1  0  0  0  0
 23 28  1  0  0  0  0
 24 27  2  0  0  0  0
 25  4  2  0  0  0  0
 26  4  1  6  0  0  0
 26 30  1  0  0  0  0
 26 20  1  0  0  0  0
 27 18  1  0  0  0  0
 27  1  1  0  0  0  0
 28 10  1  6  0  0  0
 28 15  1  0  0  0  0
 29 17  1  6  0  0  0
 29 10  1  0  0  0  0
 29 19  1  0  0  0  0
 31 30  1  0  0  0  0
 32 16  1  0  0  0  0
 33 39  1  1  0  0  0
 35 39  1  0  0  0  0
 36 38  1  6  0  0  0
 36 40  1  0  0  0  0
 36 33  1  0  0  0  0
 37 36  1  0  0  0  0
 38 35  1  0  0  0  0
 40 34  1  6  0  0  0
 40 33  1  0  0  0  0
 41 19  1  0  0  0  0
 41 37  1  0  0  0  0
 41 34  1  1  0  0  0
 43 48  1  0  0  0  0
 43 45  1  0  0  0  0
 43 47  1  1  0  0  0
 45 46  1  0  0  0  0
 45 44  1  1  0  0  0
 46 42  1  1  0  0  0
 46 44  1  0  0  0  0
 46 52  1  0  0  0  0
 48 49  1  6  0  0  0
 48 45  1  0  0  0  0
 48 25  1  0  0  0  0
 49 51  1  6  0  0  0
 50 49  1  0  0  0  0
 52 53  2  0  0  0  0
 54 55  1  0  0  0  0
 54 52  1  0  0  0  0
M  END
>  <MODEL>
1

>  <REMARK>
 VINA RESULT:      -3.1      0.000      0.000
  Name = 
  5 active torsions:
  status: ('A' for Active; 'I' for Inactive)
    1  A    between atoms: C_1  and  C_53
    2  A    between atoms: C_11  and  C_29
    3  A    between atoms: C_29  and  C_38
    4  A    between atoms: C_33  and  C_52
    5  A    between atoms: C_42  and  C_53
                            x       y       z     vdW  Elec       q    Type
                         _______ _______ _______ _____ _____    ______ ____

>  <TORSDO>
F 5

$$$$
=
 OpenBabel11052414513D

 55 64  0  0  1  0  0  0  0  0999 V2000
  188.5850  178.8790  137.3970 C   0  0  0  0  0  2  0  0  0  0  0  0
  183.7950  177.4530  140.5630 C   0  0  0  0  0  3  0  0  0  0  0  0
  185.5180  179.6490  141.3630 C   0  0  0  0  0  2  0  0  0  0  0  0
  182.2850  177.5070  137.9870 C   0  0  0  0  0  3  0  0  0  0  0  0
  182.0280  175.0160  138.1420 C   0  0  0  0  0  2  0  0  0  0  0  0
  187.8360  178.4610  143.3600 C   0  0  0  0  0  3  0  0  0  0  0  0
  188.4050  178.0580  144.6940 C   0  0  0  0  0  2  0  0  0  0  0  0
  189.1620  176.7110  142.1800 C   0  0  1  0  0  3  0  0  0  0  0  0
  189.5820  176.2060  143.5660 C   0  0  0  0  0  2  0  0  0  0  0  0
  187.8600  177.4280  139.8090 N   0  0  0  0  0  2  0  0  0  0  0  0
  180.1380  176.4950  137.8290 O   0  0  0  0  0  0  0  0  0  0  0  0
  180.5610  175.2870  138.4630 C   0  0  0  0  0  2  0  0  0  0  0  0
  189.7490  177.3660  144.5390 C   0  0  0  0  0  2  0  0  0  0  0  0
  186.0120  179.1060  134.6210 C   0  0  0  0  0  3  0  0  0  0  0  0
  188.0940  177.7920  142.2220 C   0  0  0  0  0  0  0  0  0  0  0  0
  185.3580  177.3140  136.1210 C   0  0  0  0  0  0  0  0  0  0  0  0
  189.1470  177.6950  137.8940 O   0  0  0  0  0  0  0  0  0  0  0  0
  186.5040  177.5580  136.8910 C   0  0  0  0  0  3  0  0  0  0  0  0
  190.2670  176.9540  139.9160 C   0  0  1  0  0  3  0  0  0  0  0  0
  182.9650  176.3090  140.0640 C   0  0  0  0  0  2  0  0  0  0  0  0
  190.3800  177.2250  141.4230 C   0  0  0  0  0  2  0  0  0  0  0  0
  185.1210  177.3630  140.5880 C   0  0  0  0  0  3  0  0  0  0  0  0
  186.0090  178.4700  140.9950 C   0  0  0  0  0  0  0  0  0  0  0  0
  187.1450  179.3540  135.4040 C   0  0  0  0  0  3  0  0  0  0  0  0
  180.9790  177.6120  137.7050 C   0  0  0  0  0  0  0  0  0  0  0  0
  182.8900  176.2280  138.5280 C   0  0  2  0  0  0  0  0  0  0  0  0
  187.4020  178.5730  136.5360 C   0  0  0  0  0  0  0  0  0  0  0  0
  187.5020  178.3000  140.9240 C   0  0  2  0  0  3  0  0  0  0  0  0
  189.1620  177.8360  139.2890 C   0  0  2  0  0  3  0  0  0  0  0  0
  184.3010  176.0030  137.9690 C   0  0  0  0  0  2  0  0  0  0  0  0
  184.4220  176.1900  136.4570 C   0  0  0  0  0  2  0  0  0  0  0  0
  185.1250  178.0840  134.9740 C   0  0  0  0  0  3  0  0  0  0  0  0
  193.0990  174.7900  138.1290 C   0  0  1  0  0  3  0  0  0  0  0  0
  192.7450  176.4100  139.9830 C   0  0  0  0  0  2  0  0  0  0  0  0
  194.0610  175.0600  135.9550 O   0  0  0  0  0  0  0  0  0  0  0  0
  192.9030  176.1960  137.6800 C   0  0  2  0  0  0  0  0  0  0  0  0
  191.6130  176.6880  137.9110 O   0  0  0  0  0  0  0  0  0  0  0  0
  193.5580  176.3200  136.3310 C   0  0  0  0  0  2  0  0  0  0  0  0
  194.0950  174.2660  137.1210 C   0  0  0  0  0  2  0  0  0  0  0  0
  193.7010  175.9530  138.9160 C   0  0  2  0  0  3  0  0  0  0  0  0
  191.6370  177.1610  139.2400 C   0  0  1  0  0  3  0  0  0  0  0  0
  181.7350  181.6560  139.2780 O   0  0  0  0  0  1  0  0  0  0  0  0
  181.2680  180.1350  137.0540 C   0  0  1  0  0  3  0  0  0  0  0  0
  180.6130  179.6500  139.4020 O   0  0  0  0  0  0  0  0  0  0  0  0
  180.1260  180.0700  138.1220 C   0  0  1  0  0  0  0  0  0  0  0  0
  180.4890  181.0190  139.2460 C   0  0  2  0  0  0  0  0  0  0  0  0
  182.5470  179.8760  137.5700 O   0  0  0  0  0  1  0  0  0  0  0  0
  180.4160  178.9050  137.1460 C   0  0  2  0  0  0  0  0  0  0  0  0
  179.3510  178.8000  136.0570 C   0  0  2  0  0  3  0  0  0  0  0  0
  179.8310  178.0470  134.9830 O   0  0  0  0  0  1  0  0  0  0  0  0
  178.9350  180.1740  135.5670 C   0  0  0  0  0  1  0  0  0  0  0  0
  179.4120  181.5730  140.1310 C   0  0  0  0  0  0  0  0  0  0  0  0
  178.9580  182.6850  139.9070 O   0  0  0  0  0  0  0  0  0  0  0  0
  178.9330  180.8080  141.3240 C   0  0  0  0  0  2  0  0  0  0  0  0
  179.9480  180.8050  142.3620 N   0  0  0  0  0  1  0  0  0  0  0  0
  1 17  1  0  0  0  0
  2 22  2  0  0  0  0
  4 26  1  0  0  0  0
  5 12  1  0  0  0  0
  5 26  1  0  0  0  0
  6  7  1  0  0  0  0
  8 21  1  1  0  0  0
  8 15  1  0  0  0  0
  8  9  1  0  0  0  0
  9 13  1  0  0  0  0
 11 12  1  0  0  0  0
 13  7  1  0  0  0  0
 14 32  2  0  0  0  0
 14 24  1  0  0  0  0
 15  6  2  0  0  0  0
 16 31  1  0  0  0  0
 16 18  2  0  0  0  0
 19 21  1  1  0  0  0
 20  2  1  0  0  0  0
 22 23  1  0  0  0  0
 23  3  2  0  0  0  0
 24 27  2  0  0  0  0
 25 11  1  0  0  0  0
 25  4  2  0  0  0  0
 26 30  1  6  0  0  0
 26 20  1  0  0  0  0
 27 18  1  0  0  0  0
 27  1  1  0  0  0  0
 28 10  1  6  0  0  0
 28 23  1  0  0  0  0
 28 15  1  0  0  0  0
 29 17  1  6  0  0  0
 29 10  1  0  0  0  0
 29 19  1  0  0  0  0
 31 30  1  0  0  0  0
 32 16  1  0  0  0  0
 33 39  1  6  0  0  0
 33 40  1  0  0  0  0
 35 38  1  0  0  0  0
 35 39  1  0  0  0  0
 36 38  1  6  0  0  0
 36 37  1  0  0  0  0
 36 33  1  0  0  0  0
 36 40  1  0  0  0  0
 37 41  1  0  0  0  0
 40 34  1  1  0  0  0
 41 19  1  0  0  0  0
 41 34  1  1  0  0  0
 43 48  1  0  0  0  0
 43 47  1  1  0  0  0
 43 45  1  0  0  0  0
 45 46  1  0  0  0  0
 45 44  1  1  0  0  0
 46 42  1  6  0  0  0
 46 44  1  0  0  0  0
 46 52  1  0  0  0  0
 48 49  1  6  0  0  0
 48 25  1  0  0  0  0
 48 45  1  0  0  0  0
 49 51  1  6  0  0  0
 50 49  1  0  0  0  0
 52 54  1  0  0  0  0
 53 52  2  0  0  0  0
 54 55  1  0  0  0  0
M  END
>  <MODEL>
2

>  <REMARK>
 VINA RESULT:      -2.6      2.934      3.854
  Name = 
  5 active torsions:
  status: ('A' for Active; 'I' for Inactive)
    1  A    between atoms: C_1  and  C_53
    2  A    between atoms: C_11  and  C_29
    3  A    between atoms: C_29  and  C_38
    4  A    between atoms: C_33  and  C_52
    5  A    between atoms: C_42  and  C_53
                            x       y       z     vdW  Elec       q    Type
                         _______ _______ _______ _____ _____    ______ ____

>  <TORSDO>
F 5

$$$$
=
 OpenBabel11052414513D

 55 64  0  0  1  0  0  0  0  0999 V2000
  183.3890  174.2340  137.8780 C   0  0  0  0  0  2  0  0  0  0  0  0
  187.1630  178.7670  137.4200 C   0  0  0  0  0  3  0  0  0  0  0  0
  185.3180  178.5760  139.6550 C   0  0  0  0  0  2  0  0  0  0  0  0
  189.2970  176.7260  136.9720 C   0  0  0  0  0  3  0  0  0  0  0  0
  189.4720  177.5030  134.5940 C   0  0  0  0  0  2  0  0  0  0  0  0
  182.5430  180.1220  138.8310 C   0  0  0  0  0  3  0  0  0  0  0  0
  181.6390  181.3190  138.7070 C   0  0  0  0  0  2  0  0  0  0  0  0
  181.5510  179.0680  136.8010 C   0  0  1  0  0  3  0  0  0  0  0  0
  180.7760  180.3760  136.5970 C   0  0  0  0  0  2  0  0  0  0  0  0
  183.4380  177.0150  137.0350 N   0  0  0  0  0  2  0  0  0  0  0  0
  191.3960  177.3610  136.0550 O   0  0  0  0  0  0  0  0  0  0  0  0
  190.8070  178.1210  134.9980 C   0  0  0  0  0  2  0  0  0  0  0  0
  180.3750  180.9840  137.9350 C   0  0  0  0  0  2  0  0  0  0  0  0
  186.6020  172.2390  137.6040 C   0  0  0  0  0  3  0  0  0  0  0  0
  182.5840  179.1390  137.9130 C   0  0  0  0  0  0  0  0  0  0  0  0
  186.8180  174.2230  136.2240 C   0  0  0  0  0  0  0  0  0  0  0  0
  182.7010  174.8240  136.8080 O   0  0  0  0  0  0  0  0  0  0  0  0
  185.5130  174.5960  136.5770 C   0  0  0  0  0  3  0  0  0  0  0  0
  181.0820  176.6020  136.4820 C   0  0  1  0  0  3  0  0  0  0  0  0
  188.0800  178.7730  136.2350 C   0  0  0  0  0  2  0  0  0  0  0  0
  180.5810  177.9270  137.0750 C   0  0  0  0  0  2  0  0  0  0  0  0
  185.8750  178.4690  137.2750 C   0  0  0  0  0  3  0  0  0  0  0  0
  184.9260  178.3710  138.4010 C   0  0  0  0  0  0  0  0  0  0  0  0
  185.3070  172.6260  137.9660 C   0  0  0  0  0  3  0  0  0  0  0  0
  190.6310  176.7740  137.0740 C   0  0  0  0  0  0  0  0  0  0  0  0
  188.5540  177.3680  135.8180 C   0  0  2  0  0  0  0  0  0  0  0  0
  184.7520  173.8000  137.4440 C   0  0  0  0  0  0  0  0  0  0  0  0
  183.5020  177.9570  138.1490 C   0  0  2  0  0  3  0  0  0  0  0  0
  182.3230  176.0990  137.2540 C   0  0  2  0  0  3  0  0  0  0  0  0
  187.3370  176.5290  135.4080 C   0  0  0  0  0  2  0  0  0  0  0  0
  187.6190  175.0360  135.2490 C   0  0  0  0  0  2  0  0  0  0  0  0
  187.3530  173.0320  136.7300 C   0  0  0  0  0  3  0  0  0  0  0  0
  180.4760  172.8030  135.4360 C   0  0  1  0  0  3  0  0  0  0  0  0
  179.6220  175.1050  135.0440 C   0  0  0  0  0  2  0  0  0  0  0  0
  179.6090  170.9950  136.7420 O   0  0  0  0  0  0  0  0  0  0  0  0
  179.6760  173.3550  136.5620 C   0  0  2  0  0  0  0  0  0  0  0  0
  180.2920  174.4260  137.2210 O   0  0  0  0  0  0  0  0  0  0  0  0
  179.1240  172.1810  137.3250 C   0  0  0  0  0  2  0  0  0  0  0  0
  180.1060  171.3380  135.4670 C   0  0  0  0  0  2  0  0  0  0  0  0
  179.2370  173.6570  135.1700 C   0  0  2  0  0  3  0  0  0  0  0  0
  179.9390  175.5670  136.4680 C   0  0  1  0  0  3  0  0  0  0  0  0
  194.6650  175.0070  136.9790 O   0  0  0  0  0  1  0  0  0  0  0  0
  192.7990  176.3270  138.4810 C   0  0  1  0  0  3  0  0  0  0  0  0
  192.4160  174.8600  136.5110 O   0  0  0  0  0  0  0  0  0  0  0  0
  192.3150  174.9410  137.9370 C   0  0  1  0  0  0  0  0  0  0  0  0
  193.4770  174.3020  137.2020 C   0  0  2  0  0  0  0  0  0  0  0  0
  193.3270  177.1730  137.4940 O   0  0  0  0  0  1  0  0  0  0  0  0
  191.3370  176.1010  138.2370 C   0  0  2  0  0  0  0  0  0  0  0  0
  190.5240  175.8440  139.5030 C   0  0  2  0  0  3  0  0  0  0  0  0
  189.2410  176.3810  139.3710 O   0  0  0  0  0  1  0  0  0  0  0  0
  191.2030  176.4490  140.7190 C   0  0  0  0  0  1  0  0  0  0  0  0
  193.5190  172.8130  137.0260 C   0  0  0  0  0  0  0  0  0  0  0  0
  192.6010  172.2470  136.4520 O   0  0  0  0  0  0  0  0  0  0  0  0
  194.6380  172.0050  137.6020 C   0  0  0  0  0  2  0  0  0  0  0  0
  194.6470  170.6730  137.0240 N   0  0  0  0  0  1  0  0  0  0  0  0
  4 25  2  0  0  0  0
  5 12  1  0  0  0  0
  7  6  1  0  0  0  0
  8  9  1  1  0  0  0
  8 21  1  0  0  0  0
  8 15  1  0  0  0  0
  9 13  1  0  0  0  0
 10 29  1  0  0  0  0
 11 25  1  0  0  0  0
 12 11  1  0  0  0  0
 13  7  1  0  0  0  0
 14 24  1  0  0  0  0
 15 28  1  0  0  0  0
 15  6  2  0  0  0  0
 16 18  2  0  0  0  0
 16 32  1  0  0  0  0
 17  1  1  0  0  0  0
 18 27  1  0  0  0  0
 19 21  1  1  0  0  0
 19 29  1  0  0  0  0
 20  2  1  0  0  0  0
 22  2  2  0  0  0  0
 22 23  1  0  0  0  0
 23  3  2  0  0  0  0
 25 48  1  0  0  0  0
 26  5  1  6  0  0  0
 26 20  1  0  0  0  0
 26  4  1  0  0  0  0
 27  1  1  0  0  0  0
 27 24  2  0  0  0  0
 28 10  1  6  0  0  0
 28 23  1  0  0  0  0
 29 17  1  6  0  0  0
 30 26  1  0  0  0  0
 31 30  1  0  0  0  0
 31 16  1  0  0  0  0
 32 14  2  0  0  0  0
 33 39  1  1  0  0  0
 33 36  1  0  0  0  0
 35 38  1  0  0  0  0
 36 37  1  0  0  0  0
 36 38  1  1  0  0  0
 39 35  1  0  0  0  0
 40 34  1  6  0  0  0
 40 33  1  0  0  0  0
 40 36  1  0  0  0  0
 41 34  1  6  0  0  0
 41 19  1  0  0  0  0
 41 37  1  0  0  0  0
 43 47  1  6  0  0  0
 44 46  1  0  0  0  0
 45 44  1  6  0  0  0
 45 48  1  0  0  0  0
 45 43  1  0  0  0  0
 46 42  1  6  0  0  0
 46 45  1  0  0  0  0
 48 43  1  0  0  0  0
 48 49  1  1  0  0  0
 49 51  1  1  0  0  0
 50 49  1  0  0  0  0
 52 46  1  0  0  0  0
 52 54  1  0  0  0  0
 53 52  2  0  0  0  0
 55 54  1  0  0  0  0
M  END
>  <MODEL>
3

>  <REMARK>
 VINA RESULT:      -1.6      4.481     11.272
  Name = 
  5 active torsions:
  status: ('A' for Active; 'I' for Inactive)
    1  A    between atoms: C_1  and  C_53
    2  A    between atoms: C_11  and  C_29
    3  A    between atoms: C_29  and  C_38
    4  A    between atoms: C_33  and  C_52
    5  A    between atoms: C_42  and  C_53
                            x       y       z     vdW  Elec       q    Type
                         _______ _______ _______ _____ _____    ______ ____

>  <TORSDO>
F 5

$$$$
=
 OpenBabel11052414513D

 55 64  0  0  1  0  0  0  0  0999 V2000
  183.1170  173.4960  137.2540 C   0  0  0  0  0  2  0  0  0  0  0  0
  186.3620  178.4080  137.8410 C   0  0  0  0  0  3  0  0  0  0  0  0
  184.8070  177.3680  140.0620 C   0  0  0  0  0  2  0  0  0  0  0  0
  188.6180  176.8570  136.6480 C   0  0  0  0  0  3  0  0  0  0  0  0
  188.4500  178.2880  134.5940 C   0  0  0  0  0  2  0  0  0  0  0  0
  181.8210  178.7260  139.9500 C   0  0  0  0  0  3  0  0  0  0  0  0
  180.7980  179.7860  140.2540 C   0  0  0  0  0  2  0  0  0  0  0  0
  180.7130  178.1700  137.7860 C   0  0  1  0  0  3  0  0  0  0  0  0
  179.7980  179.3750  138.0360 C   0  0  0  0  0  2  0  0  0  0  0  0
  182.8030  176.3850  137.2590 N   0  0  0  0  0  2  0  0  0  0  0  0
  190.5310  177.9820  135.7920 O   0  0  0  0  0  0  0  0  0  0  0  0
  189.7560  178.9280  135.0540 C   0  0  0  0  0  2  0  0  0  0  0  0
  179.4920  179.5270  139.5210 C   0  0  0  0  0  2  0  0  0  0  0  0
  186.4570  172.0750  136.1540 C   0  0  0  0  0  3  0  0  0  0  0  0
  181.8530  178.0530  138.7850 C   0  0  0  0  0  0  0  0  0  0  0  0
  186.3240  174.3780  135.4010 C   0  0  0  0  0  0  0  0  0  0  0  0
  182.2600  174.2730  136.4620 O   0  0  0  0  0  0  0  0  0  0  0  0
  185.0370  174.4700  135.9510 C   0  0  0  0  0  3  0  0  0  0  0  0
  180.4510  175.8540  136.8000 C   0  0  1  0  0  3  0  0  0  0  0  0
  187.1360  178.8610  136.6400 C   0  0  0  0  0  2  0  0  0  0  0  0
  179.8940  176.8860  137.7920 C   0  0  0  0  0  2  0  0  0  0  0  0
  185.1010  178.0050  137.7180 C   0  0  0  0  0  3  0  0  0  0  0  0
  184.2980  177.4770  138.8390 C   0  0  0  0  0  0  0  0  0  0  0  0
  185.1790  172.1800  136.7160 C   0  0  0  0  0  3  0  0  0  0  0  0
  189.9450  177.0410  136.6530 C   0  0  0  0  0  0  0  0  0  0  0  0
  187.6920  177.7000  135.7950 C   0  0  2  0  0  0  0  0  0  0  0  0
  184.4590  173.3750  136.6050 C   0  0  0  0  0  0  0  0  0  0  0  0
  182.9010  176.9760  138.5910 C   0  0  2  0  0  3  0  0  0  0  0  0
  181.8130  175.3130  137.2890 C   0  0  2  0  0  3  0  0  0  0  0  0
  186.5240  176.8660  135.2560 C   0  0  0  0  0  2  0  0  0  0  0  0
  186.9280  175.5250  134.6460 C   0  0  0  0  0  2  0  0  0  0  0  0
  187.0250  173.1690  135.4930 C   0  0  0  0  0  3  0  0  0  0  0  0
  180.2480  172.2480  135.1110 C   0  0  1  0  0  3  0  0  0  0  0  0
  179.1720  174.4900  135.0830 C   0  0  0  0  0  2  0  0  0  0  0  0
  179.5480  170.1700  136.0660 O   0  0  0  0  0  0  0  0  0  0  0  0
  179.3790  172.5210  136.2880 C   0  0  2  0  0  0  0  0  0  0  0  0
  179.8730  173.5180  137.1360 O   0  0  0  0  0  0  0  0  0  0  0  0
  178.9370  171.1860  136.8240 C   0  0  0  0  0  2  0  0  0  0  0  0
  180.0280  170.7710  134.8840 C   0  0  0  0  0  2  0  0  0  0  0  0
  178.9330  173.0110  134.9520 C   0  0  2  0  0  3  0  0  0  0  0  0
  179.4190  174.7310  136.5750 C   0  0  1  0  0  3  0  0  0  0  0  0
  189.2650  175.9920  140.8770 O   0  0  0  0  0  1  0  0  0  0  0  0
  190.2490  175.1670  138.4620 C   0  0  1  0  0  3  0  0  0  0  0  0
  189.9880  177.4960  139.2910 O   0  0  0  0  0  0  0  0  0  0  0  0
  190.9370  176.4560  139.0230 C   0  0  1  0  0  0  0  0  0  0  0  0
  190.3460  176.7370  140.3910 C   0  0  2  0  0  0  0  0  0  0  0  0
  188.8480  175.2380  138.4270 O   0  0  0  0  0  1  0  0  0  0  0  0
  190.8380  176.1620  137.5080 C   0  0  2  0  0  0  0  0  0  0  0  0
  192.1860  175.7450  136.9240 C   0  0  2  0  0  3  0  0  0  0  0  0
  192.1790  174.3810  136.6180 O   0  0  0  0  0  1  0  0  0  0  0  0
  193.3160  176.0400  137.8930 C   0  0  0  0  0  1  0  0  0  0  0  0
  191.1220  177.5500  141.3850 C   0  0  0  0  0  0  0  0  0  0  0  0
  192.3000  177.7960  141.1760 O   0  0  0  0  0  0  0  0  0  0  0  0
  190.4890  178.0070  142.6610 C   0  0  0  0  0  2  0  0  0  0  0  0
  191.2430  177.5170  143.8010 N   0  0  0  0  0  1  0  0  0  0  0  0
  4 25  2  0  0  0  0
  5 12  1  0  0  0  0
  6  7  1  0  0  0  0
  8 21  1  1  0  0  0
  8  9  1  0  0  0  0
  8 15  1  0  0  0  0
  9 13  1  0  0  0  0
 10 29  1  0  0  0  0
 11 25  1  0  0  0  0
 12 11  1  0  0  0  0
 13  7  1  0  0  0  0
 14 24  1  0  0  0  0
 15  6  2  0  0  0  0
 16 32  1  0  0  0  0
 16 18  2  0  0  0  0
 17  1  1  0  0  0  0
 18 27  1  0  0  0  0
 19 29  1  0  0  0  0
 19 21  1  1  0  0  0
 20  2  1  0  0  0  0
 22  2  2  0  0  0  0
 22 23  1  0  0  0  0
 23  3  2  0  0  0  0
 25 48  1  0  0  0  0
 26  5  1  6  0  0  0
 26 20  1  0  0  0  0
 26  4  1  0  0  0  0
 27 24  2  0  0  0  0
 27  1  1  0  0  0  0
 28 10  1  6  0  0  0
 28 15  1  0  0  0  0
 28 23  1  0  0  0  0
 29 17  1  6  0  0  0
 30 26  1  0  0  0  0
 31 30  1  0  0  0  0
 31 16  1  0  0  0  0
 32 14  2  0  0  0  0
 33 39  1  6  0  0  0
 33 36  1  0  0  0  0
 35 38  1  0  0  0  0
 36 38  1  1  0  0  0
 36 37  1  0  0  0  0
 39 35  1  0  0  0  0
 40 34  1  1  0  0  0
 40 33  1  0  0  0  0
 40 36  1  0  0  0  0
 41 34  1  6  0  0  0
 41 19  1  0  0  0  0
 41 37  1  0  0  0  0
 43 47  1  6  0  0  0
 43 45  1  0  0  0  0
 44 46  1  0  0  0  0
 45 44  1  6  0  0  0
 45 46  1  0  0  0  0
 46 42  1  1  0  0  0
 46 52  1  0  0  0  0
 48 49  1  6  0  0  0
 48 43  1  0  0  0  0
 48 45  1  0  0  0  0
 49 51  1  1  0  0  0
 50 49  1  0  0  0  0
 52 54  1  0  0  0  0
 53 52  2  0  0  0  0
 54 55  1  0  0  0  0
M  END
>  <MODEL>
4

>  <REMARK>
 VINA RESULT:      -1.3      3.980     10.435
  Name = 
  5 active torsions:
  status: ('A' for Active; 'I' for Inactive)
    1  A    between atoms: C_1  and  C_53
    2  A    between atoms: C_11  and  C_29
    3  A    between atoms: C_29  and  C_38
    4  A    between atoms: C_33  and  C_52
    5  A    between atoms: C_42  and  C_53
                            x       y       z     vdW  Elec       q    Type
                         _______ _______ _______ _____ _____    ______ ____

>  <TORSDO>
F 5

$$$$
=
 OpenBabel11052414513D

 55 64  0  0  1  0  0  0  0  0999 V2000
  187.2070  177.3460  141.8010 C   0  0  0  0  0  2  0  0  0  0  0  0
  185.1310  176.1240  136.3980 C   0  0  0  0  0  3  0  0  0  0  0  0
  186.5800  174.1280  137.9300 C   0  0  0  0  0  2  0  0  0  0  0  0
  182.5180  177.2260  137.3370 C   0  0  0  0  0  3  0  0  0  0  0  0
  182.8430  179.1780  135.7950 C   0  0  0  0  0  2  0  0  0  0  0  0
  189.7710  174.4020  137.2130 C   0  0  0  0  0  3  0  0  0  0  0  0
  191.0150  174.1120  136.4180 C   0  0  0  0  0  2  0  0  0  0  0  0
  190.5810  176.6880  137.7900 C   0  0  1  0  0  3  0  0  0  0  0  0
  191.7470  176.4320  136.8280 C   0  0  0  0  0  2  0  0  0  0  0  0
  188.1280  177.1590  139.0510 N   0  0  0  0  0  2  0  0  0  0  0  0
  180.8340  177.8290  135.7700 O   0  0  0  0  0  0  0  0  0  0  0  0
  181.7390  178.5610  134.9420 C   0  0  0  0  0  2  0  0  0  0  0  0
  192.1810  174.9730  136.8750 C   0  0  0  0  0  2  0  0  0  0  0  0
  183.5730  178.2510  142.3980 C   0  0  0  0  0  3  0  0  0  0  0  0
  189.5150  175.6050  137.7590 C   0  0  0  0  0  0  0  0  0  0  0  0
  184.1390  178.8440  140.1150 C   0  0  0  0  0  0  0  0  0  0  0  0
  188.1520  178.1520  141.1500 O   0  0  0  0  0  0  0  0  0  0  0  0
  185.4520  178.4030  140.3390 C   0  0  0  0  0  3  0  0  0  0  0  0
  190.2750  177.8590  140.0130 C   0  0  1  0  0  3  0  0  0  0  0  0
  184.3890  177.2180  135.6890 C   0  0  0  0  0  2  0  0  0  0  0  0
  191.1070  176.8460  139.2120 C   0  0  0  0  0  2  0  0  0  0  0  0
  186.2650  176.3860  137.0400 C   0  0  0  0  0  3  0  0  0  0  0  0
  187.0130  175.3800  137.8200 C   0  0  0  0  0  0  0  0  0  0  0  0
  184.8790  177.7970  142.6100 C   0  0  0  0  0  3  0  0  0  0  0  0
  181.2650  177.0920  136.8840 C   0  0  0  0  0  0  0  0  0  0  0  0
  183.5400  178.0930  136.6300 C   0  0  2  0  0  0  0  0  0  0  0  0
  185.8280  177.8820  141.5850 C   0  0  0  0  0  0  0  0  0  0  0  0
  188.2510  175.7840  138.5740 C   0  0  2  0  0  3  0  0  0  0  0  0
  188.8660  177.2930  140.3030 C   0  0  2  0  0  3  0  0  0  0  0  0
  184.4640  178.7910  137.6360 C   0  0  0  0  0  2  0  0  0  0  0  0
  183.7420  179.4590  138.8050 C   0  0  0  0  0  2  0  0  0  0  0  0
  183.2060  178.7790  141.1570 C   0  0  0  0  0  3  0  0  0  0  0  0
  189.7520  177.7230  143.9640 C   0  0  1  0  0  3  0  0  0  0  0  0
  190.2470  179.2980  142.1030 C   0  0  0  0  0  2  0  0  0  0  0  0
  191.1610  176.7670  145.6430 O   0  0  0  0  0  0  0  0  0  0  0  0
  191.1400  177.6260  143.4370 C   0  0  2  0  0  0  0  0  0  0  0  0
  191.2150  177.1280  142.1310 O   0  0  0  0  0  0  0  0  0  0  0  0
  191.9880  177.0570  144.5420 C   0  0  0  0  0  2  0  0  0  0  0  0
  189.9460  177.4540  145.4370 C   0  0  0  0  0  2  0  0  0  0  0  0
  190.5200  178.9780  143.5470 C   0  0  2  0  0  3  0  0  0  0  0  0
  191.0260  178.2530  141.3010 C   0  0  1  0  0  3  0  0  0  0  0  0
  181.3150  172.6940  137.1240 O   0  0  0  0  0  1  0  0  0  0  0  0
  180.7210  175.0320  138.4120 C   0  0  1  0  0  3  0  0  0  0  0  0
  180.8170  174.6180  135.9630 O   0  0  0  0  0  0  0  0  0  0  0  0
  179.9360  174.8240  137.0740 C   0  0  1  0  0  0  0  0  0  0  0  0
  180.3080  173.4610  136.5270 C   0  0  2  0  0  0  0  0  0  0  0  0
  182.1090  174.8750  138.2890 O   0  0  0  0  0  1  0  0  0  0  0  0
  180.2660  176.2290  137.6330 C   0  0  2  0  0  0  0  0  0  0  0  0
  179.0290  176.9150  138.2060 C   0  0  2  0  0  3  0  0  0  0  0  0
  179.0660  178.2850  137.9330 O   0  0  0  0  0  1  0  0  0  0  0  0
  178.9330  176.7010  139.7060 C   0  0  0  0  0  1  0  0  0  0  0  0
  179.3790  172.7580  135.5820 C   0  0  0  0  0  0  0  0  0  0  0  0
  178.9400  173.3550  134.6110 O   0  0  0  0  0  0  0  0  0  0  0  0
  178.9310  171.3560  135.8500 C   0  0  0  0  0  2  0  0  0  0  0  0
  179.3800  170.4730  134.7890 N   0  0  0  0  0  1  0  0  0  0  0  0
  2 22  2  0  0  0  0
  5 26  1  0  0  0  0
  6 15  2  0  0  0  0
  7 13  1  0  0  0  0
  7  6  1  0  0  0  0
  8  9  1  6  0  0  0
  8 21  1  0  0  0  0
  9 13  1  0  0  0  0
 11 25  1  0  0  0  0
 12 11  1  0  0  0  0
 12  5  1  0  0  0  0
 14 24  1  0  0  0  0
 15  8  1  0  0  0  0
 16 18  2  0  0  0  0
 16 32  1  0  0  0  0
 17  1  1  0  0  0  0
 18 27  1  0  0  0  0
 19 21  1  1  0  0  0
 19 29  1  0  0  0  0
 19 41  1  0  0  0  0
 20  2  1  0  0  0  0
 22 23  1  0  0  0  0
 23  3  2  0  0  0  0
 23 28  1  0  0  0  0
 25  4  2  0  0  0  0
 25 48  1  0  0  0  0
 26 20  1  6  0  0  0
 26  4  1  0  0  0  0
 26 30  1  0  0  0  0
 27  1  1  0  0  0  0
 27 24  2  0  0  0  0
 28 15  1  6  0  0  0
 28 10  1  0  0  0  0
 29 10  1  6  0  0  0
 29 17  1  0  0  0  0
 30 31  1  0  0  0  0
 31 16  1  0  0  0  0
 32 14  2  0  0  0  0
 33 39  1  1  0  0  0
 36 40  1  0  0  0  0
 36 33  1  0  0  0  0
 36 38  1  1  0  0  0
 37 36  1  0  0  0  0
 38 35  1  0  0  0  0
 39 35  1  0  0  0  0
 40 34  1  6  0  0  0
 40 33  1  0  0  0  0
 41 34  1  1  0  0  0
 41 37  1  0  0  0  0
 43 47  1  6  0  0  0
 44 46  1  0  0  0  0
 45 44  1  6  0  0  0
 45 48  1  0  0  0  0
 45 43  1  0  0  0  0
 46 45  1  0  0  0  0
 46 42  1  1  0  0  0
 48 49  1  1  0  0  0
 48 43  1  0  0  0  0
 49 51  1  1  0  0  0
 50 49  1  0  0  0  0
 52 54  1  0  0  0  0
 52 46  1  0  0  0  0
 53 52  2  0  0  0  0
 55 54  1  0  0  0  0
M  END
>  <MODEL>
5

>  <REMARK>
 VINA RESULT:      -0.1      3.258      6.474
  Name = 
  5 active torsions:
  status: ('A' for Active; 'I' for Inactive)
    1  A    between atoms: C_1  and  C_53
    2  A    between atoms: C_11  and  C_29
    3  A    between atoms: C_29  and  C_38
    4  A    between atoms: C_33  and  C_52
    5  A    between atoms: C_42  and  C_53
                            x       y       z     vdW  Elec       q    Type
                         _______ _______ _______ _____ _____    ______ ____

>  <TORSDO>
F 5

$$$$
