=
 OpenBabel11052413393D

 27 31  0  0  1  0  0  0  0  0999 V2000
  187.6880  176.6110  142.9120 C   0  0  0  0  0  2  0  0  0  0  0  0
  188.9770  177.5410  141.0230 C   0  0  0  0  0  0  0  0  0  0  0  0
  186.7510  178.6360  140.9350 N   0  0  0  0  0  2  0  0  0  0  0  0
  189.3110  177.9000  136.9260 N   0  0  0  0  0  0  0  0  0  0  0  0
  187.4900  177.3470  135.4940 N   0  0  0  0  0  1  0  0  0  0  0  0
  190.1480  177.0770  140.3070 N   0  0  0  0  0  0  0  0  0  0  0  0
  187.2680  178.0120  137.9390 C   0  0  1  0  0  3  0  0  0  0  0  0
  184.6690  179.4760  143.9030 C   0  0  0  0  0  0  0  0  0  0  0  0
  185.8350  177.6500  138.1350 C   0  0  0  0  0  1  0  0  0  0  0  0
  183.7010  180.3660  144.2250 F   0  0  0  0  0  0  0  0  0  0  0  0
  188.1490  178.2790  138.8920 C   0  0  2  0  0  3  0  0  0  0  0  0
  188.8890  177.2710  142.4260 N   0  0  0  0  0  0  0  0  0  0  0  0
  188.0390  177.7870  136.7300 C   0  0  0  0  0  0  0  0  0  0  0  0
  189.5200  178.3210  138.3070 C   0  0  1  0  0  3  0  0  0  0  0  0
  186.6650  177.6340  143.2310 C   0  0  0  0  0  0  0  0  0  0  0  0
  187.9540  178.1120  140.3400 C   0  0  0  0  0  0  0  0  0  0  0  0
  185.2310  179.4850  142.6230 C   0  0  0  0  0  3  0  0  0  0  0  0
  190.4020  177.3740  139.0630 C   0  0  0  0  0  3  0  0  0  0  0  0
  185.1060  178.5470  144.8480 C   0  0  0  0  0  3  0  0  0  0  0  0
  186.0990  177.6260  144.5110 C   0  0  0  0  0  3  0  0  0  0  0  0
  186.2390  178.5780  142.2760 C   0  0  0  0  0  0  0  0  0  0  0  0
  192.0410  178.1550  145.0890 N   0  0  0  0  0  0  0  0  0  0  0  0
  189.9750  177.5720  143.3280 C   0  0  0  0  0  0  0  0  0  0  0  0
  190.5740  178.8410  143.3360 C   0  0  0  0  0  3  0  0  0  0  0  0
  191.6130  179.1150  144.2270 C   0  0  0  0  0  3  0  0  0  0  0  0
  191.4790  176.9180  145.1120 C   0  0  0  0  0  3  0  0  0  0  0  0
  190.4370  176.6050  144.2360 C   0  0  0  0  0  3  0  0  0  0  0  0
  1 15  1  0  0  0  0
  2 12  1  0  0  0  0
  3 21  1  0  0  0  0
  4 14  1  0  0  0  0
  5 13  1  0  0  0  0
  6  2  1  0  0  0  0
  7  9  1  1  0  0  0
  7 11  1  0  0  0  0
  8 10  1  0  0  0  0
  8 19  1  0  0  0  0
 11 16  1  1  0  0  0
 12  1  1  0  0  0  0
 12 23  1  0  0  0  0
 13  4  2  0  0  0  0
 13  7  1  0  0  0  0
 14 11  1  0  0  0  0
 14 18  1  1  0  0  0
 15 20  1  0  0  0  0
 16  3  1  0  0  0  0
 16  2  2  0  0  0  0
 17  8  2  0  0  0  0
 18  6  2  0  0  0  0
 20 19  2  0  0  0  0
 21 17  1  0  0  0  0
 21 15  2  0  0  0  0
 22 26  1  0  0  0  0
 23 24  2  0  0  0  0
 23 27  1  0  0  0  0
 24 25  1  0  0  0  0
 25 22  2  0  0  0  0
 27 26  2  0  0  0  0
M  END
>  <MODEL>
1

>  <REMARK>
 VINA RESULT:      -9.0      0.000      0.000
  Name = 
  1 active torsions:
  status: ('A' for Active; 'I' for Inactive)
    1  A    between atoms: C_9  and  N_15
                            x       y       z     vdW  Elec       q    Type
                         _______ _______ _______ _____ _____    ______ ____

>  <TORSDO>
F 1

$$$$
=
 OpenBabel11052413393D

 27 31  0  0  1  0  0  0  0  0999 V2000
  190.5220  178.6350  143.7100 C   0  0  0  0  0  2  0  0  0  0  0  0
  188.5270  177.8080  144.9050 C   0  0  0  0  0  0  0  0  0  0  0  0
  188.0520  177.4980  142.4890 N   0  0  0  0  0  2  0  0  0  0  0  0
  184.4950  178.3030  145.6300 N   0  0  0  0  0  0  0  0  0  0  0  0
  183.1600  179.6970  144.2350 N   0  0  0  0  0  1  0  0  0  0  0  0
  188.0120  178.0410  146.2390 N   0  0  0  0  0  0  0  0  0  0  0  0
  185.3420  178.5960  143.5300 C   0  0  1  0  0  3  0  0  0  0  0  0
  190.6010  176.6870  139.9020 C   0  0  0  0  0  0  0  0  0  0  0  0
  185.5510  179.3260  142.2470 C   0  0  0  0  0  1  0  0  0  0  0  0
  190.6380  176.0870  138.6890 F   0  0  0  0  0  0  0  0  0  0  0  0
  186.2390  177.8630  144.1730 C   0  0  2  0  0  3  0  0  0  0  0  0
  189.9470  177.7660  144.7240 N   0  0  0  0  0  0  0  0  0  0  0  0
  184.2710  178.8420  144.4780 C   0  0  0  0  0  0  0  0  0  0  0  0
  185.7330  177.5370  145.5370 C   0  0  1  0  0  3  0  0  0  0  0  0
  190.5200  177.9300  142.4070 C   0  0  0  0  0  0  0  0  0  0  0  0
  187.6710  177.7490  143.8560 C   0  0  0  0  0  0  0  0  0  0  0  0
  189.3910  176.7960  140.5930 C   0  0  0  0  0  3  0  0  0  0  0  0
  186.7480  177.9710  146.5510 C   0  0  0  0  0  3  0  0  0  0  0  0
  191.7720  177.1970  140.4640 C   0  0  0  0  0  3  0  0  0  0  0  0
  191.7300  177.8210  141.7130 C   0  0  0  0  0  3  0  0  0  0  0  0
  189.3370  177.4050  141.8520 C   0  0  0  0  0  0  0  0  0  0  0  0
  192.4560  175.4090  147.1650 N   0  0  0  0  0  0  0  0  0  0  0  0
  190.7960  176.9510  145.5590 C   0  0  0  0  0  0  0  0  0  0  0  0
  191.5560  175.9080  145.0100 C   0  0  0  0  0  3  0  0  0  0  0  0
  192.3830  175.1420  145.8330 C   0  0  0  0  0  3  0  0  0  0  0  0
  191.7380  176.4170  147.7270 C   0  0  0  0  0  3  0  0  0  0  0  0
  190.8990  177.2050  146.9360 C   0  0  0  0  0  3  0  0  0  0  0  0
  1 12  1  0  0  0  0
  2  6  1  0  0  0  0
  3 16  1  0  0  0  0
  5 13  1  0  0  0  0
  6 18  2  0  0  0  0
  7  9  1  1  0  0  0
  7 11  1  0  0  0  0
  7 13  1  0  0  0  0
  8 19  2  0  0  0  0
  8 17  1  0  0  0  0
 10  8  1  0  0  0  0
 11 16  1  1  0  0  0
 11 14  1  0  0  0  0
 12  2  1  0  0  0  0
 12 23  1  0  0  0  0
 13  4  2  0  0  0  0
 14  4  1  0  0  0  0
 14 18  1  1  0  0  0
 15  1  1  0  0  0  0
 16  2  2  0  0  0  0
 17 21  2  0  0  0  0
 19 20  1  0  0  0  0
 20 15  2  0  0  0  0
 21 15  1  0  0  0  0
 21  3  1  0  0  0  0
 22 26  1  0  0  0  0
 23 27  1  0  0  0  0
 24 23  2  0  0  0  0
 24 25  1  0  0  0  0
 25 22  2  0  0  0  0
 27 26  2  0  0  0  0
M  END
>  <MODEL>
2

>  <REMARK>
 VINA RESULT:      -8.6      3.224      6.004
  Name = 
  1 active torsions:
  status: ('A' for Active; 'I' for Inactive)
    1  A    between atoms: C_9  and  N_15
                            x       y       z     vdW  Elec       q    Type
                         _______ _______ _______ _____ _____    ______ ____

>  <TORSDO>
F 1

$$$$
=
 OpenBabel11052413393D

 27 31  0  0  1  0  0  0  0  0999 V2000
  187.3380  176.3630  143.3980 C   0  0  0  0  0  2  0  0  0  0  0  0
  189.0640  177.1050  141.7960 C   0  0  0  0  0  0  0  0  0  0  0  0
  187.0940  178.5600  141.3980 N   0  0  0  0  0  2  0  0  0  0  0  0
  190.1460  177.4930  137.8330 N   0  0  0  0  0  0  0  0  0  0  0  0
  188.5310  177.2860  136.0950 N   0  0  0  0  0  1  0  0  0  0  0  0
  190.2490  176.4660  141.2610 N   0  0  0  0  0  0  0  0  0  0  0  0
  188.0060  177.9250  138.5010 C   0  0  1  0  0  3  0  0  0  0  0  0
  184.7010  179.6730  144.0220 C   0  0  0  0  0  0  0  0  0  0  0  0
  186.5210  177.8040  138.4390 C   0  0  0  0  0  1  0  0  0  0  0  0
  183.8490  180.7060  144.2240 F   0  0  0  0  0  0  0  0  0  0  0  0
  188.7430  178.0180  139.5980 C   0  0  2  0  0  3  0  0  0  0  0  0
  188.6960  176.8230  143.1510 N   0  0  0  0  0  0  0  0  0  0  0  0
  188.9250  177.6000  137.4250 C   0  0  0  0  0  0  0  0  0  0  0  0
  190.1820  177.8420  139.2490 C   0  0  1  0  0  3  0  0  0  0  0  0
  186.4560  177.5370  143.5950 C   0  0  0  0  0  0  0  0  0  0  0  0
  188.2800  177.8550  140.9840 C   0  0  0  0  0  0  0  0  0  0  0  0
  185.4660  179.6160  142.8540 C   0  0  0  0  0  3  0  0  0  0  0  0
  190.7570  176.7430  140.0920 C   0  0  0  0  0  3  0  0  0  0  0  0
  184.8130  178.6630  144.9780 C   0  0  0  0  0  3  0  0  0  0  0  0
  185.6870  177.5960  144.7630 C   0  0  0  0  0  3  0  0  0  0  0  0
  186.3580  178.5600  142.6320 C   0  0  0  0  0  0  0  0  0  0  0  0
  191.4710  177.0600  146.3210 N   0  0  0  0  0  0  0  0  0  0  0  0
  189.6460  176.9160  144.2330 C   0  0  0  0  0  0  0  0  0  0  0  0
  189.2580  177.3970  145.4920 C   0  0  0  0  0  3  0  0  0  0  0  0
  190.1890  177.4640  146.5290 C   0  0  0  0  0  3  0  0  0  0  0  0
  191.8780  176.5830  145.1150 C   0  0  0  0  0  3  0  0  0  0  0  0
  190.9760  176.5010  144.0530 C   0  0  0  0  0  3  0  0  0  0  0  0
  1 15  1  0  0  0  0
  2 12  1  0  0  0  0
  3 21  1  0  0  0  0
  4 14  1  0  0  0  0
  5 13  1  0  0  0  0
  6  2  1  0  0  0  0
  7  9  1  1  0  0  0
  7 11  1  0  0  0  0
  8 10  1  0  0  0  0
  8 19  1  0  0  0  0
 11 16  1  1  0  0  0
 12  1  1  0  0  0  0
 12 23  1  0  0  0  0
 13  4  2  0  0  0  0
 13  7  1  0  0  0  0
 14 11  1  0  0  0  0
 14 18  1  1  0  0  0
 15 20  1  0  0  0  0
 16  3  1  0  0  0  0
 16  2  2  0  0  0  0
 17  8  2  0  0  0  0
 18  6  2  0  0  0  0
 20 19  2  0  0  0  0
 21 17  1  0  0  0  0
 21 15  2  0  0  0  0
 22 25  1  0  0  0  0
 23 24  1  0  0  0  0
 24 25  2  0  0  0  0
 26 22  2  0  0  0  0
 27 23  2  0  0  0  0
 27 26  1  0  0  0  0
M  END
>  <MODEL>
3

>  <REMARK>
 VINA RESULT:      -8.1      1.065      1.197
  Name = 
  1 active torsions:
  status: ('A' for Active; 'I' for Inactive)
    1  A    between atoms: C_9  and  N_15
                            x       y       z     vdW  Elec       q    Type
                         _______ _______ _______ _____ _____    ______ ____

>  <TORSDO>
F 1

$$$$
=
 OpenBabel11052413393D

 27 31  0  0  1  0  0  0  0  0999 V2000
  189.4220  178.9870  142.2420 C   0  0  0  0  0  2  0  0  0  0  0  0
  188.5770  177.7150  140.3020 C   0  0  0  0  0  0  0  0  0  0  0  0
  190.5170  176.4320  141.1670 N   0  0  0  0  0  2  0  0  0  0  0  0
  189.3520  176.3170  136.4990 N   0  0  0  0  0  0  0  0  0  0  0  0
  191.5680  176.2980  135.6260 N   0  0  0  0  0  1  0  0  0  0  0  0
  187.7510  178.0820  139.1700 N   0  0  0  0  0  0  0  0  0  0  0  0
  190.9770  176.2860  138.1010 C   0  0  1  0  0  3  0  0  0  0  0  0
  191.5060  176.2150  144.7480 C   0  0  0  0  0  0  0  0  0  0  0  0
  192.3380  176.5510  138.6520 C   0  0  0  0  0  1  0  0  0  0  0  0
  192.1780  175.3550  145.5480 F   0  0  0  0  0  0  0  0  0  0  0  0
  189.8320  176.3650  138.7620 C   0  0  2  0  0  3  0  0  0  0  0  0
  188.3110  178.3380  141.5640 N   0  0  0  0  0  0  0  0  0  0  0  0
  190.6270  176.2540  136.6930 C   0  0  0  0  0  0  0  0  0  0  0  0
  188.6950  176.2990  137.8010 C   0  0  1  0  0  3  0  0  0  0  0  0
  190.1240  177.9930  143.0870 C   0  0  0  0  0  0  0  0  0  0  0  0
  189.6380  176.8900  140.1220 C   0  0  0  0  0  0  0  0  0  0  0  0
  191.3340  175.9210  143.3930 C   0  0  0  0  0  3  0  0  0  0  0  0
  187.8100  177.4910  138.0080 C   0  0  0  0  0  3  0  0  0  0  0  0
  190.9860  177.3980  145.2740 C   0  0  0  0  0  3  0  0  0  0  0  0
  190.2990  178.2870  144.4440 C   0  0  0  0  0  3  0  0  0  0  0  0
  190.6340  176.7940  142.5520 C   0  0  0  0  0  0  0  0  0  0  0  0
  184.4260  178.5270  143.2020 N   0  0  0  0  0  0  0  0  0  0  0  0
  186.9810  178.3910  142.1210 C   0  0  0  0  0  0  0  0  0  0  0  0
  186.7120  177.8630  143.3930 C   0  0  0  0  0  3  0  0  0  0  0  0
  185.4210  177.9390  143.9190 C   0  0  0  0  0  3  0  0  0  0  0  0
  184.6550  179.0530  141.9700 C   0  0  0  0  0  3  0  0  0  0  0  0
  185.9330  178.9960  141.4090 C   0  0  0  0  0  3  0  0  0  0  0  0
  1 15  1  0  0  0  0
  2 12  1  0  0  0  0
  3 21  1  0  0  0  0
  4 13  2  0  0  0  0
  4 14  1  0  0  0  0
  5 13  1  0  0  0  0
  6  2  1  0  0  0  0
  7  9  1  6  0  0  0
  7 11  1  0  0  0  0
  8 19  1  0  0  0  0
  8 10  1  0  0  0  0
 11 16  1  6  0  0  0
 12 23  1  0  0  0  0
 12  1  1  0  0  0  0
 13  7  1  0  0  0  0
 14 18  1  6  0  0  0
 14 11  1  0  0  0  0
 15 20  1  0  0  0  0
 16  2  2  0  0  0  0
 16  3  1  0  0  0  0
 17  8  2  0  0  0  0
 18  6  2  0  0  0  0
 20 19  2  0  0  0  0
 21 15  2  0  0  0  0
 21 17  1  0  0  0  0
 22 25  1  0  0  0  0
 23 24  1  0  0  0  0
 24 25  2  0  0  0  0
 26 22  2  0  0  0  0
 27 26  1  0  0  0  0
 27 23  2  0  0  0  0
M  END
>  <MODEL>
4

>  <REMARK>
 VINA RESULT:      -7.9      2.464      4.991
  Name = 
  1 active torsions:
  status: ('A' for Active; 'I' for Inactive)
    1  A    between atoms: C_9  and  N_15
                            x       y       z     vdW  Elec       q    Type
                         _______ _______ _______ _____ _____    ______ ____

>  <TORSDO>
F 1

$$$$
=
 OpenBabel11052413393D

 27 31  0  0  1  0  0  0  0  0999 V2000
  187.0920  179.4710  141.3430 C   0  0  0  0  0  2  0  0  0  0  0  0
  188.1750  177.9280  142.9380 C   0  0  0  0  0  0  0  0  0  0  0  0
  185.7500  177.8640  143.4650 N   0  0  0  0  0  2  0  0  0  0  0  0
  189.0510  177.1130  146.8860 N   0  0  0  0  0  0  0  0  0  0  0  0
  187.9310  178.2530  148.6520 N   0  0  0  0  0  1  0  0  0  0  0  0
  189.5390  177.7970  143.4070 N   0  0  0  0  0  0  0  0  0  0  0  0
  187.0110  177.9540  146.2990 C   0  0  1  0  0  3  0  0  0  0  0  0
  183.0150  178.2310  140.9690 C   0  0  0  0  0  0  0  0  0  0  0  0
  185.8620  178.8990  146.3920 C   0  0  0  0  0  1  0  0  0  0  0  0
  181.7190  177.8590  140.8450 F   0  0  0  0  0  0  0  0  0  0  0  0
  187.5070  177.4260  145.1900 C   0  0  2  0  0  3  0  0  0  0  0  0
  187.9610  178.3290  141.5800 N   0  0  0  0  0  0  0  0  0  0  0  0
  188.0080  177.7310  147.3310 C   0  0  0  0  0  0  0  0  0  0  0  0
  188.8080  176.7630  145.4910 C   0  0  1  0  0  3  0  0  0  0  0  0
  185.6910  179.0020  141.2330 C   0  0  0  0  0  0  0  0  0  0  0  0
  187.1470  177.7820  143.8100 C   0  0  0  0  0  0  0  0  0  0  0  0
  183.7380  177.8780  142.1110 C   0  0  0  0  0  3  0  0  0  0  0  0
  189.8600  177.3150  144.5760 C   0  0  0  0  0  3  0  0  0  0  0  0
  183.6300  178.9690  139.9570 C   0  0  0  0  0  3  0  0  0  0  0  0
  184.9640  179.3560  140.0910 C   0  0  0  0  0  3  0  0  0  0  0  0
  185.0810  178.2460  142.2520 C   0  0  0  0  0  0  0  0  0  0  0  0
  189.9470  176.4610  138.3590 N   0  0  0  0  0  0  0  0  0  0  0  0
  188.6330  177.6800  140.4800 C   0  0  0  0  0  0  0  0  0  0  0  0
  188.0370  177.6110  139.2120 C   0  0  0  0  0  3  0  0  0  0  0  0
  188.7110  176.9930  138.1580 C   0  0  0  0  0  3  0  0  0  0  0  0
  190.5560  176.5170  139.5740 C   0  0  0  0  0  3  0  0  0  0  0  0
  189.9120  177.1270  140.6520 C   0  0  0  0  0  3  0  0  0  0  0  0
  1 12  1  0  0  0  0
  2  6  1  0  0  0  0
  2 16  2  0  0  0  0
  3 16  1  0  0  0  0
  4 13  2  0  0  0  0
  6 18  2  0  0  0  0
  7  9  1  6  0  0  0
  7 13  1  0  0  0  0
  8 17  1  0  0  0  0
 10  8  1  0  0  0  0
 11 16  1  6  0  0  0
 11 14  1  0  0  0  0
 11  7  1  0  0  0  0
 12  2  1  0  0  0  0
 13  5  1  0  0  0  0
 14 18  1  6  0  0  0
 14  4  1  0  0  0  0
 15  1  1  0  0  0  0
 15 21  1  0  0  0  0
 17 21  2  0  0  0  0
 19 20  1  0  0  0  0
 19  8  2  0  0  0  0
 20 15  2  0  0  0  0
 21  3  1  0  0  0  0
 22 26  1  0  0  0  0
 23 27  1  0  0  0  0
 23 12  1  0  0  0  0
 24 23  2  0  0  0  0
 25 22  2  0  0  0  0
 25 24  1  0  0  0  0
 26 27  2  0  0  0  0
M  END
>  <MODEL>
5

>  <REMARK>
 VINA RESULT:      -7.8      2.366      6.030
  Name = 
  1 active torsions:
  status: ('A' for Active; 'I' for Inactive)
    1  A    between atoms: C_9  and  N_15
                            x       y       z     vdW  Elec       q    Type
                         _______ _______ _______ _____ _____    ______ ____

>  <TORSDO>
F 1

$$$$
=
 OpenBabel11052413393D

 27 31  0  0  1  0  0  0  0  0999 V2000
  188.3090  179.0830  141.3440 C   0  0  0  0  0  2  0  0  0  0  0  0
  189.7290  177.3150  142.3190 C   0  0  0  0  0  0  0  0  0  0  0  0
  187.6870  177.4050  143.7270 N   0  0  0  0  0  2  0  0  0  0  0  0
  191.9220  176.0680  145.5840 N   0  0  0  0  0  0  0  0  0  0  0  0
  191.6800  177.1300  147.7020 N   0  0  0  0  0  1  0  0  0  0  0  0
  191.1450  177.0260  142.2240 N   0  0  0  0  0  0  0  0  0  0  0  0
  189.9200  177.1280  145.8660 C   0  0  1  0  0  3  0  0  0  0  0  0
  184.2770  178.2290  142.4880 C   0  0  0  0  0  0  0  0  0  0  0  0
  189.0030  178.1530  146.4410 C   0  0  0  0  0  1  0  0  0  0  0  0
  182.9960  177.9800  142.8490 F   0  0  0  0  0  0  0  0  0  0  0  0
  189.9010  176.6640  144.6250 C   0  0  2  0  0  3  0  0  0  0  0  0
  189.0690  177.8560  141.1690 N   0  0  0  0  0  0  0  0  0  0  0  0
  191.1980  176.7280  146.4250 C   0  0  0  0  0  0  0  0  0  0  0  0
  191.1370  175.8700  144.3700 C   0  0  1  0  0  3  0  0  0  0  0  0
  186.9260  178.7450  141.7510 C   0  0  0  0  0  0  0  0  0  0  0  0
  189.0930  177.1750  143.5080 C   0  0  0  0  0  0  0  0  0  0  0  0
  185.3300  177.7130  143.2470 C   0  0  0  0  0  3  0  0  0  0  0  0
  191.8240  176.4140  143.1540 C   0  0  0  0  0  3  0  0  0  0  0  0
  184.5470  179.0030  141.3590 C   0  0  0  0  0  3  0  0  0  0  0  0
  185.8690  179.2630  140.9940 C   0  0  0  0  0  3  0  0  0  0  0  0
  186.6600  177.9520  142.8840 C   0  0  0  0  0  0  0  0  0  0  0  0
  189.4810  176.1320  137.3390 N   0  0  0  0  0  0  0  0  0  0  0  0
  189.2030  177.2560  139.8630 C   0  0  0  0  0  0  0  0  0  0  0  0
  188.1820  177.3760  138.9080 C   0  0  0  0  0  3  0  0  0  0  0  0
  188.3390  176.8030  137.6450 C   0  0  0  0  0  3  0  0  0  0  0  0
  190.4920  176.0030  138.2390 C   0  0  0  0  0  3  0  0  0  0  0  0
  190.3720  176.5630  139.5120 C   0  0  0  0  0  3  0  0  0  0  0  0
  1 15  1  0  0  0  0
  2 16  2  0  0  0  0
  4 13  2  0  0  0  0
  6  2  1  0  0  0  0
  6 18  2  0  0  0  0
  7 13  1  0  0  0  0
  7  9  1  6  0  0  0
  8 10  1  0  0  0  0
  8 17  1  0  0  0  0
 11 16  1  6  0  0  0
 11  7  1  0  0  0  0
 12  1  1  0  0  0  0
 12  2  1  0  0  0  0
 13  5  1  0  0  0  0
 14 18  1  6  0  0  0
 14 11  1  0  0  0  0
 14  4  1  0  0  0  0
 15 21  1  0  0  0  0
 16  3  1  0  0  0  0
 19  8  2  0  0  0  0
 20 19  1  0  0  0  0
 20 15  2  0  0  0  0
 21 17  2  0  0  0  0
 21  3  1  0  0  0  0
 22 25  2  0  0  0  0
 22 26  1  0  0  0  0
 23 12  1  0  0  0  0
 24 23  2  0  0  0  0
 25 24  1  0  0  0  0
 26 27  2  0  0  0  0
 27 23  1  0  0  0  0
M  END
>  <MODEL>
6

>  <REMARK>
 VINA RESULT:      -7.7      1.772      5.900
  Name = 
  1 active torsions:
  status: ('A' for Active; 'I' for Inactive)
    1  A    between atoms: C_9  and  N_15
                            x       y       z     vdW  Elec       q    Type
                         _______ _______ _______ _____ _____    ______ ____

>  <TORSDO>
F 1

$$$$
=
 OpenBabel11052413393D

 27 31  0  0  1  0  0  0  0  0999 V2000
  185.6700  179.9000  142.0930 C   0  0  0  0  0  2  0  0  0  0  0  0
  186.9100  178.3340  140.6420 C   0  0  0  0  0  0  0  0  0  0  0  0
  187.4810  177.7020  142.9730 N   0  0  0  0  0  2  0  0  0  0  0  0
  190.6050  177.0000  139.3800 N   0  0  0  0  0  0  0  0  0  0  0  0
  192.5860  177.5580  140.5790 N   0  0  0  0  0  1  0  0  0  0  0  0
  187.3090  178.3880  139.2500 N   0  0  0  0  0  0  0  0  0  0  0  0
  190.2450  177.5190  141.5740 C   0  0  1  0  0  3  0  0  0  0  0  0
  185.1750  177.9760  145.8820 C   0  0  0  0  0  0  0  0  0  0  0  0
  190.5480  178.1880  142.8720 C   0  0  0  0  0  1  0  0  0  0  0  0
  185.0180  177.3870  147.0900 F   0  0  0  0  0  0  0  0  0  0  0  0
  189.0420  177.3090  141.0590 C   0  0  2  0  0  3  0  0  0  0  0  0
  185.6600  178.9260  141.0130 N   0  0  0  0  0  0  0  0  0  0  0  0
  191.1880  177.3110  140.4900 C   0  0  0  0  0  0  0  0  0  0  0  0
  189.1760  176.8700  139.6410 C   0  0  1  0  0  3  0  0  0  0  0  0
  185.5100  179.1940  143.3850 C   0  0  0  0  0  0  0  0  0  0  0  0
  187.7660  177.8340  141.5670 C   0  0  0  0  0  0  0  0  0  0  0  0
  186.2100  177.5690  145.0340 C   0  0  0  0  0  3  0  0  0  0  0  0
  188.3550  177.7740  138.7710 C   0  0  0  0  0  3  0  0  0  0  0  0
  184.3070  178.9910  145.4810 C   0  0  0  0  0  3  0  0  0  0  0  0
  184.4760  179.6010  144.2370 C   0  0  0  0  0  3  0  0  0  0  0  0
  186.3820  178.1600  143.7780 C   0  0  0  0  0  0  0  0  0  0  0  0
  182.0730  178.0930  138.9530 N   0  0  0  0  0  0  0  0  0  0  0  0
  184.4390  178.6330  140.3020 C   0  0  0  0  0  0  0  0  0  0  0  0
  183.6340  177.5450  140.6740 C   0  0  0  0  0  3  0  0  0  0  0  0
  182.4490  177.2880  139.9820 C   0  0  0  0  0  3  0  0  0  0  0  0
  182.8260  179.1580  138.5710 C   0  0  0  0  0  3  0  0  0  0  0  0
  184.0190  179.4470  139.2380 C   0  0  0  0  0  3  0  0  0  0  0  0
  1 15  1  0  0  0  0
  2 12  1  0  0  0  0
  2 16  2  0  0  0  0
  3 21  1  0  0  0  0
  4 14  1  0  0  0  0
  4 13  2  0  0  0  0
  6  2  1  0  0  0  0
  7  9  1  6  0  0  0
  8 10  1  0  0  0  0
 11 16  1  6  0  0  0
 11  7  1  0  0  0  0
 12  1  1  0  0  0  0
 13  5  1  0  0  0  0
 13  7  1  0  0  0  0
 14 18  1  6  0  0  0
 14 11  1  0  0  0  0
 15 21  2  0  0  0  0
 15 20  1  0  0  0  0
 16  3  1  0  0  0  0
 17  8  2  0  0  0  0
 18  6  2  0  0  0  0
 19  8  1  0  0  0  0
 20 19  2  0  0  0  0
 21 17  1  0  0  0  0
 22 25  1  0  0  0  0
 23 24  1  0  0  0  0
 23 12  1  0  0  0  0
 25 24  2  0  0  0  0
 26 22  2  0  0  0  0
 26 27  1  0  0  0  0
 27 23  2  0  0  0  0
M  END
>  <MODEL>
7

>  <REMARK>
 VINA RESULT:      -7.5      2.160      5.469
  Name = 
  1 active torsions:
  status: ('A' for Active; 'I' for Inactive)
    1  A    between atoms: C_9  and  N_15
                            x       y       z     vdW  Elec       q    Type
                         _______ _______ _______ _____ _____    ______ ____

>  <TORSDO>
F 1

$$$$
=
 OpenBabel11052413393D

 27 31  0  0  1  0  0  0  0  0999 V2000
  189.9820  178.4760  144.5000 C   0  0  0  0  0  2  0  0  0  0  0  0
  188.3740  178.0880  142.6670 C   0  0  0  0  0  0  0  0  0  0  0  0
  190.2110  176.4550  142.3210 N   0  0  0  0  0  2  0  0  0  0  0  0
  187.7020  178.1880  138.5970 N   0  0  0  0  0  0  0  0  0  0  0  0
  189.5120  178.3620  137.0590 N   0  0  0  0  0  1  0  0  0  0  0  0
  187.3310  178.9070  142.0840 N   0  0  0  0  0  0  0  0  0  0  0  0
  189.6970  177.4510  139.4270 C   0  0  1  0  0  3  0  0  0  0  0  0
  192.1680  174.8390  145.0430 C   0  0  0  0  0  0  0  0  0  0  0  0
  191.1840  177.4030  139.5270 C   0  0  0  0  0  1  0  0  0  0  0  0
  192.8770  173.7000  145.2230 F   0  0  0  0  0  0  0  0  0  0  0  0
  188.8380  177.3460  140.4300 C   0  0  2  0  0  3  0  0  0  0  0  0
  188.6190  178.2020  144.0730 N   0  0  0  0  0  0  0  0  0  0  0  0
  188.9420  177.9770  138.3040 C   0  0  0  0  0  0  0  0  0  0  0  0
  187.4730  177.7190  139.9600 C   0  0  1  0  0  3  0  0  0  0  0  0
  190.7070  177.1950  144.6640 C   0  0  0  0  0  0  0  0  0  0  0  0
  189.1600  177.3290  141.8640 C   0  0  0  0  0  0  0  0  0  0  0  0
  191.5460  175.0910  143.8170 C   0  0  0  0  0  3  0  0  0  0  0  0
  186.9290  178.7970  140.8480 C   0  0  0  0  0  3  0  0  0  0  0  0
  192.0580  175.7650  146.0810 C   0  0  0  0  0  3  0  0  0  0  0  0
  191.3320  176.9420  145.8900 C   0  0  0  0  0  3  0  0  0  0  0  0
  190.8020  176.2590  143.6160 C   0  0  0  0  0  0  0  0  0  0  0  0
  185.4910  178.0070  146.9000 N   0  0  0  0  0  0  0  0  0  0  0  0
  187.5500  178.1230  145.0400 C   0  0  0  0  0  0  0  0  0  0  0  0
  187.8260  177.9420  146.4040 C   0  0  0  0  0  3  0  0  0  0  0  0
  186.7770  177.8840  147.3240 C   0  0  0  0  0  3  0  0  0  0  0  0
  185.1900  178.1900  145.5870 C   0  0  0  0  0  3  0  0  0  0  0  0
  186.2110  178.2530  144.6360 C   0  0  0  0  0  3  0  0  0  0  0  0
  1 15  1  0  0  0  0
  2 12  1  0  0  0  0
  3 21  1  0  0  0  0
  4 14  1  0  0  0  0
  5 13  1  0  0  0  0
  6  2  1  0  0  0  0
  7  9  1  1  0  0  0
  7 11  1  0  0  0  0
  8 10  1  0  0  0  0
  8 19  1  0  0  0  0
 11 16  1  1  0  0  0
 12  1  1  0  0  0  0
 12 23  1  0  0  0  0
 13  4  2  0  0  0  0
 13  7  1  0  0  0  0
 14 11  1  0  0  0  0
 14 18  1  1  0  0  0
 15 20  1  0  0  0  0
 16  3  1  0  0  0  0
 16  2  2  0  0  0  0
 17  8  2  0  0  0  0
 18  6  2  0  0  0  0
 20 19  2  0  0  0  0
 21 17  1  0  0  0  0
 21 15  2  0  0  0  0
 22 25  1  0  0  0  0
 23 24  1  0  0  0  0
 24 25  2  0  0  0  0
 26 22  2  0  0  0  0
 27 23  2  0  0  0  0
 27 26  1  0  0  0  0
M  END
>  <MODEL>
8

>  <REMARK>
 VINA RESULT:      -7.4      2.835      5.136
  Name = 
  1 active torsions:
  status: ('A' for Active; 'I' for Inactive)
    1  A    between atoms: C_9  and  N_15
                            x       y       z     vdW  Elec       q    Type
                         _______ _______ _______ _____ _____    ______ ____

>  <TORSDO>
F 1

$$$$
=
 OpenBabel11052413393D

 27 31  0  0  1  0  0  0  0  0999 V2000
  184.0270  179.7770  139.1230 C   0  0  0  0  0  2  0  0  0  0  0  0
  185.4390  178.5280  140.7170 C   0  0  0  0  0  0  0  0  0  0  0  0
  183.0960  178.1570  141.4460 N   0  0  0  0  0  2  0  0  0  0  0  0
  186.7100  178.1430  144.6240 N   0  0  0  0  0  0  0  0  0  0  0  0
  185.5650  179.2400  146.4000 N   0  0  0  0  0  1  0  0  0  0  0  0
  186.8380  178.6280  141.0800 N   0  0  0  0  0  0  0  0  0  0  0  0
  184.5320  178.6380  144.1550 C   0  0  1  0  0  3  0  0  0  0  0  0
  180.1630  177.9420  139.1660 C   0  0  0  0  0  0  0  0  0  0  0  0
  183.2650  179.4140  144.2820 C   0  0  0  0  0  1  0  0  0  0  0  0
  178.9310  177.3810  139.1730 F   0  0  0  0  0  0  0  0  0  0  0  0
  185.0190  178.1050  143.0440 C   0  0  2  0  0  3  0  0  0  0  0  0
  185.0700  178.7920  139.3590 N   0  0  0  0  0  0  0  0  0  0  0  0
  185.6220  178.6380  145.1130 C   0  0  0  0  0  0  0  0  0  0  0  0
  186.4220  177.6590  143.2780 C   0  0  1  0  0  3  0  0  0  0  0  0
  182.7070  179.1050  139.1590 C   0  0  0  0  0  0  0  0  0  0  0  0
  184.5100  178.3020  141.6790 C   0  0  0  0  0  0  0  0  0  0  0  0
  181.0110  177.7820  140.2650 C   0  0  0  0  0  3  0  0  0  0  0  0
  187.3110  178.2850  142.2460 C   0  0  0  0  0  3  0  0  0  0  0  0
  180.5860  178.6830  138.0620 C   0  0  0  0  0  3  0  0  0  0  0  0
  181.8550  179.2660  138.0600 C   0  0  0  0  0  3  0  0  0  0  0  0
  182.2910  178.3480  140.2710 C   0  0  0  0  0  0  0  0  0  0  0  0
  187.0700  176.9330  136.1410 N   0  0  0  0  0  0  0  0  0  0  0  0
  185.7500  178.1650  138.2510 C   0  0  0  0  0  0  0  0  0  0  0  0
  187.0030  178.6280  137.8200 C   0  0  0  0  0  3  0  0  0  0  0  0
  187.6500  177.9980  136.7570 C   0  0  0  0  0  3  0  0  0  0  0  0
  185.8610  176.4550  136.5380 C   0  0  0  0  0  3  0  0  0  0  0  0
  185.1820  177.0590  137.5980 C   0  0  0  0  0  3  0  0  0  0  0  0
  1 15  1  0  0  0  0
  1 12  1  0  0  0  0
  2  6  1  0  0  0  0
  2 16  2  0  0  0  0
  3 16  1  0  0  0  0
  4 13  2  0  0  0  0
  6 18  2  0  0  0  0
  7  9  1  6  0  0  0
  7 13  1  0  0  0  0
  8 10  1  0  0  0  0
  8 17  1  0  0  0  0
 11 16  1  6  0  0  0
 11 14  1  0  0  0  0
 11  7  1  0  0  0  0
 12  2  1  0  0  0  0
 13  5  1  0  0  0  0
 14 18  1  6  0  0  0
 14  4  1  0  0  0  0
 15 21  1  0  0  0  0
 17 21  2  0  0  0  0
 19  8  2  0  0  0  0
 20 19  1  0  0  0  0
 20 15  2  0  0  0  0
 21  3  1  0  0  0  0
 22 26  2  0  0  0  0
 22 25  1  0  0  0  0
 23 12  1  0  0  0  0
 24 23  1  0  0  0  0
 25 24  2  0  0  0  0
 26 27  1  0  0  0  0
 27 23  2  0  0  0  0
M  END
>  <MODEL>
9

>  <REMARK>
 VINA RESULT:      -7.3      3.224      6.991
  Name = 
  1 active torsions:
  status: ('A' for Active; 'I' for Inactive)
    1  A    between atoms: C_9  and  N_15
                            x       y       z     vdW  Elec       q    Type
                         _______ _______ _______ _____ _____    ______ ____

>  <TORSDO>
F 1

$$$$
