=
 OpenBabel11052414593D

 55 59  0  0  1  0  0  0  0  0999 V2000
  182.9970  176.6570  139.1290 C   0  0  0  0  0  2  0  0  0  0  0  0
  187.7440  178.0310  138.1800 C   0  0  0  0  0  3  0  0  0  0  0  0
  187.9300  177.4140  140.8540 O   0  0  0  0  0  0  0  0  0  0  0  0
  189.7910  176.3870  134.6100 O   0  0  0  0  0  0  0  0  0  0  0  0
  189.4340  176.8850  135.7130 C   0  0  0  0  0  0  0  0  0  0  0  0
  185.6540  178.5550  144.3470 C   0  0  0  0  0  3  0  0  0  0  0  0
  185.2750  179.0080  145.7340 C   0  0  0  0  0  2  0  0  0  0  0  0
  183.2690  178.5590  143.6230 C   0  0  2  0  0  3  0  0  0  0  0  0
  182.9560  179.3410  144.8920 C   0  0  0  0  0  2  0  0  0  0  0  0
  186.2650  179.0150  141.4310 C   0  0  0  0  0  2  0  0  0  0  0  0
  183.7940  178.7800  146.0330 C   0  0  0  0  0  2  0  0  0  0  0  0
  182.3890  176.4890  136.7290 C   0  0  0  0  0  3  0  0  0  0  0  0
  184.7590  178.4450  143.3460 C   0  0  0  0  0  0  0  0  0  0  0  0
  185.0090  175.8800  135.9720 C   0  0  0  0  0  0  0  0  0  0  0  0
  184.1400  176.9850  140.0400 C   0  0  0  0  0  3  0  0  0  0  0  0
  184.7080  176.1150  137.3190 C   0  0  0  0  0  3  0  0  0  0  0  0
  182.8920  178.7960  141.1960 C   0  0  0  0  0  0  0  0  0  0  0  0
  187.7580  178.4680  136.7600 C   0  0  0  0  0  2  0  0  0  0  0  0
  182.5480  179.1370  142.4440 C   0  0  0  0  0  3  0  0  0  0  0  0
  187.1450  178.7310  139.0850 N   0  0  0  0  0  0  0  0  0  0  0  0
  187.1650  178.3360  140.4580 C   0  0  0  0  0  0  0  0  0  0  0  0
  182.6890  176.2570  135.3860 C   0  0  0  0  0  3  0  0  0  0  0  0
  188.0810  177.3450  135.8880 N   0  0  0  0  0  0  0  0  0  0  0  0
  183.3940  176.4310  137.7020 C   0  0  0  0  0  0  0  0  0  0  0  0
  185.2300  178.0260  141.9680 C   0  0  1  0  0  3  0  0  0  0  0  0
  184.0750  177.9140  141.0010 C   0  0  0  0  0  0  0  0  0  0  0  0
  187.0350  176.8710  134.9920 C   0  0  0  0  0  2  0  0  0  0  0  0
  186.4110  175.6030  135.5510 C   0  0  0  0  0  2  0  0  0  0  0  0
  183.9970  175.9560  135.0070 C   0  0  0  0  0  3  0  0  0  0  0  0
  182.9910  179.9460  138.9580 C   0  0  0  0  0  2  0  0  0  0  0  0
  180.8460  180.8370  138.0440 C   0  0  2  0  0  3  0  0  0  0  0  0
  180.8030  179.1060  139.8560 C   0  0  0  0  0  2  0  0  0  0  0  0
  180.0960  180.3240  139.2710 C   0  0  0  0  0  2  0  0  0  0  0  0
  182.2880  181.1800  138.4060 C   0  0  0  0  0  2  0  0  0  0  0  0
  182.2210  179.3950  140.0740 N   0  0  0  0  0  0  0  0  0  0  0  0
  180.1610  182.0300  137.4650 C   0  0  0  0  0  0  0  0  0  0  0  0
  179.3850  182.7330  138.1670 O   0  0  0  0  0  0  0  0  0  0  0  0
  180.4140  182.3970  136.1130 N   0  0  0  0  0  1  0  0  0  0  0  0
  190.6510  177.0330  137.0340 S   0  0  0  0  0  0  0  0  0  0  0  0
  191.1780  175.2710  137.0410 C   0  0  2  0  0  0  0  0  0  0  0  0
  190.9510  174.7080  135.6470 C   0  0  0  0  0  1  0  0  0  0  0  0
  190.4310  174.5010  137.9610 O   0  0  0  0  0  0  0  0  0  0  0  0
  189.8640  173.5180  137.2840 O   0  0  0  0  0  1  0  0  0  0  0  0
  192.6850  175.2220  137.3420 C   0  0  0  0  0  2  0  0  0  0  0  0
  193.2460  172.8970  137.1630 O   0  0  0  0  0  1  0  0  0  0  0  0
  193.4270  174.1400  136.5490 C   0  0  2  0  0  3  0  0  0  0  0  0
  194.9280  174.4520  136.3700 C   0  0  1  0  0  0  0  0  0  0  0  0
  195.0960  175.8560  135.8020 C   0  0  0  0  0  1  0  0  0  0  0  0
  195.6410  174.3680  137.6920 C   0  0  0  0  0  3  0  0  0  0  0  0
  196.7210  174.9140  137.8670 O   0  0  0  0  0  0  0  0  0  0  0  0
  195.5590  173.4440  135.4060 C   0  0  0  0  0  2  0  0  0  0  0  0
  196.3220  172.4600  136.1030 O   0  0  0  0  0  0  0  0  0  0  0  0
  195.9550  171.1110  136.1670 C   0  0  0  0  0  0  0  0  0  0  0  0
  195.7210  170.4890  137.4960 C   0  0  0  0  0  1  0  0  0  0  0  0
  195.8130  170.3670  135.0750 C   0  0  0  0  0  2  0  0  0  0  0  0
  1 15  1  0  0  0  0
  2 20  2  0  0  0  0
  4  5  2  0  0  0  0
  5 23  1  0  0  0  0
  5 39  1  0  0  0  0
  6  7  1  0  0  0  0
  7 11  1  0  0  0  0
  8 19  1  6  0  0  0
  8  9  1  0  0  0  0
  9 11  1  0  0  0  0
 12 24  1  0  0  0  0
 13  8  1  0  0  0  0
 13  6  2  0  0  0  0
 14 16  1  0  0  0  0
 15 26  2  0  0  0  0
 16 24  2  0  0  0  0
 17 19  2  0  0  0  0
 18  2  1  0  0  0  0
 20 21  1  0  0  0  0
 21  3  2  0  0  0  0
 21 10  1  0  0  0  0
 22 12  2  0  0  0  0
 23 18  1  0  0  0  0
 24  1  1  0  0  0  0
 25 10  1  6  0  0  0
 25 13  1  0  0  0  0
 26 17  1  0  0  0  0
 26 25  1  0  0  0  0
 27 28  1  0  0  0  0
 27 23  1  0  0  0  0
 28 14  1  0  0  0  0
 29 22  1  0  0  0  0
 29 14  2  0  0  0  0
 30 35  1  0  0  0  0
 31 36  1  1  0  0  0
 31 34  1  0  0  0  0
 31 33  1  0  0  0  0
 32 35  1  0  0  0  0
 33 32  1  0  0  0  0
 34 30  1  0  0  0  0
 35 17  1  0  0  0  0
 36 37  2  0  0  0  0
 38 36  1  0  0  0  0
 39 40  1  0  0  0  0
 40 41  1  6  0  0  0
 40 44  1  0  0  0  0
 40 42  1  0  0  0  0
 43 42  1  0  0  0  0
 46 45  1  1  0  0  0
 46 44  1  0  0  0  0
 47 48  1  6  0  0  0
 47 46  1  0  0  0  0
 47 49  1  0  0  0  0
 49 50  2  0  0  0  0
 51 52  1  0  0  0  0
 51 47  1  0  0  0  0
 52 53  1  0  0  0  0
 53 54  1  0  0  0  0
 55 53  2  0  0  0  0
M  END
>  <MODEL>
1

>  <REMARK>
 VINA RESULT:      -6.6      0.000      0.000
  Name = 
  12 active torsions:
  status: ('A' for Active; 'I' for Inactive)
    1  A    between atoms: C_1  and  O_53
    2  A    between atoms: O_6  and  C_20
    3  A    between atoms: C_8  and  S_22
    4  A    between atoms: C_10  and  C_32
    5  A    between atoms: C_11  and  C_29
    6  A    between atoms: C_12  and  C_14
    7  A    between atoms: C_12  and  C_20
    8  A    between atoms: C_14  and  C_29
    9  A    between atoms: C_20  and  S_22
   10  A    between atoms: C_29  and  C_38
   11  A    between atoms: C_33  and  N_52
   12  A    between atoms: C_38  and  O_53
                            x       y       z     vdW  Elec       q    Type
                         _______ _______ _______ _____ _____    ______ ____

>  <TORSDO>
F 12

$$$$
=
 OpenBabel11052414593D

 55 59  0  0  1  0  0  0  0  0999 V2000
  186.4820  177.5950  136.4700 C   0  0  0  0  0  2  0  0  0  0  0  0
  186.5980  177.9430  141.4900 C   0  0  0  0  0  3  0  0  0  0  0  0
  189.1660  178.7150  140.8770 O   0  0  0  0  0  0  0  0  0  0  0  0
  183.2950  180.0260  143.5830 O   0  0  0  0  0  0  0  0  0  0  0  0
  184.3650  179.4900  143.1860 C   0  0  0  0  0  0  0  0  0  0  0  0
  192.2910  177.0170  138.4220 C   0  0  0  0  0  3  0  0  0  0  0  0
  193.6290  176.5270  137.9280 C   0  0  0  0  0  2  0  0  0  0  0  0
  191.1450  176.1350  136.3920 C   0  0  2  0  0  3  0  0  0  0  0  0
  192.4200  175.3560  136.0950 C   0  0  0  0  0  2  0  0  0  0  0  0
  189.6150  176.6600  139.7640 C   0  0  0  0  0  2  0  0  0  0  0  0
  193.6200  176.2320  136.4290 C   0  0  0  0  0  2  0  0  0  0  0  0
  184.0090  177.4190  136.3730 C   0  0  0  0  0  3  0  0  0  0  0  0
  191.1360  176.7540  137.7800 C   0  0  0  0  0  0  0  0  0  0  0  0
  183.6800  178.8770  138.7340 C   0  0  0  0  0  0  0  0  0  0  0  0
  187.6210  177.7370  137.4320 C   0  0  0  0  0  3  0  0  0  0  0  0
  184.9670  178.6170  138.2470 C   0  0  0  0  0  3  0  0  0  0  0  0
  188.7370  175.6610  136.6480 C   0  0  0  0  0  0  0  0  0  0  0  0
  185.2690  177.4700  141.9550 C   0  0  0  0  0  2  0  0  0  0  0  0
  189.9330  175.2820  136.1780 C   0  0  0  0  0  3  0  0  0  0  0  0
  187.4550  177.1210  140.9810 N   0  0  0  0  0  0  0  0  0  0  0  0
  188.7500  177.5640  140.5710 C   0  0  0  0  0  0  0  0  0  0  0  0
  182.7260  177.6760  136.8590 C   0  0  0  0  0  3  0  0  0  0  0  0
  184.3420  178.5900  142.0620 N   0  0  0  0  0  0  0  0  0  0  0  0
  185.1360  177.8760  137.0660 C   0  0  0  0  0  0  0  0  0  0  0  0
  189.8280  177.2440  138.3680 C   0  0  1  0  0  3  0  0  0  0  0  0
  188.6590  176.8940  137.4790 C   0  0  0  0  0  0  0  0  0  0  0  0
  183.2170  178.6200  141.1360 C   0  0  0  0  0  2  0  0  0  0  0  0
  183.4950  179.6110  140.0170 C   0  0  0  0  0  2  0  0  0  0  0  0
  182.5610  178.4020  138.0390 C   0  0  0  0  0  3  0  0  0  0  0  0
  187.1110  174.4800  135.1320 C   0  0  0  0  0  2  0  0  0  0  0  0
  185.1470  173.3780  136.2120 C   0  0  2  0  0  3  0  0  0  0  0  0
  187.1590  173.9650  137.5880 C   0  0  0  0  0  2  0  0  0  0  0  0
  185.6400  173.8220  137.5870 C   0  0  0  0  0  2  0  0  0  0  0  0
  185.5910  174.3710  135.1410 C   0  0  0  0  0  2  0  0  0  0  0  0
  187.5920  174.8090  136.4750 N   0  0  0  0  0  0  0  0  0  0  0  0
  183.6610  173.2360  136.2020 C   0  0  0  0  0  0  0  0  0  0  0  0
  183.0990  172.3870  135.4590 O   0  0  0  0  0  0  0  0  0  0  0  0
  182.8740  174.0470  137.0670 N   0  0  0  0  0  1  0  0  0  0  0  0
  185.8960  179.8460  144.0670 S   0  0  0  0  0  0  0  0  0  0  0  0
  185.4960  178.8950  145.5890 C   0  0  2  0  0  0  0  0  0  0  0  0
  184.0050  178.5930  145.5750 C   0  0  0  0  0  1  0  0  0  0  0  0
  185.7920  179.6270  146.7610 O   0  0  0  0  0  0  0  0  0  0  0  0
  185.3180  178.9400  147.7850 O   0  0  0  0  0  1  0  0  0  0  0  0
  186.2590  177.5620  145.5360 C   0  0  0  0  0  2  0  0  0  0  0  0
  188.0610  176.8530  144.1180 O   0  0  0  0  0  1  0  0  0  0  0  0
  187.7380  177.7240  145.1640 C   0  0  2  0  0  3  0  0  0  0  0  0
  188.6840  177.5160  146.3650 C   0  0  1  0  0  0  0  0  0  0  0  0
  189.1030  178.8680  146.9280 C   0  0  0  0  0  1  0  0  0  0  0  0
  187.9930  176.7280  147.4450 C   0  0  0  0  0  3  0  0  0  0  0  0
  187.9550  177.1290  148.5990 O   0  0  0  0  0  0  0  0  0  0  0  0
  189.9320  176.7500  145.9200 C   0  0  0  0  0  2  0  0  0  0  0  0
  190.9980  177.6360  145.5840 O   0  0  0  0  0  0  0  0  0  0  0  0
  191.2920  178.0170  144.2700 C   0  0  0  0  0  0  0  0  0  0  0  0
  191.6040  176.9670  143.2660 C   0  0  0  0  0  1  0  0  0  0  0  0
  191.3060  179.2920  143.8930 C   0  0  0  0  0  2  0  0  0  0  0  0
  1 24  1  0  0  0  0
  1 15  1  0  0  0  0
  2 18  1  0  0  0  0
  5  4  2  0  0  0  0
  5 39  1  0  0  0  0
  7  6  1  0  0  0  0
  8  9  1  1  0  0  0
  8 13  1  0  0  0  0
  9 11  1  0  0  0  0
 10 21  1  0  0  0  0
 11  7  1  0  0  0  0
 12 22  2  0  0  0  0
 12 24  1  0  0  0  0
 13 25  1  0  0  0  0
 13  6  2  0  0  0  0
 14 28  1  0  0  0  0
 15 26  2  0  0  0  0
 16 14  1  0  0  0  0
 17 26  1  0  0  0  0
 18 23  1  0  0  0  0
 19  8  1  0  0  0  0
 19 17  2  0  0  0  0
 20  2  2  0  0  0  0
 21  3  2  0  0  0  0
 21 20  1  0  0  0  0
 22 29  1  0  0  0  0
 23  5  1  0  0  0  0
 24 16  2  0  0  0  0
 25 10  1  1  0  0  0
 26 25  1  0  0  0  0
 27 23  1  0  0  0  0
 28 27  1  0  0  0  0
 29 14  2  0  0  0  0
 30 34  1  0  0  0  0
 30 35  1  0  0  0  0
 31 36  1  1  0  0  0
 31 33  1  0  0  0  0
 33 32  1  0  0  0  0
 34 31  1  0  0  0  0
 35 17  1  0  0  0  0
 35 32  1  0  0  0  0
 36 38  1  0  0  0  0
 37 36  2  0  0  0  0
 39 40  1  0  0  0  0
 40 41  1  6  0  0  0
 40 42  1  0  0  0  0
 42 43  1  0  0  0  0
 44 40  1  0  0  0  0
 46 45  1  6  0  0  0
 46 44  1  0  0  0  0
 46 47  1  0  0  0  0
 47 48  1  1  0  0  0
 47 49  1  0  0  0  0
 49 50  2  0  0  0  0
 51 47  1  0  0  0  0
 52 51  1  0  0  0  0
 53 52  1  0  0  0  0
 54 53  1  0  0  0  0
 55 53  2  0  0  0  0
M  END
>  <MODEL>
2

>  <REMARK>
 VINA RESULT:      -6.4      3.911      9.191
  Name = 
  12 active torsions:
  status: ('A' for Active; 'I' for Inactive)
    1  A    between atoms: C_1  and  O_53
    2  A    between atoms: O_6  and  C_20
    3  A    between atoms: C_8  and  S_22
    4  A    between atoms: C_10  and  C_32
    5  A    between atoms: C_11  and  C_29
    6  A    between atoms: C_12  and  C_14
    7  A    between atoms: C_12  and  C_20
    8  A    between atoms: C_14  and  C_29
    9  A    between atoms: C_20  and  S_22
   10  A    between atoms: C_29  and  C_38
   11  A    between atoms: C_33  and  N_52
   12  A    between atoms: C_38  and  O_53
                            x       y       z     vdW  Elec       q    Type
                         _______ _______ _______ _____ _____    ______ ____

>  <TORSDO>
F 12

$$$$
=
 OpenBabel11052414593D

 55 59  0  0  1  0  0  0  0  0999 V2000
  182.5750  176.4460  139.4710 C   0  0  0  0  0  2  0  0  0  0  0  0
  187.2780  177.6960  138.1860 C   0  0  0  0  0  3  0  0  0  0  0  0
  187.6080  177.2100  140.8730 O   0  0  0  0  0  0  0  0  0  0  0  0
  189.0950  175.8450  134.5940 O   0  0  0  0  0  0  0  0  0  0  0  0
  188.8080  176.4020  135.6880 C   0  0  0  0  0  0  0  0  0  0  0  0
  185.5520  178.5580  144.4270 C   0  0  0  0  0  3  0  0  0  0  0  0
  185.2590  179.0850  145.8090 C   0  0  0  0  0  2  0  0  0  0  0  0
  183.1290  178.5640  143.8400 C   0  0  2  0  0  3  0  0  0  0  0  0
  182.9000  179.4130  145.0840 C   0  0  0  0  0  2  0  0  0  0  0  0
  186.0000  178.8630  141.4620 C   0  0  0  0  0  2  0  0  0  0  0  0
  183.7950  178.8960  146.2030 C   0  0  0  0  0  2  0  0  0  0  0  0
  181.8280  176.1690  137.1210 C   0  0  0  0  0  3  0  0  0  0  0  0
  184.6000  178.4130  143.4850 C   0  0  0  0  0  0  0  0  0  0  0  0
  184.3920  175.4820  136.2480 C   0  0  0  0  0  0  0  0  0  0  0  0
  183.7720  176.8000  140.2980 C   0  0  0  0  0  3  0  0  0  0  0  0
  184.1720  175.7880  137.5970 C   0  0  0  0  0  3  0  0  0  0  0  0
  182.6170  178.6860  141.4300 C   0  0  0  0  0  0  0  0  0  0  0  0
  187.2160  178.0620  136.7470 C   0  0  0  0  0  2  0  0  0  0  0  0
  182.3500  179.0940  142.6770 C   0  0  0  0  0  3  0  0  0  0  0  0
  186.7410  178.4490  139.0870 N   0  0  0  0  0  0  0  0  0  0  0  0
  186.8340  178.1230  140.4750 C   0  0  0  0  0  0  0  0  0  0  0  0
  182.0470  175.8660  135.7760 C   0  0  0  0  0  3  0  0  0  0  0  0
  187.4740  176.8920  135.9160 N   0  0  0  0  0  0  0  0  0  0  0  0
  182.8860  176.1430  138.0370 C   0  0  0  0  0  0  0  0  0  0  0  0
  184.9850  177.9190  142.1060 C   0  0  1  0  0  3  0  0  0  0  0  0
  183.7760  177.7770  141.2130 C   0  0  0  0  0  0  0  0  0  0  0  0
  186.3720  176.3910  135.1060 C   0  0  0  0  0  2  0  0  0  0  0  0
  185.7640  175.1620  135.7630 C   0  0  0  0  0  2  0  0  0  0  0  0
  183.3280  175.5260  135.3400 C   0  0  0  0  0  3  0  0  0  0  0  0
  180.4310  179.3450  140.3690 C   0  0  0  0  0  2  0  0  0  0  0  0
  180.4990  180.0530  137.9750 C   0  0  2  0  0  3  0  0  0  0  0  0
  182.6070  180.0480  139.3330 C   0  0  0  0  0  2  0  0  0  0  0  0
  182.0110  179.8410  137.9430 C   0  0  0  0  0  2  0  0  0  0  0  0
  179.8500  179.1060  138.9810 C   0  0  0  0  0  2  0  0  0  0  0  0
  181.8900  179.2390  140.3200 N   0  0  0  0  0  0  0  0  0  0  0  0
  179.9070  179.8530  136.6200 C   0  0  0  0  0  0  0  0  0  0  0  0
  180.1700  178.8200  135.9470 O   0  0  0  0  0  0  0  0  0  0  0  0
  179.0080  180.8240  136.0960 N   0  0  0  0  0  1  0  0  0  0  0  0
  190.1010  176.5960  136.9290 S   0  0  0  0  0  0  0  0  0  0  0  0
  190.6160  174.8320  136.9820 C   0  0  2  0  0  0  0  0  0  0  0  0
  191.2020  174.4730  135.6250 C   0  0  0  0  0  1  0  0  0  0  0  0
  189.5250  173.9720  137.2380 O   0  0  0  0  0  0  0  0  0  0  0  0
  189.3120  173.2670  136.1410 O   0  0  0  0  0  1  0  0  0  0  0  0
  191.7230  174.6870  138.0390 C   0  0  0  0  0  2  0  0  0  0  0  0
  193.6420  173.2510  137.9290 O   0  0  0  0  0  1  0  0  0  0  0  0
  193.1110  174.4470  137.4350 C   0  0  2  0  0  3  0  0  0  0  0  0
  194.0820  175.6210  137.6780 C   0  0  1  0  0  0  0  0  0  0  0  0
  195.1230  175.2200  138.7160 C   0  0  0  0  0  1  0  0  0  0  0  0
  194.7810  175.9960  136.4000 C   0  0  0  0  0  3  0  0  0  0  0  0
  194.2110  175.9290  135.3200 O   0  0  0  0  0  0  0  0  0  0  0  0
  193.3090  176.8390  138.1900 C   0  0  0  0  0  2  0  0  0  0  0  0
  193.3780  176.9440  139.6110 O   0  0  0  0  0  0  0  0  0  0  0  0
  192.2880  177.3180  140.4050 C   0  0  0  0  0  0  0  0  0  0  0  0
  192.5100  177.6110  141.8450 C   0  0  0  0  0  1  0  0  0  0  0  0
  191.0580  177.4150  139.9110 C   0  0  0  0  0  2  0  0  0  0  0  0
  1 15  1  0  0  0  0
  2 20  2  0  0  0  0
  4  5  2  0  0  0  0
  5 23  1  0  0  0  0
  5 39  1  0  0  0  0
  6  7  1  0  0  0  0
  7 11  1  0  0  0  0
  8 19  1  6  0  0  0
  8  9  1  0  0  0  0
  9 11  1  0  0  0  0
 12 24  1  0  0  0  0
 13  8  1  0  0  0  0
 13  6  2  0  0  0  0
 14 16  1  0  0  0  0
 15 26  2  0  0  0  0
 16 24  2  0  0  0  0
 17 19  2  0  0  0  0
 18  2  1  0  0  0  0
 20 21  1  0  0  0  0
 21  3  2  0  0  0  0
 21 10  1  0  0  0  0
 22 12  2  0  0  0  0
 23 18  1  0  0  0  0
 24  1  1  0  0  0  0
 25 10  1  6  0  0  0
 25 13  1  0  0  0  0
 26 17  1  0  0  0  0
 26 25  1  0  0  0  0
 27 28  1  0  0  0  0
 27 23  1  0  0  0  0
 28 14  1  0  0  0  0
 29 22  1  0  0  0  0
 29 14  2  0  0  0  0
 31 36  1  6  0  0  0
 31 34  1  0  0  0  0
 32 35  1  0  0  0  0
 33 31  1  0  0  0  0
 33 32  1  0  0  0  0
 34 30  1  0  0  0  0
 35 30  1  0  0  0  0
 35 17  1  0  0  0  0
 37 36  2  0  0  0  0
 38 36  1  0  0  0  0
 39 40  1  0  0  0  0
 40 41  1  6  0  0  0
 40 42  1  0  0  0  0
 40 44  1  0  0  0  0
 43 42  1  0  0  0  0
 46 47  1  0  0  0  0
 46 45  1  1  0  0  0
 46 44  1  0  0  0  0
 47 51  1  0  0  0  0
 47 48  1  1  0  0  0
 49 47  1  0  0  0  0
 50 49  2  0  0  0  0
 51 52  1  0  0  0  0
 52 53  1  0  0  0  0
 53 54  1  0  0  0  0
 55 53  2  0  0  0  0
M  END
>  <MODEL>
3

>  <REMARK>
 VINA RESULT:      -5.7      1.703      2.768
  Name = 
  12 active torsions:
  status: ('A' for Active; 'I' for Inactive)
    1  A    between atoms: C_1  and  O_53
    2  A    between atoms: O_6  and  C_20
    3  A    between atoms: C_8  and  S_22
    4  A    between atoms: C_10  and  C_32
    5  A    between atoms: C_11  and  C_29
    6  A    between atoms: C_12  and  C_14
    7  A    between atoms: C_12  and  C_20
    8  A    between atoms: C_14  and  C_29
    9  A    between atoms: C_20  and  S_22
   10  A    between atoms: C_29  and  C_38
   11  A    between atoms: C_33  and  N_52
   12  A    between atoms: C_38  and  O_53
                            x       y       z     vdW  Elec       q    Type
                         _______ _______ _______ _____ _____    ______ ____

>  <TORSDO>
F 12

$$$$
=
 OpenBabel11052414593D

 55 59  0  0  1  0  0  0  0  0999 V2000
  183.2170  179.0650  139.1970 C   0  0  0  0  0  2  0  0  0  0  0  0
  186.2530  177.9410  143.0510 C   0  0  0  0  0  3  0  0  0  0  0  0
  188.0730  178.9790  141.2700 O   0  0  0  0  0  0  0  0  0  0  0  0
  185.0820  179.1680  147.1450 O   0  0  0  0  0  0  0  0  0  0  0  0
  185.6420  178.8210  146.0700 C   0  0  0  0  0  0  0  0  0  0  0  0
  188.9440  178.2180  137.1060 C   0  0  0  0  0  3  0  0  0  0  0  0
  189.6710  177.9570  135.8100 C   0  0  0  0  0  2  0  0  0  0  0  0
  186.7300  177.9120  136.0010 C   0  0  2  0  0  3  0  0  0  0  0  0
  187.4810  177.3140  134.8180 C   0  0  0  0  0  2  0  0  0  0  0  0
  187.5140  177.3610  139.6170 C   0  0  0  0  0  2  0  0  0  0  0  0
  188.7590  178.1100  134.5940 C   0  0  0  0  0  2  0  0  0  0  0  0
  181.1450  178.8090  140.5370 C   0  0  0  0  0  3  0  0  0  0  0  0
  187.6080  178.0990  137.2290 C   0  0  0  0  0  0  0  0  0  0  0  0
  182.4390  179.4990  142.9150 C   0  0  0  0  0  0  0  0  0  0  0  0
  184.7100  178.9750  139.2960 C   0  0  0  0  0  3  0  0  0  0  0  0
  183.1600  179.4530  141.7160 C   0  0  0  0  0  3  0  0  0  0  0  0
  184.8740  177.2720  137.4950 C   0  0  0  0  0  0  0  0  0  0  0  0
  185.3850  177.2910  144.0680 C   0  0  0  0  0  2  0  0  0  0  0  0
  185.5150  177.1020  136.3310 C   0  0  0  0  0  3  0  0  0  0  0  0
  186.5380  177.3450  141.9420 N   0  0  0  0  0  0  0  0  0  0  0  0
  187.4050  177.9490  140.9800 C   0  0  0  0  0  0  0  0  0  0  0  0
  180.4260  178.8530  141.7330 C   0  0  0  0  0  3  0  0  0  0  0  0
  184.8520  178.2880  144.9900 N   0  0  0  0  0  0  0  0  0  0  0  0
  182.5150  179.0970  140.5200 C   0  0  0  0  0  0  0  0  0  0  0  0
  186.9600  178.3350  138.5780 C   0  0  1  0  0  3  0  0  0  0  0  0
  185.4580  178.2040  138.4980 C   0  0  0  0  0  0  0  0  0  0  0  0
  183.4170  178.5320  144.9550 C   0  0  0  0  0  2  0  0  0  0  0  0
  183.1300  179.8180  144.1960 C   0  0  0  0  0  2  0  0  0  0  0  0
  181.0730  179.1940  142.9210 C   0  0  0  0  0  3  0  0  0  0  0  0
  182.8100  176.0290  136.7650 C   0  0  0  0  0  2  0  0  0  0  0  0
  181.3460  175.1030  138.5640 C   0  0  2  0  0  3  0  0  0  0  0  0
  183.7170  175.7270  139.0860 C   0  0  0  0  0  2  0  0  0  0  0  0
  182.2950  175.6450  139.6310 C   0  0  0  0  0  2  0  0  0  0  0  0
  181.3900  175.9820  137.3170 C   0  0  0  0  0  2  0  0  0  0  0  0
  183.7360  176.4540  137.8160 N   0  0  0  0  0  0  0  0  0  0  0  0
  179.9510  175.0210  139.0890 C   0  0  0  0  0  0  0  0  0  0  0  0
  178.9620  175.1840  138.3240 O   0  0  0  0  0  0  0  0  0  0  0  0
  179.7360  174.7200  140.4630 N   0  0  0  0  0  1  0  0  0  0  0  0
  187.4320  178.9770  145.9320 S   0  0  0  0  0  0  0  0  0  0  0  0
  187.8550  177.8020  147.2810 C   0  0  2  0  0  0  0  0  0  0  0  0
  186.6550  176.8970  147.5100 C   0  0  0  0  0  1  0  0  0  0  0  0
  188.1460  178.4720  148.4910 O   0  0  0  0  0  0  0  0  0  0  0  0
  189.4600  178.5030  148.6180 O   0  0  0  0  0  1  0  0  0  0  0  0
  189.0320  176.9330  146.8080 C   0  0  0  0  0  2  0  0  0  0  0  0
  188.9320  176.4260  144.4650 O   0  0  0  0  0  1  0  0  0  0  0  0
  189.5190  177.2870  145.3980 C   0  0  2  0  0  3  0  0  0  0  0  0
  191.0570  177.2670  145.2730 C   0  0  1  0  0  0  0  0  0  0  0  0
  191.5690  178.6800  145.0190 C   0  0  0  0  0  1  0  0  0  0  0  0
  191.6780  176.7400  146.5380 C   0  0  0  0  0  3  0  0  0  0  0  0
  192.3070  175.6920  146.5480 O   0  0  0  0  0  0  0  0  0  0  0  0
  191.4750  176.3670  144.1080 C   0  0  0  0  0  2  0  0  0  0  0  0
  192.0830  177.1170  143.0580 O   0  0  0  0  0  0  0  0  0  0  0  0
  191.5890  177.1420  141.7490 C   0  0  0  0  0  0  0  0  0  0  0  0
  192.3500  177.8730  140.7030 C   0  0  0  0  0  1  0  0  0  0  0  0
  190.4540  176.5360  141.4140 C   0  0  0  0  0  2  0  0  0  0  0  0
  1 15  1  0  0  0  0
  1 24  1  0  0  0  0
  2 18  1  0  0  0  0
  5  4  2  0  0  0  0
  6 13  2  0  0  0  0
  7  6  1  0  0  0  0
  8  9  1  6  0  0  0
  8 19  1  0  0  0  0
  8 13  1  0  0  0  0
 10 21  1  0  0  0  0
 11  9  1  0  0  0  0
 11  7  1  0  0  0  0
 12 22  1  0  0  0  0
 13 25  1  0  0  0  0
 14 29  1  0  0  0  0
 14 28  1  0  0  0  0
 16 14  2  0  0  0  0
 17 35  1  0  0  0  0
 17 26  1  0  0  0  0
 18 23  1  0  0  0  0
 19 17  2  0  0  0  0
 20  2  2  0  0  0  0
 21  3  2  0  0  0  0
 21 20  1  0  0  0  0
 22 29  2  0  0  0  0
 23  5  1  0  0  0  0
 24 12  2  0  0  0  0
 24 16  1  0  0  0  0
 25 10  1  1  0  0  0
 26 25  1  0  0  0  0
 26 15  2  0  0  0  0
 27 23  1  0  0  0  0
 28 27  1  0  0  0  0
 30 34  1  0  0  0  0
 30 35  1  0  0  0  0
 31 36  1  1  0  0  0
 31 33  1  0  0  0  0
 32 33  1  0  0  0  0
 34 31  1  0  0  0  0
 35 32  1  0  0  0  0
 36 38  1  0  0  0  0
 37 36  2  0  0  0  0
 39  5  1  0  0  0  0
 39 40  1  0  0  0  0
 40 41  1  1  0  0  0
 40 42  1  0  0  0  0
 42 43  1  0  0  0  0
 44 40  1  0  0  0  0
 46 45  1  6  0  0  0
 46 44  1  0  0  0  0
 47 48  1  6  0  0  0
 47 46  1  0  0  0  0
 47 49  1  0  0  0  0
 49 50  2  0  0  0  0
 51 47  1  0  0  0  0
 52 51  1  0  0  0  0
 53 52  1  0  0  0  0
 54 53  1  0  0  0  0
 55 53  2  0  0  0  0
M  END
>  <MODEL>
4

>  <REMARK>
 VINA RESULT:      -5.4      4.573      8.358
  Name = 
  12 active torsions:
  status: ('A' for Active; 'I' for Inactive)
    1  A    between atoms: C_1  and  O_53
    2  A    between atoms: O_6  and  C_20
    3  A    between atoms: C_8  and  S_22
    4  A    between atoms: C_10  and  C_32
    5  A    between atoms: C_11  and  C_29
    6  A    between atoms: C_12  and  C_14
    7  A    between atoms: C_12  and  C_20
    8  A    between atoms: C_14  and  C_29
    9  A    between atoms: C_20  and  S_22
   10  A    between atoms: C_29  and  C_38
   11  A    between atoms: C_33  and  N_52
   12  A    between atoms: C_38  and  O_53
                            x       y       z     vdW  Elec       q    Type
                         _______ _______ _______ _____ _____    ______ ____

>  <TORSDO>
F 12

$$$$
=
 OpenBabel11052414593D

 55 59  0  0  1  0  0  0  0  0999 V2000
  183.8240  175.2360  134.6740 C   0  0  0  0  0  2  0  0  0  0  0  0
  182.9930  177.6430  139.0160 C   0  0  0  0  0  3  0  0  0  0  0  0
  185.3110  178.8770  138.1980 O   0  0  0  0  0  0  0  0  0  0  0  0
  178.9390  179.2150  139.8680 O   0  0  0  0  0  0  0  0  0  0  0  0
  180.1670  178.9390  139.7810 C   0  0  0  0  0  0  0  0  0  0  0  0
  189.1510  177.4260  136.8450 C   0  0  0  0  0  3  0  0  0  0  0  0
  190.6350  177.2380  136.6590 C   0  0  0  0  0  2  0  0  0  0  0  0
  188.6530  175.4670  135.3870 C   0  0  2  0  0  3  0  0  0  0  0  0
  190.1250  175.0930  135.5040 C   0  0  0  0  0  2  0  0  0  0  0  0
  186.4930  176.8130  138.1280 C   0  0  0  0  0  2  0  0  0  0  0  0
  190.9600  176.3640  135.4490 C   0  0  0  0  0  2  0  0  0  0  0  0
  181.5490  174.2470  134.5940 C   0  0  0  0  0  3  0  0  0  0  0  0
  188.2390  176.5640  136.3540 C   0  0  0  0  0  0  0  0  0  0  0  0
  180.4370  176.3580  136.0500 C   0  0  0  0  0  0  0  0  0  0  0  0
  184.7000  176.1230  135.5050 C   0  0  0  0  0  3  0  0  0  0  0  0
  181.8080  176.3510  135.7670 C   0  0  0  0  0  3  0  0  0  0  0  0
  186.4630  174.3920  135.7580 C   0  0  0  0  0  0  0  0  0  0  0  0
  181.7890  177.0020  139.6050 C   0  0  0  0  0  2  0  0  0  0  0  0
  187.7790  174.2610  135.5410 C   0  0  0  0  0  3  0  0  0  0  0  0
  184.1170  177.0100  138.9500 N   0  0  0  0  0  0  0  0  0  0  0  0
  185.2890  177.6360  138.4230 C   0  0  0  0  0  0  0  0  0  0  0  0
  180.1820  174.2530  134.8780 C   0  0  0  0  0  3  0  0  0  0  0  0
  180.5830  177.7010  139.1750 N   0  0  0  0  0  0  0  0  0  0  0  0
  182.3720  175.2870  135.0430 C   0  0  0  0  0  0  0  0  0  0  0  0
  186.7670  176.8020  136.6250 C   0  0  1  0  0  3  0  0  0  0  0  0
  185.9080  175.7590  135.9510 C   0  0  0  0  0  0  0  0  0  0  0  0
  179.6670  176.9810  138.3010 C   0  0  0  0  0  2  0  0  0  0  0  0
  179.8420  177.4530  136.8670 C   0  0  0  0  0  2  0  0  0  0  0  0
  179.6270  175.3050  135.6070 C   0  0  0  0  0  3  0  0  0  0  0  0
  185.6770  172.1310  134.9770 C   0  0  0  0  0  2  0  0  0  0  0  0
  183.7800  171.0940  136.2270 C   0  0  2  0  0  3  0  0  0  0  0  0
  185.0990  172.9490  137.2780 C   0  0  0  0  0  2  0  0  0  0  0  0
  183.7240  172.2990  137.1630 C   0  0  0  0  0  2  0  0  0  0  0  0
  184.2900  171.5140  134.8510 C   0  0  0  0  0  2  0  0  0  0  0  0
  185.6460  173.2250  135.9490 N   0  0  0  0  0  0  0  0  0  0  0  0
  182.4380  170.4530  136.1080 C   0  0  0  0  0  0  0  0  0  0  0  0
  181.5460  170.6550  136.9750 O   0  0  0  0  0  0  0  0  0  0  0  0
  182.1520  169.6290  134.9820 N   0  0  0  0  0  1  0  0  0  0  0  0
  181.3680  180.1010  140.4560 S   0  0  0  0  0  0  0  0  0  0  0  0
  181.4360  179.3840  142.1480 C   0  0  2  0  0  0  0  0  0  0  0  0
  180.4760  178.2060  142.1970 C   0  0  0  0  0  1  0  0  0  0  0  0
  181.0460  180.3190  143.1320 O   0  0  0  0  0  0  0  0  0  0  0  0
  179.7670  180.5850  142.9390 O   0  0  0  0  0  1  0  0  0  0  0  0
  182.8600  178.8560  142.3880 C   0  0  0  0  0  2  0  0  0  0  0  0
  182.4000  179.4760  144.6600 O   0  0  0  0  0  1  0  0  0  0  0  0
  183.1790  178.6240  143.8690 C   0  0  2  0  0  3  0  0  0  0  0  0
  184.6790  178.7920  144.1920 C   0  0  1  0  0  0  0  0  0  0  0  0
  185.2020  180.0700  143.5480 C   0  0  0  0  0  1  0  0  0  0  0  0
  184.8880  178.8700  145.6800 C   0  0  0  0  0  3  0  0  0  0  0  0
  184.7770  177.8810  146.3900 O   0  0  0  0  0  0  0  0  0  0  0  0
  185.4670  177.5980  143.6470 C   0  0  0  0  0  2  0  0  0  0  0  0
  186.8120  177.9570  143.3350 O   0  0  0  0  0  0  0  0  0  0  0  0
  187.9240  177.3380  143.9160 C   0  0  0  0  0  0  0  0  0  0  0  0
  188.3460  177.7470  145.2810 C   0  0  0  0  0  1  0  0  0  0  0  0
  188.6180  176.3980  143.2830 C   0  0  0  0  0  2  0  0  0  0  0  0
  1 24  1  0  0  0  0
  1 15  1  0  0  0  0
  2 18  1  0  0  0  0
  3 21  2  0  0  0  0
  5  4  2  0  0  0  0
  5 39  1  0  0  0  0
  7  6  1  0  0  0  0
  8  9  1  1  0  0  0
  8 19  1  0  0  0  0
  8 13  1  0  0  0  0
 10 21  1  0  0  0  0
 11  9  1  0  0  0  0
 11  7  1  0  0  0  0
 12 22  2  0  0  0  0
 12 24  1  0  0  0  0
 13 25  1  0  0  0  0
 13  6  2  0  0  0  0
 14 28  1  0  0  0  0
 15 26  2  0  0  0  0
 16 14  1  0  0  0  0
 17 35  1  0  0  0  0
 17 26  1  0  0  0  0
 19 17  2  0  0  0  0
 20  2  2  0  0  0  0
 21 20  1  0  0  0  0
 22 29  1  0  0  0  0
 23 18  1  0  0  0  0
 23  5  1  0  0  0  0
 24 16  2  0  0  0  0
 25 10  1  1  0  0  0
 26 25  1  0  0  0  0
 27 23  1  0  0  0  0
 28 27  1  0  0  0  0
 29 14  2  0  0  0  0
 30 35  1  0  0  0  0
 31 36  1  6  0  0  0
 31 33  1  0  0  0  0
 33 32  1  0  0  0  0
 34 30  1  0  0  0  0
 34 31  1  0  0  0  0
 35 32  1  0  0  0  0
 36 37  2  0  0  0  0
 38 36  1  0  0  0  0
 39 40  1  0  0  0  0
 40 41  1  1  0  0  0
 40 44  1  0  0  0  0
 40 42  1  0  0  0  0
 43 42  1  0  0  0  0
 44 46  1  0  0  0  0
 46 47  1  0  0  0  0
 46 45  1  1  0  0  0
 47 48  1  6  0  0  0
 47 49  1  0  0  0  0
 49 50  2  0  0  0  0
 51 47  1  0  0  0  0
 52 51  1  0  0  0  0
 52 53  1  0  0  0  0
 53 54  1  0  0  0  0
 55 53  2  0  0  0  0
M  END
>  <MODEL>
5

>  <REMARK>
 VINA RESULT:      -5.2      4.515      9.977
  Name = 
  12 active torsions:
  status: ('A' for Active; 'I' for Inactive)
    1  A    between atoms: C_1  and  O_53
    2  A    between atoms: O_6  and  C_20
    3  A    between atoms: C_8  and  S_22
    4  A    between atoms: C_10  and  C_32
    5  A    between atoms: C_11  and  C_29
    6  A    between atoms: C_12  and  C_14
    7  A    between atoms: C_12  and  C_20
    8  A    between atoms: C_14  and  C_29
    9  A    between atoms: C_20  and  S_22
   10  A    between atoms: C_29  and  C_38
   11  A    between atoms: C_33  and  N_52
   12  A    between atoms: C_38  and  O_53
                            x       y       z     vdW  Elec       q    Type
                         _______ _______ _______ _____ _____    ______ ____

>  <TORSDO>
F 12

$$$$
=
 OpenBabel11052414593D

 55 59  0  0  1  0  0  0  0  0999 V2000
  180.8690  178.0590  138.1510 C   0  0  0  0  0  2  0  0  0  0  0  0
  185.7340  178.1670  139.4380 C   0  0  0  0  0  3  0  0  0  0  0  0
  184.6030  177.4050  141.8270 O   0  0  0  0  0  0  0  0  0  0  0  0
  188.7040  176.1990  136.8040 O   0  0  0  0  0  0  0  0  0  0  0  0
  188.0250  176.7240  137.7280 C   0  0  0  0  0  0  0  0  0  0  0  0
  181.3550  178.9520  144.2220 C   0  0  0  0  0  3  0  0  0  0  0  0
  180.5240  179.4280  145.3860 C   0  0  0  0  0  2  0  0  0  0  0  0
  179.5840  179.6200  142.6000 C   0  0  2  0  0  3  0  0  0  0  0  0
  178.9340  180.4000  143.7360 C   0  0  0  0  0  2  0  0  0  0  0  0
  183.2520  179.3620  141.9150 C   0  0  0  0  0  2  0  0  0  0  0  0
  179.0500  179.5870  145.0190 C   0  0  0  0  0  2  0  0  0  0  0  0
  181.3380  178.1640  135.7170 C   0  0  0  0  0  3  0  0  0  0  0  0
  180.9820  179.1280  142.9400 C   0  0  0  0  0  0  0  0  0  0  0  0
  183.8220  176.9170  136.0070 C   0  0  0  0  0  0  0  0  0  0  0  0
  181.5470  178.0310  139.4870 C   0  0  0  0  0  3  0  0  0  0  0  0
  183.0280  177.1630  137.1340 C   0  0  0  0  0  3  0  0  0  0  0  0
  180.3560  180.0550  140.2980 C   0  0  0  0  0  0  0  0  0  0  0  0
  186.4560  178.6470  138.2320 C   0  0  0  0  0  2  0  0  0  0  0  0
  179.5910  180.4200  141.3350 C   0  0  0  0  0  3  0  0  0  0  0  0
  184.9730  178.9590  140.1160 N   0  0  0  0  0  0  0  0  0  0  0  0
  184.3090  178.5130  141.3010 C   0  0  0  0  0  0  0  0  0  0  0  0
  182.1300  177.9200  134.5940 C   0  0  0  0  0  3  0  0  0  0  0  0
  186.8680  177.5180  137.4050 N   0  0  0  0  0  0  0  0  0  0  0  0
  181.7840  177.7990  136.9930 C   0  0  0  0  0  0  0  0  0  0  0  0
  181.8970  178.6600  141.8260 C   0  0  1  0  0  3  0  0  0  0  0  0
  181.2800  178.9000  140.4690 C   0  0  0  0  0  0  0  0  0  0  0  0
  186.2360  177.3780  136.1010 C   0  0  0  0  0  2  0  0  0  0  0  0
  185.1690  176.2970  136.1560 C   0  0  0  0  0  2  0  0  0  0  0  0
  183.3710  177.3000  134.7390 C   0  0  0  0  0  3  0  0  0  0  0  0
  181.6580  181.3630  138.5850 C   0  0  0  0  0  2  0  0  0  0  0  0
  180.3420  182.6950  136.9330 C   0  0  2  0  0  3  0  0  0  0  0  0
  179.2310  180.8440  138.2080 C   0  0  0  0  0  2  0  0  0  0  0  0
  179.0380  182.2150  137.5670 C   0  0  0  0  0  2  0  0  0  0  0  0
  181.4540  182.7450  137.9760 C   0  0  0  0  0  2  0  0  0  0  0  0
  180.3860  180.8590  139.1070 N   0  0  0  0  0  0  0  0  0  0  0  0
  180.1620  184.0360  136.3030 C   0  0  0  0  0  0  0  0  0  0  0  0
  179.6390  184.1490  135.1620 O   0  0  0  0  0  0  0  0  0  0  0  0
  180.5570  185.2030  137.0160 N   0  0  0  0  0  1  0  0  0  0  0  0
  188.5500  176.4860  139.4360 S   0  0  0  0  0  0  0  0  0  0  0  0
  190.2120  177.2550  139.2590 C   0  0  2  0  0  0  0  0  0  0  0  0
  190.1200  178.3300  138.1880 C   0  0  0  0  0  1  0  0  0  0  0  0
  191.1880  176.3130  138.8640 O   0  0  0  0  0  0  0  0  0  0  0  0
  192.1360  176.9730  138.2230 O   0  0  0  0  0  1  0  0  0  0  0  0
  190.5710  177.9310  140.5920 C   0  0  0  0  0  2  0  0  0  0  0  0
  188.5270  178.8510  141.4480 O   0  0  0  0  0  1  0  0  0  0  0  0
  189.4600  177.8270  141.6440 C   0  0  2  0  0  3  0  0  0  0  0  0
  190.0000  177.8440  143.0890 C   0  0  1  0  0  0  0  0  0  0  0  0
  190.5520  176.4690  143.4460 C   0  0  0  0  0  1  0  0  0  0  0  0
  191.0960  178.8650  143.2270 C   0  0  0  0  0  3  0  0  0  0  0  0
  191.0670  179.7150  144.1050 O   0  0  0  0  0  0  0  0  0  0  0  0
  188.8730  178.1990  144.0630 C   0  0  0  0  0  2  0  0  0  0  0  0
  189.0370  177.5380  145.3170 O   0  0  0  0  0  0  0  0  0  0  0  0
  188.0070  177.4130  146.2560 C   0  0  0  0  0  0  0  0  0  0  0  0
  188.3530  177.3050  147.6970 C   0  0  0  0  0  1  0  0  0  0  0  0
  186.7270  177.3840  145.8980 C   0  0  0  0  0  2  0  0  0  0  0  0
  1 15  1  0  0  0  0
  2 20  2  0  0  0  0
  4  5  2  0  0  0  0
  5 39  1  0  0  0  0
  6  7  1  0  0  0  0
  8 19  1  6  0  0  0
  8 13  1  0  0  0  0
  8  9  1  0  0  0  0
  9 11  1  0  0  0  0
 11  7  1  0  0  0  0
 12 24  1  0  0  0  0
 13  6  2  0  0  0  0
 14 28  1  0  0  0  0
 14 16  1  0  0  0  0
 15 26  2  0  0  0  0
 17 26  1  0  0  0  0
 17 19  2  0  0  0  0
 18  2  1  0  0  0  0
 20 21  1  0  0  0  0
 21  3  2  0  0  0  0
 21 10  1  0  0  0  0
 22 29  1  0  0  0  0
 22 12  2  0  0  0  0
 23  5  1  0  0  0  0
 23 18  1  0  0  0  0
 24 16  2  0  0  0  0
 24  1  1  0  0  0  0
 25 10  1  6  0  0  0
 25 13  1  0  0  0  0
 26 25  1  0  0  0  0
 27 28  1  0  0  0  0
 27 23  1  0  0  0  0
 29 14  2  0  0  0  0
 30 35  1  0  0  0  0
 31 36  1  1  0  0  0
 31 33  1  0  0  0  0
 31 34  1  0  0  0  0
 32 35  1  0  0  0  0
 33 32  1  0  0  0  0
 34 30  1  0  0  0  0
 35 17  1  0  0  0  0
 36 38  1  0  0  0  0
 37 36  2  0  0  0  0
 40 41  1  6  0  0  0
 40 39  1  0  0  0  0
 40 44  1  0  0  0  0
 42 40  1  0  0  0  0
 43 42  1  0  0  0  0
 44 46  1  0  0  0  0
 46 45  1  1  0  0  0
 46 47  1  0  0  0  0
 47 49  1  0  0  0  0
 47 48  1  1  0  0  0
 47 51  1  0  0  0  0
 49 50  2  0  0  0  0
 51 52  1  0  0  0  0
 52 53  1  0  0  0  0
 53 54  1  0  0  0  0
 55 53  2  0  0  0  0
M  END
>  <MODEL>
6

>  <REMARK>
 VINA RESULT:      -5.0      3.649      5.763
  Name = 
  12 active torsions:
  status: ('A' for Active; 'I' for Inactive)
    1  A    between atoms: C_1  and  O_53
    2  A    between atoms: O_6  and  C_20
    3  A    between atoms: C_8  and  S_22
    4  A    between atoms: C_10  and  C_32
    5  A    between atoms: C_11  and  C_29
    6  A    between atoms: C_12  and  C_14
    7  A    between atoms: C_12  and  C_20
    8  A    between atoms: C_14  and  C_29
    9  A    between atoms: C_20  and  S_22
   10  A    between atoms: C_29  and  C_38
   11  A    between atoms: C_33  and  N_52
   12  A    between atoms: C_38  and  O_53
                            x       y       z     vdW  Elec       q    Type
                         _______ _______ _______ _____ _____    ______ ____

>  <TORSDO>
F 12

$$$$
=
 OpenBabel11052414593D

 55 59  0  0  1  0  0  0  0  0999 V2000
  182.6720  176.4920  139.4780 C   0  0  0  0  0  2  0  0  0  0  0  0
  187.2980  178.0300  138.2280 C   0  0  0  0  0  3  0  0  0  0  0  0
  187.6560  177.4970  140.9030 O   0  0  0  0  0  0  0  0  0  0  0  0
  189.2130  176.3710  134.5940 O   0  0  0  0  0  0  0  0  0  0  0  0
  188.8970  176.8840  135.7010 C   0  0  0  0  0  0  0  0  0  0  0  0
  185.5290  178.6430  144.4870 C   0  0  0  0  0  3  0  0  0  0  0  0
  185.2080  179.1190  145.8810 C   0  0  0  0  0  2  0  0  0  0  0  0
  183.1100  178.5290  143.8980 C   0  0  2  0  0  3  0  0  0  0  0  0
  182.8350  179.3340  145.1620 C   0  0  0  0  0  2  0  0  0  0  0  0
  185.9590  179.0450  141.5310 C   0  0  0  0  0  2  0  0  0  0  0  0
  183.7570  178.8400  146.2680 C   0  0  0  0  0  2  0  0  0  0  0  0
  181.9410  176.2310  137.1210 C   0  0  0  0  0  3  0  0  0  0  0  0
  184.5860  178.4690  143.5410 C   0  0  0  0  0  0  0  0  0  0  0  0
  184.5380  175.7080  136.2340 C   0  0  0  0  0  0  0  0  0  0  0  0
  183.8480  176.8910  140.3150 C   0  0  0  0  0  3  0  0  0  0  0  0
  184.3030  175.9690  137.5900 C   0  0  0  0  0  3  0  0  0  0  0  0
  182.5910  178.6820  141.4910 C   0  0  0  0  0  0  0  0  0  0  0  0
  187.2150  178.4270  136.7990 C   0  0  0  0  0  2  0  0  0  0  0  0
  182.3020  179.0440  142.7470 C   0  0  0  0  0  3  0  0  0  0  0  0
  186.7200  178.7300  139.1470 N   0  0  0  0  0  0  0  0  0  0  0  0
  186.8320  178.3760  140.5270 C   0  0  0  0  0  0  0  0  0  0  0  0
  182.1760  175.9730  135.7690 C   0  0  0  0  0  3  0  0  0  0  0  0
  187.5370  177.2940  135.9390 N   0  0  0  0  0  0  0  0  0  0  0  0
  182.9990  176.2420  138.0370 C   0  0  0  0  0  0  0  0  0  0  0  0
  184.9980  178.0300  142.1500 C   0  0  1  0  0  3  0  0  0  0  0  0
  183.7980  177.8430  141.2530 C   0  0  0  0  0  0  0  0  0  0  0  0
  186.4640  176.7520  135.1160 C   0  0  0  0  0  2  0  0  0  0  0  0
  185.9260  175.4760  135.7430 C   0  0  0  0  0  2  0  0  0  0  0  0
  183.4730  175.7150  135.3260 C   0  0  0  0  0  3  0  0  0  0  0  0
  180.4150  178.8960  140.2420 C   0  0  0  0  0  2  0  0  0  0  0  0
  180.4810  180.0690  138.0380 C   0  0  2  0  0  3  0  0  0  0  0  0
  182.3550  180.3840  139.6740 C   0  0  0  0  0  2  0  0  0  0  0  0
  181.9820  180.3060  138.1970 C   0  0  0  0  0  2  0  0  0  0  0  0
  180.0660  178.7910  138.7630 C   0  0  0  0  0  2  0  0  0  0  0  0
  181.8340  179.2210  140.3940 N   0  0  0  0  0  0  0  0  0  0  0  0
  180.1070  179.9900  136.5960 C   0  0  0  0  0  0  0  0  0  0  0  0
  180.3300  180.9560  135.8170 O   0  0  0  0  0  0  0  0  0  0  0  0
  179.5230  178.7960  136.0870 N   0  0  0  0  0  1  0  0  0  0  0  0
  190.1770  177.1190  136.9480 S   0  0  0  0  0  0  0  0  0  0  0  0
  191.0140  175.5000  136.7060 C   0  0  2  0  0  0  0  0  0  0  0  0
  192.0260  175.6580  135.5820 C   0  0  0  0  0  1  0  0  0  0  0  0
  190.1010  174.4840  136.3430 O   0  0  0  0  0  0  0  0  0  0  0  0
  189.2750  174.3150  137.3610 O   0  0  0  0  0  1  0  0  0  0  0  0
  191.7750  175.1550  137.9960 C   0  0  0  0  0  2  0  0  0  0  0  0
  193.4540  176.4930  136.9260 O   0  0  0  0  0  1  0  0  0  0  0  0
  193.2480  175.5780  137.9630 C   0  0  2  0  0  3  0  0  0  0  0  0
  194.2120  174.3790  137.8380 C   0  0  1  0  0  0  0  0  0  0  0  0
  195.2120  174.4030  138.9880 C   0  0  0  0  0  1  0  0  0  0  0  0
  193.4460  173.0850  137.8810 C   0  0  0  0  0  3  0  0  0  0  0  0
  193.1830  172.4680  136.8590 O   0  0  0  0  0  0  0  0  0  0  0  0
  194.9720  174.4560  136.5120 C   0  0  0  0  0  2  0  0  0  0  0  0
  196.2470  175.0760  136.6740 O   0  0  0  0  0  0  0  0  0  0  0  0
  197.0250  175.5190  135.5990 C   0  0  0  0  0  0  0  0  0  0  0  0
  197.8560  174.5370  134.8550 C   0  0  0  0  0  1  0  0  0  0  0  0
  197.0480  176.7950  135.2250 C   0  0  0  0  0  2  0  0  0  0  0  0
  1 15  1  0  0  0  0
  2 20  2  0  0  0  0
  4  5  2  0  0  0  0
  5 23  1  0  0  0  0
  5 39  1  0  0  0  0
  6  7  1  0  0  0  0
  7 11  1  0  0  0  0
  8 19  1  6  0  0  0
  8  9  1  0  0  0  0
  9 11  1  0  0  0  0
 12 24  1  0  0  0  0
 13  8  1  0  0  0  0
 13  6  2  0  0  0  0
 14 16  1  0  0  0  0
 15 26  2  0  0  0  0
 16 24  2  0  0  0  0
 17 19  2  0  0  0  0
 18  2  1  0  0  0  0
 20 21  1  0  0  0  0
 21  3  2  0  0  0  0
 21 10  1  0  0  0  0
 22 12  2  0  0  0  0
 23 18  1  0  0  0  0
 24  1  1  0  0  0  0
 25 10  1  6  0  0  0
 25 13  1  0  0  0  0
 26 17  1  0  0  0  0
 26 25  1  0  0  0  0
 27 28  1  0  0  0  0
 27 23  1  0  0  0  0
 28 14  1  0  0  0  0
 29 22  1  0  0  0  0
 29 14  2  0  0  0  0
 30 35  1  0  0  0  0
 31 36  1  6  0  0  0
 31 33  1  0  0  0  0
 31 34  1  0  0  0  0
 32 35  1  0  0  0  0
 33 32  1  0  0  0  0
 34 30  1  0  0  0  0
 35 17  1  0  0  0  0
 37 36  2  0  0  0  0
 38 36  1  0  0  0  0
 40 41  1  6  0  0  0
 40 39  1  0  0  0  0
 40 44  1  0  0  0  0
 42 40  1  0  0  0  0
 42 43  1  0  0  0  0
 46 45  1  6  0  0  0
 46 44  1  0  0  0  0
 47 49  1  0  0  0  0
 47 46  1  0  0  0  0
 47 48  1  1  0  0  0
 50 49  2  0  0  0  0
 51 52  1  0  0  0  0
 51 47  1  0  0  0  0
 53 52  1  0  0  0  0
 54 53  1  0  0  0  0
 55 53  2  0  0  0  0
M  END
>  <MODEL>
7

>  <REMARK>
 VINA RESULT:      -4.8      1.394      2.051
  Name = 
  12 active torsions:
  status: ('A' for Active; 'I' for Inactive)
    1  A    between atoms: C_1  and  O_53
    2  A    between atoms: O_6  and  C_20
    3  A    between atoms: C_8  and  S_22
    4  A    between atoms: C_10  and  C_32
    5  A    between atoms: C_11  and  C_29
    6  A    between atoms: C_12  and  C_14
    7  A    between atoms: C_12  and  C_20
    8  A    between atoms: C_14  and  C_29
    9  A    between atoms: C_20  and  S_22
   10  A    between atoms: C_29  and  C_38
   11  A    between atoms: C_33  and  N_52
   12  A    between atoms: C_38  and  O_53
                            x       y       z     vdW  Elec       q    Type
                         _______ _______ _______ _____ _____    ______ ____

>  <TORSDO>
F 12

$$$$
=
 OpenBabel11052414593D

 55 59  0  0  1  0  0  0  0  0999 V2000
  186.2570  177.2690  136.2060 C   0  0  0  0  0  2  0  0  0  0  0  0
  186.5210  177.9910  141.1790 C   0  0  0  0  0  3  0  0  0  0  0  0
  189.0340  178.8140  140.4230 O   0  0  0  0  0  0  0  0  0  0  0  0
  183.2060  180.0980  143.2310 O   0  0  0  0  0  0  0  0  0  0  0  0
  184.2830  179.5740  142.8360 C   0  0  0  0  0  0  0  0  0  0  0  0
  192.1440  177.0580  137.9890 C   0  0  0  0  0  3  0  0  0  0  0  0
  193.4840  176.5850  137.4850 C   0  0  0  0  0  2  0  0  0  0  0  0
  190.9700  175.9850  136.0700 C   0  0  2  0  0  3  0  0  0  0  0  0
  192.2650  175.2350  135.7850 C   0  0  0  0  0  2  0  0  0  0  0  0
  189.5300  176.7000  139.4460 C   0  0  0  0  0  2  0  0  0  0  0  0
  193.4390  176.1790  136.0130 C   0  0  0  0  0  2  0  0  0  0  0  0
  183.7910  176.9920  136.2080 C   0  0  0  0  0  3  0  0  0  0  0  0
  190.9810  176.7050  137.4090 C   0  0  0  0  0  0  0  0  0  0  0  0
  183.4800  178.6080  138.4670 C   0  0  0  0  0  0  0  0  0  0  0  0
  187.4200  177.5250  137.1140 C   0  0  0  0  0  3  0  0  0  0  0  0
  184.7600  178.3620  137.9560 C   0  0  0  0  0  3  0  0  0  0  0  0
  188.5930  175.4410  136.4440 C   0  0  0  0  0  0  0  0  0  0  0  0
  185.2270  177.5040  141.7240 C   0  0  0  0  0  2  0  0  0  0  0  0
  189.7870  175.0740  135.9610 C   0  0  0  0  0  3  0  0  0  0  0  0
  187.3930  177.1680  140.7020 N   0  0  0  0  0  0  0  0  0  0  0  0
  188.6560  177.6280  140.2150 C   0  0  0  0  0  0  0  0  0  0  0  0
  182.5150  177.2360  136.7190 C   0  0  0  0  0  3  0  0  0  0  0  0
  184.2600  178.5940  141.7820 N   0  0  0  0  0  0  0  0  0  0  0  0
  184.9200  177.5420  136.8260 C   0  0  0  0  0  0  0  0  0  0  0  0
  189.6740  177.1870  138.0050 C   0  0  1  0  0  3  0  0  0  0  0  0
  188.4920  176.7280  137.1850 C   0  0  0  0  0  0  0  0  0  0  0  0
  183.1060  178.5110  140.8970 C   0  0  0  0  0  2  0  0  0  0  0  0
  183.3060  179.4270  139.6990 C   0  0  0  0  0  2  0  0  0  0  0  0
  182.3590  178.0400  137.8490 C   0  0  0  0  0  3  0  0  0  0  0  0
  187.0370  174.0040  135.0830 C   0  0  0  0  0  2  0  0  0  0  0  0
  185.0840  173.0010  136.2740 C   0  0  2  0  0  3  0  0  0  0  0  0
  187.0460  173.8430  137.5880 C   0  0  0  0  0  2  0  0  0  0  0  0
  185.5330  173.6510  137.5810 C   0  0  0  0  0  2  0  0  0  0  0  0
  185.5210  173.8470  135.0810 C   0  0  0  0  0  2  0  0  0  0  0  0
  187.4780  174.5360  136.3740 N   0  0  0  0  0  0  0  0  0  0  0  0
  183.6040  172.8100  136.2580 C   0  0  0  0  0  0  0  0  0  0  0  0
  182.8370  173.7390  135.8860 O   0  0  0  0  0  0  0  0  0  0  0  0
  183.0550  171.5520  136.6360 N   0  0  0  0  0  1  0  0  0  0  0  0
  185.8260  180.0530  143.6340 S   0  0  0  0  0  0  0  0  0  0  0  0
  185.6110  179.0320  145.1490 C   0  0  2  0  0  0  0  0  0  0  0  0
  184.7260  177.8470  144.7940 C   0  0  0  0  0  1  0  0  0  0  0  0
  184.9890  179.7580  146.1890 O   0  0  0  0  0  0  0  0  0  0  0  0
  185.3210  179.1770  147.3280 O   0  0  0  0  0  1  0  0  0  0  0  0
  186.9900  178.4970  145.5660 C   0  0  0  0  0  2  0  0  0  0  0  0
  186.9420  176.1240  145.2120 O   0  0  0  0  0  1  0  0  0  0  0  0
  187.4690  177.3180  144.7090 C   0  0  2  0  0  3  0  0  0  0  0  0
  189.0060  177.2400  144.6030 C   0  0  1  0  0  0  0  0  0  0  0  0
  189.3950  176.3110  143.4600 C   0  0  0  0  0  1  0  0  0  0  0  0
  189.5830  178.6050  144.3450 C   0  0  0  0  0  3  0  0  0  0  0  0
  190.5050  178.7670  143.5580 O   0  0  0  0  0  0  0  0  0  0  0  0
  189.5920  176.6990  145.9100 C   0  0  0  0  0  2  0  0  0  0  0  0
  190.0090  177.7550  146.7740 O   0  0  0  0  0  0  0  0  0  0  0  0
  189.5640  177.8840  148.0950 C   0  0  0  0  0  0  0  0  0  0  0  0
  188.1800  177.4650  148.4350 C   0  0  0  0  0  1  0  0  0  0  0  0
  190.3420  178.3750  149.0550 C   0  0  0  0  0  2  0  0  0  0  0  0
  1 24  1  0  0  0  0
  1 15  1  0  0  0  0
  2 18  1  0  0  0  0
  5  4  2  0  0  0  0
  5 39  1  0  0  0  0
  7  6  1  0  0  0  0
  8  9  1  1  0  0  0
  8 13  1  0  0  0  0
  9 11  1  0  0  0  0
 10 21  1  0  0  0  0
 11  7  1  0  0  0  0
 12 22  2  0  0  0  0
 12 24  1  0  0  0  0
 13  6  2  0  0  0  0
 13 25  1  0  0  0  0
 14 28  1  0  0  0  0
 15 26  2  0  0  0  0
 16 14  1  0  0  0  0
 17 26  1  0  0  0  0
 18 23  1  0  0  0  0
 19  8  1  0  0  0  0
 19 17  2  0  0  0  0
 20  2  2  0  0  0  0
 21  3  2  0  0  0  0
 21 20  1  0  0  0  0
 22 29  1  0  0  0  0
 23  5  1  0  0  0  0
 24 16  2  0  0  0  0
 25 10  1  1  0  0  0
 26 25  1  0  0  0  0
 27 23  1  0  0  0  0
 28 27  1  0  0  0  0
 29 14  2  0  0  0  0
 30 35  1  0  0  0  0
 31 36  1  1  0  0  0
 31 33  1  0  0  0  0
 33 32  1  0  0  0  0
 34 30  1  0  0  0  0
 34 31  1  0  0  0  0
 35 17  1  0  0  0  0
 35 32  1  0  0  0  0
 36 38  1  0  0  0  0
 37 36  2  0  0  0  0
 39 40  1  0  0  0  0
 40 41  1  6  0  0  0
 40 44  1  0  0  0  0
 40 42  1  0  0  0  0
 42 43  1  0  0  0  0
 46 45  1  1  0  0  0
 46 44  1  0  0  0  0
 47 48  1  6  0  0  0
 47 46  1  0  0  0  0
 47 51  1  0  0  0  0
 49 47  1  0  0  0  0
 50 49  2  0  0  0  0
 51 52  1  0  0  0  0
 52 53  1  0  0  0  0
 53 54  1  0  0  0  0
 53 55  2  0  0  0  0
M  END
>  <MODEL>
8

>  <REMARK>
 VINA RESULT:      -4.4      3.871      9.289
  Name = 
  12 active torsions:
  status: ('A' for Active; 'I' for Inactive)
    1  A    between atoms: C_1  and  O_53
    2  A    between atoms: O_6  and  C_20
    3  A    between atoms: C_8  and  S_22
    4  A    between atoms: C_10  and  C_32
    5  A    between atoms: C_11  and  C_29
    6  A    between atoms: C_12  and  C_14
    7  A    between atoms: C_12  and  C_20
    8  A    between atoms: C_14  and  C_29
    9  A    between atoms: C_20  and  S_22
   10  A    between atoms: C_29  and  C_38
   11  A    between atoms: C_33  and  N_52
   12  A    between atoms: C_38  and  O_53
                            x       y       z     vdW  Elec       q    Type
                         _______ _______ _______ _____ _____    ______ ____

>  <TORSDO>
F 12

$$$$
