=
 OpenBabel11052413493D

 27 31  0  0  1  0  0  0  0  0999 V2000
  188.0980  176.9710  143.6840 C   0  0  0  0  0  3  0  0  0  0  0  0
  185.9860  178.1540  144.2930 C   0  0  0  0  0  0  0  0  0  0  0  0
  186.3070  178.6740  141.8890 C   0  0  0  0  0  3  0  0  0  0  0  0
  181.9040  179.2350  143.2600 C   0  0  0  0  0  2  0  0  0  0  0  0
  180.9740  178.6510  141.0840 O   0  0  0  0  0  0  0  0  0  0  0  0
  185.1110  178.8130  145.3020 C   0  0  0  0  0  3  0  0  0  0  0  0
  183.2440  178.1980  141.5450 N   0  0  0  0  0  0  0  0  0  0  0  0
  189.5240  178.3310  138.6090 O   0  0  0  0  0  0  0  0  0  0  0  0
  183.5840  177.3720  140.3980 C   0  0  0  0  0  1  0  0  0  0  0  0
  189.1800  178.0630  139.7890 C   0  0  0  0  0  0  0  0  0  0  0  0
  184.0190  178.3760  142.7190 C   0  0  0  0  0  0  0  0  0  0  0  0
  187.1990  177.6590  144.6470 C   0  0  0  0  0  0  0  0  0  0  0  0
  181.9550  178.6910  141.8720 C   0  0  0  0  0  0  0  0  0  0  0  0
  183.3110  178.9500  143.6880 C   0  0  0  0  0  0  0  0  0  0  0  0
  188.2650  177.2390  142.3820 C   0  0  0  0  0  0  0  0  0  0  0  0
  185.4570  177.9530  142.8800 C   0  0  2  0  0  3  0  0  0  0  0  0
  188.2930  179.0210  140.5340 C   0  0  0  0  0  2  0  0  0  0  0  0
  183.8630  179.1910  145.0220 C   0  0  0  0  0  3  0  0  0  0  0  0
  189.7080  176.8520  140.4420 C   0  0  0  0  0  3  0  0  0  0  0  0
  189.2990  176.4820  141.6570 C   0  0  0  0  0  3  0  0  0  0  0  0
  187.5730  178.3350  141.6550 C   0  0  0  0  0  0  0  0  0  0  0  0
  188.6880  177.9120  148.6650 C   0  0  0  0  0  3  0  0  0  0  0  0
  187.6960  177.7210  146.0440 C   0  0  0  0  0  0  0  0  0  0  0  0
  186.8760  178.1900  147.0850 C   0  0  0  0  0  3  0  0  0  0  0  0
  187.3690  178.2800  148.3890 C   0  0  0  0  0  3  0  0  0  0  0  0
  189.5170  177.4590  147.6350 C   0  0  0  0  0  3  0  0  0  0  0  0
  189.0240  177.3690  146.3300 C   0  0  0  0  0  3  0  0  0  0  0  0
  1 12  1  0  0  0  0
  2 12  2  0  0  0  0
  2  6  1  0  0  0  0
  4 14  1  0  0  0  0
  5 13  2  0  0  0  0
  7 13  1  0  0  0  0
  7 11  1  0  0  0  0
  8 10  2  0  0  0  0
  9  7  1  0  0  0  0
 10 19  1  0  0  0  0
 10 17  1  0  0  0  0
 11 16  1  0  0  0  0
 11 14  2  0  0  0  0
 12 23  1  0  0  0  0
 13  4  1  0  0  0  0
 14 18  1  0  0  0  0
 15  1  2  0  0  0  0
 16  3  1  6  0  0  0
 16  2  1  0  0  0  0
 17 21  1  0  0  0  0
 18  6  2  0  0  0  0
 19 20  2  0  0  0  0
 20 15  1  0  0  0  0
 21  3  2  0  0  0  0
 21 15  1  0  0  0  0
 23 27  2  0  0  0  0
 23 24  1  0  0  0  0
 24 25  2  0  0  0  0
 25 22  1  0  0  0  0
 26 22  2  0  0  0  0
 27 26  1  0  0  0  0
M  END
>  <MODEL>
1

>  <REMARK>
 VINA RESULT:     -11.6      0.000      0.000
  Name = 
  1 active torsions:
  status: ('A' for Active; 'I' for Inactive)
    1  A    between atoms: C_9  and  C_15
                            x       y       z     vdW  Elec       q    Type
                         _______ _______ _______ _____ _____    ______ ____

>  <TORSDO>
F 1

$$$$
=
 OpenBabel11052413493D

 27 31  0  0  1  0  0  0  0  0999 V2000
  189.0900  176.6720  142.7490 C   0  0  0  0  0  3  0  0  0  0  0  0
  187.3560  177.7580  144.1790 C   0  0  0  0  0  0  0  0  0  0  0  0
  186.9790  178.7190  141.9230 C   0  0  0  0  0  3  0  0  0  0  0  0
  183.2480  179.0930  144.6650 C   0  0  0  0  0  2  0  0  0  0  0  0
  181.6650  178.9520  142.8170 O   0  0  0  0  0  0  0  0  0  0  0  0
  186.8780  178.2310  145.5080 C   0  0  0  0  0  3  0  0  0  0  0  0
  183.9270  178.3760  142.4670 N   0  0  0  0  0  0  0  0  0  0  0  0
  189.0250  178.9430  137.8010 O   0  0  0  0  0  0  0  0  0  0  0  0
  183.8420  177.7760  141.1450 C   0  0  0  0  0  1  0  0  0  0  0  0
  189.0320  178.4630  138.9640 C   0  0  0  0  0  0  0  0  0  0  0  0
  185.0300  178.3130  143.3550 C   0  0  0  0  0  0  0  0  0  0  0  0
  188.5780  177.1810  144.0480 C   0  0  0  0  0  0  0  0  0  0  0  0
  182.8370  178.8220  143.2570 C   0  0  0  0  0  0  0  0  0  0  0  0
  184.6920  178.7060  144.5800 C   0  0  0  0  0  0  0  0  0  0  0  0
  188.8790  177.1790  141.5270 C   0  0  0  0  0  0  0  0  0  0  0  0
  186.4130  177.8400  142.9860 C   0  0  2  0  0  3  0  0  0  0  0  0
  188.4860  179.2790  140.1030 C   0  0  0  0  0  2  0  0  0  0  0  0
  185.6370  178.6790  145.6980 C   0  0  0  0  0  3  0  0  0  0  0  0
  189.6370  177.1400  139.1990 C   0  0  0  0  0  3  0  0  0  0  0  0
  189.5850  176.5540  140.3970 C   0  0  0  0  0  3  0  0  0  0  0  0
  188.0860  178.4060  141.2530 C   0  0  0  0  0  0  0  0  0  0  0  0
  191.2110  176.6460  147.3950 C   0  0  0  0  0  3  0  0  0  0  0  0
  189.4740  176.9680  145.2100 C   0  0  0  0  0  0  0  0  0  0  0  0
  188.9910  177.0650  146.5260 C   0  0  0  0  0  3  0  0  0  0  0  0
  189.8550  176.9000  147.6120 C   0  0  0  0  0  3  0  0  0  0  0  0
  191.7060  176.5630  146.0900 C   0  0  0  0  0  3  0  0  0  0  0  0
  190.8420  176.7280  145.0040 C   0  0  0  0  0  3  0  0  0  0  0  0
  1 12  1  0  0  0  0
  2  6  1  0  0  0  0
  5 13  2  0  0  0  0
  6 18  2  0  0  0  0
  7 13  1  0  0  0  0
  7 11  1  0  0  0  0
  8 10  2  0  0  0  0
  9  7  1  0  0  0  0
 10 19  1  0  0  0  0
 10 17  1  0  0  0  0
 11 14  2  0  0  0  0
 12  2  2  0  0  0  0
 12 23  1  0  0  0  0
 13  4  1  0  0  0  0
 14  4  1  0  0  0  0
 14 18  1  0  0  0  0
 15  1  2  0  0  0  0
 16  3  1  6  0  0  0
 16 11  1  0  0  0  0
 16  2  1  0  0  0  0
 17 21  1  0  0  0  0
 19 20  2  0  0  0  0
 20 15  1  0  0  0  0
 21 15  1  0  0  0  0
 21  3  2  0  0  0  0
 22 25  1  0  0  0  0
 23 24  1  0  0  0  0
 24 25  2  0  0  0  0
 26 22  2  0  0  0  0
 27 23  2  0  0  0  0
 27 26  1  0  0  0  0
M  END
>  <MODEL>
2

>  <REMARK>
 VINA RESULT:     -11.1      1.169      1.734
  Name = 
  1 active torsions:
  status: ('A' for Active; 'I' for Inactive)
    1  A    between atoms: C_9  and  C_15
                            x       y       z     vdW  Elec       q    Type
                         _______ _______ _______ _____ _____    ______ ____

>  <TORSDO>
F 1

$$$$
=
 OpenBabel11052413493D

 27 31  0  0  1  0  0  0  0  0999 V2000
  187.1020  178.8280  141.5360 C   0  0  0  0  0  3  0  0  0  0  0  0
  187.1130  177.8960  143.8510 C   0  0  0  0  0  0  0  0  0  0  0  0
  189.1290  176.9160  142.7880 C   0  0  0  0  0  3  0  0  0  0  0  0
  189.3570  176.8580  147.4270 C   0  0  0  0  0  2  0  0  0  0  0  0
  191.7850  177.0710  147.4800 O   0  0  0  0  0  0  0  0  0  0  0  0
  186.3940  177.4850  145.0900 C   0  0  0  0  0  3  0  0  0  0  0  0
  190.6170  177.4810  145.4690 N   0  0  0  0  0  0  0  0  0  0  0  0
  191.0480  176.4650  138.6240 O   0  0  0  0  0  0  0  0  0  0  0  0
  191.6810  178.0570  144.6630 C   0  0  0  0  0  1  0  0  0  0  0  0
  190.1270  176.9670  139.3180 C   0  0  0  0  0  0  0  0  0  0  0  0
  189.2310  177.4860  145.1710 C   0  0  0  0  0  0  0  0  0  0  0  0
  186.4300  178.3830  142.7850 C   0  0  0  0  0  0  0  0  0  0  0  0
  190.7010  177.1280  146.8410 C   0  0  0  0  0  0  0  0  0  0  0  0
  188.5040  177.1430  146.2290 C   0  0  0  0  0  0  0  0  0  0  0  0
  188.1980  178.3120  140.9650 C   0  0  0  0  0  0  0  0  0  0  0  0
  188.6340  177.8550  143.8360 C   0  0  2  0  0  3  0  0  0  0  0  0
  189.6090  176.2150  140.5120 C   0  0  0  0  0  2  0  0  0  0  0  0
  187.0400  177.1280  146.2010 C   0  0  0  0  0  3  0  0  0  0  0  0
  189.5270  178.2500  138.9090 C   0  0  0  0  0  3  0  0  0  0  0  0
  188.6140  178.8630  139.6650 C   0  0  0  0  0  3  0  0  0  0  0  0
  188.9430  177.1370  141.4880 C   0  0  0  0  0  0  0  0  0  0  0  0
  182.1800  178.9800  142.8490 C   0  0  0  0  0  3  0  0  0  0  0  0
  184.9570  178.5580  142.8080 C   0  0  0  0  0  0  0  0  0  0  0  0
  184.1720  178.2530  141.6830 C   0  0  0  0  0  3  0  0  0  0  0  0
  182.7900  178.4590  141.7060 C   0  0  0  0  0  3  0  0  0  0  0  0
  182.9520  179.3020  143.9690 C   0  0  0  0  0  3  0  0  0  0  0  0
  184.3340  179.0960  143.9460 C   0  0  0  0  0  3  0  0  0  0  0  0
  1 12  1  0  0  0  0
  2  6  1  0  0  0  0
  6 18  2  0  0  0  0
  7 13  1  0  0  0  0
  8 10  2  0  0  0  0
  9  7  1  0  0  0  0
 10 17  1  0  0  0  0
 11  7  1  0  0  0  0
 11 14  2  0  0  0  0
 12 23  1  0  0  0  0
 12  2  2  0  0  0  0
 13  4  1  0  0  0  0
 13  5  2  0  0  0  0
 14  4  1  0  0  0  0
 15 21  1  0  0  0  0
 15  1  2  0  0  0  0
 16  3  1  6  0  0  0
 16  2  1  0  0  0  0
 16 11  1  0  0  0  0
 17 21  1  0  0  0  0
 18 14  1  0  0  0  0
 19 10  1  0  0  0  0
 19 20  2  0  0  0  0
 20 15  1  0  0  0  0
 21  3  2  0  0  0  0
 22 26  1  0  0  0  0
 23 27  1  0  0  0  0
 24 25  1  0  0  0  0
 24 23  2  0  0  0  0
 25 22  2  0  0  0  0
 27 26  2  0  0  0  0
M  END
>  <MODEL>
3

>  <REMARK>
 VINA RESULT:     -10.7      2.847      5.939
  Name = 
  1 active torsions:
  status: ('A' for Active; 'I' for Inactive)
    1  A    between atoms: C_9  and  C_15
                            x       y       z     vdW  Elec       q    Type
                         _______ _______ _______ _____ _____    ______ ____

>  <TORSDO>
F 1

$$$$
=
 OpenBabel11052413493D

 27 31  0  0  1  0  0  0  0  0999 V2000
  187.2130  177.3200  143.8760 C   0  0  0  0  0  3  0  0  0  0  0  0
  186.7430  178.1080  141.5550 C   0  0  0  0  0  0  0  0  0  0  0  0
  189.1960  178.3760  141.8080 C   0  0  0  0  0  3  0  0  0  0  0  0
  187.8750  178.1850  137.3590 C   0  0  0  0  0  2  0  0  0  0  0  0
  189.9520  177.1530  136.6090 O   0  0  0  0  0  0  0  0  0  0  0  0
  185.8200  178.6950  140.5440 C   0  0  0  0  0  3  0  0  0  0  0  0
  189.4540  177.2400  138.9150 N   0  0  0  0  0  0  0  0  0  0  0  0
  192.4300  178.2940  145.0890 O   0  0  0  0  0  0  0  0  0  0  0  0
  190.4890  176.3640  139.4390 C   0  0  0  0  0  1  0  0  0  0  0  0
  191.2230  178.1120  144.7850 C   0  0  0  0  0  0  0  0  0  0  0  0
  188.3180  177.7200  139.6150 C   0  0  1  0  0  3  0  0  0  0  0  0
  186.3380  177.9220  142.8370 C   0  0  0  0  0  0  0  0  0  0  0  0
  189.1820  177.4930  137.5460 C   0  0  0  0  0  0  0  0  0  0  0  0
  187.4250  178.2530  138.7860 C   0  0  0  0  0  0  0  0  0  0  0  0
  188.5400  177.4500  144.0100 C   0  0  0  0  0  0  0  0  0  0  0  0
  188.1150  177.6260  141.1060 C   0  0  0  0  0  0  0  0  0  0  0  0
  190.5990  178.9520  143.7050 C   0  0  0  0  0  2  0  0  0  0  0  0
  186.1360  178.7690  139.2510 C   0  0  0  0  0  3  0  0  0  0  0  0
  190.4260  177.1280  145.5370 C   0  0  0  0  0  3  0  0  0  0  0  0
  189.1700  176.8370  145.1900 C   0  0  0  0  0  3  0  0  0  0  0  0
  189.3950  178.2790  143.1210 C   0  0  0  0  0  0  0  0  0  0  0  0
  182.3890  178.9920  144.1360 C   0  0  0  0  0  3  0  0  0  0  0  0
  184.9650  178.2610  143.2840 C   0  0  0  0  0  0  0  0  0  0  0  0
  183.8890  178.2690  142.3790 C   0  0  0  0  0  3  0  0  0  0  0  0
  182.6070  178.6280  142.8060 C   0  0  0  0  0  3  0  0  0  0  0  0
  183.4550  179.0030  145.0410 C   0  0  0  0  0  3  0  0  0  0  0  0
  184.7360  178.6440  144.6150 C   0  0  0  0  0  3  0  0  0  0  0  0
  1 15  1  0  0  0  0
  2 12  1  0  0  0  0
  3 21  1  0  0  0  0
  4 13  1  0  0  0  0
  4 14  1  0  0  0  0
  5 13  2  0  0  0  0
  6  2  2  0  0  0  0
  7  9  1  0  0  0  0
  7 11  1  0  0  0  0
 10  8  2  0  0  0  0
 10 19  1  0  0  0  0
 11 14  1  6  0  0  0
 11 16  1  0  0  0  0
 12 23  1  0  0  0  0
 12  1  2  0  0  0  0
 13  7  1  0  0  0  0
 14 18  2  0  0  0  0
 15 20  1  0  0  0  0
 16  2  1  0  0  0  0
 16  3  2  0  0  0  0
 17 10  1  0  0  0  0
 18  6  1  0  0  0  0
 20 19  2  0  0  0  0
 21 17  1  0  0  0  0
 21 15  2  0  0  0  0
 22 26  1  0  0  0  0
 23 27  1  0  0  0  0
 24 25  1  0  0  0  0
 24 23  2  0  0  0  0
 25 22  2  0  0  0  0
 27 26  2  0  0  0  0
M  END
>  <MODEL>
4

>  <REMARK>
 VINA RESULT:      -9.3      2.914      5.707
  Name = 
  1 active torsions:
  status: ('A' for Active; 'I' for Inactive)
    1  A    between atoms: C_9  and  C_15
                            x       y       z     vdW  Elec       q    Type
                         _______ _______ _______ _____ _____    ______ ____

>  <TORSDO>
F 1

$$$$
=
 OpenBabel11052413493D

 27 31  0  0  1  0  0  0  0  0999 V2000
  186.2250  177.2530  145.0300 C   0  0  0  0  0  3  0  0  0  0  0  0
  186.9060  177.9990  142.7480 C   0  0  0  0  0  0  0  0  0  0  0  0
  188.9950  178.1220  144.0810 C   0  0  0  0  0  3  0  0  0  0  0  0
  189.8080  177.8810  139.5140 C   0  0  0  0  0  2  0  0  0  0  0  0
  191.9240  176.6990  139.7810 O   0  0  0  0  0  0  0  0  0  0  0  0
  186.5800  178.6120  141.4300 C   0  0  0  0  0  3  0  0  0  0  0  0
  190.4480  176.8860  141.6140 N   0  0  0  0  0  0  0  0  0  0  0  0
  190.3910  177.9360  148.4680 O   0  0  0  0  0  0  0  0  0  0  0  0
  191.0740  175.9630  142.5480 C   0  0  0  0  0  1  0  0  0  0  0  0
  189.4410  177.8210  147.6520 C   0  0  0  0  0  0  0  0  0  0  0  0
  189.1550  177.4570  141.7260 C   0  0  1  0  0  3  0  0  0  0  0  0
  185.9560  177.8780  143.7090 C   0  0  0  0  0  0  0  0  0  0  0  0
  190.8400  177.1140  140.2700 C   0  0  0  0  0  0  0  0  0  0  0  0
  188.7700  178.0190  140.5850 C   0  0  0  0  0  0  0  0  0  0  0  0
  187.3550  177.3040  145.7480 C   0  0  0  0  0  0  0  0  0  0  0  0
  188.2970  177.4200  142.9650 C   0  0  0  0  0  0  0  0  0  0  0  0
  189.4290  178.6650  146.4080 C   0  0  0  0  0  2  0  0  0  0  0  0
  187.4490  178.6280  140.4190 C   0  0  0  0  0  3  0  0  0  0  0  0
  188.3240  176.9110  147.9620 C   0  0  0  0  0  3  0  0  0  0  0  0
  187.3430  176.6890  147.0850 C   0  0  0  0  0  3  0  0  0  0  0  0
  188.5740  178.0520  145.3420 C   0  0  0  0  0  0  0  0  0  0  0  0
  181.8800  179.0550  143.0570 C   0  0  0  0  0  3  0  0  0  0  0  0
  184.5550  178.3150  143.4880 C   0  0  0  0  0  0  0  0  0  0  0  0
  183.7480  178.7300  144.5610 C   0  0  0  0  0  3  0  0  0  0  0  0
  182.4180  179.1030  144.3440 C   0  0  0  0  0  3  0  0  0  0  0  0
  182.6690  178.6280  141.9850 C   0  0  0  0  0  3  0  0  0  0  0  0
  183.9990  178.2550  142.2010 C   0  0  0  0  0  3  0  0  0  0  0  0
  1 15  1  0  0  0  0
  2 16  1  0  0  0  0
  2 12  1  0  0  0  0
  3 21  1  0  0  0  0
  4 13  1  0  0  0  0
  4 14  1  0  0  0  0
  5 13  2  0  0  0  0
  6  2  2  0  0  0  0
  7 11  1  0  0  0  0
  7  9  1  0  0  0  0
 10 19  1  0  0  0  0
 10  8  2  0  0  0  0
 11 14  1  6  0  0  0
 11 16  1  0  0  0  0
 12  1  2  0  0  0  0
 13  7  1  0  0  0  0
 15 20  1  0  0  0  0
 16  3  2  0  0  0  0
 17 10  1  0  0  0  0
 18 14  2  0  0  0  0
 18  6  1  0  0  0  0
 20 19  2  0  0  0  0
 21 15  2  0  0  0  0
 21 17  1  0  0  0  0
 22 25  1  0  0  0  0
 23 12  1  0  0  0  0
 23 24  1  0  0  0  0
 25 24  2  0  0  0  0
 26 27  1  0  0  0  0
 26 22  2  0  0  0  0
 27 23  2  0  0  0  0
M  END
>  <MODEL>
5

>  <REMARK>
 VINA RESULT:      -9.2      2.828      6.520
  Name = 
  1 active torsions:
  status: ('A' for Active; 'I' for Inactive)
    1  A    between atoms: C_9  and  C_15
                            x       y       z     vdW  Elec       q    Type
                         _______ _______ _______ _____ _____    ______ ____

>  <TORSDO>
F 1

$$$$
=
 OpenBabel11052413493D

 27 31  0  0  1  0  0  0  0  0999 V2000
  188.9270  178.6490  141.3720 C   0  0  0  0  0  3  0  0  0  0  0  0
  186.6000  178.2790  140.5480 C   0  0  1  0  0  3  0  0  0  0  0  0
  186.5070  177.6500  142.9460 C   0  0  0  0  0  3  0  0  0  0  0  0
  182.3200  178.6670  141.2090 C   0  0  0  0  0  2  0  0  0  0  0  0
  181.4580  179.5100  143.3270 O   0  0  0  0  0  0  0  0  0  0  0  0
  185.6440  177.9760  139.4460 C   0  0  0  0  0  3  0  0  0  0  0  0
  183.7770  179.1540  143.0670 N   0  0  0  0  0  0  0  0  0  0  0  0
  189.3410  176.8170  146.4820 O   0  0  0  0  0  0  0  0  0  0  0  0
  184.2770  179.7970  144.2710 C   0  0  0  0  0  1  0  0  0  0  0  0
  189.2160  177.2020  145.2910 C   0  0  0  0  0  0  0  0  0  0  0  0
  184.5450  178.7330  141.9510 C   0  0  0  0  0  0  0  0  0  0  0  0
  187.9350  178.3280  140.3120 C   0  0  0  0  0  0  0  0  0  0  0  0
  182.4320  179.1430  142.6180 C   0  0  0  0  0  0  0  0  0  0  0  0
  183.7720  178.4520  140.9060 C   0  0  0  0  0  0  0  0  0  0  0  0
  188.8750  178.3240  142.6710 C   0  0  0  0  0  0  0  0  0  0  0  0
  186.0490  178.6330  141.9220 C   0  0  0  0  0  0  0  0  0  0  0  0
  188.1230  176.6200  144.4380 C   0  0  0  0  0  2  0  0  0  0  0  0
  184.3230  178.0500  139.6110 C   0  0  0  0  0  3  0  0  0  0  0  0
  190.1840  178.1630  144.7330 C   0  0  0  0  0  3  0  0  0  0  0  0
  190.0370  178.6670  143.5060 C   0  0  0  0  0  3  0  0  0  0  0  0
  187.7860  177.5270  143.2940 C   0  0  0  0  0  0  0  0  0  0  0  0
  189.4970  177.6670  136.3690 C   0  0  0  0  0  3  0  0  0  0  0  0
  188.5020  178.1140  138.9580 C   0  0  0  0  0  0  0  0  0  0  0  0
  188.6320  179.1790  138.0500 C   0  0  0  0  0  3  0  0  0  0  0  0
  189.1320  178.9560  136.7640 C   0  0  0  0  0  3  0  0  0  0  0  0
  189.3570  176.5980  137.2590 C   0  0  0  0  0  3  0  0  0  0  0  0
  188.8570  176.8200  138.5450 C   0  0  0  0  0  3  0  0  0  0  0  0
  1 15  1  0  0  0  0
  2  6  1  6  0  0  0
  2 16  1  0  0  0  0
  3 21  1  0  0  0  0
  4 13  1  0  0  0  0
  6 18  2  0  0  0  0
  7  9  1  0  0  0  0
 10  8  2  0  0  0  0
 11  7  1  0  0  0  0
 12  2  1  0  0  0  0
 12  1  2  0  0  0  0
 13  7  1  0  0  0  0
 13  5  2  0  0  0  0
 14  4  1  0  0  0  0
 14 11  2  0  0  0  0
 15 21  2  0  0  0  0
 15 20  1  0  0  0  0
 16 11  1  0  0  0  0
 16  3  2  0  0  0  0
 17 10  1  0  0  0  0
 18 14  1  0  0  0  0
 19 10  1  0  0  0  0
 20 19  2  0  0  0  0
 21 17  1  0  0  0  0
 22 25  2  0  0  0  0
 22 26  1  0  0  0  0
 23 12  1  0  0  0  0
 24 23  2  0  0  0  0
 25 24  1  0  0  0  0
 26 27  2  0  0  0  0
 27 23  1  0  0  0  0
M  END
>  <MODEL>
6

>  <REMARK>
 VINA RESULT:      -8.6      2.351      5.793
  Name = 
  1 active torsions:
  status: ('A' for Active; 'I' for Inactive)
    1  A    between atoms: C_9  and  C_15
                            x       y       z     vdW  Elec       q    Type
                         _______ _______ _______ _____ _____    ______ ____

>  <TORSDO>
F 1

$$$$
