=
 OpenBabel11052415023D

 55 59  0  0  1  0  0  0  0  0999 V2000
  190.8730  175.5000  136.1860 C   0  0  0  0  0  2  0  0  0  0  0  0
  188.1710  175.3280  136.8900 C   0  0  2  0  0  3  0  0  0  0  0  0
  189.1130  176.2620  137.6570 C   0  0  0  0  0  2  0  0  0  0  0  0
  189.8290  174.5920  135.5370 C   0  0  0  0  0  2  0  0  0  0  0  0
  190.4930  175.7690  137.5770 N   0  0  0  0  0  0  0  0  0  0  0  0
  188.5790  175.2340  135.5460 O   0  0  0  0  0  0  0  0  0  0  0  0
  186.7690  175.9070  136.9560 C   0  0  0  0  0  2  0  0  0  0  0  0
  186.3460  176.4920  135.6220 C   0  0  2  0  0  3  0  0  0  0  0  0
  186.7330  177.9590  135.6070 C   0  0  0  0  0  1  0  0  0  0  0  0
  184.8380  176.3480  135.4660 C   0  0  0  0  0  2  0  0  0  0  0  0
  184.3770  174.9000  135.6200 C   0  0  0  0  0  2  0  0  0  0  0  0
  183.4260  174.6980  136.8030 C   0  0  2  0  0  3  0  0  0  0  0  0
  182.0690  172.8100  136.1590 O   0  0  0  0  0  1  0  0  0  0  0  0
  183.0940  173.2140  137.0140 C   0  0  1  0  0  3  0  0  0  0  0  0
  184.3100  172.3420  136.7490 C   0  0  0  0  0  1  0  0  0  0  0  0
  182.1400  175.4800  136.5430 C   0  0  0  0  0  2  0  0  0  0  0  0
  181.5320  177.8500  136.9060 C   0  0  2  0  0  3  0  0  0  0  0  0
  181.7220  175.7920  139.7170 O   0  0  0  0  0  1  0  0  0  0  0  0
  181.9610  176.5710  137.5130 N   0  0  0  0  0  0  0  0  0  0  0  0
  180.6660  180.4080  139.3010 C   0  0  0  0  0  3  0  0  0  0  0  0
  180.0640  175.3180  138.2230 O   0  0  0  0  0  1  0  0  0  0  0  0
  181.0140  176.2710  138.6100 C   0  0  0  0  0  0  0  0  0  0  0  0
  180.6840  179.4940  140.4590 C   0  0  0  0  0  3  0  0  0  0  0  0
  180.5580  178.1720  140.2950 C   0  0  0  0  0  3  0  0  0  0  0  0
  180.6720  178.4960  137.8700 N   0  0  0  0  0  0  0  0  0  0  0  0
  180.2830  177.5800  138.9300 C   0  0  1  0  0  3  0  0  0  0  0  0
  180.6850  179.9160  138.0610 C   0  0  0  0  0  3  0  0  0  0  0  0
  180.8040  177.7270  135.5550 C   0  0  0  0  0  2  0  0  0  0  0  0
  179.4330  177.5410  135.7420 O   0  0  0  0  0  1  0  0  0  0  0  0
  191.4180  176.7520  138.1590 C   0  0  0  0  0  2  0  0  0  0  0  0
  191.3870  176.8140  139.6650 C   0  0  0  0  0  3  0  0  0  0  0  0
  190.7260  177.7450  140.2720 N   0  0  0  0  0  0  0  0  0  0  0  0
  190.6930  177.7780  141.6510 O   0  0  0  0  0  0  0  0  0  0  0  0
  188.9030  176.6790  142.7810 C   0  0  0  0  0  2  0  0  0  0  0  0
  190.0460  177.6750  144.7160 C   0  0  1  0  0  3  0  0  0  0  0  0
  189.4760  178.0210  142.3670 C   0  0  1  0  0  0  0  0  0  0  0  0
  189.7320  178.7490  143.6870 C   0  0  0  0  0  2  0  0  0  0  0  0
  189.3430  176.4190  144.2110 C   0  0  0  0  0  2  0  0  0  0  0  0
  191.4920  177.4510  144.7900 N   0  0  0  0  0  0  0  0  0  0  0  0
  191.8080  177.2270  146.0890 O   0  0  0  0  0  1  0  0  0  0  0  0
  192.1000  178.6130  144.4480 O   0  0  0  0  0  1  0  0  0  0  0  0
  188.5160  178.6820  141.5660 O   0  0  0  0  0  0  0  0  0  0  0  0
  187.2570  178.0890  141.7630 C   0  0  0  0  0  2  0  0  0  0  0  0
  186.1980  179.1470  142.0810 C   0  0  1  0  0  3  0  0  0  0  0  0
  185.4460  178.7260  139.7200 C   0  0  0  0  0  1  0  0  0  0  0  0
  184.9950  179.0670  141.1320 C   0  0  0  0  0  3  0  0  0  0  0  0
  183.9960  178.0120  141.5800 C   0  0  0  0  0  1  0  0  0  0  0  0
  185.7420  179.0120  143.5330 C   0  0  0  0  0  2  0  0  0  0  0  0
  185.8520  177.5690  144.0010 C   0  0  0  0  0  2  0  0  0  0  0  0
  186.0310  177.5040  145.5090 C   0  0  0  0  0  2  0  0  0  0  0  0
  185.7540  178.8560  146.1450 C   0  0  0  0  0  2  0  0  0  0  0  0
  186.6890  179.0940  147.3160 C   0  0  0  0  0  2  0  0  0  0  0  0
  188.9140  178.3360  148.0570 C   0  0  0  0  0  2  0  0  0  0  0  0
  187.5650  177.8810  147.5420 C   0  0  0  0  0  3  0  0  0  0  0  0
  187.8920  177.7750  149.0180 C   0  0  0  0  0  2  0  0  0  0  0  0
  1  5  1  0  0  0  0
  2  7  1  6  0  0  0
  2  3  1  0  0  0  0
  4  6  1  0  0  0  0
  4  1  1  0  0  0  0
  5  3  1  0  0  0  0
  5 30  1  0  0  0  0
  6  2  1  0  0  0  0
  8  9  1  1  0  0  0
  8  7  1  0  0  0  0
 10 11  1  0  0  0  0
 10  8  1  0  0  0  0
 12 11  1  6  0  0  0
 12 14  1  0  0  0  0
 13 14  1  0  0  0  0
 14 15  1  6  0  0  0
 16 12  1  0  0  0  0
 16 19  1  0  0  0  0
 17 28  1  6  0  0  0
 17 19  1  0  0  0  0
 17 25  1  0  0  0  0
 19 22  1  0  0  0  0
 20 23  1  0  0  0  0
 21 22  1  0  0  0  0
 22 26  1  0  0  0  0
 22 18  1  0  0  0  0
 24 23  2  0  0  0  0
 25 27  1  0  0  0  0
 25 26  1  0  0  0  0
 26 24  1  1  0  0  0
 27 20  2  0  0  0  0
 28 29  1  0  0  0  0
 30 31  1  0  0  0  0
 31 32  2  0  0  0  0
 32 33  1  0  0  0  0
 33 36  1  0  0  0  0
 34 38  1  0  0  0  0
 35 39  1  6  0  0  0
 36 42  1  6  0  0  0
 36 34  1  0  0  0  0
 36 37  1  0  0  0  0
 37 35  1  0  0  0  0
 38 35  1  0  0  0  0
 39 40  1  0  0  0  0
 41 39  1  0  0  0  0
 42 43  1  0  0  0  0
 44 43  1  6  0  0  0
 44 48  1  0  0  0  0
 45 46  1  0  0  0  0
 46 47  1  0  0  0  0
 46 44  1  0  0  0  0
 48 49  1  0  0  0  0
 49 50  1  0  0  0  0
 50 51  1  0  0  0  0
 51 52  1  0  0  0  0
 52 54  1  0  0  0  0
 53 55  1  0  0  0  0
 54 53  1  0  0  0  0
 54 55  1  0  0  0  0
M  END
>  <MODEL>
1

>  <REMARK>
 VINA RESULT:      -6.2      0.000      0.000
  Name = 
  24 active torsions:
  status: ('A' for Active; 'I' for Inactive)
    1  A    between atoms: C_1  and  C_21
    2  A    between atoms: C_2  and  C_28
    3  A    between atoms: C_2  and  N_44
    4  A    between atoms: C_4  and  C_19
    5  A    between atoms: C_4  and  C_37
    6  A    between atoms: N_6  and  C_46
    7  A    between atoms: C_8  and  C_22
    8  A    between atoms: C_8  and  C_35
    9  A    between atoms: N_10  and  C_32
   10  A    between atoms: C_15  and  C_17
   11  A    between atoms: C_16  and  C_17
   12  A    between atoms: C_16  and  C_26
   13  A    between atoms: C_17  and  C_36
   14  A    between atoms: C_20  and  C_22
   15  A    between atoms: C_22  and  C_46
   16  A    between atoms: C_26  and  C_45
   17  A    between atoms: C_27  and  C_54
   18  A    between atoms: N_33  and  O_49
   19  A    between atoms: C_34  and  O_49
   20  A    between atoms: C_34  and  O_52
   21  A    between atoms: C_35  and  C_43
   22  A    between atoms: C_36  and  O_52
   23  A    between atoms: C_37  and  C_45
   24  A    between atoms: C_43  and  C_54
                            x       y       z     vdW  Elec       q    Type
                         _______ _______ _______ _____ _____    ______ ____

>  <TORSDO>
F 24

$$$$
=
 OpenBabel11052415023D

 55 59  0  0  1  0  0  0  0  0999 V2000
  187.1420  174.0890  136.7240 C   0  0  0  0  0  2  0  0  0  0  0  0
  184.3520  173.9260  136.8450 C   0  0  2  0  0  3  0  0  0  0  0  0
  185.0290  175.1120  136.1500 C   0  0  0  0  0  2  0  0  0  0  0  0
  186.3330  172.9890  137.4100 C   0  0  0  0  0  2  0  0  0  0  0  0
  186.3670  175.3340  136.7110 N   0  0  0  0  0  0  0  0  0  0  0  0
  185.1420  172.7700  136.6970 O   0  0  0  0  0  0  0  0  0  0  0  0
  182.9990  173.7030  136.1950 C   0  0  0  0  0  2  0  0  0  0  0  0
  181.8760  173.7620  137.2130 C   0  0  2  0  0  3  0  0  0  0  0  0
  180.5590  173.7850  136.4600 C   0  0  0  0  0  1  0  0  0  0  0  0
  182.0230  175.0270  138.0490 C   0  0  0  0  0  2  0  0  0  0  0  0
  180.8060  175.2760  138.9370 C   0  0  0  0  0  2  0  0  0  0  0  0
  180.5060  176.7640  139.1350 C   0  0  2  0  0  3  0  0  0  0  0  0
  179.0650  178.5280  138.3370 O   0  0  0  0  0  1  0  0  0  0  0  0
  179.6870  177.3360  137.9680 C   0  0  1  0  0  3  0  0  0  0  0  0
  180.5740  177.6110  136.7650 C   0  0  0  0  0  1  0  0  0  0  0  0
  181.8260  177.5240  139.2540 C   0  0  0  0  0  2  0  0  0  0  0  0
  183.7210  177.8490  140.8100 C   0  0  2  0  0  3  0  0  0  0  0  0
  180.5010  178.1270  142.1220 O   0  0  0  0  0  1  0  0  0  0  0  0
  182.2670  177.6320  140.6530 N   0  0  0  0  0  0  0  0  0  0  0  0
  184.7570  178.5530  144.1950 C   0  0  0  0  0  3  0  0  0  0  0  0
  181.1210  179.7190  140.6110 O   0  0  0  0  0  1  0  0  0  0  0  0
  181.5830  178.6860  141.4350 C   0  0  0  0  0  0  0  0  0  0  0  0
  183.3830  178.7350  144.7010 C   0  0  0  0  0  3  0  0  0  0  0  0
  182.3740  179.0170  143.8690 C   0  0  0  0  0  3  0  0  0  0  0  0
  183.8900  178.6870  141.9740 N   0  0  0  0  0  0  0  0  0  0  0  0
  182.6250  179.2650  142.3980 C   0  0  1  0  0  3  0  0  0  0  0  0
  184.9840  178.5070  142.8810 C   0  0  0  0  0  3  0  0  0  0  0  0
  184.4270  178.4870  139.5990 C   0  0  0  0  0  2  0  0  0  0  0  0
  184.5530  179.8680  139.7660 O   0  0  0  0  0  1  0  0  0  0  0  0
  187.0830  176.3540  135.9310 C   0  0  0  0  0  2  0  0  0  0  0  0
  188.5840  176.2780  136.0440 C   0  0  0  0  0  3  0  0  0  0  0  0
  189.2450  177.2010  136.6630 N   0  0  0  0  0  0  0  0  0  0  0  0
  190.6170  177.1080  136.7720 O   0  0  0  0  0  0  0  0  0  0  0  0
  190.8060  175.2960  138.3120 C   0  0  0  0  0  2  0  0  0  0  0  0
  193.0540  175.2140  137.3210 C   0  0  1  0  0  3  0  0  0  0  0  0
  191.2480  176.7120  137.9970 C   0  0  1  0  0  0  0  0  0  0  0  0
  192.7660  176.6120  137.8440 C   0  0  0  0  0  2  0  0  0  0  0  0
  191.8850  174.3580  137.8000 C   0  0  0  0  0  2  0  0  0  0  0  0
  193.1080  175.2210  135.8570 N   0  0  0  0  0  0  0  0  0  0  0  0
  192.1490  174.3760  135.4050 O   0  0  0  0  0  1  0  0  0  0  0  0
  194.2940  174.6770  135.4920 O   0  0  0  0  0  1  0  0  0  0  0  0
  190.8710  177.5440  139.0760 O   0  0  0  0  0  0  0  0  0  0  0  0
  191.2250  176.9230  140.2880 C   0  0  0  0  0  2  0  0  0  0  0  0
  190.3910  177.4710  141.4470 C   0  0  1  0  0  3  0  0  0  0  0  0
  188.2240  176.8060  142.5330 C   0  0  0  0  0  1  0  0  0  0  0  0
  188.8880  177.2440  141.2370 C   0  0  0  0  0  3  0  0  0  0  0  0
  188.1940  178.5060  140.7490 C   0  0  0  0  0  1  0  0  0  0  0  0
  190.8470  176.8420  142.7630 C   0  0  0  0  0  2  0  0  0  0  0  0
  191.4270  177.8970  143.6920 C   0  0  0  0  0  2  0  0  0  0  0  0
  191.4040  177.4160  145.1340 C   0  0  0  0  0  2  0  0  0  0  0  0
  190.1020  176.6980  145.4440 C   0  0  0  0  0  2  0  0  0  0  0  0
  189.0940  177.6600  146.0430 C   0  0  0  0  0  2  0  0  0  0  0  0
  189.2050  178.3150  148.4160 C   0  0  0  0  0  2  0  0  0  0  0  0
  188.7440  177.2410  147.4540 C   0  0  0  0  0  3  0  0  0  0  0  0
  187.7470  178.2260  148.0300 C   0  0  0  0  0  2  0  0  0  0  0  0
  1  4  1  0  0  0  0
  2  7  1  6  0  0  0
  3  5  1  0  0  0  0
  3  2  1  0  0  0  0
  5  1  1  0  0  0  0
  6  2  1  0  0  0  0
  6  4  1  0  0  0  0
  7  8  1  0  0  0  0
  8  9  1  6  0  0  0
  8 10  1  0  0  0  0
 10 11  1  0  0  0  0
 12 11  1  6  0  0  0
 12 16  1  0  0  0  0
 14 15  1  6  0  0  0
 14 13  1  0  0  0  0
 14 12  1  0  0  0  0
 16 19  1  0  0  0  0
 17 28  1  6  0  0  0
 17 25  1  0  0  0  0
 19 17  1  0  0  0  0
 19 22  1  0  0  0  0
 20 23  1  0  0  0  0
 21 22  1  0  0  0  0
 22 18  1  0  0  0  0
 22 26  1  0  0  0  0
 24 23  2  0  0  0  0
 25 26  1  0  0  0  0
 25 27  1  0  0  0  0
 26 24  1  1  0  0  0
 27 20  2  0  0  0  0
 28 29  1  0  0  0  0
 30 31  1  0  0  0  0
 30  5  1  0  0  0  0
 31 32  2  0  0  0  0
 32 33  1  0  0  0  0
 35 39  1  6  0  0  0
 35 38  1  0  0  0  0
 35 37  1  0  0  0  0
 36 33  1  6  0  0  0
 36 34  1  0  0  0  0
 36 42  1  0  0  0  0
 37 36  1  0  0  0  0
 38 34  1  0  0  0  0
 40 39  1  0  0  0  0
 41 39  1  0  0  0  0
 42 43  1  0  0  0  0
 44 43  1  6  0  0  0
 44 48  1  0  0  0  0
 46 44  1  0  0  0  0
 46 45  1  0  0  0  0
 47 46  1  0  0  0  0
 48 49  1  0  0  0  0
 49 50  1  0  0  0  0
 50 51  1  0  0  0  0
 51 52  1  0  0  0  0
 52 54  1  0  0  0  0
 54 55  1  0  0  0  0
 54 53  1  0  0  0  0
 55 53  1  0  0  0  0
M  END
>  <MODEL>
2

>  <REMARK>
 VINA RESULT:      -6.2      2.528      5.384
  Name = 
  24 active torsions:
  status: ('A' for Active; 'I' for Inactive)
    1  A    between atoms: C_1  and  C_21
    2  A    between atoms: C_2  and  C_28
    3  A    between atoms: C_2  and  N_44
    4  A    between atoms: C_4  and  C_19
    5  A    between atoms: C_4  and  C_37
    6  A    between atoms: N_6  and  C_46
    7  A    between atoms: C_8  and  C_22
    8  A    between atoms: C_8  and  C_35
    9  A    between atoms: N_10  and  C_32
   10  A    between atoms: C_15  and  C_17
   11  A    between atoms: C_16  and  C_17
   12  A    between atoms: C_16  and  C_26
   13  A    between atoms: C_17  and  C_36
   14  A    between atoms: C_20  and  C_22
   15  A    between atoms: C_22  and  C_46
   16  A    between atoms: C_26  and  C_45
   17  A    between atoms: C_27  and  C_54
   18  A    between atoms: N_33  and  O_49
   19  A    between atoms: C_34  and  O_49
   20  A    between atoms: C_34  and  O_52
   21  A    between atoms: C_35  and  C_43
   22  A    between atoms: C_36  and  O_52
   23  A    between atoms: C_37  and  C_45
   24  A    between atoms: C_43  and  C_54
                            x       y       z     vdW  Elec       q    Type
                         _______ _______ _______ _____ _____    ______ ____

>  <TORSDO>
F 24

$$$$
=
 OpenBabel11052415023D

 55 59  0  0  1  0  0  0  0  0999 V2000
  192.0730  176.5440  137.3810 C   0  0  0  0  0  2  0  0  0  0  0  0
  189.3720  175.8660  137.6520 C   0  0  2  0  0  3  0  0  0  0  0  0
  190.0920  176.6360  138.7640 C   0  0  0  0  0  2  0  0  0  0  0  0
  191.2370  175.7510  136.3760 C   0  0  0  0  0  2  0  0  0  0  0  0
  191.5310  176.3500  138.7300 N   0  0  0  0  0  0  0  0  0  0  0  0
  189.9110  176.2160  136.4000 O   0  0  0  0  0  0  0  0  0  0  0  0
  187.9000  176.2370  137.6930 C   0  0  0  0  0  2  0  0  0  0  0  0
  187.4500  176.8670  136.3890 C   0  0  2  0  0  3  0  0  0  0  0  0
  187.5840  178.3730  136.5240 C   0  0  0  0  0  1  0  0  0  0  0  0
  185.9970  176.4940  136.1270 C   0  0  0  0  0  2  0  0  0  0  0  0
  185.7930  174.9820  136.0520 C   0  0  0  0  0  2  0  0  0  0  0  0
  184.8340  174.4550  137.1230 C   0  0  2  0  0  3  0  0  0  0  0  0
  184.4560  172.0970  136.7760 O   0  0  0  0  0  1  0  0  0  0  0  0
  185.1810  173.0170  137.5340 C   0  0  1  0  0  3  0  0  0  0  0  0
  186.6620  172.7380  137.3370 C   0  0  0  0  0  1  0  0  0  0  0  0
  183.4080  174.5030  136.5780 C   0  0  0  0  0  2  0  0  0  0  0  0
  182.1760  175.8240  138.2680 C   0  0  2  0  0  3  0  0  0  0  0  0
  181.0320  172.5950  137.6080 O   0  0  0  0  0  1  0  0  0  0  0  0
  182.4120  174.4970  137.6600 N   0  0  0  0  0  0  0  0  0  0  0  0
  179.4320  175.9150  140.6110 C   0  0  0  0  0  3  0  0  0  0  0  0
  180.8500  174.1030  135.9060 O   0  0  0  0  0  1  0  0  0  0  0  0
  181.0890  173.9530  137.2770 C   0  0  0  0  0  0  0  0  0  0  0  0
  178.9320  174.5730  140.2550 C   0  0  0  0  0  3  0  0  0  0  0  0
  179.2490  174.0070  139.0860 C   0  0  0  0  0  3  0  0  0  0  0  0
  180.7810  175.8660  138.6410 N   0  0  0  0  0  0  0  0  0  0  0  0
  180.0410  174.7660  138.0440 C   0  0  1  0  0  3  0  0  0  0  0  0
  180.3400  176.5150  139.8390 C   0  0  0  0  0  3  0  0  0  0  0  0
  182.5130  177.0290  137.3700 C   0  0  0  0  0  2  0  0  0  0  0  0
  182.8090  178.1570  138.1390 O   0  0  0  0  0  1  0  0  0  0  0  0
  192.2450  177.2180  139.6780 C   0  0  0  0  0  2  0  0  0  0  0  0
  191.9560  176.9210  141.1270 C   0  0  0  0  0  3  0  0  0  0  0  0
  191.5160  177.8480  141.9140 N   0  0  0  0  0  0  0  0  0  0  0  0
  191.2400  177.5560  143.2340 O   0  0  0  0  0  0  0  0  0  0  0  0
  189.3060  176.5230  144.1710 C   0  0  0  0  0  2  0  0  0  0  0  0
  190.2670  177.4980  146.2130 C   0  0  1  0  0  3  0  0  0  0  0  0
  189.9620  177.8430  143.8150 C   0  0  1  0  0  0  0  0  0  0  0  0
  190.0990  178.5730  145.1510 C   0  0  0  0  0  2  0  0  0  0  0  0
  189.5820  176.2600  145.6410 C   0  0  0  0  0  2  0  0  0  0  0  0
  191.6890  177.2290  146.4420 N   0  0  0  0  0  0  0  0  0  0  0  0
  191.9530  175.9840  145.9760 O   0  0  0  0  0  1  0  0  0  0  0  0
  191.8810  177.1800  147.7820 O   0  0  0  0  0  1  0  0  0  0  0  0
  189.1150  178.5280  142.9130 O   0  0  0  0  0  0  0  0  0  0  0  0
  187.9490  177.7700  142.7030 C   0  0  0  0  0  2  0  0  0  0  0  0
  186.7090  178.6650  142.6970 C   0  0  1  0  0  3  0  0  0  0  0  0
  187.2280  178.4580  140.2460 C   0  0  0  0  0  1  0  0  0  0  0  0
  186.2650  179.0320  141.2740 C   0  0  0  0  0  3  0  0  0  0  0  0
  184.8720  178.5060  140.9680 C   0  0  0  0  0  1  0  0  0  0  0  0
  185.5680  177.9870  143.4530 C   0  0  0  0  0  2  0  0  0  0  0  0
  185.3440  178.6530  144.8020 C   0  0  0  0  0  2  0  0  0  0  0  0
  183.8700  178.9580  145.0130 C   0  0  0  0  0  2  0  0  0  0  0  0
  183.1570  179.1270  143.6820 C   0  0  0  0  0  2  0  0  0  0  0  0
  181.8250  178.3990  143.6960 C   0  0  0  0  0  2  0  0  0  0  0  0
  179.5480  178.8620  142.8760 C   0  0  0  0  0  2  0  0  0  0  0  0
  180.6860  179.3940  143.7210 C   0  0  0  0  0  3  0  0  0  0  0  0
  179.4820  178.7500  144.3820 C   0  0  0  0  0  2  0  0  0  0  0  0
  1  5  1  0  0  0  0
  2  7  1  6  0  0  0
  2  3  1  0  0  0  0
  4  6  1  0  0  0  0
  4  1  1  0  0  0  0
  5  3  1  0  0  0  0
  5 30  1  0  0  0  0
  6  2  1  0  0  0  0
  8  9  1  1  0  0  0
  8  7  1  0  0  0  0
 10  8  1  0  0  0  0
 11 10  1  0  0  0  0
 12 11  1  6  0  0  0
 12 14  1  0  0  0  0
 13 14  1  0  0  0  0
 14 15  1  6  0  0  0
 16 12  1  0  0  0  0
 16 19  1  0  0  0  0
 17 28  1  6  0  0  0
 17 25  1  0  0  0  0
 19 17  1  0  0  0  0
 21 22  1  0  0  0  0
 22 18  1  0  0  0  0
 22 19  1  0  0  0  0
 22 26  1  0  0  0  0
 23 20  1  0  0  0  0
 24 23  2  0  0  0  0
 25 27  1  0  0  0  0
 26 25  1  0  0  0  0
 26 24  1  1  0  0  0
 27 20  2  0  0  0  0
 28 29  1  0  0  0  0
 30 31  1  0  0  0  0
 31 32  2  0  0  0  0
 32 33  1  0  0  0  0
 33 36  1  0  0  0  0
 34 38  1  0  0  0  0
 35 39  1  6  0  0  0
 36 42  1  6  0  0  0
 36 34  1  0  0  0  0
 36 37  1  0  0  0  0
 37 35  1  0  0  0  0
 38 35  1  0  0  0  0
 39 41  1  0  0  0  0
 40 39  1  0  0  0  0
 43 42  1  0  0  0  0
 44 43  1  6  0  0  0
 44 48  1  0  0  0  0
 45 46  1  0  0  0  0
 46 44  1  0  0  0  0
 47 46  1  0  0  0  0
 48 49  1  0  0  0  0
 49 50  1  0  0  0  0
 51 52  1  0  0  0  0
 51 50  1  0  0  0  0
 52 54  1  0  0  0  0
 53 54  1  0  0  0  0
 53 55  1  0  0  0  0
 54 55  1  0  0  0  0
M  END
>  <MODEL>
3

>  <REMARK>
 VINA RESULT:      -5.7      1.879      3.309
  Name = 
  24 active torsions:
  status: ('A' for Active; 'I' for Inactive)
    1  A    between atoms: C_1  and  C_21
    2  A    between atoms: C_2  and  C_28
    3  A    between atoms: C_2  and  N_44
    4  A    between atoms: C_4  and  C_19
    5  A    between atoms: C_4  and  C_37
    6  A    between atoms: N_6  and  C_46
    7  A    between atoms: C_8  and  C_22
    8  A    between atoms: C_8  and  C_35
    9  A    between atoms: N_10  and  C_32
   10  A    between atoms: C_15  and  C_17
   11  A    between atoms: C_16  and  C_17
   12  A    between atoms: C_16  and  C_26
   13  A    between atoms: C_17  and  C_36
   14  A    between atoms: C_20  and  C_22
   15  A    between atoms: C_22  and  C_46
   16  A    between atoms: C_26  and  C_45
   17  A    between atoms: C_27  and  C_54
   18  A    between atoms: N_33  and  O_49
   19  A    between atoms: C_34  and  O_49
   20  A    between atoms: C_34  and  O_52
   21  A    between atoms: C_35  and  C_43
   22  A    between atoms: C_36  and  O_52
   23  A    between atoms: C_37  and  C_45
   24  A    between atoms: C_43  and  C_54
                            x       y       z     vdW  Elec       q    Type
                         _______ _______ _______ _____ _____    ______ ____

>  <TORSDO>
F 24

$$$$
=
 OpenBabel11052415023D

 55 59  0  0  1  0  0  0  0  0999 V2000
  192.1510  176.5070  137.1700 C   0  0  0  0  0  2  0  0  0  0  0  0
  189.4730  175.7430  137.4350 C   0  0  2  0  0  3  0  0  0  0  0  0
  190.1480  176.5870  138.5200 C   0  0  0  0  0  2  0  0  0  0  0  0
  191.3600  175.6410  136.1900 C   0  0  0  0  0  2  0  0  0  0  0  0
  191.5970  176.3530  138.5190 N   0  0  0  0  0  0  0  0  0  0  0  0
  190.0180  176.0570  136.1750 O   0  0  0  0  0  0  0  0  0  0  0  0
  187.9880  176.0600  137.4390 C   0  0  0  0  0  2  0  0  0  0  0  0
  187.5440  176.6560  136.1170 C   0  0  2  0  0  3  0  0  0  0  0  0
  187.6350  178.1670  136.2270 C   0  0  0  0  0  1  0  0  0  0  0  0
  186.1050  176.2390  135.8370 C   0  0  0  0  0  2  0  0  0  0  0  0
  185.9380  174.7210  135.8130 C   0  0  0  0  0  2  0  0  0  0  0  0
  184.9750  174.2100  136.8870 C   0  0  2  0  0  3  0  0  0  0  0  0
  184.6620  171.8310  136.6230 O   0  0  0  0  0  1  0  0  0  0  0  0
  185.3510  172.7970  137.3570 C   0  0  1  0  0  3  0  0  0  0  0  0
  186.8410  172.5490  137.1930 C   0  0  0  0  0  1  0  0  0  0  0  0
  183.5580  174.2000  136.3170 C   0  0  0  0  0  2  0  0  0  0  0  0
  182.2370  175.5860  137.8830 C   0  0  2  0  0  3  0  0  0  0  0  0
  181.2510  172.2680  137.4540 O   0  0  0  0  0  1  0  0  0  0  0  0
  182.5430  174.2290  137.3820 N   0  0  0  0  0  0  0  0  0  0  0  0
  179.4500  175.7260  140.1730 C   0  0  0  0  0  3  0  0  0  0  0  0
  181.0330  173.6330  135.6400 O   0  0  0  0  0  1  0  0  0  0  0  0
  181.2540  173.5970  137.0220 C   0  0  0  0  0  0  0  0  0  0  0  0
  179.0170  174.3400  139.9130 C   0  0  0  0  0  3  0  0  0  0  0  0
  179.3800  173.7020  138.7940 C   0  0  0  0  0  3  0  0  0  0  0  0
  180.8350  175.5910  138.2320 N   0  0  0  0  0  0  0  0  0  0  0  0
  180.1560  174.4170  137.7090 C   0  0  1  0  0  3  0  0  0  0  0  0
  180.3430  176.3080  139.3710 C   0  0  0  0  0  3  0  0  0  0  0  0
  182.5350  176.7340  136.9020 C   0  0  0  0  0  2  0  0  0  0  0  0
  182.7790  177.9270  137.5870 O   0  0  0  0  0  1  0  0  0  0  0  0
  192.2640  177.2870  139.4370 C   0  0  0  0  0  2  0  0  0  0  0  0
  192.0360  176.9900  140.8960 C   0  0  0  0  0  3  0  0  0  0  0  0
  191.5420  177.8900  141.6820 N   0  0  0  0  0  0  0  0  0  0  0  0
  191.3240  177.5970  143.0130 O   0  0  0  0  0  0  0  0  0  0  0  0
  189.4460  176.4260  143.9020 C   0  0  0  0  0  2  0  0  0  0  0  0
  190.3930  177.3090  145.9920 C   0  0  1  0  0  3  0  0  0  0  0  0
  190.0420  177.7920  143.6250 C   0  0  1  0  0  0  0  0  0  0  0  0
  190.1670  178.4410  145.0030 C   0  0  0  0  0  2  0  0  0  0  0  0
  189.7520  176.0820  145.3500 C   0  0  0  0  0  2  0  0  0  0  0  0
  191.8270  177.0860  146.1890 N   0  0  0  0  0  0  0  0  0  0  0  0
  192.1160  175.8400  145.7380 O   0  0  0  0  0  1  0  0  0  0  0  0
  192.0550  177.0660  147.5250 O   0  0  0  0  0  1  0  0  0  0  0  0
  189.1560  178.4960  142.7770 O   0  0  0  0  0  0  0  0  0  0  0  0
  187.9650  177.7630  142.6370 C   0  0  0  0  0  2  0  0  0  0  0  0
  186.7750  178.6940  142.3930 C   0  0  1  0  0  3  0  0  0  0  0  0
  187.6640  178.3430  140.0680 C   0  0  0  0  0  1  0  0  0  0  0  0
  186.6060  179.0410  140.9070 C   0  0  0  0  0  3  0  0  0  0  0  0
  185.2370  178.6280  140.3880 C   0  0  0  0  0  1  0  0  0  0  0  0
  185.4970  178.0660  142.9440 C   0  0  0  0  0  2  0  0  0  0  0  0
  184.7010  179.0800  143.7500 C   0  0  0  0  0  2  0  0  0  0  0  0
  185.2860  179.2380  145.1440 C   0  0  0  0  0  2  0  0  0  0  0  0
  185.6640  177.8870  145.7280 C   0  0  0  0  0  2  0  0  0  0  0  0
  187.0430  177.9470  146.3570 C   0  0  0  0  0  2  0  0  0  0  0  0
  187.9440  177.1410  148.5060 C   0  0  0  0  0  2  0  0  0  0  0  0
  186.9280  178.0610  147.8610 C   0  0  0  0  0  3  0  0  0  0  0  0
  188.2220  178.6240  148.4150 C   0  0  0  0  0  2  0  0  0  0  0  0
  1  5  1  0  0  0  0
  2  7  1  6  0  0  0
  2  3  1  0  0  0  0
  4  1  1  0  0  0  0
  5  3  1  0  0  0  0
  5 30  1  0  0  0  0
  6  4  1  0  0  0  0
  6  2  1  0  0  0  0
  8  9  1  1  0  0  0
  8  7  1  0  0  0  0
 10  8  1  0  0  0  0
 11 10  1  0  0  0  0
 12 11  1  6  0  0  0
 12 14  1  0  0  0  0
 13 14  1  0  0  0  0
 14 15  1  6  0  0  0
 16 12  1  0  0  0  0
 16 19  1  0  0  0  0
 17 28  1  6  0  0  0
 17 25  1  0  0  0  0
 19 17  1  0  0  0  0
 21 22  1  0  0  0  0
 22 19  1  0  0  0  0
 22 18  1  0  0  0  0
 22 26  1  0  0  0  0
 23 20  1  0  0  0  0
 24 23  2  0  0  0  0
 25 27  1  0  0  0  0
 26 25  1  0  0  0  0
 26 24  1  1  0  0  0
 27 20  2  0  0  0  0
 28 29  1  0  0  0  0
 30 31  1  0  0  0  0
 31 32  2  0  0  0  0
 32 33  1  0  0  0  0
 33 36  1  0  0  0  0
 34 38  1  0  0  0  0
 35 39  1  6  0  0  0
 36 42  1  6  0  0  0
 36 34  1  0  0  0  0
 36 37  1  0  0  0  0
 37 35  1  0  0  0  0
 38 35  1  0  0  0  0
 39 41  1  0  0  0  0
 40 39  1  0  0  0  0
 43 42  1  0  0  0  0
 44 43  1  6  0  0  0
 44 48  1  0  0  0  0
 45 46  1  0  0  0  0
 46 44  1  0  0  0  0
 47 46  1  0  0  0  0
 48 49  1  0  0  0  0
 49 50  1  0  0  0  0
 50 51  1  0  0  0  0
 51 52  1  0  0  0  0
 52 54  1  0  0  0  0
 54 55  1  0  0  0  0
 54 53  1  0  0  0  0
 55 53  1  0  0  0  0
M  END
>  <MODEL>
4

>  <REMARK>
 VINA RESULT:      -5.7      1.743      2.343
  Name = 
  24 active torsions:
  status: ('A' for Active; 'I' for Inactive)
    1  A    between atoms: C_1  and  C_21
    2  A    between atoms: C_2  and  C_28
    3  A    between atoms: C_2  and  N_44
    4  A    between atoms: C_4  and  C_19
    5  A    between atoms: C_4  and  C_37
    6  A    between atoms: N_6  and  C_46
    7  A    between atoms: C_8  and  C_22
    8  A    between atoms: C_8  and  C_35
    9  A    between atoms: N_10  and  C_32
   10  A    between atoms: C_15  and  C_17
   11  A    between atoms: C_16  and  C_17
   12  A    between atoms: C_16  and  C_26
   13  A    between atoms: C_17  and  C_36
   14  A    between atoms: C_20  and  C_22
   15  A    between atoms: C_22  and  C_46
   16  A    between atoms: C_26  and  C_45
   17  A    between atoms: C_27  and  C_54
   18  A    between atoms: N_33  and  O_49
   19  A    between atoms: C_34  and  O_49
   20  A    between atoms: C_34  and  O_52
   21  A    between atoms: C_35  and  C_43
   22  A    between atoms: C_36  and  O_52
   23  A    between atoms: C_37  and  C_45
   24  A    between atoms: C_43  and  C_54
                            x       y       z     vdW  Elec       q    Type
                         _______ _______ _______ _____ _____    ______ ____

>  <TORSDO>
F 24

$$$$
=
 OpenBabel11052415023D

 55 59  0  0  1  0  0  0  0  0999 V2000
  184.0670  178.6080  140.9500 C   0  0  0  0  0  2  0  0  0  0  0  0
  181.3930  179.3140  140.5270 C   0  0  2  0  0  3  0  0  0  0  0  0
  182.3990  179.3610  139.3720 C   0  0  0  0  0  2  0  0  0  0  0  0
  182.9660  178.6430  142.0090 C   0  0  0  0  0  2  0  0  0  0  0  0
  183.7570  179.5700  139.8880 N   0  0  0  0  0  0  0  0  0  0  0  0
  181.7410  178.2850  141.4230 O   0  0  0  0  0  0  0  0  0  0  0  0
  180.0160  179.0420  139.9490 C   0  0  0  0  0  2  0  0  0  0  0  0
  180.0120  179.1740  138.4380 C   0  0  2  0  0  3  0  0  0  0  0  0
  179.1100  180.3380  138.0710 C   0  0  0  0  0  1  0  0  0  0  0  0
  179.4790  177.8870  137.8230 C   0  0  0  0  0  2  0  0  0  0  0  0
  178.9340  176.9250  138.8770 C   0  0  0  0  0  2  0  0  0  0  0  0
  179.2610  175.4600  138.5750 C   0  0  2  0  0  3  0  0  0  0  0  0
  181.1440  175.6870  140.0660 O   0  0  0  0  0  1  0  0  0  0  0  0
  180.1110  174.8300  139.6870 C   0  0  1  0  0  3  0  0  0  0  0  0
  179.2650  174.5290  140.9140 C   0  0  0  0  0  1  0  0  0  0  0  0
  180.0150  175.3850  137.2490 C   0  0  0  0  0  2  0  0  0  0  0  0
  181.5370  173.4380  137.1490 C   0  0  2  0  0  3  0  0  0  0  0  0
  182.9890  176.5990  137.4130 O   0  0  0  0  0  1  0  0  0  0  0  0
  181.3850  174.8820  137.4300 N   0  0  0  0  0  0  0  0  0  0  0  0
  184.9560  172.2790  137.1600 C   0  0  0  0  0  3  0  0  0  0  0  0
  181.8640  176.1580  135.4780 O   0  0  0  0  0  1  0  0  0  0  0  0
  182.4120  175.5910  136.6340 C   0  0  0  0  0  0  0  0  0  0  0  0
  185.5380  173.6350  137.1980 C   0  0  0  0  0  3  0  0  0  0  0  0
  184.8280  174.7010  136.8090 C   0  0  0  0  0  3  0  0  0  0  0  0
  182.8570  173.2640  136.5870 N   0  0  0  0  0  0  0  0  0  0  0  0
  183.4460  174.5400  136.2150 C   0  0  1  0  0  3  0  0  0  0  0  0
  183.6600  172.1170  136.8880 C   0  0  0  0  0  3  0  0  0  0  0  0
  180.4830  172.8360  136.2020 C   0  0  0  0  0  2  0  0  0  0  0  0
  179.6850  171.9060  136.8710 O   0  0  0  0  0  1  0  0  0  0  0  0
  184.7390  179.4400  138.8010 C   0  0  0  0  0  2  0  0  0  0  0  0
  185.8020  178.4020  139.0500 C   0  0  0  0  0  3  0  0  0  0  0  0
  186.4640  177.8880  138.0650 N   0  0  0  0  0  0  0  0  0  0  0  0
  187.4470  176.9520  138.3110 O   0  0  0  0  0  0  0  0  0  0  0  0
  189.6830  176.1310  138.4370 C   0  0  0  0  0  2  0  0  0  0  0  0
  189.9090  177.6120  136.4880 C   0  0  1  0  0  3  0  0  0  0  0  0
  188.7880  177.3380  138.6390 C   0  0  1  0  0  0  0  0  0  0  0  0
  189.3290  178.3830  137.6630 C   0  0  0  0  0  2  0  0  0  0  0  0
  190.3030  176.2520  137.0560 C   0  0  0  0  0  2  0  0  0  0  0  0
  188.8990  177.4490  135.4400 N   0  0  0  0  0  0  0  0  0  0  0  0
  187.8850  178.3080  135.7080 O   0  0  0  0  0  1  0  0  0  0  0  0
  188.3820  176.2030  135.5660 O   0  0  0  0  0  1  0  0  0  0  0  0
  188.9020  177.7520  139.9860 O   0  0  0  0  0  0  0  0  0  0  0  0
  189.7290  176.8510  140.6810 C   0  0  0  0  0  2  0  0  0  0  0  0
  189.4220  176.8710  142.1790 C   0  0  1  0  0  3  0  0  0  0  0  0
  190.2390  178.7090  143.6880 C   0  0  0  0  0  1  0  0  0  0  0  0
  190.6020  177.3990  143.0060 C   0  0  0  0  0  3  0  0  0  0  0  0
  191.0260  176.4060  144.0770 C   0  0  0  0  0  1  0  0  0  0  0  0
  188.1690  177.7040  142.4470 C   0  0  0  0  0  2  0  0  0  0  0  0
  187.3190  177.0650  143.5350 C   0  0  0  0  0  2  0  0  0  0  0  0
  186.2140  178.0100  143.9780 C   0  0  0  0  0  2  0  0  0  0  0  0
  186.3070  178.2900  145.4680 C   0  0  0  0  0  2  0  0  0  0  0  0
  187.1740  177.2490  146.1510 C   0  0  0  0  0  2  0  0  0  0  0  0
  188.3870  177.5690  148.2730 C   0  0  0  0  0  2  0  0  0  0  0  0
  188.3720  177.9090  146.7970 C   0  0  0  0  0  3  0  0  0  0  0  0
  189.3050  176.8350  147.3220 C   0  0  0  0  0  2  0  0  0  0  0  0
  1  4  1  0  0  0  0
  2  7  1  6  0  0  0
  2  6  1  0  0  0  0
  3  5  1  0  0  0  0
  3  2  1  0  0  0  0
  5  1  1  0  0  0  0
  6  4  1  0  0  0  0
  8  9  1  1  0  0  0
  8  7  1  0  0  0  0
 10  8  1  0  0  0  0
 10 11  1  0  0  0  0
 12 16  1  6  0  0  0
 12 11  1  0  0  0  0
 12 14  1  0  0  0  0
 14 13  1  0  0  0  0
 14 15  1  1  0  0  0
 16 19  1  0  0  0  0
 17 28  1  6  0  0  0
 17 19  1  0  0  0  0
 20 23  1  0  0  0  0
 21 22  1  0  0  0  0
 22 18  1  0  0  0  0
 22 19  1  0  0  0  0
 24 23  2  0  0  0  0
 25 27  1  0  0  0  0
 25 17  1  0  0  0  0
 26 25  1  0  0  0  0
 26 22  1  0  0  0  0
 26 24  1  1  0  0  0
 27 20  2  0  0  0  0
 28 29  1  0  0  0  0
 30 31  1  0  0  0  0
 30  5  1  0  0  0  0
 32 33  1  0  0  0  0
 32 31  2  0  0  0  0
 34 36  1  0  0  0  0
 35 39  1  6  0  0  0
 35 38  1  0  0  0  0
 35 37  1  0  0  0  0
 36 33  1  6  0  0  0
 36 42  1  0  0  0  0
 37 36  1  0  0  0  0
 38 34  1  0  0  0  0
 39 41  1  0  0  0  0
 39 40  1  0  0  0  0
 42 43  1  0  0  0  0
 44 43  1  6  0  0  0
 44 48  1  0  0  0  0
 44 46  1  0  0  0  0
 46 45  1  0  0  0  0
 46 47  1  0  0  0  0
 48 49  1  0  0  0  0
 49 50  1  0  0  0  0
 50 51  1  0  0  0  0
 51 52  1  0  0  0  0
 52 54  1  0  0  0  0
 54 55  1  0  0  0  0
 54 53  1  0  0  0  0
 55 53  1  0  0  0  0
M  END
>  <MODEL>
5

>  <REMARK>
 VINA RESULT:      -5.6      2.447      6.219
  Name = 
  24 active torsions:
  status: ('A' for Active; 'I' for Inactive)
    1  A    between atoms: C_1  and  C_21
    2  A    between atoms: C_2  and  C_28
    3  A    between atoms: C_2  and  N_44
    4  A    between atoms: C_4  and  C_19
    5  A    between atoms: C_4  and  C_37
    6  A    between atoms: N_6  and  C_46
    7  A    between atoms: C_8  and  C_22
    8  A    between atoms: C_8  and  C_35
    9  A    between atoms: N_10  and  C_32
   10  A    between atoms: C_15  and  C_17
   11  A    between atoms: C_16  and  C_17
   12  A    between atoms: C_16  and  C_26
   13  A    between atoms: C_17  and  C_36
   14  A    between atoms: C_20  and  C_22
   15  A    between atoms: C_22  and  C_46
   16  A    between atoms: C_26  and  C_45
   17  A    between atoms: C_27  and  C_54
   18  A    between atoms: N_33  and  O_49
   19  A    between atoms: C_34  and  O_49
   20  A    between atoms: C_34  and  O_52
   21  A    between atoms: C_35  and  C_43
   22  A    between atoms: C_36  and  O_52
   23  A    between atoms: C_37  and  C_45
   24  A    between atoms: C_43  and  C_54
                            x       y       z     vdW  Elec       q    Type
                         _______ _______ _______ _____ _____    ______ ____

>  <TORSDO>
F 24

$$$$
=
 OpenBabel11052415023D

 55 59  0  0  1  0  0  0  0  0999 V2000
  183.9170  178.7310  144.4990 C   0  0  0  0  0  2  0  0  0  0  0  0
  182.6130  178.8620  142.0270 C   0  0  2  0  0  3  0  0  0  0  0  0
  183.9440  178.1160  142.1610 C   0  0  0  0  0  2  0  0  0  0  0  0
  182.6080  179.4660  144.2080 C   0  0  0  0  0  2  0  0  0  0  0  0
  184.7250  178.6650  143.2760 N   0  0  0  0  0  0  0  0  0  0  0  0
  181.8850  178.7640  143.2280 O   0  0  0  0  0  0  0  0  0  0  0  0
  181.8210  178.2240  140.9000 C   0  0  0  0  0  2  0  0  0  0  0  0
  181.9190  179.0350  139.6220 C   0  0  2  0  0  3  0  0  0  0  0  0
  180.5100  179.3050  139.1270 C   0  0  0  0  0  1  0  0  0  0  0  0
  182.6950  178.2400  138.5810 C   0  0  0  0  0  2  0  0  0  0  0  0
  184.0660  178.8480  138.2920 C   0  0  0  0  0  2  0  0  0  0  0  0
  185.1270  177.7970  137.9560 C   0  0  2  0  0  3  0  0  0  0  0  0
  187.3350  178.1600  138.8580 O   0  0  0  0  0  1  0  0  0  0  0  0
  186.5110  178.4320  137.7660 C   0  0  1  0  0  3  0  0  0  0  0  0
  187.1860  177.8990  136.5130 C   0  0  0  0  0  1  0  0  0  0  0  0
  184.7160  177.0710  136.6770 C   0  0  0  0  0  2  0  0  0  0  0  0
  182.9300  175.3760  136.4420 C   0  0  2  0  0  3  0  0  0  0  0  0
  186.0790  174.2610  137.4460 O   0  0  0  0  0  1  0  0  0  0  0  0
  184.2820  175.6920  136.9490 N   0  0  0  0  0  0  0  0  0  0  0  0
  182.0250  171.8920  136.7070 C   0  0  0  0  0  3  0  0  0  0  0  0
  185.9280  175.1020  135.3320 O   0  0  0  0  0  1  0  0  0  0  0  0
  185.1950  174.6460  136.4340 C   0  0  0  0  0  0  0  0  0  0  0  0
  183.3860  171.4450  137.0590 C   0  0  0  0  0  3  0  0  0  0  0  0
  184.4550  172.1970  136.7720 C   0  0  0  0  0  3  0  0  0  0  0  0
  182.9530  173.9880  136.0400 N   0  0  0  0  0  0  0  0  0  0  0  0
  184.3130  173.4780  135.9790 C   0  0  1  0  0  3  0  0  0  0  0  0
  181.8270  173.1260  136.2410 C   0  0  0  0  0  3  0  0  0  0  0  0
  182.4430  176.2510  135.2730 C   0  0  0  0  0  2  0  0  0  0  0  0
  181.3910  177.0780  135.6720 O   0  0  0  0  0  1  0  0  0  0  0  0
  185.9170  177.8410  143.5170 C   0  0  0  0  0  2  0  0  0  0  0  0
  187.1070  178.2120  142.6700 C   0  0  0  0  0  3  0  0  0  0  0  0
  188.0510  177.3570  142.4490 N   0  0  0  0  0  0  0  0  0  0  0  0
  189.1250  177.7070  141.6570 O   0  0  0  0  0  0  0  0  0  0  0  0
  191.4840  177.6030  141.3200 C   0  0  0  0  0  2  0  0  0  0  0  0
  191.3530  176.5760  143.5500 C   0  0  1  0  0  3  0  0  0  0  0  0
  190.2030  176.7960  141.4070 C   0  0  1  0  0  0  0  0  0  0  0  0
  190.4280  175.8500  142.5870 C   0  0  0  0  0  2  0  0  0  0  0  0
  192.1490  177.5480  142.6840 C   0  0  0  0  0  2  0  0  0  0  0  0
  190.5710  177.3110  144.5470 N   0  0  0  0  0  0  0  0  0  0  0  0
  191.3370  177.4400  145.6580 O   0  0  0  0  0  1  0  0  0  0  0  0
  189.5240  176.5260  144.9000 O   0  0  0  0  0  1  0  0  0  0  0  0
  190.0340  176.1020  140.1870 O   0  0  0  0  0  0  0  0  0  0  0  0
  190.6410  176.8320  139.1490 C   0  0  0  0  0  2  0  0  0  0  0  0
  191.1840  175.8960  138.0680 C   0  0  1  0  0  3  0  0  0  0  0  0
  190.9500  175.9630  135.5650 C   0  0  0  0  0  1  0  0  0  0  0  0
  190.2180  175.7570  136.8830 C   0  0  0  0  0  3  0  0  0  0  0  0
  189.5600  174.3870  136.8530 C   0  0  0  0  0  1  0  0  0  0  0  0
  192.5490  176.3860  137.5890 C   0  0  0  0  0  2  0  0  0  0  0  0
  193.6570  175.4740  138.0940 C   0  0  0  0  0  2  0  0  0  0  0  0
  193.5510  174.0960  137.4600 C   0  0  0  0  0  2  0  0  0  0  0  0
  194.7610  173.8080  136.5870 C   0  0  0  0  0  2  0  0  0  0  0  0
  196.0030  174.4560  137.1700 C   0  0  0  0  0  2  0  0  0  0  0  0
  198.0540  174.8670  135.8650 C   0  0  0  0  0  2  0  0  0  0  0  0
  197.2460  173.8140  136.5950 C   0  0  0  0  0  3  0  0  0  0  0  0
  198.4680  174.4270  137.2510 C   0  0  0  0  0  2  0  0  0  0  0  0
  2  7  1  6  0  0  0
  2  3  1  0  0  0  0
  2  6  1  0  0  0  0
  3  5  1  0  0  0  0
  4  1  1  0  0  0  0
  5 30  1  0  0  0  0
  5  1  1  0  0  0  0
  6  4  1  0  0  0  0
  8  9  1  6  0  0  0
  8  7  1  0  0  0  0
 10  8  1  0  0  0  0
 11 10  1  0  0  0  0
 12 16  1  6  0  0  0
 12 11  1  0  0  0  0
 14 15  1  6  0  0  0
 14 12  1  0  0  0  0
 14 13  1  0  0  0  0
 16 19  1  0  0  0  0
 17 28  1  6  0  0  0
 17 19  1  0  0  0  0
 20 23  1  0  0  0  0
 21 22  1  0  0  0  0
 22 19  1  0  0  0  0
 22 18  1  0  0  0  0
 24 23  2  0  0  0  0
 25 27  1  0  0  0  0
 25 17  1  0  0  0  0
 26 25  1  0  0  0  0
 26 22  1  0  0  0  0
 26 24  1  1  0  0  0
 27 20  2  0  0  0  0
 28 29  1  0  0  0  0
 31 30  1  0  0  0  0
 32 31  2  0  0  0  0
 33 32  1  0  0  0  0
 34 36  1  0  0  0  0
 34 38  1  0  0  0  0
 35 39  1  1  0  0  0
 36 42  1  6  0  0  0
 36 33  1  0  0  0  0
 36 37  1  0  0  0  0
 37 35  1  0  0  0  0
 38 35  1  0  0  0  0
 39 41  1  0  0  0  0
 39 40  1  0  0  0  0
 43 42  1  0  0  0  0
 44 48  1  6  0  0  0
 44 43  1  0  0  0  0
 45 46  1  0  0  0  0
 46 44  1  0  0  0  0
 47 46  1  0  0  0  0
 48 49  1  0  0  0  0
 50 49  1  0  0  0  0
 51 52  1  0  0  0  0
 51 50  1  0  0  0  0
 53 54  1  0  0  0  0
 53 55  1  0  0  0  0
 54 52  1  0  0  0  0
 54 55  1  0  0  0  0
M  END
>  <MODEL>
6

>  <REMARK>
 VINA RESULT:      -5.4      2.834      7.729
  Name = 
  24 active torsions:
  status: ('A' for Active; 'I' for Inactive)
    1  A    between atoms: C_1  and  C_21
    2  A    between atoms: C_2  and  C_28
    3  A    between atoms: C_2  and  N_44
    4  A    between atoms: C_4  and  C_19
    5  A    between atoms: C_4  and  C_37
    6  A    between atoms: N_6  and  C_46
    7  A    between atoms: C_8  and  C_22
    8  A    between atoms: C_8  and  C_35
    9  A    between atoms: N_10  and  C_32
   10  A    between atoms: C_15  and  C_17
   11  A    between atoms: C_16  and  C_17
   12  A    between atoms: C_16  and  C_26
   13  A    between atoms: C_17  and  C_36
   14  A    between atoms: C_20  and  C_22
   15  A    between atoms: C_22  and  C_46
   16  A    between atoms: C_26  and  C_45
   17  A    between atoms: C_27  and  C_54
   18  A    between atoms: N_33  and  O_49
   19  A    between atoms: C_34  and  O_49
   20  A    between atoms: C_34  and  O_52
   21  A    between atoms: C_35  and  C_43
   22  A    between atoms: C_36  and  O_52
   23  A    between atoms: C_37  and  C_45
   24  A    between atoms: C_43  and  C_54
                            x       y       z     vdW  Elec       q    Type
                         _______ _______ _______ _____ _____    ______ ____

>  <TORSDO>
F 24

$$$$
=
 OpenBabel11052415023D

 55 59  0  0  1  0  0  0  0  0999 V2000
  184.8130  178.2320  145.5650 C   0  0  0  0  0  2  0  0  0  0  0  0
  183.5900  179.0390  143.1820 C   0  0  2  0  0  3  0  0  0  0  0  0
  184.9350  178.3060  143.1520 C   0  0  0  0  0  2  0  0  0  0  0  0
  183.4970  178.9990  145.4430 C   0  0  0  0  0  2  0  0  0  0  0  0
  185.6630  178.5280  144.4070 N   0  0  0  0  0  0  0  0  0  0  0  0
  182.8250  178.5930  144.2770 O   0  0  0  0  0  0  0  0  0  0  0  0
  182.8530  178.7340  141.8900 C   0  0  0  0  0  2  0  0  0  0  0  0
  183.7810  178.1380  140.8480 C   0  0  2  0  0  3  0  0  0  0  0  0
  184.2710  179.2630  139.9550 C   0  0  0  0  0  1  0  0  0  0  0  0
  183.0150  177.1120  140.0230 C   0  0  0  0  0  2  0  0  0  0  0  0
  181.7150  177.6790  139.4570 C   0  0  0  0  0  2  0  0  0  0  0  0
  181.7290  177.7940  137.9310 C   0  0  2  0  0  3  0  0  0  0  0  0
  181.6310  180.2020  138.0490 O   0  0  0  0  0  1  0  0  0  0  0  0
  181.0460  179.0840  137.4550 C   0  0  1  0  0  3  0  0  0  0  0  0
  181.1560  179.2320  135.9460 C   0  0  0  0  0  1  0  0  0  0  0  0
  181.0080  176.5850  137.3370 C   0  0  0  0  0  2  0  0  0  0  0  0
  181.4120  174.1620  137.6330 C   0  0  2  0  0  3  0  0  0  0  0  0
  183.5420  175.8940  135.4800 O   0  0  0  0  0  1  0  0  0  0  0  0
  181.9250  175.4540  137.1280 N   0  0  0  0  0  0  0  0  0  0  0  0
  183.4400  171.3120  136.7420 C   0  0  0  0  0  3  0  0  0  0  0  0
  181.3620  175.7230  134.8300 O   0  0  0  0  0  1  0  0  0  0  0  0
  182.3290  175.2400  135.7200 C   0  0  0  0  0  0  0  0  0  0  0  0
  184.2760  172.0600  135.7830 C   0  0  0  0  0  3  0  0  0  0  0  0
  183.8500  173.2100  135.2480 C   0  0  0  0  0  3  0  0  0  0  0  0
  181.9070  173.1420  136.7370 N   0  0  0  0  0  0  0  0  0  0  0  0
  182.4550  173.7260  135.5230 C   0  0  1  0  0  3  0  0  0  0  0  0
  182.3150  171.8540  137.2120 C   0  0  0  0  0  3  0  0  0  0  0  0
  179.8800  174.0600  137.7470 C   0  0  0  0  0  2  0  0  0  0  0  0
  179.4960  173.7460  139.0520 O   0  0  0  0  0  1  0  0  0  0  0  0
  186.8680  177.6870  144.4520 C   0  0  0  0  0  2  0  0  0  0  0  0
  187.6430  177.6480  143.1600 C   0  0  0  0  0  3  0  0  0  0  0  0
  188.7410  178.3190  143.0300 N   0  0  0  0  0  0  0  0  0  0  0  0
  189.4480  178.2590  141.8470 O   0  0  0  0  0  0  0  0  0  0  0  0
  191.5380  177.4280  141.0520 C   0  0  0  0  0  2  0  0  0  0  0  0
  191.5540  176.4550  143.3090 C   0  0  1  0  0  3  0  0  0  0  0  0
  190.1160  177.0610  141.4310 C   0  0  1  0  0  0  0  0  0  0  0  0
  190.2730  176.0710  142.5860 C   0  0  0  0  0  2  0  0  0  0  0  0
  192.4170  177.1440  142.2570 C   0  0  0  0  0  2  0  0  0  0  0  0
  191.2580  177.3800  144.4060 N   0  0  0  0  0  0  0  0  0  0  0  0
  192.0400  178.4750  144.2430 O   0  0  0  0  0  1  0  0  0  0  0  0
  191.6700  176.7900  145.5550 O   0  0  0  0  0  1  0  0  0  0  0  0
  189.4950  176.4770  140.3030 O   0  0  0  0  0  0  0  0  0  0  0  0
  189.4620  177.4130  139.2540 C   0  0  0  0  0  2  0  0  0  0  0  0
  188.5440  176.9370  138.1260 C   0  0  1  0  0  3  0  0  0  0  0  0
  187.6330  178.8520  136.7760 C   0  0  0  0  0  1  0  0  0  0  0  0
  187.3520  177.8800  137.9120 C   0  0  0  0  0  3  0  0  0  0  0  0
  186.0830  177.1130  137.5790 C   0  0  0  0  0  1  0  0  0  0  0  0
  189.3410  176.7830  136.8320 C   0  0  0  0  0  2  0  0  0  0  0  0
  189.2870  175.3470  136.3340 C   0  0  0  0  0  2  0  0  0  0  0  0
  190.6850  174.7550  136.2420 C   0  0  0  0  0  2  0  0  0  0  0  0
  191.3500  174.7270  137.6070 C   0  0  0  0  0  2  0  0  0  0  0  0
  192.7210  175.3740  137.5440 C   0  0  0  0  0  2  0  0  0  0  0  0
  195.0390  174.8990  136.8540 C   0  0  0  0  0  2  0  0  0  0  0  0
  193.5810  174.6790  136.5110 C   0  0  0  0  0  3  0  0  0  0  0  0
  194.3780  173.5820  137.1900 C   0  0  0  0  0  2  0  0  0  0  0  0
  2  7  1  6  0  0  0
  2  6  1  0  0  0  0
  3  2  1  0  0  0  0
  3  5  1  0  0  0  0
  4  1  1  0  0  0  0
  5 30  1  0  0  0  0
  5  1  1  0  0  0  0
  6  4  1  0  0  0  0
  8  9  1  6  0  0  0
  8  7  1  0  0  0  0
 10  8  1  0  0  0  0
 11 10  1  0  0  0  0
 12 16  1  6  0  0  0
 12 11  1  0  0  0  0
 14 15  1  6  0  0  0
 14 12  1  0  0  0  0
 14 13  1  0  0  0  0
 17 28  1  6  0  0  0
 18 22  1  0  0  0  0
 19 16  1  0  0  0  0
 19 17  1  0  0  0  0
 20 27  2  0  0  0  0
 21 22  1  0  0  0  0
 22 19  1  0  0  0  0
 23 20  1  0  0  0  0
 24 23  2  0  0  0  0
 25 27  1  0  0  0  0
 25 17  1  0  0  0  0
 26 24  1  1  0  0  0
 26 22  1  0  0  0  0
 26 25  1  0  0  0  0
 28 29  1  0  0  0  0
 31 30  1  0  0  0  0
 32 31  2  0  0  0  0
 33 32  1  0  0  0  0
 34 36  1  0  0  0  0
 34 38  1  0  0  0  0
 35 39  1  1  0  0  0
 36 42  1  6  0  0  0
 36 33  1  0  0  0  0
 36 37  1  0  0  0  0
 37 35  1  0  0  0  0
 38 35  1  0  0  0  0
 39 41  1  0  0  0  0
 40 39  1  0  0  0  0
 43 42  1  0  0  0  0
 44 48  1  6  0  0  0
 44 43  1  0  0  0  0
 45 46  1  0  0  0  0
 46 44  1  0  0  0  0
 47 46  1  0  0  0  0
 49 48  1  0  0  0  0
 50 49  1  0  0  0  0
 50 51  1  0  0  0  0
 52 51  1  0  0  0  0
 53 55  1  0  0  0  0
 54 53  1  0  0  0  0
 54 55  1  0  0  0  0
 54 52  1  0  0  0  0
M  END
>  <MODEL>
7

>  <REMARK>
 VINA RESULT:      -5.1      2.267      7.070
  Name = 
  24 active torsions:
  status: ('A' for Active; 'I' for Inactive)
    1  A    between atoms: C_1  and  C_21
    2  A    between atoms: C_2  and  C_28
    3  A    between atoms: C_2  and  N_44
    4  A    between atoms: C_4  and  C_19
    5  A    between atoms: C_4  and  C_37
    6  A    between atoms: N_6  and  C_46
    7  A    between atoms: C_8  and  C_22
    8  A    between atoms: C_8  and  C_35
    9  A    between atoms: N_10  and  C_32
   10  A    between atoms: C_15  and  C_17
   11  A    between atoms: C_16  and  C_17
   12  A    between atoms: C_16  and  C_26
   13  A    between atoms: C_17  and  C_36
   14  A    between atoms: C_20  and  C_22
   15  A    between atoms: C_22  and  C_46
   16  A    between atoms: C_26  and  C_45
   17  A    between atoms: C_27  and  C_54
   18  A    between atoms: N_33  and  O_49
   19  A    between atoms: C_34  and  O_49
   20  A    between atoms: C_34  and  O_52
   21  A    between atoms: C_35  and  C_43
   22  A    between atoms: C_36  and  O_52
   23  A    between atoms: C_37  and  C_45
   24  A    between atoms: C_43  and  C_54
                            x       y       z     vdW  Elec       q    Type
                         _______ _______ _______ _____ _____    ______ ____

>  <TORSDO>
F 24

$$$$
=
 OpenBabel11052415023D

 55 59  0  0  1  0  0  0  0  0999 V2000
  186.3150  178.4210  145.5230 C   0  0  0  0  0  2  0  0  0  0  0  0
  183.7410  179.0390  144.6190 C   0  0  2  0  0  3  0  0  0  0  0  0
  184.6990  178.2360  143.7350 C   0  0  0  0  0  2  0  0  0  0  0  0
  185.2680  179.2400  146.2770 C   0  0  0  0  0  2  0  0  0  0  0  0
  186.0910  178.5490  144.0790 N   0  0  0  0  0  0  0  0  0  0  0  0
  183.9860  178.7520  145.9760 O   0  0  0  0  0  0  0  0  0  0  0  0
  182.3190  178.6410  144.2650 C   0  0  0  0  0  2  0  0  0  0  0  0
  181.8710  179.2810  142.9640 C   0  0  2  0  0  3  0  0  0  0  0  0
  180.5590  180.0000  143.2210 C   0  0  0  0  0  1  0  0  0  0  0  0
  181.6750  178.1960  141.9130 C   0  0  0  0  0  2  0  0  0  0  0  0
  182.8980  178.0360  141.0130 C   0  0  0  0  0  2  0  0  0  0  0  0
  182.5940  178.3120  139.5380 C   0  0  2  0  0  3  0  0  0  0  0  0
  183.9850  180.2330  139.0880 O   0  0  0  0  0  1  0  0  0  0  0  0
  182.6610  179.8130  139.2190 C   0  0  1  0  0  3  0  0  0  0  0  0
  181.9300  180.1260  137.9230 C   0  0  0  0  0  1  0  0  0  0  0  0
  181.1990  177.7820  139.2120 C   0  0  0  0  0  2  0  0  0  0  0  0
  180.6190  175.3810  139.0700 C   0  0  2  0  0  3  0  0  0  0  0  0
  181.7030  176.9470  136.1460 O   0  0  0  0  0  1  0  0  0  0  0  0
  181.2600  176.5440  138.4190 N   0  0  0  0  0  0  0  0  0  0  0  0
  180.3690  172.4580  136.9660 C   0  0  0  0  0  3  0  0  0  0  0  0
  179.7070  177.6540  136.9950 O   0  0  0  0  0  1  0  0  0  0  0  0
  180.6850  176.6540  137.0590 C   0  0  0  0  0  0  0  0  0  0  0  0
  180.7610  173.1690  135.7340 C   0  0  0  0  0  3  0  0  0  0  0  0
  180.6510  174.4990  135.6400 C   0  0  0  0  0  3  0  0  0  0  0  0
  180.0460  174.5810  138.0120 N   0  0  0  0  0  0  0  0  0  0  0  0
  180.0210  175.3070  136.7530 C   0  0  1  0  0  3  0  0  0  0  0  0
  180.0510  173.1490  138.0620 C   0  0  0  0  0  3  0  0  0  0  0  0
  179.5380  175.7220  140.1110 C   0  0  0  0  0  2  0  0  0  0  0  0
  179.5210  174.7790  141.1410 O   0  0  0  0  0  1  0  0  0  0  0  0
  187.0070  177.6540  143.3560 C   0  0  0  0  0  2  0  0  0  0  0  0
  187.6340  178.2680  142.1310 C   0  0  0  0  0  3  0  0  0  0  0  0
  187.2790  177.8860  140.9480 N   0  0  0  0  0  0  0  0  0  0  0  0
  187.8500  178.4700  139.8360 O   0  0  0  0  0  0  0  0  0  0  0  0
  189.5600  178.4610  138.1740 C   0  0  0  0  0  2  0  0  0  0  0  0
  190.4700  176.7560  139.6920 C   0  0  1  0  0  3  0  0  0  0  0  0
  188.4060  177.6830  138.7750 C   0  0  1  0  0  0  0  0  0  0  0  0
  189.0460  176.3980  139.3010 C   0  0  0  0  0  2  0  0  0  0  0  0
  190.8370  177.9520  138.8190 C   0  0  0  0  0  2  0  0  0  0  0  0
  190.5290  177.1270  141.1080 N   0  0  0  0  0  0  0  0  0  0  0  0
  191.8020  177.5020  141.3830 O   0  0  0  0  0  1  0  0  0  0  0  0
  190.3030  176.0030  141.8310 O   0  0  0  0  0  1  0  0  0  0  0  0
  187.4600  177.4340  137.7540 O   0  0  0  0  0  0  0  0  0  0  0  0
  187.3360  176.0460  137.5640 C   0  0  0  0  0  2  0  0  0  0  0  0
  187.3710  175.6930  136.0770 C   0  0  1  0  0  3  0  0  0  0  0  0
  184.8670  175.7740  136.2850 C   0  0  0  0  0  1  0  0  0  0  0  0
  186.0520  176.0340  135.3680 C   0  0  0  0  0  3  0  0  0  0  0  0
  186.0090  177.4900  134.9340 C   0  0  0  0  0  1  0  0  0  0  0  0
  188.5410  176.4010  135.3970 C   0  0  0  0  0  2  0  0  0  0  0  0
  189.8550  175.7100  135.7260 C   0  0  0  0  0  2  0  0  0  0  0  0
  189.7100  174.2010  135.6230 C   0  0  0  0  0  2  0  0  0  0  0  0
  190.7940  173.4980  136.4220 C   0  0  0  0  0  2  0  0  0  0  0  0
  191.5970  174.5030  137.2270 C   0  0  0  0  0  2  0  0  0  0  0  0
  193.4790  173.8060  135.7960 C   0  0  0  0  0  2  0  0  0  0  0  0
  193.0640  174.1300  137.2160 C   0  0  0  0  0  3  0  0  0  0  0  0
  193.8260  175.1500  136.3930 C   0  0  0  0  0  2  0  0  0  0  0  0
  1  4  1  0  0  0  0
  2  7  1  6  0  0  0
  2  6  1  0  0  0  0
  3  5  1  0  0  0  0
  3  2  1  0  0  0  0
  5  1  1  0  0  0  0
  6  4  1  0  0  0  0
  8  9  1  1  0  0  0
  8  7  1  0  0  0  0
 10  8  1  0  0  0  0
 11 10  1  0  0  0  0
 12 16  1  1  0  0  0
 12 11  1  0  0  0  0
 13 14  1  0  0  0  0
 14 15  1  6  0  0  0
 14 12  1  0  0  0  0
 17 28  1  1  0  0  0
 18 22  1  0  0  0  0
 19 17  1  0  0  0  0
 19 16  1  0  0  0  0
 20 27  2  0  0  0  0
 21 22  1  0  0  0  0
 22 19  1  0  0  0  0
 23 20  1  0  0  0  0
 24 23  2  0  0  0  0
 25 27  1  0  0  0  0
 25 17  1  0  0  0  0
 26 24  1  6  0  0  0
 26 22  1  0  0  0  0
 26 25  1  0  0  0  0
 28 29  1  0  0  0  0
 30  5  1  0  0  0  0
 31 30  1  0  0  0  0
 32 31  2  0  0  0  0
 33 32  1  0  0  0  0
 34 36  1  0  0  0  0
 34 38  1  0  0  0  0
 35 39  1  1  0  0  0
 36 42  1  6  0  0  0
 36 37  1  0  0  0  0
 36 33  1  0  0  0  0
 37 35  1  0  0  0  0
 38 35  1  0  0  0  0
 39 40  1  0  0  0  0
 39 41  1  0  0  0  0
 43 42  1  0  0  0  0
 44 48  1  6  0  0  0
 44 43  1  0  0  0  0
 46 44  1  0  0  0  0
 46 45  1  0  0  0  0
 47 46  1  0  0  0  0
 48 49  1  0  0  0  0
 50 49  1  0  0  0  0
 50 51  1  0  0  0  0
 51 52  1  0  0  0  0
 53 55  1  0  0  0  0
 53 54  1  0  0  0  0
 54 52  1  0  0  0  0
 55 54  1  0  0  0  0
M  END
>  <MODEL>
8

>  <REMARK>
 VINA RESULT:      -5.0      2.354      7.577
  Name = 
  24 active torsions:
  status: ('A' for Active; 'I' for Inactive)
    1  A    between atoms: C_1  and  C_21
    2  A    between atoms: C_2  and  C_28
    3  A    between atoms: C_2  and  N_44
    4  A    between atoms: C_4  and  C_19
    5  A    between atoms: C_4  and  C_37
    6  A    between atoms: N_6  and  C_46
    7  A    between atoms: C_8  and  C_22
    8  A    between atoms: C_8  and  C_35
    9  A    between atoms: N_10  and  C_32
   10  A    between atoms: C_15  and  C_17
   11  A    between atoms: C_16  and  C_17
   12  A    between atoms: C_16  and  C_26
   13  A    between atoms: C_17  and  C_36
   14  A    between atoms: C_20  and  C_22
   15  A    between atoms: C_22  and  C_46
   16  A    between atoms: C_26  and  C_45
   17  A    between atoms: C_27  and  C_54
   18  A    between atoms: N_33  and  O_49
   19  A    between atoms: C_34  and  O_49
   20  A    between atoms: C_34  and  O_52
   21  A    between atoms: C_35  and  C_43
   22  A    between atoms: C_36  and  O_52
   23  A    between atoms: C_37  and  C_45
   24  A    between atoms: C_43  and  C_54
                            x       y       z     vdW  Elec       q    Type
                         _______ _______ _______ _____ _____    ______ ____

>  <TORSDO>
F 24

$$$$
=
 OpenBabel11052415023D

 55 59  0  0  1  0  0  0  0  0999 V2000
  184.3900  178.5960  144.8420 C   0  0  0  0  0  2  0  0  0  0  0  0
  182.3100  179.0740  143.0320 C   0  0  2  0  0  3  0  0  0  0  0  0
  183.4530  178.1230  142.6650 C   0  0  0  0  0  2  0  0  0  0  0  0
  183.2090  179.5420  145.0560 C   0  0  0  0  0  2  0  0  0  0  0  0
  184.6690  178.4770  143.4070 N   0  0  0  0  0  0  0  0  0  0  0  0
  182.0700  179.0210  144.4190 O   0  0  0  0  0  0  0  0  0  0  0  0
  181.0650  178.6340  142.2840 C   0  0  0  0  0  2  0  0  0  0  0  0
  180.7140  179.6030  141.1710 C   0  0  2  0  0  3  0  0  0  0  0  0
  179.4860  180.3850  141.5990 C   0  0  0  0  0  1  0  0  0  0  0  0
  180.4170  178.8200  139.8990 C   0  0  0  0  0  2  0  0  0  0  0  0
  181.2650  179.2910  138.7190 C   0  0  0  0  0  2  0  0  0  0  0  0
  182.6350  178.6110  138.6600 C   0  0  2  0  0  3  0  0  0  0  0  0
  183.2870  180.9100  138.9960 O   0  0  0  0  0  1  0  0  0  0  0  0
  183.7780  179.6350  138.7140 C   0  0  1  0  0  3  0  0  0  0  0  0
  184.7890  179.2640  139.7870 C   0  0  0  0  0  1  0  0  0  0  0  0
  182.7320  177.8040  137.3660 C   0  0  0  0  0  2  0  0  0  0  0  0
  183.3820  175.4510  137.7630 C   0  0  2  0  0  3  0  0  0  0  0  0
  185.7500  177.5430  136.2830 O   0  0  0  0  0  1  0  0  0  0  0  0
  183.8240  176.8200  137.4190 N   0  0  0  0  0  0  0  0  0  0  0  0
  185.9630  172.9440  137.4700 C   0  0  0  0  0  3  0  0  0  0  0  0
  183.8800  177.0990  135.0550 O   0  0  0  0  0  1  0  0  0  0  0  0
  184.6240  176.7190  136.1780 C   0  0  0  0  0  0  0  0  0  0  0  0
  186.9130  173.8370  136.7790 C   0  0  0  0  0  3  0  0  0  0  0  0
  186.4910  174.9370  136.1470 C   0  0  0  0  0  3  0  0  0  0  0  0
  184.2440  174.5450  137.0390 N   0  0  0  0  0  0  0  0  0  0  0  0
  185.0140  175.2450  136.0250 C   0  0  1  0  0  3  0  0  0  0  0  0
  184.6870  173.3080  137.6090 C   0  0  0  0  0  3  0  0  0  0  0  0
  181.9090  175.1350  137.4480 C   0  0  0  0  0  2  0  0  0  0  0  0
  181.7970  173.9470  136.7230 O   0  0  0  0  0  1  0  0  0  0  0  0
  185.7110  177.4640  143.1890 C   0  0  0  0  0  2  0  0  0  0  0  0
  187.0220  178.0200  142.6950 C   0  0  0  0  0  3  0  0  0  0  0  0
  187.9470  177.2330  142.2530 N   0  0  0  0  0  0  0  0  0  0  0  0
  189.1350  177.7600  141.7880 O   0  0  0  0  0  0  0  0  0  0  0  0
  191.5000  177.8370  141.4950 C   0  0  0  0  0  2  0  0  0  0  0  0
  191.4060  176.7960  143.7200 C   0  0  1  0  0  3  0  0  0  0  0  0
  190.2830  176.9340  141.5570 C   0  0  1  0  0  0  0  0  0  0  0  0
  190.5580  176.0040  142.7390 C   0  0  0  0  0  2  0  0  0  0  0  0
  192.1420  177.8290  142.8710 C   0  0  0  0  0  2  0  0  0  0  0  0
  190.5530  177.4660  144.7040 N   0  0  0  0  0  0  0  0  0  0  0  0
  191.2820  177.6370  145.8340 O   0  0  0  0  0  1  0  0  0  0  0  0
  189.5540  176.6080  145.0250 O   0  0  0  0  0  1  0  0  0  0  0  0
  190.1890  176.2340  140.3320 O   0  0  0  0  0  0  0  0  0  0  0  0
  189.3210  176.9230  139.4670 C   0  0  0  0  0  2  0  0  0  0  0  0
  189.6540  176.6230  138.0050 C   0  0  1  0  0  3  0  0  0  0  0  0
  189.0540  178.9960  137.4300 C   0  0  0  0  0  1  0  0  0  0  0  0
  188.8890  177.5360  137.0370 C   0  0  0  0  0  3  0  0  0  0  0  0
  189.3760  177.3700  135.6060 C   0  0  0  0  0  1  0  0  0  0  0  0
  191.1590  176.7440  137.7750 C   0  0  0  0  0  2  0  0  0  0  0  0
  191.7570  175.3980  137.3960 C   0  0  0  0  0  2  0  0  0  0  0  0
  193.2740  175.4790  137.3390 C   0  0  0  0  0  2  0  0  0  0  0  0
  193.8170  174.6580  136.1830 C   0  0  0  0  0  2  0  0  0  0  0  0
  193.8870  173.1900  136.5600 C   0  0  0  0  0  2  0  0  0  0  0  0
  195.2760  171.4030  137.5360 C   0  0  0  0  0  2  0  0  0  0  0  0
  195.2040  172.8860  137.2390 C   0  0  0  0  0  3  0  0  0  0  0  0
  196.0200  171.9700  136.3490 C   0  0  0  0  0  2  0  0  0  0  0  0
  1  4  1  0  0  0  0
  2  7  1  6  0  0  0
  2  6  1  0  0  0  0
  3  2  1  0  0  0  0
  3  5  1  0  0  0  0
  5  1  1  0  0  0  0
  6  4  1  0  0  0  0
  8  9  1  1  0  0  0
  8  7  1  0  0  0  0
 10  8  1  0  0  0  0
 11 10  1  0  0  0  0
 12 16  1  6  0  0  0
 12 14  1  0  0  0  0
 12 11  1  0  0  0  0
 14 13  1  0  0  0  0
 14 15  1  1  0  0  0
 16 19  1  0  0  0  0
 17 28  1  6  0  0  0
 19 17  1  0  0  0  0
 20 27  2  0  0  0  0
 21 22  1  0  0  0  0
 22 18  1  0  0  0  0
 22 19  1  0  0  0  0
 23 20  1  0  0  0  0
 24 23  2  0  0  0  0
 25 27  1  0  0  0  0
 25 17  1  0  0  0  0
 26 24  1  1  0  0  0
 26 22  1  0  0  0  0
 26 25  1  0  0  0  0
 29 28  1  0  0  0  0
 30  5  1  0  0  0  0
 31 30  1  0  0  0  0
 32 31  2  0  0  0  0
 33 32  1  0  0  0  0
 34 36  1  0  0  0  0
 34 38  1  0  0  0  0
 35 39  1  1  0  0  0
 36 42  1  6  0  0  0
 36 33  1  0  0  0  0
 36 37  1  0  0  0  0
 37 35  1  0  0  0  0
 38 35  1  0  0  0  0
 39 41  1  0  0  0  0
 39 40  1  0  0  0  0
 43 42  1  0  0  0  0
 44 48  1  1  0  0  0
 44 43  1  0  0  0  0
 46 45  1  0  0  0  0
 46 44  1  0  0  0  0
 47 46  1  0  0  0  0
 49 48  1  0  0  0  0
 50 49  1  0  0  0  0
 51 52  1  0  0  0  0
 51 50  1  0  0  0  0
 52 54  1  0  0  0  0
 54 53  1  0  0  0  0
 55 54  1  0  0  0  0
 55 53  1  0  0  0  0
M  END
>  <MODEL>
9

>  <REMARK>
 VINA RESULT:      -4.9      2.750      7.721
  Name = 
  24 active torsions:
  status: ('A' for Active; 'I' for Inactive)
    1  A    between atoms: C_1  and  C_21
    2  A    between atoms: C_2  and  C_28
    3  A    between atoms: C_2  and  N_44
    4  A    between atoms: C_4  and  C_19
    5  A    between atoms: C_4  and  C_37
    6  A    between atoms: N_6  and  C_46
    7  A    between atoms: C_8  and  C_22
    8  A    between atoms: C_8  and  C_35
    9  A    between atoms: N_10  and  C_32
   10  A    between atoms: C_15  and  C_17
   11  A    between atoms: C_16  and  C_17
   12  A    between atoms: C_16  and  C_26
   13  A    between atoms: C_17  and  C_36
   14  A    between atoms: C_20  and  C_22
   15  A    between atoms: C_22  and  C_46
   16  A    between atoms: C_26  and  C_45
   17  A    between atoms: C_27  and  C_54
   18  A    between atoms: N_33  and  O_49
   19  A    between atoms: C_34  and  O_49
   20  A    between atoms: C_34  and  O_52
   21  A    between atoms: C_35  and  C_43
   22  A    between atoms: C_36  and  O_52
   23  A    between atoms: C_37  and  C_45
   24  A    between atoms: C_43  and  C_54
                            x       y       z     vdW  Elec       q    Type
                         _______ _______ _______ _____ _____    ______ ____

>  <TORSDO>
F 24

$$$$
