=
 OpenBabel11052416003D

 34 39  0  0  1  0  0  0  0  0999 V2000
  188.2740  177.9130  142.8510 C   0  0  0  0  0  0  0  0  0  0  0  0
  188.2980  177.4210  146.5060 C   0  0  0  0  0  3  0  0  0  0  0  0
  186.4780  178.2240  145.1610 C   0  0  0  0  0  2  0  0  0  0  0  0
  188.4250  178.3000  140.4730 C   0  0  0  0  0  0  0  0  0  0  0  0
  189.0150  178.0200  141.6150 N   0  0  0  0  0  0  0  0  0  0  0  0
  186.2410  178.3590  141.6050 C   0  0  0  0  0  0  0  0  0  0  0  0
  184.9680  178.7900  141.9490 C   0  0  0  0  0  3  0  0  0  0  0  0
  186.9930  178.5260  140.4030 N   0  0  0  0  0  2  0  0  0  0  0  0
  186.0300  178.2370  143.7740 N   0  0  0  0  0  0  0  0  0  0  0  0
  186.8470  178.0420  142.7530 C   0  0  0  0  0  0  0  0  0  0  0  0
  184.8730  178.6920  143.3080 N   0  0  0  0  0  0  0  0  0  0  0  0
  189.5810  176.9410  147.0300 C   0  0  0  0  0  3  0  0  0  0  0  0
  190.7890  176.8810  146.4670 C   0  0  0  0  0  0  0  0  0  0  0  0
  191.1060  177.3470  145.1070 C   0  0  0  0  0  3  0  0  0  0  0  0
  187.9360  177.7820  145.2780 C   0  0  0  0  0  0  0  0  0  0  0  0
  190.3030  177.7080  144.1140 C   0  0  0  0  0  3  0  0  0  0  0  0
  188.8350  177.7700  144.0660 C   0  0  0  0  0  0  0  0  0  0  0  0
  191.8720  176.3650  147.2590 N   0  0  0  0  0  0  0  0  0  0  0  0
  192.2830  177.0170  148.3740 O   0  0  0  0  0  1  0  0  0  0  0  0
  192.5170  175.1750  146.8980 N   0  0  0  0  0  1  0  0  0  0  0  0
  189.2340  178.3240  139.2120 C   0  0  0  0  0  2  0  0  0  0  0  0
  189.5880  177.0870  137.0400 C   0  0  0  0  0  0  0  0  0  0  0  0
  190.4990  176.1570  138.9860 C   0  0  0  0  0  3  0  0  0  0  0  0
  192.5540  175.4800  135.4390 N   0  0  0  0  0  0  0  0  0  0  0  0
  193.3860  175.5280  136.6740 C   0  0  2  0  0  0  0  0  0  0  0  0
  191.4600  176.4730  135.4390 C   0  0  0  0  0  2  0  0  0  0  0  0
  194.5450  174.5510  136.5640 C   0  0  0  0  0  1  0  0  0  0  0  0
  190.7310  176.4950  136.7490 C   0  0  0  0  0  0  0  0  0  0  0  0
  191.9670  174.1560  135.2300 C   0  0  0  0  0  1  0  0  0  0  0  0
  192.5780  175.1880  137.9450 C   0  0  0  0  0  2  0  0  0  0  0  0
  191.2980  175.9490  137.9510 C   0  0  0  0  0  0  0  0  0  0  0  0
  193.9290  176.8090  136.8160 O   0  0  0  0  0  1  0  0  0  0  0  0
  189.3120  176.9570  138.5120 C   0  0  1  0  0  3  0  0  0  0  0  0
  188.7180  177.8000  136.0600 C   0  0  0  0  0  1  0  0  0  0  0  0
  1 17  2  0  0  0  0
  2 12  1  0  0  0  0
  3 15  1  0  0  0  0
  4  5  2  0  0  0  0
  5  1  1  0  0  0  0
  6  7  1  0  0  0  0
  6 10  2  0  0  0  0
  7 11  2  0  0  0  0
  8  4  1  0  0  0  0
  8  6  1  0  0  0  0
  9  3  1  0  0  0  0
 10  1  1  0  0  0  0
 10  9  1  0  0  0  0
 11  9  1  0  0  0  0
 13 12  2  0  0  0  0
 13 18  1  0  0  0  0
 14 13  1  0  0  0  0
 15  2  2  0  0  0  0
 16 14  2  0  0  0  0
 17 16  1  0  0  0  0
 17 15  1  0  0  0  0
 18 19  1  0  0  0  0
 20 18  1  0  0  0  0
 21  4  1  0  0  0  0
 22 33  1  0  0  0  0
 24 26  1  0  0  0  0
 24 25  1  0  0  0  0
 25 27  1  6  0  0  0
 25 32  1  0  0  0  0
 25 30  1  0  0  0  0
 26 28  1  0  0  0  0
 28 22  2  0  0  0  0
 28 31  1  0  0  0  0
 29 24  1  0  0  0  0
 30 31  1  0  0  0  0
 31 23  2  0  0  0  0
 33 23  1  0  0  0  0
 33 21  1  1  0  0  0
 34 22  1  0  0  0  0
M  END
>  <MODEL>
1

>  <REMARK>
 VINA RESULT:     -10.7      0.000      0.000
  Name = 
  3 active torsions:
  status: ('A' for Active; 'I' for Inactive)
    1  A    between atoms: N_3  and  C_25
    2  A    between atoms: C_8  and  C_18
    3  A    between atoms: C_18  and  C_30
                            x       y       z     vdW  Elec       q    Type
                         _______ _______ _______ _____ _____    ______ ____

>  <TORSDO>
F 3

$$$$
=
 OpenBabel11052416003D

 34 39  0  0  1  0  0  0  0  0999 V2000
  187.7970  177.6280  144.3680 C   0  0  0  0  0  0  0  0  0  0  0  0
  184.5800  178.6590  145.8490 C   0  0  0  0  0  3  0  0  0  0  0  0
  186.5630  177.9740  147.0170 C   0  0  0  0  0  2  0  0  0  0  0  0
  189.8090  176.8660  143.2740 C   0  0  0  0  0  0  0  0  0  0  0  0
  188.5420  177.2130  143.2020 N   0  0  0  0  0  0  0  0  0  0  0  0
  189.8120  177.3410  145.6890 C   0  0  0  0  0  0  0  0  0  0  0  0
  190.0690  177.1850  147.0430 C   0  0  0  0  0  3  0  0  0  0  0  0
  190.5180  176.8710  144.5400 N   0  0  0  0  0  2  0  0  0  0  0  0
  187.9970  177.8250  146.8000 N   0  0  0  0  0  0  0  0  0  0  0  0
  188.5340  177.7240  145.5970 C   0  0  0  0  0  0  0  0  0  0  0  0
  188.9160  177.5030  147.7020 N   0  0  0  0  0  0  0  0  0  0  0  0
  183.5520  178.9940  144.8570 C   0  0  0  0  0  3  0  0  0  0  0  0
  183.4960  178.7660  143.5440 C   0  0  0  0  0  0  0  0  0  0  0  0
  184.5260  178.0530  142.7700 C   0  0  0  0  0  3  0  0  0  0  0  0
  185.8120  178.1810  145.7020 C   0  0  0  0  0  0  0  0  0  0  0  0
  185.7550  177.6840  143.1110 C   0  0  0  0  0  3  0  0  0  0  0  0
  186.4700  177.8590  144.3830 C   0  0  0  0  0  0  0  0  0  0  0  0
  182.3260  179.2100  142.8370 N   0  0  0  0  0  0  0  0  0  0  0  0
  181.3840  179.9580  143.4620 O   0  0  0  0  0  1  0  0  0  0  0  0
  182.1400  178.8830  141.4870 N   0  0  0  0  0  1  0  0  0  0  0  0
  190.5500  176.5160  142.0200 C   0  0  0  0  0  2  0  0  0  0  0  0
  191.0170  177.1250  139.6150 C   0  0  0  0  0  0  0  0  0  0  0  0
  188.9660  177.7880  140.5290 C   0  0  0  0  0  3  0  0  0  0  0  0
  189.0200  176.9200  136.4670 N   0  0  0  0  0  0  0  0  0  0  0  0
  187.7320  176.6650  137.1690 C   0  0  2  0  0  0  0  0  0  0  0  0
  190.2020  176.5620  137.2770 C   0  0  0  0  0  2  0  0  0  0  0  0
  186.5620  176.9620  136.2440 C   0  0  0  0  0  1  0  0  0  0  0  0
  190.0840  177.0680  138.6840 C   0  0  0  0  0  0  0  0  0  0  0  0
  189.1520  178.3200  136.0630 C   0  0  0  0  0  1  0  0  0  0  0  0
  187.5750  177.5180  138.4460 C   0  0  0  0  0  2  0  0  0  0  0  0
  188.8230  177.4500  139.2570 C   0  0  0  0  0  0  0  0  0  0  0  0
  187.6560  175.3130  137.5200 O   0  0  0  0  0  1  0  0  0  0  0  0
  190.4080  177.5740  140.9140 C   0  0  1  0  0  3  0  0  0  0  0  0
  192.4520  176.7680  139.4140 C   0  0  0  0  0  1  0  0  0  0  0  0
  1 17  2  0  0  0  0
  1 10  1  0  0  0  0
  4  8  1  0  0  0  0
  5  4  2  0  0  0  0
  5  1  1  0  0  0  0
  6  7  1  0  0  0  0
  7 11  2  0  0  0  0
  8  6  1  0  0  0  0
  9  3  1  0  0  0  0
  9 11  1  0  0  0  0
 10  6  2  0  0  0  0
 10  9  1  0  0  0  0
 12  2  1  0  0  0  0
 13 12  2  0  0  0  0
 14 16  2  0  0  0  0
 14 13  1  0  0  0  0
 15  2  2  0  0  0  0
 15  3  1  0  0  0  0
 16 17  1  0  0  0  0
 17 15  1  0  0  0  0
 18 19  1  0  0  0  0
 18 13  1  0  0  0  0
 20 18  1  0  0  0  0
 21  4  1  0  0  0  0
 22 33  1  0  0  0  0
 23 33  1  0  0  0  0
 24 25  1  0  0  0  0
 24 26  1  0  0  0  0
 25 27  1  6  0  0  0
 25 32  1  0  0  0  0
 25 30  1  0  0  0  0
 26 28  1  0  0  0  0
 28 31  1  0  0  0  0
 28 22  2  0  0  0  0
 29 24  1  0  0  0  0
 30 31  1  0  0  0  0
 31 23  2  0  0  0  0
 33 21  1  1  0  0  0
 34 22  1  0  0  0  0
M  END
>  <MODEL>
2

>  <REMARK>
 VINA RESULT:     -10.3      3.097      5.761
  Name = 
  3 active torsions:
  status: ('A' for Active; 'I' for Inactive)
    1  A    between atoms: N_3  and  C_25
    2  A    between atoms: C_8  and  C_18
    3  A    between atoms: C_18  and  C_30
                            x       y       z     vdW  Elec       q    Type
                         _______ _______ _______ _____ _____    ______ ____

>  <TORSDO>
F 3

$$$$
=
 OpenBabel11052416003D

 34 39  0  0  1  0  0  0  0  0999 V2000
  188.3960  177.9260  142.1430 C   0  0  0  0  0  0  0  0  0  0  0  0
  191.5020  176.6320  143.6550 C   0  0  0  0  0  3  0  0  0  0  0  0
  190.9220  176.6570  141.3250 C   0  0  0  0  0  2  0  0  0  0  0  0
  186.2740  178.7010  141.2910 C   0  0  0  0  0  0  0  0  0  0  0  0
  187.0340  178.3760  142.3150 N   0  0  0  0  0  0  0  0  0  0  0  0
  188.1350  178.2300  139.7500 C   0  0  0  0  0  0  0  0  0  0  0  0
  188.8080  177.7560  138.6350 C   0  0  0  0  0  3  0  0  0  0  0  0
  186.7700  178.6100  139.9300 N   0  0  0  0  0  2  0  0  0  0  0  0
  190.0100  177.3250  140.4040 N   0  0  0  0  0  0  0  0  0  0  0  0
  188.9060  177.9340  140.8010 C   0  0  0  0  0  0  0  0  0  0  0  0
  189.9740  177.2060  139.0820 N   0  0  0  0  0  0  0  0  0  0  0  0
  191.5370  176.7390  145.1180 C   0  0  0  0  0  3  0  0  0  0  0  0
  190.5690  176.9930  146.0000 C   0  0  0  0  0  0  0  0  0  0  0  0
  189.1540  177.2080  145.6570 C   0  0  0  0  0  3  0  0  0  0  0  0
  190.5390  176.9140  142.7820 C   0  0  0  0  0  0  0  0  0  0  0  0
  188.5760  177.4030  144.4770 C   0  0  0  0  0  3  0  0  0  0  0  0
  189.1720  177.4480  143.1340 C   0  0  0  0  0  0  0  0  0  0  0  0
  190.9220  177.0160  147.3930 N   0  0  0  0  0  0  0  0  0  0  0  0
  190.1110  177.6080  148.3030 O   0  0  0  0  0  1  0  0  0  0  0  0
  192.1100  176.4180  147.8380 N   0  0  0  0  0  1  0  0  0  0  0  0
  184.8950  179.2310  141.5350 C   0  0  0  0  0  2  0  0  0  0  0  0
  182.5380  178.6100  142.1950 C   0  0  0  0  0  0  0  0  0  0  0  0
  183.3620  177.7670  140.1730 C   0  0  0  0  0  3  0  0  0  0  0  0
  179.2830  178.5290  140.3680 N   0  0  0  0  0  0  0  0  0  0  0  0
  179.9080  178.6700  139.0230 C   0  0  2  0  0  0  0  0  0  0  0  0
  180.1440  179.0260  141.4600 C   0  0  0  0  0  2  0  0  0  0  0  0
  178.9320  178.2310  137.9420 C   0  0  0  0  0  1  0  0  0  0  0  0
  181.5580  178.5480  141.3140 C   0  0  0  0  0  0  0  0  0  0  0  0
  178.9320  177.1390  140.6610 C   0  0  0  0  0  1  0  0  0  0  0  0
  181.2010  177.8390  138.8810 C   0  0  0  0  0  2  0  0  0  0  0  0
  182.0740  178.0540  140.0680 C   0  0  0  0  0  0  0  0  0  0  0  0
  180.2110  180.0160  138.7930 O   0  0  0  0  0  1  0  0  0  0  0  0
  183.8170  178.1360  141.5620 C   0  0  1  0  0  3  0  0  0  0  0  0
  182.4030  179.1060  143.5960 C   0  0  0  0  0  1  0  0  0  0  0  0
  1  5  1  0  0  0  0
  1 17  2  0  0  0  0
  2 12  1  0  0  0  0
  3 15  1  0  0  0  0
  4 21  1  0  0  0  0
  4  5  2  0  0  0  0
  6  8  1  0  0  0  0
  6 10  2  0  0  0  0
  7 11  2  0  0  0  0
  7  6  1  0  0  0  0
  8  4  1  0  0  0  0
  9 10  1  0  0  0  0
  9  3  1  0  0  0  0
 10  1  1  0  0  0  0
 11  9  1  0  0  0  0
 12 13  2  0  0  0  0
 13 18  1  0  0  0  0
 14 13  1  0  0  0  0
 15 17  1  0  0  0  0
 15  2  2  0  0  0  0
 16 14  2  0  0  0  0
 17 16  1  0  0  0  0
 18 20  1  0  0  0  0
 18 19  1  0  0  0  0
 22 34  1  0  0  0  0
 23 33  1  0  0  0  0
 24 29  1  0  0  0  0
 24 26  1  0  0  0  0
 25 27  1  6  0  0  0
 25 24  1  0  0  0  0
 28 26  1  0  0  0  0
 28 22  2  0  0  0  0
 30 25  1  0  0  0  0
 30 31  1  0  0  0  0
 31 23  2  0  0  0  0
 31 28  1  0  0  0  0
 32 25  1  0  0  0  0
 33 21  1  6  0  0  0
 33 22  1  0  0  0  0
M  END
>  <MODEL>
3

>  <REMARK>
 VINA RESULT:     -10.3      3.857      7.873
  Name = 
  3 active torsions:
  status: ('A' for Active; 'I' for Inactive)
    1  A    between atoms: N_3  and  C_25
    2  A    between atoms: C_8  and  C_18
    3  A    between atoms: C_18  and  C_30
                            x       y       z     vdW  Elec       q    Type
                         _______ _______ _______ _____ _____    ______ ____

>  <TORSDO>
F 3

$$$$
=
 OpenBabel11052416003D

 34 39  0  0  1  0  0  0  0  0999 V2000
  188.9970  177.2850  144.6190 C   0  0  0  0  0  0  0  0  0  0  0  0
  186.2480  178.3550  146.8330 C   0  0  0  0  0  3  0  0  0  0  0  0
  188.3820  177.4730  147.4910 C   0  0  0  0  0  2  0  0  0  0  0  0
  190.6730  176.5120  143.0620 C   0  0  0  0  0  0  0  0  0  0  0  0
  189.4470  176.9310  143.2920 N   0  0  0  0  0  0  0  0  0  0  0  0
  191.2230  176.7840  145.4460 C   0  0  0  0  0  0  0  0  0  0  0  0
  191.7500  176.5030  146.6970 C   0  0  0  0  0  3  0  0  0  0  0  0
  191.6340  176.3760  144.1410 N   0  0  0  0  0  2  0  0  0  0  0  0
  189.7230  177.2680  146.9560 N   0  0  0  0  0  0  0  0  0  0  0  0
  189.9840  177.2400  145.6610 C   0  0  0  0  0  0  0  0  0  0  0  0
  190.7890  176.8240  147.6110 N   0  0  0  0  0  0  0  0  0  0  0  0
  185.0590  178.8250  146.1140 C   0  0  0  0  0  3  0  0  0  0  0  0
  184.7090  178.7110  144.8310 C   0  0  0  0  0  0  0  0  0  0  0  0
  185.4990  178.0120  143.8040 C   0  0  0  0  0  3  0  0  0  0  0  0
  187.3850  177.8280  146.3880 C   0  0  0  0  0  0  0  0  0  0  0  0
  186.7430  177.5520  143.8430 C   0  0  0  0  0  3  0  0  0  0  0  0
  187.7240  177.5830  144.9380 C   0  0  0  0  0  0  0  0  0  0  0  0
  183.4480  179.2720  144.4290 N   0  0  0  0  0  0  0  0  0  0  0  0
  183.3760  180.5430  143.9640 O   0  0  0  0  0  1  0  0  0  0  0  0
  182.2730  178.5130  144.5040 N   0  0  0  0  0  1  0  0  0  0  0  0
  191.1050  176.2310  141.6560 C   0  0  0  0  0  2  0  0  0  0  0  0
  191.2420  177.0730  139.2800 C   0  0  0  0  0  0  0  0  0  0  0  0
  189.3420  177.6350  140.5280 C   0  0  0  0  0  3  0  0  0  0  0  0
  188.8290  177.1680  136.4320 N   0  0  0  0  0  0  0  0  0  0  0  0
  187.6470  176.8410  137.2770 C   0  0  2  0  0  0  0  0  0  0  0  0
  190.1070  176.7380  137.0340 C   0  0  0  0  0  2  0  0  0  0  0  0
  186.3640  177.2230  136.5560 C   0  0  0  0  0  1  0  0  0  0  0  0
  190.1890  177.1040  138.4850 C   0  0  0  0  0  0  0  0  0  0  0  0
  188.9160  178.6020  136.1520 C   0  0  0  0  0  1  0  0  0  0  0  0
  187.6760  177.5650  138.6410 C   0  0  0  0  0  2  0  0  0  0  0  0
  189.0230  177.4230  139.2610 C   0  0  0  0  0  0  0  0  0  0  0  0
  187.6070  175.4610  137.5020 O   0  0  0  0  0  1  0  0  0  0  0  0
  190.8220  177.3910  140.6880 C   0  0  1  0  0  3  0  0  0  0  0  0
  192.6320  176.7440  138.8490 C   0  0  0  0  0  1  0  0  0  0  0  0
  1 17  2  0  0  0  0
  1 10  1  0  0  0  0
  4  5  2  0  0  0  0
  4  8  1  0  0  0  0
  5  1  1  0  0  0  0
  6 10  2  0  0  0  0
  6  7  1  0  0  0  0
  7 11  2  0  0  0  0
  8  6  1  0  0  0  0
  9  3  1  0  0  0  0
  9 11  1  0  0  0  0
 10  9  1  0  0  0  0
 12  2  1  0  0  0  0
 13 12  2  0  0  0  0
 14 16  2  0  0  0  0
 14 13  1  0  0  0  0
 15  2  2  0  0  0  0
 15  3  1  0  0  0  0
 16 17  1  0  0  0  0
 17 15  1  0  0  0  0
 18 20  1  0  0  0  0
 18 13  1  0  0  0  0
 19 18  1  0  0  0  0
 21  4  1  0  0  0  0
 22 33  1  0  0  0  0
 23 33  1  0  0  0  0
 24 26  1  0  0  0  0
 24 25  1  0  0  0  0
 25 27  1  6  0  0  0
 25 32  1  0  0  0  0
 25 30  1  0  0  0  0
 26 28  1  0  0  0  0
 28 31  1  0  0  0  0
 28 22  2  0  0  0  0
 29 24  1  0  0  0  0
 30 31  1  0  0  0  0
 31 23  2  0  0  0  0
 33 21  1  1  0  0  0
 34 22  1  0  0  0  0
M  END
>  <MODEL>
4

>  <REMARK>
 VINA RESULT:     -10.2      2.901      5.526
  Name = 
  3 active torsions:
  status: ('A' for Active; 'I' for Inactive)
    1  A    between atoms: N_3  and  C_25
    2  A    between atoms: C_8  and  C_18
    3  A    between atoms: C_18  and  C_30
                            x       y       z     vdW  Elec       q    Type
                         _______ _______ _______ _____ _____    ______ ____

>  <TORSDO>
F 3

$$$$
=
 OpenBabel11052416003D

 34 39  0  0  1  0  0  0  0  0999 V2000
  186.7890  178.1060  144.0030 C   0  0  0  0  0  0  0  0  0  0  0  0
  190.1640  176.9620  143.0520 C   0  0  0  0  0  3  0  0  0  0  0  0
  189.3700  177.4610  145.2620 C   0  0  0  0  0  2  0  0  0  0  0  0
  184.5810  178.9580  144.4810 C   0  0  0  0  0  0  0  0  0  0  0  0
  185.5100  178.6460  143.6030 N   0  0  0  0  0  0  0  0  0  0  0  0
  186.0390  178.1900  146.3090 C   0  0  0  0  0  0  0  0  0  0  0  0
  186.6810  178.1740  147.5380 C   0  0  0  0  0  3  0  0  0  0  0  0
  184.8050  178.7840  145.9040 N   0  0  0  0  0  2  0  0  0  0  0  0
  188.1190  177.6090  145.9970 N   0  0  0  0  0  0  0  0  0  0  0  0
  186.9610  177.8460  145.4050 C   0  0  0  0  0  0  0  0  0  0  0  0
  187.9730  177.8000  147.3030 N   0  0  0  0  0  0  0  0  0  0  0  0
  190.3390  176.7710  141.6080 C   0  0  0  0  0  3  0  0  0  0  0  0
  189.5870  177.1590  140.5770 C   0  0  0  0  0  0  0  0  0  0  0  0
  188.3450  177.9420  140.6890 C   0  0  0  0  0  3  0  0  0  0  0  0
  189.1350  177.4310  143.7530 C   0  0  0  0  0  0  0  0  0  0  0  0
  187.6140  178.2430  141.7550 C   0  0  0  0  0  3  0  0  0  0  0  0
  187.8250  177.9000  143.1690 C   0  0  0  0  0  0  0  0  0  0  0  0
  190.0430  176.8280  139.2540 N   0  0  0  0  0  0  0  0  0  0  0  0
  190.7260  175.6790  139.0270 O   0  0  0  0  0  1  0  0  0  0  0  0
  189.7830  177.6820  138.1750 N   0  0  0  0  0  1  0  0  0  0  0  0
  183.2480  179.4440  144.0020 C   0  0  0  0  0  2  0  0  0  0  0  0
  181.0590  178.7180  142.9760 C   0  0  0  0  0  0  0  0  0  0  0  0
  182.9780  178.6100  141.6390 C   0  0  0  0  0  3  0  0  0  0  0  0
  179.3860  179.4040  139.7090 N   0  0  0  0  0  0  0  0  0  0  0  0
  180.6040  179.9860  139.0810 C   0  0  2  0  0  0  0  0  0  0  0  0
  179.4160  179.4520  141.1850 C   0  0  0  0  0  2  0  0  0  0  0  0
  180.4630  179.9910  137.5670 C   0  0  0  0  0  1  0  0  0  0  0  0
  180.7400  179.0050  141.7280 C   0  0  0  0  0  0  0  0  0  0  0  0
  179.1770  178.0130  139.3030 C   0  0  0  0  0  1  0  0  0  0  0  0
  181.8880  179.2120  139.4500 C   0  0  0  0  0  2  0  0  0  0  0  0
  181.9260  178.9630  140.9180 C   0  0  0  0  0  0  0  0  0  0  0  0
  180.7470  181.3150  139.4930 O   0  0  0  0  0  1  0  0  0  0  0  0
  182.5350  178.4490  143.0720 C   0  0  1  0  0  3  0  0  0  0  0  0
  180.1030  178.6920  144.1210 C   0  0  0  0  0  1  0  0  0  0  0  0
  1 10  1  0  0  0  0
  2 15  2  0  0  0  0
  3  9  1  0  0  0  0
  4  8  1  0  0  0  0
  5  1  1  0  0  0  0
  5  4  2  0  0  0  0
  6  7  1  0  0  0  0
  8  6  1  0  0  0  0
  9 11  1  0  0  0  0
 10  9  1  0  0  0  0
 10  6  2  0  0  0  0
 11  7  2  0  0  0  0
 12  2  1  0  0  0  0
 13 14  1  0  0  0  0
 13 12  2  0  0  0  0
 14 16  2  0  0  0  0
 15  3  1  0  0  0  0
 16 17  1  0  0  0  0
 17 15  1  0  0  0  0
 17  1  2  0  0  0  0
 18 13  1  0  0  0  0
 19 18  1  0  0  0  0
 20 18  1  0  0  0  0
 21  4  1  0  0  0  0
 22 33  1  0  0  0  0
 22 34  1  0  0  0  0
 23 33  1  0  0  0  0
 24 26  1  0  0  0  0
 25 27  1  6  0  0  0
 25 30  1  0  0  0  0
 25 32  1  0  0  0  0
 25 24  1  0  0  0  0
 26 28  1  0  0  0  0
 28 22  2  0  0  0  0
 29 24  1  0  0  0  0
 30 31  1  0  0  0  0
 31 23  2  0  0  0  0
 31 28  1  0  0  0  0
 33 21  1  1  0  0  0
M  END
>  <MODEL>
5

>  <REMARK>
 VINA RESULT:      -9.9      4.177      8.744
  Name = 
  3 active torsions:
  status: ('A' for Active; 'I' for Inactive)
    1  A    between atoms: N_3  and  C_25
    2  A    between atoms: C_8  and  C_18
    3  A    between atoms: C_18  and  C_30
                            x       y       z     vdW  Elec       q    Type
                         _______ _______ _______ _____ _____    ______ ____

>  <TORSDO>
F 3

$$$$
=
 OpenBabel11052416003D

 34 39  0  0  1  0  0  0  0  0999 V2000
  188.4150  177.9600  141.6860 C   0  0  0  0  0  0  0  0  0  0  0  0
  191.4560  176.9220  143.4970 C   0  0  0  0  0  3  0  0  0  0  0  0
  191.1200  176.9480  141.1190 C   0  0  0  0  0  2  0  0  0  0  0  0
  186.3290  178.5570  140.6270 C   0  0  0  0  0  0  0  0  0  0  0  0
  187.0060  178.2800  141.7200 N   0  0  0  0  0  0  0  0  0  0  0  0
  188.3740  178.2940  139.2830 C   0  0  0  0  0  0  0  0  0  0  0  0
  189.2000  177.9100  138.2370 C   0  0  0  0  0  3  0  0  0  0  0  0
  186.9690  178.5440  139.3240 N   0  0  0  0  0  2  0  0  0  0  0  0
  190.2480  177.5500  140.1170 N   0  0  0  0  0  0  0  0  0  0  0  0
  189.0580  178.0460  140.4050 C   0  0  0  0  0  0  0  0  0  0  0  0
  190.3610  177.4590  138.7970 N   0  0  0  0  0  0  0  0  0  0  0  0
  191.3300  176.9980  144.9560 C   0  0  0  0  0  3  0  0  0  0  0  0
  190.2570  177.1420  145.7360 C   0  0  0  0  0  0  0  0  0  0  0  0
  188.8710  177.2340  145.2490 C   0  0  0  0  0  3  0  0  0  0  0  0
  190.5660  177.1340  142.5310 C   0  0  0  0  0  0  0  0  0  0  0  0
  188.4030  177.4020  144.0180 C   0  0  0  0  0  3  0  0  0  0  0  0
  189.1260  177.5330  142.7460 C   0  0  0  0  0  0  0  0  0  0  0  0
  190.4620  177.1640  147.1590 N   0  0  0  0  0  0  0  0  0  0  0  0
  189.4540  177.5100  147.9960 O   0  0  0  0  0  1  0  0  0  0  0  0
  191.7060  176.8220  147.7060 N   0  0  0  0  0  1  0  0  0  0  0  0
  184.8880  178.9540  140.7320 C   0  0  0  0  0  2  0  0  0  0  0  0
  182.8430  178.1020  139.5230 C   0  0  0  0  0  0  0  0  0  0  0  0
  183.6550  180.2170  138.9340 C   0  0  0  0  0  3  0  0  0  0  0  0
  179.5550  179.6260  138.6230 N   0  0  0  0  0  0  0  0  0  0  0  0
  179.9900  181.0170  138.9300 C   0  0  2  0  0  0  0  0  0  0  0  0
  180.3620  178.6010  139.3160 C   0  0  0  0  0  2  0  0  0  0  0  0
  179.0590  182.0170  138.2640 C   0  0  0  0  0  1  0  0  0  0  0  0
  181.8300  178.8910  139.2180 C   0  0  0  0  0  0  0  0  0  0  0  0
  179.5990  179.3470  137.1870 C   0  0  0  0  0  1  0  0  0  0  0  0
  181.4330  181.3030  138.4600 C   0  0  0  0  0  2  0  0  0  0  0  0
  182.3330  180.1940  138.8830 C   0  0  0  0  0  0  0  0  0  0  0  0
  179.9170  181.2300  140.3100 O   0  0  0  0  0  1  0  0  0  0  0  0
  184.1330  178.8640  139.3970 C   0  0  1  0  0  3  0  0  0  0  0  0
  182.7220  176.6790  139.9560 C   0  0  0  0  0  1  0  0  0  0  0  0
  1  5  1  0  0  0  0
  1 17  2  0  0  0  0
  2 12  1  0  0  0  0
  3 15  1  0  0  0  0
  4 21  1  0  0  0  0
  4  5  2  0  0  0  0
  6  8  1  0  0  0  0
  6 10  2  0  0  0  0
  7 11  2  0  0  0  0
  7  6  1  0  0  0  0
  8  4  1  0  0  0  0
  9 10  1  0  0  0  0
  9  3  1  0  0  0  0
 10  1  1  0  0  0  0
 11  9  1  0  0  0  0
 12 13  2  0  0  0  0
 13 18  1  0  0  0  0
 14 13  1  0  0  0  0
 15 17  1  0  0  0  0
 15  2  2  0  0  0  0
 16 14  2  0  0  0  0
 17 16  1  0  0  0  0
 18 20  1  0  0  0  0
 18 19  1  0  0  0  0
 22 34  1  0  0  0  0
 23 33  1  0  0  0  0
 24 25  1  0  0  0  0
 24 26  1  0  0  0  0
 25 27  1  6  0  0  0
 25 32  1  0  0  0  0
 28 26  1  0  0  0  0
 28 22  2  0  0  0  0
 29 24  1  0  0  0  0
 30 31  1  0  0  0  0
 30 25  1  0  0  0  0
 31 23  2  0  0  0  0
 31 28  1  0  0  0  0
 33 22  1  0  0  0  0
 33 21  1  1  0  0  0
M  END
>  <MODEL>
6

>  <REMARK>
 VINA RESULT:      -9.9      4.259      7.845
  Name = 
  3 active torsions:
  status: ('A' for Active; 'I' for Inactive)
    1  A    between atoms: N_3  and  C_25
    2  A    between atoms: C_8  and  C_18
    3  A    between atoms: C_18  and  C_30
                            x       y       z     vdW  Elec       q    Type
                         _______ _______ _______ _____ _____    ______ ____

>  <TORSDO>
F 3

$$$$
=
 OpenBabel11052416003D

 34 39  0  0  1  0  0  0  0  0999 V2000
  187.1490  178.2650  141.7840 C   0  0  0  0  0  0  0  0  0  0  0  0
  185.6780  178.2050  145.1660 C   0  0  0  0  0  3  0  0  0  0  0  0
  184.6110  178.9020  143.1300 C   0  0  0  0  0  2  0  0  0  0  0  0
  188.2630  178.3650  139.6450 C   0  0  0  0  0  0  0  0  0  0  0  0
  188.3260  178.2030  140.9490 N   0  0  0  0  0  0  0  0  0  0  0  0
  185.8200  178.6270  139.7860 C   0  0  0  0  0  0  0  0  0  0  0  0
  184.5530  179.1350  139.5440 C   0  0  0  0  0  3  0  0  0  0  0  0
  186.9990  178.6270  138.9810 N   0  0  0  0  0  2  0  0  0  0  0  0
  184.7550  178.7660  141.6860 N   0  0  0  0  0  0  0  0  0  0  0  0
  185.8930  178.4270  141.1060 C   0  0  0  0  0  0  0  0  0  0  0  0
  183.9180  179.2000  140.7510 N   0  0  0  0  0  0  0  0  0  0  0  0
  186.6050  177.7480  146.2060 C   0  0  0  0  0  3  0  0  0  0  0  0
  187.9300  177.5850  146.1880 C   0  0  0  0  0  0  0  0  0  0  0  0
  188.7960  177.8780  145.0350 C   0  0  0  0  0  3  0  0  0  0  0  0
  185.8630  178.4300  143.8680 C   0  0  0  0  0  0  0  0  0  0  0  0
  188.4850  178.1450  143.7720 C   0  0  0  0  0  3  0  0  0  0  0  0
  187.1670  178.2480  143.1300 C   0  0  0  0  0  0  0  0  0  0  0  0
  188.5640  177.1310  147.3950 N   0  0  0  0  0  0  0  0  0  0  0  0
  189.6900  176.3780  147.3420 O   0  0  0  0  0  1  0  0  0  0  0  0
  188.0350  177.4660  148.6480 N   0  0  0  0  0  1  0  0  0  0  0  0
  189.5060  178.2160  138.8220 C   0  0  0  0  0  2  0  0  0  0  0  0
  189.9850  176.6320  136.9150 C   0  0  0  0  0  0  0  0  0  0  0  0
  191.1050  176.2720  138.9390 C   0  0  0  0  0  3  0  0  0  0  0  0
  193.1190  175.2140  135.4630 N   0  0  0  0  0  0  0  0  0  0  0  0
  193.9740  175.6410  136.6050 C   0  0  2  0  0  0  0  0  0  0  0  0
  191.8770  176.0030  135.3430 C   0  0  0  0  0  2  0  0  0  0  0  0
  195.2750  174.8550  136.6110 C   0  0  0  0  0  1  0  0  0  0  0  0
  191.2000  176.1780  136.6690 C   0  0  0  0  0  0  0  0  0  0  0  0
  192.7530  173.7990  135.5580 C   0  0  0  0  0  1  0  0  0  0  0  0
  193.2790  175.4460  137.9700 C   0  0  0  0  0  2  0  0  0  0  0  0
  191.8910  175.9840  137.9130 C   0  0  0  0  0  0  0  0  0  0  0  0
  194.3010  176.9930  136.4570 O   0  0  0  0  0  1  0  0  0  0  0  0
  189.7860  176.7640  138.4000 C   0  0  1  0  0  3  0  0  0  0  0  0
  188.9750  176.9860  135.8760 C   0  0  0  0  0  1  0  0  0  0  0  0
  1 17  2  0  0  0  0
  2 12  1  0  0  0  0
  3 15  1  0  0  0  0
  4  5  2  0  0  0  0
  5  1  1  0  0  0  0
  6 10  2  0  0  0  0
  7  6  1  0  0  0  0
  7 11  2  0  0  0  0
  8  4  1  0  0  0  0
  8  6  1  0  0  0  0
  9  3  1  0  0  0  0
 10  9  1  0  0  0  0
 10  1  1  0  0  0  0
 11  9  1  0  0  0  0
 13 12  2  0  0  0  0
 13 18  1  0  0  0  0
 14 13  1  0  0  0  0
 15  2  2  0  0  0  0
 16 14  2  0  0  0  0
 17 16  1  0  0  0  0
 17 15  1  0  0  0  0
 18 20  1  0  0  0  0
 19 18  1  0  0  0  0
 21  4  1  0  0  0  0
 22 33  1  0  0  0  0
 24 29  1  0  0  0  0
 24 25  1  0  0  0  0
 25 27  1  6  0  0  0
 25 30  1  0  0  0  0
 26 24  1  0  0  0  0
 26 28  1  0  0  0  0
 28 22  2  0  0  0  0
 28 31  1  0  0  0  0
 31 30  1  0  0  0  0
 31 23  2  0  0  0  0
 32 25  1  0  0  0  0
 33 21  1  6  0  0  0
 33 23  1  0  0  0  0
 34 22  1  0  0  0  0
M  END
>  <MODEL>
7

>  <REMARK>
 VINA RESULT:      -9.8      1.564      2.059
  Name = 
  3 active torsions:
  status: ('A' for Active; 'I' for Inactive)
    1  A    between atoms: N_3  and  C_25
    2  A    between atoms: C_8  and  C_18
    3  A    between atoms: C_18  and  C_30
                            x       y       z     vdW  Elec       q    Type
                         _______ _______ _______ _____ _____    ______ ____

>  <TORSDO>
F 3

$$$$
=
 OpenBabel11052416003D

 34 39  0  0  1  0  0  0  0  0999 V2000
  189.0670  177.8200  141.2060 C   0  0  0  0  0  0  0  0  0  0  0  0
  187.1140  178.1480  138.0930 C   0  0  0  0  0  3  0  0  0  0  0  0
  189.4920  177.8780  138.2940 C   0  0  0  0  0  2  0  0  0  0  0  0
  190.2390  177.7300  143.3140 C   0  0  0  0  0  0  0  0  0  0  0  0
  189.1280  177.9480  142.6430 N   0  0  0  0  0  0  0  0  0  0  0  0
  191.4030  177.1670  141.2200 C   0  0  0  0  0  0  0  0  0  0  0  0
  192.4040  177.1280  140.2620 C   0  0  0  0  0  3  0  0  0  0  0  0
  191.4660  177.3600  142.6340 N   0  0  0  0  0  2  0  0  0  0  0  0
  190.4920  177.4260  139.2550 N   0  0  0  0  0  0  0  0  0  0  0  0
  190.2600  177.3580  140.5540 C   0  0  0  0  0  0  0  0  0  0  0  0
  191.7960  177.2860  139.0500 N   0  0  0  0  0  0  0  0  0  0  0  0
  185.6750  178.3270  138.3140 C   0  0  0  0  0  3  0  0  0  0  0  0
  184.9900  178.6280  139.4190 C   0  0  0  0  0  0  0  0  0  0  0  0
  185.5920  178.8860  140.7360 C   0  0  0  0  0  3  0  0  0  0  0  0
  188.1270  178.0740  138.9530 C   0  0  0  0  0  0  0  0  0  0  0  0
  186.8320  178.6900  141.1680 C   0  0  0  0  0  3  0  0  0  0  0  0
  188.0040  178.1630  140.4540 C   0  0  0  0  0  0  0  0  0  0  0  0
  183.5620  178.7530  139.3070 N   0  0  0  0  0  0  0  0  0  0  0  0
  183.0010  179.9170  138.9000 O   0  0  0  0  0  1  0  0  0  0  0  0
  182.7250  177.6700  139.6080 N   0  0  0  0  0  1  0  0  0  0  0  0
  190.2230  177.8050  144.8100 C   0  0  0  0  0  2  0  0  0  0  0  0
  188.4280  177.8780  146.5830 C   0  0  0  0  0  0  0  0  0  0  0  0
  187.8550  177.0080  144.4860 C   0  0  0  0  0  3  0  0  0  0  0  0
  184.8540  178.9600  146.5930 N   0  0  0  0  0  0  0  0  0  0  0  0
  184.7530  179.0240  145.1090 C   0  0  2  0  0  0  0  0  0  0  0  0
  186.2430  179.0690  147.0840 C   0  0  0  0  0  2  0  0  0  0  0  0
  183.2950  179.0030  144.6800 C   0  0  0  0  0  1  0  0  0  0  0  0
  187.1790  178.1970  146.3020 C   0  0  0  0  0  0  0  0  0  0  0  0
  184.2790  177.7230  147.1250 C   0  0  0  0  0  1  0  0  0  0  0  0
  185.4830  177.8530  144.4150 C   0  0  0  0  0  2  0  0  0  0  0  0
  186.8410  177.6840  145.0040 C   0  0  0  0  0  0  0  0  0  0  0  0
  185.3050  180.2270  144.6590 O   0  0  0  0  0  1  0  0  0  0  0  0
  189.0170  177.0940  145.4430 C   0  0  1  0  0  3  0  0  0  0  0  0
  189.1520  178.2630  147.8290 C   0  0  0  0  0  1  0  0  0  0  0  0
  1  5  1  0  0  0  0
  2 12  1  0  0  0  0
  2 15  2  0  0  0  0
  3 15  1  0  0  0  0
  3  9  1  0  0  0  0
  4 21  1  0  0  0  0
  5  4  2  0  0  0  0
  6  8  1  0  0  0  0
  7  6  1  0  0  0  0
  8  4  1  0  0  0  0
  9 10  1  0  0  0  0
 10  1  1  0  0  0  0
 10  6  2  0  0  0  0
 11  9  1  0  0  0  0
 11  7  2  0  0  0  0
 12 13  2  0  0  0  0
 13 14  1  0  0  0  0
 14 16  2  0  0  0  0
 15 17  1  0  0  0  0
 17 16  1  0  0  0  0
 17  1  2  0  0  0  0
 18 13  1  0  0  0  0
 18 20  1  0  0  0  0
 19 18  1  0  0  0  0
 22 34  1  0  0  0  0
 23 31  2  0  0  0  0
 23 33  1  0  0  0  0
 24 26  1  0  0  0  0
 24 29  1  0  0  0  0
 25 27  1  6  0  0  0
 25 24  1  0  0  0  0
 28 22  2  0  0  0  0
 28 26  1  0  0  0  0
 30 31  1  0  0  0  0
 30 25  1  0  0  0  0
 31 28  1  0  0  0  0
 32 25  1  0  0  0  0
 33 21  1  6  0  0  0
 33 22  1  0  0  0  0
M  END
>  <MODEL>
8

>  <REMARK>
 VINA RESULT:      -9.8      3.608      9.231
  Name = 
  3 active torsions:
  status: ('A' for Active; 'I' for Inactive)
    1  A    between atoms: N_3  and  C_25
    2  A    between atoms: C_8  and  C_18
    3  A    between atoms: C_18  and  C_30
                            x       y       z     vdW  Elec       q    Type
                         _______ _______ _______ _____ _____    ______ ____

>  <TORSDO>
F 3

$$$$
=
 OpenBabel11052416003D

 34 39  0  0  1  0  0  0  0  0999 V2000
  187.1000  177.9590  144.2250 C   0  0  0  0  0  0  0  0  0  0  0  0
  188.2760  177.5890  147.7020 C   0  0  0  0  0  3  0  0  0  0  0  0
  186.1700  178.4790  146.9680 C   0  0  0  0  0  2  0  0  0  0  0  0
  186.4960  178.2530  141.9070 C   0  0  0  0  0  0  0  0  0  0  0  0
  187.4060  177.9690  142.8130 N   0  0  0  0  0  0  0  0  0  0  0  0
  184.8030  178.5130  143.6740 C   0  0  0  0  0  0  0  0  0  0  0  0
  183.7380  179.0480  144.3840 C   0  0  0  0  0  3  0  0  0  0  0  0
  185.1350  178.5830  142.2870 N   0  0  0  0  0  2  0  0  0  0  0  0
  185.2990  178.4790  145.7990 N   0  0  0  0  0  0  0  0  0  0  0  0
  185.7290  178.1900  144.5830 C   0  0  0  0  0  0  0  0  0  0  0  0
  184.0830  179.0030  145.7040 N   0  0  0  0  0  0  0  0  0  0  0  0
  189.6280  177.0330  147.8130 C   0  0  0  0  0  3  0  0  0  0  0  0
  190.5840  176.8650  146.8960 C   0  0  0  0  0  0  0  0  0  0  0  0
  190.4710  177.2600  145.4830 C   0  0  0  0  0  3  0  0  0  0  0  0
  187.5580  177.9340  146.6360 C   0  0  0  0  0  0  0  0  0  0  0  0
  189.4120  177.6460  144.7810 C   0  0  0  0  0  3  0  0  0  0  0  0
  188.0150  177.8160  145.2020 C   0  0  0  0  0  0  0  0  0  0  0  0
  191.8320  176.2970  147.3270 N   0  0  0  0  0  0  0  0  0  0  0  0
  192.4480  176.7530  148.4450 O   0  0  0  0  0  1  0  0  0  0  0  0
  192.4310  175.2570  146.6040 N   0  0  0  0  0  1  0  0  0  0  0  0
  186.8530  178.1750  140.4540 C   0  0  0  0  0  2  0  0  0  0  0  0
  189.1680  177.1740  140.3390 C   0  0  0  0  0  0  0  0  0  0  0  0
  188.5940  178.7810  138.7360 C   0  0  0  0  0  3  0  0  0  0  0  0
  191.2590  175.8200  137.5580 N   0  0  0  0  0  0  0  0  0  0  0  0
  190.3900  176.3780  136.4840 C   0  0  2  0  0  0  0  0  0  0  0  0
  190.5560  175.6600  138.8470 C   0  0  0  0  0  2  0  0  0  0  0  0
  191.1480  176.4240  135.1670 C   0  0  0  0  0  1  0  0  0  0  0  0
  189.7450  176.8730  139.1910 C   0  0  0  0  0  0  0  0  0  0  0  0
  192.4430  176.6490  137.7850 C   0  0  0  0  0  1  0  0  0  0  0  0
  189.8880  177.8010  136.8100 C   0  0  0  0  0  2  0  0  0  0  0  0
  189.3690  177.8480  138.2050 C   0  0  0  0  0  0  0  0  0  0  0  0
  189.2840  175.5410  136.3030 O   0  0  0  0  0  1  0  0  0  0  0  0
  188.3450  178.4220  140.1790 C   0  0  1  0  0  3  0  0  0  0  0  0
  189.2900  176.3780  141.5950 C   0  0  0  0  0  1  0  0  0  0  0  0
  1 10  1  0  0  0  0
  1 17  2  0  0  0  0
  2 12  1  0  0  0  0
  4  8  1  0  0  0  0
  4  5  2  0  0  0  0
  5  1  1  0  0  0  0
  6  7  1  0  0  0  0
  6 10  2  0  0  0  0
  7 11  2  0  0  0  0
  8  6  1  0  0  0  0
  9  3  1  0  0  0  0
 10  9  1  0  0  0  0
 11  9  1  0  0  0  0
 13 18  1  0  0  0  0
 13 12  2  0  0  0  0
 14 13  1  0  0  0  0
 15  3  1  0  0  0  0
 15  2  2  0  0  0  0
 16 17  1  0  0  0  0
 16 14  2  0  0  0  0
 17 15  1  0  0  0  0
 18 19  1  0  0  0  0
 20 18  1  0  0  0  0
 21  4  1  0  0  0  0
 22 34  1  0  0  0  0
 23 33  1  0  0  0  0
 24 29  1  0  0  0  0
 24 26  1  0  0  0  0
 25 27  1  6  0  0  0
 25 30  1  0  0  0  0
 25 24  1  0  0  0  0
 26 28  1  0  0  0  0
 28 22  2  0  0  0  0
 30 31  1  0  0  0  0
 31 23  2  0  0  0  0
 31 28  1  0  0  0  0
 32 25  1  0  0  0  0
 33 22  1  0  0  0  0
 33 21  1  6  0  0  0
M  END
>  <MODEL>
9

>  <REMARK>
 VINA RESULT:      -9.7      1.576      2.665
  Name = 
  3 active torsions:
  status: ('A' for Active; 'I' for Inactive)
    1  A    between atoms: N_3  and  C_25
    2  A    between atoms: C_8  and  C_18
    3  A    between atoms: C_18  and  C_30
                            x       y       z     vdW  Elec       q    Type
                         _______ _______ _______ _____ _____    ______ ____

>  <TORSDO>
F 3

$$$$
