=
 OpenBabel11052413353D

 28 29  0  0  1  0  0  0  0  0999 V2000
  190.3400  175.3080  142.6830 O   0  0  0  0  0  1  0  0  0  0  0  0
  188.7670  177.4020  141.2060 C   0  0  0  0  0  2  0  0  0  0  0  0
  190.5840  177.5690  143.4850 C   0  0  2  0  0  3  0  0  0  0  0  0
  188.6750  178.5500  142.2010 C   0  0  0  0  0  2  0  0  0  0  0  0
  190.8250  176.5700  142.3380 C   0  0  2  0  0  3  0  0  0  0  0  0
  190.2270  177.0480  141.0160 C   0  0  1  0  0  3  0  0  0  0  0  0
  189.2450  178.2090  143.5210 N   0  0  0  0  0  0  0  0  0  0  0  0
  188.2700  177.5720  144.4480 C   0  0  1  0  0  0  0  0  0  0  0  0
  187.5260  176.4400  143.7530 C   0  0  0  0  0  1  0  0  0  0  0  0
  188.9720  176.9300  145.6610 C   0  0  0  0  0  2  0  0  0  0  0  0
  189.1460  177.8440  146.7030 O   0  0  0  0  0  0  0  0  0  0  0  0
  188.6270  177.1990  147.8240 C   0  0  0  0  0  1  0  0  0  0  0  0
  187.2830  178.4970  144.8800 O   0  0  0  0  0  0  0  0  0  0  0  0
  186.0450  177.8500  145.0560 C   0  0  0  0  0  2  0  0  0  0  0  0
  185.3560  178.3630  146.3090 C   0  0  1  0  0  3  0  0  0  0  0  0
  186.1470  179.3120  146.9300 F   0  0  0  0  0  0  0  0  0  0  0  0
  184.1210  178.9210  145.9810 O   0  0  0  0  0  1  0  0  0  0  0  0
  191.2530  179.8660  144.3240 C   0  0  0  0  0  1  0  0  0  0  0  0
  191.7050  178.5990  143.6160 C   0  0  0  0  0  2  0  0  0  0  0  0
  190.3600  176.0620  140.0340 O   0  0  0  0  0  0  0  0  0  0  0  0
  190.8120  176.7420  138.8990 C   0  0  0  0  0  2  0  0  0  0  0  0
  188.3080  178.5740  136.7300 C   0  0  0  0  0  3  0  0  0  0  0  0
  189.6690  177.0090  137.9840 C   0  0  0  0  0  0  0  0  0  0  0  0
  187.8720  176.1960  136.5760 C   0  0  0  0  0  0  0  0  0  0  0  0
  189.3630  178.3240  137.6130 C   0  0  0  0  0  3  0  0  0  0  0  0
  188.9280  175.9450  137.4580 C   0  0  0  0  0  3  0  0  0  0  0  0
  186.9420  174.8650  135.9240 Cl  0  0  0  0  0  0  0  0  0  0  0  0
  187.5620  177.5100  136.2120 C   0  0  0  0  0  3  0  0  0  0  0  0
  2  4  1  0  0  0  0
  3  7  1  0  0  0  0
  3 19  1  6  0  0  0
  4  7  1  0  0  0  0
  5  1  1  1  0  0  0
  5  3  1  0  0  0  0
  6 20  1  6  0  0  0
  6  2  1  0  0  0  0
  6  5  1  0  0  0  0
  7  8  1  0  0  0  0
  8  9  1  6  0  0  0
  8 13  1  0  0  0  0
  8 10  1  0  0  0  0
 10 11  1  0  0  0  0
 11 12  1  0  0  0  0
 13 14  1  0  0  0  0
 14 15  1  0  0  0  0
 15 17  1  6  0  0  0
 15 16  1  0  0  0  0
 19 18  1  0  0  0  0
 21 20  1  0  0  0  0
 22 25  1  0  0  0  0
 23 21  1  0  0  0  0
 24 26  2  0  0  0  0
 25 23  2  0  0  0  0
 26 23  1  0  0  0  0
 27 24  1  0  0  0  0
 28 24  1  0  0  0  0
 28 22  2  0  0  0  0
M  END
>  <MODEL>
1

>  <REMARK>
 VINA RESULT:      -6.7      0.000      0.000
  Name = 
  10 active torsions:
  status: ('A' for Active; 'I' for Inactive)
    1  A    between atoms: C_1  and  C_3
    2  A    between atoms: C_1  and  O_11
    3  A    between atoms: C_1  and  N_27
    4  A    between atoms: O_2  and  C_3
    5  A    between atoms: C_6  and  C_8
    6  A    between atoms: C_8  and  O_11
    7  A    between atoms: C_9  and  C_18
    8  A    between atoms: O_14  and  C_18
    9  A    between atoms: O_14  and  C_25
   10  A    between atoms: C_16  and  C_21
                            x       y       z     vdW  Elec       q    Type
                         _______ _______ _______ _____ _____    ______ ____

>  <TORSDO>
F 10

$$$$
=
 OpenBabel11052413353D

 28 29  0  0  1  0  0  0  0  0999 V2000
  190.4760  179.0320  143.8610 O   0  0  0  0  0  1  0  0  0  0  0  0
  188.3030  177.0990  143.0980 C   0  0  0  0  0  2  0  0  0  0  0  0
  191.1950  176.7890  143.3460 C   0  0  2  0  0  3  0  0  0  0  0  0
  189.0430  176.0090  142.3370 C   0  0  0  0  0  2  0  0  0  0  0  0
  190.4030  177.7070  144.2940 C   0  0  2  0  0  3  0  0  0  0  0  0
  188.9510  177.2600  144.4580 C   0  0  1  0  0  3  0  0  0  0  0  0
  190.4730  176.3220  142.1360 N   0  0  0  0  0  0  0  0  0  0  0  0
  190.7450  177.1100  140.9010 C   0  0  1  0  0  0  0  0  0  0  0  0
  192.1220  177.7560  140.9670 C   0  0  0  0  0  1  0  0  0  0  0  0
  190.7620  176.2150  139.6460 C   0  0  0  0  0  2  0  0  0  0  0  0
  191.9520  176.3540  138.9280 O   0  0  0  0  0  0  0  0  0  0  0  0
  191.6170  175.9940  137.6240 C   0  0  0  0  0  1  0  0  0  0  0  0
  189.8100  178.1680  140.7430 O   0  0  0  0  0  0  0  0  0  0  0  0
  189.2470  178.1380  139.4540 C   0  0  0  0  0  2  0  0  0  0  0  0
  187.7300  178.1310  139.5430 C   0  0  1  0  0  3  0  0  0  0  0  0
  187.3160  178.8690  140.6370 F   0  0  0  0  0  0  0  0  0  0  0  0
  187.1800  178.6670  138.3780 O   0  0  0  0  0  1  0  0  0  0  0  0
  191.9490  175.8550  145.5790 C   0  0  0  0  0  1  0  0  0  0  0  0
  191.8750  175.6320  144.0770 C   0  0  0  0  0  2  0  0  0  0  0  0
  188.2370  178.1860  145.2240 O   0  0  0  0  0  0  0  0  0  0  0  0
  187.1820  177.4570  145.7800 C   0  0  0  0  0  2  0  0  0  0  0  0
  183.7070  178.9580  145.7320 C   0  0  0  0  0  3  0  0  0  0  0  0
  185.8840  177.9910  145.2860 C   0  0  0  0  0  0  0  0  0  0  0  0
  184.4390  178.6250  143.4470 C   0  0  0  0  0  0  0  0  0  0  0  0
  184.9150  178.4290  146.1960 C   0  0  0  0  0  3  0  0  0  0  0  0
  185.6480  178.0970  143.9110 C   0  0  0  0  0  3  0  0  0  0  0  0
  184.1420  178.7510  141.7270 Cl  0  0  0  0  0  0  0  0  0  0  0  0
  183.4690  179.0550  144.3580 C   0  0  0  0  0  3  0  0  0  0  0  0
  2  6  1  0  0  0  0
  3 19  1  1  0  0  0
  3  5  1  0  0  0  0
  4  2  1  0  0  0  0
  5  1  1  6  0  0  0
  5  6  1  0  0  0  0
  6 20  1  1  0  0  0
  7  4  1  0  0  0  0
  7  3  1  0  0  0  0
  8  9  1  1  0  0  0
  8  7  1  0  0  0  0
 10  8  1  0  0  0  0
 11 10  1  0  0  0  0
 12 11  1  0  0  0  0
 13  8  1  0  0  0  0
 14 15  1  0  0  0  0
 14 13  1  0  0  0  0
 15 17  1  6  0  0  0
 15 16  1  0  0  0  0
 19 18  1  0  0  0  0
 20 21  1  0  0  0  0
 22 25  1  0  0  0  0
 23 21  1  0  0  0  0
 23 25  2  0  0  0  0
 24 26  2  0  0  0  0
 24 28  1  0  0  0  0
 26 23  1  0  0  0  0
 27 24  1  0  0  0  0
 28 22  2  0  0  0  0
M  END
>  <MODEL>
2

>  <REMARK>
 VINA RESULT:      -6.5      2.790      6.560
  Name = 
  10 active torsions:
  status: ('A' for Active; 'I' for Inactive)
    1  A    between atoms: C_1  and  C_3
    2  A    between atoms: C_1  and  O_11
    3  A    between atoms: C_1  and  N_27
    4  A    between atoms: O_2  and  C_3
    5  A    between atoms: C_6  and  C_8
    6  A    between atoms: C_8  and  O_11
    7  A    between atoms: C_9  and  C_18
    8  A    between atoms: O_14  and  C_18
    9  A    between atoms: O_14  and  C_25
   10  A    between atoms: C_16  and  C_21
                            x       y       z     vdW  Elec       q    Type
                         _______ _______ _______ _____ _____    ______ ____

>  <TORSDO>
F 10

$$$$
=
 OpenBabel11052413353D

 28 29  0  0  1  0  0  0  0  0999 V2000
  190.3500  175.2980  142.7570 O   0  0  0  0  0  1  0  0  0  0  0  0
  188.8190  177.3510  141.1820 C   0  0  0  0  0  2  0  0  0  0  0  0
  190.5770  177.5800  143.5020 C   0  0  2  0  0  3  0  0  0  0  0  0
  188.7030  178.5260  142.1420 C   0  0  0  0  0  2  0  0  0  0  0  0
  190.8460  176.5500  142.3900 C   0  0  2  0  0  3  0  0  0  0  0  0
  190.2830  176.9910  141.0400 C   0  0  1  0  0  3  0  0  0  0  0  0
  189.2390  178.2230  143.4850 N   0  0  0  0  0  0  0  0  0  0  0  0
  188.2400  177.6130  144.4050 C   0  0  1  0  0  0  0  0  0  0  0  0
  187.4800  176.4920  143.7090 C   0  0  0  0  0  1  0  0  0  0  0  0
  188.9140  176.9630  145.6300 C   0  0  0  0  0  2  0  0  0  0  0  0
  189.0330  177.8630  146.6920 O   0  0  0  0  0  0  0  0  0  0  0  0
  188.4830  177.1910  147.7830 C   0  0  0  0  0  1  0  0  0  0  0  0
  187.2670  178.5620  144.8190 O   0  0  0  0  0  0  0  0  0  0  0  0
  186.0000  177.9570  144.9170 C   0  0  0  0  0  2  0  0  0  0  0  0
  185.2930  178.4180  146.1800 C   0  0  1  0  0  3  0  0  0  0  0  0
  186.0570  179.3710  146.8300 F   0  0  0  0  0  0  0  0  0  0  0  0
  184.0450  178.9510  145.8630 O   0  0  0  0  0  1  0  0  0  0  0  0
  191.2460  179.8730  144.3530 C   0  0  0  0  0  1  0  0  0  0  0  0
  191.6960  178.6120  143.6320 C   0  0  0  0  0  2  0  0  0  0  0  0
  190.4390  175.9770  140.0900 O   0  0  0  0  0  0  0  0  0  0  0  0
  190.9510  176.6190  138.9580 C   0  0  0  0  0  2  0  0  0  0  0  0
  191.5140  173.7340  136.5730 C   0  0  0  0  0  3  0  0  0  0  0  0
  191.6310  175.6280  138.0800 C   0  0  0  0  0  0  0  0  0  0  0  0
  193.6470  174.7870  137.0310 C   0  0  0  0  0  0  0  0  0  0  0  0
  190.8810  174.6470  137.4210 C   0  0  0  0  0  3  0  0  0  0  0  0
  193.0130  175.7020  137.8780 C   0  0  0  0  0  3  0  0  0  0  0  0
  195.3770  174.8770  136.7850 Cl  0  0  0  0  0  0  0  0  0  0  0  0
  192.8970  173.8030  136.3790 C   0  0  0  0  0  3  0  0  0  0  0  0
  2  4  1  0  0  0  0
  3 19  1  6  0  0  0
  4  7  1  0  0  0  0
  5  1  1  1  0  0  0
  5  3  1  0  0  0  0
  6 20  1  6  0  0  0
  6  2  1  0  0  0  0
  6  5  1  0  0  0  0
  7  3  1  0  0  0  0
  7  8  1  0  0  0  0
  8  9  1  6  0  0  0
  8 13  1  0  0  0  0
  8 10  1  0  0  0  0
 10 11  1  0  0  0  0
 11 12  1  0  0  0  0
 13 14  1  0  0  0  0
 14 15  1  0  0  0  0
 15 17  1  6  0  0  0
 15 16  1  0  0  0  0
 19 18  1  0  0  0  0
 21 20  1  0  0  0  0
 22 25  1  0  0  0  0
 23 21  1  0  0  0  0
 24 26  2  0  0  0  0
 25 23  2  0  0  0  0
 26 23  1  0  0  0  0
 27 24  1  0  0  0  0
 28 22  2  0  0  0  0
 28 24  1  0  0  0  0
M  END
>  <MODEL>
3

>  <REMARK>
 VINA RESULT:      -6.5      2.199      2.817
  Name = 
  10 active torsions:
  status: ('A' for Active; 'I' for Inactive)
    1  A    between atoms: C_1  and  C_3
    2  A    between atoms: C_1  and  O_11
    3  A    between atoms: C_1  and  N_27
    4  A    between atoms: O_2  and  C_3
    5  A    between atoms: C_6  and  C_8
    6  A    between atoms: C_8  and  O_11
    7  A    between atoms: C_9  and  C_18
    8  A    between atoms: O_14  and  C_18
    9  A    between atoms: O_14  and  C_25
   10  A    between atoms: C_16  and  C_21
                            x       y       z     vdW  Elec       q    Type
                         _______ _______ _______ _____ _____    ______ ____

>  <TORSDO>
F 10

$$$$
=
 OpenBabel11052413353D

 28 29  0  0  1  0  0  0  0  0999 V2000
  184.2440  180.1270  139.4670 O   0  0  0  0  0  1  0  0  0  0  0  0
  182.4070  178.5360  141.2390 C   0  0  0  0  0  2  0  0  0  0  0  0
  182.8720  178.4840  138.3570 C   0  0  2  0  0  3  0  0  0  0  0  0
  181.3430  178.0210  140.2810 C   0  0  0  0  0  2  0  0  0  0  0  0
  184.0170  178.7550  139.3490 C   0  0  2  0  0  3  0  0  0  0  0  0
  183.7660  178.1190  140.7160 C   0  0  1  0  0  3  0  0  0  0  0  0
  181.4970  178.5550  138.9130 N   0  0  0  0  0  0  0  0  0  0  0  0
  180.8000  179.8530  138.6940 C   0  0  1  0  0  0  0  0  0  0  0  0
  179.4040  179.6260  138.1300 C   0  0  0  0  0  1  0  0  0  0  0  0
  180.5980  180.6220  140.0150 C   0  0  0  0  0  2  0  0  0  0  0  0
  179.2450  180.7360  140.3460 O   0  0  0  0  0  0  0  0  0  0  0  0
  179.2320  180.8270  141.7360 C   0  0  0  0  0  1  0  0  0  0  0  0
  181.4900  180.6610  137.7510 O   0  0  0  0  0  0  0  0  0  0  0  0
  181.5540  181.9940  138.1980 C   0  0  0  0  0  2  0  0  0  0  0  0
  180.8950  182.9200  137.1900 C   0  0  1  0  0  3  0  0  0  0  0  0
  181.6760  184.0440  136.9970 F   0  0  0  0  0  0  0  0  0  0  0  0
  180.7160  182.2560  135.9770 O   0  0  0  0  0  1  0  0  0  0  0  0
  184.5510  176.9540  137.2320 C   0  0  0  0  0  1  0  0  0  0  0  0
  183.0850  177.2070  137.5450 C   0  0  0  0  0  2  0  0  0  0  0  0
  184.7650  178.4900  141.6200 O   0  0  0  0  0  0  0  0  0  0  0  0
  184.0830  178.8360  142.7900 C   0  0  0  0  0  2  0  0  0  0  0  0
  185.2400  178.5030  146.3790 C   0  0  0  0  0  3  0  0  0  0  0  0
  184.9320  178.5400  143.9750 C   0  0  0  0  0  0  0  0  0  0  0  0
  186.9780  177.6520  144.9230 C   0  0  0  0  0  0  0  0  0  0  0  0
  184.4540  178.8070  145.2630 C   0  0  0  0  0  3  0  0  0  0  0  0
  186.1920  177.9550  143.8070 C   0  0  0  0  0  3  0  0  0  0  0  0
  188.5560  176.9270  144.7100 Cl  0  0  0  0  0  0  0  0  0  0  0  0
  186.5020  177.9260  146.2090 C   0  0  0  0  0  3  0  0  0  0  0  0
  3 19  1  1  0  0  0
  3  7  1  0  0  0  0
  3  5  1  0  0  0  0
  4  2  1  0  0  0  0
  5  1  1  1  0  0  0
  5  6  1  0  0  0  0
  6  2  1  0  0  0  0
  6 20  1  1  0  0  0
  7  4  1  0  0  0  0
  8  9  1  6  0  0  0
  8  7  1  0  0  0  0
  8 10  1  0  0  0  0
 10 11  1  0  0  0  0
 11 12  1  0  0  0  0
 13 14  1  0  0  0  0
 13  8  1  0  0  0  0
 15 17  1  6  0  0  0
 15 14  1  0  0  0  0
 16 15  1  0  0  0  0
 18 19  1  0  0  0  0
 20 21  1  0  0  0  0
 21 23  1  0  0  0  0
 23 25  1  0  0  0  0
 24 28  2  0  0  0  0
 25 22  2  0  0  0  0
 26 23  2  0  0  0  0
 26 24  1  0  0  0  0
 27 24  1  0  0  0  0
 28 22  1  0  0  0  0
M  END
>  <MODEL>
4

>  <REMARK>
 VINA RESULT:      -6.3      6.593      9.415
  Name = 
  10 active torsions:
  status: ('A' for Active; 'I' for Inactive)
    1  A    between atoms: C_1  and  C_3
    2  A    between atoms: C_1  and  O_11
    3  A    between atoms: C_1  and  N_27
    4  A    between atoms: O_2  and  C_3
    5  A    between atoms: C_6  and  C_8
    6  A    between atoms: C_8  and  O_11
    7  A    between atoms: C_9  and  C_18
    8  A    between atoms: O_14  and  C_18
    9  A    between atoms: O_14  and  C_25
   10  A    between atoms: C_16  and  C_21
                            x       y       z     vdW  Elec       q    Type
                         _______ _______ _______ _____ _____    ______ ____

>  <TORSDO>
F 10

$$$$
=
 OpenBabel11052413353D

 28 29  0  0  1  0  0  0  0  0999 V2000
  184.2860  180.2330  139.2090 O   0  0  0  0  0  1  0  0  0  0  0  0
  182.7390  178.3170  140.9350 C   0  0  0  0  0  2  0  0  0  0  0  0
  183.7140  178.1240  138.1900 C   0  0  2  0  0  3  0  0  0  0  0  0
  182.0780  177.3840  139.9310 C   0  0  0  0  0  2  0  0  0  0  0  0
  184.5190  178.8580  139.2780 C   0  0  2  0  0  3  0  0  0  0  0  0
  184.2310  178.3200  140.6780 C   0  0  1  0  0  3  0  0  0  0  0  0
  182.3070  177.7950  138.5310 N   0  0  0  0  0  0  0  0  0  0  0  0
  181.2960  178.7600  138.0180 C   0  0  1  0  0  0  0  0  0  0  0  0
  181.4630  178.9680  136.5180 C   0  0  0  0  0  1  0  0  0  0  0  0
  179.8590  178.2380  138.2100 C   0  0  0  0  0  2  0  0  0  0  0  0
  179.5160  177.2950  137.2390 O   0  0  0  0  0  0  0  0  0  0  0  0
  179.0380  176.2040  137.9640 C   0  0  0  0  0  1  0  0  0  0  0  0
  181.4450  180.0380  138.6200 O   0  0  0  0  0  0  0  0  0  0  0  0
  180.3820  180.8830  138.2500 C   0  0  0  0  0  2  0  0  0  0  0  0
  180.8870  182.2990  138.0290 C   0  0  1  0  0  3  0  0  0  0  0  0
  182.1930  182.4100  138.4680 F   0  0  0  0  0  0  0  0  0  0  0  0
  180.8160  182.6260  136.6750 O   0  0  0  0  0  1  0  0  0  0  0  0
  185.8880  177.2340  137.2360 C   0  0  0  0  0  1  0  0  0  0  0  0
  184.4550  176.9120  137.6260 C   0  0  0  0  0  2  0  0  0  0  0  0
  184.8850  179.0910  141.6430 O   0  0  0  0  0  0  0  0  0  0  0  0
  184.0880  178.9900  142.7870 C   0  0  0  0  0  2  0  0  0  0  0  0
  185.2390  178.4880  146.3580 C   0  0  0  0  0  3  0  0  0  0  0  0
  184.9300  178.6250  143.9580 C   0  0  0  0  0  0  0  0  0  0  0  0
  186.9500  177.6420  144.8670 C   0  0  0  0  0  0  0  0  0  0  0  0
  184.4610  178.8570  145.2570 C   0  0  0  0  0  3  0  0  0  0  0  0
  186.1710  178.0100  143.7650 C   0  0  0  0  0  3  0  0  0  0  0  0
  188.5050  176.8790  144.6230 Cl  0  0  0  0  0  0  0  0  0  0  0  0
  186.4830  177.8810  146.1630 C   0  0  0  0  0  3  0  0  0  0  0  0
  3 19  1  1  0  0  0
  3  7  1  0  0  0  0
  3  5  1  0  0  0  0
  4  2  1  0  0  0  0
  5  1  1  1  0  0  0
  5  6  1  0  0  0  0
  6  2  1  0  0  0  0
  6 20  1  1  0  0  0
  7  4  1  0  0  0  0
  8  9  1  6  0  0  0
  8 10  1  0  0  0  0
  8  7  1  0  0  0  0
  8 13  1  0  0  0  0
 11 12  1  0  0  0  0
 11 10  1  0  0  0  0
 14 13  1  0  0  0  0
 15 17  1  6  0  0  0
 15 14  1  0  0  0  0
 15 16  1  0  0  0  0
 18 19  1  0  0  0  0
 20 21  1  0  0  0  0
 21 23  1  0  0  0  0
 23 25  1  0  0  0  0
 24 28  2  0  0  0  0
 25 22  2  0  0  0  0
 26 23  2  0  0  0  0
 26 24  1  0  0  0  0
 27 24  1  0  0  0  0
 28 22  1  0  0  0  0
M  END
>  <MODEL>
5

>  <REMARK>
 VINA RESULT:      -6.2      6.315      9.282
  Name = 
  10 active torsions:
  status: ('A' for Active; 'I' for Inactive)
    1  A    between atoms: C_1  and  C_3
    2  A    between atoms: C_1  and  O_11
    3  A    between atoms: C_1  and  N_27
    4  A    between atoms: O_2  and  C_3
    5  A    between atoms: C_6  and  C_8
    6  A    between atoms: C_8  and  O_11
    7  A    between atoms: C_9  and  C_18
    8  A    between atoms: O_14  and  C_18
    9  A    between atoms: O_14  and  C_25
   10  A    between atoms: C_16  and  C_21
                            x       y       z     vdW  Elec       q    Type
                         _______ _______ _______ _____ _____    ______ ____

>  <TORSDO>
F 10

$$$$
=
 OpenBabel11052413353D

 28 29  0  0  1  0  0  0  0  0999 V2000
  184.2110  180.3090  139.3340 O   0  0  0  0  0  1  0  0  0  0  0  0
  183.1030  178.1010  141.0490 C   0  0  0  0  0  2  0  0  0  0  0  0
  183.8080  178.2090  138.2180 C   0  0  2  0  0  3  0  0  0  0  0  0
  182.4660  177.1520  140.0450 C   0  0  0  0  0  2  0  0  0  0  0  0
  184.6210  178.9750  139.2770 C   0  0  2  0  0  3  0  0  0  0  0  0
  184.5490  178.3180  140.6540 C   0  0  1  0  0  3  0  0  0  0  0  0
  182.4970  177.6760  138.6640 N   0  0  0  0  0  0  0  0  0  0  0  0
  181.3250  178.5280  138.3210 C   0  0  1  0  0  0  0  0  0  0  0  0
  181.6200  179.3800  137.0940 C   0  0  0  0  0  1  0  0  0  0  0  0
  180.0910  177.6810  137.9550 C   0  0  0  0  0  2  0  0  0  0  0  0
  180.4480  176.5070  137.2850 O   0  0  0  0  0  0  0  0  0  0  0  0
  179.6630  175.5170  137.8720 C   0  0  0  0  0  1  0  0  0  0  0  0
  181.0130  179.4310  139.3720 O   0  0  0  0  0  0  0  0  0  0  0  0
  179.6290  179.4250  139.6310 C   0  0  0  0  0  2  0  0  0  0  0  0
  179.3710  179.6140  141.1160 C   0  0  1  0  0  3  0  0  0  0  0  0
  179.8500  178.5270  141.8230 F   0  0  0  0  0  0  0  0  0  0  0  0
  179.9920  180.7790  141.5650 O   0  0  0  0  0  1  0  0  0  0  0  0
  186.0580  177.6000  137.2190 C   0  0  0  0  0  1  0  0  0  0  0  0
  184.6340  177.1440  137.4980 C   0  0  0  0  0  2  0  0  0  0  0  0
  185.1960  179.1080  141.6090 O   0  0  0  0  0  0  0  0  0  0  0  0
  186.0470  178.2310  142.2870 C   0  0  0  0  0  2  0  0  0  0  0  0
  184.3120  178.8350  145.5970 C   0  0  0  0  0  3  0  0  0  0  0  0
  185.7930  178.3120  143.7510 C   0  0  0  0  0  0  0  0  0  0  0  0
  186.5140  177.9240  146.0320 C   0  0  0  0  0  0  0  0  0  0  0  0
  184.5630  178.7860  144.2220 C   0  0  0  0  0  3  0  0  0  0  0  0
  186.7650  177.8740  144.6570 C   0  0  0  0  0  3  0  0  0  0  0  0
  187.7330  177.3820  147.1640 Cl  0  0  0  0  0  0  0  0  0  0  0  0
  185.2870  178.4050  146.5010 C   0  0  0  0  0  3  0  0  0  0  0  0
  3 19  1  1  0  0  0
  3  7  1  0  0  0  0
  3  5  1  0  0  0  0
  4  2  1  0  0  0  0
  5  1  1  1  0  0  0
  5  6  1  0  0  0  0
  6  2  1  0  0  0  0
  6 20  1  1  0  0  0
  7  4  1  0  0  0  0
  8  9  1  6  0  0  0
  8  7  1  0  0  0  0
  8 13  1  0  0  0  0
 10  8  1  0  0  0  0
 11 12  1  0  0  0  0
 11 10  1  0  0  0  0
 13 14  1  0  0  0  0
 14 15  1  0  0  0  0
 15 17  1  1  0  0  0
 15 16  1  0  0  0  0
 18 19  1  0  0  0  0
 20 21  1  0  0  0  0
 21 23  1  0  0  0  0
 22 28  1  0  0  0  0
 23 25  1  0  0  0  0
 23 26  2  0  0  0  0
 24 28  2  0  0  0  0
 24 27  1  0  0  0  0
 25 22  2  0  0  0  0
 26 24  1  0  0  0  0
M  END
>  <MODEL>
6

>  <REMARK>
 VINA RESULT:      -6.2      6.023      8.898
  Name = 
  10 active torsions:
  status: ('A' for Active; 'I' for Inactive)
    1  A    between atoms: C_1  and  C_3
    2  A    between atoms: C_1  and  O_11
    3  A    between atoms: C_1  and  N_27
    4  A    between atoms: O_2  and  C_3
    5  A    between atoms: C_6  and  C_8
    6  A    between atoms: C_8  and  O_11
    7  A    between atoms: C_9  and  C_18
    8  A    between atoms: O_14  and  C_18
    9  A    between atoms: O_14  and  C_25
   10  A    between atoms: C_16  and  C_21
                            x       y       z     vdW  Elec       q    Type
                         _______ _______ _______ _____ _____    ______ ____

>  <TORSDO>
F 10

$$$$
=
 OpenBabel11052413353D

 28 29  0  0  1  0  0  0  0  0999 V2000
  187.9100  175.6280  143.2780 O   0  0  0  0  0  1  0  0  0  0  0  0
  188.6850  178.0680  144.8560 C   0  0  0  0  0  2  0  0  0  0  0  0
  189.0270  177.3720  142.0410 C   0  0  2  0  0  3  0  0  0  0  0  0
  189.7860  178.7020  144.0180 C   0  0  0  0  0  2  0  0  0  0  0  0
  187.7740  176.9430  142.8280 C   0  0  2  0  0  3  0  0  0  0  0  0
  187.4600  177.8910  143.9830 C   0  0  1  0  0  3  0  0  0  0  0  0
  190.1620  177.8790  142.8510 N   0  0  0  0  0  0  0  0  0  0  0  0
  191.2210  176.8730  143.1440 C   0  0  1  0  0  0  0  0  0  0  0  0
  190.6280  175.4730  143.2180 C   0  0  0  0  0  1  0  0  0  0  0  0
  192.2820  176.8200  142.0270 C   0  0  0  0  0  2  0  0  0  0  0  0
  192.1400  177.8790  141.1270 O   0  0  0  0  0  0  0  0  0  0  0  0
  192.2380  177.2850  139.8700 C   0  0  0  0  0  1  0  0  0  0  0  0
  191.8360  177.1170  144.4010 O   0  0  0  0  0  0  0  0  0  0  0  0
  191.6890  176.0000  145.2450 C   0  0  0  0  0  2  0  0  0  0  0  0
  191.6750  176.4390  146.7000 C   0  0  1  0  0  3  0  0  0  0  0  0
  190.3830  176.4060  147.1920 F   0  0  0  0  0  0  0  0  0  0  0  0
  192.4910  175.6020  147.4600 O   0  0  0  0  0  1  0  0  0  0  0  0
  188.6210  177.5820  139.5470 C   0  0  0  0  0  1  0  0  0  0  0  0
  188.7000  178.3100  140.8790 C   0  0  0  0  0  2  0  0  0  0  0  0
  186.3940  177.4000  144.7430 O   0  0  0  0  0  0  0  0  0  0  0  0
  185.6490  178.5300  145.0910 C   0  0  0  0  0  2  0  0  0  0  0  0
  182.0630  179.0020  143.9740 C   0  0  0  0  0  3  0  0  0  0  0  0
  184.4440  178.6280  144.2230 C   0  0  0  0  0  0  0  0  0  0  0  0
  183.4410  178.6290  142.0170 C   0  0  0  0  0  0  0  0  0  0  0  0
  183.1900  178.8820  144.7920 C   0  0  0  0  0  3  0  0  0  0  0  0
  184.5690  178.5090  142.8350 C   0  0  0  0  0  3  0  0  0  0  0  0
  183.5980  178.4740  140.2810 Cl  0  0  0  0  0  0  0  0  0  0  0  0
  182.1880  178.8750  142.5880 C   0  0  0  0  0  3  0  0  0  0  0  0
  3 19  1  6  0  0  0
  3  5  1  0  0  0  0
  3  7  1  0  0  0  0
  4  2  1  0  0  0  0
  5  1  1  1  0  0  0
  5  6  1  0  0  0  0
  6 20  1  1  0  0  0
  6  2  1  0  0  0  0
  7  8  1  0  0  0  0
  7  4  1  0  0  0  0
  8  9  1  1  0  0  0
  8 13  1  0  0  0  0
 10  8  1  0  0  0  0
 11 10  1  0  0  0  0
 12 11  1  0  0  0  0
 13 14  1  0  0  0  0
 14 15  1  0  0  0  0
 15 16  1  1  0  0  0
 15 17  1  0  0  0  0
 18 19  1  0  0  0  0
 20 21  1  0  0  0  0
 22 25  1  0  0  0  0
 23 25  2  0  0  0  0
 23 21  1  0  0  0  0
 24 28  1  0  0  0  0
 24 26  2  0  0  0  0
 26 23  1  0  0  0  0
 27 24  1  0  0  0  0
 28 22  2  0  0  0  0
M  END
>  <MODEL>
7

>  <REMARK>
 VINA RESULT:      -6.2      2.805      6.169
  Name = 
  10 active torsions:
  status: ('A' for Active; 'I' for Inactive)
    1  A    between atoms: C_1  and  C_3
    2  A    between atoms: C_1  and  O_11
    3  A    between atoms: C_1  and  N_27
    4  A    between atoms: O_2  and  C_3
    5  A    between atoms: C_6  and  C_8
    6  A    between atoms: C_8  and  O_11
    7  A    between atoms: C_9  and  C_18
    8  A    between atoms: O_14  and  C_18
    9  A    between atoms: O_14  and  C_25
   10  A    between atoms: C_16  and  C_21
                            x       y       z     vdW  Elec       q    Type
                         _______ _______ _______ _____ _____    ______ ____

>  <TORSDO>
F 10

$$$$
=
 OpenBabel11052413353D

 28 29  0  0  1  0  0  0  0  0999 V2000
  189.4160  179.3320  142.1160 O   0  0  0  0  0  1  0  0  0  0  0  0
  190.1440  176.4190  141.9700 C   0  0  0  0  0  2  0  0  0  0  0  0
  188.0280  177.8340  143.3980 C   0  0  2  0  0  3  0  0  0  0  0  0
  189.5100  175.8270  143.2200 C   0  0  0  0  0  2  0  0  0  0  0  0
  188.4970  178.2870  142.0040 C   0  0  2  0  0  3  0  0  0  0  0  0
  189.0700  177.1360  141.1790 C   0  0  1  0  0  3  0  0  0  0  0  0
  188.8990  176.8520  144.0910 N   0  0  0  0  0  0  0  0  0  0  0  0
  189.8460  177.4410  145.0770 C   0  0  1  0  0  0  0  0  0  0  0  0
  190.5930  178.6210  144.4680 C   0  0  0  0  0  1  0  0  0  0  0  0
  189.1110  178.0030  146.3100 C   0  0  0  0  0  2  0  0  0  0  0  0
  188.1210  177.1280  146.7650 O   0  0  0  0  0  0  0  0  0  0  0  0
  187.9280  177.4830  148.0990 C   0  0  0  0  0  1  0  0  0  0  0  0
  190.8350  176.5010  145.4740 O   0  0  0  0  0  0  0  0  0  0  0  0
  191.3240  176.8140  146.7560 C   0  0  0  0  0  2  0  0  0  0  0  0
  192.0540  175.6200  147.3470 C   0  0  1  0  0  3  0  0  0  0  0  0
  192.6410  174.8770  146.3390 F   0  0  0  0  0  0  0  0  0  0  0  0
  193.0310  176.0520  148.2430 O   0  0  0  0  0  1  0  0  0  0  0  0
  185.7110  178.2530  144.3390 C   0  0  0  0  0  1  0  0  0  0  0  0
  186.5630  177.3980  143.4140 C   0  0  0  0  0  2  0  0  0  0  0  0
  189.5950  177.6100  139.9740 O   0  0  0  0  0  0  0  0  0  0  0  0
  190.8970  177.1050  139.9230 C   0  0  0  0  0  2  0  0  0  0  0  0
  190.5430  176.3340  136.2340 C   0  0  0  0  0  3  0  0  0  0  0  0
  191.2280  176.7010  138.5300 C   0  0  0  0  0  0  0  0  0  0  0  0
  192.8600  176.0240  136.8710 C   0  0  0  0  0  0  0  0  0  0  0  0
  190.2280  176.6860  137.5500 C   0  0  0  0  0  3  0  0  0  0  0  0
  192.5450  176.3770  138.1870 C   0  0  0  0  0  3  0  0  0  0  0  0
  194.5060  175.6130  136.4460 Cl  0  0  0  0  0  0  0  0  0  0  0  0
  191.8580  176.0030  135.8950 C   0  0  0  0  0  3  0  0  0  0  0  0
  2  4  1  0  0  0  0
  3 19  1  6  0  0  0
  3  7  1  0  0  0  0
  4  7  1  0  0  0  0
  5  1  1  1  0  0  0
  5  3  1  0  0  0  0
  6 20  1  6  0  0  0
  6  2  1  0  0  0  0
  6  5  1  0  0  0  0
  7  8  1  0  0  0  0
  8  9  1  6  0  0  0
  8 13  1  0  0  0  0
  8 10  1  0  0  0  0
 10 11  1  0  0  0  0
 11 12  1  0  0  0  0
 13 14  1  0  0  0  0
 14 15  1  0  0  0  0
 15 16  1  6  0  0  0
 15 17  1  0  0  0  0
 19 18  1  0  0  0  0
 21 20  1  0  0  0  0
 22 25  1  0  0  0  0
 23 21  1  0  0  0  0
 24 26  2  0  0  0  0
 25 23  2  0  0  0  0
 26 23  1  0  0  0  0
 27 24  1  0  0  0  0
 28 22  2  0  0  0  0
 28 24  1  0  0  0  0
M  END
>  <MODEL>
8

>  <REMARK>
 VINA RESULT:      -5.9      2.867      4.338
  Name = 
  10 active torsions:
  status: ('A' for Active; 'I' for Inactive)
    1  A    between atoms: C_1  and  C_3
    2  A    between atoms: C_1  and  O_11
    3  A    between atoms: C_1  and  N_27
    4  A    between atoms: O_2  and  C_3
    5  A    between atoms: C_6  and  C_8
    6  A    between atoms: C_8  and  O_11
    7  A    between atoms: C_9  and  C_18
    8  A    between atoms: O_14  and  C_18
    9  A    between atoms: O_14  and  C_25
   10  A    between atoms: C_16  and  C_21
                            x       y       z     vdW  Elec       q    Type
                         _______ _______ _______ _____ _____    ______ ____

>  <TORSDO>
F 10

$$$$
=
 OpenBabel11052413353D

 28 29  0  0  1  0  0  0  0  0999 V2000
  190.1190  175.4600  142.7950 O   0  0  0  0  0  1  0  0  0  0  0  0
  190.6930  178.4000  142.5380 C   0  0  0  0  0  2  0  0  0  0  0  0
  190.3560  176.6720  144.8670 C   0  0  2  0  0  3  0  0  0  0  0  0
  190.2610  178.9690  143.8820 C   0  0  0  0  0  2  0  0  0  0  0  0
  191.0340  176.1630  143.5810 C   0  0  2  0  0  3  0  0  0  0  0  0
  191.6920  177.2890  142.7860 C   0  0  1  0  0  3  0  0  0  0  0  0
  189.6260  177.9590  144.7530 N   0  0  0  0  0  0  0  0  0  0  0  0
  188.1570  177.8290  144.5460 C   0  0  1  0  0  0  0  0  0  0  0  0
  187.7830  176.3880  144.2260 C   0  0  0  0  0  1  0  0  0  0  0  0
  187.3670  178.1930  145.8190 C   0  0  0  0  0  2  0  0  0  0  0  0
  186.2170  177.4100  145.9560 O   0  0  0  0  0  0  0  0  0  0  0  0
  185.2780  178.2670  146.5260 C   0  0  0  0  0  1  0  0  0  0  0  0
  187.7150  178.6130  143.4470 O   0  0  0  0  0  0  0  0  0  0  0  0
  186.8480  177.8660  142.6270 C   0  0  0  0  0  2  0  0  0  0  0  0
  185.5690  178.6440  142.3680 C   0  0  1  0  0  3  0  0  0  0  0  0
  185.3100  179.4960  143.4260 F   0  0  0  0  0  0  0  0  0  0  0  0
  185.6870  179.3790  141.1890 O   0  0  0  0  0  1  0  0  0  0  0  0
  190.5560  176.8180  147.3900 C   0  0  0  0  0  1  0  0  0  0  0  0
  191.2970  176.6620  146.0720 C   0  0  0  0  0  2  0  0  0  0  0  0
  192.1860  176.8070  141.5710 O   0  0  0  0  0  0  0  0  0  0  0  0
  191.4740  177.5030  140.5890 C   0  0  0  0  0  2  0  0  0  0  0  0
  192.9350  176.0620  137.4080 C   0  0  0  0  0  3  0  0  0  0  0  0
  191.5890  176.7950  139.2850 C   0  0  0  0  0  0  0  0  0  0  0  0
  190.5960  175.4470  137.5330 C   0  0  0  0  0  0  0  0  0  0  0  0
  192.8200  176.7520  138.6190 C   0  0  0  0  0  3  0  0  0  0  0  0
  190.4800  176.1360  138.7450 C   0  0  0  0  0  3  0  0  0  0  0  0
  189.2060  174.6280  136.8560 Cl  0  0  0  0  0  0  0  0  0  0  0  0
  191.8240  175.4110  136.8650 C   0  0  0  0  0  3  0  0  0  0  0  0
  2  6  1  0  0  0  0
  2  4  1  0  0  0  0
  3 19  1  1  0  0  0
  4  7  1  0  0  0  0
  5  1  1  6  0  0  0
  5  3  1  0  0  0  0
  6 20  1  6  0  0  0
  6  5  1  0  0  0  0
  7  3  1  0  0  0  0
  8  9  1  6  0  0  0
  8  7  1  0  0  0  0
  8 10  1  0  0  0  0
 10 11  1  0  0  0  0
 11 12  1  0  0  0  0
 13  8  1  0  0  0  0
 14 13  1  0  0  0  0
 15 17  1  6  0  0  0
 15 14  1  0  0  0  0
 15 16  1  0  0  0  0
 19 18  1  0  0  0  0
 21 20  1  0  0  0  0
 22 25  1  0  0  0  0
 23 21  1  0  0  0  0
 24 26  2  0  0  0  0
 25 23  2  0  0  0  0
 26 23  1  0  0  0  0
 27 24  1  0  0  0  0
 28 22  2  0  0  0  0
 28 24  1  0  0  0  0
M  END
>  <MODEL>
9

>  <REMARK>
 VINA RESULT:      -5.9      2.119      2.958
  Name = 
  10 active torsions:
  status: ('A' for Active; 'I' for Inactive)
    1  A    between atoms: C_1  and  C_3
    2  A    between atoms: C_1  and  O_11
    3  A    between atoms: C_1  and  N_27
    4  A    between atoms: O_2  and  C_3
    5  A    between atoms: C_6  and  C_8
    6  A    between atoms: C_8  and  O_11
    7  A    between atoms: C_9  and  C_18
    8  A    between atoms: O_14  and  C_18
    9  A    between atoms: O_14  and  C_25
   10  A    between atoms: C_16  and  C_21
                            x       y       z     vdW  Elec       q    Type
                         _______ _______ _______ _____ _____    ______ ____

>  <TORSDO>
F 10

$$$$
