=
 OpenBabel11052412403D

 25 29  0  0  1  0  0  0  0  0999 V2000
  189.0480  177.1200  143.8180 C   0  0  0  0  0  0  0  0  0  0  0  0
  188.1900  177.4760  144.8640 C   0  0  0  0  0  0  0  0  0  0  0  0
  190.9280  176.8820  145.3160 C   0  0  0  0  0  3  0  0  0  0  0  0
  188.7640  176.8750  142.3790 C   0  0  2  0  0  3  0  0  0  0  0  0
  189.7630  177.5030  139.7520 C   0  0  0  0  0  3  0  0  0  0  0  0
  190.0960  177.2560  146.3830 C   0  0  0  0  0  3  0  0  0  0  0  0
  190.1540  176.5280  141.9080 C   0  0  0  0  0  0  0  0  0  0  0  0
  190.4940  176.6560  140.4890 C   0  0  0  0  0  3  0  0  0  0  0  0
  187.8380  177.9520  147.2690 C   0  0  0  0  0  0  0  0  0  0  0  0
  188.3660  178.0370  148.8180 S   0  0  0  0  0  0  0  0  0  0  0  0
  186.7270  177.7130  144.6040 C   0  0  0  0  0  2  0  0  0  0  0  0
  188.6840  178.3170  140.3710 C   0  0  0  0  0  3  0  0  0  0  0  0
  190.3680  176.8100  144.0450 C   0  0  0  0  0  0  0  0  0  0  0  0
  191.0500  176.4850  142.8450 N   0  0  0  0  0  0  0  0  0  0  0  0
  186.4900  178.3310  146.9770 N   0  0  0  0  0  0  0  0  0  0  0  0
  188.2550  178.0730  141.6200 C   0  0  0  0  0  3  0  0  0  0  0  0
  185.9730  178.2690  145.7850 C   0  0  0  0  0  0  0  0  0  0  0  0
  188.7300  177.5500  146.1660 C   0  0  0  0  0  0  0  0  0  0  0  0
  184.5550  178.6780  145.5820 C   0  0  0  0  0  2  0  0  0  0  0  0
  184.1060  178.3460  144.1710 C   0  0  2  0  0  3  0  0  0  0  0  0
  184.5030  179.4810  143.2470 C   0  0  2  0  0  3  0  0  0  0  0  0
  183.0680  179.3510  143.7230 C   0  0  0  0  0  2  0  0  0  0  0  0
  184.6260  178.9730  141.8480 C   0  0  0  0  0  0  0  0  0  0  0  0
  184.1280  177.7200  141.5140 O   0  0  0  0  0  1  0  0  0  0  0  0
  185.2200  179.6610  140.9770 O   0  0  0  0  0  0  0  0  0  0  0  0
  1 13  2  0  0  0  0
  1  2  1  0  0  0  0
  2 18  2  0  0  0  0
  3  6  2  0  0  0  0
  4 16  1  6  0  0  0
  4  1  1  0  0  0  0
  5 12  1  0  0  0  0
  5  8  2  0  0  0  0
  7  4  1  0  0  0  0
  7 14  2  0  0  0  0
  8  7  1  0  0  0  0
  9 10  2  0  0  0  0
 11  2  1  0  0  0  0
 11 17  1  0  0  0  0
 12 16  2  0  0  0  0
 13  3  1  0  0  0  0
 14 13  1  0  0  0  0
 15  9  1  0  0  0  0
 17 15  2  0  0  0  0
 18  6  1  0  0  0  0
 18  9  1  0  0  0  0
 19 17  1  0  0  0  0
 20 19  1  1  0  0  0
 21 23  1  6  0  0  0
 21 22  1  0  0  0  0
 21 20  1  0  0  0  0
 22 20  1  0  0  0  0
 24 23  1  0  0  0  0
 25 23  2  0  0  0  0
M  END
>  <MODEL>
1

>  <REMARK>
 VINA RESULT:     -10.4      0.000      0.000
  Name = 
  3 active torsions:
  status: ('A' for Active; 'I' for Inactive)
    1  A    between atoms: C_2  and  C_21
    2  A    between atoms: C_6  and  C_15
    3  A    between atoms: C_6  and  C_23
                            x       y       z     vdW  Elec       q    Type
                         _______ _______ _______ _____ _____    ______ ____

>  <TORSDO>
F 3

$$$$
=
 OpenBabel11052412403D

 25 29  0  0  1  0  0  0  0  0999 V2000
  187.7460  177.9890  145.6850 C   0  0  0  0  0  0  0  0  0  0  0  0
  189.0520  177.5290  145.4810 C   0  0  0  0  0  0  0  0  0  0  0  0
  187.8370  177.4860  148.0460 C   0  0  0  0  0  3  0  0  0  0  0  0
  186.8000  178.6490  144.7480 C   0  0  2  0  0  3  0  0  0  0  0  0
  184.0470  178.5650  143.9010 C   0  0  0  0  0  3  0  0  0  0  0  0
  189.1430  177.0000  147.8680 C   0  0  0  0  0  3  0  0  0  0  0  0
  185.6310  178.8540  145.6790 C   0  0  0  0  0  0  0  0  0  0  0  0
  184.2870  179.0450  145.1290 C   0  0  0  0  0  3  0  0  0  0  0  0
  191.1210  176.5100  146.3820 C   0  0  0  0  0  0  0  0  0  0  0  0
  192.0260  175.9290  147.6180 S   0  0  0  0  0  0  0  0  0  0  0  0
  189.6950  177.6340  144.1250 C   0  0  0  0  0  2  0  0  0  0  0  0
  185.0970  177.8230  143.1540 C   0  0  0  0  0  3  0  0  0  0  0  0
  187.1700  177.9880  146.9330 C   0  0  0  0  0  0  0  0  0  0  0  0
  185.8440  178.4900  146.9050 N   0  0  0  0  0  0  0  0  0  0  0  0
  191.6550  176.4670  145.0550 N   0  0  0  0  0  0  0  0  0  0  0  0
  186.3720  177.8030  143.5760 C   0  0  0  0  0  3  0  0  0  0  0  0
  191.0240  176.9320  144.0170 C   0  0  0  0  0  0  0  0  0  0  0  0
  189.7550  177.0210  146.5950 C   0  0  0  0  0  0  0  0  0  0  0  0
  191.6670  176.8500  142.6750 C   0  0  0  0  0  2  0  0  0  0  0  0
  190.8930  177.6790  141.6680 C   0  0  2  0  0  3  0  0  0  0  0  0
  190.1810  176.7470  140.7050 C   0  0  2  0  0  3  0  0  0  0  0  0
  191.4600  177.4470  140.2840 C   0  0  0  0  0  2  0  0  0  0  0  0
  188.9990  177.4410  140.1130 C   0  0  0  0  0  0  0  0  0  0  0  0
  188.3870  178.4850  140.7960 O   0  0  0  0  0  1  0  0  0  0  0  0
  188.5260  177.0540  139.0130 O   0  0  0  0  0  0  0  0  0  0  0  0
  1 13  1  0  0  0  0
  2  1  2  0  0  0  0
  2 18  1  0  0  0  0
  4 16  1  6  0  0  0
  4  7  1  0  0  0  0
  4  1  1  0  0  0  0
  5  8  2  0  0  0  0
  6  3  1  0  0  0  0
  7 14  2  0  0  0  0
  8  7  1  0  0  0  0
  9 18  1  0  0  0  0
  9 10  2  0  0  0  0
 11  2  1  0  0  0  0
 12 16  2  0  0  0  0
 12  5  1  0  0  0  0
 13  3  2  0  0  0  0
 14 13  1  0  0  0  0
 15  9  1  0  0  0  0
 17 11  1  0  0  0  0
 17 15  2  0  0  0  0
 18  6  2  0  0  0  0
 19 17  1  0  0  0  0
 20 19  1  1  0  0  0
 21 23  1  6  0  0  0
 21 20  1  0  0  0  0
 22 21  1  0  0  0  0
 22 20  1  0  0  0  0
 23 24  1  0  0  0  0
 25 23  2  0  0  0  0
M  END
>  <MODEL>
2

>  <REMARK>
 VINA RESULT:     -10.3      1.788      5.341
  Name = 
  3 active torsions:
  status: ('A' for Active; 'I' for Inactive)
    1  A    between atoms: C_2  and  C_21
    2  A    between atoms: C_6  and  C_15
    3  A    between atoms: C_6  and  C_23
                            x       y       z     vdW  Elec       q    Type
                         _______ _______ _______ _____ _____    ______ ____

>  <TORSDO>
F 3

$$$$
=
 OpenBabel11052412403D

 25 29  0  0  1  0  0  0  0  0999 V2000
  187.3620  177.7700  143.1130 C   0  0  0  0  0  0  0  0  0  0  0  0
  188.7180  177.4310  143.0520 C   0  0  0  0  0  0  0  0  0  0  0  0
  187.3400  178.4840  140.8050 C   0  0  0  0  0  3  0  0  0  0  0  0
  186.3700  177.5830  144.2050 C   0  0  2  0  0  3  0  0  0  0  0  0
  184.2910  178.9900  145.6170 C   0  0  0  0  0  3  0  0  0  0  0  0
  188.7060  178.1730  140.7200 C   0  0  0  0  0  3  0  0  0  0  0  0
  185.1520  178.1670  143.5360 C   0  0  0  0  0  0  0  0  0  0  0  0
  184.0300  178.6410  144.3510 C   0  0  0  0  0  3  0  0  0  0  0  0
  190.8340  177.3170  141.7700 C   0  0  0  0  0  0  0  0  0  0  0  0
  191.7010  177.5020  140.3920 S   0  0  0  0  0  0  0  0  0  0  0  0
  189.4030  176.8060  144.2370 C   0  0  0  0  0  2  0  0  0  0  0  0
  185.6780  178.9450  146.1520 C   0  0  0  0  0  3  0  0  0  0  0  0
  186.6920  178.2570  142.0160 C   0  0  0  0  0  0  0  0  0  0  0  0
  185.3330  178.5370  142.3060 N   0  0  0  0  0  0  0  0  0  0  0  0
  191.5050  176.8760  142.9540 N   0  0  0  0  0  0  0  0  0  0  0  0
  186.6690  178.3460  145.4700 C   0  0  0  0  0  3  0  0  0  0  0  0
  190.8960  176.6720  144.0860 C   0  0  0  0  0  0  0  0  0  0  0  0
  189.3980  177.6450  141.8330 C   0  0  0  0  0  0  0  0  0  0  0  0
  191.6810  176.2050  145.2630 C   0  0  0  0  0  2  0  0  0  0  0  0
  190.7910  176.1140  146.4880 C   0  0  2  0  0  3  0  0  0  0  0  0
  190.6350  177.4980  147.0880 C   0  0  2  0  0  3  0  0  0  0  0  0
  191.5870  176.4970  147.7170 C   0  0  0  0  0  2  0  0  0  0  0  0
  189.3690  177.5650  147.8760 C   0  0  0  0  0  0  0  0  0  0  0  0
  188.4530  176.5220  147.8180 O   0  0  0  0  0  0  0  0  0  0  0  0
  189.1070  178.5880  148.5630 O   0  0  0  0  0  1  0  0  0  0  0  0
  1  4  1  0  0  0  0
  2  1  1  0  0  0  0
  2 11  1  0  0  0  0
  3 13  1  0  0  0  0
  4 16  1  1  0  0  0
  5 12  1  0  0  0  0
  6  3  2  0  0  0  0
  6 18  1  0  0  0  0
  7  4  1  0  0  0  0
  7  8  1  0  0  0  0
  8  5  2  0  0  0  0
  9 18  1  0  0  0  0
  9 15  1  0  0  0  0
 10  9  2  0  0  0  0
 13 14  1  0  0  0  0
 13  1  2  0  0  0  0
 14  7  2  0  0  0  0
 15 17  2  0  0  0  0
 16 12  2  0  0  0  0
 17 11  1  0  0  0  0
 17 19  1  0  0  0  0
 18  2  2  0  0  0  0
 20 19  1  6  0  0  0
 20 21  1  0  0  0  0
 20 22  1  0  0  0  0
 21 22  1  0  0  0  0
 21 23  1  1  0  0  0
 23 25  1  0  0  0  0
 24 23  2  0  0  0  0
M  END
>  <MODEL>
3

>  <REMARK>
 VINA RESULT:      -9.5      3.256      6.463
  Name = 
  3 active torsions:
  status: ('A' for Active; 'I' for Inactive)
    1  A    between atoms: C_2  and  C_21
    2  A    between atoms: C_6  and  C_15
    3  A    between atoms: C_6  and  C_23
                            x       y       z     vdW  Elec       q    Type
                         _______ _______ _______ _____ _____    ______ ____

>  <TORSDO>
F 3

$$$$
=
 OpenBabel11052412403D

 25 29  0  0  1  0  0  0  0  0999 V2000
  185.9470  178.4630  144.5770 C   0  0  0  0  0  0  0  0  0  0  0  0
  187.2580  177.9750  144.5490 C   0  0  0  0  0  0  0  0  0  0  0  0
  185.8490  178.3270  146.9870 C   0  0  0  0  0  3  0  0  0  0  0  0
  185.0860  178.9750  143.4790 C   0  0  2  0  0  3  0  0  0  0  0  0
  182.4060  178.7680  142.4410 C   0  0  0  0  0  3  0  0  0  0  0  0
  187.1570  177.8160  146.9880 C   0  0  0  0  0  3  0  0  0  0  0  0
  183.8520  179.3220  144.2730 C   0  0  0  0  0  0  0  0  0  0  0  0
  182.5570  179.4290  143.5960 C   0  0  0  0  0  3  0  0  0  0  0  0
  189.2370  177.1000  145.7540 C   0  0  0  0  0  0  0  0  0  0  0  0
  190.0360  176.7130  147.1310 S   0  0  0  0  0  0  0  0  0  0  0  0
  188.0060  177.8690  143.2470 C   0  0  0  0  0  2  0  0  0  0  0  0
  183.5000  177.9180  141.9000 C   0  0  0  0  0  3  0  0  0  0  0  0
  185.2770  178.6540  145.7610 C   0  0  0  0  0  0  0  0  0  0  0  0
  183.9640  179.1490  145.5530 N   0  0  0  0  0  0  0  0  0  0  0  0
  189.8710  176.8540  144.4950 N   0  0  0  0  0  0  0  0  0  0  0  0
  184.7380  177.9600  142.4190 C   0  0  0  0  0  3  0  0  0  0  0  0
  189.3290  177.1550  143.3520 C   0  0  0  0  0  0  0  0  0  0  0  0
  187.8660  177.6410  145.7780 C   0  0  0  0  0  0  0  0  0  0  0  0
  190.0720  176.8680  142.0930 C   0  0  0  0  0  2  0  0  0  0  0  0
  189.6620  177.8400  141.0040 C   0  0  2  0  0  3  0  0  0  0  0  0
  189.0150  177.0670  139.8700 C   0  0  2  0  0  3  0  0  0  0  0  0
  190.4490  177.5480  139.7450 C   0  0  0  0  0  2  0  0  0  0  0  0
  188.1050  177.9670  139.1010 C   0  0  0  0  0  0  0  0  0  0  0  0
  188.2890  178.1470  137.7360 O   0  0  0  0  0  0  0  0  0  0  0  0
  187.1940  178.6010  139.6960 O   0  0  0  0  0  1  0  0  0  0  0  0
  1 13  1  0  0  0  0
  2  1  2  0  0  0  0
  2 18  1  0  0  0  0
  3  6  1  0  0  0  0
  4 16  1  6  0  0  0
  4  7  1  0  0  0  0
  4  1  1  0  0  0  0
  5  8  2  0  0  0  0
  7 14  2  0  0  0  0
  8  7  1  0  0  0  0
  9 18  1  0  0  0  0
  9 10  2  0  0  0  0
 11 17  1  0  0  0  0
 11  2  1  0  0  0  0
 12 16  2  0  0  0  0
 12  5  1  0  0  0  0
 13  3  2  0  0  0  0
 14 13  1  0  0  0  0
 15  9  1  0  0  0  0
 17 15  2  0  0  0  0
 18  6  2  0  0  0  0
 19 17  1  0  0  0  0
 20 19  1  1  0  0  0
 21 23  1  6  0  0  0
 21 20  1  0  0  0  0
 22 21  1  0  0  0  0
 22 20  1  0  0  0  0
 23 25  1  0  0  0  0
 24 23  2  0  0  0  0
M  END
>  <MODEL>
4

>  <REMARK>
 VINA RESULT:      -9.5      1.680      5.368
  Name = 
  3 active torsions:
  status: ('A' for Active; 'I' for Inactive)
    1  A    between atoms: C_2  and  C_21
    2  A    between atoms: C_6  and  C_15
    3  A    between atoms: C_6  and  C_23
                            x       y       z     vdW  Elec       q    Type
                         _______ _______ _______ _____ _____    ______ ____

>  <TORSDO>
F 3

$$$$
=
 OpenBabel11052412403D

 25 29  0  0  1  0  0  0  0  0999 V2000
  186.6530  178.5070  141.9550 C   0  0  0  0  0  0  0  0  0  0  0  0
  185.8360  178.5800  143.0880 C   0  0  0  0  0  0  0  0  0  0  0  0
  184.7710  178.7780  140.4650 C   0  0  0  0  0  3  0  0  0  0  0  0
  188.1330  178.4320  141.8370 C   0  0  2  0  0  3  0  0  0  0  0  0
  190.2070  177.0020  140.4400 C   0  0  0  0  0  3  0  0  0  0  0  0
  183.9230  178.8340  141.5840 C   0  0  0  0  0  3  0  0  0  0  0  0
  188.2610  178.4000  140.3350 C   0  0  0  0  0  0  0  0  0  0  0  0
  189.4770  177.8640  139.7190 C   0  0  0  0  0  3  0  0  0  0  0  0
  183.5770  178.7900  144.0820 C   0  0  0  0  0  0  0  0  0  0  0  0
  181.9570  179.0030  143.9570 S   0  0  0  0  0  0  0  0  0  0  0  0
  186.4380  178.5470  144.4670 C   0  0  0  0  0  2  0  0  0  0  0  0
  189.7630  176.5710  141.7920 C   0  0  0  0  0  3  0  0  0  0  0  0
  186.1360  178.6280  140.6880 C   0  0  0  0  0  0  0  0  0  0  0  0
  187.1410  178.5170  139.6930 N   0  0  0  0  0  0  0  0  0  0  0  0
  184.1500  178.5930  145.3780 N   0  0  0  0  0  0  0  0  0  0  0  0
  188.7540  177.1910  142.4260 C   0  0  0  0  0  3  0  0  0  0  0  0
  185.4270  178.4460  145.5800 C   0  0  0  0  0  0  0  0  0  0  0  0
  184.4470  178.7400  142.8930 C   0  0  0  0  0  0  0  0  0  0  0  0
  185.9290  178.2550  146.9690 C   0  0  0  0  0  2  0  0  0  0  0  0
  187.4330  178.4500  147.0180 C   0  0  2  0  0  3  0  0  0  0  0  0
  188.0940  177.1180  147.3180 C   0  0  2  0  0  3  0  0  0  0  0  0
  187.9330  178.1540  148.4150 C   0  0  0  0  0  2  0  0  0  0  0  0
  189.4970  177.1260  146.8070 C   0  0  0  0  0  0  0  0  0  0  0  0
  189.8370  177.9060  145.7090 O   0  0  0  0  0  0  0  0  0  0  0  0
  190.3680  176.3930  147.3440 O   0  0  0  0  0  1  0  0  0  0  0  0
  1  2  1  0  0  0  0
  2 11  1  0  0  0  0
  3 13  1  0  0  0  0
  3  6  2  0  0  0  0
  4  1  1  0  0  0  0
  4 16  1  1  0  0  0
  5 12  1  0  0  0  0
  6 18  1  0  0  0  0
  7  4  1  0  0  0  0
  8  7  1  0  0  0  0
  8  5  2  0  0  0  0
  9 15  1  0  0  0  0
 10  9  2  0  0  0  0
 11 17  1  0  0  0  0
 12 16  2  0  0  0  0
 13  1  2  0  0  0  0
 14  7  2  0  0  0  0
 14 13  1  0  0  0  0
 15 17  2  0  0  0  0
 17 19  1  0  0  0  0
 18  2  2  0  0  0  0
 18  9  1  0  0  0  0
 20 19  1  1  0  0  0
 20 21  1  0  0  0  0
 20 22  1  0  0  0  0
 21 23  1  6  0  0  0
 21 22  1  0  0  0  0
 23 25  1  0  0  0  0
 24 23  2  0  0  0  0
M  END
>  <MODEL>
5

>  <REMARK>
 VINA RESULT:      -9.5      3.126      5.121
  Name = 
  3 active torsions:
  status: ('A' for Active; 'I' for Inactive)
    1  A    between atoms: C_2  and  C_21
    2  A    between atoms: C_6  and  C_15
    3  A    between atoms: C_6  and  C_23
                            x       y       z     vdW  Elec       q    Type
                         _______ _______ _______ _____ _____    ______ ____

>  <TORSDO>
F 3

$$$$
=
 OpenBabel11052412403D

 25 29  0  0  1  0  0  0  0  0999 V2000
  186.8570  178.2560  144.0520 C   0  0  0  0  0  0  0  0  0  0  0  0
  188.0560  177.8630  143.4480 C   0  0  0  0  0  0  0  0  0  0  0  0
  187.6070  177.5260  146.2300 C   0  0  0  0  0  3  0  0  0  0  0  0
  185.6840  178.9740  143.4890 C   0  0  2  0  0  3  0  0  0  0  0  0
  182.8050  178.8830  143.4350 C   0  0  0  0  0  3  0  0  0  0  0  0
  188.8130  177.1030  145.6470 C   0  0  0  0  0  3  0  0  0  0  0  0
  184.8220  179.0470  144.7240 C   0  0  0  0  0  0  0  0  0  0  0  0
  183.3760  179.2460  144.5910 C   0  0  0  0  0  3  0  0  0  0  0  0
  190.2990  176.8280  143.6270 C   0  0  0  0  0  0  0  0  0  0  0  0
  191.5160  176.1590  144.4960 S   0  0  0  0  0  0  0  0  0  0  0  0
  188.2940  178.1220  141.9850 C   0  0  0  0  0  2  0  0  0  0  0  0
  183.6070  178.2530  142.3530 C   0  0  0  0  0  3  0  0  0  0  0  0
  186.6530  178.1130  145.4040 C   0  0  0  0  0  0  0  0  0  0  0  0
  185.3700  178.5700  145.7980 N   0  0  0  0  0  0  0  0  0  0  0  0
  190.4410  176.9350  142.2080 N   0  0  0  0  0  0  0  0  0  0  0  0
  184.9500  178.2350  142.4000 C   0  0  0  0  0  3  0  0  0  0  0  0
  189.5430  177.4790  141.4390 C   0  0  0  0  0  0  0  0  0  0  0  0
  189.0450  177.2710  144.2630 C   0  0  0  0  0  0  0  0  0  0  0  0
  189.7850  177.5510  139.9710 C   0  0  0  0  0  2  0  0  0  0  0  0
  188.6940  178.3590  139.2950 C   0  0  2  0  0  3  0  0  0  0  0  0
  188.0290  177.5010  138.2360 C   0  0  2  0  0  3  0  0  0  0  0  0
  189.0440  178.5560  137.8360 C   0  0  0  0  0  2  0  0  0  0  0  0
  186.6450  177.9990  137.9790 C   0  0  0  0  0  0  0  0  0  0  0  0
  185.9330  178.6340  138.9890 O   0  0  0  0  0  1  0  0  0  0  0  0
  186.1020  177.8060  136.8600 O   0  0  0  0  0  0  0  0  0  0  0  0
  1 13  1  0  0  0  0
  2  1  2  0  0  0  0
  2 18  1  0  0  0  0
  4 16  1  6  0  0  0
  4  1  1  0  0  0  0
  4  7  1  0  0  0  0
  5  8  2  0  0  0  0
  6  3  1  0  0  0  0
  7 14  2  0  0  0  0
  8  7  1  0  0  0  0
  9 18  1  0  0  0  0
  9 10  2  0  0  0  0
 11  2  1  0  0  0  0
 12 16  2  0  0  0  0
 12  5  1  0  0  0  0
 13 14  1  0  0  0  0
 13  3  2  0  0  0  0
 15  9  1  0  0  0  0
 17 11  1  0  0  0  0
 17 15  2  0  0  0  0
 18  6  2  0  0  0  0
 19 17  1  0  0  0  0
 20 19  1  1  0  0  0
 21 23  1  6  0  0  0
 21 20  1  0  0  0  0
 22 21  1  0  0  0  0
 22 20  1  0  0  0  0
 23 24  1  0  0  0  0
 25 23  2  0  0  0  0
M  END
>  <MODEL>
6

>  <REMARK>
 VINA RESULT:      -9.4      1.976      5.405
  Name = 
  3 active torsions:
  status: ('A' for Active; 'I' for Inactive)
    1  A    between atoms: C_2  and  C_21
    2  A    between atoms: C_6  and  C_15
    3  A    between atoms: C_6  and  C_23
                            x       y       z     vdW  Elec       q    Type
                         _______ _______ _______ _____ _____    ______ ____

>  <TORSDO>
F 3

$$$$
=
 OpenBabel11052412403D

 25 29  0  0  1  0  0  0  0  0999 V2000
  189.6500  177.9120  142.8210 C   0  0  0  0  0  0  0  0  0  0  0  0
  188.5750  178.1600  141.9600 C   0  0  0  0  0  0  0  0  0  0  0  0
  191.0940  177.2860  140.9880 C   0  0  0  0  0  3  0  0  0  0  0  0
  189.7810  178.1250  144.2860 C   0  0  2  0  0  3  0  0  0  0  0  0
  190.7130  176.8110  146.6750 C   0  0  0  0  0  3  0  0  0  0  0  0
  190.0280  177.5070  140.1020 C   0  0  0  0  0  3  0  0  0  0  0  0
  191.1980  177.6490  144.4800 C   0  0  0  0  0  0  0  0  0  0  0  0
  191.6480  177.2230  145.8080 C   0  0  0  0  0  3  0  0  0  0  0  0
  187.6350  178.1780  139.6690 C   0  0  0  0  0  0  0  0  0  0  0  0
  187.7750  177.9860  138.0480 S   0  0  0  0  0  0  0  0  0  0  0  0
  187.2750  178.6940  142.4970 C   0  0  0  0  0  2  0  0  0  0  0  0
  189.2810  176.7430  146.2770 C   0  0  0  0  0  3  0  0  0  0  0  0
  190.8750  177.5120  142.3430 C   0  0  0  0  0  0  0  0  0  0  0  0
  191.8130  177.3140  143.3890 N   0  0  0  0  0  0  0  0  0  0  0  0
  186.3600  178.5280  140.2160 N   0  0  0  0  0  0  0  0  0  0  0  0
  188.8480  177.2980  145.1330 C   0  0  0  0  0  3  0  0  0  0  0  0
  186.1590  178.7320  141.4850 C   0  0  0  0  0  0  0  0  0  0  0  0
  188.7710  177.9460  140.5790 C   0  0  0  0  0  0  0  0  0  0  0  0
  184.7960  179.1020  141.9580 C   0  0  0  0  0  2  0  0  0  0  0  0
  184.8510  179.5980  143.3910 C   0  0  2  0  0  3  0  0  0  0  0  0
  184.3340  178.5080  144.3100 C   0  0  2  0  0  3  0  0  0  0  0  0
  183.4460  179.6840  143.9480 C   0  0  0  0  0  2  0  0  0  0  0  0
  184.8970  178.6950  145.6810 C   0  0  0  0  0  0  0  0  0  0  0  0
  186.1920  179.1730  145.8440 O   0  0  0  0  0  0  0  0  0  0  0  0
  184.2170  178.3800  146.6920 O   0  0  0  0  0  1  0  0  0  0  0  0
  1  4  1  0  0  0  0
  2 11  1  0  0  0  0
  2  1  2  0  0  0  0
  3 13  2  0  0  0  0
  4  7  1  0  0  0  0
  4 16  1  1  0  0  0
  6 18  2  0  0  0  0
  6  3  1  0  0  0  0
  7  8  1  0  0  0  0
  8  5  2  0  0  0  0
  9 15  1  0  0  0  0
  9 18  1  0  0  0  0
 10  9  2  0  0  0  0
 12  5  1  0  0  0  0
 13  1  1  0  0  0  0
 13 14  1  0  0  0  0
 14  7  2  0  0  0  0
 15 17  2  0  0  0  0
 16 12  2  0  0  0  0
 17 19  1  0  0  0  0
 17 11  1  0  0  0  0
 18  2  1  0  0  0  0
 20 19  1  6  0  0  0
 20 22  1  0  0  0  0
 20 21  1  0  0  0  0
 21 23  1  1  0  0  0
 22 21  1  0  0  0  0
 23 24  2  0  0  0  0
 23 25  1  0  0  0  0
M  END
>  <MODEL>
7

>  <REMARK>
 VINA RESULT:      -9.3      3.055      4.857
  Name = 
  3 active torsions:
  status: ('A' for Active; 'I' for Inactive)
    1  A    between atoms: C_2  and  C_21
    2  A    between atoms: C_6  and  C_15
    3  A    between atoms: C_6  and  C_23
                            x       y       z     vdW  Elec       q    Type
                         _______ _______ _______ _____ _____    ______ ____

>  <TORSDO>
F 3

$$$$
=
 OpenBabel11052412403D

 25 29  0  0  1  0  0  0  0  0999 V2000
  187.7910  177.5450  145.3800 C   0  0  0  0  0  0  0  0  0  0  0  0
  186.9710  177.9780  144.3320 C   0  0  0  0  0  0  0  0  0  0  0  0
  186.1490  178.1570  147.0430 C   0  0  0  0  0  3  0  0  0  0  0  0
  189.1060  176.8510  145.3510 C   0  0  2  0  0  3  0  0  0  0  0  0
  191.7140  176.9280  146.5700 C   0  0  0  0  0  3  0  0  0  0  0  0
  185.3130  178.6190  146.0140 C   0  0  0  0  0  3  0  0  0  0  0  0
  189.3410  176.7050  146.8330 C   0  0  0  0  0  0  0  0  0  0  0  0
  190.7020  176.5040  147.3380 C   0  0  0  0  0  3  0  0  0  0  0  0
  184.8570  179.0140  143.5640 C   0  0  0  0  0  0  0  0  0  0  0  0
  183.3700  179.6420  143.8450 S   0  0  0  0  0  0  0  0  0  0  0  0
  187.4030  177.8010  142.9020 C   0  0  0  0  0  2  0  0  0  0  0  0
  191.4560  177.6220  145.2810 C   0  0  0  0  0  3  0  0  0  0  0  0
  187.3790  177.6110  146.6890 C   0  0  0  0  0  0  0  0  0  0  0  0
  188.3680  177.1250  147.5820 N   0  0  0  0  0  0  0  0  0  0  0  0
  185.3540  178.9880  142.2230 N   0  0  0  0  0  0  0  0  0  0  0  0
  190.2280  177.6460  144.7350 C   0  0  0  0  0  3  0  0  0  0  0  0
  186.5080  178.4820  141.8980 C   0  0  0  0  0  0  0  0  0  0  0  0
  185.7140  178.5300  144.6610 C   0  0  0  0  0  0  0  0  0  0  0  0
  186.9340  178.4920  140.4710 C   0  0  0  0  0  2  0  0  0  0  0  0
  187.9730  177.4150  140.2230 C   0  0  2  0  0  3  0  0  0  0  0  0
  189.3000  178.0750  139.8980 C   0  0  2  0  0  3  0  0  0  0  0  0
  188.4450  177.4930  138.7870 C   0  0  0  0  0  2  0  0  0  0  0  0
  190.4190  177.1420  140.2250 C   0  0  0  0  0  0  0  0  0  0  0  0
  191.5780  177.1450  139.4580 O   0  0  0  0  0  0  0  0  0  0  0  0
  190.3000  176.3190  141.1710 O   0  0  0  0  0  1  0  0  0  0  0  0
  1 13  1  0  0  0  0
  2 18  1  0  0  0  0
  2  1  2  0  0  0  0
  4 16  1  1  0  0  0
  4  1  1  0  0  0  0
  4  7  1  0  0  0  0
  5  8  2  0  0  0  0
  6  3  1  0  0  0  0
  7  8  1  0  0  0  0
  7 14  2  0  0  0  0
  9 10  2  0  0  0  0
  9 18  1  0  0  0  0
 11  2  1  0  0  0  0
 12  5  1  0  0  0  0
 13  3  2  0  0  0  0
 13 14  1  0  0  0  0
 15  9  1  0  0  0  0
 16 12  2  0  0  0  0
 17 15  2  0  0  0  0
 17 11  1  0  0  0  0
 18  6  2  0  0  0  0
 19 17  1  0  0  0  0
 20 19  1  6  0  0  0
 21 20  1  0  0  0  0
 21 23  1  1  0  0  0
 22 21  1  0  0  0  0
 22 20  1  0  0  0  0
 23 25  1  0  0  0  0
 24 23  2  0  0  0  0
M  END
>  <MODEL>
8

>  <REMARK>
 VINA RESULT:      -9.3      2.797      5.318
  Name = 
  3 active torsions:
  status: ('A' for Active; 'I' for Inactive)
    1  A    between atoms: C_2  and  C_21
    2  A    between atoms: C_6  and  C_15
    3  A    between atoms: C_6  and  C_23
                            x       y       z     vdW  Elec       q    Type
                         _______ _______ _______ _____ _____    ______ ____

>  <TORSDO>
F 3

$$$$
=
 OpenBabel11052412403D

 25 29  0  0  1  0  0  0  0  0999 V2000
  186.4440  178.5130  140.6610 C   0  0  0  0  0  0  0  0  0  0  0  0
  185.3330  178.6500  141.5010 C   0  0  0  0  0  0  0  0  0  0  0  0
  185.0580  178.4470  138.6840 C   0  0  0  0  0  3  0  0  0  0  0  0
  187.8970  178.5500  140.9710 C   0  0  2  0  0  3  0  0  0  0  0  0
  190.3500  177.1460  140.4160 C   0  0  0  0  0  3  0  0  0  0  0  0
  183.9230  178.5630  139.5030 C   0  0  0  0  0  3  0  0  0  0  0  0
  188.4520  178.3530  139.5840 C   0  0  0  0  0  0  0  0  0  0  0  0
  189.8180  177.8530  139.4100 C   0  0  0  0  0  3  0  0  0  0  0  0
  182.8770  178.7830  141.7880 C   0  0  0  0  0  0  0  0  0  0  0  0
  181.3530  178.8420  141.1880 S   0  0  0  0  0  0  0  0  0  0  0  0
  185.5150  178.8300  142.9840 C   0  0  0  0  0  2  0  0  0  0  0  0
  189.5580  176.8410  141.6370 C   0  0  0  0  0  3  0  0  0  0  0  0
  186.3070  178.4400  139.2960 C   0  0  0  0  0  0  0  0  0  0  0  0
  187.5590  178.2990  138.6440 N   0  0  0  0  0  0  0  0  0  0  0  0
  183.0620  178.7890  143.2060 N   0  0  0  0  0  0  0  0  0  0  0  0
  188.3810  177.4440  141.8740 C   0  0  0  0  0  3  0  0  0  0  0  0
  184.2330  178.7740  143.7740 C   0  0  0  0  0  0  0  0  0  0  0  0
  184.0530  178.6680  140.9060 C   0  0  0  0  0  0  0  0  0  0  0  0
  184.3230  178.7910  145.2600 C   0  0  0  0  0  2  0  0  0  0  0  0
  185.7640  178.9690  145.6990 C   0  0  2  0  0  3  0  0  0  0  0  0
  186.2160  177.7190  146.4290 C   0  0  2  0  0  3  0  0  0  0  0  0
  185.8350  178.9620  147.2110 C   0  0  0  0  0  2  0  0  0  0  0  0
  187.7020  177.5990  146.3510 C   0  0  0  0  0  0  0  0  0  0  0  0
  188.3860  178.0840  145.2430 O   0  0  0  0  0  0  0  0  0  0  0  0
  188.3380  177.0180  147.2700 O   0  0  0  0  0  1  0  0  0  0  0  0
  1  4  1  0  0  0  0
  1  2  1  0  0  0  0
  2 11  1  0  0  0  0
  3 13  1  0  0  0  0
  3  6  2  0  0  0  0
  4 16  1  1  0  0  0
  5 12  1  0  0  0  0
  6 18  1  0  0  0  0
  7  4  1  0  0  0  0
  8  7  1  0  0  0  0
  8  5  2  0  0  0  0
  9 15  1  0  0  0  0
 10  9  2  0  0  0  0
 11 17  1  0  0  0  0
 12 16  2  0  0  0  0
 13  1  2  0  0  0  0
 14 13  1  0  0  0  0
 14  7  2  0  0  0  0
 15 17  2  0  0  0  0
 17 19  1  0  0  0  0
 18  2  2  0  0  0  0
 18  9  1  0  0  0  0
 20 19  1  1  0  0  0
 20 21  1  0  0  0  0
 20 22  1  0  0  0  0
 21 23  1  6  0  0  0
 21 22  1  0  0  0  0
 23 25  1  0  0  0  0
 24 23  2  0  0  0  0
M  END
>  <MODEL>
9

>  <REMARK>
 VINA RESULT:      -9.0      3.419      5.380
  Name = 
  3 active torsions:
  status: ('A' for Active; 'I' for Inactive)
    1  A    between atoms: C_2  and  C_21
    2  A    between atoms: C_6  and  C_15
    3  A    between atoms: C_6  and  C_23
                            x       y       z     vdW  Elec       q    Type
                         _______ _______ _______ _____ _____    ______ ____

>  <TORSDO>
F 3

$$$$
