=
 OpenBabel11052416333D

 43 49  0  0  1  0  0  0  0  0999 V2000
  191.4700  176.4320  146.7720 C   0  0  0  0  0  0  0  0  0  0  0  0
  187.0270  177.9650  144.9060 C   0  0  0  0  0  0  0  0  0  0  0  0
  187.3910  178.1620  142.1760 C   0  0  0  0  0  0  0  0  0  0  0  0
  189.1720  177.1590  146.5270 C   0  0  0  0  0  0  0  0  0  0  0  0
  191.6580  176.5430  145.3940 C   0  0  0  0  0  3  0  0  0  0  0  0
  192.4910  176.0190  147.5620 F   0  0  0  0  0  0  0  0  0  0  0  0
  189.3560  177.2760  145.1270 C   0  0  0  0  0  0  0  0  0  0  0  0
  190.2300  176.7390  147.3400 C   0  0  0  0  0  3  0  0  0  0  0  0
  190.6060  176.9640  144.5730 C   0  0  0  0  0  3  0  0  0  0  0  0
  188.4290  177.7940  142.9710 N   0  0  0  0  0  0  0  0  0  0  0  0
  188.2830  177.6880  144.3190 C   0  0  0  0  0  0  0  0  0  0  0  0
  186.8650  177.8510  146.2930 C   0  0  0  0  0  3  0  0  0  0  0  0
  185.9680  178.3430  144.0640 C   0  0  0  0  0  0  0  0  0  0  0  0
  186.1750  178.4210  142.7220 N   0  0  0  0  0  0  0  0  0  0  0  0
  187.9320  177.4510  147.0990 C   0  0  0  0  0  3  0  0  0  0  0  0
  184.5890  178.5860  144.5950 C   0  0  0  0  0  2  0  0  0  0  0  0
  181.3570  179.0510  142.6700 C   0  0  0  0  0  3  0  0  0  0  0  0
  181.7360  178.6300  141.3890 C   0  0  0  0  0  0  0  0  0  0  0  0
  183.9820  178.2110  142.1900 C   0  0  0  0  0  3  0  0  0  0  0  0
  182.2900  179.0430  143.7110 C   0  0  0  0  0  3  0  0  0  0  0  0
  183.6030  178.6250  143.4740 C   0  0  0  0  0  0  0  0  0  0  0  0
  183.0510  178.2130  141.1480 C   0  0  0  0  0  3  0  0  0  0  0  0
  179.9300  177.5250  140.3430 O   0  0  0  0  0  1  0  0  0  0  0  0
  180.7460  178.6570  140.2760 C   0  0  0  0  0  2  0  0  0  0  0  0
  187.5670  178.1900  140.6960 C   0  0  0  0  0  2  0  0  0  0  0  0
  189.0250  178.4380  140.3160 C   0  0  0  0  0  2  0  0  0  0  0  0
  189.3820  177.6880  139.1190 N   0  0  0  0  0  2  0  0  0  0  0  0
  189.2270  178.2140  137.7980 C   0  0  0  0  0  0  0  0  0  0  0  0
  188.9390  179.4650  137.6160 N   0  0  0  0  0  2  0  0  0  0  0  0
  189.5100  177.3210  136.6260 C   0  0  1  0  0  3  0  0  0  0  0  0
  190.6760  176.5660  136.8430 O   0  0  0  0  0  0  0  0  0  0  0  0
  188.6640  175.4530  135.0370 C   0  0  0  0  0  2  0  0  0  0  0  0
  186.9150  176.8410  136.4460 C   0  0  2  0  0  3  0  0  0  0  0  0
  191.0520  176.0270  135.5950 C   0  0  0  0  0  2  0  0  0  0  0  0
  188.3500  176.3960  136.1950 C   0  0  2  0  0  0  0  0  0  0  0  0
  187.5510  175.7430  137.3010 C   0  0  0  0  0  2  0  0  0  0  0  0
  190.0860  174.9060  135.1900 C   0  0  0  0  0  2  0  0  0  0  0  0
  186.0340  176.2700  135.5240 O   0  0  0  0  0  0  0  0  0  0  0  0
  184.9490  177.1460  135.4960 C   0  0  0  0  0  2  0  0  0  0  0  0
  183.6950  176.4270  135.9530 C   0  0  0  0  0  2  0  0  0  0  0  0
  183.3530  175.6730  138.2820 C   0  0  0  0  0  2  0  0  0  0  0  0
  183.3480  176.8730  137.3590 C   0  0  0  0  0  3  0  0  0  0  0  0
  182.0410  176.2320  137.7760 C   0  0  0  0  0  2  0  0  0  0  0  0
  1  8  1  0  0  0  0
  1  6  1  0  0  0  0
  2 12  1  0  0  0  0
  3 14  1  0  0  0  0
  3 10  2  0  0  0  0
  4 15  1  0  0  0  0
  4  8  2  0  0  0  0
  5  1  2  0  0  0  0
  7  4  1  0  0  0  0
  9  7  2  0  0  0  0
  9  5  1  0  0  0  0
 10 11  1  0  0  0  0
 11  2  2  0  0  0  0
 11  7  1  0  0  0  0
 12 15  2  0  0  0  0
 13 16  1  0  0  0  0
 13  2  1  0  0  0  0
 14 13  2  0  0  0  0
 17 20  1  0  0  0  0
 18 17  2  0  0  0  0
 19 21  1  0  0  0  0
 21 20  2  0  0  0  0
 21 16  1  0  0  0  0
 22 18  1  0  0  0  0
 22 19  2  0  0  0  0
 24 23  1  0  0  0  0
 24 18  1  0  0  0  0
 25  3  1  0  0  0  0
 26 25  1  0  0  0  0
 27 26  1  0  0  0  0
 28 27  1  0  0  0  0
 29 28  2  0  0  0  0
 30 31  1  0  0  0  0
 30 28  1  1  0  0  0
 32 37  1  0  0  0  0
 33 38  1  6  0  0  0
 33 36  1  0  0  0  0
 34 31  1  0  0  0  0
 35 32  1  6  0  0  0
 35 33  1  0  0  0  0
 35 30  1  0  0  0  0
 35 36  1  0  0  0  0
 37 34  1  0  0  0  0
 39 38  1  0  0  0  0
 39 40  1  0  0  0  0
 40 42  1  0  0  0  0
 42 43  1  0  0  0  0
 42 41  1  0  0  0  0
 43 41  1  0  0  0  0
M  END
>  <MODEL>
1

>  <REMARK>
 VINA RESULT:      -9.7      0.000      0.000
  Name = 
  11 active torsions:
  status: ('A' for Active; 'I' for Inactive)
    1  A    between atoms: C_1  and  C_34
    2  A    between atoms: C_1  and  C_35
    3  A    between atoms: C_2  and  N_6
    4  A    between atoms: C_2  and  C_7
    5  A    between atoms: C_3  and  C_12
    6  A    between atoms: C_7  and  C_13
    7  A    between atoms: O_11  and  C_14
    8  A    between atoms: O_11  and  C_36
    9  A    between atoms: C_19  and  C_37
   10  A    between atoms: C_29  and  C_31
   11  A    between atoms: C_29  and  C_36
                            x       y       z     vdW  Elec       q    Type
                         _______ _______ _______ _____ _____    ______ ____

>  <TORSDO>
F 11

$$$$
=
 OpenBabel11052416333D

 43 49  0  0  1  0  0  0  0  0999 V2000
  181.2720  179.0190  141.8690 C   0  0  0  0  0  0  0  0  0  0  0  0
  185.5410  178.3530  144.4970 C   0  0  0  0  0  0  0  0  0  0  0  0
  187.4890  177.7800  142.6260 C   0  0  0  0  0  0  0  0  0  0  0  0
  182.9070  178.8170  143.6460 C   0  0  0  0  0  0  0  0  0  0  0  0
  182.2540  178.7170  140.9240 C   0  0  0  0  0  3  0  0  0  0  0  0
  180.0020  179.2690  141.4670 F   0  0  0  0  0  0  0  0  0  0  0  0
  183.9090  178.5080  142.6920 C   0  0  0  0  0  0  0  0  0  0  0  0
  181.5960  179.0690  143.2280 C   0  0  0  0  0  3  0  0  0  0  0  0
  183.5680  178.4620  141.3320 C   0  0  0  0  0  3  0  0  0  0  0  0
  186.2070  177.9840  142.2260 N   0  0  0  0  0  0  0  0  0  0  0  0
  185.2250  178.2680  143.1230 C   0  0  0  0  0  0  0  0  0  0  0  0
  184.5370  178.6530  145.4270 C   0  0  0  0  0  3  0  0  0  0  0  0
  186.8730  178.1390  144.8880 C   0  0  0  0  0  0  0  0  0  0  0  0
  187.8130  177.8690  143.9420 N   0  0  0  0  0  0  0  0  0  0  0  0
  183.2270  178.8820  145.0030 C   0  0  0  0  0  3  0  0  0  0  0  0
  187.3070  178.2790  146.3140 C   0  0  0  0  0  2  0  0  0  0  0  0
  190.9370  177.3200  145.7940 C   0  0  0  0  0  3  0  0  0  0  0  0
  191.1330  176.4040  146.8360 C   0  0  0  0  0  0  0  0  0  0  0  0
  188.8450  176.7350  147.5580 C   0  0  0  0  0  3  0  0  0  0  0  0
  189.6930  177.9350  145.6300 C   0  0  0  0  0  3  0  0  0  0  0  0
  188.6450  177.6460  146.5110 C   0  0  0  0  0  0  0  0  0  0  0  0
  190.0860  176.1140  147.7210 C   0  0  0  0  0  3  0  0  0  0  0  0
  192.9010  175.9540  148.3350 O   0  0  0  0  0  1  0  0  0  0  0  0
  192.4650  175.7640  147.0210 C   0  0  0  0  0  2  0  0  0  0  0  0
  188.5540  177.5510  141.6080 C   0  0  0  0  0  2  0  0  0  0  0  0
  188.2340  178.2720  140.3010 C   0  0  0  0  0  2  0  0  0  0  0  0
  188.8540  177.5920  139.1710 N   0  0  0  0  0  2  0  0  0  0  0  0
  188.7980  178.0980  137.8350 C   0  0  0  0  0  0  0  0  0  0  0  0
  188.3550  179.2940  137.6000 N   0  0  0  0  0  2  0  0  0  0  0  0
  189.3630  177.2660  136.7220 C   0  0  1  0  0  3  0  0  0  0  0  0
  190.5420  176.6170  137.1330 O   0  0  0  0  0  0  0  0  0  0  0  0
  188.9880  175.3680  134.9930 C   0  0  0  0  0  2  0  0  0  0  0  0
  186.8970  176.5510  136.0880 C   0  0  2  0  0  3  0  0  0  0  0  0
  191.1770  176.1470  135.9640 C   0  0  0  0  0  2  0  0  0  0  0  0
  188.3900  176.2480  136.0870 C   0  0  2  0  0  0  0  0  0  0  0  0
  187.4780  175.4950  137.0320 C   0  0  0  0  0  2  0  0  0  0  0  0
  190.4090  174.9520  135.3870 C   0  0  0  0  0  2  0  0  0  0  0  0
  186.2470  175.9240  135.0210 O   0  0  0  0  0  0  0  0  0  0  0  0
  185.0910  176.6810  134.8300 C   0  0  0  0  0  2  0  0  0  0  0  0
  183.9910  176.1800  135.7450 C   0  0  0  0  0  2  0  0  0  0  0  0
  183.8480  177.6510  137.7260 C   0  0  0  0  0  2  0  0  0  0  0  0
  183.2720  177.3650  136.3560 C   0  0  0  0  0  3  0  0  0  0  0  0
  182.5340  176.9130  137.5990 C   0  0  0  0  0  2  0  0  0  0  0  0
  1  8  1  0  0  0  0
  2 13  1  0  0  0  0
  2 12  1  0  0  0  0
  3 14  1  0  0  0  0
  4 15  1  0  0  0  0
  5  9  1  0  0  0  0
  5  1  2  0  0  0  0
  6  1  1  0  0  0  0
  7 11  1  0  0  0  0
  7  4  1  0  0  0  0
  8  4  2  0  0  0  0
  9  7  2  0  0  0  0
 10  3  2  0  0  0  0
 10 11  1  0  0  0  0
 11  2  2  0  0  0  0
 13 16  1  0  0  0  0
 14 13  2  0  0  0  0
 15 12  2  0  0  0  0
 16 21  1  0  0  0  0
 17 18  1  0  0  0  0
 18 24  1  0  0  0  0
 18 22  2  0  0  0  0
 19 22  1  0  0  0  0
 20 17  2  0  0  0  0
 20 21  1  0  0  0  0
 21 19  2  0  0  0  0
 24 23  1  0  0  0  0
 25  3  1  0  0  0  0
 26 25  1  0  0  0  0
 27 26  1  0  0  0  0
 28 27  1  0  0  0  0
 29 28  2  0  0  0  0
 30 31  1  0  0  0  0
 30 28  1  1  0  0  0
 32 37  1  0  0  0  0
 33 38  1  6  0  0  0
 33 36  1  0  0  0  0
 34 31  1  0  0  0  0
 35 32  1  6  0  0  0
 35 33  1  0  0  0  0
 35 30  1  0  0  0  0
 35 36  1  0  0  0  0
 37 34  1  0  0  0  0
 39 38  1  0  0  0  0
 39 40  1  0  0  0  0
 40 42  1  0  0  0  0
 42 43  1  0  0  0  0
 42 41  1  0  0  0  0
 43 41  1  0  0  0  0
M  END
>  <MODEL>
2

>  <REMARK>
 VINA RESULT:      -9.6      2.916      6.255
  Name = 
  11 active torsions:
  status: ('A' for Active; 'I' for Inactive)
    1  A    between atoms: C_1  and  C_34
    2  A    between atoms: C_1  and  C_35
    3  A    between atoms: C_2  and  N_6
    4  A    between atoms: C_2  and  C_7
    5  A    between atoms: C_3  and  C_12
    6  A    between atoms: C_7  and  C_13
    7  A    between atoms: O_11  and  C_14
    8  A    between atoms: O_11  and  C_36
    9  A    between atoms: C_19  and  C_37
   10  A    between atoms: C_29  and  C_31
   11  A    between atoms: C_29  and  C_36
                            x       y       z     vdW  Elec       q    Type
                         _______ _______ _______ _____ _____    ______ ____

>  <TORSDO>
F 11

$$$$
=
 OpenBabel11052416333D

 43 49  0  0  1  0  0  0  0  0999 V2000
  191.0090  176.7310  146.9260 C   0  0  0  0  0  0  0  0  0  0  0  0
  189.3270  177.9110  142.3050 C   0  0  0  0  0  0  0  0  0  0  0  0
  186.5870  178.1470  142.5450 C   0  0  0  0  0  0  0  0  0  0  0  0
  190.8560  177.2470  144.5640 C   0  0  0  0  0  0  0  0  0  0  0  0
  189.6230  176.8390  147.0450 C   0  0  0  0  0  3  0  0  0  0  0  0
  191.7600  176.4360  148.0150 F   0  0  0  0  0  0  0  0  0  0  0  0
  189.4470  177.3550  144.6760 C   0  0  0  0  0  0  0  0  0  0  0  0
  191.6260  176.9340  145.6880 C   0  0  0  0  0  3  0  0  0  0  0  0
  188.8430  177.1490  145.9260 C   0  0  0  0  0  3  0  0  0  0  0  0
  187.3330  177.8040  143.6270 N   0  0  0  0  0  0  0  0  0  0  0  0
  188.6840  177.6790  143.5420 C   0  0  0  0  0  0  0  0  0  0  0  0
  190.7200  177.7930  142.2100 C   0  0  0  0  0  3  0  0  0  0  0  0
  188.5360  178.2660  141.2000 C   0  0  0  0  0  0  0  0  0  0  0  0
  187.1890  178.3850  141.3510 N   0  0  0  0  0  0  0  0  0  0  0  0
  191.4790  177.4610  143.3330 C   0  0  0  0  0  3  0  0  0  0  0  0
  189.1430  178.5970  139.8710 C   0  0  0  0  0  2  0  0  0  0  0  0
  190.3460  175.5440  137.9750 C   0  0  0  0  0  3  0  0  0  0  0  0
  189.1840  175.1690  137.2880 C   0  0  0  0  0  0  0  0  0  0  0  0
  187.9870  177.0100  138.3100 C   0  0  0  0  0  3  0  0  0  0  0  0
  190.3290  176.6560  138.8210 C   0  0  0  0  0  3  0  0  0  0  0  0
  189.1500  177.3900  138.9920 C   0  0  0  0  0  0  0  0  0  0  0  0
  188.0020  175.9020  137.4590 C   0  0  0  0  0  3  0  0  0  0  0  0
  188.2720  174.1390  135.3690 O   0  0  0  0  0  1  0  0  0  0  0  0
  189.1990  173.9730  136.4010 C   0  0  0  0  0  2  0  0  0  0  0  0
  185.1180  178.3530  142.6950 C   0  0  0  0  0  2  0  0  0  0  0  0
  184.5040  178.9140  141.4140 C   0  0  0  0  0  2  0  0  0  0  0  0
  183.7700  177.8790  140.6970 N   0  0  0  0  0  2  0  0  0  0  0  0
  182.3540  177.9230  140.5040 C   0  0  0  0  0  0  0  0  0  0  0  0
  181.6820  178.9930  140.7940 N   0  0  0  0  0  2  0  0  0  0  0  0
  181.6750  176.7520  139.8570 C   0  0  1  0  0  3  0  0  0  0  0  0
  180.3320  176.6650  140.2660 O   0  0  0  0  0  0  0  0  0  0  0  0
  181.0270  175.5290  137.6620 C   0  0  0  0  0  2  0  0  0  0  0  0
  182.9700  177.3160  137.6210 C   0  0  2  0  0  3  0  0  0  0  0  0
  179.8750  175.3820  139.8970 C   0  0  0  0  0  2  0  0  0  0  0  0
  181.7670  176.6930  138.3150 C   0  0  2  0  0  0  0  0  0  0  0  0
  181.6030  178.0010  137.5730 C   0  0  0  0  0  2  0  0  0  0  0  0
  179.6910  175.3020  138.3760 C   0  0  0  0  0  2  0  0  0  0  0  0
  183.2320  176.6960  136.3960 O   0  0  0  0  0  0  0  0  0  0  0  0
  184.4700  176.0790  136.5790 C   0  0  0  0  0  2  0  0  0  0  0  0
  184.3580  174.6000  136.2690 C   0  0  0  0  0  2  0  0  0  0  0  0
  185.6870  173.0110  137.6190 C   0  0  0  0  0  2  0  0  0  0  0  0
  184.4040  173.8140  137.5640 C   0  0  0  0  0  3  0  0  0  0  0  0
  184.3860  172.3330  137.2480 C   0  0  0  0  0  2  0  0  0  0  0  0
  1  5  1  0  0  0  0
  1  6  1  0  0  0  0
  2 11  1  0  0  0  0
  3 25  1  0  0  0  0
  3 10  2  0  0  0  0
  4  7  1  0  0  0  0
  4  8  1  0  0  0  0
  7  9  1  0  0  0  0
  8  1  2  0  0  0  0
  9  5  2  0  0  0  0
 11 10  1  0  0  0  0
 11  7  2  0  0  0  0
 12  2  2  0  0  0  0
 12 15  1  0  0  0  0
 13 14  2  0  0  0  0
 13  2  1  0  0  0  0
 14  3  1  0  0  0  0
 15  4  2  0  0  0  0
 16 13  1  0  0  0  0
 17 20  1  0  0  0  0
 18 22  1  0  0  0  0
 18 17  2  0  0  0  0
 19 21  1  0  0  0  0
 20 21  2  0  0  0  0
 21 16  1  0  0  0  0
 22 19  2  0  0  0  0
 23 24  1  0  0  0  0
 24 18  1  0  0  0  0
 26 25  1  0  0  0  0
 27 26  1  0  0  0  0
 28 27  1  0  0  0  0
 28 29  2  0  0  0  0
 30 31  1  0  0  0  0
 30 28  1  6  0  0  0
 32 35  1  0  0  0  0
 32 37  1  0  0  0  0
 33 38  1  6  0  0  0
 33 35  1  0  0  0  0
 34 31  1  0  0  0  0
 35 36  1  6  0  0  0
 35 30  1  0  0  0  0
 36 33  1  0  0  0  0
 37 34  1  0  0  0  0
 38 39  1  0  0  0  0
 40 39  1  0  0  0  0
 40 42  1  0  0  0  0
 42 41  1  0  0  0  0
 43 42  1  0  0  0  0
 43 41  1  0  0  0  0
M  END
>  <MODEL>
3

>  <REMARK>
 VINA RESULT:      -9.6      1.951      6.218
  Name = 
  11 active torsions:
  status: ('A' for Active; 'I' for Inactive)
    1  A    between atoms: C_1  and  C_34
    2  A    between atoms: C_1  and  C_35
    3  A    between atoms: C_2  and  N_6
    4  A    between atoms: C_2  and  C_7
    5  A    between atoms: C_3  and  C_12
    6  A    between atoms: C_7  and  C_13
    7  A    between atoms: O_11  and  C_14
    8  A    between atoms: O_11  and  C_36
    9  A    between atoms: C_19  and  C_37
   10  A    between atoms: C_29  and  C_31
   11  A    between atoms: C_29  and  C_36
                            x       y       z     vdW  Elec       q    Type
                         _______ _______ _______ _____ _____    ______ ____

>  <TORSDO>
F 11

$$$$
=
 OpenBabel11052416333D

 43 49  0  0  1  0  0  0  0  0999 V2000
  190.7730  176.7800  146.7630 C   0  0  0  0  0  0  0  0  0  0  0  0
  189.9210  177.4820  141.8270 C   0  0  0  0  0  0  0  0  0  0  0  0
  187.2800  178.2590  141.6280 C   0  0  0  0  0  0  0  0  0  0  0  0
  191.0050  176.9220  144.3560 C   0  0  0  0  0  0  0  0  0  0  0  0
  189.4340  177.1610  146.6610 C   0  0  0  0  0  3  0  0  0  0  0  0
  191.3140  176.5310  147.9800 F   0  0  0  0  0  0  0  0  0  0  0  0
  189.6460  177.3080  144.2450 C   0  0  0  0  0  0  0  0  0  0  0  0
  191.5580  176.6600  145.6130 C   0  0  0  0  0  3  0  0  0  0  0  0
  188.8710  177.4240  145.4080 C   0  0  0  0  0  3  0  0  0  0  0  0
  187.8070  177.9650  142.8450 N   0  0  0  0  0  0  0  0  0  0  0  0
  189.1040  177.5790  142.9760 C   0  0  0  0  0  0  0  0  0  0  0  0
  191.2620  177.0930  141.9550 C   0  0  0  0  0  3  0  0  0  0  0  0
  189.3550  177.7930  140.5800 C   0  0  0  0  0  0  0  0  0  0  0  0
  188.0540  178.1830  140.5140 N   0  0  0  0  0  0  0  0  0  0  0  0
  191.7990  176.8130  143.2120 C   0  0  0  0  0  3  0  0  0  0  0  0
  190.1680  177.7840  139.3230 C   0  0  0  0  0  2  0  0  0  0  0  0
  188.0650  178.3740  136.2250 C   0  0  0  0  0  3  0  0  0  0  0  0
  187.5820  177.0840  135.9690 C   0  0  0  0  0  0  0  0  0  0  0  0
  188.8100  176.2450  137.8800 C   0  0  0  0  0  3  0  0  0  0  0  0
  188.9130  178.5980  137.3130 C   0  0  0  0  0  3  0  0  0  0  0  0
  189.2890  177.5360  138.1410 C   0  0  0  0  0  0  0  0  0  0  0  0
  187.9580  176.0180  136.7960 C   0  0  0  0  0  3  0  0  0  0  0  0
  185.4360  177.4030  135.0370 O   0  0  0  0  0  1  0  0  0  0  0  0
  186.6940  176.8440  134.7980 C   0  0  0  0  0  2  0  0  0  0  0  0
  185.8770  178.7560  141.5310 C   0  0  0  0  0  2  0  0  0  0  0  0
  185.4530  178.9360  140.0750 C   0  0  0  0  0  2  0  0  0  0  0  0
  184.1050  179.4830  139.9950 N   0  0  0  0  0  2  0  0  0  0  0  0
  183.0920  178.9300  139.1510 C   0  0  0  0  0  0  0  0  0  0  0  0
  183.2750  177.7900  138.5600 N   0  0  0  0  0  2  0  0  0  0  0  0
  181.7720  179.6350  139.0470 C   0  0  1  0  0  3  0  0  0  0  0  0
  181.2460  179.5230  137.7460 O   0  0  0  0  0  0  0  0  0  0  0  0
  179.3510  179.9030  139.9410 C   0  0  0  0  0  2  0  0  0  0  0  0
  181.1630  178.7170  141.4510 C   0  0  2  0  0  3  0  0  0  0  0  0
  180.2080  180.4730  137.6430 C   0  0  0  0  0  2  0  0  0  0  0  0
  180.7080  179.2200  140.0880 C   0  0  2  0  0  0  0  0  0  0  0  0
  180.6060  177.7450  140.4080 C   0  0  0  0  0  2  0  0  0  0  0  0
  178.9900  180.0190  138.4570 C   0  0  0  0  0  2  0  0  0  0  0  0
  180.1980  178.9590  142.4340 O   0  0  0  0  0  0  0  0  0  0  0  0
  180.8910  178.8240  143.6370 C   0  0  0  0  0  2  0  0  0  0  0  0
  182.3820  178.9290  143.3860 C   0  0  0  0  0  2  0  0  0  0  0  0
  184.3410  179.8760  144.5600 C   0  0  0  0  0  2  0  0  0  0  0  0
  183.1070  179.0120  144.7140 C   0  0  0  0  0  3  0  0  0  0  0  0
  184.4710  178.3690  144.5780 C   0  0  0  0  0  2  0  0  0  0  0  0
  1  6  1  0  0  0  0
  2 12  2  0  0  0  0
  2 11  1  0  0  0  0
  3 10  2  0  0  0  0
  4  8  1  0  0  0  0
  5  1  1  0  0  0  0
  7  4  1  0  0  0  0
  7  9  1  0  0  0  0
  8  1  2  0  0  0  0
  9  5  2  0  0  0  0
 10 11  1  0  0  0  0
 11  7  2  0  0  0  0
 12 15  1  0  0  0  0
 13  2  1  0  0  0  0
 14 13  2  0  0  0  0
 14  3  1  0  0  0  0
 15  4  2  0  0  0  0
 16 13  1  0  0  0  0
 17 20  1  0  0  0  0
 18 17  2  0  0  0  0
 18 22  1  0  0  0  0
 19 21  1  0  0  0  0
 20 21  2  0  0  0  0
 21 16  1  0  0  0  0
 22 19  2  0  0  0  0
 24 23  1  0  0  0  0
 24 18  1  0  0  0  0
 25  3  1  0  0  0  0
 26 25  1  0  0  0  0
 27 26  1  0  0  0  0
 28 27  1  0  0  0  0
 29 28  2  0  0  0  0
 30 28  1  6  0  0  0
 30 35  1  0  0  0  0
 31 30  1  0  0  0  0
 33 38  1  1  0  0  0
 34 31  1  0  0  0  0
 34 37  1  0  0  0  0
 35 32  1  6  0  0  0
 35 36  1  0  0  0  0
 35 33  1  0  0  0  0
 36 33  1  0  0  0  0
 37 32  1  0  0  0  0
 38 39  1  0  0  0  0
 40 39  1  0  0  0  0
 40 42  1  0  0  0  0
 41 43  1  0  0  0  0
 41 42  1  0  0  0  0
 43 42  1  0  0  0  0
M  END
>  <MODEL>
4

>  <REMARK>
 VINA RESULT:      -9.5      1.939      6.943
  Name = 
  11 active torsions:
  status: ('A' for Active; 'I' for Inactive)
    1  A    between atoms: C_1  and  C_34
    2  A    between atoms: C_1  and  C_35
    3  A    between atoms: C_2  and  N_6
    4  A    between atoms: C_2  and  C_7
    5  A    between atoms: C_3  and  C_12
    6  A    between atoms: C_7  and  C_13
    7  A    between atoms: O_11  and  C_14
    8  A    between atoms: O_11  and  C_36
    9  A    between atoms: C_19  and  C_37
   10  A    between atoms: C_29  and  C_31
   11  A    between atoms: C_29  and  C_36
                            x       y       z     vdW  Elec       q    Type
                         _______ _______ _______ _____ _____    ______ ____

>  <TORSDO>
F 11

$$$$
=
 OpenBabel11052416333D

 43 49  0  0  1  0  0  0  0  0999 V2000
  191.0510  176.7480  146.9540 C   0  0  0  0  0  0  0  0  0  0  0  0
  189.3060  177.9300  142.3570 C   0  0  0  0  0  0  0  0  0  0  0  0
  186.5620  178.0880  142.6170 C   0  0  0  0  0  0  0  0  0  0  0  0
  190.8670  177.2830  144.5980 C   0  0  0  0  0  0  0  0  0  0  0  0
  189.6630  176.8170  147.0830 C   0  0  0  0  0  3  0  0  0  0  0  0
  191.8180  176.4610  148.0350 F   0  0  0  0  0  0  0  0  0  0  0  0
  189.4570  177.3520  144.7220 C   0  0  0  0  0  0  0  0  0  0  0  0
  191.6540  176.9800  145.7150 C   0  0  0  0  0  3  0  0  0  0  0  0
  188.8680  177.1160  145.9730 C   0  0  0  0  0  3  0  0  0  0  0  0
  187.3240  177.7550  143.6910 N   0  0  0  0  0  0  0  0  0  0  0  0
  188.6780  177.6670  143.5960 C   0  0  0  0  0  0  0  0  0  0  0  0
  190.7010  177.8510  142.2510 C   0  0  0  0  0  3  0  0  0  0  0  0
  188.4980  178.2740  141.2610 C   0  0  0  0  0  0  0  0  0  0  0  0
  187.1500  178.3550  141.4220 N   0  0  0  0  0  0  0  0  0  0  0  0
  191.4770  177.5270  143.3660 C   0  0  0  0  0  3  0  0  0  0  0  0
  189.0860  178.6350  139.9320 C   0  0  0  0  0  2  0  0  0  0  0  0
  187.2890  176.5420  137.3330 C   0  0  0  0  0  3  0  0  0  0  0  0
  188.2200  175.5200  137.1090 C   0  0  0  0  0  0  0  0  0  0  0  0
  189.7300  176.5460  138.7010 C   0  0  0  0  0  3  0  0  0  0  0  0
  187.5760  177.5600  138.2470 C   0  0  0  0  0  3  0  0  0  0  0  0
  188.7960  177.5650  138.9310 C   0  0  0  0  0  0  0  0  0  0  0  0
  189.4440  175.5250  137.7910 C   0  0  0  0  0  3  0  0  0  0  0  0
  187.0330  174.9300  135.1560 O   0  0  0  0  0  1  0  0  0  0  0  0
  187.9210  174.4480  136.1200 C   0  0  0  0  0  2  0  0  0  0  0  0
  185.0890  178.2530  142.7790 C   0  0  0  0  0  2  0  0  0  0  0  0
  184.5540  179.3670  141.8840 C   0  0  0  0  0  2  0  0  0  0  0  0
  183.6610  178.8280  140.8670 N   0  0  0  0  0  2  0  0  0  0  0  0
  183.6350  179.3120  139.5210 C   0  0  0  0  0  0  0  0  0  0  0  0
  184.5490  180.1270  139.0950 N   0  0  0  0  0  2  0  0  0  0  0  0
  182.5970  178.7750  138.5790 C   0  0  1  0  0  3  0  0  0  0  0  0
  182.2740  177.4430  138.8980 O   0  0  0  0  0  0  0  0  0  0  0  0
  180.2380  179.0380  137.5340 C   0  0  0  0  0  2  0  0  0  0  0  0
  181.3840  181.1230  138.6770 C   0  0  2  0  0  3  0  0  0  0  0  0
  181.5720  176.9180  137.7930 C   0  0  0  0  0  2  0  0  0  0  0  0
  181.3090  179.6190  138.4510 C   0  0  2  0  0  0  0  0  0  0  0  0
  180.7510  180.2090  139.7280 C   0  0  0  0  0  2  0  0  0  0  0  0
  180.1630  177.5200  137.7250 C   0  0  0  0  0  2  0  0  0  0  0  0
  180.3830  181.7970  137.9720 O   0  0  0  0  0  0  0  0  0  0  0  0
  181.0770  182.5840  137.0530 C   0  0  0  0  0  2  0  0  0  0  0  0
  181.0590  184.0320  137.4990 C   0  0  0  0  0  2  0  0  0  0  0  0
  179.3090  185.6740  136.9050 C   0  0  0  0  0  2  0  0  0  0  0  0
  179.6270  184.4590  137.7500 C   0  0  0  0  0  3  0  0  0  0  0  0
  179.6210  185.8370  138.3770 C   0  0  0  0  0  2  0  0  0  0  0  0
  1  5  1  0  0  0  0
  1  6  1  0  0  0  0
  2 11  1  0  0  0  0
  3 25  1  0  0  0  0
  3 10  2  0  0  0  0
  4  7  1  0  0  0  0
  4  8  1  0  0  0  0
  7  9  1  0  0  0  0
  8  1  2  0  0  0  0
  9  5  2  0  0  0  0
 11 10  1  0  0  0  0
 11  7  2  0  0  0  0
 12  2  2  0  0  0  0
 12 15  1  0  0  0  0
 13 14  2  0  0  0  0
 13  2  1  0  0  0  0
 14  3  1  0  0  0  0
 15  4  2  0  0  0  0
 16 13  1  0  0  0  0
 17 20  1  0  0  0  0
 18 17  2  0  0  0  0
 18 22  1  0  0  0  0
 19 21  1  0  0  0  0
 20 21  2  0  0  0  0
 21 16  1  0  0  0  0
 22 19  2  0  0  0  0
 23 24  1  0  0  0  0
 24 18  1  0  0  0  0
 26 25  1  0  0  0  0
 27 26  1  0  0  0  0
 28 27  1  0  0  0  0
 29 28  2  0  0  0  0
 30 31  1  0  0  0  0
 30 28  1  1  0  0  0
 32 37  1  0  0  0  0
 33 38  1  6  0  0  0
 33 36  1  0  0  0  0
 34 31  1  0  0  0  0
 35 32  1  6  0  0  0
 35 30  1  0  0  0  0
 35 33  1  0  0  0  0
 35 36  1  0  0  0  0
 37 34  1  0  0  0  0
 39 40  1  0  0  0  0
 39 38  1  0  0  0  0
 40 42  1  0  0  0  0
 41 42  1  0  0  0  0
 41 43  1  0  0  0  0
 42 43  1  0  0  0  0
M  END
>  <MODEL>
5

>  <REMARK>
 VINA RESULT:      -9.4      2.929      6.646
  Name = 
  11 active torsions:
  status: ('A' for Active; 'I' for Inactive)
    1  A    between atoms: C_1  and  C_34
    2  A    between atoms: C_1  and  C_35
    3  A    between atoms: C_2  and  N_6
    4  A    between atoms: C_2  and  C_7
    5  A    between atoms: C_3  and  C_12
    6  A    between atoms: C_7  and  C_13
    7  A    between atoms: O_11  and  C_14
    8  A    between atoms: O_11  and  C_36
    9  A    between atoms: C_19  and  C_37
   10  A    between atoms: C_29  and  C_31
   11  A    between atoms: C_29  and  C_36
                            x       y       z     vdW  Elec       q    Type
                         _______ _______ _______ _____ _____    ______ ____

>  <TORSDO>
F 11

$$$$
=
 OpenBabel11052416333D

 43 49  0  0  1  0  0  0  0  0999 V2000
  188.9900  177.3850  135.8070 C   0  0  0  0  0  0  0  0  0  0  0  0
  184.4540  177.9990  137.9560 C   0  0  0  0  0  0  0  0  0  0  0  0
  184.9550  178.9190  140.5110 C   0  0  0  0  0  0  0  0  0  0  0  0
  186.6080  177.4480  136.2430 C   0  0  0  0  0  0  0  0  0  0  0  0
  189.2440  177.8390  137.1020 C   0  0  0  0  0  3  0  0  0  0  0  0
  190.0220  177.1400  134.9620 F   0  0  0  0  0  0  0  0  0  0  0  0
  186.8590  177.9070  137.5600 C   0  0  0  0  0  0  0  0  0  0  0  0
  187.6750  177.1900  135.3760 C   0  0  0  0  0  3  0  0  0  0  0  0
  188.1840  178.0980  137.9770 C   0  0  0  0  0  3  0  0  0  0  0  0
  185.9920  178.6280  139.6820 N   0  0  0  0  0  0  0  0  0  0  0  0
  185.7780  178.1730  138.4180 C   0  0  0  0  0  0  0  0  0  0  0  0
  184.2240  177.5390  136.6530 C   0  0  0  0  0  3  0  0  0  0  0  0
  183.3990  178.3070  138.8300 C   0  0  0  0  0  0  0  0  0  0  0  0
  183.6770  178.7680  140.0800 N   0  0  0  0  0  0  0  0  0  0  0  0
  185.2960  177.2630  135.8020 C   0  0  0  0  0  3  0  0  0  0  0  0
  181.9670  178.2170  138.3990 C   0  0  0  0  0  2  0  0  0  0  0  0
  180.7620  180.9090  136.0180 C   0  0  0  0  0  3  0  0  0  0  0  0
  180.7030  182.0220  136.8670 C   0  0  0  0  0  0  0  0  0  0  0  0
  181.4360  180.6480  138.7210 C   0  0  0  0  0  3  0  0  0  0  0  0
  181.1670  179.6690  136.5210 C   0  0  0  0  0  3  0  0  0  0  0  0
  181.5030  179.5350  137.8720 C   0  0  0  0  0  0  0  0  0  0  0  0
  181.0370  181.8900  138.2210 C   0  0  0  0  0  3  0  0  0  0  0  0
  181.3450  184.2030  136.2290 O   0  0  0  0  0  1  0  0  0  0  0  0
  180.2520  183.3380  136.3340 C   0  0  0  0  0  2  0  0  0  0  0  0
  185.2270  179.4910  141.8610 C   0  0  0  0  0  2  0  0  0  0  0  0
  185.8620  178.4550  142.7840 C   0  0  0  0  0  2  0  0  0  0  0  0
  187.1910  178.0880  142.3120 N   0  0  0  0  0  2  0  0  0  0  0  0
  187.9920  177.0890  142.9470 C   0  0  0  0  0  0  0  0  0  0  0  0
  187.4880  176.3240  143.8650 N   0  0  0  0  0  2  0  0  0  0  0  0
  189.3940  176.8670  142.4590 C   0  0  1  0  0  3  0  0  0  0  0  0
  189.5740  177.4350  141.1840 O   0  0  0  0  0  0  0  0  0  0  0  0
  191.9370  177.1520  142.8850 C   0  0  0  0  0  2  0  0  0  0  0  0
  190.2580  177.3380  144.9130 C   0  0  2  0  0  3  0  0  0  0  0  0
  190.7730  176.9020  140.6660 C   0  0  0  0  0  2  0  0  0  0  0  0
  190.5170  177.3320  143.4130 C   0  0  2  0  0  0  0  0  0  0  0  0
  190.3030  178.6490  144.1260 C   0  0  0  0  0  2  0  0  0  0  0  0
  191.9810  177.5030  141.3940 C   0  0  0  0  0  2  0  0  0  0  0  0
  191.4430  177.1800  145.6380 O   0  0  0  0  0  0  0  0  0  0  0  0
  191.0230  176.7450  146.8950 C   0  0  0  0  0  2  0  0  0  0  0  0
  190.0460  177.7430  147.4840 C   0  0  0  0  0  2  0  0  0  0  0  0
  187.5840  177.8780  147.3140 C   0  0  0  0  0  2  0  0  0  0  0  0
  188.7440  177.0380  147.8040 C   0  0  0  0  0  3  0  0  0  0  0  0
  187.9500  177.8780  148.7820 C   0  0  0  0  0  2  0  0  0  0  0  0
  1  5  1  0  0  0  0
  2 11  1  0  0  0  0
  2 13  1  0  0  0  0
  3 25  1  0  0  0  0
  4  7  1  0  0  0  0
  5  9  2  0  0  0  0
  6  1  1  0  0  0  0
  7  9  1  0  0  0  0
  7 11  2  0  0  0  0
  8  1  2  0  0  0  0
  8  4  1  0  0  0  0
 10  3  2  0  0  0  0
 11 10  1  0  0  0  0
 12  2  2  0  0  0  0
 13 14  2  0  0  0  0
 14  3  1  0  0  0  0
 15  4  2  0  0  0  0
 15 12  1  0  0  0  0
 16 13  1  0  0  0  0
 17 20  2  0  0  0  0
 17 18  1  0  0  0  0
 18 22  2  0  0  0  0
 20 21  1  0  0  0  0
 21 16  1  0  0  0  0
 21 19  2  0  0  0  0
 22 19  1  0  0  0  0
 23 24  1  0  0  0  0
 24 18  1  0  0  0  0
 25 26  1  0  0  0  0
 27 26  1  0  0  0  0
 27 28  1  0  0  0  0
 28 29  2  0  0  0  0
 30 28  1  1  0  0  0
 30 35  1  0  0  0  0
 31 30  1  0  0  0  0
 33 38  1  1  0  0  0
 34 31  1  0  0  0  0
 34 37  1  0  0  0  0
 35 32  1  6  0  0  0
 35 36  1  0  0  0  0
 35 33  1  0  0  0  0
 36 33  1  0  0  0  0
 37 32  1  0  0  0  0
 38 39  1  0  0  0  0
 39 40  1  0  0  0  0
 40 42  1  0  0  0  0
 41 42  1  0  0  0  0
 41 43  1  0  0  0  0
 42 43  1  0  0  0  0
M  END
>  <MODEL>
6

>  <REMARK>
 VINA RESULT:      -9.2      3.605      8.247
  Name = 
  11 active torsions:
  status: ('A' for Active; 'I' for Inactive)
    1  A    between atoms: C_1  and  C_34
    2  A    between atoms: C_1  and  C_35
    3  A    between atoms: C_2  and  N_6
    4  A    between atoms: C_2  and  C_7
    5  A    between atoms: C_3  and  C_12
    6  A    between atoms: C_7  and  C_13
    7  A    between atoms: O_11  and  C_14
    8  A    between atoms: O_11  and  C_36
    9  A    between atoms: C_19  and  C_37
   10  A    between atoms: C_29  and  C_31
   11  A    between atoms: C_29  and  C_36
                            x       y       z     vdW  Elec       q    Type
                         _______ _______ _______ _____ _____    ______ ____

>  <TORSDO>
F 11

$$$$
=
 OpenBabel11052416333D

 43 49  0  0  1  0  0  0  0  0999 V2000
  188.4320  177.4850  147.0320 C   0  0  0  0  0  0  0  0  0  0  0  0
  185.2540  178.5390  143.2420 C   0  0  0  0  0  0  0  0  0  0  0  0
  186.7670  178.4000  140.9370 C   0  0  0  0  0  0  0  0  0  0  0  0
  186.4750  178.0570  145.7240 C   0  0  0  0  0  0  0  0  0  0  0  0
  189.2000  177.4260  145.8680 C   0  0  0  0  0  3  0  0  0  0  0  0
  189.0060  177.2300  148.2340 F   0  0  0  0  0  0  0  0  0  0  0  0
  187.2500  178.0020  144.5380 C   0  0  0  0  0  0  0  0  0  0  0  0
  187.0720  177.8000  146.9620 C   0  0  0  0  0  3  0  0  0  0  0  0
  188.6130  177.6840  144.6250 C   0  0  0  0  0  3  0  0  0  0  0  0
  187.3540  178.1900  142.1440 N   0  0  0  0  0  0  0  0  0  0  0  0
  186.6370  178.2520  143.2980 C   0  0  0  0  0  0  0  0  0  0  0  0
  184.5050  178.5960  144.4260 C   0  0  0  0  0  3  0  0  0  0  0  0
  184.6690  178.7510  141.9830 C   0  0  0  0  0  0  0  0  0  0  0  0
  185.4370  178.6650  140.8650 N   0  0  0  0  0  0  0  0  0  0  0  0
  185.1140  178.3580  145.6590 C   0  0  0  0  0  3  0  0  0  0  0  0
  183.1980  178.9910  141.8290 C   0  0  0  0  0  2  0  0  0  0  0  0
  182.3620  176.5430  139.0590 C   0  0  0  0  0  3  0  0  0  0  0  0
  181.8850  177.4060  138.0630 C   0  0  0  0  0  0  0  0  0  0  0  0
  182.2340  179.2980  139.5340 C   0  0  0  0  0  3  0  0  0  0  0  0
  182.7820  177.0610  140.2880 C   0  0  0  0  0  3  0  0  0  0  0  0
  182.7180  178.4370  140.5290 C   0  0  0  0  0  0  0  0  0  0  0  0
  181.8180  178.7840  138.3030 C   0  0  0  0  0  3  0  0  0  0  0  0
  181.6840  175.4790  136.7130 O   0  0  0  0  0  1  0  0  0  0  0  0
  181.4200  176.8500  136.7620 C   0  0  0  0  0  2  0  0  0  0  0  0
  187.5680  178.2450  139.6890 C   0  0  0  0  0  2  0  0  0  0  0  0
  189.0650  178.2260  139.9910 C   0  0  0  0  0  2  0  0  0  0  0  0
  189.8210  177.7970  138.8210 N   0  0  0  0  0  2  0  0  0  0  0  0
  190.8030  176.7590  138.8700 C   0  0  0  0  0  0  0  0  0  0  0  0
  190.9260  176.0160  139.9250 N   0  0  0  0  0  2  0  0  0  0  0  0
  191.6130  176.4710  137.6400 C   0  0  1  0  0  3  0  0  0  0  0  0
  192.9050  176.0320  137.9840 O   0  0  0  0  0  0  0  0  0  0  0  0
  191.8250  175.1640  135.4090 C   0  0  0  0  0  2  0  0  0  0  0  0
  189.4530  175.4120  136.5410 C   0  0  2  0  0  3  0  0  0  0  0  0
  193.6880  176.1120  136.8140 C   0  0  0  0  0  2  0  0  0  0  0  0
  190.9710  175.4940  136.6300 C   0  0  2  0  0  0  0  0  0  0  0  0
  190.2560  174.2900  137.2050 C   0  0  0  0  0  2  0  0  0  0  0  0
  193.2880  175.0040  135.8320 C   0  0  0  0  0  2  0  0  0  0  0  0
  189.0360  175.0050  135.2700 O   0  0  0  0  0  0  0  0  0  0  0  0
  187.6820  175.3400  135.2290 C   0  0  0  0  0  2  0  0  0  0  0  0
  187.3790  176.3860  136.2830 C   0  0  0  0  0  2  0  0  0  0  0  0
  184.9770  176.7340  135.8110 C   0  0  0  0  0  2  0  0  0  0  0  0
  185.9720  176.1740  136.8050 C   0  0  0  0  0  3  0  0  0  0  0  0
  185.3260  177.5210  137.0550 C   0  0  0  0  0  2  0  0  0  0  0  0
  1  6  1  0  0  0  0
  2 11  2  0  0  0  0
  2 12  1  0  0  0  0
  3 10  2  0  0  0  0
  4  8  2  0  0  0  0
  5  1  2  0  0  0  0
  7  9  2  0  0  0  0
  7  4  1  0  0  0  0
  8  1  1  0  0  0  0
  9  5  1  0  0  0  0
 10 11  1  0  0  0  0
 11  7  1  0  0  0  0
 12 15  2  0  0  0  0
 13  2  1  0  0  0  0
 14  3  1  0  0  0  0
 14 13  2  0  0  0  0
 15  4  1  0  0  0  0
 16 13  1  0  0  0  0
 17 20  1  0  0  0  0
 18 22  1  0  0  0  0
 18 17  2  0  0  0  0
 19 21  1  0  0  0  0
 20 21  2  0  0  0  0
 21 16  1  0  0  0  0
 22 19  2  0  0  0  0
 23 24  1  0  0  0  0
 24 18  1  0  0  0  0
 25 26  1  0  0  0  0
 25  3  1  0  0  0  0
 27 28  1  0  0  0  0
 27 26  1  0  0  0  0
 28 29  2  0  0  0  0
 30 31  1  0  0  0  0
 30 28  1  1  0  0  0
 32 37  1  0  0  0  0
 33 38  1  6  0  0  0
 33 35  1  0  0  0  0
 33 36  1  0  0  0  0
 34 31  1  0  0  0  0
 35 32  1  6  0  0  0
 35 36  1  0  0  0  0
 35 30  1  0  0  0  0
 37 34  1  0  0  0  0
 39 38  1  0  0  0  0
 39 40  1  0  0  0  0
 40 42  1  0  0  0  0
 41 42  1  0  0  0  0
 41 43  1  0  0  0  0
 42 43  1  0  0  0  0
M  END
>  <MODEL>
7

>  <REMARK>
 VINA RESULT:      -9.1      1.738      3.027
  Name = 
  11 active torsions:
  status: ('A' for Active; 'I' for Inactive)
    1  A    between atoms: C_1  and  C_34
    2  A    between atoms: C_1  and  C_35
    3  A    between atoms: C_2  and  N_6
    4  A    between atoms: C_2  and  C_7
    5  A    between atoms: C_3  and  C_12
    6  A    between atoms: C_7  and  C_13
    7  A    between atoms: O_11  and  C_14
    8  A    between atoms: O_11  and  C_36
    9  A    between atoms: C_19  and  C_37
   10  A    between atoms: C_29  and  C_31
   11  A    between atoms: C_29  and  C_36
                            x       y       z     vdW  Elec       q    Type
                         _______ _______ _______ _____ _____    ______ ____

>  <TORSDO>
F 11

$$$$
=
 OpenBabel11052416333D

 43 49  0  0  1  0  0  0  0  0999 V2000
  187.9850  177.5420  147.5070 C   0  0  0  0  0  0  0  0  0  0  0  0
  188.6640  177.8070  142.5020 C   0  0  0  0  0  0  0  0  0  0  0  0
  186.2080  178.5030  141.4510 C   0  0  0  0  0  0  0  0  0  0  0  0
  188.9340  177.4870  145.2780 C   0  0  0  0  0  0  0  0  0  0  0  0
  186.7410  177.8830  146.9750 C   0  0  0  0  0  3  0  0  0  0  0  0
  188.1340  177.4100  148.8480 F   0  0  0  0  0  0  0  0  0  0  0  0
  187.6720  177.8300  144.7310 C   0  0  0  0  0  0  0  0  0  0  0  0
  189.0810  177.3440  146.6620 C   0  0  0  0  0  3  0  0  0  0  0  0
  186.5830  178.0260  145.5920 C   0  0  0  0  0  3  0  0  0  0  0  0
  186.3430  178.3250  142.7910 N   0  0  0  0  0  0  0  0  0  0  0  0
  187.5390  177.9810  143.3400 C   0  0  0  0  0  0  0  0  0  0  0  0
  189.9020  177.4610  143.0600 C   0  0  0  0  0  3  0  0  0  0  0  0
  188.5010  177.9980  141.1210 C   0  0  0  0  0  0  0  0  0  0  0  0
  187.2810  178.3510  140.6330 N   0  0  0  0  0  0  0  0  0  0  0  0
  190.0350  177.3000  144.4400 C   0  0  0  0  0  3  0  0  0  0  0  0
  189.6550  177.9020  140.1710 C   0  0  0  0  0  2  0  0  0  0  0  0
  188.5010  178.7350  136.6590 C   0  0  0  0  0  3  0  0  0  0  0  0
  188.1640  177.4660  136.1700 C   0  0  0  0  0  0  0  0  0  0  0  0
  188.8290  176.4780  138.2780 C   0  0  0  0  0  3  0  0  0  0  0  0
  188.9930  178.8740  137.9590 C   0  0  0  0  0  3  0  0  0  0  0  0
  189.1600  177.7470  138.7710 C   0  0  0  0  0  0  0  0  0  0  0  0
  188.3320  176.3360  136.9800 C   0  0  0  0  0  3  0  0  0  0  0  0
  186.3830  177.8820  134.6760 O   0  0  0  0  0  1  0  0  0  0  0  0
  187.6570  177.3180  134.7770 C   0  0  0  0  0  2  0  0  0  0  0  0
  184.9020  178.9580  140.8940 C   0  0  0  0  0  2  0  0  0  0  0  0
  185.0260  179.3210  139.4160 C   0  0  0  0  0  2  0  0  0  0  0  0
  184.2790  178.3820  138.5900 N   0  0  0  0  0  2  0  0  0  0  0  0
  182.9160  178.5940  138.2120 C   0  0  0  0  0  0  0  0  0  0  0  0
  182.3410  179.7340  138.4310 N   0  0  0  0  0  2  0  0  0  0  0  0
  182.1980  177.5120  137.4590 C   0  0  1  0  0  3  0  0  0  0  0  0
  183.0380  176.9360  136.4890 O   0  0  0  0  0  0  0  0  0  0  0  0
  180.8710  175.2850  137.5520 C   0  0  0  0  0  2  0  0  0  0  0  0
  181.0870  176.7530  139.7360 C   0  0  2  0  0  3  0  0  0  0  0  0
  182.2100  176.1920  135.6220 C   0  0  0  0  0  2  0  0  0  0  0  0
  181.5520  176.4090  138.3270 C   0  0  2  0  0  0  0  0  0  0  0  0
  182.3520  175.9200  139.5150 C   0  0  0  0  0  2  0  0  0  0  0  0
  181.7110  174.9230  136.3240 C   0  0  0  0  0  2  0  0  0  0  0  0
  180.0400  175.9220  140.1460 O   0  0  0  0  0  0  0  0  0  0  0  0
  179.2450  176.7400  140.9490 C   0  0  0  0  0  2  0  0  0  0  0  0
  179.9460  178.0620  141.1880 C   0  0  0  0  0  2  0  0  0  0  0  0
  180.1440  179.7680  142.9660 C   0  0  0  0  0  2  0  0  0  0  0  0
  180.1010  178.2820  142.6790 C   0  0  0  0  0  3  0  0  0  0  0  0
  181.4260  178.9640  142.9470 C   0  0  0  0  0  2  0  0  0  0  0  0
  1  6  1  0  0  0  0
  2 12  2  0  0  0  0
  2 11  1  0  0  0  0
  3 10  2  0  0  0  0
  4  8  1  0  0  0  0
  5  1  1  0  0  0  0
  7  4  1  0  0  0  0
  7  9  1  0  0  0  0
  8  1  2  0  0  0  0
  9  5  2  0  0  0  0
 10 11  1  0  0  0  0
 11  7  2  0  0  0  0
 12 15  1  0  0  0  0
 13  2  1  0  0  0  0
 14 13  2  0  0  0  0
 14  3  1  0  0  0  0
 15  4  2  0  0  0  0
 16 13  1  0  0  0  0
 17 20  1  0  0  0  0
 18 17  2  0  0  0  0
 18 22  1  0  0  0  0
 19 21  1  0  0  0  0
 20 21  2  0  0  0  0
 21 16  1  0  0  0  0
 22 19  2  0  0  0  0
 23 24  1  0  0  0  0
 24 18  1  0  0  0  0
 25  3  1  0  0  0  0
 26 25  1  0  0  0  0
 27 26  1  0  0  0  0
 28 29  2  0  0  0  0
 28 27  1  0  0  0  0
 30 28  1  1  0  0  0
 30 35  1  0  0  0  0
 31 30  1  0  0  0  0
 33 38  1  1  0  0  0
 34 37  1  0  0  0  0
 34 31  1  0  0  0  0
 35 32  1  6  0  0  0
 35 36  1  0  0  0  0
 35 33  1  0  0  0  0
 36 33  1  0  0  0  0
 37 32  1  0  0  0  0
 38 39  1  0  0  0  0
 39 40  1  0  0  0  0
 40 42  1  0  0  0  0
 42 43  1  0  0  0  0
 42 41  1  0  0  0  0
 43 41  1  0  0  0  0
M  END
>  <MODEL>
8

>  <REMARK>
 VINA RESULT:      -9.1      1.988      6.139
  Name = 
  11 active torsions:
  status: ('A' for Active; 'I' for Inactive)
    1  A    between atoms: C_1  and  C_34
    2  A    between atoms: C_1  and  C_35
    3  A    between atoms: C_2  and  N_6
    4  A    between atoms: C_2  and  C_7
    5  A    between atoms: C_3  and  C_12
    6  A    between atoms: C_7  and  C_13
    7  A    between atoms: O_11  and  C_14
    8  A    between atoms: O_11  and  C_36
    9  A    between atoms: C_19  and  C_37
   10  A    between atoms: C_29  and  C_31
   11  A    between atoms: C_29  and  C_36
                            x       y       z     vdW  Elec       q    Type
                         _______ _______ _______ _____ _____    ______ ____

>  <TORSDO>
F 11

$$$$
=
 OpenBabel11052416333D

 43 49  0  0  1  0  0  0  0  0999 V2000
  190.5750  176.8520  146.4740 C   0  0  0  0  0  0  0  0  0  0  0  0
  189.5640  177.6590  141.5850 C   0  0  0  0  0  0  0  0  0  0  0  0
  186.9580  178.5670  141.5010 C   0  0  0  0  0  0  0  0  0  0  0  0
  190.7190  177.0140  144.0610 C   0  0  0  0  0  0  0  0  0  0  0  0
  189.2540  177.3000  146.4310 C   0  0  0  0  0  3  0  0  0  0  0  0
  191.1510  176.5610  147.6660 F   0  0  0  0  0  0  0  0  0  0  0  0
  189.3770  177.4670  144.0090 C   0  0  0  0  0  0  0  0  0  0  0  0
  191.3080  176.7090  145.2930 C   0  0  0  0  0  3  0  0  0  0  0  0
  188.6550  177.6050  145.2040 C   0  0  0  0  0  3  0  0  0  0  0  0
  187.5180  178.2310  142.6920 N   0  0  0  0  0  0  0  0  0  0  0  0
  188.7990  177.7800  142.7670 C   0  0  0  0  0  0  0  0  0  0  0  0
  190.8880  177.2040  141.6540 C   0  0  0  0  0  3  0  0  0  0  0  0
  188.9650  178.0140  140.3660 C   0  0  0  0  0  0  0  0  0  0  0  0
  187.6830  178.4680  140.3560 N   0  0  0  0  0  0  0  0  0  0  0  0
  191.4600  176.8820  142.8860 C   0  0  0  0  0  3  0  0  0  0  0  0
  189.7260  177.9810  139.0760 C   0  0  0  0  0  2  0  0  0  0  0  0
  190.1600  174.6110  137.3980 C   0  0  0  0  0  3  0  0  0  0  0  0
  188.8800  174.3980  136.8700 C   0  0  0  0  0  0  0  0  0  0  0  0
  188.1420  176.5050  137.8080 C   0  0  0  0  0  3  0  0  0  0  0  0
  190.4320  175.7750  138.1220 C   0  0  0  0  0  3  0  0  0  0  0  0
  189.4240  176.7230  138.3300 C   0  0  0  0  0  0  0  0  0  0  0  0
  187.8690  175.3450  137.0790 C   0  0  0  0  0  3  0  0  0  0  0  0
  187.9250  172.2400  136.9450 O   0  0  0  0  0  1  0  0  0  0  0  0
  188.5880  173.1480  136.1150 C   0  0  0  0  0  2  0  0  0  0  0  0
  185.5790  179.1330  141.4660 C   0  0  0  0  0  2  0  0  0  0  0  0
  184.5760  178.1890  142.1250 C   0  0  0  0  0  2  0  0  0  0  0  0
  183.2120  178.5550  141.7680 N   0  0  0  0  0  2  0  0  0  0  0  0
  182.4960  177.9320  140.6980 C   0  0  0  0  0  0  0  0  0  0  0  0
  182.9660  176.8720  140.1180 N   0  0  0  0  0  2  0  0  0  0  0  0
  181.1400  178.4600  140.3310 C   0  0  1  0  0  3  0  0  0  0  0  0
  180.5900  179.2030  141.3910 O   0  0  0  0  0  0  0  0  0  0  0  0
  179.7000  179.8520  138.6820 C   0  0  0  0  0  2  0  0  0  0  0  0
  182.0620  178.9660  137.9050 C   0  0  2  0  0  3  0  0  0  0  0  0
  179.2180  179.3670  141.1050 C   0  0  0  0  0  2  0  0  0  0  0  0
  181.0710  179.2730  139.0190 C   0  0  2  0  0  0  0  0  0  0  0  0
  182.2110  180.2330  138.7510 C   0  0  0  0  0  2  0  0  0  0  0  0
  179.0310  180.3690  139.9590 C   0  0  0  0  0  2  0  0  0  0  0  0
  181.5400  179.2950  136.6500 O   0  0  0  0  0  0  0  0  0  0  0  0
  181.5200  178.0850  135.9570 C   0  0  0  0  0  2  0  0  0  0  0  0
  182.7200  177.2470  136.3510 C   0  0  0  0  0  2  0  0  0  0  0  0
  184.4630  175.8360  135.3090 C   0  0  0  0  0  2  0  0  0  0  0  0
  183.6370  177.0950  135.1530 C   0  0  0  0  0  3  0  0  0  0  0  0
  185.0760  177.1860  135.6130 C   0  0  0  0  0  2  0  0  0  0  0  0
  1  6  1  0  0  0  0
  2 12  2  0  0  0  0
  2 11  1  0  0  0  0
  3 10  2  0  0  0  0
  4  8  1  0  0  0  0
  5  1  1  0  0  0  0
  7  4  1  0  0  0  0
  7  9  1  0  0  0  0
  8  1  2  0  0  0  0
  9  5  2  0  0  0  0
 10 11  1  0  0  0  0
 11  7  2  0  0  0  0
 12 15  1  0  0  0  0
 13  2  1  0  0  0  0
 14 13  2  0  0  0  0
 14  3  1  0  0  0  0
 15  4  2  0  0  0  0
 16 13  1  0  0  0  0
 17 20  1  0  0  0  0
 18 22  1  0  0  0  0
 18 17  2  0  0  0  0
 19 21  1  0  0  0  0
 20 21  2  0  0  0  0
 21 16  1  0  0  0  0
 22 19  2  0  0  0  0
 24 18  1  0  0  0  0
 24 23  1  0  0  0  0
 25  3  1  0  0  0  0
 25 26  1  0  0  0  0
 27 26  1  0  0  0  0
 28 27  1  0  0  0  0
 29 28  2  0  0  0  0
 30 28  1  1  0  0  0
 30 31  1  0  0  0  0
 32 37  1  0  0  0  0
 33 38  1  6  0  0  0
 33 36  1  0  0  0  0
 33 35  1  0  0  0  0
 34 31  1  0  0  0  0
 35 32  1  6  0  0  0
 35 30  1  0  0  0  0
 36 35  1  0  0  0  0
 37 34  1  0  0  0  0
 39 40  1  0  0  0  0
 39 38  1  0  0  0  0
 41 43  1  0  0  0  0
 42 41  1  0  0  0  0
 42 43  1  0  0  0  0
 42 40  1  0  0  0  0
M  END
>  <MODEL>
9

>  <REMARK>
 VINA RESULT:      -9.0      2.016      6.788
  Name = 
  11 active torsions:
  status: ('A' for Active; 'I' for Inactive)
    1  A    between atoms: C_1  and  C_34
    2  A    between atoms: C_1  and  C_35
    3  A    between atoms: C_2  and  N_6
    4  A    between atoms: C_2  and  C_7
    5  A    between atoms: C_3  and  C_12
    6  A    between atoms: C_7  and  C_13
    7  A    between atoms: O_11  and  C_14
    8  A    between atoms: O_11  and  C_36
    9  A    between atoms: C_19  and  C_37
   10  A    between atoms: C_29  and  C_31
   11  A    between atoms: C_29  and  C_36
                            x       y       z     vdW  Elec       q    Type
                         _______ _______ _______ _____ _____    ______ ____

>  <TORSDO>
F 11

$$$$
