=
 OpenBabel11052414423D

 32 35  0  0  1  0  0  0  0  0999 V2000
  187.4060  177.6250  145.5530 C   0  0  0  0  0  3  0  0  0  0  0  0
  189.8800  177.5870  143.7590 C   0  0  0  0  0  0  0  0  0  0  0  0
  187.7580  178.2910  146.6510 C   0  0  0  0  0  3  0  0  0  0  0  0
  190.0100  178.1610  145.0240 O   0  0  0  0  0  0  0  0  0  0  0  0
  190.6340  176.5280  143.4470 C   0  0  0  0  0  0  0  0  0  0  0  0
  188.8500  178.1300  142.7850 C   0  0  2  0  0  3  0  0  0  0  0  0
  190.4760  177.1940  141.1800 O   0  0  0  0  0  0  0  0  0  0  0  0
  190.4900  177.3960  146.0900 C   0  0  0  0  0  0  0  0  0  0  0  0
  190.6240  176.0710  142.0180 C   0  0  0  0  0  2  0  0  0  0  0  0
  191.2120  176.3430  145.8460 N   0  0  0  0  0  0  0  0  0  0  0  0
  190.0550  177.7360  147.4890 C   0  0  0  0  0  2  0  0  0  0  0  0
  187.5020  177.6560  143.1350 N   0  0  0  0  0  2  0  0  0  0  0  0
  186.9700  178.3420  144.3150 C   0  0  1  0  0  3  0  0  0  0  0  0
  189.1470  177.6490  141.3460 C   0  0  2  0  0  3  0  0  0  0  0  0
  191.6160  175.9970  144.4730 C   0  0  1  0  0  3  0  0  0  0  0  0
  188.5370  177.5620  147.7040 C   0  0  0  0  0  2  0  0  0  0  0  0
  181.3280  178.8210  144.2820 F   0  0  0  0  0  0  0  0  0  0  0  0
  183.3840  178.6350  145.4690 C   0  0  0  0  0  3  0  0  0  0  0  0
  185.4750  178.4670  144.2430 C   0  0  0  0  0  0  0  0  0  0  0  0
  183.3620  178.6570  143.0510 C   0  0  0  0  0  3  0  0  0  0  0  0
  184.7760  178.5160  145.4540 C   0  0  0  0  0  3  0  0  0  0  0  0
  184.7570  178.5370  143.0240 C   0  0  0  0  0  0  0  0  0  0  0  0
  182.6780  178.7060  144.2680 C   0  0  0  0  0  0  0  0  0  0  0  0
  185.4400  178.4760  141.6910 C   0  0  0  0  0  2  0  0  0  0  0  0
  184.4510  178.6930  140.5550 C   0  0  0  0  0  2  0  0  0  0  0  0
  184.8050  179.8230  139.8190 O   0  0  0  0  0  1  0  0  0  0  0  0
  191.8200  174.4910  144.3550 C   0  0  0  0  0  2  0  0  0  0  0  0
  192.7440  174.0440  145.3020 O   0  0  0  0  0  1  0  0  0  0  0  0
  188.8450  178.7620  140.3560 C   0  0  0  0  0  2  0  0  0  0  0  0
  188.2500  178.2120  139.0670 C   0  0  0  0  0  2  0  0  0  0  0  0
  189.9390  177.4430  137.3930 C   0  0  0  0  0  1  0  0  0  0  0  0
  189.0850  178.6070  137.8590 C   0  0  0  0  0  2  0  0  0  0  0  0
  1  3  2  0  0  0  0
  2  4  1  0  0  0  0
  3 16  1  0  0  0  0
  4  8  1  0  0  0  0
  5  2  2  0  0  0  0
  5 15  1  0  0  0  0
  6 12  1  1  0  0  0
  6  2  1  0  0  0  0
  7 14  1  0  0  0  0
  7  9  1  0  0  0  0
  8 11  1  0  0  0  0
  9  5  1  0  0  0  0
 10  8  2  0  0  0  0
 11 16  1  0  0  0  0
 12 13  1  0  0  0  0
 13 19  1  6  0  0  0
 13  1  1  0  0  0  0
 14 29  1  6  0  0  0
 14  6  1  0  0  0  0
 15 27  1  1  0  0  0
 15 10  1  0  0  0  0
 19 21  2  0  0  0  0
 20 23  1  0  0  0  0
 21 18  1  0  0  0  0
 22 20  2  0  0  0  0
 22 19  1  0  0  0  0
 23 17  1  0  0  0  0
 23 18  2  0  0  0  0
 24 22  1  0  0  0  0
 25 24  1  0  0  0  0
 26 25  1  0  0  0  0
 27 28  1  0  0  0  0
 30 29  1  0  0  0  0
 31 32  1  0  0  0  0
 32 30  1  0  0  0  0
M  END
>  <MODEL>
1

>  <REMARK>
 VINA RESULT:      -8.5      0.000      0.000
  Name = 
  7 active torsions:
  status: ('A' for Active; 'I' for Inactive)
    1  A    between atoms: C_3  and  C_23
    2  A    between atoms: C_9  and  C_31
    3  A    between atoms: C_9  and  C_32
    4  A    between atoms: C_13  and  CA_29
    5  A    between atoms: C_16  and  C_27
    6  A    between atoms: C_22  and  C_23
    7  A    between atoms: C_28  and  C_32
                            x       y       z     vdW  Elec       q    Type
                         _______ _______ _______ _____ _____    ______ ____

>  <TORSDO>
F 7

$$$$
=
 OpenBabel11052414423D

 32 35  0  0  1  0  0  0  0  0999 V2000
  187.9450  177.4950  141.1510 C   0  0  0  0  0  3  0  0  0  0  0  0
  185.2130  178.4050  140.1290 C   0  0  0  0  0  0  0  0  0  0  0  0
  188.8470  178.1620  140.4340 C   0  0  0  0  0  3  0  0  0  0  0  0
  186.3420  178.8990  139.4760 O   0  0  0  0  0  0  0  0  0  0  0  0
  184.3280  177.6810  139.4370 C   0  0  0  0  0  0  0  0  0  0  0  0
  185.0350  178.6430  141.6180 C   0  0  2  0  0  3  0  0  0  0  0  0
  182.6670  178.4130  140.9560 O   0  0  0  0  0  0  0  0  0  0  0  0
  186.8160  178.2650  138.3260 C   0  0  0  0  0  0  0  0  0  0  0  0
  183.0300  177.3470  140.1100 C   0  0  0  0  0  2  0  0  0  0  0  0
  186.0060  177.5300  137.6230 N   0  0  0  0  0  0  0  0  0  0  0  0
  188.2810  178.3420  137.9970 C   0  0  0  0  0  2  0  0  0  0  0  0
  185.8820  177.7250  142.3960 N   0  0  0  0  0  2  0  0  0  0  0  0
  187.2950  178.1120  142.3490 C   0  0  1  0  0  3  0  0  0  0  0  0
  183.5700  178.3890  142.0450 C   0  0  2  0  0  3  0  0  0  0  0  0
  184.5760  177.4350  137.9610 C   0  0  1  0  0  3  0  0  0  0  0  0
  189.1710  177.6600  139.0580 C   0  0  0  0  0  2  0  0  0  0  0  0
  190.1630  176.6690  147.0120 F   0  0  0  0  0  0  0  0  0  0  0  0
  190.0650  176.9750  144.6530 C   0  0  0  0  0  3  0  0  0  0  0  0
  188.0030  177.7390  143.6200 C   0  0  0  0  0  0  0  0  0  0  0  0
  188.1270  177.4190  146.0290 C   0  0  0  0  0  3  0  0  0  0  0  0
  189.3390  177.3350  143.5150 C   0  0  0  0  0  3  0  0  0  0  0  0
  187.3880  177.7800  144.8950 C   0  0  0  0  0  0  0  0  0  0  0  0
  189.4590  177.0180  145.9090 C   0  0  0  0  0  0  0  0  0  0  0  0
  185.9580  178.1890  145.0790 C   0  0  0  0  0  2  0  0  0  0  0  0
  185.7600  178.9260  146.3950 C   0  0  0  0  0  2  0  0  0  0  0  0
  184.5910  178.4920  147.0180 O   0  0  0  0  0  1  0  0  0  0  0  0
  184.0200  176.0930  137.4950 C   0  0  0  0  0  2  0  0  0  0  0  0
  185.0520  175.1700  137.3110 O   0  0  0  0  0  1  0  0  0  0  0  0
  183.1550  179.4060  143.0950 C   0  0  0  0  0  2  0  0  0  0  0  0
  182.0740  178.8470  144.0100 C   0  0  0  0  0  2  0  0  0  0  0  0
  179.6190  178.4970  144.3300 C   0  0  0  0  0  1  0  0  0  0  0  0
  180.6840  179.1690  143.4840 C   0  0  0  0  0  2  0  0  0  0  0  0
  1 13  1  0  0  0  0
  3  1  2  0  0  0  0
  4  2  1  0  0  0  0
  5  9  1  0  0  0  0
  5  2  2  0  0  0  0
  6  2  1  6  0  0  0
  6 14  1  0  0  0  0
  6 12  1  0  0  0  0
  7 14  1  0  0  0  0
  8  4  1  0  0  0  0
  9  7  1  0  0  0  0
 10 15  1  0  0  0  0
 10  8  2  0  0  0  0
 11  8  1  0  0  0  0
 11 16  1  0  0  0  0
 13 12  1  0  0  0  0
 13 19  1  1  0  0  0
 14 29  1  1  0  0  0
 15 27  1  1  0  0  0
 15  5  1  0  0  0  0
 16  3  1  0  0  0  0
 18 23  1  0  0  0  0
 19 22  2  0  0  0  0
 21 19  1  0  0  0  0
 21 18  2  0  0  0  0
 22 24  1  0  0  0  0
 22 20  1  0  0  0  0
 23 20  2  0  0  0  0
 23 17  1  0  0  0  0
 24 25  1  0  0  0  0
 25 26  1  0  0  0  0
 28 27  1  0  0  0  0
 29 30  1  0  0  0  0
 32 30  1  0  0  0  0
 32 31  1  0  0  0  0
M  END
>  <MODEL>
2

>  <REMARK>
 VINA RESULT:      -8.1      3.232      7.451
  Name = 
  7 active torsions:
  status: ('A' for Active; 'I' for Inactive)
    1  A    between atoms: C_3  and  C_23
    2  A    between atoms: C_9  and  C_31
    3  A    between atoms: C_9  and  C_32
    4  A    between atoms: C_13  and  CA_29
    5  A    between atoms: C_16  and  C_27
    6  A    between atoms: C_22  and  C_23
    7  A    between atoms: C_28  and  C_32
                            x       y       z     vdW  Elec       q    Type
                         _______ _______ _______ _____ _____    ______ ____

>  <TORSDO>
F 7

$$$$
=
 OpenBabel11052414423D

 32 35  0  0  1  0  0  0  0  0999 V2000
  183.0200  178.8980  143.5960 C   0  0  0  0  0  3  0  0  0  0  0  0
  183.2070  178.6870  140.5530 C   0  0  0  0  0  0  0  0  0  0  0  0
  181.9890  178.1360  143.9550 C   0  0  0  0  0  3  0  0  0  0  0  0
  182.1420  178.0380  141.1790 O   0  0  0  0  0  0  0  0  0  0  0  0
  182.9450  179.6470  139.6600 C   0  0  0  0  0  0  0  0  0  0  0  0
  184.6340  178.3400  140.9340 C   0  0  2  0  0  3  0  0  0  0  0  0
  185.0080  179.1250  138.6230 O   0  0  0  0  0  0  0  0  0  0  0  0
  180.9040  178.6750  141.2890 C   0  0  0  0  0  0  0  0  0  0  0  0
  184.0960  180.1730  138.8540 C   0  0  0  0  0  2  0  0  0  0  0  0
  180.6030  179.6310  140.4600 N   0  0  0  0  0  0  0  0  0  0  0  0
  180.0010  178.3280  142.4390 C   0  0  0  0  0  2  0  0  0  0  0  0
  185.0020  178.9760  142.2080 N   0  0  0  0  0  2  0  0  0  0  0  0
  184.3740  178.3110  143.3530 C   0  0  1  0  0  3  0  0  0  0  0  0
  185.6280  178.8480  139.8630 C   0  0  2  0  0  3  0  0  0  0  0  0
  181.5000  179.9860  139.3480 C   0  0  1  0  0  3  0  0  0  0  0  0
  180.6070  178.6970  143.8100 C   0  0  0  0  0  2  0  0  0  0  0  0
  187.4770  178.7520  148.0680 F   0  0  0  0  0  0  0  0  0  0  0  0
  185.4880  179.2220  146.8460 C   0  0  0  0  0  3  0  0  0  0  0  0
  185.2430  178.3960  144.5750 C   0  0  0  0  0  0  0  0  0  0  0  0
  187.2670  177.9280  145.8420 C   0  0  0  0  0  3  0  0  0  0  0  0
  184.7400  179.1020  145.6730 C   0  0  0  0  0  3  0  0  0  0  0  0
  186.5260  177.8020  144.6610 C   0  0  0  0  0  0  0  0  0  0  0  0
  186.7510  178.6350  146.9310 C   0  0  0  0  0  0  0  0  0  0  0  0
  187.1330  177.0440  143.5190 C   0  0  0  0  0  2  0  0  0  0  0  0
  188.6000  176.7360  143.7790 C   0  0  0  0  0  2  0  0  0  0  0  0
  189.0500  175.7570  142.8940 O   0  0  0  0  0  1  0  0  0  0  0  0
  181.3150  181.4550  138.9810 C   0  0  0  0  0  2  0  0  0  0  0  0
  180.0180  181.8780  139.2820 O   0  0  0  0  0  1  0  0  0  0  0  0
  186.7480  177.8370  139.6780 C   0  0  0  0  0  2  0  0  0  0  0  0
  188.0720  178.3740  140.2060 C   0  0  0  0  0  2  0  0  0  0  0  0
  189.0160  178.7570  137.9240 C   0  0  0  0  0  1  0  0  0  0  0  0
  189.2160  178.0580  139.2550 C   0  0  0  0  0  2  0  0  0  0  0  0
  1  3  2  0  0  0  0
  2  4  1  0  0  0  0
  4  8  1  0  0  0  0
  5  2  2  0  0  0  0
  6  2  1  6  0  0  0
  6 12  1  0  0  0  0
  7  9  1  0  0  0  0
  7 14  1  0  0  0  0
  8 11  1  0  0  0  0
  9  5  1  0  0  0  0
 10  8  2  0  0  0  0
 11 16  1  0  0  0  0
 12 13  1  0  0  0  0
 13  1  1  0  0  0  0
 13 19  1  1  0  0  0
 14 29  1  6  0  0  0
 14  6  1  0  0  0  0
 15 27  1  1  0  0  0
 15  5  1  0  0  0  0
 15 10  1  0  0  0  0
 16  3  1  0  0  0  0
 18 23  1  0  0  0  0
 19 22  2  0  0  0  0
 19 21  1  0  0  0  0
 20 23  2  0  0  0  0
 21 18  2  0  0  0  0
 22 20  1  0  0  0  0
 23 17  1  0  0  0  0
 24 25  1  0  0  0  0
 24 22  1  0  0  0  0
 26 25  1  0  0  0  0
 27 28  1  0  0  0  0
 29 30  1  0  0  0  0
 31 32  1  0  0  0  0
 32 30  1  0  0  0  0
M  END
>  <MODEL>
3

>  <REMARK>
 VINA RESULT:      -8.0      2.815      7.333
  Name = 
  7 active torsions:
  status: ('A' for Active; 'I' for Inactive)
    1  A    between atoms: C_3  and  C_23
    2  A    between atoms: C_9  and  C_31
    3  A    between atoms: C_9  and  C_32
    4  A    between atoms: C_13  and  CA_29
    5  A    between atoms: C_16  and  C_27
    6  A    between atoms: C_22  and  C_23
    7  A    between atoms: C_28  and  C_32
                            x       y       z     vdW  Elec       q    Type
                         _______ _______ _______ _____ _____    ______ ____

>  <TORSDO>
F 7

$$$$
=
 OpenBabel11052414423D

 32 35  0  0  1  0  0  0  0  0999 V2000
  186.6520  177.9620  141.5090 C   0  0  0  0  0  3  0  0  0  0  0  0
  185.0380  178.2770  138.9330 C   0  0  0  0  0  0  0  0  0  0  0  0
  187.7750  178.6530  141.3260 C   0  0  0  0  0  3  0  0  0  0  0  0
  186.3130  178.8440  138.9680 O   0  0  0  0  0  0  0  0  0  0  0  0
  184.7750  177.3310  138.0250 C   0  0  0  0  0  0  0  0  0  0  0  0
  183.9960  178.6930  139.9550 C   0  0  2  0  0  3  0  0  0  0  0  0
  182.5070  178.0020  138.1110 O   0  0  0  0  0  0  0  0  0  0  0  0
  187.4060  178.1350  138.4670 C   0  0  0  0  0  0  0  0  0  0  0  0
  183.3470  176.8960  137.8740 C   0  0  0  0  0  2  0  0  0  0  0  0
  187.2090  177.1900  137.5970 N   0  0  0  0  0  0  0  0  0  0  0  0
  188.7720  178.3940  139.0400 C   0  0  0  0  0  2  0  0  0  0  0  0
  184.2470  178.0390  141.2490 N   0  0  0  0  0  2  0  0  0  0  0  0
  185.3900  178.6320  141.9490 C   0  0  1  0  0  3  0  0  0  0  0  0
  182.5790  178.2750  139.4960 C   0  0  2  0  0  3  0  0  0  0  0  0
  185.8660  176.9200  137.0550 C   0  0  1  0  0  3  0  0  0  0  0  0
  188.8780  178.0180  140.5330 C   0  0  0  0  0  2  0  0  0  0  0  0
  184.9400  178.2690  147.5810 F   0  0  0  0  0  0  0  0  0  0  0  0
  186.1760  177.9220  145.5750 C   0  0  0  0  0  3  0  0  0  0  0  0
  185.2120  178.5590  143.4380 C   0  0  0  0  0  0  0  0  0  0  0  0
  183.9680  178.9040  145.5010 C   0  0  0  0  0  3  0  0  0  0  0  0
  186.2660  178.0200  144.1850 C   0  0  0  0  0  3  0  0  0  0  0  0
  184.0460  179.0060  144.1070 C   0  0  0  0  0  0  0  0  0  0  0  0
  185.0280  178.3640  146.2330 C   0  0  0  0  0  0  0  0  0  0  0  0
  182.8740  179.5810  143.3690 C   0  0  0  0  0  2  0  0  0  0  0  0
  181.5930  178.8270  143.6960 C   0  0  0  0  0  2  0  0  0  0  0  0
  180.4840  179.5540  143.2640 O   0  0  0  0  0  1  0  0  0  0  0  0
  185.7570  175.4550  136.6450 C   0  0  0  0  0  2  0  0  0  0  0  0
  186.7090  174.6840  137.3140 O   0  0  0  0  0  1  0  0  0  0  0  0
  181.5760  179.3530  139.8730 C   0  0  0  0  0  2  0  0  0  0  0  0
  181.0150  180.0440  138.6380 C   0  0  0  0  0  2  0  0  0  0  0  0
  180.8470  182.2120  137.4030 C   0  0  0  0  0  1  0  0  0  0  0  0
  181.5940  181.4410  138.4760 C   0  0  0  0  0  2  0  0  0  0  0  0
  1 13  1  0  0  0  0
  2  4  1  0  0  0  0
  3  1  2  0  0  0  0
  5  2  2  0  0  0  0
  6  2  1  6  0  0  0
  6 12  1  0  0  0  0
  7 14  1  0  0  0  0
  8  4  1  0  0  0  0
  8 11  1  0  0  0  0
  9  5  1  0  0  0  0
  9  7  1  0  0  0  0
 10  8  2  0  0  0  0
 11 16  1  0  0  0  0
 12 13  1  0  0  0  0
 13 19  1  1  0  0  0
 14 29  1  6  0  0  0
 14  6  1  0  0  0  0
 15 27  1  1  0  0  0
 15 10  1  0  0  0  0
 15  5  1  0  0  0  0
 16  3  1  0  0  0  0
 18 23  1  0  0  0  0
 19 22  2  0  0  0  0
 19 21  1  0  0  0  0
 20 23  2  0  0  0  0
 21 18  2  0  0  0  0
 22 20  1  0  0  0  0
 23 17  1  0  0  0  0
 24 25  1  0  0  0  0
 24 22  1  0  0  0  0
 26 25  1  0  0  0  0
 27 28  1  0  0  0  0
 30 29  1  0  0  0  0
 31 32  1  0  0  0  0
 32 30  1  0  0  0  0
M  END
>  <MODEL>
4

>  <REMARK>
 VINA RESULT:      -7.9      3.792      6.643
  Name = 
  7 active torsions:
  status: ('A' for Active; 'I' for Inactive)
    1  A    between atoms: C_3  and  C_23
    2  A    between atoms: C_9  and  C_31
    3  A    between atoms: C_9  and  C_32
    4  A    between atoms: C_13  and  CA_29
    5  A    between atoms: C_16  and  C_27
    6  A    between atoms: C_22  and  C_23
    7  A    between atoms: C_28  and  C_32
                            x       y       z     vdW  Elec       q    Type
                         _______ _______ _______ _____ _____    ______ ____

>  <TORSDO>
F 7

$$$$
=
 OpenBabel11052414423D

 32 35  0  0  1  0  0  0  0  0999 V2000
  186.9030  177.9350  141.3980 C   0  0  0  0  0  3  0  0  0  0  0  0
  185.0500  178.2350  138.9860 C   0  0  0  0  0  0  0  0  0  0  0  0
  187.9850  178.6600  141.1240 C   0  0  0  0  0  3  0  0  0  0  0  0
  186.3060  178.8390  138.9130 O   0  0  0  0  0  0  0  0  0  0  0  0
  184.7310  177.2940  138.0930 C   0  0  0  0  0  0  0  0  0  0  0  0
  184.0960  178.6090  140.1060 C   0  0  2  0  0  3  0  0  0  0  0  0
  182.4620  177.8990  138.3960 O   0  0  0  0  0  0  0  0  0  0  0  0
  187.3680  178.1670  138.3030 C   0  0  0  0  0  0  0  0  0  0  0  0
  183.3070  176.8210  138.0670 C   0  0  0  0  0  2  0  0  0  0  0  0
  187.1170  177.2280  137.4400 N   0  0  0  0  0  0  0  0  0  0  0  0
  188.7730  178.4580  138.7520 C   0  0  0  0  0  2  0  0  0  0  0  0
  184.4830  177.9460  141.3620 N   0  0  0  0  0  2  0  0  0  0  0  0
  185.6690  178.5630  141.9620 C   0  0  1  0  0  3  0  0  0  0  0  0
  182.6550  178.1560  139.7730 C   0  0  2  0  0  3  0  0  0  0  0  0
  185.7380  176.9260  137.0210 C   0  0  1  0  0  3  0  0  0  0  0  0
  189.0270  178.0670  140.2230 C   0  0  0  0  0  2  0  0  0  0  0  0
  185.3410  178.3550  147.6110 F   0  0  0  0  0  0  0  0  0  0  0  0
  184.5940  179.2240  145.5240 C   0  0  0  0  0  3  0  0  0  0  0  0
  185.6310  178.4670  143.4610 C   0  0  0  0  0  0  0  0  0  0  0  0
  186.3780  177.5930  145.6060 C   0  0  0  0  0  3  0  0  0  0  0  0
  184.6920  179.2600  144.1310 C   0  0  0  0  0  3  0  0  0  0  0  0
  186.4860  177.6230  144.2100 C   0  0  0  0  0  0  0  0  0  0  0  0
  185.4360  178.3900  146.2610 C   0  0  0  0  0  0  0  0  0  0  0  0
  187.5230  176.7570  143.5590 C   0  0  0  0  0  2  0  0  0  0  0  0
  188.8400  176.8070  144.3200 C   0  0  0  0  0  2  0  0  0  0  0  0
  189.8890  176.4140  143.4900 O   0  0  0  0  0  1  0  0  0  0  0  0
  185.6310  175.4650  136.6000 C   0  0  0  0  0  2  0  0  0  0  0  0
  186.5780  174.6880  137.2720 O   0  0  0  0  0  1  0  0  0  0  0  0
  181.6620  179.2010  140.2570 C   0  0  0  0  0  2  0  0  0  0  0  0
  180.8110  178.6670  141.4030 C   0  0  0  0  0  2  0  0  0  0  0  0
  180.5780  178.5460  143.8890 C   0  0  0  0  0  1  0  0  0  0  0  0
  181.2220  179.2840  142.7300 C   0  0  0  0  0  2  0  0  0  0  0  0
  1 13  1  0  0  0  0
  3  1  2  0  0  0  0
  4  2  1  0  0  0  0
  5  2  2  0  0  0  0
  6  2  1  6  0  0  0
  6 12  1  0  0  0  0
  7 14  1  0  0  0  0
  8 11  1  0  0  0  0
  8  4  1  0  0  0  0
  9  5  1  0  0  0  0
  9  7  1  0  0  0  0
 10  8  2  0  0  0  0
 11 16  1  0  0  0  0
 12 13  1  0  0  0  0
 13 19  1  1  0  0  0
 14  6  1  0  0  0  0
 14 29  1  6  0  0  0
 15 27  1  1  0  0  0
 15 10  1  0  0  0  0
 15  5  1  0  0  0  0
 16  3  1  0  0  0  0
 18 23  1  0  0  0  0
 19 21  1  0  0  0  0
 19 22  2  0  0  0  0
 20 23  2  0  0  0  0
 21 18  2  0  0  0  0
 22 20  1  0  0  0  0
 23 17  1  0  0  0  0
 24 22  1  0  0  0  0
 24 25  1  0  0  0  0
 26 25  1  0  0  0  0
 27 28  1  0  0  0  0
 29 30  1  0  0  0  0
 30 32  1  0  0  0  0
 32 31  1  0  0  0  0
M  END
>  <MODEL>
5

>  <REMARK>
 VINA RESULT:      -7.7      2.708      6.912
  Name = 
  7 active torsions:
  status: ('A' for Active; 'I' for Inactive)
    1  A    between atoms: C_3  and  C_23
    2  A    between atoms: C_9  and  C_31
    3  A    between atoms: C_9  and  C_32
    4  A    between atoms: C_13  and  CA_29
    5  A    between atoms: C_16  and  C_27
    6  A    between atoms: C_22  and  C_23
    7  A    between atoms: C_28  and  C_32
                            x       y       z     vdW  Elec       q    Type
                         _______ _______ _______ _____ _____    ______ ____

>  <TORSDO>
F 7

$$$$
=
 OpenBabel11052414423D

 32 35  0  0  1  0  0  0  0  0999 V2000
  189.8190  177.1700  142.4160 C   0  0  0  0  0  3  0  0  0  0  0  0
  188.6210  177.9160  139.7060 C   0  0  0  0  0  0  0  0  0  0  0  0
  191.0350  177.7130  142.4430 C   0  0  0  0  0  3  0  0  0  0  0  0
  189.9400  178.2980  139.9540 O   0  0  0  0  0  0  0  0  0  0  0  0
  188.3660  177.0940  138.6830 C   0  0  0  0  0  0  0  0  0  0  0  0
  187.5100  178.3860  140.6290 C   0  0  2  0  0  3  0  0  0  0  0  0
  186.2090  178.0610  138.5560 O   0  0  0  0  0  0  0  0  0  0  0  0
  190.9930  177.4880  139.5230 C   0  0  0  0  0  0  0  0  0  0  0  0
  186.9280  176.8740  138.3150 C   0  0  0  0  0  2  0  0  0  0  0  0
  190.7970  176.6540  138.5450 N   0  0  0  0  0  0  0  0  0  0  0  0
  192.2900  177.5090  140.2820 C   0  0  0  0  0  2  0  0  0  0  0  0
  187.5000  177.6000  141.8720 N   0  0  0  0  0  2  0  0  0  0  0  0
  188.6040  177.9700  142.7630 C   0  0  1  0  0  3  0  0  0  0  0  0
  186.1270  178.2070  139.9600 C   0  0  2  0  0  3  0  0  0  0  0  0
  189.5170  176.6180  137.8180 C   0  0  1  0  0  3  0  0  0  0  0  0
  192.1460  177.0000  141.7320 C   0  0  0  0  0  2  0  0  0  0  0  0
  187.3840  177.3050  148.2510 F   0  0  0  0  0  0  0  0  0  0  0  0
  188.9700  177.3850  146.4770 C   0  0  0  0  0  3  0  0  0  0  0  0
  188.2180  177.8000  144.2040 C   0  0  0  0  0  0  0  0  0  0  0  0
  186.6160  177.7130  146.0330 C   0  0  0  0  0  3  0  0  0  0  0  0
  189.2480  177.5510  145.1190 C   0  0  0  0  0  3  0  0  0  0  0  0
  186.8830  177.8800  144.6690 C   0  0  0  0  0  0  0  0  0  0  0  0
  187.6540  177.4660  146.9340 C   0  0  0  0  0  0  0  0  0  0  0  0
  185.7300  178.1290  143.7440 C   0  0  0  0  0  2  0  0  0  0  0  0
  184.9560  179.3740  144.1510 C   0  0  0  0  0  2  0  0  0  0  0  0
  183.8230  179.0180  144.8820 O   0  0  0  0  0  1  0  0  0  0  0  0
  189.2800  175.2210  137.2540 C   0  0  0  0  0  2  0  0  0  0  0  0
  190.3290  174.3660  137.5990 O   0  0  0  0  0  1  0  0  0  0  0  0
  185.2260  179.3780  140.3170 C   0  0  0  0  0  2  0  0  0  0  0  0
  183.8590  179.2450  139.6590 C   0  0  0  0  0  2  0  0  0  0  0  0
  182.3990  178.6230  141.5910 C   0  0  0  0  0  1  0  0  0  0  0  0
  183.0410  178.1370  140.3050 C   0  0  0  0  0  2  0  0  0  0  0  0
  1  3  2  0  0  0  0
  1 13  1  0  0  0  0
  2  4  1  0  0  0  0
  5  2  2  0  0  0  0
  6  2  1  6  0  0  0
  6 12  1  0  0  0  0
  7 14  1  0  0  0  0
  8  4  1  0  0  0  0
  8 11  1  0  0  0  0
  9  7  1  0  0  0  0
  9  5  1  0  0  0  0
 10  8  2  0  0  0  0
 11 16  1  0  0  0  0
 12 13  1  0  0  0  0
 13 19  1  1  0  0  0
 14 29  1  6  0  0  0
 14  6  1  0  0  0  0
 15 27  1  1  0  0  0
 15 10  1  0  0  0  0
 15  5  1  0  0  0  0
 16  3  1  0  0  0  0
 18 23  1  0  0  0  0
 19 22  2  0  0  0  0
 19 21  1  0  0  0  0
 20 23  2  0  0  0  0
 21 18  2  0  0  0  0
 22 20  1  0  0  0  0
 23 17  1  0  0  0  0
 24 25  1  0  0  0  0
 24 22  1  0  0  0  0
 25 26  1  0  0  0  0
 27 28  1  0  0  0  0
 30 32  1  0  0  0  0
 30 29  1  0  0  0  0
 32 31  1  0  0  0  0
M  END
>  <MODEL>
6

>  <REMARK>
 VINA RESULT:      -7.3      2.753      5.440
  Name = 
  7 active torsions:
  status: ('A' for Active; 'I' for Inactive)
    1  A    between atoms: C_3  and  C_23
    2  A    between atoms: C_9  and  C_31
    3  A    between atoms: C_9  and  C_32
    4  A    between atoms: C_13  and  CA_29
    5  A    between atoms: C_16  and  C_27
    6  A    between atoms: C_22  and  C_23
    7  A    between atoms: C_28  and  C_32
                            x       y       z     vdW  Elec       q    Type
                         _______ _______ _______ _____ _____    ______ ____

>  <TORSDO>
F 7

$$$$
=
 OpenBabel11052414423D

 32 35  0  0  1  0  0  0  0  0999 V2000
  186.7740  177.6580  143.9880 C   0  0  0  0  0  3  0  0  0  0  0  0
  189.5300  177.8230  142.6790 C   0  0  0  0  0  0  0  0  0  0  0  0
  186.8720  178.3220  145.1370 C   0  0  0  0  0  3  0  0  0  0  0  0
  189.3870  178.3760  143.9520 O   0  0  0  0  0  0  0  0  0  0  0  0
  190.4000  176.8230  142.5010 C   0  0  0  0  0  0  0  0  0  0  0  0
  188.6610  178.3170  141.5370 C   0  0  2  0  0  3  0  0  0  0  0  0
  190.6140  177.5250  140.2500 O   0  0  0  0  0  0  0  0  0  0  0  0
  189.7160  177.6220  145.0800 C   0  0  0  0  0  0  0  0  0  0  0  0
  190.6830  176.3960  141.0900 C   0  0  0  0  0  2  0  0  0  0  0  0
  190.5410  176.6240  144.9630 N   0  0  0  0  0  0  0  0  0  0  0  0
  189.0110  177.9020  146.3780 C   0  0  0  0  0  2  0  0  0  0  0  0
  187.3080  177.7470  141.6290 N   0  0  0  0  0  2  0  0  0  0  0  0
  186.5230  178.3710  142.6970 C   0  0  1  0  0  3  0  0  0  0  0  0
  189.2490  177.8880  140.1720 C   0  0  2  0  0  3  0  0  0  0  0  0
  191.2120  176.3360  143.6850 C   0  0  1  0  0  3  0  0  0  0  0  0
  187.4940  177.6230  146.3090 C   0  0  0  0  0  2  0  0  0  0  0  0
  181.0650  178.3620  141.1900 F   0  0  0  0  0  0  0  0  0  0  0  0
  183.3450  177.8600  140.7190 C   0  0  0  0  0  3  0  0  0  0  0  0
  185.0610  178.3980  142.3520 C   0  0  0  0  0  0  0  0  0  0  0  0
  182.7250  178.9020  142.8120 C   0  0  0  0  0  3  0  0  0  0  0  0
  184.6850  177.8730  141.1110 C   0  0  0  0  0  3  0  0  0  0  0  0
  184.0670  178.9210  143.2140 C   0  0  0  0  0  0  0  0  0  0  0  0
  182.3650  178.3740  141.5700 C   0  0  0  0  0  0  0  0  0  0  0  0
  184.3990  179.5120  144.5510 C   0  0  0  0  0  2  0  0  0  0  0  0
  183.4540  179.0030  145.6290 C   0  0  0  0  0  2  0  0  0  0  0  0
  184.1810  178.4900  146.7030 O   0  0  0  0  0  1  0  0  0  0  0  0
  191.5380  174.8490  143.5930 C   0  0  0  0  0  2  0  0  0  0  0  0
  192.4310  174.4780  144.6010 O   0  0  0  0  0  1  0  0  0  0  0  0
  189.0570  179.0000  139.1540 C   0  0  0  0  0  2  0  0  0  0  0  0
  189.0210  178.4510  137.7340 C   0  0  0  0  0  2  0  0  0  0  0  0
  186.5320  178.2530  137.8520 C   0  0  0  0  0  1  0  0  0  0  0  0
  187.8270  177.5330  137.5270 C   0  0  0  0  0  2  0  0  0  0  0  0
  1  3  2  0  0  0  0
  2  4  1  0  0  0  0
  3 16  1  0  0  0  0
  4  8  1  0  0  0  0
  5  2  2  0  0  0  0
  5 15  1  0  0  0  0
  6 12  1  1  0  0  0
  6  2  1  0  0  0  0
  7  9  1  0  0  0  0
  8 11  1  0  0  0  0
  9  5  1  0  0  0  0
 10  8  2  0  0  0  0
 12 13  1  0  0  0  0
 13 19  1  6  0  0  0
 13  1  1  0  0  0  0
 14 29  1  6  0  0  0
 14  7  1  0  0  0  0
 14  6  1  0  0  0  0
 15 27  1  6  0  0  0
 15 10  1  0  0  0  0
 16 11  1  0  0  0  0
 17 23  1  0  0  0  0
 18 21  2  0  0  0  0
 18 23  1  0  0  0  0
 19 22  2  0  0  0  0
 20 22  1  0  0  0  0
 21 19  1  0  0  0  0
 22 24  1  0  0  0  0
 23 20  2  0  0  0  0
 24 25  1  0  0  0  0
 25 26  1  0  0  0  0
 27 28  1  0  0  0  0
 30 29  1  0  0  0  0
 32 30  1  0  0  0  0
 32 31  1  0  0  0  0
M  END
>  <MODEL>
7

>  <REMARK>
 VINA RESULT:      -7.2      1.632      2.510
  Name = 
  7 active torsions:
  status: ('A' for Active; 'I' for Inactive)
    1  A    between atoms: C_3  and  C_23
    2  A    between atoms: C_9  and  C_31
    3  A    between atoms: C_9  and  C_32
    4  A    between atoms: C_13  and  CA_29
    5  A    between atoms: C_16  and  C_27
    6  A    between atoms: C_22  and  C_23
    7  A    between atoms: C_28  and  C_32
                            x       y       z     vdW  Elec       q    Type
                         _______ _______ _______ _____ _____    ______ ____

>  <TORSDO>
F 7

$$$$
=
 OpenBabel11052414423D

 32 35  0  0  1  0  0  0  0  0999 V2000
  184.2770  179.0420  142.6390 C   0  0  0  0  0  3  0  0  0  0  0  0
  182.4620  178.4620  140.2490 C   0  0  0  0  0  0  0  0  0  0  0  0
  183.6460  178.5580  143.7060 C   0  0  0  0  0  3  0  0  0  0  0  0
  181.9860  178.1250  141.5170 O   0  0  0  0  0  0  0  0  0  0  0  0
  181.7840  179.3510  139.5170 C   0  0  0  0  0  0  0  0  0  0  0  0
  183.7650  177.8650  139.7480 C   0  0  2  0  0  3  0  0  0  0  0  0
  182.6530  178.2940  137.5850 O   0  0  0  0  0  0  0  0  0  0  0  0
  181.1680  179.0170  142.2140 C   0  0  0  0  0  0  0  0  0  0  0  0
  182.2000  179.5300  138.0870 C   0  0  0  0  0  2  0  0  0  0  0  0
  180.4990  179.9170  141.5560 N   0  0  0  0  0  0  0  0  0  0  0  0
  181.1760  178.9970  143.7170 C   0  0  0  0  0  2  0  0  0  0  0  0
  184.9170  178.5470  140.3580 N   0  0  0  0  0  2  0  0  0  0  0  0
  185.1030  178.1590  141.7590 C   0  0  1  0  0  3  0  0  0  0  0  0
  183.8910  178.0320  138.2150 C   0  0  2  0  0  3  0  0  0  0  0  0
  180.5110  179.9510  140.0840 C   0  0  1  0  0  3  0  0  0  0  0  0
  182.5480  179.3790  144.3140 C   0  0  0  0  0  2  0  0  0  0  0  0
  190.6260  178.3750  142.9910 F   0  0  0  0  0  0  0  0  0  0  0  0
  188.8320  178.6850  141.4550 C   0  0  0  0  0  3  0  0  0  0  0  0
  186.5550  178.1930  142.1440 C   0  0  0  0  0  0  0  0  0  0  0  0
  188.4030  177.8840  143.6960 C   0  0  0  0  0  3  0  0  0  0  0  0
  187.4660  178.6240  141.1720 C   0  0  0  0  0  3  0  0  0  0  0  0
  187.0310  177.8160  143.4230 C   0  0  0  0  0  0  0  0  0  0  0  0
  189.3010  178.3160  142.7160 C   0  0  0  0  0  0  0  0  0  0  0  0
  186.1140  177.3330  144.5050 C   0  0  0  0  0  2  0  0  0  0  0  0
  186.6030  177.7700  145.8780 C   0  0  0  0  0  2  0  0  0  0  0  0
  186.0330  178.9950  146.2240 O   0  0  0  0  0  1  0  0  0  0  0  0
  180.2730  181.3750  139.5950 C   0  0  0  0  0  2  0  0  0  0  0  0
  179.1540  181.9300  140.2200 O   0  0  0  0  0  1  0  0  0  0  0  0
  184.5360  176.7930  137.6140 C   0  0  0  0  0  2  0  0  0  0  0  0
  185.6470  177.1650  136.6410 C   0  0  0  0  0  2  0  0  0  0  0  0
  187.8640  177.2000  137.7960 C   0  0  0  0  0  1  0  0  0  0  0  0
  186.6970  178.0390  137.3100 C   0  0  0  0  0  2  0  0  0  0  0  0
  1  3  2  0  0  0  0
  2  4  1  0  0  0  0
  3 16  1  0  0  0  0
  4  8  1  0  0  0  0
  5 15  1  0  0  0  0
  5  2  2  0  0  0  0
  6  2  1  1  0  0  0
  6 12  1  0  0  0  0
  7  9  1  0  0  0  0
  7 14  1  0  0  0  0
  8 11  1  0  0  0  0
  9  5  1  0  0  0  0
 10  8  2  0  0  0  0
 11 16  1  0  0  0  0
 12 13  1  0  0  0  0
 13 19  1  1  0  0  0
 13  1  1  0  0  0  0
 14 29  1  6  0  0  0
 14  6  1  0  0  0  0
 15 27  1  1  0  0  0
 15 10  1  0  0  0  0
 18 23  1  0  0  0  0
 19 22  2  0  0  0  0
 21 18  2  0  0  0  0
 21 19  1  0  0  0  0
 22 20  1  0  0  0  0
 22 24  1  0  0  0  0
 23 17  1  0  0  0  0
 23 20  2  0  0  0  0
 24 25  1  0  0  0  0
 25 26  1  0  0  0  0
 27 28  1  0  0  0  0
 30 32  1  0  0  0  0
 30 29  1  0  0  0  0
 32 31  1  0  0  0  0
M  END
>  <MODEL>
8

>  <REMARK>
 VINA RESULT:      -7.0      3.710      7.865
  Name = 
  7 active torsions:
  status: ('A' for Active; 'I' for Inactive)
    1  A    between atoms: C_3  and  C_23
    2  A    between atoms: C_9  and  C_31
    3  A    between atoms: C_9  and  C_32
    4  A    between atoms: C_13  and  CA_29
    5  A    between atoms: C_16  and  C_27
    6  A    between atoms: C_22  and  C_23
    7  A    between atoms: C_28  and  C_32
                            x       y       z     vdW  Elec       q    Type
                         _______ _______ _______ _____ _____    ______ ____

>  <TORSDO>
F 7

$$$$
=
 OpenBabel11052414423D

 32 35  0  0  1  0  0  0  0  0999 V2000
  188.2030  177.4420  142.0080 C   0  0  0  0  0  3  0  0  0  0  0  0
  187.4510  178.0630  139.1110 C   0  0  0  0  0  0  0  0  0  0  0  0
  189.4330  177.9210  142.1790 C   0  0  0  0  0  3  0  0  0  0  0  0
  188.7420  178.3910  139.5260 O   0  0  0  0  0  0  0  0  0  0  0  0
  187.2940  177.1870  138.1130 C   0  0  0  0  0  0  0  0  0  0  0  0
  186.2520  178.6520  139.8310 C   0  0  2  0  0  3  0  0  0  0  0  0
  185.2410  178.2550  137.6140 O   0  0  0  0  0  0  0  0  0  0  0  0
  189.7940  177.5000  139.3030 C   0  0  0  0  0  0  0  0  0  0  0  0
  185.9130  177.0180  137.5530 C   0  0  0  0  0  2  0  0  0  0  0  0
  189.6890  176.6120  138.3590 N   0  0  0  0  0  0  0  0  0  0  0  0
  190.9690  177.5050  140.2410 C   0  0  0  0  0  2  0  0  0  0  0  0
  186.0160  177.9540  141.1050 N   0  0  0  0  0  2  0  0  0  0  0  0
  187.0020  178.3260  142.1240 C   0  0  1  0  0  3  0  0  0  0  0  0
  184.9700  178.5000  138.9800 C   0  0  2  0  0  3  0  0  0  0  0  0
  188.5260  176.5930  137.4570 C   0  0  1  0  0  3  0  0  0  0  0  0
  190.5880  177.1040  141.6830 C   0  0  0  0  0  2  0  0  0  0  0  0
  184.5580  178.2490  147.2300 F   0  0  0  0  0  0  0  0  0  0  0  0
  184.5370  178.8770  144.9340 C   0  0  0  0  0  3  0  0  0  0  0  0
  186.4050  178.2750  143.5010 C   0  0  0  0  0  0  0  0  0  0  0  0
  186.4040  177.6450  145.8510 C   0  0  0  0  0  3  0  0  0  0  0  0
  185.1580  178.8850  143.6830 C   0  0  0  0  0  3  0  0  0  0  0  0
  187.0370  177.6480  144.6020 C   0  0  0  0  0  0  0  0  0  0  0  0
  185.1600  178.2570  146.0170 C   0  0  0  0  0  0  0  0  0  0  0  0
  188.3780  176.9880  144.4820 C   0  0  0  0  0  2  0  0  0  0  0  0
  189.1770  177.1270  145.7700 C   0  0  0  0  0  2  0  0  0  0  0  0
  190.4210  177.6990  145.5040 O   0  0  0  0  0  1  0  0  0  0  0  0
  188.2860  175.1760  136.9480 C   0  0  0  0  0  2  0  0  0  0  0  0
  188.2740  175.1490  135.5520 O   0  0  0  0  0  1  0  0  0  0  0  0
  184.1010  179.7380  139.1300 C   0  0  0  0  0  2  0  0  0  0  0  0
  182.6630  179.3680  139.4700 C   0  0  0  0  0  2  0  0  0  0  0  0
  181.5190  177.1460  139.5380 C   0  0  0  0  0  1  0  0  0  0  0  0
  182.5910  178.0170  140.1660 C   0  0  0  0  0  2  0  0  0  0  0  0
  1 13  1  0  0  0  0
  1  3  2  0  0  0  0
  2  4  1  0  0  0  0
  5  2  2  0  0  0  0
  6  2  1  6  0  0  0
  6 12  1  0  0  0  0
  7 14  1  0  0  0  0
  8  4  1  0  0  0  0
  8 11  1  0  0  0  0
  9  7  1  0  0  0  0
  9  5  1  0  0  0  0
 10  8  2  0  0  0  0
 11 16  1  0  0  0  0
 12 13  1  0  0  0  0
 13 19  1  1  0  0  0
 14 29  1  6  0  0  0
 14  6  1  0  0  0  0
 15 27  1  1  0  0  0
 15  5  1  0  0  0  0
 15 10  1  0  0  0  0
 16  3  1  0  0  0  0
 18 23  1  0  0  0  0
 19 21  1  0  0  0  0
 19 22  2  0  0  0  0
 20 23  2  0  0  0  0
 21 18  2  0  0  0  0
 22 20  1  0  0  0  0
 23 17  1  0  0  0  0
 24 22  1  0  0  0  0
 24 25  1  0  0  0  0
 26 25  1  0  0  0  0
 28 27  1  0  0  0  0
 29 30  1  0  0  0  0
 30 32  1  0  0  0  0
 31 32  1  0  0  0  0
M  END
>  <MODEL>
9

>  <REMARK>
 VINA RESULT:      -6.8      2.421      5.850
  Name = 
  7 active torsions:
  status: ('A' for Active; 'I' for Inactive)
    1  A    between atoms: C_3  and  C_23
    2  A    between atoms: C_9  and  C_31
    3  A    between atoms: C_9  and  C_32
    4  A    between atoms: C_13  and  CA_29
    5  A    between atoms: C_16  and  C_27
    6  A    between atoms: C_22  and  C_23
    7  A    between atoms: C_28  and  C_32
                            x       y       z     vdW  Elec       q    Type
                         _______ _______ _______ _____ _____    ______ ____

>  <TORSDO>
F 7

$$$$
