=
 OpenBabel11052416023D

 34 34  0  0  1  0  0  0  0  0999 V2000
  190.4310  176.5660  142.5980 C   0  0  1  0  0  3  0  0  0  0  0  0
  189.6130  175.4330  142.6790 O   0  0  0  0  0  1  0  0  0  0  0  0
  190.1640  176.0880  140.2440 O   0  0  0  0  0  1  0  0  0  0  0  0
  190.4290  177.1260  141.1410 C   0  0  2  0  0  0  0  0  0  0  0  0
  191.8050  177.7200  140.8050 C   0  0  0  0  0  2  0  0  0  0  0  0
  193.8740  177.1450  139.7630 O   0  0  0  0  0  1  0  0  0  0  0  0
  192.4890  177.0670  139.6090 C   0  0  0  0  0  2  0  0  0  0  0  0
  189.3550  178.2060  140.9070 C   0  0  0  0  0  2  0  0  0  0  0  0
  187.5970  178.3270  136.9690 C   0  0  0  0  0  0  0  0  0  0  0  0
  188.9440  178.6560  137.1340 C   0  0  0  0  0  3  0  0  0  0  0  0
  189.5200  178.6340  138.4050 C   0  0  0  0  0  3  0  0  0  0  0  0
  187.4130  177.9540  139.3610 C   0  0  0  0  0  3  0  0  0  0  0  0
  188.7510  178.3140  139.5320 C   0  0  0  0  0  0  0  0  0  0  0  0
  186.8340  177.9640  138.0890 C   0  0  0  0  0  3  0  0  0  0  0  0
  187.0420  178.3660  135.6870 O   0  0  0  0  0  0  0  0  0  0  0  0
  186.9000  176.1560  134.7850 C   0  0  0  0  0  1  0  0  0  0  0  0
  186.1330  177.3810  135.2150 C   0  0  0  0  0  2  0  0  0  0  0  0
  190.1180  177.5290  143.7800 C   0  0  2  0  0  0  0  0  0  0  0  0
  189.6010  178.7260  143.2720 O   0  0  0  0  0  1  0  0  0  0  0  0
  191.7710  177.0690  145.6760 N   0  0  0  0  0  1  0  0  0  0  0  0
  191.3610  177.8690  144.5700 C   0  0  0  0  0  0  0  0  0  0  0  0
  192.0640  178.8590  144.2340 O   0  0  0  0  0  0  0  0  0  0  0  0
  189.0640  176.8980  144.7020 C   0  0  0  0  0  2  0  0  0  0  0  0
  188.1110  177.8650  145.4260 C   0  0  1  0  0  3  0  0  0  0  0  0
  186.6800  177.3100  145.4760 C   0  0  2  0  0  3  0  0  0  0  0  0
  186.5550  176.2260  144.6220 F   0  0  0  0  0  0  0  0  0  0  0  0
  185.6250  178.3520  145.0950 C   0  0  1  0  0  3  0  0  0  0  0  0
  185.5600  179.4230  146.0780 N   0  0  0  0  0  2  0  0  0  0  0  0
  185.2230  178.8560  147.2600 O   0  0  0  0  0  1  0  0  0  0  0  0
  185.8830  178.8810  143.8270 O   0  0  0  0  0  0  0  0  0  0  0  0
  183.5320  178.8350  143.5680 C   0  0  0  0  0  1  0  0  0  0  0  0
  184.8590  178.3850  143.0210 C   0  0  0  0  0  2  0  0  0  0  0  0
  188.5720  178.1640  146.7120 O   0  0  0  0  0  0  0  0  0  0  0  0
  188.4030  176.9910  147.4470 C   0  0  0  0  0  1  0  0  0  0  0  0
  1  2  1  6  0  0  0
  1 18  1  0  0  0  0
  4  3  1  6  0  0  0
  4  1  1  0  0  0  0
  5  4  1  0  0  0  0
  7  6  1  0  0  0  0
  7  5  1  0  0  0  0
  8  4  1  0  0  0  0
  9 10  2  0  0  0  0
  9 14  1  0  0  0  0
 10 11  1  0  0  0  0
 11 13  2  0  0  0  0
 12 13  1  0  0  0  0
 13  8  1  0  0  0  0
 14 12  2  0  0  0  0
 15  9  1  0  0  0  0
 16 17  1  0  0  0  0
 17 15  1  0  0  0  0
 18 19  1  6  0  0  0
 18 21  1  0  0  0  0
 18 23  1  0  0  0  0
 21 20  1  0  0  0  0
 22 21  2  0  0  0  0
 24 23  1  1  0  0  0
 24 25  1  0  0  0  0
 24 33  1  0  0  0  0
 25 26  1  6  0  0  0
 27 30  1  6  0  0  0
 27 25  1  0  0  0  0
 27 28  1  0  0  0  0
 28 29  1  0  0  0  0
 32 31  1  0  0  0  0
 32 30  1  0  0  0  0
 33 34  1  0  0  0  0
M  END
>  <MODEL>
1

>  <REMARK>
 VINA RESULT:      -6.2      0.000      0.000
  Name = 
  17 active torsions:
  status: ('A' for Active; 'I' for Inactive)
    1  A    between atoms: C_1  and  C_18
    2  A    between atoms: C_1  and  C_20
    3  A    between atoms: C_2  and  C_25
    4  A    between atoms: C_2  and  C_32
    5  A    between atoms: O_3  and  C_24
    6  A    between atoms: O_3  and  C_25
    7  A    between atoms: C_5  and  C_20
    8  A    between atoms: C_5  and  C_32
    9  A    between atoms: C_6  and  C_18
   10  A    between atoms: C_6  and  C_28
   11  A    between atoms: C_7  and  O_11
   12  A    between atoms: O_11  and  C_21
   13  A    between atoms: C_12  and  C_20
   14  A    between atoms: C_18  and  C_30
   15  A    between atoms: O_19  and  C_32
   16  A    between atoms: C_25  and  N_27
   17  A    between atoms: C_30  and  C_31
                            x       y       z     vdW  Elec       q    Type
                         _______ _______ _______ _____ _____    ______ ____

>  <TORSDO>
F 17

$$$$
=
 OpenBabel11052416023D

 34 34  0  0  1  0  0  0  0  0999 V2000
  187.8090  176.9360  138.6430 C   0  0  1  0  0  3  0  0  0  0  0  0
  188.4770  176.1730  137.6770 O   0  0  0  0  0  1  0  0  0  0  0  0
  189.4510  178.7080  138.7390 O   0  0  0  0  0  1  0  0  0  0  0  0
  188.8400  177.7190  139.5150 C   0  0  2  0  0  0  0  0  0  0  0  0
  189.9280  176.7640  140.0280 C   0  0  0  0  0  2  0  0  0  0  0  0
  192.1040  177.3750  140.7920 O   0  0  0  0  0  1  0  0  0  0  0  0
  191.3450  177.1680  139.6400 C   0  0  0  0  0  2  0  0  0  0  0  0
  188.1980  178.4300  140.7220 C   0  0  0  0  0  2  0  0  0  0  0  0
  189.1000  177.1370  144.7380 C   0  0  0  0  0  0  0  0  0  0  0  0
  189.8960  178.1110  144.1310 C   0  0  0  0  0  3  0  0  0  0  0  0
  189.6230  178.5260  142.8280 C   0  0  0  0  0  3  0  0  0  0  0  0
  187.7540  177.0040  142.7210 C   0  0  0  0  0  3  0  0  0  0  0  0
  188.5700  177.9530  142.1010 C   0  0  0  0  0  0  0  0  0  0  0  0
  188.0170  176.5920  144.0300 C   0  0  0  0  0  3  0  0  0  0  0  0
  189.4000  176.7310  146.0420 O   0  0  0  0  0  0  0  0  0  0  0  0
  187.8790  177.9060  147.4640 C   0  0  0  0  0  1  0  0  0  0  0  0
  189.3250  177.6120  147.1550 C   0  0  0  0  0  2  0  0  0  0  0  0
  186.6320  177.7120  137.9830 C   0  0  2  0  0  0  0  0  0  0  0  0
  185.6490  176.8010  137.5830 O   0  0  0  0  0  1  0  0  0  0  0  0
  187.0290  177.8680  135.4600 N   0  0  0  0  0  1  0  0  0  0  0  0
  187.0790  178.4690  136.7530 C   0  0  0  0  0  0  0  0  0  0  0  0
  187.4770  179.6590  136.8620 O   0  0  0  0  0  0  0  0  0  0  0  0
  186.0120  178.6810  139.0010 C   0  0  0  0  0  2  0  0  0  0  0  0
  184.4750  178.7450  139.0470 C   0  0  1  0  0  3  0  0  0  0  0  0
  183.9080  177.8280  140.1410 C   0  0  2  0  0  3  0  0  0  0  0  0
  182.7120  177.2660  139.7240 F   0  0  0  0  0  0  0  0  0  0  0  0
  183.6640  178.5610  141.4630 C   0  0  1  0  0  3  0  0  0  0  0  0
  182.3100  178.3380  141.9490 N   0  0  0  0  0  2  0  0  0  0  0  0
  181.5820  179.4270  141.6050 O   0  0  0  0  0  1  0  0  0  0  0  0
  184.5910  178.1640  142.4300 O   0  0  0  0  0  0  0  0  0  0  0  0
  185.0810  178.9320  144.6130 C   0  0  0  0  0  1  0  0  0  0  0  0
  184.8350  179.3140  143.1800 C   0  0  0  0  0  2  0  0  0  0  0  0
  184.0260  180.0580  139.2170 O   0  0  0  0  0  0  0  0  0  0  0  0
  182.8220  180.1290  138.5160 C   0  0  0  0  0  1  0  0  0  0  0  0
  1  2  1  6  0  0  0
  1  4  1  0  0  0  0
  4  3  1  6  0  0  0
  4  5  1  0  0  0  0
  4  8  1  0  0  0  0
  7  5  1  0  0  0  0
  7  6  1  0  0  0  0
  8 13  1  0  0  0  0
  9 15  1  0  0  0  0
 10  9  1  0  0  0  0
 11 10  2  0  0  0  0
 12 14  1  0  0  0  0
 13 12  2  0  0  0  0
 13 11  1  0  0  0  0
 14  9  2  0  0  0  0
 15 17  1  0  0  0  0
 17 16  1  0  0  0  0
 18 19  1  6  0  0  0
 18  1  1  0  0  0  0
 18 23  1  0  0  0  0
 20 21  1  0  0  0  0
 21 22  2  0  0  0  0
 21 18  1  0  0  0  0
 24 23  1  1  0  0  0
 24 33  1  0  0  0  0
 24 25  1  0  0  0  0
 25 26  1  6  0  0  0
 25 27  1  0  0  0  0
 27 28  1  1  0  0  0
 27 30  1  0  0  0  0
 29 28  1  0  0  0  0
 30 32  1  0  0  0  0
 32 31  1  0  0  0  0
 34 33  1  0  0  0  0
M  END
>  <MODEL>
2

>  <REMARK>
 VINA RESULT:      -5.9      3.174      6.772
  Name = 
  17 active torsions:
  status: ('A' for Active; 'I' for Inactive)
    1  A    between atoms: C_1  and  C_18
    2  A    between atoms: C_1  and  C_20
    3  A    between atoms: C_2  and  C_25
    4  A    between atoms: C_2  and  C_32
    5  A    between atoms: O_3  and  C_24
    6  A    between atoms: O_3  and  C_25
    7  A    between atoms: C_5  and  C_20
    8  A    between atoms: C_5  and  C_32
    9  A    between atoms: C_6  and  C_18
   10  A    between atoms: C_6  and  C_28
   11  A    between atoms: C_7  and  O_11
   12  A    between atoms: O_11  and  C_21
   13  A    between atoms: C_12  and  C_20
   14  A    between atoms: C_18  and  C_30
   15  A    between atoms: O_19  and  C_32
   16  A    between atoms: C_25  and  N_27
   17  A    between atoms: C_30  and  C_31
                            x       y       z     vdW  Elec       q    Type
                         _______ _______ _______ _____ _____    ______ ____

>  <TORSDO>
F 17

$$$$
=
 OpenBabel11052416023D

 34 34  0  0  1  0  0  0  0  0999 V2000
  189.3910  176.1480  139.0000 C   0  0  1  0  0  3  0  0  0  0  0  0
  190.3960  175.3310  138.4700 O   0  0  0  0  0  1  0  0  0  0  0  0
  189.1000  178.1700  140.2920 O   0  0  0  0  0  1  0  0  0  0  0  0
  189.9960  177.1250  140.0580 C   0  0  2  0  0  0  0  0  0  0  0  0
  191.3110  177.7200  139.5320 C   0  0  0  0  0  2  0  0  0  0  0  0
  193.6350  177.1910  139.6400 O   0  0  0  0  0  1  0  0  0  0  0  0
  192.5150  177.4560  140.4280 C   0  0  0  0  0  2  0  0  0  0  0  0
  190.2670  176.4530  141.4180 C   0  0  0  0  0  2  0  0  0  0  0  0
  188.2320  177.8150  144.9710 C   0  0  0  0  0  0  0  0  0  0  0  0
  187.5570  177.0020  144.0570 C   0  0  0  0  0  3  0  0  0  0  0  0
  188.2010  176.5680  142.8980 C   0  0  0  0  0  3  0  0  0  0  0  0
  190.2000  177.7490  143.5500 C   0  0  0  0  0  3  0  0  0  0  0  0
  189.5160  176.9640  142.6200 C   0  0  0  0  0  0  0  0  0  0  0  0
  189.5640  178.1780  144.7180 C   0  0  0  0  0  3  0  0  0  0  0  0
  187.5620  178.2440  146.1200 O   0  0  0  0  0  0  0  0  0  0  0  0
  185.2130  178.5090  146.4810 C   0  0  0  0  0  1  0  0  0  0  0  0
  186.4010  177.5920  146.6180 C   0  0  0  0  0  2  0  0  0  0  0  0
  188.5170  176.7260  137.8500 C   0  0  2  0  0  0  0  0  0  0  0  0
  188.0160  175.6710  137.0800 O   0  0  0  0  0  1  0  0  0  0  0  0
  189.2230  179.0410  137.0200 N   0  0  0  0  0  1  0  0  0  0  0  0
  189.3170  177.6210  136.9320 C   0  0  0  0  0  0  0  0  0  0  0  0
  190.1030  177.1090  136.0900 O   0  0  0  0  0  0  0  0  0  0  0  0
  187.3290  177.5040  138.4380 C   0  0  0  0  0  2  0  0  0  0  0  0
  185.9730  177.3350  137.7290 C   0  0  1  0  0  3  0  0  0  0  0  0
  184.8030  177.6190  138.6820 C   0  0  2  0  0  3  0  0  0  0  0  0
  183.6320  177.7970  137.9640 F   0  0  0  0  0  0  0  0  0  0  0  0
  185.0310  178.8590  139.5510 C   0  0  1  0  0  3  0  0  0  0  0  0
  183.8510  179.7100  139.5780 N   0  0  0  0  0  2  0  0  0  0  0  0
  184.1320  180.7990  138.8230 O   0  0  0  0  0  1  0  0  0  0  0  0
  185.3880  178.4950  140.8530 O   0  0  0  0  0  0  0  0  0  0  0  0
  184.3070  178.4970  142.9570 C   0  0  0  0  0  1  0  0  0  0  0  0
  184.1780  178.2130  141.4860 C   0  0  0  0  0  2  0  0  0  0  0  0
  185.8930  178.1410  136.5900 O   0  0  0  0  0  0  0  0  0  0  0  0
  185.5830  177.2710  135.5440 C   0  0  0  0  0  1  0  0  0  0  0  0
  1  2  1  6  0  0  0
  1  4  1  0  0  0  0
  4  3  1  1  0  0  0
  4  8  1  0  0  0  0
  5  4  1  0  0  0  0
  5  7  1  0  0  0  0
  6  7  1  0  0  0  0
  8 13  1  0  0  0  0
  9 15  1  0  0  0  0
 10  9  2  0  0  0  0
 11 10  1  0  0  0  0
 12 14  2  0  0  0  0
 13 11  2  0  0  0  0
 13 12  1  0  0  0  0
 14  9  1  0  0  0  0
 15 17  1  0  0  0  0
 16 17  1  0  0  0  0
 18 19  1  6  0  0  0
 18 23  1  0  0  0  0
 18  1  1  0  0  0  0
 21 20  1  0  0  0  0
 21 18  1  0  0  0  0
 22 21  2  0  0  0  0
 24 23  1  1  0  0  0
 24 25  1  0  0  0  0
 25 26  1  6  0  0  0
 25 27  1  0  0  0  0
 27 28  1  1  0  0  0
 27 30  1  0  0  0  0
 29 28  1  0  0  0  0
 30 32  1  0  0  0  0
 32 31  1  0  0  0  0
 33 24  1  0  0  0  0
 34 33  1  0  0  0  0
M  END
>  <MODEL>
3

>  <REMARK>
 VINA RESULT:      -5.8      2.962      6.881
  Name = 
  17 active torsions:
  status: ('A' for Active; 'I' for Inactive)
    1  A    between atoms: C_1  and  C_18
    2  A    between atoms: C_1  and  C_20
    3  A    between atoms: C_2  and  C_25
    4  A    between atoms: C_2  and  C_32
    5  A    between atoms: O_3  and  C_24
    6  A    between atoms: O_3  and  C_25
    7  A    between atoms: C_5  and  C_20
    8  A    between atoms: C_5  and  C_32
    9  A    between atoms: C_6  and  C_18
   10  A    between atoms: C_6  and  C_28
   11  A    between atoms: C_7  and  O_11
   12  A    between atoms: O_11  and  C_21
   13  A    between atoms: C_12  and  C_20
   14  A    between atoms: C_18  and  C_30
   15  A    between atoms: O_19  and  C_32
   16  A    between atoms: C_25  and  N_27
   17  A    between atoms: C_30  and  C_31
                            x       y       z     vdW  Elec       q    Type
                         _______ _______ _______ _____ _____    ______ ____

>  <TORSDO>
F 17

$$$$
=
 OpenBabel11052416023D

 34 34  0  0  1  0  0  0  0  0999 V2000
  189.3140  176.7000  141.3650 C   0  0  1  0  0  3  0  0  0  0  0  0
  190.1800  175.6940  141.8080 O   0  0  0  0  0  1  0  0  0  0  0  0
  188.4670  178.8680  142.0150 O   0  0  0  0  0  1  0  0  0  0  0  0
  188.9860  177.6800  142.5350 C   0  0  2  0  0  0  0  0  0  0  0  0
  190.2650  178.0100  143.3180 C   0  0  0  0  0  2  0  0  0  0  0  0
  190.9460  177.4200  145.5280 O   0  0  0  0  0  1  0  0  0  0  0  0
  190.0450  178.2100  144.8130 C   0  0  0  0  0  2  0  0  0  0  0  0
  187.9360  177.1240  143.5160 C   0  0  0  0  0  2  0  0  0  0  0  0
  184.0330  178.9420  143.7960 C   0  0  0  0  0  0  0  0  0  0  0  0
  184.5500  178.6060  142.5440 C   0  0  0  0  0  3  0  0  0  0  0  0
  185.8170  178.0300  142.4390 C   0  0  0  0  0  3  0  0  0  0  0  0
  186.0660  178.1180  144.8370 C   0  0  0  0  0  3  0  0  0  0  0  0
  186.5980  177.8120  143.5830 C   0  0  0  0  0  0  0  0  0  0  0  0
  184.7940  178.6840  144.9480 C   0  0  0  0  0  3  0  0  0  0  0  0
  182.7660  179.5260  143.8720 O   0  0  0  0  0  0  0  0  0  0  0  0
  180.5110  179.5110  143.0750 C   0  0  0  0  0  1  0  0  0  0  0  0
  181.5670  178.7610  143.8460 C   0  0  0  0  0  2  0  0  0  0  0  0
  189.8240  177.2780  140.0130 C   0  0  2  0  0  0  0  0  0  0  0  0
  190.8670  178.1770  140.2620 O   0  0  0  0  0  1  0  0  0  0  0  0
  189.0420  179.1860  138.4980 N   0  0  0  0  0  1  0  0  0  0  0  0
  188.7380  178.0320  139.2800 C   0  0  0  0  0  0  0  0  0  0  0  0
  187.5480  177.6240  139.3350 O   0  0  0  0  0  0  0  0  0  0  0  0
  190.3630  176.1420  139.1310 C   0  0  0  0  0  2  0  0  0  0  0  0
  191.2630  176.5500  137.9500 C   0  0  1  0  0  3  0  0  0  0  0  0
  192.7110  176.0840  138.1610 C   0  0  2  0  0  3  0  0  0  0  0  0
  193.4640  177.0980  138.7300 F   0  0  0  0  0  0  0  0  0  0  0  0
  193.3900  175.6480  136.8590 C   0  0  1  0  0  3  0  0  0  0  0  0
  194.4510  176.5700  136.4820 N   0  0  0  0  0  2  0  0  0  0  0  0
  194.3860  176.7210  135.1380 O   0  0  0  0  0  1  0  0  0  0  0  0
  193.9000  174.3520  136.9740 O   0  0  0  0  0  0  0  0  0  0  0  0
  195.3580  173.4130  138.5830 C   0  0  0  0  0  1  0  0  0  0  0  0
  195.1450  174.5140  137.5820 C   0  0  0  0  0  2  0  0  0  0  0  0
  190.7580  176.0710  136.7380 O   0  0  0  0  0  0  0  0  0  0  0  0
  189.7790  175.1400  137.0890 C   0  0  0  0  0  1  0  0  0  0  0  0
  1  2  1  1  0  0  0
  1  4  1  0  0  0  0
  4  3  1  6  0  0  0
  4  5  1  0  0  0  0
  4  8  1  0  0  0  0
  5  7  1  0  0  0  0
  7  6  1  0  0  0  0
  8 13  1  0  0  0  0
  9 15  1  0  0  0  0
  9 14  1  0  0  0  0
 10  9  2  0  0  0  0
 11 10  1  0  0  0  0
 11 13  2  0  0  0  0
 12 14  2  0  0  0  0
 13 12  1  0  0  0  0
 16 17  1  0  0  0  0
 17 15  1  0  0  0  0
 18 19  1  1  0  0  0
 18  1  1  0  0  0  0
 20 21  1  0  0  0  0
 21 22  2  0  0  0  0
 21 18  1  0  0  0  0
 23 18  1  0  0  0  0
 24 25  1  0  0  0  0
 24 23  1  1  0  0  0
 25 26  1  6  0  0  0
 27 28  1  1  0  0  0
 27 30  1  0  0  0  0
 27 25  1  0  0  0  0
 29 28  1  0  0  0  0
 30 32  1  0  0  0  0
 32 31  1  0  0  0  0
 33 34  1  0  0  0  0
 33 24  1  0  0  0  0
M  END
>  <MODEL>
4

>  <REMARK>
 VINA RESULT:      -5.7      3.558      8.327
  Name = 
  17 active torsions:
  status: ('A' for Active; 'I' for Inactive)
    1  A    between atoms: C_1  and  C_18
    2  A    between atoms: C_1  and  C_20
    3  A    between atoms: C_2  and  C_25
    4  A    between atoms: C_2  and  C_32
    5  A    between atoms: O_3  and  C_24
    6  A    between atoms: O_3  and  C_25
    7  A    between atoms: C_5  and  C_20
    8  A    between atoms: C_5  and  C_32
    9  A    between atoms: C_6  and  C_18
   10  A    between atoms: C_6  and  C_28
   11  A    between atoms: C_7  and  O_11
   12  A    between atoms: O_11  and  C_21
   13  A    between atoms: C_12  and  C_20
   14  A    between atoms: C_18  and  C_30
   15  A    between atoms: O_19  and  C_32
   16  A    between atoms: C_25  and  N_27
   17  A    between atoms: C_30  and  C_31
                            x       y       z     vdW  Elec       q    Type
                         _______ _______ _______ _____ _____    ______ ____

>  <TORSDO>
F 17

$$$$
=
 OpenBabel11052416023D

 34 34  0  0  1  0  0  0  0  0999 V2000
  187.3660  177.1380  142.6420 C   0  0  1  0  0  3  0  0  0  0  0  0
  187.4820  176.1770  143.6530 O   0  0  0  0  0  1  0  0  0  0  0  0
  186.5110  179.3770  142.3310 O   0  0  0  0  0  1  0  0  0  0  0  0
  186.2730  178.1860  143.0210 C   0  0  2  0  0  0  0  0  0  0  0  0
  186.3260  178.4790  144.5280 C   0  0  0  0  0  2  0  0  0  0  0  0
  184.9130  178.7500  146.4320 O   0  0  0  0  0  1  0  0  0  0  0  0
  185.0480  179.0940  145.0870 C   0  0  0  0  0  2  0  0  0  0  0  0
  184.8460  177.7340  142.6550 C   0  0  0  0  0  2  0  0  0  0  0  0
  182.7990  179.5350  139.3110 C   0  0  0  0  0  0  0  0  0  0  0  0
  184.1870  179.3910  139.2750 C   0  0  0  0  0  3  0  0  0  0  0  0
  184.8620  178.8240  140.3560 C   0  0  0  0  0  3  0  0  0  0  0  0
  182.7700  178.5340  141.5240 C   0  0  0  0  0  3  0  0  0  0  0  0
  184.1620  178.4200  141.5020 C   0  0  0  0  0  0  0  0  0  0  0  0
  182.0890  179.0920  140.4390 C   0  0  0  0  0  3  0  0  0  0  0  0
  182.1480  180.1160  138.2190 O   0  0  0  0  0  0  0  0  0  0  0  0
  180.1210  181.3830  138.1600 C   0  0  0  0  0  1  0  0  0  0  0  0
  181.6240  181.4370  138.2540 C   0  0  0  0  0  2  0  0  0  0  0  0
  188.7790  177.6360  142.2200 C   0  0  2  0  0  0  0  0  0  0  0  0
  188.8900  179.0000  142.5090 O   0  0  0  0  0  1  0  0  0  0  0  0
  188.2380  178.1780  139.7800 N   0  0  0  0  0  1  0  0  0  0  0  0
  189.0150  177.4630  140.7370 C   0  0  0  0  0  0  0  0  0  0  0  0
  189.9310  176.6970  140.3360 O   0  0  0  0  0  0  0  0  0  0  0  0
  189.8550  176.8810  143.0160 C   0  0  0  0  0  2  0  0  0  0  0  0
  190.7000  177.7140  143.9970 C   0  0  1  0  0  3  0  0  0  0  0  0
  191.4830  176.8150  144.9650 C   0  0  2  0  0  3  0  0  0  0  0  0
  191.7000  175.5710  144.3970 F   0  0  0  0  0  0  0  0  0  0  0  0
  190.7670  176.6170  146.3040 C   0  0  1  0  0  3  0  0  0  0  0  0
  191.6740  176.8220  147.4240 N   0  0  0  0  0  2  0  0  0  0  0  0
  192.4370  175.7080  147.5240 O   0  0  0  0  0  1  0  0  0  0  0  0
  189.6700  177.4770  146.4140 O   0  0  0  0  0  0  0  0  0  0  0  0
  188.4160  178.2070  148.2810 C   0  0  0  0  0  1  0  0  0  0  0  0
  188.9800  177.0280  147.5390 C   0  0  0  0  0  2  0  0  0  0  0  0
  191.5600  178.5800  143.3180 O   0  0  0  0  0  0  0  0  0  0  0  0
  191.8130  179.6240  144.2090 C   0  0  0  0  0  1  0  0  0  0  0  0
  1  4  1  0  0  0  0
  1  2  1  1  0  0  0
  4  3  1  6  0  0  0
  4  5  1  0  0  0  0
  5  7  1  0  0  0  0
  7  6  1  0  0  0  0
  8  4  1  0  0  0  0
  9 14  1  0  0  0  0
 10  9  2  0  0  0  0
 10 11  1  0  0  0  0
 11 13  2  0  0  0  0
 13 12  1  0  0  0  0
 13  8  1  0  0  0  0
 14 12  2  0  0  0  0
 15 17  1  0  0  0  0
 15  9  1  0  0  0  0
 16 17  1  0  0  0  0
 18 19  1  1  0  0  0
 18  1  1  0  0  0  0
 18 23  1  0  0  0  0
 20 21  1  0  0  0  0
 21 18  1  0  0  0  0
 22 21  2  0  0  0  0
 24 23  1  6  0  0  0
 24 25  1  0  0  0  0
 25 26  1  6  0  0  0
 25 27  1  0  0  0  0
 27 30  1  1  0  0  0
 27 28  1  0  0  0  0
 28 29  1  0  0  0  0
 30 32  1  0  0  0  0
 32 31  1  0  0  0  0
 33 24  1  0  0  0  0
 33 34  1  0  0  0  0
M  END
>  <MODEL>
5

>  <REMARK>
 VINA RESULT:      -5.7      3.055      5.785
  Name = 
  17 active torsions:
  status: ('A' for Active; 'I' for Inactive)
    1  A    between atoms: C_1  and  C_18
    2  A    between atoms: C_1  and  C_20
    3  A    between atoms: C_2  and  C_25
    4  A    between atoms: C_2  and  C_32
    5  A    between atoms: O_3  and  C_24
    6  A    between atoms: O_3  and  C_25
    7  A    between atoms: C_5  and  C_20
    8  A    between atoms: C_5  and  C_32
    9  A    between atoms: C_6  and  C_18
   10  A    between atoms: C_6  and  C_28
   11  A    between atoms: C_7  and  O_11
   12  A    between atoms: O_11  and  C_21
   13  A    between atoms: C_12  and  C_20
   14  A    between atoms: C_18  and  C_30
   15  A    between atoms: O_19  and  C_32
   16  A    between atoms: C_25  and  N_27
   17  A    between atoms: C_30  and  C_31
                            x       y       z     vdW  Elec       q    Type
                         _______ _______ _______ _____ _____    ______ ____

>  <TORSDO>
F 17

$$$$
=
 OpenBabel11052416023D

 34 34  0  0  1  0  0  0  0  0999 V2000
  188.6650  178.1430  142.2500 C   0  0  1  0  0  3  0  0  0  0  0  0
  188.1540  179.0780  141.3420 O   0  0  0  0  0  1  0  0  0  0  0  0
  187.7000  176.2150  143.3430 O   0  0  0  0  0  1  0  0  0  0  0  0
  187.5170  177.5860  143.1490 C   0  0  2  0  0  0  0  0  0  0  0  0
  186.1600  177.8030  142.4630 C   0  0  0  0  0  2  0  0  0  0  0  0
  183.9580  178.3550  143.2000 O   0  0  0  0  0  1  0  0  0  0  0  0
  185.2690  178.8290  143.1550 C   0  0  0  0  0  2  0  0  0  0  0  0
  187.4720  178.2350  144.5470 C   0  0  0  0  0  2  0  0  0  0  0  0
  190.7430  177.2130  147.1680 C   0  0  0  0  0  0  0  0  0  0  0  0
  189.4400  176.8520  147.5170 C   0  0  0  0  0  3  0  0  0  0  0  0
  188.3730  177.1890  146.6840 C   0  0  0  0  0  3  0  0  0  0  0  0
  189.8950  178.2510  145.1430 C   0  0  0  0  0  3  0  0  0  0  0  0
  188.5880  177.9190  145.5070 C   0  0  0  0  0  0  0  0  0  0  0  0
  190.9680  177.9060  145.9690 C   0  0  0  0  0  3  0  0  0  0  0  0
  191.7930  176.8720  148.0250 O   0  0  0  0  0  0  0  0  0  0  0  0
  192.3980  175.1430  146.4870 C   0  0  0  0  0  1  0  0  0  0  0  0
  192.5200  175.6560  147.8990 C   0  0  0  0  0  2  0  0  0  0  0  0
  189.6000  177.1430  141.5100 C   0  0  2  0  0  0  0  0  0  0  0  0
  188.9230  175.9330  141.3240 O   0  0  0  0  0  1  0  0  0  0  0  0
  190.9700  175.6480  143.0700 N   0  0  0  0  0  1  0  0  0  0  0  0
  190.8490  176.8480  142.3080 C   0  0  0  0  0  0  0  0  0  0  0  0
  191.8130  177.6590  142.2830 O   0  0  0  0  0  0  0  0  0  0  0  0
  189.9770  177.7050  140.1310 C   0  0  0  0  0  2  0  0  0  0  0  0
  189.3560  177.0090  138.9070 C   0  0  1  0  0  3  0  0  0  0  0  0
  189.0330  178.0150  137.7930 C   0  0  2  0  0  3  0  0  0  0  0  0
  189.2980  179.3060  138.2200 F   0  0  0  0  0  0  0  0  0  0  0  0
  187.5740  177.9460  137.3350 C   0  0  1  0  0  3  0  0  0  0  0  0
  187.0280  176.6080  137.5090 N   0  0  0  0  0  2  0  0  0  0  0  0
  187.2460  175.9370  136.3530 O   0  0  0  0  0  1  0  0  0  0  0  0
  186.7910  178.8750  138.0240 O   0  0  0  0  0  0  0  0  0  0  0  0
  184.5480  178.8660  138.7750 C   0  0  0  0  0  1  0  0  0  0  0  0
  185.8440  178.1080  138.7020 C   0  0  0  0  0  2  0  0  0  0  0  0
  190.1840  175.9880  138.4300 O   0  0  0  0  0  0  0  0  0  0  0  0
  191.3920  176.6110  138.1130 C   0  0  0  0  0  1  0  0  0  0  0  0
  1  2  1  6  0  0  0
  1  4  1  0  0  0  0
  4  3  1  1  0  0  0
  4  8  1  0  0  0  0
  5  4  1  0  0  0  0
  5  7  1  0  0  0  0
  7  6  1  0  0  0  0
  8 13  1  0  0  0  0
  9 10  1  0  0  0  0
  9 15  1  0  0  0  0
 11 10  2  0  0  0  0
 12 13  2  0  0  0  0
 12 14  1  0  0  0  0
 13 11  1  0  0  0  0
 14  9  2  0  0  0  0
 16 17  1  0  0  0  0
 17 15  1  0  0  0  0
 18 19  1  6  0  0  0
 18  1  1  0  0  0  0
 18 21  1  0  0  0  0
 21 20  1  0  0  0  0
 22 21  2  0  0  0  0
 23 18  1  0  0  0  0
 24 23  1  1  0  0  0
 25 26  1  1  0  0  0
 25 24  1  0  0  0  0
 27 28  1  1  0  0  0
 27 25  1  0  0  0  0
 27 30  1  0  0  0  0
 29 28  1  0  0  0  0
 30 32  1  0  0  0  0
 32 31  1  0  0  0  0
 33 24  1  0  0  0  0
 34 33  1  0  0  0  0
M  END
>  <MODEL>
6

>  <REMARK>
 VINA RESULT:      -5.7      2.838      7.753
  Name = 
  17 active torsions:
  status: ('A' for Active; 'I' for Inactive)
    1  A    between atoms: C_1  and  C_18
    2  A    between atoms: C_1  and  C_20
    3  A    between atoms: C_2  and  C_25
    4  A    between atoms: C_2  and  C_32
    5  A    between atoms: O_3  and  C_24
    6  A    between atoms: O_3  and  C_25
    7  A    between atoms: C_5  and  C_20
    8  A    between atoms: C_5  and  C_32
    9  A    between atoms: C_6  and  C_18
   10  A    between atoms: C_6  and  C_28
   11  A    between atoms: C_7  and  O_11
   12  A    between atoms: O_11  and  C_21
   13  A    between atoms: C_12  and  C_20
   14  A    between atoms: C_18  and  C_30
   15  A    between atoms: O_19  and  C_32
   16  A    between atoms: C_25  and  N_27
   17  A    between atoms: C_30  and  C_31
                            x       y       z     vdW  Elec       q    Type
                         _______ _______ _______ _____ _____    ______ ____

>  <TORSDO>
F 17

$$$$
=
 OpenBabel11052416023D

 34 34  0  0  1  0  0  0  0  0999 V2000
  186.5870  177.6290  142.4900 C   0  0  1  0  0  3  0  0  0  0  0  0
  186.5520  176.7510  143.5790 O   0  0  0  0  0  1  0  0  0  0  0  0
  185.6980  179.7530  141.7540 O   0  0  0  0  0  1  0  0  0  0  0  0
  185.4390  178.6800  142.6110 C   0  0  2  0  0  0  0  0  0  0  0  0
  185.3640  179.2140  144.0490 C   0  0  0  0  0  2  0  0  0  0  0  0
  184.1750  178.9870  146.1050 O   0  0  0  0  0  1  0  0  0  0  0  0
  184.0120  179.0070  144.7200 C   0  0  0  0  0  2  0  0  0  0  0  0
  184.0580  178.1180  142.2210 C   0  0  0  0  0  2  0  0  0  0  0  0
  182.2690  179.1520  138.4340 C   0  0  0  0  0  0  0  0  0  0  0  0
  183.5640  178.6300  138.4660 C   0  0  0  0  0  3  0  0  0  0  0  0
  184.1580  178.3060  139.6860 C   0  0  0  0  0  3  0  0  0  0  0  0
  182.1720  179.0170  140.8560 C   0  0  0  0  0  3  0  0  0  0  0  0
  183.4790  178.5270  140.8920 C   0  0  0  0  0  0  0  0  0  0  0  0
  181.5690  179.3340  139.6370 C   0  0  0  0  0  3  0  0  0  0  0  0
  181.7000  179.4780  137.1990 O   0  0  0  0  0  0  0  0  0  0  0  0
  181.7710  177.8850  135.4170 C   0  0  0  0  0  1  0  0  0  0  0  0
  180.9110  178.5610  136.4540 C   0  0  0  0  0  2  0  0  0  0  0  0
  188.0450  178.1240  142.2560 C   0  0  2  0  0  0  0  0  0  0  0  0
  188.1030  179.5030  142.4830 O   0  0  0  0  0  1  0  0  0  0  0  0
  187.8530  178.5050  139.7340 N   0  0  0  0  0  1  0  0  0  0  0  0
  188.5010  177.8750  140.8370 C   0  0  0  0  0  0  0  0  0  0  0  0
  189.4850  177.1200  140.6210 O   0  0  0  0  0  0  0  0  0  0  0  0
  188.9950  177.4290  143.2440 C   0  0  0  0  0  2  0  0  0  0  0  0
  189.3670  178.2140  144.5140 C   0  0  1  0  0  3  0  0  0  0  0  0
  188.7220  177.5990  145.7640 C   0  0  2  0  0  3  0  0  0  0  0  0
  187.5460  178.2630  146.0740 F   0  0  0  0  0  0  0  0  0  0  0  0
  189.6390  177.6420  146.9890 C   0  0  1  0  0  3  0  0  0  0  0  0
  188.9830  178.2840  148.1190 N   0  0  0  0  0  2  0  0  0  0  0  0
  188.1460  177.3690  148.6620 O   0  0  0  0  0  1  0  0  0  0  0  0
  190.0550  176.3570  147.3450 O   0  0  0  0  0  0  0  0  0  0  0  0
  192.2030  175.6050  146.6970 C   0  0  0  0  0  1  0  0  0  0  0  0
  191.4150  176.4890  147.6240 C   0  0  0  0  0  2  0  0  0  0  0  0
  190.7540  178.3070  144.6650 O   0  0  0  0  0  0  0  0  0  0  0  0
  191.2890  177.5490  143.6230 C   0  0  0  0  0  1  0  0  0  0  0  0
  1  4  1  0  0  0  0
  1  2  1  1  0  0  0
  4  3  1  6  0  0  0
  4  5  1  0  0  0  0
  5  7  1  0  0  0  0
  7  6  1  0  0  0  0
  8  4  1  0  0  0  0
  9 10  2  0  0  0  0
  9 14  1  0  0  0  0
 10 11  1  0  0  0  0
 11 13  2  0  0  0  0
 12 13  1  0  0  0  0
 13  8  1  0  0  0  0
 14 12  2  0  0  0  0
 15  9  1  0  0  0  0
 16 17  1  0  0  0  0
 17 15  1  0  0  0  0
 18 19  1  1  0  0  0
 18  1  1  0  0  0  0
 18 23  1  0  0  0  0
 20 21  1  0  0  0  0
 21 18  1  0  0  0  0
 22 21  2  0  0  0  0
 24 23  1  6  0  0  0
 24 33  1  0  0  0  0
 24 25  1  0  0  0  0
 25 26  1  1  0  0  0
 25 27  1  0  0  0  0
 27 30  1  1  0  0  0
 27 28  1  0  0  0  0
 28 29  1  0  0  0  0
 30 32  1  0  0  0  0
 31 32  1  0  0  0  0
 34 33  1  0  0  0  0
M  END
>  <MODEL>
7

>  <REMARK>
 VINA RESULT:      -5.5      2.969      5.687
  Name = 
  17 active torsions:
  status: ('A' for Active; 'I' for Inactive)
    1  A    between atoms: C_1  and  C_18
    2  A    between atoms: C_1  and  C_20
    3  A    between atoms: C_2  and  C_25
    4  A    between atoms: C_2  and  C_32
    5  A    between atoms: O_3  and  C_24
    6  A    between atoms: O_3  and  C_25
    7  A    between atoms: C_5  and  C_20
    8  A    between atoms: C_5  and  C_32
    9  A    between atoms: C_6  and  C_18
   10  A    between atoms: C_6  and  C_28
   11  A    between atoms: C_7  and  O_11
   12  A    between atoms: O_11  and  C_21
   13  A    between atoms: C_12  and  C_20
   14  A    between atoms: C_18  and  C_30
   15  A    between atoms: O_19  and  C_32
   16  A    between atoms: C_25  and  N_27
   17  A    between atoms: C_30  and  C_31
                            x       y       z     vdW  Elec       q    Type
                         _______ _______ _______ _____ _____    ______ ____

>  <TORSDO>
F 17

$$$$
=
 OpenBabel11052416023D

 34 34  0  0  1  0  0  0  0  0999 V2000
  188.4590  176.6650  142.6180 C   0  0  1  0  0  3  0  0  0  0  0  0
  188.0270  175.4810  143.2270 O   0  0  0  0  0  1  0  0  0  0  0  0
  188.5050  178.8890  143.5620 O   0  0  0  0  0  1  0  0  0  0  0  0
  187.6340  177.8760  143.1540 C   0  0  2  0  0  0  0  0  0  0  0  0
  186.7910  177.4440  144.3630 C   0  0  0  0  0  2  0  0  0  0  0  0
  186.5220  177.4950  146.7330 O   0  0  0  0  0  1  0  0  0  0  0  0
  187.2110  178.0920  145.6770 C   0  0  0  0  0  2  0  0  0  0  0  0
  186.6980  178.4890  142.0940 C   0  0  0  0  0  2  0  0  0  0  0  0
  182.5210  179.1180  142.9710 C   0  0  0  0  0  0  0  0  0  0  0  0
  183.4920  179.6140  143.8440 C   0  0  0  0  0  3  0  0  0  0  0  0
  184.8450  179.4040  143.5780 C   0  0  0  0  0  3  0  0  0  0  0  0
  184.2760  178.2030  141.5650 C   0  0  0  0  0  3  0  0  0  0  0  0
  185.2470  178.6700  142.4530 C   0  0  0  0  0  0  0  0  0  0  0  0
  182.9200  178.4190  141.8210 C   0  0  0  0  0  3  0  0  0  0  0  0
  181.1710  179.3330  143.2660 O   0  0  0  0  0  0  0  0  0  0  0  0
  179.0600  179.0170  144.3430 C   0  0  0  0  0  1  0  0  0  0  0  0
  180.3870  178.3950  143.9910 C   0  0  0  0  0  2  0  0  0  0  0  0
  190.0140  176.7360  142.6450 C   0  0  2  0  0  0  0  0  0  0  0  0
  190.5360  175.4530  142.4490 O   0  0  0  0  0  1  0  0  0  0  0  0
  191.3990  178.3660  144.0480 N   0  0  0  0  0  1  0  0  0  0  0  0
  190.5290  177.2390  143.9740 C   0  0  0  0  0  0  0  0  0  0  0  0
  190.1650  176.6740  145.0390 O   0  0  0  0  0  0  0  0  0  0  0  0
  190.5130  177.6430  141.5100 C   0  0  0  0  0  2  0  0  0  0  0  0
  190.2740  177.1460  140.0730 C   0  0  1  0  0  3  0  0  0  0  0  0
  189.4070  178.1310  139.2760 C   0  0  2  0  0  3  0  0  0  0  0  0
  189.0470  179.2070  140.0710 F   0  0  0  0  0  0  0  0  0  0  0  0
  188.1310  177.4880  138.7250 C   0  0  1  0  0  3  0  0  0  0  0  0
  187.1600  178.4970  138.3260 N   0  0  0  0  0  2  0  0  0  0  0  0
  185.9430  177.9030  138.3450 O   0  0  0  0  0  1  0  0  0  0  0  0
  188.4230  176.6520  137.6440 O   0  0  0  0  0  0  0  0  0  0  0  0
  189.9740  176.7080  135.8590 C   0  0  0  0  0  1  0  0  0  0  0  0
  188.9980  177.4920  136.6910 C   0  0  0  0  0  2  0  0  0  0  0  0
  191.4830  176.9020  139.4130 O   0  0  0  0  0  0  0  0  0  0  0  0
  192.4630  177.4980  140.2070 C   0  0  0  0  0  1  0  0  0  0  0  0
  1 18  1  0  0  0  0
  1  4  1  0  0  0  0
  1  2  1  1  0  0  0
  4  3  1  1  0  0  0
  4  5  1  0  0  0  0
  5  7  1  0  0  0  0
  7  6  1  0  0  0  0
  8 13  1  0  0  0  0
  8  4  1  0  0  0  0
  9 15  1  0  0  0  0
  9 10  1  0  0  0  0
 11 10  2  0  0  0  0
 12 14  1  0  0  0  0
 12 13  2  0  0  0  0
 13 11  1  0  0  0  0
 14  9  2  0  0  0  0
 15 17  1  0  0  0  0
 17 16  1  0  0  0  0
 18 19  1  6  0  0  0
 18 21  1  0  0  0  0
 21 20  1  0  0  0  0
 21 22  2  0  0  0  0
 23 18  1  0  0  0  0
 24 23  1  1  0  0  0
 25 26  1  1  0  0  0
 25 24  1  0  0  0  0
 27 30  1  6  0  0  0
 27 25  1  0  0  0  0
 28 29  1  0  0  0  0
 28 27  1  0  0  0  0
 31 32  1  0  0  0  0
 32 30  1  0  0  0  0
 33 24  1  0  0  0  0
 33 34  1  0  0  0  0
M  END
>  <MODEL>
8

>  <REMARK>
 VINA RESULT:      -5.5      2.613      6.793
  Name = 
  17 active torsions:
  status: ('A' for Active; 'I' for Inactive)
    1  A    between atoms: C_1  and  C_18
    2  A    between atoms: C_1  and  C_20
    3  A    between atoms: C_2  and  C_25
    4  A    between atoms: C_2  and  C_32
    5  A    between atoms: O_3  and  C_24
    6  A    between atoms: O_3  and  C_25
    7  A    between atoms: C_5  and  C_20
    8  A    between atoms: C_5  and  C_32
    9  A    between atoms: C_6  and  C_18
   10  A    between atoms: C_6  and  C_28
   11  A    between atoms: C_7  and  O_11
   12  A    between atoms: O_11  and  C_21
   13  A    between atoms: C_12  and  C_20
   14  A    between atoms: C_18  and  C_30
   15  A    between atoms: O_19  and  C_32
   16  A    between atoms: C_25  and  N_27
   17  A    between atoms: C_30  and  C_31
                            x       y       z     vdW  Elec       q    Type
                         _______ _______ _______ _____ _____    ______ ____

>  <TORSDO>
F 17

$$$$
=
 OpenBabel11052416023D

 34 34  0  0  1  0  0  0  0  0999 V2000
  186.6490  177.5640  142.4290 C   0  0  1  0  0  3  0  0  0  0  0  0
  186.8270  176.6830  143.5030 O   0  0  0  0  0  1  0  0  0  0  0  0
  185.9290  179.8480  142.1030 O   0  0  0  0  0  1  0  0  0  0  0  0
  185.6340  178.6840  142.8170 C   0  0  2  0  0  0  0  0  0  0  0  0
  185.7400  178.9940  144.3170 C   0  0  0  0  0  2  0  0  0  0  0  0
  184.5610  178.6320  146.3600 O   0  0  0  0  0  1  0  0  0  0  0  0
  184.3980  179.0480  145.0380 C   0  0  0  0  0  2  0  0  0  0  0  0
  184.1720  178.3170  142.4920 C   0  0  0  0  0  2  0  0  0  0  0  0
  183.1180  177.9970  138.3200 C   0  0  0  0  0  0  0  0  0  0  0  0
  183.8390  179.1060  138.7670 C   0  0  0  0  0  3  0  0  0  0  0  0
  184.1730  179.2280  140.1160 C   0  0  0  0  0  3  0  0  0  0  0  0
  183.0730  177.1340  140.5890 C   0  0  0  0  0  3  0  0  0  0  0  0
  183.7650  178.2580  141.0430 C   0  0  0  0  0  0  0  0  0  0  0  0
  182.7450  177.0020  139.2370 C   0  0  0  0  0  3  0  0  0  0  0  0
  182.7870  177.9050  136.9650 O   0  0  0  0  0  0  0  0  0  0  0  0
  184.9060  177.0380  136.2720 C   0  0  0  0  0  1  0  0  0  0  0  0
  183.4110  176.9770  136.0860 C   0  0  0  0  0  2  0  0  0  0  0  0
  188.0330  177.9670  141.8410 C   0  0  2  0  0  0  0  0  0  0  0  0
  188.2850  179.3100  142.1400 O   0  0  0  0  0  1  0  0  0  0  0  0
  187.2370  178.6230  139.5000 N   0  0  0  0  0  1  0  0  0  0  0  0
  188.0670  177.8210  140.3370 C   0  0  0  0  0  0  0  0  0  0  0  0
  188.8590  176.9970  139.8080 O   0  0  0  0  0  0  0  0  0  0  0  0
  189.1390  177.1120  142.4780 C   0  0  0  0  0  2  0  0  0  0  0  0
  190.4450  177.8360  142.8510 C   0  0  1  0  0  3  0  0  0  0  0  0
  190.4840  178.1890  144.3450 C   0  0  2  0  0  3  0  0  0  0  0  0
  191.5370  179.0500  144.6070 F   0  0  0  0  0  0  0  0  0  0  0  0
  190.6290  176.9580  145.2430 C   0  0  1  0  0  3  0  0  0  0  0  0
  191.6830  177.1450  146.2300 N   0  0  0  0  0  2  0  0  0  0  0  0
  191.7600  176.0000  146.9490 O   0  0  0  0  0  1  0  0  0  0  0  0
  189.4220  176.6630  145.8830 O   0  0  0  0  0  0  0  0  0  0  0  0
  188.5860  177.9150  147.7070 C   0  0  0  0  0  1  0  0  0  0  0  0
  188.8960  177.9050  146.2360 C   0  0  0  0  0  2  0  0  0  0  0  0
  191.5640  177.0810  142.4900 O   0  0  0  0  0  0  0  0  0  0  0  0
  191.9320  177.5480  141.2280 C   0  0  0  0  0  1  0  0  0  0  0  0
  1  4  1  0  0  0  0
  1  2  1  1  0  0  0
  4  3  1  6  0  0  0
  4  5  1  0  0  0  0
  5  7  1  0  0  0  0
  7  6  1  0  0  0  0
  8  4  1  0  0  0  0
  9 10  2  0  0  0  0
  9 14  1  0  0  0  0
 10 11  1  0  0  0  0
 11 13  2  0  0  0  0
 12 13  1  0  0  0  0
 13  8  1  0  0  0  0
 14 12  2  0  0  0  0
 15  9  1  0  0  0  0
 17 16  1  0  0  0  0
 17 15  1  0  0  0  0
 18 19  1  1  0  0  0
 18  1  1  0  0  0  0
 18 23  1  0  0  0  0
 20 21  1  0  0  0  0
 21 18  1  0  0  0  0
 22 21  2  0  0  0  0
 24 23  1  1  0  0  0
 24 25  1  0  0  0  0
 25 26  1  6  0  0  0
 25 27  1  0  0  0  0
 27 30  1  1  0  0  0
 27 28  1  0  0  0  0
 28 29  1  0  0  0  0
 30 32  1  0  0  0  0
 32 31  1  0  0  0  0
 33 24  1  0  0  0  0
 34 33  1  0  0  0  0
M  END
>  <MODEL>
9

>  <REMARK>
 VINA RESULT:      -5.4      2.673      5.634
  Name = 
  17 active torsions:
  status: ('A' for Active; 'I' for Inactive)
    1  A    between atoms: C_1  and  C_18
    2  A    between atoms: C_1  and  C_20
    3  A    between atoms: C_2  and  C_25
    4  A    between atoms: C_2  and  C_32
    5  A    between atoms: O_3  and  C_24
    6  A    between atoms: O_3  and  C_25
    7  A    between atoms: C_5  and  C_20
    8  A    between atoms: C_5  and  C_32
    9  A    between atoms: C_6  and  C_18
   10  A    between atoms: C_6  and  C_28
   11  A    between atoms: C_7  and  O_11
   12  A    between atoms: O_11  and  C_21
   13  A    between atoms: C_12  and  C_20
   14  A    between atoms: C_18  and  C_30
   15  A    between atoms: O_19  and  C_32
   16  A    between atoms: C_25  and  N_27
   17  A    between atoms: C_30  and  C_31
                            x       y       z     vdW  Elec       q    Type
                         _______ _______ _______ _____ _____    ______ ____

>  <TORSDO>
F 17

$$$$
