=
 OpenBabel11052414113D

 34 39  0  0  1  0  0  0  0  0999 V2000
  184.9730  178.9490  139.5790 C   0  0  0  0  0  0  0  0  0  0  0  0
  185.3250  178.0210  141.8130 C   0  0  0  0  0  0  0  0  0  0  0  0
  187.2470  178.2420  140.2880 N   0  0  0  0  0  0  0  0  0  0  0  0
  190.7210  177.0310  140.5400 C   0  0  0  0  0  3  0  0  0  0  0  0
  183.0720  178.7900  141.1910 C   0  0  0  0  0  3  0  0  0  0  0  0
  183.8840  178.1950  142.0710 C   0  0  0  0  0  3  0  0  0  0  0  0
  188.7330  178.2780  142.3320 C   0  0  0  0  0  2  0  0  0  0  0  0
  185.8580  178.4010  140.6360 C   0  0  0  0  0  0  0  0  0  0  0  0
  190.3520  177.6440  144.1200 C   0  0  0  0  0  3  0  0  0  0  0  0
  190.9580  176.9910  141.8600 C   0  0  0  0  0  3  0  0  0  0  0  0
  183.5670  179.3680  139.8920 C   0  0  0  0  0  2  0  0  0  0  0  0
  187.6290  178.3180  138.9160 C   0  0  0  0  0  0  0  0  0  0  0  0
  185.4510  179.0980  138.3360 C   0  0  0  0  0  3  0  0  0  0  0  0
  186.0930  177.4200  142.8000 O   0  0  0  0  0  1  0  0  0  0  0  0
  189.5300  177.8150  140.0900 C   0  0  1  0  0  3  0  0  0  0  0  0
  189.0180  177.8410  138.6520 C   0  0  1  0  0  3  0  0  0  0  0  0
  190.0230  177.6350  142.8280 C   0  0  0  0  0  0  0  0  0  0  0  0
  188.3410  177.6170  141.0140 C   0  0  2  0  0  3  0  0  0  0  0  0
  186.7990  178.7200  138.0000 N   0  0  0  0  0  0  0  0  0  0  0  0
  188.9510  173.9560  136.7910 C   0  0  0  0  0  3  0  0  0  0  0  0
  190.1650  174.4780  137.2450 C   0  0  0  0  0  0  0  0  0  0  0  0
  189.0200  176.4800  138.0090 C   0  0  0  0  0  0  0  0  0  0  0  0
  187.7730  174.6920  136.9440 C   0  0  0  0  0  3  0  0  0  0  0  0
  190.2010  175.7360  137.8520 C   0  0  0  0  0  3  0  0  0  0  0  0
  187.8080  175.9510  137.5500 C   0  0  0  0  0  3  0  0  0  0  0  0
  191.3070  173.7640  137.0970 F   0  0  0  0  0  0  0  0  0  0  0  0
  189.5060  178.2700  145.1870 C   0  0  0  0  0  2  0  0  0  0  0  0
  186.4360  177.3300  145.8020 O   0  0  0  0  0  0  0  0  0  0  0  0
  188.7880  177.2120  146.0210 C   0  0  2  0  0  3  0  0  0  0  0  0
  187.4190  177.6810  146.4330 C   0  0  0  0  0  0  0  0  0  0  0  0
  188.1240  178.1770  148.7580 C   0  0  0  0  0  2  0  0  0  0  0  0
  189.5680  177.9460  148.3210 C   0  0  0  0  0  2  0  0  0  0  0  0
  189.6220  176.8490  147.2540 C   0  0  0  0  0  2  0  0  0  0  0  0
  187.2740  178.6400  147.5770 C   0  0  0  0  0  2  0  0  0  0  0  0
  1 11  1  0  0  0  0
  1  8  1  0  0  0  0
  2  6  1  0  0  0  0
  2 14  1  0  0  0  0
  3  8  1  0  0  0  0
  3 18  1  0  0  0  0
  4 10  2  0  0  0  0
  5  6  2  0  0  0  0
  7 17  1  0  0  0  0
  8  2  2  0  0  0  0
  9 27  1  0  0  0  0
 10 17  1  0  0  0  0
 11  5  1  0  0  0  0
 12  3  1  0  0  0  0
 13  1  2  0  0  0  0
 15  4  1  6  0  0  0
 15 18  1  0  0  0  0
 16 22  1  1  0  0  0
 16 12  1  0  0  0  0
 16 15  1  0  0  0  0
 17  9  2  0  0  0  0
 18  7  1  1  0  0  0
 19 13  1  0  0  0  0
 19 12  2  0  0  0  0
 20 23  2  0  0  0  0
 20 21  1  0  0  0  0
 21 24  2  0  0  0  0
 23 25  1  0  0  0  0
 24 22  1  0  0  0  0
 25 22  2  0  0  0  0
 26 21  1  0  0  0  0
 28 30  2  0  0  0  0
 29 27  1  1  0  0  0
 29 30  1  0  0  0  0
 29 33  1  0  0  0  0
 30 34  1  0  0  0  0
 32 31  1  0  0  0  0
 33 32  1  0  0  0  0
 34 31  1  0  0  0  0
M  END
>  <MODEL>
1

>  <REMARK>
 VINA RESULT:      -9.7      0.000      0.000
  Name = 
  3 active torsions:
  status: ('A' for Active; 'I' for Inactive)
    1  A    between atoms: C_3  and  C_13
    2  A    between atoms: C_3  and  C_17
    3  A    between atoms: C_12  and  C_28
                            x       y       z     vdW  Elec       q    Type
                         _______ _______ _______ _____ _____    ______ ____

>  <TORSDO>
F 3

$$$$
=
 OpenBabel11052414113D

 34 39  0  0  1  0  0  0  0  0999 V2000
  183.7560  177.1900  137.1910 C   0  0  0  0  0  0  0  0  0  0  0  0
  185.6300  178.2570  138.3440 C   0  0  0  0  0  0  0  0  0  0  0  0
  183.5230  177.8870  139.5650 N   0  0  0  0  0  0  0  0  0  0  0  0
  182.3860  179.0270  142.8820 C   0  0  0  0  0  3  0  0  0  0  0  0
  185.9410  177.5030  136.0220 C   0  0  0  0  0  3  0  0  0  0  0  0
  186.4130  178.1360  137.1000 C   0  0  0  0  0  3  0  0  0  0  0  0
  184.8700  177.9530  141.7020 C   0  0  0  0  0  2  0  0  0  0  0  0
  184.3690  177.7850  138.4040 C   0  0  0  0  0  0  0  0  0  0  0  0
  185.8840  178.6650  143.8670 C   0  0  0  0  0  3  0  0  0  0  0  0
  183.5190  179.1500  143.5920 C   0  0  0  0  0  3  0  0  0  0  0  0
  184.5960  176.8280  136.0020 C   0  0  0  0  0  2  0  0  0  0  0  0
  182.1160  177.7100  139.4120 C   0  0  0  0  0  0  0  0  0  0  0  0
  182.4390  176.9460  137.1750 C   0  0  0  0  0  3  0  0  0  0  0  0
  186.2180  178.9050  139.4220 O   0  0  0  0  0  1  0  0  0  0  0  0
  182.4650  178.2440  141.6120 C   0  0  1  0  0  3  0  0  0  0  0  0
  181.3240  178.1340  140.6040 C   0  0  1  0  0  3  0  0  0  0  0  0
  184.8080  178.5950  143.0830 C   0  0  0  0  0  0  0  0  0  0  0  0
  183.7470  178.5320  140.8480 C   0  0  2  0  0  3  0  0  0  0  0  0
  181.6020  177.2670  138.3030 N   0  0  0  0  0  0  0  0  0  0  0  0
  179.3020  181.8870  139.9860 C   0  0  0  0  0  3  0  0  0  0  0  0
  180.3320  181.5130  139.1200 C   0  0  0  0  0  0  0  0  0  0  0  0
  180.6300  179.4480  140.3650 C   0  0  0  0  0  0  0  0  0  0  0  0
  178.9350  181.0470  141.0400 C   0  0  0  0  0  3  0  0  0  0  0  0
  180.9960  180.2980  139.3070 C   0  0  0  0  0  3  0  0  0  0  0  0
  179.5990  179.8310  141.2290 C   0  0  0  0  0  3  0  0  0  0  0  0
  180.6880  182.3280  138.0980 F   0  0  0  0  0  0  0  0  0  0  0  0
  187.2290  178.1340  143.4770 C   0  0  0  0  0  2  0  0  0  0  0  0
  187.7540  177.5720  146.6540 O   0  0  0  0  0  0  0  0  0  0  0  0
  187.6480  176.9680  144.3700 C   0  0  2  0  0  3  0  0  0  0  0  0
  188.3600  177.4570  145.6030 C   0  0  0  0  0  0  0  0  0  0  0  0
  190.5980  176.8230  144.7430 C   0  0  0  0  0  2  0  0  0  0  0  0
  189.9490  176.5450  143.3900 C   0  0  0  0  0  2  0  0  0  0  0  0
  188.5360  175.9930  143.5910 C   0  0  0  0  0  2  0  0  0  0  0  0
  189.8000  177.8700  145.5160 C   0  0  0  0  0  2  0  0  0  0  0  0
  1  8  1  0  0  0  0
  2  8  2  0  0  0  0
  2 14  1  0  0  0  0
  3 18  1  0  0  0  0
  4 10  2  0  0  0  0
  5  6  2  0  0  0  0
  6  2  1  0  0  0  0
  7 17  1  0  0  0  0
  8  3  1  0  0  0  0
 11  5  1  0  0  0  0
 11  1  1  0  0  0  0
 12  3  1  0  0  0  0
 12 16  1  0  0  0  0
 13  1  2  0  0  0  0
 13 19  1  0  0  0  0
 15  4  1  1  0  0  0
 16 22  1  6  0  0  0
 16 15  1  0  0  0  0
 17 10  1  0  0  0  0
 17  9  2  0  0  0  0
 18 15  1  0  0  0  0
 18  7  1  1  0  0  0
 19 12  2  0  0  0  0
 20 23  1  0  0  0  0
 21 24  1  0  0  0  0
 21 20  2  0  0  0  0
 22 25  1  0  0  0  0
 23 25  2  0  0  0  0
 24 22  2  0  0  0  0
 26 21  1  0  0  0  0
 27  9  1  0  0  0  0
 29 27  1  6  0  0  0
 29 30  1  0  0  0  0
 30 28  2  0  0  0  0
 31 34  1  0  0  0  0
 32 33  1  0  0  0  0
 32 31  1  0  0  0  0
 33 29  1  0  0  0  0
 34 30  1  0  0  0  0
M  END
>  <MODEL>
2

>  <REMARK>
 VINA RESULT:      -9.5      3.542      6.834
  Name = 
  3 active torsions:
  status: ('A' for Active; 'I' for Inactive)
    1  A    between atoms: C_3  and  C_13
    2  A    between atoms: C_3  and  C_17
    3  A    between atoms: C_12  and  C_28
                            x       y       z     vdW  Elec       q    Type
                         _______ _______ _______ _____ _____    ______ ____

>  <TORSDO>
F 3

$$$$
=
 OpenBabel11052414113D

 34 39  0  0  1  0  0  0  0  0999 V2000
  184.7910  178.6990  144.7040 C   0  0  0  0  0  0  0  0  0  0  0  0
  186.7440  177.5310  143.8110 C   0  0  0  0  0  0  0  0  0  0  0  0
  185.1410  178.5600  142.2480 N   0  0  0  0  0  0  0  0  0  0  0  0
  184.8390  178.3700  138.5780 C   0  0  0  0  0  3  0  0  0  0  0  0
  186.4900  177.7200  146.2510 C   0  0  0  0  0  3  0  0  0  0  0  0
  187.1540  177.2370  145.1960 C   0  0  0  0  0  3  0  0  0  0  0  0
  187.0140  178.6570  140.5540 C   0  0  0  0  0  2  0  0  0  0  0  0
  185.6310  178.2500  143.5670 C   0  0  1  0  0  3  0  0  0  0  0  0
  188.4860  178.2080  138.5920 C   0  0  0  0  0  3  0  0  0  0  0  0
  186.0960  178.1670  138.1560 C   0  0  0  0  0  3  0  0  0  0  0  0
  185.3040  178.6350  146.1130 C   0  0  0  0  0  3  0  0  0  0  0  0
  183.7880  178.9830  142.0960 C   0  0  0  0  0  0  0  0  0  0  0  0
  183.5700  179.1960  144.4610 C   0  0  0  0  0  3  0  0  0  0  0  0
  187.5150  177.0100  142.7810 O   0  0  0  0  0  1  0  0  0  0  0  0
  184.6650  178.8470  139.9840 C   0  0  1  0  0  3  0  0  0  0  0  0
  183.3130  178.9790  140.6810 C   0  0  1  0  0  3  0  0  0  0  0  0
  187.2540  178.3340  139.0830 C   0  0  0  0  0  0  0  0  0  0  0  0
  185.6250  178.1560  140.9380 C   0  0  2  0  0  3  0  0  0  0  0  0
  183.0500  179.2870  143.1220 N   0  0  0  0  0  0  0  0  0  0  0  0
  180.7670  175.5970  139.8830 C   0  0  0  0  0  3  0  0  0  0  0  0
  180.2350  176.7190  140.5230 C   0  0  0  0  0  0  0  0  0  0  0  0
  182.4020  177.8110  140.4090 C   0  0  0  0  0  0  0  0  0  0  0  0
  182.1120  175.5780  139.5060 C   0  0  0  0  0  3  0  0  0  0  0  0
  181.0490  177.8240  140.7870 C   0  0  0  0  0  3  0  0  0  0  0  0
  182.9280  176.6830  139.7700 C   0  0  0  0  0  3  0  0  0  0  0  0
  178.9310  176.7370  140.8880 F   0  0  0  0  0  0  0  0  0  0  0  0
  189.7280  178.3660  139.4150 C   0  0  0  0  0  2  0  0  0  0  0  0
  191.6350  177.1480  141.7730 O   0  0  0  0  0  0  0  0  0  0  0  0
  190.2990  177.0120  139.8260 C   0  0  2  0  0  3  0  0  0  0  0  0
  191.6070  177.1730  140.5550 C   0  0  0  0  0  0  0  0  0  0  0  0
  192.9570  176.4770  138.5950 C   0  0  0  0  0  2  0  0  0  0  0  0
  191.6840  176.5380  137.7540 C   0  0  0  0  0  2  0  0  0  0  0  0
  190.4790  176.1140  138.5980 C   0  0  0  0  0  2  0  0  0  0  0  0
  192.8640  177.4350  139.7800 C   0  0  0  0  0  2  0  0  0  0  0  0
  1 11  1  0  0  0  0
  2  6  2  0  0  0  0
  3  8  1  0  0  0  0
  6  5  1  0  0  0  0
  8  2  1  6  0  0  0
  8  1  1  0  0  0  0
  9 17  2  0  0  0  0
  9 27  1  0  0  0  0
 10  4  2  0  0  0  0
 10 17  1  0  0  0  0
 11  5  2  0  0  0  0
 12  3  1  0  0  0  0
 12 19  2  0  0  0  0
 13  1  2  0  0  0  0
 14  2  1  0  0  0  0
 15  4  1  6  0  0  0
 15 16  1  0  0  0  0
 15 18  1  0  0  0  0
 16 22  1  1  0  0  0
 16 12  1  0  0  0  0
 17  7  1  0  0  0  0
 18  7  1  6  0  0  0
 18  3  1  0  0  0  0
 19 13  1  0  0  0  0
 20 21  1  0  0  0  0
 21 24  2  0  0  0  0
 21 26  1  0  0  0  0
 22 24  1  0  0  0  0
 23 25  1  0  0  0  0
 23 20  2  0  0  0  0
 25 22  2  0  0  0  0
 29 27  1  6  0  0  0
 29 30  1  0  0  0  0
 30 28  2  0  0  0  0
 31 34  1  0  0  0  0
 32 31  1  0  0  0  0
 32 33  1  0  0  0  0
 33 29  1  0  0  0  0
 34 30  1  0  0  0  0
M  END
>  <MODEL>
3

>  <REMARK>
 VINA RESULT:      -9.4      3.261      6.960
  Name = 
  3 active torsions:
  status: ('A' for Active; 'I' for Inactive)
    1  A    between atoms: C_3  and  C_13
    2  A    between atoms: C_3  and  C_17
    3  A    between atoms: C_12  and  C_28
                            x       y       z     vdW  Elec       q    Type
                         _______ _______ _______ _____ _____    ______ ____

>  <TORSDO>
F 3

$$$$
=
 OpenBabel11052414113D

 34 39  0  0  1  0  0  0  0  0999 V2000
  185.5600  176.8820  137.2060 C   0  0  0  0  0  0  0  0  0  0  0  0
  186.5260  178.3000  138.9480 C   0  0  0  0  0  0  0  0  0  0  0  0
  184.1600  177.6350  139.1160 N   0  0  0  0  0  0  0  0  0  0  0  0
  181.4730  178.7130  141.3990 C   0  0  0  0  0  3  0  0  0  0  0  0
  187.9760  177.5070  137.1260 C   0  0  0  0  0  3  0  0  0  0  0  0
  187.8060  178.2570  138.2180 C   0  0  0  0  0  3  0  0  0  0  0  0
  184.3350  178.0220  141.6070 C   0  0  0  0  0  2  0  0  0  0  0  0
  185.4550  177.6260  138.4850 C   0  0  0  0  0  0  0  0  0  0  0  0
  184.1220  178.9910  143.8960 C   0  0  0  0  0  3  0  0  0  0  0  0
  182.1170  179.0580  142.5250 C   0  0  0  0  0  3  0  0  0  0  0  0
  186.8960  176.6140  136.5790 C   0  0  0  0  0  2  0  0  0  0  0  0
  183.0220  177.2160  138.3640 C   0  0  0  0  0  0  0  0  0  0  0  0
  184.4450  176.4190  136.6240 C   0  0  0  0  0  3  0  0  0  0  0  0
  186.4550  179.0850  140.0910 O   0  0  0  0  0  1  0  0  0  0  0  0
  182.2340  177.8990  140.4040 C   0  0  1  0  0  3  0  0  0  0  0  0
  181.7190  177.5540  139.0090 C   0  0  1  0  0  3  0  0  0  0  0  0
  183.5540  178.7060  142.7240 C   0  0  0  0  0  0  0  0  0  0  0  0
  183.6750  178.3650  140.2750 C   0  0  2  0  0  3  0  0  0  0  0  0
  183.1460  176.6440  137.2040 N   0  0  0  0  0  0  0  0  0  0  0  0
  179.7510  180.8510  137.0550 C   0  0  0  0  0  3  0  0  0  0  0  0
  181.0070  181.0480  137.6350 C   0  0  0  0  0  0  0  0  0  0  0  0
  181.0540  178.7200  138.3290 C   0  0  0  0  0  0  0  0  0  0  0  0
  179.1460  179.5930  137.1110 C   0  0  0  0  0  3  0  0  0  0  0  0
  181.6580  179.9870  138.2700 C   0  0  0  0  0  3  0  0  0  0  0  0
  179.7960  178.5310  137.7470 C   0  0  0  0  0  3  0  0  0  0  0  0
  181.5940  182.2680  137.5810 F   0  0  0  0  0  0  0  0  0  0  0  0
  185.5500  178.6770  144.2230 C   0  0  0  0  0  2  0  0  0  0  0  0
  184.5630  178.2440  147.3090 O   0  0  0  0  0  0  0  0  0  0  0  0
  185.6500  177.6070  145.3080 C   0  0  2  0  0  3  0  0  0  0  0  0
  185.6080  178.2210  146.6820 C   0  0  0  0  0  0  0  0  0  0  0  0
  188.0490  177.9610  147.0360 C   0  0  0  0  0  2  0  0  0  0  0  0
  188.1740  177.5650  145.5680 C   0  0  0  0  0  2  0  0  0  0  0  0
  186.9310  176.7860  145.1290 C   0  0  0  0  0  2  0  0  0  0  0  0
  186.8380  178.8670  147.2460 C   0  0  0  0  0  2  0  0  0  0  0  0
  1  8  1  0  0  0  0
  2 14  1  0  0  0  0
  3 18  1  0  0  0  0
  4 10  2  0  0  0  0
  5  6  2  0  0  0  0
  6  2  1  0  0  0  0
  7 17  1  0  0  0  0
  8  2  2  0  0  0  0
  8  3  1  0  0  0  0
  9 27  1  0  0  0  0
 10 17  1  0  0  0  0
 11  5  1  0  0  0  0
 11  1  1  0  0  0  0
 12 16  1  0  0  0  0
 12  3  1  0  0  0  0
 13 19  1  0  0  0  0
 13  1  2  0  0  0  0
 15  4  1  6  0  0  0
 16 22  1  6  0  0  0
 16 15  1  0  0  0  0
 17  9  2  0  0  0  0
 18 15  1  0  0  0  0
 18  7  1  1  0  0  0
 19 12  2  0  0  0  0
 20 23  2  0  0  0  0
 20 21  1  0  0  0  0
 21 24  2  0  0  0  0
 23 25  1  0  0  0  0
 24 22  1  0  0  0  0
 25 22  2  0  0  0  0
 26 21  1  0  0  0  0
 29 27  1  6  0  0  0
 29 30  1  0  0  0  0
 30 34  1  0  0  0  0
 30 28  2  0  0  0  0
 31 34  1  0  0  0  0
 32 31  1  0  0  0  0
 33 29  1  0  0  0  0
 33 32  1  0  0  0  0
M  END
>  <MODEL>
4

>  <REMARK>
 VINA RESULT:      -8.7      3.374      6.472
  Name = 
  3 active torsions:
  status: ('A' for Active; 'I' for Inactive)
    1  A    between atoms: C_3  and  C_13
    2  A    between atoms: C_3  and  C_17
    3  A    between atoms: C_12  and  C_28
                            x       y       z     vdW  Elec       q    Type
                         _______ _______ _______ _____ _____    ______ ____

>  <TORSDO>
F 3

$$$$
=
 OpenBabel11052414113D

 34 39  0  0  1  0  0  0  0  0999 V2000
  184.8950  178.9930  140.8740 C   0  0  0  0  0  0  0  0  0  0  0  0
  186.0910  177.8770  142.6910 C   0  0  0  0  0  0  0  0  0  0  0  0
  187.2730  178.3330  140.5780 N   0  0  0  0  0  0  0  0  0  0  0  0
  190.5830  177.2720  139.3500 C   0  0  0  0  0  3  0  0  0  0  0  0
  183.7660  178.5920  143.0650 C   0  0  0  0  0  3  0  0  0  0  0  0
  184.8590  177.9570  143.4980 C   0  0  0  0  0  3  0  0  0  0  0  0
  189.4320  178.2470  141.8880 C   0  0  0  0  0  2  0  0  0  0  0  0
  186.1240  178.3920  141.4470 C   0  0  1  0  0  3  0  0  0  0  0  0
  191.6220  177.5270  142.8410 C   0  0  0  0  0  3  0  0  0  0  0  0
  191.3130  177.1190  140.4660 C   0  0  0  0  0  3  0  0  0  0  0  0
  183.7160  179.3130  141.7450 C   0  0  0  0  0  3  0  0  0  0  0  0
  187.0940  178.5560  139.1810 C   0  0  0  0  0  0  0  0  0  0  0  0
  184.8550  179.2820  139.5660 C   0  0  0  0  0  3  0  0  0  0  0  0
  187.1860  177.2230  143.2390 O   0  0  0  0  0  1  0  0  0  0  0  0
  189.3050  178.0370  139.4760 C   0  0  1  0  0  3  0  0  0  0  0  0
  188.2770  178.1730  138.3560 C   0  0  1  0  0  3  0  0  0  0  0  0
  190.8190  177.6230  141.7810 C   0  0  0  0  0  0  0  0  0  0  0  0
  188.5670  177.6960  140.7590 C   0  0  2  0  0  3  0  0  0  0  0  0
  185.9720  179.0030  138.7010 N   0  0  0  0  0  0  0  0  0  0  0  0
  187.6780  174.4670  136.2430 C   0  0  0  0  0  3  0  0  0  0  0  0
  186.6010  175.0600  136.9070 C   0  0  0  0  0  0  0  0  0  0  0  0
  188.0420  176.8810  137.6210 C   0  0  0  0  0  0  0  0  0  0  0  0
  188.9350  175.0770  136.2680 C   0  0  0  0  0  3  0  0  0  0  0  0
  186.7800  176.2630  137.5950 C   0  0  0  0  0  3  0  0  0  0  0  0
  189.1160  176.2800  136.9560 C   0  0  0  0  0  3  0  0  0  0  0  0
  185.3820  174.4690  136.8830 F   0  0  0  0  0  0  0  0  0  0  0  0
  191.2480  178.0070  144.2100 C   0  0  0  0  0  2  0  0  0  0  0  0
  188.5630  178.0550  146.0740 O   0  0  0  0  0  0  0  0  0  0  0  0
  190.3450  177.0060  144.9250 C   0  0  2  0  0  3  0  0  0  0  0  0
  189.7020  177.6240  146.1380 C   0  0  0  0  0  0  0  0  0  0  0  0
  191.2260  176.4710  147.7180 C   0  0  0  0  0  2  0  0  0  0  0  0
  192.0560  176.0210  146.5190 C   0  0  0  0  0  2  0  0  0  0  0  0
  191.1410  175.7580  145.3200 C   0  0  0  0  0  2  0  0  0  0  0  0
  190.4910  177.7720  147.4050 C   0  0  0  0  0  2  0  0  0  0  0  0
  1 11  1  0  0  0  0
  2 14  1  0  0  0  0
  2  6  2  0  0  0  0
  3 18  1  0  0  0  0
  3  8  1  0  0  0  0
  4 10  2  0  0  0  0
  5  6  1  0  0  0  0
  8  1  1  6  0  0  0
  8  2  1  0  0  0  0
  9 27  1  0  0  0  0
 10 17  1  0  0  0  0
 11  5  2  0  0  0  0
 12  3  1  0  0  0  0
 13  1  2  0  0  0  0
 15  4  1  6  0  0  0
 15 18  1  0  0  0  0
 16 22  1  1  0  0  0
 16 12  1  0  0  0  0
 16 15  1  0  0  0  0
 17  7  1  0  0  0  0
 17  9  2  0  0  0  0
 18  7  1  1  0  0  0
 19 12  2  0  0  0  0
 19 13  1  0  0  0  0
 20 23  2  0  0  0  0
 20 21  1  0  0  0  0
 21 24  2  0  0  0  0
 23 25  1  0  0  0  0
 24 22  1  0  0  0  0
 25 22  2  0  0  0  0
 26 21  1  0  0  0  0
 28 30  2  0  0  0  0
 29 27  1  1  0  0  0
 29 33  1  0  0  0  0
 29 30  1  0  0  0  0
 30 34  1  0  0  0  0
 32 31  1  0  0  0  0
 33 32  1  0  0  0  0
 34 31  1  0  0  0  0
M  END
>  <MODEL>
5

>  <REMARK>
 VINA RESULT:      -8.3      1.661      2.181
  Name = 
  3 active torsions:
  status: ('A' for Active; 'I' for Inactive)
    1  A    between atoms: C_3  and  C_13
    2  A    between atoms: C_3  and  C_17
    3  A    between atoms: C_12  and  C_28
                            x       y       z     vdW  Elec       q    Type
                         _______ _______ _______ _____ _____    ______ ____

>  <TORSDO>
F 3

$$$$
=
 OpenBabel11052414113D

 34 39  0  0  1  0  0  0  0  0999 V2000
  184.2190  178.9360  144.1710 C   0  0  0  0  0  0  0  0  0  0  0  0
  186.2130  177.5450  144.4190 C   0  0  0  0  0  0  0  0  0  0  0  0
  185.6920  178.5140  142.2150 N   0  0  0  0  0  0  0  0  0  0  0  0
  187.1790  177.9620  138.8870 C   0  0  0  0  0  3  0  0  0  0  0  0
  184.8370  178.0070  146.4050 C   0  0  0  0  0  3  0  0  0  0  0  0
  185.8670  177.3690  145.8410 C   0  0  0  0  0  3  0  0  0  0  0  0
  188.1470  178.2990  141.6550 C   0  0  0  0  0  2  0  0  0  0  0  0
  185.4460  178.3110  143.6200 C   0  0  1  0  0  3  0  0  0  0  0  0
  190.3220  177.5430  140.6970 C   0  0  0  0  0  3  0  0  0  0  0  0
  188.4520  177.6260  139.1480 C   0  0  0  0  0  3  0  0  0  0  0  0
  183.9770  178.9850  145.6510 C   0  0  0  0  0  3  0  0  0  0  0  0
  184.6390  179.0150  141.3940 C   0  0  0  0  0  0  0  0  0  0  0  0
  183.3320  179.4910  143.3330 C   0  0  0  0  0  3  0  0  0  0  0  0
  187.3210  176.8640  143.9310 O   0  0  0  0  0  1  0  0  0  0  0  0
  186.4040  178.5950  139.9970 C   0  0  1  0  0  3  0  0  0  0  0  0
  184.9090  178.8950  139.9320 C   0  0  1  0  0  3  0  0  0  0  0  0
  189.0280  177.8070  140.5130 C   0  0  0  0  0  0  0  0  0  0  0  0
  186.6990  177.9420  141.3360 C   0  0  2  0  0  3  0  0  0  0  0  0
  183.5370  179.4770  141.9070 N   0  0  0  0  0  0  0  0  0  0  0  0
  182.6840  175.6900  138.1060 C   0  0  0  0  0  3  0  0  0  0  0  0
  182.4510  176.0100  139.4450 C   0  0  0  0  0  0  0  0  0  0  0  0
  184.1160  177.7740  139.3150 C   0  0  0  0  0  0  0  0  0  0  0  0
  183.6310  176.4080  137.3700 C   0  0  0  0  0  3  0  0  0  0  0  0
  183.1640  177.0480  140.0500 C   0  0  0  0  0  3  0  0  0  0  0  0
  184.3450  177.4470  137.9740 C   0  0  0  0  0  3  0  0  0  0  0  0
  181.5330  175.3140  140.1580 F   0  0  0  0  0  0  0  0  0  0  0  0
  191.0210  177.6970  142.0130 C   0  0  0  0  0  2  0  0  0  0  0  0
  189.7330  178.6810  144.8510 O   0  0  0  0  0  0  0  0  0  0  0  0
  190.1990  177.1030  143.1540 C   0  0  2  0  0  3  0  0  0  0  0  0
  190.4830  177.8070  144.4530 C   0  0  0  0  0  0  0  0  0  0  0  0
  191.9050  175.9660  145.3130 C   0  0  0  0  0  2  0  0  0  0  0  0
  191.8450  175.3330  143.9260 C   0  0  0  0  0  2  0  0  0  0  0  0
  190.4800  175.6020  143.2870 C   0  0  0  0  0  2  0  0  0  0  0  0
  191.7300  177.4800  145.2200 C   0  0  0  0  0  2  0  0  0  0  0  0
  1 11  1  0  0  0  0
  2  6  2  0  0  0  0
  3  8  1  0  0  0  0
  4 10  2  0  0  0  0
  6  5  1  0  0  0  0
  8  1  1  6  0  0  0
  8  2  1  0  0  0  0
  9 27  1  0  0  0  0
 10 17  1  0  0  0  0
 11  5  2  0  0  0  0
 12 19  2  0  0  0  0
 12  3  1  0  0  0  0
 13  1  2  0  0  0  0
 14  2  1  0  0  0  0
 15  4  1  6  0  0  0
 15 18  1  0  0  0  0
 16 22  1  1  0  0  0
 16 15  1  0  0  0  0
 16 12  1  0  0  0  0
 17  9  2  0  0  0  0
 17  7  1  0  0  0  0
 18  7  1  1  0  0  0
 18  3  1  0  0  0  0
 19 13  1  0  0  0  0
 20 21  1  0  0  0  0
 21 24  2  0  0  0  0
 21 26  1  0  0  0  0
 22 24  1  0  0  0  0
 23 25  1  0  0  0  0
 23 20  2  0  0  0  0
 25 22  2  0  0  0  0
 29 27  1  6  0  0  0
 29 33  1  0  0  0  0
 29 30  1  0  0  0  0
 30 28  2  0  0  0  0
 30 34  1  0  0  0  0
 32 31  1  0  0  0  0
 33 32  1  0  0  0  0
 34 31  1  0  0  0  0
M  END
>  <MODEL>
6

>  <REMARK>
 VINA RESULT:      -8.0      2.857      4.783
  Name = 
  3 active torsions:
  status: ('A' for Active; 'I' for Inactive)
    1  A    between atoms: C_3  and  C_13
    2  A    between atoms: C_3  and  C_17
    3  A    between atoms: C_12  and  C_28
                            x       y       z     vdW  Elec       q    Type
                         _______ _______ _______ _____ _____    ______ ____

>  <TORSDO>
F 3

$$$$
=
 OpenBabel11052414113D

 34 39  0  0  1  0  0  0  0  0999 V2000
  182.3940  179.1500  142.4420 C   0  0  0  0  0  0  0  0  0  0  0  0
  184.5040  178.1650  143.1880 C   0  0  0  0  0  0  0  0  0  0  0  0
  184.1740  178.6240  140.7900 N   0  0  0  0  0  0  0  0  0  0  0  0
  186.1810  177.7250  137.8300 C   0  0  0  0  0  3  0  0  0  0  0  0
  182.8080  178.7510  144.8720 C   0  0  0  0  0  3  0  0  0  0  0  0
  183.9850  178.1960  144.5680 C   0  0  0  0  0  3  0  0  0  0  0  0
  186.6900  178.7090  140.5670 C   0  0  0  0  0  2  0  0  0  0  0  0
  183.7610  178.6410  142.1700 C   0  0  1  0  0  3  0  0  0  0  0  0
  189.0620  178.1510  140.0320 C   0  0  0  0  0  3  0  0  0  0  0  0
  187.4370  177.6510  138.2960 C   0  0  0  0  0  3  0  0  0  0  0  0
  181.9400  179.4260  143.8440 C   0  0  0  0  0  3  0  0  0  0  0  0
  183.1900  178.7920  139.7710 C   0  0  0  0  0  0  0  0  0  0  0  0
  181.5690  179.3940  141.4140 C   0  0  0  0  0  3  0  0  0  0  0  0
  185.7510  177.5950  142.9750 O   0  0  0  0  0  1  0  0  0  0  0  0
  185.1770  178.4150  138.6950 C   0  0  1  0  0  3  0  0  0  0  0  0
  183.6800  178.4550  138.4020 C   0  0  1  0  0  3  0  0  0  0  0  0
  187.7840  178.1660  139.6530 C   0  0  0  0  0  0  0  0  0  0  0  0
  185.3640  178.0710  140.1630 C   0  0  2  0  0  3  0  0  0  0  0  0
  181.9740  179.1560  140.0530 N   0  0  0  0  0  0  0  0  0  0  0  0
  182.1190  174.6420  137.1420 C   0  0  0  0  0  3  0  0  0  0  0  0
  182.5440  175.5610  136.1790 C   0  0  0  0  0  0  0  0  0  0  0  0
  183.1420  177.1280  137.9370 C   0  0  0  0  0  0  0  0  0  0  0  0
  182.2040  174.9630  138.4990 C   0  0  0  0  0  3  0  0  0  0  0  0
  183.0540  176.8010  136.5740 C   0  0  0  0  0  3  0  0  0  0  0  0
  182.7130  176.2030  138.8950 C   0  0  0  0  0  3  0  0  0  0  0  0
  182.4630  175.2510  134.8630 F   0  0  0  0  0  0  0  0  0  0  0  0
  189.5390  178.6510  141.3610 C   0  0  0  0  0  2  0  0  0  0  0  0
  188.5070  175.9070  142.8070 O   0  0  0  0  0  0  0  0  0  0  0  0
  190.1260  177.5210  142.2040 C   0  0  2  0  0  3  0  0  0  0  0  0
  189.0880  176.9310  143.1200 C   0  0  0  0  0  0  0  0  0  0  0  0
  189.9830  178.0870  145.1230 C   0  0  0  0  0  2  0  0  0  0  0  0
  190.8910  178.8920  144.1970 C   0  0  0  0  0  2  0  0  0  0  0  0
  191.3260  178.0270  143.0110 C   0  0  0  0  0  2  0  0  0  0  0  0
  188.7210  177.6460  144.3870 C   0  0  0  0  0  2  0  0  0  0  0  0
  1 11  1  0  0  0  0
  2  6  2  0  0  0  0
  3  8  1  0  0  0  0
  4 10  2  0  0  0  0
  6  5  1  0  0  0  0
  8  1  1  6  0  0  0
  8  2  1  0  0  0  0
  9 27  1  0  0  0  0
 10 17  1  0  0  0  0
 11  5  2  0  0  0  0
 12 19  2  0  0  0  0
 12  3  1  0  0  0  0
 13  1  2  0  0  0  0
 14  2  1  0  0  0  0
 15  4  1  6  0  0  0
 15 18  1  0  0  0  0
 16 22  1  1  0  0  0
 16 15  1  0  0  0  0
 16 12  1  0  0  0  0
 17  9  2  0  0  0  0
 17  7  1  0  0  0  0
 18  7  1  1  0  0  0
 18  3  1  0  0  0  0
 19 13  1  0  0  0  0
 20 23  1  0  0  0  0
 21 24  1  0  0  0  0
 21 20  2  0  0  0  0
 22 25  1  0  0  0  0
 23 25  2  0  0  0  0
 24 22  2  0  0  0  0
 26 21  1  0  0  0  0
 28 30  2  0  0  0  0
 29 27  1  1  0  0  0
 29 33  1  0  0  0  0
 29 30  1  0  0  0  0
 30 34  1  0  0  0  0
 32 31  1  0  0  0  0
 33 32  1  0  0  0  0
 34 31  1  0  0  0  0
M  END
>  <MODEL>
7

>  <REMARK>
 VINA RESULT:      -7.8      2.952      4.780
  Name = 
  3 active torsions:
  status: ('A' for Active; 'I' for Inactive)
    1  A    between atoms: C_3  and  C_13
    2  A    between atoms: C_3  and  C_17
    3  A    between atoms: C_12  and  C_28
                            x       y       z     vdW  Elec       q    Type
                         _______ _______ _______ _____ _____    ______ ____

>  <TORSDO>
F 3

$$$$
=
 OpenBabel11052414113D

 34 39  0  0  1  0  0  0  0  0999 V2000
  192.2810  176.9350  139.1600 C   0  0  0  0  0  0  0  0  0  0  0  0
  189.9540  176.2530  138.8490 C   0  0  0  0  0  0  0  0  0  0  0  0
  190.5840  177.4730  140.8940 N   0  0  0  0  0  0  0  0  0  0  0  0
  188.7060  178.2070  143.9810 C   0  0  0  0  0  3  0  0  0  0  0  0
  191.5780  175.7760  137.0630 C   0  0  0  0  0  3  0  0  0  0  0  0
  190.3420  175.6550  137.5580 C   0  0  0  0  0  3  0  0  0  0  0  0
  188.1720  178.2040  141.0770 C   0  0  0  0  0  2  0  0  0  0  0  0
  190.8680  176.8870  139.6090 C   0  0  0  0  0  0  0  0  0  0  0  0
  185.7930  178.4370  141.7910 C   0  0  0  0  0  3  0  0  0  0  0  0
  187.4250  178.2550  143.5820 C   0  0  0  0  0  3  0  0  0  0  0  0
  192.6560  176.5640  137.7560 C   0  0  0  0  0  2  0  0  0  0  0  0
  191.6680  177.7750  141.7700 C   0  0  0  0  0  0  0  0  0  0  0  0
  193.2270  177.3450  140.0160 C   0  0  0  0  0  3  0  0  0  0  0  0
  188.6390  176.1010  139.2660 O   0  0  0  0  0  1  0  0  0  0  0  0
  189.7510  178.2830  142.9150 C   0  0  1  0  0  3  0  0  0  0  0  0
  191.2430  178.0860  143.1670 C   0  0  1  0  0  3  0  0  0  0  0  0
  187.0750  178.2990  142.1320 C   0  0  0  0  0  0  0  0  0  0  0  0
  189.3660  177.4760  141.6870 C   0  0  2  0  0  3  0  0  0  0  0  0
  192.9030  177.7230  141.3680 N   0  0  0  0  0  0  0  0  0  0  0  0
  192.0780  174.7570  145.7710 C   0  0  0  0  0  3  0  0  0  0  0  0
  191.9100  176.0310  146.3190 C   0  0  0  0  0  0  0  0  0  0  0  0
  191.5300  176.9380  144.0980 C   0  0  0  0  0  0  0  0  0  0  0  0
  191.9740  174.5710  144.3900 C   0  0  0  0  0  3  0  0  0  0  0  0
  191.6370  177.1200  145.4870 C   0  0  0  0  0  3  0  0  0  0  0  0
  191.7010  175.6600  143.5560 C   0  0  0  0  0  3  0  0  0  0  0  0
  192.0120  176.2110  147.6580 F   0  0  0  0  0  0  0  0  0  0  0  0
  185.3150  178.5080  140.3730 C   0  0  0  0  0  2  0  0  0  0  0  0
  182.5050  178.6040  142.0400 O   0  0  0  0  0  0  0  0  0  0  0  0
  183.9610  179.2060  140.2760 C   0  0  2  0  0  3  0  0  0  0  0  0
  182.8750  178.3730  140.9010 C   0  0  0  0  0  0  0  0  0  0  0  0
  181.9780  177.6290  138.7120 C   0  0  0  0  0  2  0  0  0  0  0  0
  183.2020  178.2550  138.0490 C   0  0  0  0  0  2  0  0  0  0  0  0
  183.6240  179.5130  138.8130 C   0  0  0  0  0  2  0  0  0  0  0  0
  182.2980  177.2120  140.1460 C   0  0  0  0  0  2  0  0  0  0  0  0
  1  8  1  0  0  0  0
  1 13  2  0  0  0  0
  2 14  1  0  0  0  0
  2  8  2  0  0  0  0
  3 18  1  0  0  0  0
  3 12  1  0  0  0  0
  5  6  2  0  0  0  0
  5 11  1  0  0  0  0
  6  2  1  0  0  0  0
  7 17  1  0  0  0  0
  8  3  1  0  0  0  0
  9 17  2  0  0  0  0
 10  4  2  0  0  0  0
 11  1  1  0  0  0  0
 12 16  1  0  0  0  0
 13 19  1  0  0  0  0
 15 16  1  0  0  0  0
 15  4  1  1  0  0  0
 16 22  1  1  0  0  0
 17 10  1  0  0  0  0
 18  7  1  6  0  0  0
 18 15  1  0  0  0  0
 19 12  2  0  0  0  0
 20 21  1  0  0  0  0
 21 26  1  0  0  0  0
 22 24  1  0  0  0  0
 23 20  2  0  0  0  0
 24 21  2  0  0  0  0
 25 22  2  0  0  0  0
 25 23  1  0  0  0  0
 27  9  1  0  0  0  0
 29 27  1  6  0  0  0
 29 30  1  0  0  0  0
 30 28  2  0  0  0  0
 31 34  1  0  0  0  0
 32 31  1  0  0  0  0
 32 33  1  0  0  0  0
 33 29  1  0  0  0  0
 34 30  1  0  0  0  0
M  END
>  <MODEL>
8

>  <REMARK>
 VINA RESULT:      -7.6      3.080      7.387
  Name = 
  3 active torsions:
  status: ('A' for Active; 'I' for Inactive)
    1  A    between atoms: C_3  and  C_13
    2  A    between atoms: C_3  and  C_17
    3  A    between atoms: C_12  and  C_28
                            x       y       z     vdW  Elec       q    Type
                         _______ _______ _______ _____ _____    ______ ____

>  <TORSDO>
F 3

$$$$
=
 OpenBabel11052414113D

 34 39  0  0  1  0  0  0  0  0999 V2000
  187.8290  178.2030  137.0530 C   0  0  0  0  0  0  0  0  0  0  0  0
  185.6320  177.2080  137.4500 C   0  0  0  0  0  0  0  0  0  0  0  0
  186.7560  178.4090  139.2840 N   0  0  0  0  0  0  0  0  0  0  0  0
  185.9390  178.7190  142.8660 C   0  0  0  0  0  3  0  0  0  0  0  0
  186.6130  177.0550  135.1980 C   0  0  0  0  0  3  0  0  0  0  0  0
  185.6370  176.7350  136.0530 C   0  0  0  0  0  3  0  0  0  0  0  0
  184.4730  178.7750  140.3040 C   0  0  0  0  0  2  0  0  0  0  0  0
  186.6630  177.9320  137.9280 C   0  0  0  0  0  0  0  0  0  0  0  0
  182.4580  178.6290  141.7670 C   0  0  0  0  0  3  0  0  0  0  0  0
  184.6020  178.6000  142.9090 C   0  0  0  0  0  3  0  0  0  0  0  0
  187.7570  177.9570  135.5750 C   0  0  0  0  0  2  0  0  0  0  0  0
  188.0250  178.8230  139.7860 C   0  0  0  0  0  0  0  0  0  0  0  0
  188.9500  178.7050  137.5900 C   0  0  0  0  0  3  0  0  0  0  0  0
  184.5590  176.8490  138.2540 O   0  0  0  0  0  1  0  0  0  0  0  0
  186.5520  178.9950  141.5310 C   0  0  1  0  0  3  0  0  0  0  0  0
  188.0550  179.0030  141.2670 C   0  0  1  0  0  3  0  0  0  0  0  0
  183.7870  178.6620  141.6610 C   0  0  0  0  0  0  0  0  0  0  0  0
  185.8800  178.1990  140.4250 C   0  0  2  0  0  3  0  0  0  0  0  0
  189.0520  178.9680  139.0030 N   0  0  0  0  0  0  0  0  0  0  0  0
  190.0390  175.7140  143.2190 C   0  0  0  0  0  3  0  0  0  0  0  0
  190.8030  176.6950  142.5820 C   0  0  0  0  0  0  0  0  0  0  0  0
  188.7720  177.8660  141.9450 C   0  0  0  0  0  0  0  0  0  0  0  0
  188.6450  175.8050  143.2200 C   0  0  0  0  0  3  0  0  0  0  0  0
  190.1730  177.7680  141.9470 C   0  0  0  0  0  3  0  0  0  0  0  0
  188.0130  176.8790  142.5830 C   0  0  0  0  0  3  0  0  0  0  0  0
  192.1550  176.6070  142.5810 F   0  0  0  0  0  0  0  0  0  0  0  0
  181.5300  178.6970  140.5930 C   0  0  0  0  0  2  0  0  0  0  0  0
  181.9310  175.5420  139.8420 O   0  0  0  0  0  0  0  0  0  0  0  0
  180.6740  177.4380  140.4860 C   0  0  2  0  0  3  0  0  0  0  0  0
  181.2430  176.4780  139.4760 C   0  0  0  0  0  0  0  0  0  0  0  0
  179.5520  177.0540  137.7550 C   0  0  0  0  0  2  0  0  0  0  0  0
  179.0990  178.2040  138.6500 C   0  0  0  0  0  2  0  0  0  0  0  0
  179.2310  177.8040  140.1220 C   0  0  0  0  0  2  0  0  0  0  0  0
  181.0200  176.7200  138.0120 C   0  0  0  0  0  2  0  0  0  0  0  0
  1 13  2  0  0  0  0
  1  8  1  0  0  0  0
  2  8  2  0  0  0  0
  2 14  1  0  0  0  0
  3 12  1  0  0  0  0
  3 18  1  0  0  0  0
  4 10  2  0  0  0  0
  5 11  1  0  0  0  0
  5  6  2  0  0  0  0
  6  2  1  0  0  0  0
  7 17  1  0  0  0  0
  8  3  1  0  0  0  0
 11  1  1  0  0  0  0
 12 16  1  0  0  0  0
 13 19  1  0  0  0  0
 15  4  1  1  0  0  0
 16 15  1  0  0  0  0
 16 22  1  1  0  0  0
 17  9  2  0  0  0  0
 17 10  1  0  0  0  0
 18  7  1  6  0  0  0
 18 15  1  0  0  0  0
 19 12  2  0  0  0  0
 20 23  1  0  0  0  0
 21 20  2  0  0  0  0
 22 24  2  0  0  0  0
 22 25  1  0  0  0  0
 24 21  1  0  0  0  0
 25 23  2  0  0  0  0
 26 21  1  0  0  0  0
 27  9  1  0  0  0  0
 29 27  1  6  0  0  0
 30 28  2  0  0  0  0
 30 29  1  0  0  0  0
 31 34  1  0  0  0  0
 31 32  1  0  0  0  0
 32 33  1  0  0  0  0
 33 29  1  0  0  0  0
 34 30  1  0  0  0  0
M  END
>  <MODEL>
9

>  <REMARK>
 VINA RESULT:      -7.6      3.259      7.073
  Name = 
  3 active torsions:
  status: ('A' for Active; 'I' for Inactive)
    1  A    between atoms: C_3  and  C_13
    2  A    between atoms: C_3  and  C_17
    3  A    between atoms: C_12  and  C_28
                            x       y       z     vdW  Elec       q    Type
                         _______ _______ _______ _____ _____    ______ ____

>  <TORSDO>
F 3

$$$$
