=
 OpenBabel11052413583D

 34 39  0  0  1  0  0  0  0  0999 V2000
  188.4690  178.4430  139.6150 C   0  0  0  0  0  0  0  0  0  0  0  0
  186.7730  177.8170  137.9980 C   0  0  0  0  0  0  0  0  0  0  0  0
  186.1380  178.3990  140.3680 C   0  0  0  0  0  0  0  0  0  0  0  0
  183.8930  178.6600  141.2410 C   0  0  0  0  0  0  0  0  0  0  0  0
  189.0620  178.1770  137.2860 C   0  0  0  0  0  3  0  0  0  0  0  0
  187.7450  177.8340  136.9940 C   0  0  0  0  0  3  0  0  0  0  0  0
  184.0060  179.3730  138.7100 S   0  0  0  0  0  0  0  0  0  0  0  0
  187.0940  178.2530  139.3120 C   0  0  0  0  0  0  0  0  0  0  0  0
  182.4810  178.9930  140.9380 C   0  0  0  0  0  2  0  0  0  0  0  0
  189.4300  178.4480  138.6020 C   0  0  0  0  0  3  0  0  0  0  0  0
  186.6020  178.3890  141.7180 C   0  0  0  0  0  0  0  0  0  0  0  0
  188.8940  178.5670  140.9320 C   0  0  0  0  0  3  0  0  0  0  0  0
  185.5410  177.2560  137.6900 O   0  0  0  0  0  1  0  0  0  0  0  0
  184.3420  178.5090  142.5070 N   0  0  0  0  0  0  0  0  0  0  0  0
  185.6670  178.3690  142.7880 C   0  0  0  0  0  0  0  0  0  0  0  0
  182.3620  179.0010  139.4200 C   0  0  1  0  0  3  0  0  0  0  0  0
  184.7580  178.6510  140.1670 C   0  0  0  0  0  0  0  0  0  0  0  0
  187.9750  178.5030  141.9710 C   0  0  0  0  0  3  0  0  0  0  0  0
  187.5480  177.4130  145.9560 C   0  0  0  0  0  0  0  0  0  0  0  0
  186.7130  177.9530  146.9370 C   0  0  0  0  0  3  0  0  0  0  0  0
  186.0580  178.2410  144.2170 C   0  0  0  0  0  0  0  0  0  0  0  0
  185.5470  178.6280  146.5650 C   0  0  0  0  0  3  0  0  0  0  0  0
  187.2190  177.5520  144.6040 C   0  0  0  0  0  3  0  0  0  0  0  0
  185.2210  178.7670  145.2140 C   0  0  0  0  0  3  0  0  0  0  0  0
  188.6750  176.7530  146.3130 F   0  0  0  0  0  0  0  0  0  0  0  0
  181.4210  180.5750  137.7830 C   0  0  0  0  0  3  0  0  0  0  0  0
  181.3620  180.0240  138.9980 C   0  0  0  0  0  3  0  0  0  0  0  0
  180.6350  182.9440  138.0670 C   0  0  0  0  0  2  0  0  0  0  0  0
  180.4330  181.6080  137.3310 C   0  0  1  0  0  3  0  0  0  0  0  0
  181.4220  183.9410  137.2180 C   0  0  0  0  0  2  0  0  0  0  0  0
  180.7110  184.2450  135.8920 C   0  0  1  0  0  3  0  0  0  0  0  0
  179.8580  183.0810  135.3670 C   0  0  0  0  0  2  0  0  0  0  0  0
  180.4310  181.7350  135.8000 C   0  0  0  0  0  2  0  0  0  0  0  0
  179.9090  185.3770  136.0350 O   0  0  0  0  0  1  0  0  0  0  0  0
  1 12  1  0  0  0  0
  2  8  1  0  0  0  0
  3 11  1  0  0  0  0
  4 14  2  0  0  0  0
  5 10  2  0  0  0  0
  6  5  1  0  0  0  0
  6  2  2  0  0  0  0
  7 16  1  0  0  0  0
  7 17  1  0  0  0  0
  8  1  2  0  0  0  0
  8  3  1  0  0  0  0
  9  4  1  0  0  0  0
 10  1  1  0  0  0  0
 11 18  1  0  0  0  0
 11 15  2  0  0  0  0
 12 18  2  0  0  0  0
 13  2  1  0  0  0  0
 14 15  1  0  0  0  0
 15 21  1  0  0  0  0
 16 27  1  1  0  0  0
 16  9  1  0  0  0  0
 17  3  2  0  0  0  0
 17  4  1  0  0  0  0
 19 25  1  0  0  0  0
 19 20  1  0  0  0  0
 21 23  1  0  0  0  0
 21 24  2  0  0  0  0
 22 20  2  0  0  0  0
 23 19  2  0  0  0  0
 24 22  1  0  0  0  0
 26 27  2  0  0  0  0
 29 26  1  6  0  0  0
 29 28  1  0  0  0  0
 30 28  1  0  0  0  0
 31 34  1  1  0  0  0
 31 30  1  0  0  0  0
 32 33  1  0  0  0  0
 32 31  1  0  0  0  0
 33 29  1  0  0  0  0
M  END
>  <MODEL>
1

>  <REMARK>
 VINA RESULT:      -9.9      0.000      0.000
  Name = 
  3 active torsions:
  status: ('A' for Active; 'I' for Inactive)
    1  A    between atoms: C_3  and  C_13
    2  A    between atoms: C_12  and  C_28
    3  A    between atoms: C_17  and  C_29
                            x       y       z     vdW  Elec       q    Type
                         _______ _______ _______ _____ _____    ______ ____

>  <TORSDO>
F 3

$$$$
=
 OpenBabel11052413583D

 34 39  0  0  1  0  0  0  0  0999 V2000
  182.7110  178.7240  141.5950 C   0  0  0  0  0  0  0  0  0  0  0  0
  183.5840  179.6520  139.5310 C   0  0  0  0  0  0  0  0  0  0  0  0
  185.1380  178.6810  141.2630 C   0  0  0  0  0  0  0  0  0  0  0  0
  187.5210  178.3140  141.0230 C   0  0  0  0  0  0  0  0  0  0  0  0
  181.1930  179.3780  139.8310 C   0  0  0  0  0  3  0  0  0  0  0  0
  182.2760  179.7910  139.0580 C   0  0  0  0  0  3  0  0  0  0  0  0
  186.2920  178.0480  138.7120 S   0  0  0  0  0  0  0  0  0  0  0  0
  183.8320  178.9900  140.7640 C   0  0  0  0  0  0  0  0  0  0  0  0
  188.6440  178.0640  140.0900 C   0  0  0  0  0  2  0  0  0  0  0  0
  181.4100  178.8770  141.1120 C   0  0  0  0  0  3  0  0  0  0  0  0
  185.3000  178.4490  142.6620 C   0  0  0  0  0  0  0  0  0  0  0  0
  182.8860  178.3660  142.9270 C   0  0  0  0  0  3  0  0  0  0  0  0
  184.5950  180.2800  138.8180 O   0  0  0  0  0  1  0  0  0  0  0  0
  187.6680  178.2350  142.3650 N   0  0  0  0  0  0  0  0  0  0  0  0
  186.6030  178.2990  143.2090 C   0  0  0  0  0  0  0  0  0  0  0  0
  188.1000  178.3210  138.6900 C   0  0  1  0  0  3  0  0  0  0  0  0
  186.2810  178.4920  140.4460 C   0  0  0  0  0  0  0  0  0  0  0  0
  184.1640  178.2670  143.4610 C   0  0  0  0  0  3  0  0  0  0  0  0
  188.2130  177.3570  146.5270 C   0  0  0  0  0  0  0  0  0  0  0  0
  187.2880  177.8810  147.4330 C   0  0  0  0  0  3  0  0  0  0  0  0
  186.8700  178.1710  144.6670 C   0  0  0  0  0  0  0  0  0  0  0  0
  186.1490  178.5410  146.9630 C   0  0  0  0  0  3  0  0  0  0  0  0
  188.0020  177.4970  145.1520 C   0  0  0  0  0  3  0  0  0  0  0  0
  185.9410  178.6810  145.5880 C   0  0  0  0  0  3  0  0  0  0  0  0
  189.3130  176.7110  146.9800 F   0  0  0  0  0  0  0  0  0  0  0  0
  190.0120  176.9830  137.9170 C   0  0  0  0  0  3  0  0  0  0  0  0
  188.7610  177.4050  137.7160 C   0  0  0  0  0  3  0  0  0  0  0  0
  192.2130  176.3590  136.8800 C   0  0  0  0  0  2  0  0  0  0  0  0
  190.7040  176.0660  136.9540 C   0  0  1  0  0  3  0  0  0  0  0  0
  193.0190  175.3810  137.7320 C   0  0  0  0  0  2  0  0  0  0  0  0
  192.8060  173.9280  137.2840 C   0  0  1  0  0  3  0  0  0  0  0  0
  191.4250  173.6670  136.6660 C   0  0  0  0  0  2  0  0  0  0  0  0
  190.3690  174.5970  137.2560 C   0  0  0  0  0  2  0  0  0  0  0  0
  193.7970  173.5640  136.3720 O   0  0  0  0  0  1  0  0  0  0  0  0
  1 12  1  0  0  0  0
  2  8  1  0  0  0  0
  3 11  1  0  0  0  0
  4 14  2  0  0  0  0
  5 10  2  0  0  0  0
  6  2  2  0  0  0  0
  6  5  1  0  0  0  0
  7 17  1  0  0  0  0
  8  3  1  0  0  0  0
  8  1  2  0  0  0  0
  9  4  1  0  0  0  0
 10  1  1  0  0  0  0
 11 15  2  0  0  0  0
 11 18  1  0  0  0  0
 12 18  2  0  0  0  0
 13  2  1  0  0  0  0
 14 15  1  0  0  0  0
 15 21  1  0  0  0  0
 16 27  1  6  0  0  0
 16  7  1  0  0  0  0
 16  9  1  0  0  0  0
 17  4  1  0  0  0  0
 17  3  2  0  0  0  0
 19 25  1  0  0  0  0
 19 20  1  0  0  0  0
 21 23  1  0  0  0  0
 21 24  2  0  0  0  0
 22 20  2  0  0  0  0
 23 19  2  0  0  0  0
 24 22  1  0  0  0  0
 27 26  2  0  0  0  0
 28 29  1  0  0  0  0
 28 30  1  0  0  0  0
 29 33  1  0  0  0  0
 29 26  1  1  0  0  0
 31 34  1  6  0  0  0
 31 30  1  0  0  0  0
 32 33  1  0  0  0  0
 32 31  1  0  0  0  0
M  END
>  <MODEL>
2

>  <REMARK>
 VINA RESULT:      -9.9      2.742      7.798
  Name = 
  3 active torsions:
  status: ('A' for Active; 'I' for Inactive)
    1  A    between atoms: C_3  and  C_13
    2  A    between atoms: C_12  and  C_28
    3  A    between atoms: C_17  and  C_29
                            x       y       z     vdW  Elec       q    Type
                         _______ _______ _______ _____ _____    ______ ____

>  <TORSDO>
F 3

$$$$
=
 OpenBabel11052413583D

 34 39  0  0  1  0  0  0  0  0999 V2000
  185.8420  177.8760  143.1320 C   0  0  0  0  0  0  0  0  0  0  0  0
  186.3850  178.7810  140.9490 C   0  0  0  0  0  0  0  0  0  0  0  0
  188.1620  177.6920  142.3670 C   0  0  0  0  0  0  0  0  0  0  0  0
  190.4350  177.1860  141.7000 C   0  0  0  0  0  0  0  0  0  0  0  0
  184.0750  178.6480  141.6740 C   0  0  0  0  0  3  0  0  0  0  0  0
  185.0250  179.0070  140.7200 C   0  0  0  0  0  3  0  0  0  0  0  0
  188.7970  177.0300  139.6470 S   0  0  0  0  0  0  0  0  0  0  0  0
  186.8100  178.0870  142.1130 C   0  0  0  0  0  0  0  0  0  0  0  0
  191.3550  176.8830  140.5780 C   0  0  0  0  0  2  0  0  0  0  0  0
  184.4870  178.1150  142.8920 C   0  0  0  0  0  3  0  0  0  0  0  0
  188.5580  177.4280  143.7130 C   0  0  0  0  0  0  0  0  0  0  0  0
  186.2300  177.4880  144.4090 C   0  0  0  0  0  3  0  0  0  0  0  0
  187.2880  179.3590  140.0670 O   0  0  0  0  0  1  0  0  0  0  0  0
  190.8160  177.0770  142.9930 N   0  0  0  0  0  0  0  0  0  0  0  0
  189.9260  177.1920  144.0160 C   0  0  0  0  0  0  0  0  0  0  0  0
  190.5850  177.1940  139.3010 C   0  0  1  0  0  3  0  0  0  0  0  0
  189.1260  177.4470  141.3570 C   0  0  0  0  0  0  0  0  0  0  0  0
  187.5750  177.3030  144.7040 C   0  0  0  0  0  3  0  0  0  0  0  0
  190.3780  177.5420  147.7790 C   0  0  0  0  0  0  0  0  0  0  0  0
  191.5060  176.7450  147.9890 C   0  0  0  0  0  3  0  0  0  0  0  0
  190.4420  177.0250  145.4010 C   0  0  0  0  0  0  0  0  0  0  0  0
  192.1110  176.0950  146.9100 C   0  0  0  0  0  3  0  0  0  0  0  0
  189.8530  177.6850  146.4910 C   0  0  0  0  0  3  0  0  0  0  0  0
  191.5840  176.2390  145.6230 C   0  0  0  0  0  3  0  0  0  0  0  0
  189.7950  178.1780  148.8220 F   0  0  0  0  0  0  0  0  0  0  0  0
  192.2530  176.2630  137.7540 C   0  0  0  0  0  3  0  0  0  0  0  0
  191.0020  176.2550  138.2200 C   0  0  0  0  0  3  0  0  0  0  0  0
  194.2270  175.1370  136.6840 C   0  0  0  0  0  2  0  0  0  0  0  0
  192.7010  175.3350  136.6660 C   0  0  1  0  0  3  0  0  0  0  0  0
  194.6160  173.8300  137.3740 C   0  0  0  0  0  2  0  0  0  0  0  0
  193.9980  172.6110  136.6740 C   0  0  1  0  0  3  0  0  0  0  0  0
  192.6600  172.9080  135.9830 C   0  0  0  0  0  2  0  0  0  0  0  0
  191.9020  174.0230  136.6970 C   0  0  0  0  0  2  0  0  0  0  0  0
  194.8970  172.0970  135.7400 O   0  0  0  0  0  1  0  0  0  0  0  0
  1 12  1  0  0  0  0
  2  8  1  0  0  0  0
  3 11  1  0  0  0  0
  4 14  2  0  0  0  0
  5 10  2  0  0  0  0
  6  2  2  0  0  0  0
  6  5  1  0  0  0  0
  7 17  1  0  0  0  0
  8  3  1  0  0  0  0
  8  1  2  0  0  0  0
  9  4  1  0  0  0  0
 10  1  1  0  0  0  0
 11 15  2  0  0  0  0
 11 18  1  0  0  0  0
 12 18  2  0  0  0  0
 13  2  1  0  0  0  0
 14 15  1  0  0  0  0
 15 21  1  0  0  0  0
 16 27  1  6  0  0  0
 16  7  1  0  0  0  0
 16  9  1  0  0  0  0
 17  4  1  0  0  0  0
 17  3  2  0  0  0  0
 19 20  1  0  0  0  0
 19 25  1  0  0  0  0
 21 24  2  0  0  0  0
 21 23  1  0  0  0  0
 22 20  2  0  0  0  0
 23 19  2  0  0  0  0
 24 22  1  0  0  0  0
 26 27  2  0  0  0  0
 28 30  1  0  0  0  0
 29 28  1  0  0  0  0
 29 33  1  0  0  0  0
 29 26  1  1  0  0  0
 31 34  1  6  0  0  0
 31 30  1  0  0  0  0
 32 31  1  0  0  0  0
 32 33  1  0  0  0  0
M  END
>  <MODEL>
3

>  <REMARK>
 VINA RESULT:      -9.8      4.354      9.123
  Name = 
  3 active torsions:
  status: ('A' for Active; 'I' for Inactive)
    1  A    between atoms: C_3  and  C_13
    2  A    between atoms: C_12  and  C_28
    3  A    between atoms: C_17  and  C_29
                            x       y       z     vdW  Elec       q    Type
                         _______ _______ _______ _____ _____    ______ ____

>  <TORSDO>
F 3

$$$$
=
 OpenBabel11052413583D

 34 39  0  0  1  0  0  0  0  0999 V2000
  187.0210  177.6240  145.0690 C   0  0  0  0  0  0  0  0  0  0  0  0
  185.0830  179.0380  144.7060 C   0  0  0  0  0  0  0  0  0  0  0  0
  186.4830  178.2520  142.7630 C   0  0  0  0  0  0  0  0  0  0  0  0
  185.9840  178.5460  140.4100 C   0  0  0  0  0  0  0  0  0  0  0  0
  185.5300  178.1210  146.9070 C   0  0  0  0  0  3  0  0  0  0  0  0
  184.7530  178.9070  146.0590 C   0  0  0  0  0  3  0  0  0  0  0  0
  183.7730  178.3180  141.8180 S   0  0  0  0  0  0  0  0  0  0  0  0
  186.1570  178.2870  144.1560 C   0  0  0  0  0  0  0  0  0  0  0  0
  184.9310  178.7320  139.3850 C   0  0  0  0  0  2  0  0  0  0  0  0
  186.6820  177.5100  146.4190 C   0  0  0  0  0  3  0  0  0  0  0  0
  187.8020  177.8650  142.3770 C   0  0  0  0  0  0  0  0  0  0  0  0
  188.2510  177.1310  144.6500 C   0  0  0  0  0  3  0  0  0  0  0  0
  184.4070  180.0020  143.9720 O   0  0  0  0  0  1  0  0  0  0  0  0
  187.2750  178.3110  140.0820 N   0  0  0  0  0  0  0  0  0  0  0  0
  188.2040  177.9750  141.0190 C   0  0  0  0  0  0  0  0  0  0  0  0
  183.6480  179.0440  140.1440 C   0  0  1  0  0  3  0  0  0  0  0  0
  185.5530  178.4840  141.7180 C   0  0  0  0  0  0  0  0  0  0  0  0
  188.6500  177.2840  143.3290 C   0  0  0  0  0  3  0  0  0  0  0  0
  191.1640  177.0300  138.8200 C   0  0  0  0  0  0  0  0  0  0  0  0
  192.2170  177.1270  139.7320 C   0  0  0  0  0  3  0  0  0  0  0  0
  189.5900  177.7060  140.5500 C   0  0  0  0  0  0  0  0  0  0  0  0
  191.9630  177.5030  141.0530 C   0  0  0  0  0  3  0  0  0  0  0  0
  189.8570  177.3120  139.2290 C   0  0  0  0  0  3  0  0  0  0  0  0
  190.6560  177.7870  141.4590 C   0  0  0  0  0  3  0  0  0  0  0  0
  191.4070  176.6590  137.5400 F   0  0  0  0  0  0  0  0  0  0  0  0
  181.8670  177.3760  139.8450 C   0  0  0  0  0  3  0  0  0  0  0  0
  182.4780  178.4810  139.4110 C   0  0  0  0  0  3  0  0  0  0  0  0
  181.1130  176.1120  137.8100 C   0  0  0  0  0  2  0  0  0  0  0  0
  180.6910  176.7850  139.1280 C   0  0  1  0  0  3  0  0  0  0  0  0
  181.2390  174.5970  137.9670 C   0  0  0  0  0  2  0  0  0  0  0  0
  179.9150  173.9590  138.4110 C   0  0  1  0  0  3  0  0  0  0  0  0
  179.0340  174.8880  139.2580 C   0  0  0  0  0  2  0  0  0  0  0  0
  179.8800  175.8730  140.0610 C   0  0  0  0  0  2  0  0  0  0  0  0
  179.1970  173.5350  137.2930 O   0  0  0  0  0  1  0  0  0  0  0  0
  1 10  2  0  0  0  0
  2  6  1  0  0  0  0
  3  8  1  0  0  0  0
  4 17  1  0  0  0  0
  6  5  2  0  0  0  0
  8  2  2  0  0  0  0
  8  1  1  0  0  0  0
  9 16  1  0  0  0  0
  9  4  1  0  0  0  0
 10  5  1  0  0  0  0
 11  3  1  0  0  0  0
 11 18  1  0  0  0  0
 12  1  1  0  0  0  0
 13  2  1  0  0  0  0
 14  4  2  0  0  0  0
 14 15  1  0  0  0  0
 15 11  2  0  0  0  0
 16 27  1  6  0  0  0
 16  7  1  0  0  0  0
 17  7  1  0  0  0  0
 17  3  2  0  0  0  0
 18 12  2  0  0  0  0
 19 23  2  0  0  0  0
 19 20  1  0  0  0  0
 20 22  2  0  0  0  0
 21 15  1  0  0  0  0
 21 24  2  0  0  0  0
 22 24  1  0  0  0  0
 23 21  1  0  0  0  0
 25 19  1  0  0  0  0
 27 26  2  0  0  0  0
 28 30  1  0  0  0  0
 28 29  1  0  0  0  0
 29 26  1  1  0  0  0
 29 33  1  0  0  0  0
 30 31  1  0  0  0  0
 31 34  1  6  0  0  0
 31 32  1  0  0  0  0
 32 33  1  0  0  0  0
M  END
>  <MODEL>
4

>  <REMARK>
 VINA RESULT:      -9.7      3.910      6.609
  Name = 
  3 active torsions:
  status: ('A' for Active; 'I' for Inactive)
    1  A    between atoms: C_3  and  C_13
    2  A    between atoms: C_12  and  C_28
    3  A    between atoms: C_17  and  C_29
                            x       y       z     vdW  Elec       q    Type
                         _______ _______ _______ _____ _____    ______ ____

>  <TORSDO>
F 3

$$$$
=
 OpenBabel11052413583D

 34 39  0  0  1  0  0  0  0  0999 V2000
  188.7120  177.1230  145.9410 C   0  0  0  0  0  0  0  0  0  0  0  0
  186.8130  178.6040  146.2320 C   0  0  0  0  0  0  0  0  0  0  0  0
  187.6180  177.9840  143.9250 C   0  0  0  0  0  0  0  0  0  0  0  0
  186.5340  178.5150  141.8240 C   0  0  0  0  0  0  0  0  0  0  0  0
  187.7790  177.4690  148.1440 C   0  0  0  0  0  3  0  0  0  0  0  0
  186.8430  178.3480  147.6060 C   0  0  0  0  0  3  0  0  0  0  0  0
  184.7610  178.1960  143.7410 S   0  0  0  0  0  0  0  0  0  0  0  0
  187.6700  177.8890  145.3520 C   0  0  0  0  0  0  0  0  0  0  0  0
  185.2580  178.8220  141.1350 C   0  0  0  0  0  2  0  0  0  0  0  0
  188.7340  176.8840  147.3160 C   0  0  0  0  0  3  0  0  0  0  0  0
  188.7710  177.6100  143.1710 C   0  0  0  0  0  0  0  0  0  0  0  0
  189.7650  176.6480  145.1680 C   0  0  0  0  0  3  0  0  0  0  0  0
  186.0130  179.6490  145.7910 O   0  0  0  0  0  1  0  0  0  0  0  0
  187.6820  178.2870  141.1460 N   0  0  0  0  0  0  0  0  0  0  0  0
  188.8080  177.8430  141.7690 C   0  0  0  0  0  0  0  0  0  0  0  0
  184.2350  179.0840  142.2320 C   0  0  1  0  0  3  0  0  0  0  0  0
  186.4580  178.3360  143.1890 C   0  0  0  0  0  0  0  0  0  0  0  0
  189.8120  176.9210  143.8080 C   0  0  0  0  0  3  0  0  0  0  0  0
  191.0420  176.8780  138.8430 C   0  0  0  0  0  0  0  0  0  0  0  0
  192.3090  177.0540  139.4030 C   0  0  0  0  0  3  0  0  0  0  0  0
  190.0080  177.5930  140.9280 C   0  0  0  0  0  0  0  0  0  0  0  0
  192.4320  177.4900  140.7250 C   0  0  0  0  0  3  0  0  0  0  0  0
  189.8980  177.1410  139.6030 C   0  0  0  0  0  3  0  0  0  0  0  0
  191.2880  177.7540  141.4830 C   0  0  0  0  0  3  0  0  0  0  0  0
  190.9200  176.4490  137.5640 F   0  0  0  0  0  0  0  0  0  0  0  0
  182.6280  178.4220  140.4930 C   0  0  0  0  0  3  0  0  0  0  0  0
  182.8890  178.6200  141.7880 C   0  0  0  0  0  3  0  0  0  0  0  0
  181.4120  176.8730  138.9340 C   0  0  0  0  0  2  0  0  0  0  0  0
  181.2850  177.9600  140.0160 C   0  0  1  0  0  3  0  0  0  0  0  0
  181.2140  175.4740  139.5160 C   0  0  0  0  0  2  0  0  0  0  0  0
  179.8330  175.3190  140.1680 C   0  0  1  0  0  3  0  0  0  0  0  0
  179.2700  176.6270  140.7410 C   0  0  0  0  0  2  0  0  0  0  0  0
  180.3880  177.5590  141.1980 C   0  0  0  0  0  2  0  0  0  0  0  0
  178.9310  174.7930  139.2440 O   0  0  0  0  0  1  0  0  0  0  0  0
  1 10  2  0  0  0  0
  2  6  1  0  0  0  0
  3  8  1  0  0  0  0
  4 17  2  0  0  0  0
  6  5  2  0  0  0  0
  8  1  1  0  0  0  0
  8  2  2  0  0  0  0
  9  4  1  0  0  0  0
  9 16  1  0  0  0  0
 10  5  1  0  0  0  0
 11 18  1  0  0  0  0
 11  3  2  0  0  0  0
 12  1  1  0  0  0  0
 13  2  1  0  0  0  0
 14 15  2  0  0  0  0
 14  4  1  0  0  0  0
 15 11  1  0  0  0  0
 16 27  1  6  0  0  0
 16  7  1  0  0  0  0
 17  7  1  0  0  0  0
 17  3  1  0  0  0  0
 18 12  2  0  0  0  0
 19 20  2  0  0  0  0
 19 23  1  0  0  0  0
 20 22  1  0  0  0  0
 21 24  1  0  0  0  0
 21 15  1  0  0  0  0
 22 24  2  0  0  0  0
 23 21  2  0  0  0  0
 25 19  1  0  0  0  0
 26 27  2  0  0  0  0
 28 30  1  0  0  0  0
 28 29  1  0  0  0  0
 29 26  1  1  0  0  0
 29 33  1  0  0  0  0
 30 31  1  0  0  0  0
 31 34  1  6  0  0  0
 31 32  1  0  0  0  0
 32 33  1  0  0  0  0
M  END
>  <MODEL>
5

>  <REMARK>
 VINA RESULT:      -9.7      4.236      6.869
  Name = 
  3 active torsions:
  status: ('A' for Active; 'I' for Inactive)
    1  A    between atoms: C_3  and  C_13
    2  A    between atoms: C_12  and  C_28
    3  A    between atoms: C_17  and  C_29
                            x       y       z     vdW  Elec       q    Type
                         _______ _______ _______ _____ _____    ______ ____

>  <TORSDO>
F 3

$$$$
=
 OpenBabel11052413583D

 34 39  0  0  1  0  0  0  0  0999 V2000
  189.9910  177.2740  146.6800 C   0  0  0  0  0  0  0  0  0  0  0  0
  191.3180  175.7750  145.3110 C   0  0  0  0  0  0  0  0  0  0  0  0
  189.3290  176.9810  144.3400 C   0  0  0  0  0  0  0  0  0  0  0  0
  188.6620  177.0260  142.0110 C   0  0  0  0  0  0  0  0  0  0  0  0
  192.0560  176.3610  147.5460 C   0  0  0  0  0  3  0  0  0  0  0  0
  192.2380  175.6580  146.3570 C   0  0  0  0  0  3  0  0  0  0  0  0
  191.2770  176.8340  142.2360 S   0  0  0  0  0  0  0  0  0  0  0  0
  190.2390  176.6940  145.4060 C   0  0  0  0  0  0  0  0  0  0  0  0
  189.0980  176.9170  140.5990 C   0  0  0  0  0  2  0  0  0  0  0  0
  190.9150  177.1410  147.7190 C   0  0  0  0  0  3  0  0  0  0  0  0
  188.0530  177.5360  144.6580 C   0  0  0  0  0  0  0  0  0  0  0  0
  188.7940  177.9330  146.9380 C   0  0  0  0  0  3  0  0  0  0  0  0
  191.4360  174.8870  144.2510 O   0  0  0  0  0  1  0  0  0  0  0  0
  187.4140  177.4220  142.3510 N   0  0  0  0  0  0  0  0  0  0  0  0
  187.0700  177.6820  143.6420 C   0  0  0  0  0  0  0  0  0  0  0  0
  190.5220  176.3770  140.6340 C   0  0  1  0  0  3  0  0  0  0  0  0
  189.6400  176.8390  142.9640 C   0  0  0  0  0  0  0  0  0  0  0  0
  187.8230  178.0290  145.9490 C   0  0  0  0  0  3  0  0  0  0  0  0
  183.4430  178.7220  143.1400 C   0  0  0  0  0  0  0  0  0  0  0  0
  183.0890  179.0960  144.4380 C   0  0  0  0  0  3  0  0  0  0  0  0
  185.6800  178.1410  143.9050 C   0  0  0  0  0  0  0  0  0  0  0  0
  184.0270  179.0030  145.4700 C   0  0  0  0  0  3  0  0  0  0  0  0
  184.7330  178.2530  142.8740 C   0  0  0  0  0  3  0  0  0  0  0  0
  185.3160  178.5320  145.2030 C   0  0  0  0  0  3  0  0  0  0  0  0
  182.5380  178.8180  142.1370 F   0  0  0  0  0  0  0  0  0  0  0  0
  191.5780  176.2100  138.4200 C   0  0  0  0  0  3  0  0  0  0  0  0
  191.3060  176.9470  139.5000 C   0  0  0  0  0  3  0  0  0  0  0  0
  193.8800  176.6110  137.5000 C   0  0  0  0  0  2  0  0  0  0  0  0
  192.3660  176.7530  137.2670 C   0  0  1  0  0  3  0  0  0  0  0  0
  194.4510  175.3970  136.7680 C   0  0  0  0  0  2  0  0  0  0  0  0
  194.2210  175.4870  135.2530 C   0  0  1  0  0  3  0  0  0  0  0  0
  192.9590  176.2690  134.8640 C   0  0  0  0  0  2  0  0  0  0  0  0
  191.8820  176.1520  135.9380 C   0  0  0  0  0  2  0  0  0  0  0  0
  195.3320  176.0680  134.6410 O   0  0  0  0  0  1  0  0  0  0  0  0
  1 12  1  0  0  0  0
  1 10  2  0  0  0  0
  2  8  2  0  0  0  0
  2  6  1  0  0  0  0
  3 11  1  0  0  0  0
  3  8  1  0  0  0  0
  4 14  2  0  0  0  0
  4 17  1  0  0  0  0
  5 10  1  0  0  0  0
  6  5  2  0  0  0  0
  7 17  1  0  0  0  0
  8  1  1  0  0  0  0
  9 16  1  0  0  0  0
  9  4  1  0  0  0  0
 11 18  1  0  0  0  0
 13  2  1  0  0  0  0
 14 15  1  0  0  0  0
 15 21  1  0  0  0  0
 15 11  2  0  0  0  0
 16 27  1  6  0  0  0
 16  7  1  0  0  0  0
 17  3  2  0  0  0  0
 18 12  2  0  0  0  0
 19 20  1  0  0  0  0
 20 22  2  0  0  0  0
 21 24  2  0  0  0  0
 23 19  2  0  0  0  0
 23 21  1  0  0  0  0
 24 22  1  0  0  0  0
 25 19  1  0  0  0  0
 26 27  2  0  0  0  0
 29 28  1  0  0  0  0
 29 26  1  1  0  0  0
 30 28  1  0  0  0  0
 31 34  1  6  0  0  0
 31 30  1  0  0  0  0
 32 31  1  0  0  0  0
 32 33  1  0  0  0  0
 33 29  1  0  0  0  0
M  END
>  <MODEL>
6

>  <REMARK>
 VINA RESULT:      -9.5      5.773      9.214
  Name = 
  3 active torsions:
  status: ('A' for Active; 'I' for Inactive)
    1  A    between atoms: C_3  and  C_13
    2  A    between atoms: C_12  and  C_28
    3  A    between atoms: C_17  and  C_29
                            x       y       z     vdW  Elec       q    Type
                         _______ _______ _______ _____ _____    ______ ____

>  <TORSDO>
F 3

$$$$
=
 OpenBabel11052413583D

 34 39  0  0  1  0  0  0  0  0999 V2000
  187.6090  178.5700  147.1810 C   0  0  0  0  0  0  0  0  0  0  0  0
  189.3490  177.0330  146.4790 C   0  0  0  0  0  0  0  0  0  0  0  0
  187.5940  177.8190  144.8490 C   0  0  0  0  0  0  0  0  0  0  0  0
  187.5480  177.4020  142.4630 C   0  0  0  0  0  0  0  0  0  0  0  0
  189.4420  178.0620  148.6730 C   0  0  0  0  0  3  0  0  0  0  0  0
  189.9750  177.2000  147.7180 C   0  0  0  0  0  3  0  0  0  0  0  0
  190.0230  177.5590  143.3410 S   0  0  0  0  0  0  0  0  0  0  0  0
  188.2180  177.8220  146.1370 C   0  0  0  0  0  0  0  0  0  0  0  0
  188.3400  177.1140  141.2440 C   0  0  0  0  0  2  0  0  0  0  0  0
  188.2410  178.7190  148.4170 C   0  0  0  0  0  3  0  0  0  0  0  0
  186.2430  178.2650  144.7410 C   0  0  0  0  0  0  0  0  0  0  0  0
  186.3410  179.1160  147.0150 C   0  0  0  0  0  3  0  0  0  0  0  0
  189.8000  176.0030  145.6660 O   0  0  0  0  0  1  0  0  0  0  0  0
  186.2300  177.6980  142.4120 N   0  0  0  0  0  0  0  0  0  0  0  0
  185.5460  178.1240  143.5100 C   0  0  0  0  0  0  0  0  0  0  0  0
  189.7420  176.7590  141.7210 C   0  0  1  0  0  3  0  0  0  0  0  0
  188.2590  177.4910  143.6410 C   0  0  0  0  0  0  0  0  0  0  0  0
  185.6530  178.9330  145.8220 C   0  0  0  0  0  3  0  0  0  0  0  0
  182.1860  178.9730  141.9360 C   0  0  0  0  0  0  0  0  0  0  0  0
  181.3970  179.1590  143.0730 C   0  0  0  0  0  3  0  0  0  0  0  0
  184.1060  178.4530  143.3400 C   0  0  0  0  0  0  0  0  0  0  0  0
  181.9570  179.0030  144.3430 C   0  0  0  0  0  3  0  0  0  0  0  0
  183.5350  178.6280  142.0700 C   0  0  0  0  0  3  0  0  0  0  0  0
  183.3050  178.6560  144.4750 C   0  0  0  0  0  3  0  0  0  0  0  0
  181.6470  179.1300  140.7040 F   0  0  0  0  0  0  0  0  0  0  0  0
  190.9280  176.5600  139.5770 C   0  0  0  0  0  3  0  0  0  0  0  0
  190.7470  177.2230  140.7220 C   0  0  0  0  0  3  0  0  0  0  0  0
  193.3740  176.7530  139.0370 C   0  0  0  0  0  2  0  0  0  0  0  0
  191.9330  176.9980  138.5550 C   0  0  1  0  0  3  0  0  0  0  0  0
  193.9570  175.4740  138.4390 C   0  0  0  0  0  2  0  0  0  0  0  0
  193.9830  175.5230  136.9050 C   0  0  1  0  0  3  0  0  0  0  0  0
  192.8660  176.3820  136.2950 C   0  0  0  0  0  2  0  0  0  0  0  0
  191.6240  176.3860  137.1800 C   0  0  0  0  0  2  0  0  0  0  0  0
  195.2200  175.9970  136.4690 O   0  0  0  0  0  1  0  0  0  0  0  0
  1 10  2  0  0  0  0
  2  6  1  0  0  0  0
  3  8  1  0  0  0  0
  4 17  1  0  0  0  0
  6  5  2  0  0  0  0
  7 17  1  0  0  0  0
  8  2  2  0  0  0  0
  8  1  1  0  0  0  0
  9 16  1  0  0  0  0
  9  4  1  0  0  0  0
 10  5  1  0  0  0  0
 11  3  1  0  0  0  0
 11 18  1  0  0  0  0
 12  1  1  0  0  0  0
 13  2  1  0  0  0  0
 14  4  2  0  0  0  0
 14 15  1  0  0  0  0
 15 11  2  0  0  0  0
 16 27  1  6  0  0  0
 16  7  1  0  0  0  0
 17  3  2  0  0  0  0
 18 12  2  0  0  0  0
 19 23  2  0  0  0  0
 19 20  1  0  0  0  0
 20 22  2  0  0  0  0
 21 15  1  0  0  0  0
 21 24  2  0  0  0  0
 22 24  1  0  0  0  0
 23 21  1  0  0  0  0
 25 19  1  0  0  0  0
 26 27  2  0  0  0  0
 29 28  1  0  0  0  0
 29 26  1  1  0  0  0
 30 28  1  0  0  0  0
 31 34  1  1  0  0  0
 31 30  1  0  0  0  0
 32 31  1  0  0  0  0
 32 33  1  0  0  0  0
 33 29  1  0  0  0  0
M  END
>  <MODEL>
7

>  <REMARK>
 VINA RESULT:      -9.5      5.219      9.222
  Name = 
  3 active torsions:
  status: ('A' for Active; 'I' for Inactive)
    1  A    between atoms: C_3  and  C_13
    2  A    between atoms: C_12  and  C_28
    3  A    between atoms: C_17  and  C_29
                            x       y       z     vdW  Elec       q    Type
                         _______ _______ _______ _____ _____    ______ ____

>  <TORSDO>
F 3

$$$$
=
 OpenBabel11052413583D

 34 39  0  0  1  0  0  0  0  0999 V2000
  186.3930  177.3000  135.8330 C   0  0  0  0  0  0  0  0  0  0  0  0
  188.4080  178.2770  136.7620 C   0  0  0  0  0  0  0  0  0  0  0  0
  186.3040  178.1170  138.1410 C   0  0  0  0  0  0  0  0  0  0  0  0
  186.0780  178.6280  140.4980 C   0  0  0  0  0  0  0  0  0  0  0  0
  188.4700  177.1770  134.6020 C   0  0  0  0  0  3  0  0  0  0  0  0
  189.1100  177.8810  135.6190 C   0  0  0  0  0  3  0  0  0  0  0  0
  188.4840  177.7060  139.9630 S   0  0  0  0  0  0  0  0  0  0  0  0
  187.0580  177.8760  136.9490 C   0  0  0  0  0  0  0  0  0  0  0  0
  186.7560  178.7170  141.8130 C   0  0  0  0  0  2  0  0  0  0  0  0
  187.1050  176.9180  134.6940 C   0  0  0  0  0  3  0  0  0  0  0  0
  184.8790  178.0980  138.0660 C   0  0  0  0  0  0  0  0  0  0  0  0
  185.0090  177.1630  135.8270 C   0  0  0  0  0  3  0  0  0  0  0  0
  189.0390  179.1600  137.6280 O   0  0  0  0  0  1  0  0  0  0  0  0
  184.7370  178.7400  140.3700 N   0  0  0  0  0  0  0  0  0  0  0  0
  184.1040  178.4910  139.1910 C   0  0  0  0  0  0  0  0  0  0  0  0
  188.2490  178.6190  141.5300 C   0  0  1  0  0  3  0  0  0  0  0  0
  186.8750  178.2820  139.4280 C   0  0  0  0  0  0  0  0  0  0  0  0
  184.2610  177.5920  136.9150 C   0  0  0  0  0  3  0  0  0  0  0  0
  180.3990  177.7100  139.5790 C   0  0  0  0  0  0  0  0  0  0  0  0
  179.8240  178.8510  139.0150 C   0  0  0  0  0  3  0  0  0  0  0  0
  182.6220  178.6120  139.1640 C   0  0  0  0  0  0  0  0  0  0  0  0
  180.6410  179.8690  138.5170 C   0  0  0  0  0  3  0  0  0  0  0  0
  181.7910  177.5890  139.6480 C   0  0  0  0  0  3  0  0  0  0  0  0
  182.0320  179.7470  138.5880 C   0  0  0  0  0  3  0  0  0  0  0  0
  179.6100  176.7190  140.0570 F   0  0  0  0  0  0  0  0  0  0  0  0
  188.2320  177.4540  143.6950 C   0  0  0  0  0  3  0  0  0  0  0  0
  188.9310  177.9190  142.6560 C   0  0  0  0  0  3  0  0  0  0  0  0
  190.3690  176.4480  144.5490 C   0  0  0  0  0  2  0  0  0  0  0  0
  188.8890  176.7500  144.8430 C   0  0  1  0  0  3  0  0  0  0  0  0
  191.2930  177.4740  145.2020 C   0  0  0  0  0  2  0  0  0  0  0  0
  191.1200  177.5060  146.7280 C   0  0  1  0  0  3  0  0  0  0  0  0
  189.7090  177.1280  147.1980 C   0  0  0  0  0  2  0  0  0  0  0  0
  188.6580  177.5090  146.1590 C   0  0  0  0  0  2  0  0  0  0  0  0
  192.0490  176.6550  147.3260 O   0  0  0  0  0  1  0  0  0  0  0  0
  1  8  1  0  0  0  0
  2  8  1  0  0  0  0
  2 13  1  0  0  0  0
  3 17  1  0  0  0  0
  4  9  1  0  0  0  0
  5 10  2  0  0  0  0
  5  6  1  0  0  0  0
  6  2  2  0  0  0  0
  7 16  1  0  0  0  0
  8  3  2  0  0  0  0
 10  1  1  0  0  0  0
 11  3  1  0  0  0  0
 11 15  1  0  0  0  0
 12  1  2  0  0  0  0
 12 18  1  0  0  0  0
 14  4  1  0  0  0  0
 15 14  2  0  0  0  0
 16  9  1  0  0  0  0
 16 27  1  1  0  0  0
 17  7  1  0  0  0  0
 17  4  2  0  0  0  0
 18 11  2  0  0  0  0
 19 23  1  0  0  0  0
 19 25  1  0  0  0  0
 20 19  2  0  0  0  0
 21 15  1  0  0  0  0
 21 23  2  0  0  0  0
 22 24  2  0  0  0  0
 22 20  1  0  0  0  0
 24 21  1  0  0  0  0
 27 26  2  0  0  0  0
 28 29  1  0  0  0  0
 28 30  1  0  0  0  0
 29 26  1  6  0  0  0
 29 33  1  0  0  0  0
 30 31  1  0  0  0  0
 31 32  1  0  0  0  0
 31 34  1  1  0  0  0
 33 32  1  0  0  0  0
M  END
>  <MODEL>
8

>  <REMARK>
 VINA RESULT:      -9.2      3.610      8.825
  Name = 
  3 active torsions:
  status: ('A' for Active; 'I' for Inactive)
    1  A    between atoms: C_3  and  C_13
    2  A    between atoms: C_12  and  C_28
    3  A    between atoms: C_17  and  C_29
                            x       y       z     vdW  Elec       q    Type
                         _______ _______ _______ _____ _____    ______ ____

>  <TORSDO>
F 3

$$$$
=
 OpenBabel11052413583D

 34 39  0  0  1  0  0  0  0  0999 V2000
  185.1450  178.1990  145.0810 C   0  0  0  0  0  0  0  0  0  0  0  0
  185.0570  179.3780  142.9630 C   0  0  0  0  0  0  0  0  0  0  0  0
  187.1580  178.1860  143.6850 C   0  0  0  0  0  0  0  0  0  0  0  0
  189.1540  177.8420  142.3560 C   0  0  0  0  0  0  0  0  0  0  0  0
  183.0410  179.0800  144.2780 C   0  0  0  0  0  3  0  0  0  0  0  0
  183.6870  179.5830  143.1510 C   0  0  0  0  0  3  0  0  0  0  0  0
  187.0070  177.8790  140.8350 S   0  0  0  0  0  0  0  0  0  0  0  0
  185.7890  178.5630  143.8680 C   0  0  0  0  0  0  0  0  0  0  0  0
  189.7230  177.7080  140.9940 C   0  0  0  0  0  2  0  0  0  0  0  0
  183.7770  178.4190  145.2580 C   0  0  0  0  0  3  0  0  0  0  0  0
  187.9140  177.7760  144.8240 C   0  0  0  0  0  0  0  0  0  0  0  0
  185.8740  177.6720  146.1410 C   0  0  0  0  0  3  0  0  0  0  0  0
  185.6780  180.0880  141.9450 O   0  0  0  0  0  1  0  0  0  0  0  0
  189.8810  177.5920  143.4680 N   0  0  0  0  0  0  0  0  0  0  0  0
  189.3120  177.5520  144.7040 C   0  0  0  0  0  0  0  0  0  0  0  0
  188.6270  178.1440  140.0300 C   0  0  1  0  0  3  0  0  0  0  0  0
  187.8010  178.0980  142.4250 C   0  0  0  0  0  0  0  0  0  0  0  0
  187.2480  177.5000  146.0250 C   0  0  0  0  0  3  0  0  0  0  0  0
  192.0550  176.0230  146.8550 C   0  0  0  0  0  0  0  0  0  0  0  0
  191.7840  176.6100  148.0930 C   0  0  0  0  0  3  0  0  0  0  0  0
  190.1950  177.2380  145.8590 C   0  0  0  0  0  0  0  0  0  0  0  0
  190.7160  177.5020  148.2220 C   0  0  0  0  0  3  0  0  0  0  0  0
  191.2610  176.3310  145.7460 C   0  0  0  0  0  3  0  0  0  0  0  0
  189.9240  177.8100  147.1120 C   0  0  0  0  0  3  0  0  0  0  0  0
  193.0850  175.1530  146.7290 F   0  0  0  0  0  0  0  0  0  0  0  0
  189.9130  177.0800  138.2240 C   0  0  0  0  0  3  0  0  0  0  0  0
  188.7240  177.3570  138.7670 C   0  0  0  0  0  3  0  0  0  0  0  0
  191.4620  175.7260  136.7840 C   0  0  0  0  0  2  0  0  0  0  0  0
  190.0420  176.2960  136.9540 C   0  0  1  0  0  3  0  0  0  0  0  0
  191.5320  174.2570  137.1980 C   0  0  0  0  0  2  0  0  0  0  0  0
  190.5790  173.3860  136.3680 C   0  0  1  0  0  3  0  0  0  0  0  0
  189.3300  174.1300  135.8760 C   0  0  0  0  0  2  0  0  0  0  0  0
  188.9310  175.2410  136.8430 C   0  0  0  0  0  2  0  0  0  0  0  0
  191.2600  172.8530  135.2730 O   0  0  0  0  0  1  0  0  0  0  0  0
  1 10  1  0  0  0  0
  1 12  1  0  0  0  0
  2  6  2  0  0  0  0
  2  8  1  0  0  0  0
  3  8  1  0  0  0  0
  3 11  1  0  0  0  0
  4 17  1  0  0  0  0
  4 14  2  0  0  0  0
  5 10  2  0  0  0  0
  6  5  1  0  0  0  0
  7 17  1  0  0  0  0
  8  1  2  0  0  0  0
  9  4  1  0  0  0  0
 11 18  1  0  0  0  0
 13  2  1  0  0  0  0
 14 15  1  0  0  0  0
 15 11  2  0  0  0  0
 15 21  1  0  0  0  0
 16 27  1  6  0  0  0
 16  7  1  0  0  0  0
 16  9  1  0  0  0  0
 17  3  2  0  0  0  0
 18 12  2  0  0  0  0
 19 20  1  0  0  0  0
 20 22  2  0  0  0  0
 21 24  2  0  0  0  0
 23 21  1  0  0  0  0
 23 19  2  0  0  0  0
 24 22  1  0  0  0  0
 25 19  1  0  0  0  0
 26 27  2  0  0  0  0
 28 29  1  0  0  0  0
 28 30  1  0  0  0  0
 29 26  1  1  0  0  0
 31 34  1  6  0  0  0
 31 30  1  0  0  0  0
 32 31  1  0  0  0  0
 32 33  1  0  0  0  0
 33 29  1  0  0  0  0
M  END
>  <MODEL>
9

>  <REMARK>
 VINA RESULT:      -9.2      4.577      8.072
  Name = 
  3 active torsions:
  status: ('A' for Active; 'I' for Inactive)
    1  A    between atoms: C_3  and  C_13
    2  A    between atoms: C_12  and  C_28
    3  A    between atoms: C_17  and  C_29
                            x       y       z     vdW  Elec       q    Type
                         _______ _______ _______ _____ _____    ______ ____

>  <TORSDO>
F 3

$$$$
