=
 OpenBabel11052413503D

 27 31  0  0  1  0  0  0  0  0999 V2000
  187.3030  177.8780  144.0420 C   0  0  0  0  0  3  0  0  0  0  0  0
  187.0510  178.3700  141.6470 C   0  0  0  0  0  0  0  0  0  0  0  0
  189.1650  177.8130  142.5550 O   0  0  0  0  0  0  0  0  0  0  0  0
  187.8440  177.4800  137.4320 C   0  0  0  0  0  3  0  0  0  0  0  0
  189.6380  175.8190  137.4540 F   0  0  0  0  0  0  0  0  0  0  0  0
  186.3830  178.5820  140.4110 N   0  0  0  0  0  0  0  0  0  0  0  0
  189.3150  177.1110  139.3840 C   0  0  0  0  0  0  0  0  0  0  0  0
  190.6710  176.2940  140.1510 Cl  0  0  0  0  0  0  0  0  0  0  0  0
  188.6960  178.3180  140.0530 C   0  0  1  0  0  3  0  0  0  0  0  0
  186.4340  178.2380  142.9440 N   0  0  0  0  0  0  0  0  0  0  0  0
  188.9740  176.7970  138.1170 C   0  0  0  0  0  0  0  0  0  0  0  0
  187.3140  178.5510  139.5080 C   0  0  0  0  0  0  0  0  0  0  0  0
  188.6230  177.6750  143.8480 C   0  0  0  0  0  0  0  0  0  0  0  0
  188.3340  178.1410  141.4820 C   0  0  0  0  0  0  0  0  0  0  0  0
  187.0290  178.3090  138.0940 C   0  0  0  0  0  3  0  0  0  0  0  0
  182.3250  178.9140  143.6570 N   0  0  0  0  0  0  0  0  0  0  0  0
  185.0260  178.4610  143.1810 C   0  0  0  0  0  0  0  0  0  0  0  0
  184.0900  178.3840  142.1390 C   0  0  0  0  0  3  0  0  0  0  0  0
  182.7370  178.6130  142.3970 C   0  0  0  0  0  3  0  0  0  0  0  0
  183.2050  179.0010  144.6890 C   0  0  0  0  0  3  0  0  0  0  0  0
  184.5660  178.7770  144.4700 C   0  0  0  0  0  3  0  0  0  0  0  0
  189.8360  176.9880  147.3580 C   0  0  0  0  0  3  0  0  0  0  0  0
  191.1640  176.6210  147.1330 C   0  0  0  0  0  3  0  0  0  0  0  0
  189.0120  177.3300  146.2810 C   0  0  0  0  0  3  0  0  0  0  0  0
  191.6710  176.5950  145.8300 C   0  0  0  0  0  3  0  0  0  0  0  0
  190.8480  176.9380  144.7540 C   0  0  0  0  0  3  0  0  0  0  0  0
  189.5090  177.3080  144.9700 C   0  0  0  0  0  0  0  0  0  0  0  0
  2 10  1  0  0  0  0
  3 13  1  0  0  0  0
  4 15  2  0  0  0  0
  4 11  1  0  0  0  0
  5 11  1  0  0  0  0
  6  2  1  0  0  0  0
  7  8  1  0  0  0  0
  9  7  1  6  0  0  0
  9 14  1  0  0  0  0
 10 17  1  0  0  0  0
 10  1  1  0  0  0  0
 11  7  2  0  0  0  0
 12  9  1  0  0  0  0
 12  6  2  0  0  0  0
 13  1  2  0  0  0  0
 13 27  1  0  0  0  0
 14  2  2  0  0  0  0
 14  3  1  0  0  0  0
 15 12  1  0  0  0  0
 16 20  1  0  0  0  0
 17 21  1  0  0  0  0
 18 19  1  0  0  0  0
 18 17  2  0  0  0  0
 19 16  2  0  0  0  0
 21 20  2  0  0  0  0
 23 22  1  0  0  0  0
 24 22  2  0  0  0  0
 25 23  2  0  0  0  0
 26 27  2  0  0  0  0
 26 25  1  0  0  0  0
 27 24  1  0  0  0  0
M  END
>  <MODEL>
1

>  <REMARK>
 VINA RESULT:      -9.7      0.000      0.000
  Name = 
  2 active torsions:
  status: ('A' for Active; 'I' for Inactive)
    1  A    between atoms: C_9  and  N_15
    2  A    between atoms: C_18  and  C_26
                            x       y       z     vdW  Elec       q    Type
                         _______ _______ _______ _____ _____    ______ ____

>  <TORSDO>
F 2

$$$$
=
 OpenBabel11052413503D

 27 31  0  0  1  0  0  0  0  0999 V2000
  186.1180  178.1130  143.8780 C   0  0  0  0  0  3  0  0  0  0  0  0
  186.5070  178.4270  141.4720 C   0  0  0  0  0  0  0  0  0  0  0  0
  188.3160  178.0660  142.9560 O   0  0  0  0  0  0  0  0  0  0  0  0
  188.4550  177.3100  137.7110 C   0  0  0  0  0  3  0  0  0  0  0  0
  190.2440  175.7700  138.3480 F   0  0  0  0  0  0  0  0  0  0  0  0
  186.1930  178.5140  140.0890 N   0  0  0  0  0  0  0  0  0  0  0  0
  189.3530  177.1650  140.0090 C   0  0  0  0  0  0  0  0  0  0  0  0
  190.4820  176.4870  141.1750 Cl  0  0  0  0  0  0  0  0  0  0  0  0
  188.5250  178.3720  140.3880 C   0  0  1  0  0  3  0  0  0  0  0  0
  185.5660  178.3450  142.5610 N   0  0  0  0  0  0  0  0  0  0  0  0
  189.3830  176.7460  138.7270 C   0  0  0  0  0  0  0  0  0  0  0  0
  187.3340  178.4810  139.4740 C   0  0  0  0  0  0  0  0  0  0  0  0
  187.4480  177.9810  144.0630 C   0  0  0  0  0  0  0  0  0  0  0  0
  187.7950  178.2690  141.6760 C   0  0  0  0  0  0  0  0  0  0  0  0
  187.4560  178.1280  138.0600 C   0  0  0  0  0  3  0  0  0  0  0  0
  181.3940  178.8090  142.0870 N   0  0  0  0  0  0  0  0  0  0  0  0
  184.1390  178.4940  142.3940 C   0  0  0  0  0  0  0  0  0  0  0  0
  183.5150  178.2130  141.1680 C   0  0  0  0  0  3  0  0  0  0  0  0
  182.1360  178.3750  141.0330 C   0  0  0  0  0  3  0  0  0  0  0  0
  181.9650  179.0940  143.2860 C   0  0  0  0  0  3  0  0  0  0  0  0
  183.3430  178.9430  143.4600 C   0  0  0  0  0  3  0  0  0  0  0  0
  187.7200  177.7330  147.8210 C   0  0  0  0  0  3  0  0  0  0  0  0
  189.0420  177.3140  147.9830 C   0  0  0  0  0  3  0  0  0  0  0  0
  187.2060  177.9480  146.5390 C   0  0  0  0  0  3  0  0  0  0  0  0
  189.8530  177.1090  146.8630 C   0  0  0  0  0  3  0  0  0  0  0  0
  189.3400  177.3250  145.5810 C   0  0  0  0  0  3  0  0  0  0  0  0
  188.0100  177.7460  145.4070 C   0  0  0  0  0  0  0  0  0  0  0  0
  1 13  2  0  0  0  0
  2 14  2  0  0  0  0
  2 10  1  0  0  0  0
  3 13  1  0  0  0  0
  4 15  2  0  0  0  0
  4 11  1  0  0  0  0
  5 11  1  0  0  0  0
  6  2  1  0  0  0  0
  7  9  1  0  0  0  0
  7  8  1  0  0  0  0
  9 12  1  6  0  0  0
  9 14  1  0  0  0  0
 10  1  1  0  0  0  0
 11  7  2  0  0  0  0
 12  6  2  0  0  0  0
 13 27  1  0  0  0  0
 14  3  1  0  0  0  0
 15 12  1  0  0  0  0
 16 20  1  0  0  0  0
 17 10  1  0  0  0  0
 17 21  1  0  0  0  0
 18 17  2  0  0  0  0
 19 18  1  0  0  0  0
 19 16  2  0  0  0  0
 20 21  2  0  0  0  0
 22 23  1  0  0  0  0
 24 22  2  0  0  0  0
 25 23  2  0  0  0  0
 26 25  1  0  0  0  0
 27 26  2  0  0  0  0
 27 24  1  0  0  0  0
M  END
>  <MODEL>
2

>  <REMARK>
 VINA RESULT:      -9.6      1.055      1.350
  Name = 
  2 active torsions:
  status: ('A' for Active; 'I' for Inactive)
    1  A    between atoms: C_9  and  N_15
    2  A    between atoms: C_18  and  C_26
                            x       y       z     vdW  Elec       q    Type
                         _______ _______ _______ _____ _____    ______ ____

>  <TORSDO>
F 2

$$$$
=
 OpenBabel11052413503D

 27 31  0  0  1  0  0  0  0  0999 V2000
  186.9810  178.0690  141.7000 C   0  0  0  0  0  3  0  0  0  0  0  0
  189.1270  177.9760  142.8950 C   0  0  0  0  0  0  0  0  0  0  0  0
  187.1060  178.3740  144.0610 O   0  0  0  0  0  0  0  0  0  0  0  0
  191.6120  176.6330  146.2430 C   0  0  0  0  0  3  0  0  0  0  0  0
  190.0420  175.7370  147.8890 F   0  0  0  0  0  0  0  0  0  0  0  0
  190.5060  177.7020  143.1040 N   0  0  0  0  0  0  0  0  0  0  0  0
  189.2020  177.1780  146.2400 C   0  0  0  0  0  0  0  0  0  0  0  0
  187.5980  177.0470  146.9510 Cl  0  0  0  0  0  0  0  0  0  0  0  0
  189.4540  178.1980  145.1520 C   0  0  1  0  0  3  0  0  0  0  0  0
  188.4150  177.8880  141.6440 N   0  0  0  0  0  0  0  0  0  0  0  0
  190.2400  176.5300  146.8070 C   0  0  0  0  0  0  0  0  0  0  0  0
  190.6910  177.8260  144.3810 C   0  0  0  0  0  0  0  0  0  0  0  0
  186.3540  178.3050  142.8720 C   0  0  0  0  0  0  0  0  0  0  0  0
  188.4890  178.1820  144.0240 C   0  0  0  0  0  0  0  0  0  0  0  0
  191.8380  177.2350  145.0700 C   0  0  0  0  0  3  0  0  0  0  0  0
  190.3090  177.2150  137.9280 N   0  0  0  0  0  0  0  0  0  0  0  0
  189.0620  177.6470  140.3750 C   0  0  0  0  0  0  0  0  0  0  0  0
  190.0860  176.6960  140.2480 C   0  0  0  0  0  3  0  0  0  0  0  0
  190.6990  176.4920  139.0110 C   0  0  0  0  0  3  0  0  0  0  0  0
  189.3230  178.1460  138.0170 C   0  0  0  0  0  3  0  0  0  0  0  0
  188.6860  178.3790  139.2370 C   0  0  0  0  0  3  0  0  0  0  0  0
  182.8820  178.8900  144.2380 C   0  0  0  0  0  3  0  0  0  0  0  0
  182.1090  178.8500  143.0760 C   0  0  0  0  0  3  0  0  0  0  0  0
  184.2670  178.7120  144.1640 C   0  0  0  0  0  3  0  0  0  0  0  0
  182.7200  178.6320  141.8370 C   0  0  0  0  0  3  0  0  0  0  0  0
  184.1040  178.4530  141.7630 C   0  0  0  0  0  3  0  0  0  0  0  0
  184.8910  178.4920  142.9270 C   0  0  0  0  0  0  0  0  0  0  0  0
  1 13  2  0  0  0  0
  2  6  1  0  0  0  0
  2 14  2  0  0  0  0
  4 11  1  0  0  0  0
  6 12  2  0  0  0  0
  7 11  2  0  0  0  0
  7  8  1  0  0  0  0
  9 14  1  6  0  0  0
  9  7  1  0  0  0  0
 10  1  1  0  0  0  0
 10  2  1  0  0  0  0
 11  5  1  0  0  0  0
 12 15  1  0  0  0  0
 12  9  1  0  0  0  0
 13 27  1  0  0  0  0
 13  3  1  0  0  0  0
 14  3  1  0  0  0  0
 15  4  2  0  0  0  0
 16 20  2  0  0  0  0
 16 19  1  0  0  0  0
 17 10  1  0  0  0  0
 18 17  1  0  0  0  0
 19 18  2  0  0  0  0
 20 21  1  0  0  0  0
 21 17  2  0  0  0  0
 23 22  2  0  0  0  0
 24 22  1  0  0  0  0
 25 23  1  0  0  0  0
 26 25  2  0  0  0  0
 26 27  1  0  0  0  0
 27 24  2  0  0  0  0
M  END
>  <MODEL>
3

>  <REMARK>
 VINA RESULT:      -9.4      3.029      7.020
  Name = 
  2 active torsions:
  status: ('A' for Active; 'I' for Inactive)
    1  A    between atoms: C_9  and  N_15
    2  A    between atoms: C_18  and  C_26
                            x       y       z     vdW  Elec       q    Type
                         _______ _______ _______ _____ _____    ______ ____

>  <TORSDO>
F 2

$$$$
=
 OpenBabel11052413503D

 27 31  0  0  1  0  0  0  0  0999 V2000
  185.3800  178.3650  142.2290 C   0  0  0  0  0  3  0  0  0  0  0  0
  186.6100  178.4700  140.1040 C   0  0  0  0  0  0  0  0  0  0  0  0
  187.7620  178.2710  142.1630 O   0  0  0  0  0  0  0  0  0  0  0  0
  189.7560  177.0530  137.4050 C   0  0  0  0  0  3  0  0  0  0  0  0
  191.1720  175.6040  138.7740 F   0  0  0  0  0  0  0  0  0  0  0  0
  186.8140  178.4280  138.6980 N   0  0  0  0  0  0  0  0  0  0  0  0
  189.7690  177.1270  139.8750 C   0  0  0  0  0  0  0  0  0  0  0  0
  190.3940  176.5750  141.4230 Cl  0  0  0  0  0  0  0  0  0  0  0  0
  188.8810  178.3510  139.8230 C   0  0  1  0  0  3  0  0  0  0  0  0
  185.3410  178.4690  140.7870 N   0  0  0  0  0  0  0  0  0  0  0  0
  190.2490  176.5970  138.7310 C   0  0  0  0  0  0  0  0  0  0  0  0
  188.0990  178.3580  138.5390 C   0  0  0  0  0  0  0  0  0  0  0  0
  186.5540  178.2700  142.8890 C   0  0  0  0  0  0  0  0  0  0  0  0
  187.7370  178.3510  140.7690 C   0  0  0  0  0  0  0  0  0  0  0  0
  188.7120  177.8830  137.2990 C   0  0  0  0  0  3  0  0  0  0  0  0
  181.6120  178.7820  138.8250 N   0  0  0  0  0  0  0  0  0  0  0  0
  184.0710  178.5800  140.1080 C   0  0  0  0  0  0  0  0  0  0  0  0
  183.7430  179.7200  139.3570 C   0  0  0  0  0  3  0  0  0  0  0  0
  182.5040  179.8030  138.7190 C   0  0  0  0  0  3  0  0  0  0  0  0
  181.8960  177.6660  139.5470 C   0  0  0  0  0  3  0  0  0  0  0  0
  183.1250  177.5460  140.1990 C   0  0  0  0  0  3  0  0  0  0  0  0
  187.7760  177.5030  146.3790 C   0  0  0  0  0  3  0  0  0  0  0  0
  186.7060  177.9480  147.1590 C   0  0  0  0  0  3  0  0  0  0  0  0
  187.7200  177.6120  144.9860 C   0  0  0  0  0  3  0  0  0  0  0  0
  185.5780  178.5020  146.5460 C   0  0  0  0  0  3  0  0  0  0  0  0
  185.5220  178.6100  145.1540 C   0  0  0  0  0  3  0  0  0  0  0  0
  186.5940  178.1660  144.3610 C   0  0  0  0  0  0  0  0  0  0  0  0
  1 13  2  0  0  0  0
  2 14  2  0  0  0  0
  2 10  1  0  0  0  0
  3 13  1  0  0  0  0
  4 11  1  0  0  0  0
  6  2  1  0  0  0  0
  7  8  1  0  0  0  0
  9 12  1  6  0  0  0
  9  7  1  0  0  0  0
  9 14  1  0  0  0  0
 10  1  1  0  0  0  0
 11  5  1  0  0  0  0
 11  7  2  0  0  0  0
 12  6  2  0  0  0  0
 13 27  1  0  0  0  0
 14  3  1  0  0  0  0
 15  4  2  0  0  0  0
 15 12  1  0  0  0  0
 16 20  1  0  0  0  0
 17 21  1  0  0  0  0
 17 10  1  0  0  0  0
 18 17  2  0  0  0  0
 19 16  2  0  0  0  0
 19 18  1  0  0  0  0
 20 21  2  0  0  0  0
 22 23  1  0  0  0  0
 24 22  2  0  0  0  0
 25 23  2  0  0  0  0
 26 25  1  0  0  0  0
 27 24  1  0  0  0  0
 27 26  2  0  0  0  0
M  END
>  <MODEL>
4

>  <REMARK>
 VINA RESULT:      -9.3      2.004      3.154
  Name = 
  2 active torsions:
  status: ('A' for Active; 'I' for Inactive)
    1  A    between atoms: C_9  and  N_15
    2  A    between atoms: C_18  and  C_26
                            x       y       z     vdW  Elec       q    Type
                         _______ _______ _______ _____ _____    ______ ____

>  <TORSDO>
F 2

$$$$
=
 OpenBabel11052413503D

 27 31  0  0  1  0  0  0  0  0999 V2000
  188.7740  177.5680  142.4140 C   0  0  0  0  0  3  0  0  0  0  0  0
  186.7300  178.4740  143.4350 C   0  0  0  0  0  0  0  0  0  0  0  0
  187.0330  178.5130  141.0870 O   0  0  0  0  0  0  0  0  0  0  0  0
  182.3740  178.9170  143.5840 C   0  0  0  0  0  3  0  0  0  0  0  0
  181.5670  178.0460  141.4470 F   0  0  0  0  0  0  0  0  0  0  0  0
  185.7570  178.7120  144.4430 N   0  0  0  0  0  0  0  0  0  0  0  0
  183.8260  178.6580  141.6000 C   0  0  0  0  0  0  0  0  0  0  0  0
  184.0520  178.2240  139.9110 Cl  0  0  0  0  0  0  0  0  0  0  0  0
  184.9320  179.3780  142.3400 C   0  0  1  0  0  3  0  0  0  0  0  0
  188.0120  177.8380  143.6130 N   0  0  0  0  0  0  0  0  0  0  0  0
  182.6050  178.5430  142.1640 C   0  0  0  0  0  0  0  0  0  0  0  0
  184.7380  179.2220  143.8240 C   0  0  0  0  0  0  0  0  0  0  0  0
  188.2960  177.8980  141.1960 C   0  0  0  0  0  0  0  0  0  0  0  0
  186.2780  178.7610  142.2360 C   0  0  0  0  0  0  0  0  0  0  0  0
  183.3920  179.2260  144.3960 C   0  0  0  0  0  3  0  0  0  0  0  0
  189.6170  176.8210  147.3860 N   0  0  0  0  0  0  0  0  0  0  0  0
  188.5520  177.4840  144.9050 C   0  0  0  0  0  0  0  0  0  0  0  0
  187.7530  177.5020  146.0590 C   0  0  0  0  0  3  0  0  0  0  0  0
  188.3050  177.1650  147.2960 C   0  0  0  0  0  3  0  0  0  0  0  0
  190.4200  176.7970  146.2900 C   0  0  0  0  0  3  0  0  0  0  0  0
  189.9040  177.1280  145.0360 C   0  0  0  0  0  3  0  0  0  0  0  0
  189.4300  177.9830  137.5940 C   0  0  0  0  0  3  0  0  0  0  0  0
  190.5330  177.1270  137.6240 C   0  0  0  0  0  3  0  0  0  0  0  0
  188.7050  178.2310  138.7640 C   0  0  0  0  0  3  0  0  0  0  0  0
  190.9130  176.5180  138.8230 C   0  0  0  0  0  3  0  0  0  0  0  0
  190.1880  176.7650  139.9920 C   0  0  0  0  0  3  0  0  0  0  0  0
  189.0760  177.6240  139.9730 C   0  0  0  0  0  0  0  0  0  0  0  0
  1 10  1  0  0  0  0
  2 10  1  0  0  0  0
  2  6  1  0  0  0  0
  3 13  1  0  0  0  0
  3 14  1  0  0  0  0
  4 15  2  0  0  0  0
  5 11  1  0  0  0  0
  7 11  2  0  0  0  0
  8  7  1  0  0  0  0
  9  7  1  6  0  0  0
  9 12  1  0  0  0  0
 10 17  1  0  0  0  0
 11  4  1  0  0  0  0
 12 15  1  0  0  0  0
 12  6  2  0  0  0  0
 13  1  2  0  0  0  0
 14  9  1  0  0  0  0
 14  2  2  0  0  0  0
 17 21  2  0  0  0  0
 17 18  1  0  0  0  0
 18 19  2  0  0  0  0
 19 16  1  0  0  0  0
 20 16  2  0  0  0  0
 21 20  1  0  0  0  0
 22 23  2  0  0  0  0
 22 24  1  0  0  0  0
 23 25  1  0  0  0  0
 24 27  2  0  0  0  0
 25 26  2  0  0  0  0
 27 26  1  0  0  0  0
 27 13  1  0  0  0  0
M  END
>  <MODEL>
5

>  <REMARK>
 VINA RESULT:      -9.1      2.749      6.257
  Name = 
  2 active torsions:
  status: ('A' for Active; 'I' for Inactive)
    1  A    between atoms: C_9  and  N_15
    2  A    between atoms: C_18  and  C_26
                            x       y       z     vdW  Elec       q    Type
                         _______ _______ _______ _____ _____    ______ ____

>  <TORSDO>
F 2

$$$$
=
 OpenBabel11052413503D

 27 31  0  0  1  0  0  0  0  0999 V2000
  188.4700  177.8150  140.6400 C   0  0  0  0  0  3  0  0  0  0  0  0
  190.0350  177.7570  142.5330 C   0  0  0  0  0  0  0  0  0  0  0  0
  187.7780  178.4010  142.8450 O   0  0  0  0  0  0  0  0  0  0  0  0
  191.0370  176.7060  146.6670 C   0  0  0  0  0  3  0  0  0  0  0  0
  188.9090  176.1030  147.7090 F   0  0  0  0  0  0  0  0  0  0  0  0
  191.2180  177.4390  143.2530 N   0  0  0  0  0  0  0  0  0  0  0  0
  188.8450  177.3730  145.7390 C   0  0  0  0  0  0  0  0  0  0  0  0
  187.0890  177.4140  145.8290 Cl  0  0  0  0  0  0  0  0  0  0  0  0
  189.5600  178.2370  144.7230 C   0  0  1  0  0  3  0  0  0  0  0  0
  189.8060  177.5530  141.1250 N   0  0  0  0  0  0  0  0  0  0  0  0
  189.5510  176.7450  146.7020 C   0  0  0  0  0  0  0  0  0  0  0  0
  190.9490  177.7090  144.4930 C   0  0  0  0  0  0  0  0  0  0  0  0
  187.4930  178.2250  141.4760 C   0  0  0  0  0  0  0  0  0  0  0  0
  189.0590  178.1330  143.3300 C   0  0  0  0  0  0  0  0  0  0  0  0
  191.7180  177.1480  145.6040 C   0  0  0  0  0  3  0  0  0  0  0  0
  192.7970  176.3080  138.4120 N   0  0  0  0  0  0  0  0  0  0  0  0
  190.8360  177.1250  140.2060 C   0  0  0  0  0  0  0  0  0  0  0  0
  192.1760  177.5020  140.3850 C   0  0  0  0  0  3  0  0  0  0  0  0
  193.1470  177.0810  139.4750 C   0  0  0  0  0  3  0  0  0  0  0  0
  191.5090  175.9270  138.2070 C   0  0  0  0  0  3  0  0  0  0  0  0
  190.5090  176.3290  139.0960 C   0  0  0  0  0  3  0  0  0  0  0  0
  183.7610  178.8060  141.4350 C   0  0  0  0  0  3  0  0  0  0  0  0
  183.5190  179.0000  140.0740 C   0  0  0  0  0  3  0  0  0  0  0  0
  185.0610  178.5550  141.8860 C   0  0  0  0  0  3  0  0  0  0  0  0
  184.5760  178.9420  139.1610 C   0  0  0  0  0  3  0  0  0  0  0  0
  185.8740  178.6900  139.6110 C   0  0  0  0  0  3  0  0  0  0  0  0
  186.1290  178.4940  140.9790 C   0  0  0  0  0  0  0  0  0  0  0  0
  1 10  1  0  0  0  0
  1 13  2  0  0  0  0
  2  6  1  0  0  0  0
  2 14  2  0  0  0  0
  3 14  1  0  0  0  0
  4 11  1  0  0  0  0
  6 12  2  0  0  0  0
  7  8  1  0  0  0  0
  7 11  2  0  0  0  0
  9 14  1  6  0  0  0
  9  7  1  0  0  0  0
 10  2  1  0  0  0  0
 11  5  1  0  0  0  0
 12  9  1  0  0  0  0
 12 15  1  0  0  0  0
 13  3  1  0  0  0  0
 15  4  2  0  0  0  0
 16 19  1  0  0  0  0
 17 18  1  0  0  0  0
 17 10  1  0  0  0  0
 19 18  2  0  0  0  0
 20 16  2  0  0  0  0
 20 21  1  0  0  0  0
 21 17  2  0  0  0  0
 22 24  1  0  0  0  0
 23 22  2  0  0  0  0
 25 26  2  0  0  0  0
 25 23  1  0  0  0  0
 26 27  1  0  0  0  0
 27 13  1  0  0  0  0
 27 24  2  0  0  0  0
M  END
>  <MODEL>
6

>  <REMARK>
 VINA RESULT:      -9.0      3.356      7.613
  Name = 
  2 active torsions:
  status: ('A' for Active; 'I' for Inactive)
    1  A    between atoms: C_9  and  N_15
    2  A    between atoms: C_18  and  C_26
                            x       y       z     vdW  Elec       q    Type
                         _______ _______ _______ _____ _____    ______ ____

>  <TORSDO>
F 2

$$$$
=
 OpenBabel11052413503D

 27 31  0  0  1  0  0  0  0  0999 V2000
  187.8450  177.6650  143.4200 C   0  0  0  0  0  3  0  0  0  0  0  0
  187.4560  178.2950  141.0770 C   0  0  0  0  0  0  0  0  0  0  0  0
  189.5890  177.5610  141.7980 O   0  0  0  0  0  0  0  0  0  0  0  0
  187.8880  177.5770  136.7770 C   0  0  0  0  0  3  0  0  0  0  0  0
  189.5660  175.8090  136.5870 F   0  0  0  0  0  0  0  0  0  0  0  0
  186.7180  178.6110  139.9050 N   0  0  0  0  0  0  0  0  0  0  0  0
  189.4660  177.0170  138.5950 C   0  0  0  0  0  0  0  0  0  0  0  0
  190.8170  176.0790  139.2190 Cl  0  0  0  0  0  0  0  0  0  0  0  0
  188.9770  178.2240  139.3640 C   0  0  1  0  0  3  0  0  0  0  0  0
  186.9260  178.1350  142.4080 N   0  0  0  0  0  0  0  0  0  0  0  0
  189.0160  176.7910  137.3430 C   0  0  0  0  0  0  0  0  0  0  0  0
  187.5770  178.5690  138.9350 C   0  0  0  0  0  0  0  0  0  0  0  0
  189.1320  177.3900  143.1190 C   0  0  0  0  0  0  0  0  0  0  0  0
  188.7060  177.9960  140.8060 C   0  0  0  0  0  0  0  0  0  0  0  0
  187.1780  178.4200  137.5360 C   0  0  0  0  0  3  0  0  0  0  0  0
  182.9110  178.9770  143.4210 N   0  0  0  0  0  0  0  0  0  0  0  0
  185.5570  178.4310  142.7600 C   0  0  0  0  0  0  0  0  0  0  0  0
  185.2050  178.8090  144.0650 C   0  0  0  0  0  3  0  0  0  0  0  0
  183.8720  179.0800  144.3780 C   0  0  0  0  0  3  0  0  0  0  0  0
  183.2170  178.6100  142.1480 C   0  0  0  0  0  3  0  0  0  0  0  0
  184.5390  178.3310  141.7970 C   0  0  0  0  0  3  0  0  0  0  0  0
  190.7670  176.8630  146.4830 C   0  0  0  0  0  3  0  0  0  0  0  0
  191.8350  176.0260  146.1520 C   0  0  0  0  0  3  0  0  0  0  0  0
  189.8880  177.3030  145.4880 C   0  0  0  0  0  3  0  0  0  0  0  0
  192.0260  175.6290  144.8250 C   0  0  0  0  0  3  0  0  0  0  0  0
  191.1480  176.0700  143.8310 C   0  0  0  0  0  3  0  0  0  0  0  0
  190.0700  176.9120  144.1540 C   0  0  0  0  0  0  0  0  0  0  0  0
  2 10  1  0  0  0  0
  3 13  1  0  0  0  0
  4 11  1  0  0  0  0
  4 15  2  0  0  0  0
  5 11  1  0  0  0  0
  6  2  1  0  0  0  0
  7  8  1  0  0  0  0
  9  7  1  6  0  0  0
  9 14  1  0  0  0  0
 10 17  1  0  0  0  0
 10  1  1  0  0  0  0
 11  7  2  0  0  0  0
 12  9  1  0  0  0  0
 12  6  2  0  0  0  0
 13  1  2  0  0  0  0
 13 27  1  0  0  0  0
 14  2  2  0  0  0  0
 14  3  1  0  0  0  0
 15 12  1  0  0  0  0
 16 19  1  0  0  0  0
 17 18  1  0  0  0  0
 18 19  2  0  0  0  0
 20 16  2  0  0  0  0
 21 20  1  0  0  0  0
 21 17  2  0  0  0  0
 23 22  1  0  0  0  0
 24 22  2  0  0  0  0
 25 23  2  0  0  0  0
 26 27  2  0  0  0  0
 26 25  1  0  0  0  0
 27 24  1  0  0  0  0
M  END
>  <MODEL>
7

>  <REMARK>
 VINA RESULT:      -8.8      0.813      1.280
  Name = 
  2 active torsions:
  status: ('A' for Active; 'I' for Inactive)
    1  A    between atoms: C_9  and  N_15
    2  A    between atoms: C_18  and  C_26
                            x       y       z     vdW  Elec       q    Type
                         _______ _______ _______ _____ _____    ______ ____

>  <TORSDO>
F 2

$$$$
=
 OpenBabel11052413503D

 27 31  0  0  1  0  0  0  0  0999 V2000
  186.1330  178.1230  144.7900 C   0  0  0  0  0  3  0  0  0  0  0  0
  188.2580  177.2700  143.8980 C   0  0  0  0  0  0  0  0  0  0  0  0
  186.3750  177.5420  142.4900 O   0  0  0  0  0  0  0  0  0  0  0  0
  191.4040  177.2080  140.8500 C   0  0  0  0  0  3  0  0  0  0  0  0
  190.4850  178.4490  138.9540 F   0  0  0  0  0  0  0  0  0  0  0  0
  189.6490  176.9780  143.8640 N   0  0  0  0  0  0  0  0  0  0  0  0
  188.9850  177.6170  140.5530 C   0  0  0  0  0  0  0  0  0  0  0  0
  187.6420  178.2680  139.6230 Cl  0  0  0  0  0  0  0  0  0  0  0  0
  188.7060  176.7010  141.7240 C   0  0  1  0  0  3  0  0  0  0  0  0
  187.5100  177.7540  145.0320 N   0  0  0  0  0  0  0  0  0  0  0  0
  190.2470  177.7610  140.0980 C   0  0  0  0  0  0  0  0  0  0  0  0
  189.9030  176.6580  142.6340 C   0  0  0  0  0  0  0  0  0  0  0  0
  185.5890  178.0170  143.5590 C   0  0  0  0  0  0  0  0  0  0  0  0
  187.7110  177.2010  142.7060 C   0  0  0  0  0  0  0  0  0  0  0  0
  191.2550  176.6930  142.0760 C   0  0  0  0  0  3  0  0  0  0  0  0
  189.1050  178.0680  148.9320 N   0  0  0  0  0  0  0  0  0  0  0  0
  188.0640  177.8670  146.3610 C   0  0  0  0  0  0  0  0  0  0  0  0
  189.4290  177.6450  146.6040 C   0  0  0  0  0  3  0  0  0  0  0  0
  189.9340  177.7520  147.9010 C   0  0  0  0  0  3  0  0  0  0  0  0
  187.7780  178.2850  148.7330 C   0  0  0  0  0  3  0  0  0  0  0  0
  187.2360  178.1880  147.4490 C   0  0  0  0  0  3  0  0  0  0  0  0
  182.0200  179.0820  144.1860 C   0  0  0  0  0  3  0  0  0  0  0  0
  181.5000  179.1100  142.8900 C   0  0  0  0  0  3  0  0  0  0  0  0
  183.3560  178.7250  144.3970 C   0  0  0  0  0  3  0  0  0  0  0  0
  182.3160  178.7810  141.8030 C   0  0  0  0  0  3  0  0  0  0  0  0
  183.6500  178.4240  142.0140 C   0  0  0  0  0  3  0  0  0  0  0  0
  184.1830  178.3930  143.3140 C   0  0  0  0  0  0  0  0  0  0  0  0
  1 10  1  0  0  0  0
  2 10  1  0  0  0  0
  3 14  1  0  0  0  0
  3 13  1  0  0  0  0
  4 15  2  0  0  0  0
  5 11  1  0  0  0  0
  6  2  1  0  0  0  0
  8  7  1  0  0  0  0
  9  7  1  6  0  0  0
  9 12  1  0  0  0  0
  9 14  1  0  0  0  0
 10 17  1  0  0  0  0
 11  7  2  0  0  0  0
 11  4  1  0  0  0  0
 12  6  2  0  0  0  0
 13  1  2  0  0  0  0
 14  2  2  0  0  0  0
 15 12  1  0  0  0  0
 17 18  2  0  0  0  0
 17 21  1  0  0  0  0
 18 19  1  0  0  0  0
 19 16  2  0  0  0  0
 20 16  1  0  0  0  0
 21 20  2  0  0  0  0
 22 24  1  0  0  0  0
 23 22  2  0  0  0  0
 25 26  2  0  0  0  0
 25 23  1  0  0  0  0
 26 27  1  0  0  0  0
 27 13  1  0  0  0  0
 27 24  2  0  0  0  0
M  END
>  <MODEL>
8

>  <REMARK>
 VINA RESULT:      -8.8      2.390      5.746
  Name = 
  2 active torsions:
  status: ('A' for Active; 'I' for Inactive)
    1  A    between atoms: C_9  and  N_15
    2  A    between atoms: C_18  and  C_26
                            x       y       z     vdW  Elec       q    Type
                         _______ _______ _______ _____ _____    ______ ____

>  <TORSDO>
F 2

$$$$
=
 OpenBabel11052413503D

 27 31  0  0  1  0  0  0  0  0999 V2000
  186.2430  178.4330  140.9000 C   0  0  0  0  0  3  0  0  0  0  0  0
  186.9840  177.6730  143.1170 C   0  0  0  0  0  0  0  0  0  0  0  0
  188.4160  177.5130  141.2380 O   0  0  0  0  0  0  0  0  0  0  0  0
  189.9830  177.4430  146.3020 C   0  0  0  0  0  3  0  0  0  0  0  0
  192.0560  178.2550  145.2910 F   0  0  0  0  0  0  0  0  0  0  0  0
  186.9700  177.5270  144.5300 N   0  0  0  0  0  0  0  0  0  0  0  0
  190.3410  177.5440  143.8580 C   0  0  0  0  0  0  0  0  0  0  0  0
  191.3640  177.8890  142.4710 Cl  0  0  0  0  0  0  0  0  0  0  0  0
  189.0350  176.8070  143.6570 C   0  0  1  0  0  3  0  0  0  0  0  0
  185.9450  178.2550  142.3040 N   0  0  0  0  0  0  0  0  0  0  0  0
  190.8140  177.7420  145.1060 C   0  0  0  0  0  0  0  0  0  0  0  0
  188.1310  177.0380  144.8370 C   0  0  0  0  0  0  0  0  0  0  0  0
  187.4390  178.0710  140.3900 C   0  0  0  0  0  0  0  0  0  0  0  0
  188.1480  177.3530  142.5990 C   0  0  0  0  0  0  0  0  0  0  0  0
  188.6890  177.1240  146.1860 C   0  0  0  0  0  3  0  0  0  0  0  0
  182.1510  179.3580  143.8010 N   0  0  0  0  0  0  0  0  0  0  0  0
  184.6520  178.6400  142.8210 C   0  0  0  0  0  0  0  0  0  0  0  0
  184.4870  179.0190  144.1630 C   0  0  0  0  0  3  0  0  0  0  0  0
  183.2240  179.3780  144.6360 C   0  0  0  0  0  3  0  0  0  0  0  0
  182.2750  178.9930  142.4980 C   0  0  0  0  0  3  0  0  0  0  0  0
  183.5220  178.6280  141.9870 C   0  0  0  0  0  3  0  0  0  0  0  0
  186.9990  178.2130  136.6420 C   0  0  0  0  0  3  0  0  0  0  0  0
  188.2770  178.5850  136.2200 C   0  0  0  0  0  3  0  0  0  0  0  0
  186.7320  178.0480  138.0050 C   0  0  0  0  0  3  0  0  0  0  0  0
  189.2900  178.7920  137.1600 C   0  0  0  0  0  3  0  0  0  0  0  0
  189.0240  178.6260  138.5210 C   0  0  0  0  0  3  0  0  0  0  0  0
  187.7410  178.2520  138.9570 C   0  0  0  0  0  0  0  0  0  0  0  0
  1 10  1  0  0  0  0
  2  6  1  0  0  0  0
  3 14  1  0  0  0  0
  6 12  2  0  0  0  0
  7 11  2  0  0  0  0
  8  7  1  0  0  0  0
  9 14  1  6  0  0  0
  9  7  1  0  0  0  0
  9 12  1  0  0  0  0
 10 17  1  0  0  0  0
 10  2  1  0  0  0  0
 11  5  1  0  0  0  0
 11  4  1  0  0  0  0
 12 15  1  0  0  0  0
 13  1  2  0  0  0  0
 13  3  1  0  0  0  0
 14  2  2  0  0  0  0
 15  4  2  0  0  0  0
 16 19  1  0  0  0  0
 17 18  1  0  0  0  0
 18 19  2  0  0  0  0
 20 16  2  0  0  0  0
 21 20  1  0  0  0  0
 21 17  2  0  0  0  0
 22 24  1  0  0  0  0
 23 22  2  0  0  0  0
 23 25  1  0  0  0  0
 24 27  2  0  0  0  0
 25 26  2  0  0  0  0
 26 27  1  0  0  0  0
 27 13  1  0  0  0  0
M  END
>  <MODEL>
9

>  <REMARK>
 VINA RESULT:      -8.8      2.071      5.873
  Name = 
  2 active torsions:
  status: ('A' for Active; 'I' for Inactive)
    1  A    between atoms: C_9  and  N_15
    2  A    between atoms: C_18  and  C_26
                            x       y       z     vdW  Elec       q    Type
                         _______ _______ _______ _____ _____    ______ ____

>  <TORSDO>
F 2

$$$$
