=
 OpenBabel11052416003D

 34 38  0  0  1  0  0  0  0  0999 V2000
  184.4710  178.5890  139.8350 C   0  0  1  0  0  0  0  0  0  0  0  0
  185.6590  177.1400  136.7040 O   0  0  0  0  0  0  0  0  0  0  0  0
  183.4910  177.8710  137.6590 C   0  0  1  0  0  3  0  0  0  0  0  0
  184.7470  179.9600  139.8850 O   0  0  0  0  0  1  0  0  0  0  0  0
  183.1460  178.3140  139.0880 C   0  0  2  0  0  3  0  0  0  0  0  0
  187.7520  177.4280  135.6060 C   0  0  0  0  0  1  0  0  0  0  0  0
  187.0750  177.1370  136.9310 C   0  0  1  0  0  0  0  0  0  0  0  0
  187.5900  178.2120  137.9430 C   0  0  0  0  0  2  0  0  0  0  0  0
  185.0040  178.0490  137.5620 C   0  0  1  0  0  3  0  0  0  0  0  0
  186.8270  178.3720  139.1370 O   0  0  0  0  0  0  0  0  0  0  0  0
  185.5090  177.8880  138.9770 C   0  0  1  0  0  3  0  0  0  0  0  0
  187.5740  175.7550  137.3970 C   0  0  1  0  0  3  0  0  0  0  0  0
  186.6280  174.6460  137.1190 C   0  0  0  0  0  2  0  0  0  0  0  0
  187.7420  174.8930  136.2950 O   0  0  0  0  0  0  0  0  0  0  0  0
  181.5900  179.7220  137.8880 O   0  0  0  0  0  1  0  0  0  0  0  0
  182.1170  179.4470  139.1520 C   0  0  1  0  0  3  0  0  0  0  0  0
  180.9950  179.0840  140.1050 C   0  0  0  0  0  1  0  0  0  0  0  0
  183.0850  176.4680  137.4830 C   0  0  0  0  0  0  0  0  0  0  0  0
  182.7550  175.3170  137.3380 C   0  0  0  0  0  3  0  0  0  0  0  0
  184.4530  178.0260  141.2590 C   0  0  0  0  0  2  0  0  0  0  0  0
  185.5530  178.6060  142.1440 C   0  0  2  0  0  3  0  0  0  0  0  0
  186.2910  177.4810  142.8510 C   0  0  0  0  0  2  0  0  0  0  0  0
  189.4530  177.8170  145.8160 C   0  0  2  0  0  3  0  0  0  0  0  0
  189.6060  176.8780  146.9990 C   0  0  0  0  0  2  0  0  0  0  0  0
  188.0080  178.1060  146.2490 C   0  0  1  0  0  3  0  0  0  0  0  0
  188.1620  177.9370  148.7190 C   0  0  0  0  0  1  0  0  0  0  0  0
  186.9670  177.5610  145.2680 C   0  0  0  0  0  2  0  0  0  0  0  0
  188.1710  177.1560  147.4200 C   0  0  2  0  0  3  0  0  0  0  0  0
  188.7160  177.6870  143.4090 C   0  0  0  0  0  2  0  0  0  0  0  0
  187.2880  178.0410  143.8520 C   0  0  1  0  0  3  0  0  0  0  0  0
  189.5470  177.0230  144.5100 C   0  0  0  0  0  2  0  0  0  0  0  0
  184.9660  179.5010  143.1280 N   0  0  0  0  0  2  0  0  0  0  0  0
  183.4990  178.9820  144.9840 C   0  0  0  0  0  1  0  0  0  0  0  0
  183.6690  178.9500  143.4800 C   0  0  0  0  0  2  0  0  0  0  0  0
  1  4  1  1  0  0  0
  1 20  1  0  0  0  0
  2  7  1  0  0  0  0
  3 18  1  1  0  0  0
  3  5  1  0  0  0  0
  5 16  1  6  0  0  0
  5  1  1  0  0  0  0
  7  6  1  6  0  0  0
  7 12  1  0  0  0  0
  7  8  1  0  0  0  0
  8 10  1  0  0  0  0
  9  2  1  6  0  0  0
  9  3  1  0  0  0  0
  9 11  1  0  0  0  0
 11 10  1  6  0  0  0
 11  1  1  0  0  0  0
 12 13  1  1  0  0  0
 14 13  1  0  0  0  0
 14 12  1  0  0  0  0
 15 16  1  0  0  0  0
 16 17  1  1  0  0  0
 19 18  3  0  0  0  0
 21 20  1  1  0  0  0
 21 22  1  0  0  0  0
 21 32  1  0  0  0  0
 23 31  1  6  0  0  0
 23 25  1  0  0  0  0
 23 24  1  0  0  0  0
 24 28  1  0  0  0  0
 25 27  1  6  0  0  0
 25 28  1  0  0  0  0
 28 26  1  1  0  0  0
 29 30  1  0  0  0  0
 29 31  1  0  0  0  0
 30 22  1  6  0  0  0
 30 27  1  0  0  0  0
 32 34  1  0  0  0  0
 34 33  1  0  0  0  0
M  END
>  <MODEL>
1

>  <REMARK>
 VINA RESULT:      -7.8      0.000      0.000
  Name = 
  9 active torsions:
  status: ('A' for Active; 'I' for Inactive)
    1  A    between atoms: C_1  and  C_8
    2  A    between atoms: C_3  and  C_25
    3  A    between atoms: C_5  and  C_19
    4  A    between atoms: C_6  and  C_18
    5  A    between atoms: C_6  and  C_28
    6  A    between atoms: C_8  and  C_18
    7  A    between atoms: C_12  and  C_20
    8  A    between atoms: C_18  and  N_30
    9  A    between atoms: N_30  and  C_31
                            x       y       z     vdW  Elec       q    Type
                         _______ _______ _______ _____ _____    ______ ____

>  <TORSDO>
F 9

$$$$
=
 OpenBabel11052416003D

 34 38  0  0  1  0  0  0  0  0999 V2000
  184.1490  178.5230  139.7890 C   0  0  1  0  0  0  0  0  0  0  0  0
  185.0850  177.0630  136.5790 O   0  0  0  0  0  0  0  0  0  0  0  0
  182.9930  177.7190  137.7340 C   0  0  1  0  0  3  0  0  0  0  0  0
  184.3670  179.9050  139.7900 O   0  0  0  0  0  1  0  0  0  0  0  0
  182.7710  178.1750  139.1830 C   0  0  2  0  0  3  0  0  0  0  0  0
  187.0440  177.4190  135.2730 C   0  0  0  0  0  1  0  0  0  0  0  0
  186.5160  177.1250  136.6630 C   0  0  1  0  0  0  0  0  0  0  0  0
  187.0800  178.2420  137.6010 C   0  0  0  0  0  2  0  0  0  0  0  0
  184.4780  177.9600  137.4840 C   0  0  1  0  0  3  0  0  0  0  0  0
  186.4330  178.3930  138.8630 O   0  0  0  0  0  0  0  0  0  0  0  0
  185.1280  177.8500  138.8430 C   0  0  1  0  0  3  0  0  0  0  0  0
  187.1200  175.7760  137.0990 C   0  0  1  0  0  3  0  0  0  0  0  0
  186.1670  174.6410  137.0440 C   0  0  0  0  0  2  0  0  0  0  0  0
  187.1140  174.8620  136.0260 O   0  0  0  0  0  0  0  0  0  0  0  0
  181.5190  179.9560  138.1320 O   0  0  0  0  0  1  0  0  0  0  0  0
  181.7030  179.2640  139.3310 C   0  0  1  0  0  3  0  0  0  0  0  0
  180.3890  178.6530  139.7750 C   0  0  0  0  0  1  0  0  0  0  0  0
  182.6350  176.2960  137.6220 C   0  0  0  0  0  0  0  0  0  0  0  0
  182.3420  175.1290  137.5280 C   0  0  0  0  0  3  0  0  0  0  0  0
  184.2980  177.9890  141.2160 C   0  0  0  0  0  2  0  0  0  0  0  0
  183.8210  178.9770  142.2770 C   0  0  2  0  0  3  0  0  0  0  0  0
  184.9910  179.4030  143.1480 C   0  0  0  0  0  2  0  0  0  0  0  0
  187.9330  176.8610  145.0950 C   0  0  2  0  0  3  0  0  0  0  0  0
  189.4310  177.0910  145.0180 C   0  0  0  0  0  2  0  0  0  0  0  0
  187.8670  176.8650  143.5600 C   0  0  1  0  0  3  0  0  0  0  0  0
  190.0580  175.8780  142.9440 C   0  0  0  0  0  1  0  0  0  0  0  0
  187.1140  178.0710  142.9940 C   0  0  0  0  0  2  0  0  0  0  0  0
  189.3630  177.1060  143.4990 C   0  0  2  0  0  3  0  0  0  0  0  0
  185.8310  178.2500  145.1970 C   0  0  0  0  0  2  0  0  0  0  0  0
  185.7440  178.1890  143.6640 C   0  0  1  0  0  3  0  0  0  0  0  0
  187.2540  178.0770  145.7320 C   0  0  0  0  0  2  0  0  0  0  0  0
  182.7990  178.3520  143.1010 N   0  0  0  0  0  2  0  0  0  0  0  0
  180.5110  178.6160  143.8520 C   0  0  0  0  0  1  0  0  0  0  0  0
  181.6920  179.2890  143.1850 C   0  0  0  0  0  2  0  0  0  0  0  0
  1  4  1  6  0  0  0
  1 20  1  0  0  0  0
  2  7  1  0  0  0  0
  3 18  1  1  0  0  0
  3  5  1  0  0  0  0
  5 16  1  6  0  0  0
  5  1  1  0  0  0  0
  7  6  1  6  0  0  0
  7 12  1  0  0  0  0
  7  8  1  0  0  0  0
  8 10  1  0  0  0  0
  9  2  1  6  0  0  0
  9  3  1  0  0  0  0
  9 11  1  0  0  0  0
 11 10  1  6  0  0  0
 11  1  1  0  0  0  0
 12 13  1  1  0  0  0
 14 13  1  0  0  0  0
 14 12  1  0  0  0  0
 15 16  1  0  0  0  0
 16 17  1  6  0  0  0
 19 18  3  0  0  0  0
 21 20  1  6  0  0  0
 21 32  1  0  0  0  0
 21 22  1  0  0  0  0
 23 24  1  6  0  0  0
 23 31  1  0  0  0  0
 25 27  1  1  0  0  0
 25 23  1  0  0  0  0
 27 30  1  0  0  0  0
 28 26  1  6  0  0  0
 28 25  1  0  0  0  0
 28 24  1  0  0  0  0
 29 31  1  0  0  0  0
 30 22  1  6  0  0  0
 30 29  1  0  0  0  0
 32 34  1  0  0  0  0
 34 33  1  0  0  0  0
M  END
>  <MODEL>
2

>  <REMARK>
 VINA RESULT:      -7.2      1.145      2.006
  Name = 
  9 active torsions:
  status: ('A' for Active; 'I' for Inactive)
    1  A    between atoms: C_1  and  C_8
    2  A    between atoms: C_3  and  C_25
    3  A    between atoms: C_5  and  C_19
    4  A    between atoms: C_6  and  C_18
    5  A    between atoms: C_6  and  C_28
    6  A    between atoms: C_8  and  C_18
    7  A    between atoms: C_12  and  C_20
    8  A    between atoms: C_18  and  N_30
    9  A    between atoms: N_30  and  C_31
                            x       y       z     vdW  Elec       q    Type
                         _______ _______ _______ _____ _____    ______ ____

>  <TORSDO>
F 9

$$$$
=
 OpenBabel11052416003D

 34 38  0  0  1  0  0  0  0  0999 V2000
  189.1120  177.4460  138.5340 C   0  0  1  0  0  0  0  0  0  0  0  0
  191.1760  175.7550  136.0450 O   0  0  0  0  0  0  0  0  0  0  0  0
  188.8850  176.6940  136.1690 C   0  0  1  0  0  3  0  0  0  0  0  0
  189.4740  178.7930  138.6480 O   0  0  0  0  0  1  0  0  0  0  0  0
  188.1090  177.2330  137.3790 C   0  0  2  0  0  3  0  0  0  0  0  0
  193.5360  175.8300  135.7380 C   0  0  0  0  0  1  0  0  0  0  0  0
  192.4210  175.6570  136.7510 C   0  0  1  0  0  0  0  0  0  0  0  0
  192.6470  176.7410  137.8550 C   0  0  0  0  0  2  0  0  0  0  0  0
  190.3470  176.7530  136.6010 C   0  0  1  0  0  3  0  0  0  0  0  0
  191.5360  177.0170  138.7050 O   0  0  0  0  0  0  0  0  0  0  0  0
  190.3170  176.6260  138.1070 C   0  0  1  0  0  3  0  0  0  0  0  0
  192.6040  174.2670  137.3910 C   0  0  1  0  0  3  0  0  0  0  0  0
  192.1430  173.1440  136.5390 C   0  0  0  0  0  2  0  0  0  0  0  0
  193.5040  173.4900  136.6350 O   0  0  0  0  0  0  0  0  0  0  0  0
  187.1010  178.6230  135.6770 O   0  0  0  0  0  1  0  0  0  0  0  0
  187.2240  178.4420  137.0560 C   0  0  1  0  0  3  0  0  0  0  0  0
  185.8510  178.2670  137.6720 C   0  0  0  0  0  1  0  0  0  0  0  0
  188.4430  175.3180  135.8930 C   0  0  0  0  0  0  0  0  0  0  0  0
  188.0810  174.1890  135.6690 C   0  0  0  0  0  3  0  0  0  0  0  0
  188.5550  176.9590  139.8740 C   0  0  0  0  0  2  0  0  0  0  0  0
  189.2200  177.6250  141.0760 C   0  0  2  0  0  3  0  0  0  0  0  0
  189.4370  176.6010  142.1780 C   0  0  0  0  0  2  0  0  0  0  0  0
  191.1900  177.2460  146.1040 C   0  0  2  0  0  3  0  0  0  0  0  0
  190.7460  176.5150  147.3580 C   0  0  0  0  0  2  0  0  0  0  0  0
  189.7400  177.6920  145.8660 C   0  0  1  0  0  3  0  0  0  0  0  0
  188.8850  177.9390  148.1820 C   0  0  0  0  0  1  0  0  0  0  0  0
  189.1100  177.0520  144.6260 C   0  0  0  0  0  2  0  0  0  0  0  0
  189.3080  176.9470  147.1140 C   0  0  2  0  0  3  0  0  0  0  0  0
  191.4510  176.7510  143.6450 C   0  0  0  0  0  2  0  0  0  0  0  0
  190.0200  177.2620  143.4150 C   0  0  1  0  0  3  0  0  0  0  0  0
  191.6900  176.2360  145.0660 C   0  0  0  0  0  2  0  0  0  0  0  0
  188.3740  178.7010  141.5670 N   0  0  0  0  0  2  0  0  0  0  0  0
  186.2040  178.3680  142.5900 C   0  0  0  0  0  1  0  0  0  0  0  0
  186.9990  178.3120  141.3030 C   0  0  0  0  0  2  0  0  0  0  0  0
  1  4  1  1  0  0  0
  1 20  1  0  0  0  0
  2  7  1  0  0  0  0
  3 18  1  1  0  0  0
  3  9  1  0  0  0  0
  3  5  1  0  0  0  0
  5 16  1  6  0  0  0
  5  1  1  0  0  0  0
  7  6  1  6  0  0  0
  7 12  1  0  0  0  0
  7  8  1  0  0  0  0
  8 10  1  0  0  0  0
  9  2  1  6  0  0  0
  9 11  1  0  0  0  0
 11  1  1  0  0  0  0
 11 10  1  1  0  0  0
 12 13  1  6  0  0  0
 13 14  1  0  0  0  0
 14 12  1  0  0  0  0
 15 16  1  0  0  0  0
 16 17  1  6  0  0  0
 19 18  3  0  0  0  0
 21 20  1  6  0  0  0
 21 32  1  0  0  0  0
 21 22  1  0  0  0  0
 23 31  1  6  0  0  0
 23 24  1  0  0  0  0
 25 27  1  6  0  0  0
 25 23  1  0  0  0  0
 25 28  1  0  0  0  0
 28 24  1  0  0  0  0
 28 26  1  1  0  0  0
 29 31  1  0  0  0  0
 30 22  1  6  0  0  0
 30 29  1  0  0  0  0
 30 27  1  0  0  0  0
 34 32  1  0  0  0  0
 34 33  1  0  0  0  0
M  END
>  <MODEL>
3

>  <REMARK>
 VINA RESULT:      -7.1      3.028      4.561
  Name = 
  9 active torsions:
  status: ('A' for Active; 'I' for Inactive)
    1  A    between atoms: C_1  and  C_8
    2  A    between atoms: C_3  and  C_25
    3  A    between atoms: C_5  and  C_19
    4  A    between atoms: C_6  and  C_18
    5  A    between atoms: C_6  and  C_28
    6  A    between atoms: C_8  and  C_18
    7  A    between atoms: C_12  and  C_20
    8  A    between atoms: C_18  and  N_30
    9  A    between atoms: N_30  and  C_31
                            x       y       z     vdW  Elec       q    Type
                         _______ _______ _______ _____ _____    ______ ____

>  <TORSDO>
F 9

$$$$
=
 OpenBabel11052416003D

 34 38  0  0  1  0  0  0  0  0999 V2000
  183.6080  178.4070  139.9350 C   0  0  1  0  0  0  0  0  0  0  0  0
  183.2660  176.6270  136.7690 O   0  0  0  0  0  0  0  0  0  0  0  0
  181.7570  177.6470  138.4490 C   0  0  1  0  0  3  0  0  0  0  0  0
  183.9700  179.7420  139.7190 O   0  0  0  0  0  1  0  0  0  0  0  0
  182.0770  178.2220  139.8370 C   0  0  2  0  0  3  0  0  0  0  0  0
  184.7160  176.6150  134.8800 C   0  0  0  0  0  1  0  0  0  0  0  0
  184.6420  176.4890  136.3890 C   0  0  1  0  0  0  0  0  0  0  0  0
  185.6060  177.5720  136.9750 C   0  0  0  0  0  2  0  0  0  0  0  0
  183.0960  177.6570  137.7180 C   0  0  1  0  0  3  0  0  0  0  0  0
  185.4310  177.8940  138.3530 O   0  0  0  0  0  0  0  0  0  0  0  0
  184.1390  177.5430  138.8050 C   0  0  1  0  0  3  0  0  0  0  0  0
  185.1970  175.0980  136.7520 C   0  0  1  0  0  3  0  0  0  0  0  0
  184.2130  174.2090  137.4170 C   0  0  0  0  0  2  0  0  0  0  0  0
  184.5100  174.0920  136.0450 O   0  0  0  0  0  0  0  0  0  0  0  0
  180.4640  179.8740  139.1200 O   0  0  0  0  0  1  0  0  0  0  0  0
  181.2490  179.4600  140.1980 C   0  0  1  0  0  3  0  0  0  0  0  0
  180.3620  179.1670  141.3920 C   0  0  0  0  0  1  0  0  0  0  0  0
  181.2220  176.2860  138.6090 C   0  0  0  0  0  0  0  0  0  0  0  0
  180.7810  175.1710  138.7410 C   0  0  0  0  0  3  0  0  0  0  0  0
  184.1550  177.9500  141.2900 C   0  0  0  0  0  2  0  0  0  0  0  0
  184.2140  179.0740  142.3210 C   0  0  2  0  0  3  0  0  0  0  0  0
  185.6550  179.3100  142.7420 C   0  0  0  0  0  2  0  0  0  0  0  0
  188.8980  176.4140  142.7660 C   0  0  2  0  0  3  0  0  0  0  0  0
  190.3650  176.7870  142.6500 C   0  0  0  0  0  2  0  0  0  0  0  0
  188.6130  177.1850  141.4690 C   0  0  1  0  0  3  0  0  0  0  0  0
  190.7130  176.8480  140.1920 C   0  0  0  0  0  1  0  0  0  0  0  0
  187.7620  178.4380  141.6900 C   0  0  0  0  0  2  0  0  0  0  0  0
  190.0790  177.5600  141.3710 C   0  0  2  0  0  3  0  0  0  0  0  0
  186.8050  177.3630  143.8020 C   0  0  0  0  0  2  0  0  0  0  0  0
  186.5000  178.0760  142.4750 C   0  0  1  0  0  3  0  0  0  0  0  0
  188.2940  177.0750  144.0090 C   0  0  0  0  0  2  0  0  0  0  0  0
  183.4170  178.7140  143.4820 N   0  0  0  0  0  2  0  0  0  0  0  0
  184.1690  178.7460  145.7840 C   0  0  0  0  0  1  0  0  0  0  0  0
  183.8360  179.5840  144.5680 C   0  0  0  0  0  2  0  0  0  0  0  0
  1  4  1  6  0  0  0
  1 20  1  0  0  0  0
  3 18  1  1  0  0  0
  3  5  1  0  0  0  0
  5  1  1  0  0  0  0
  5 16  1  6  0  0  0
  7  6  1  6  0  0  0
  7 12  1  0  0  0  0
  7  2  1  0  0  0  0
  7  8  1  0  0  0  0
  8 10  1  0  0  0  0
  9  2  1  6  0  0  0
  9  3  1  0  0  0  0
  9 11  1  0  0  0  0
 11 10  1  6  0  0  0
 11  1  1  0  0  0  0
 12 13  1  1  0  0  0
 14 12  1  0  0  0  0
 14 13  1  0  0  0  0
 15 16  1  0  0  0  0
 16 17  1  1  0  0  0
 18 19  3  0  0  0  0
 21 20  1  6  0  0  0
 21 22  1  0  0  0  0
 21 32  1  0  0  0  0
 23 24  1  1  0  0  0
 23 31  1  0  0  0  0
 25 27  1  1  0  0  0
 25 23  1  0  0  0  0
 27 30  1  0  0  0  0
 28 26  1  6  0  0  0
 28 25  1  0  0  0  0
 28 24  1  0  0  0  0
 29 31  1  0  0  0  0
 30 22  1  1  0  0  0
 30 29  1  0  0  0  0
 32 34  1  0  0  0  0
 34 33  1  0  0  0  0
M  END
>  <MODEL>
4

>  <REMARK>
 VINA RESULT:      -6.6      1.915      2.946
  Name = 
  9 active torsions:
  status: ('A' for Active; 'I' for Inactive)
    1  A    between atoms: C_1  and  C_8
    2  A    between atoms: C_3  and  C_25
    3  A    between atoms: C_5  and  C_19
    4  A    between atoms: C_6  and  C_18
    5  A    between atoms: C_6  and  C_28
    6  A    between atoms: C_8  and  C_18
    7  A    between atoms: C_12  and  C_20
    8  A    between atoms: C_18  and  N_30
    9  A    between atoms: N_30  and  C_31
                            x       y       z     vdW  Elec       q    Type
                         _______ _______ _______ _____ _____    ______ ____

>  <TORSDO>
F 9

$$$$
=
 OpenBabel11052416003D

 34 38  0  0  1  0  0  0  0  0999 V2000
  183.7730  177.3520  138.6300 C   0  0  1  0  0  0  0  0  0  0  0  0
  186.4120  176.1440  136.4190 O   0  0  0  0  0  0  0  0  0  0  0  0
  184.0510  175.5710  136.9090 C   0  0  1  0  0  3  0  0  0  0  0  0
  183.1930  178.5190  138.1210 O   0  0  0  0  0  1  0  0  0  0  0  0
  183.1230  176.0920  138.0150 C   0  0  2  0  0  3  0  0  0  0  0  0
  188.1790  177.3540  135.3760 C   0  0  0  0  0  1  0  0  0  0  0  0
  187.4410  177.1090  136.6780 C   0  0  1  0  0  0  0  0  0  0  0  0
  186.9370  178.5040  137.1750 C   0  0  0  0  0  2  0  0  0  0  0  0
  185.1440  176.6310  136.8020 C   0  0  1  0  0  3  0  0  0  0  0  0
  185.9150  178.4880  138.1690 O   0  0  0  0  0  0  0  0  0  0  0  0
  185.2190  177.2580  138.1750 C   0  0  1  0  0  3  0  0  0  0  0  0
  188.4770  176.5800  137.6900 C   0  0  1  0  0  3  0  0  0  0  0  0
  189.1230  175.3080  137.2830 C   0  0  0  0  0  2  0  0  0  0  0  0
  189.7620  176.5510  137.1120 O   0  0  0  0  0  0  0  0  0  0  0  0
  181.5550  176.2080  136.1790 O   0  0  0  0  0  1  0  0  0  0  0  0
  181.6670  176.2640  137.5700 C   0  0  1  0  0  3  0  0  0  0  0  0
  180.7970  175.1930  138.1960 C   0  0  0  0  0  1  0  0  0  0  0  0
  184.5860  174.2610  137.3120 C   0  0  0  0  0  0  0  0  0  0  0  0
  185.0240  173.1870  137.6450 C   0  0  0  0  0  3  0  0  0  0  0  0
  183.6700  177.3630  140.1570 C   0  0  0  0  0  2  0  0  0  0  0  0
  183.2790  178.7260  140.7210 C   0  0  2  0  0  3  0  0  0  0  0  0
  184.4320  179.3010  141.5260 C   0  0  0  0  0  2  0  0  0  0  0  0
  186.5460  177.3650  144.7950 C   0  0  2  0  0  3  0  0  0  0  0  0
  187.9340  177.7680  145.2600 C   0  0  0  0  0  2  0  0  0  0  0  0
  187.0880  177.1940  143.3680 C   0  0  1  0  0  3  0  0  0  0  0  0
  189.4080  176.4220  143.7820 C   0  0  0  0  0  1  0  0  0  0  0  0
  186.5340  178.2310  142.3870 C   0  0  0  0  0  2  0  0  0  0  0  0
  188.4660  177.6090  143.8440 C   0  0  2  0  0  3  0  0  0  0  0  0
  184.4800  178.4890  143.8870 C   0  0  0  0  0  2  0  0  0  0  0  0
  185.0060  178.2520  142.4620 C   0  0  1  0  0  3  0  0  0  0  0  0
  185.5880  178.5520  144.9410 C   0  0  0  0  0  2  0  0  0  0  0  0
  182.1090  178.5850  141.5730 N   0  0  0  0  0  2  0  0  0  0  0  0
  179.9670  177.4990  141.2650 C   0  0  0  0  0  1  0  0  0  0  0  0
  180.9560  178.4920  140.6940 C   0  0  0  0  0  2  0  0  0  0  0  0
  1  4  1  6  0  0  0
  1 20  1  0  0  0  0
  2  7  1  0  0  0  0
  3 18  1  1  0  0  0
  3  5  1  0  0  0  0
  5 16  1  6  0  0  0
  5  1  1  0  0  0  0
  7  6  1  6  0  0  0
  7  8  1  0  0  0  0
  7 12  1  0  0  0  0
  8 10  1  0  0  0  0
  9  2  1  1  0  0  0
  9  3  1  0  0  0  0
  9 11  1  0  0  0  0
 11 10  1  6  0  0  0
 11  1  1  0  0  0  0
 12 13  1  6  0  0  0
 14 13  1  0  0  0  0
 14 12  1  0  0  0  0
 15 16  1  0  0  0  0
 16 17  1  1  0  0  0
 18 19  3  0  0  0  0
 21 20  1  1  0  0  0
 21 22  1  0  0  0  0
 21 32  1  0  0  0  0
 23 31  1  6  0  0  0
 23 24  1  0  0  0  0
 25 27  1  6  0  0  0
 25 28  1  0  0  0  0
 25 23  1  0  0  0  0
 27 30  1  0  0  0  0
 28 26  1  1  0  0  0
 28 24  1  0  0  0  0
 29 31  1  0  0  0  0
 30 22  1  6  0  0  0
 30 29  1  0  0  0  0
 34 33  1  0  0  0  0
 34 32  1  0  0  0  0
M  END
>  <MODEL>
5

>  <REMARK>
 VINA RESULT:      -6.6      1.639      2.998
  Name = 
  9 active torsions:
  status: ('A' for Active; 'I' for Inactive)
    1  A    between atoms: C_1  and  C_8
    2  A    between atoms: C_3  and  C_25
    3  A    between atoms: C_5  and  C_19
    4  A    between atoms: C_6  and  C_18
    5  A    between atoms: C_6  and  C_28
    6  A    between atoms: C_8  and  C_18
    7  A    between atoms: C_12  and  C_20
    8  A    between atoms: C_18  and  N_30
    9  A    between atoms: N_30  and  C_31
                            x       y       z     vdW  Elec       q    Type
                         _______ _______ _______ _____ _____    ______ ____

>  <TORSDO>
F 9

$$$$
=
 OpenBabel11052416003D

 34 38  0  0  1  0  0  0  0  0999 V2000
  189.2570  177.4260  139.5690 C   0  0  1  0  0  0  0  0  0  0  0  0
  191.3370  176.2240  136.8230 O   0  0  0  0  0  0  0  0  0  0  0  0
  189.0320  177.0900  137.1110 C   0  0  1  0  0  3  0  0  0  0  0  0
  189.5970  178.7390  139.9140 O   0  0  0  0  0  1  0  0  0  0  0  0
  188.2520  177.3990  138.3960 C   0  0  2  0  0  3  0  0  0  0  0  0
  193.6940  176.3890  136.5310 C   0  0  0  0  0  1  0  0  0  0  0  0
  192.5860  176.0260  137.5000 C   0  0  1  0  0  0  0  0  0  0  0  0
  192.8000  176.9060  138.7750 C   0  0  0  0  0  2  0  0  0  0  0  0
  190.4950  177.0970  137.5450 C   0  0  1  0  0  3  0  0  0  0  0  0
  191.6880  177.0130  139.6620 O   0  0  0  0  0  0  0  0  0  0  0  0
  190.4730  176.7120  139.0060 C   0  0  1  0  0  3  0  0  0  0  0  0
  192.7940  174.5490  137.8900 C   0  0  1  0  0  3  0  0  0  0  0  0
  191.9190  173.6020  137.1570 C   0  0  0  0  0  2  0  0  0  0  0  0
  193.2610  173.8080  136.7860 O   0  0  0  0  0  0  0  0  0  0  0  0
  187.6050  179.3450  137.1160 O   0  0  0  0  0  1  0  0  0  0  0  0
  187.3470  178.6310  138.2880 C   0  0  1  0  0  3  0  0  0  0  0  0
  185.8900  178.2170  138.3240 C   0  0  0  0  0  1  0  0  0  0  0  0
  188.6110  175.7750  136.6010 C   0  0  0  0  0  0  0  0  0  0  0  0
  188.2630  174.6980  136.1840 C   0  0  0  0  0  3  0  0  0  0  0  0
  188.7130  176.7050  140.8060 C   0  0  0  0  0  2  0  0  0  0  0  0
  189.6230  176.8390  142.0250 C   0  0  2  0  0  3  0  0  0  0  0  0
  188.8960  176.3470  143.2660 C   0  0  0  0  0  2  0  0  0  0  0  0
  186.3700  178.6550  145.9480 C   0  0  2  0  0  3  0  0  0  0  0  0
  184.9380  178.2840  146.2880 C   0  0  0  0  0  2  0  0  0  0  0  0
  186.0110  178.6160  144.4550 C   0  0  1  0  0  3  0  0  0  0  0  0
  183.6510  179.3770  144.4680 C   0  0  0  0  0  1  0  0  0  0  0  0
  186.6930  177.4700  143.7030 C   0  0  0  0  0  2  0  0  0  0  0  0
  184.5870  178.2340  144.8090 C   0  0  2  0  0  3  0  0  0  0  0  0
  188.5430  177.4710  145.4670 C   0  0  0  0  0  2  0  0  0  0  0  0
  188.2000  177.4990  143.9690 C   0  0  1  0  0  3  0  0  0  0  0  0
  187.3120  177.5240  146.3740 C   0  0  0  0  0  2  0  0  0  0  0  0
  190.0040  178.2310  142.1990 N   0  0  0  0  0  2  0  0  0  0  0  0
  191.3090  179.2570  143.9620 C   0  0  0  0  0  1  0  0  0  0  0  0
  191.3050  178.2350  142.8460 C   0  0  0  0  0  2  0  0  0  0  0  0
  1  4  1  1  0  0  0
  1 20  1  0  0  0  0
  2  7  1  0  0  0  0
  3 18  1  1  0  0  0
  3  9  1  0  0  0  0
  3  5  1  0  0  0  0
  5 16  1  6  0  0  0
  5  1  1  0  0  0  0
  7  6  1  6  0  0  0
  7 12  1  0  0  0  0
  7  8  1  0  0  0  0
  8 10  1  0  0  0  0
  9  2  1  6  0  0  0
  9 11  1  0  0  0  0
 11  1  1  0  0  0  0
 11 10  1  1  0  0  0
 12 13  1  6  0  0  0
 14 13  1  0  0  0  0
 14 12  1  0  0  0  0
 15 16  1  0  0  0  0
 16 17  1  6  0  0  0
 19 18  3  0  0  0  0
 21 20  1  6  0  0  0
 21 32  1  0  0  0  0
 21 22  1  0  0  0  0
 23 24  1  1  0  0  0
 23 31  1  0  0  0  0
 25 27  1  6  0  0  0
 25 28  1  0  0  0  0
 25 23  1  0  0  0  0
 27 30  1  0  0  0  0
 28 26  1  1  0  0  0
 28 24  1  0  0  0  0
 29 31  1  0  0  0  0
 30 22  1  6  0  0  0
 30 29  1  0  0  0  0
 32 34  1  0  0  0  0
 34 33  1  0  0  0  0
M  END
>  <MODEL>
6

>  <REMARK>
 VINA RESULT:      -6.4      3.164      5.109
  Name = 
  9 active torsions:
  status: ('A' for Active; 'I' for Inactive)
    1  A    between atoms: C_1  and  C_8
    2  A    between atoms: C_3  and  C_25
    3  A    between atoms: C_5  and  C_19
    4  A    between atoms: C_6  and  C_18
    5  A    between atoms: C_6  and  C_28
    6  A    between atoms: C_8  and  C_18
    7  A    between atoms: C_12  and  C_20
    8  A    between atoms: C_18  and  N_30
    9  A    between atoms: N_30  and  C_31
                            x       y       z     vdW  Elec       q    Type
                         _______ _______ _______ _____ _____    ______ ____

>  <TORSDO>
F 9

$$$$
=
 OpenBabel11052416003D

 34 38  0  0  1  0  0  0  0  0999 V2000
  181.7760  179.6230  139.2200 C   0  0  1  0  0  0  0  0  0  0  0  0
  179.8250  177.2640  137.2360 O   0  0  0  0  0  0  0  0  0  0  0  0
  180.1080  177.8200  139.6350 C   0  0  1  0  0  3  0  0  0  0  0  0
  181.2050  180.9000  139.1790 O   0  0  0  0  0  1  0  0  0  0  0  0
  181.1200  178.7520  140.3140 C   0  0  2  0  0  3  0  0  0  0  0  0
  178.9310  177.5130  135.0430 C   0  0  0  0  0  1  0  0  0  0  0  0
  180.1640  177.6850  135.9080 C   0  0  1  0  0  0  0  0  0  0  0  0
  180.5980  179.1820  135.7750 C   0  0  0  0  0  2  0  0  0  0  0  0
  180.0880  178.2790  138.1800 C   0  0  1  0  0  3  0  0  0  0  0  0
  181.4970  179.6690  136.7690 O   0  0  0  0  0  0  0  0  0  0  0  0
  181.4540  178.8760  137.9380 C   0  0  1  0  0  3  0  0  0  0  0  0
  181.2700  176.8030  135.2960 C   0  0  1  0  0  3  0  0  0  0  0  0
  181.5860  175.5920  136.0910 C   0  0  0  0  0  2  0  0  0  0  0  0
  180.7590  175.5360  134.9540 O   0  0  0  0  0  0  0  0  0  0  0  0
  179.1580  179.3820  141.5770 O   0  0  0  0  0  1  0  0  0  0  0  0
  180.5440  179.5290  141.5030 C   0  0  1  0  0  3  0  0  0  0  0  0
  181.1770  179.0550  142.7960 C   0  0  0  0  0  1  0  0  0  0  0  0
  180.5720  176.4300  139.7720 C   0  0  0  0  0  0  0  0  0  0  0  0
  180.9540  175.2920  139.8840 C   0  0  0  0  0  3  0  0  0  0  0  0
  183.2890  179.7550  139.4220 C   0  0  0  0  0  2  0  0  0  0  0  0
  183.8720  178.6570  140.3070 C   0  0  2  0  0  3  0  0  0  0  0  0
  184.7570  179.2740  141.3780 C   0  0  0  0  0  2  0  0  0  0  0  0
  186.6970  177.2610  144.7070 C   0  0  2  0  0  3  0  0  0  0  0  0
  188.0360  177.6830  145.2860 C   0  0  0  0  0  2  0  0  0  0  0  0
  187.3430  177.1680  143.3170 C   0  0  1  0  0  3  0  0  0  0  0  0
  189.6520  176.4460  143.8640 C   0  0  0  0  0  1  0  0  0  0  0  0
  186.8260  178.2290  142.3420 C   0  0  0  0  0  2  0  0  0  0  0  0
  188.6710  177.6020  143.9060 C   0  0  2  0  0  3  0  0  0  0  0  0
  184.6650  178.3620  143.7000 C   0  0  0  0  0  2  0  0  0  0  0  0
  185.2970  178.2020  142.3080 C   0  0  1  0  0  3  0  0  0  0  0  0
  185.6940  178.4120  144.8330 C   0  0  0  0  0  2  0  0  0  0  0  0
  184.6530  177.7380  139.4950 N   0  0  0  0  0  2  0  0  0  0  0  0
  186.3770  177.7310  137.7940 C   0  0  0  0  0  1  0  0  0  0  0  0
  185.2560  178.5230  138.4320 C   0  0  0  0  0  2  0  0  0  0  0  0
  1  4  1  6  0  0  0
  1 20  1  0  0  0  0
  1  5  1  0  0  0  0
  3 18  1  6  0  0  0
  3  5  1  0  0  0  0
  5 16  1  1  0  0  0
  7  6  1  6  0  0  0
  7  2  1  0  0  0  0
  8  7  1  0  0  0  0
  8 10  1  0  0  0  0
  9  2  1  6  0  0  0
  9  3  1  0  0  0  0
 11 10  1  6  0  0  0
 11  9  1  0  0  0  0
 11  1  1  0  0  0  0
 12  7  1  0  0  0  0
 12 13  1  1  0  0  0
 14 12  1  0  0  0  0
 14 13  1  0  0  0  0
 16 15  1  0  0  0  0
 16 17  1  1  0  0  0
 18 19  3  0  0  0  0
 21 20  1  6  0  0  0
 21 22  1  0  0  0  0
 23 31  1  6  0  0  0
 23 24  1  0  0  0  0
 25 27  1  6  0  0  0
 25 28  1  0  0  0  0
 25 23  1  0  0  0  0
 28 26  1  1  0  0  0
 28 24  1  0  0  0  0
 29 31  1  0  0  0  0
 30 22  1  6  0  0  0
 30 27  1  0  0  0  0
 30 29  1  0  0  0  0
 32 21  1  0  0  0  0
 33 34  1  0  0  0  0
 34 32  1  0  0  0  0
M  END
>  <MODEL>
7

>  <REMARK>
 VINA RESULT:      -6.2      2.550      4.732
  Name = 
  9 active torsions:
  status: ('A' for Active; 'I' for Inactive)
    1  A    between atoms: C_1  and  C_8
    2  A    between atoms: C_3  and  C_25
    3  A    between atoms: C_5  and  C_19
    4  A    between atoms: C_6  and  C_18
    5  A    between atoms: C_6  and  C_28
    6  A    between atoms: C_8  and  C_18
    7  A    between atoms: C_12  and  C_20
    8  A    between atoms: C_18  and  N_30
    9  A    between atoms: N_30  and  C_31
                            x       y       z     vdW  Elec       q    Type
                         _______ _______ _______ _____ _____    ______ ____

>  <TORSDO>
F 9

$$$$
=
 OpenBabel11052416003D

 34 38  0  0  1  0  0  0  0  0999 V2000
  183.9050  177.7970  138.4130 C   0  0  1  0  0  0  0  0  0  0  0  0
  180.3070  178.2590  138.8070 O   0  0  0  0  0  0  0  0  0  0  0  0
  181.8720  177.6670  136.9790 C   0  0  1  0  0  3  0  0  0  0  0  0
  184.3040  176.5520  138.9120 O   0  0  0  0  0  1  0  0  0  0  0  0
  183.4070  177.6810  136.9550 C   0  0  2  0  0  3  0  0  0  0  0  0
  178.9310  177.8400  140.7050 C   0  0  0  0  0  1  0  0  0  0  0  0
  180.2190  178.4780  140.2220 C   0  0  1  0  0  0  0  0  0  0  0  0
  181.3740  177.8470  141.0670 C   0  0  0  0  0  2  0  0  0  0  0  0
  181.5160  177.6190  138.4620 C   0  0  1  0  0  3  0  0  0  0  0  0
  182.6940  178.0100  140.5520 O   0  0  0  0  0  0  0  0  0  0  0  0
  182.6780  178.2810  139.1660 C   0  0  1  0  0  3  0  0  0  0  0  0
  180.1330  179.9790  140.5620 C   0  0  1  0  0  3  0  0  0  0  0  0
  180.4940  180.8750  139.4370 C   0  0  0  0  0  2  0  0  0  0  0  0
  179.1520  180.6090  139.7710 O   0  0  0  0  0  0  0  0  0  0  0  0
  183.0480  175.8480  135.4200 O   0  0  0  0  0  1  0  0  0  0  0  0
  184.0230  176.5330  136.1480 C   0  0  1  0  0  3  0  0  0  0  0  0
  185.0830  177.0650  135.2050 C   0  0  0  0  0  1  0  0  0  0  0  0
  181.3730  178.8880  136.3280 C   0  0  0  0  0  0  0  0  0  0  0  0
  180.9660  179.8910  135.7950 C   0  0  0  0  0  3  0  0  0  0  0  0
  185.0650  178.7880  138.5450 C   0  0  0  0  0  2  0  0  0  0  0  0
  186.1980  178.2690  139.4260 C   0  0  2  0  0  3  0  0  0  0  0  0
  186.1980  179.0090  140.7540 C   0  0  0  0  0  2  0  0  0  0  0  0
  186.5870  177.3340  144.7470 C   0  0  2  0  0  3  0  0  0  0  0  0
  187.4670  177.9300  145.8310 C   0  0  0  0  0  2  0  0  0  0  0  0
  187.8020  177.2830  143.8090 C   0  0  1  0  0  3  0  0  0  0  0  0
  189.6650  176.8610  145.3920 C   0  0  0  0  0  1  0  0  0  0  0  0
  187.6880  178.2480  142.6260 C   0  0  0  0  0  2  0  0  0  0  0  0
  188.6660  177.8900  144.8970 C   0  0  2  0  0  3  0  0  0  0  0  0
  185.1440  178.1540  142.8500 C   0  0  0  0  0  2  0  0  0  0  0  0
  186.3540  178.0350  141.9090 C   0  0  1  0  0  3  0  0  0  0  0  0
  185.5320  178.3570  144.3160 C   0  0  0  0  0  2  0  0  0  0  0  0
  187.4710  178.4690  138.7540 N   0  0  0  0  0  2  0  0  0  0  0  0
  189.4340  177.3060  139.5650 C   0  0  0  0  0  1  0  0  0  0  0  0
  188.1580  177.1890  138.7590 C   0  0  0  0  0  2  0  0  0  0  0  0
  1 20  1  0  0  0  0
  1  4  1  1  0  0  0
  1 11  1  0  0  0  0
  2  7  1  0  0  0  0
  3 18  1  1  0  0  0
  3  9  1  0  0  0  0
  5 16  1  1  0  0  0
  5  3  1  0  0  0  0
  5  1  1  0  0  0  0
  7 12  1  0  0  0  0
  7  6  1  1  0  0  0
  7  8  1  0  0  0  0
  9  2  1  6  0  0  0
  9 11  1  0  0  0  0
 10  8  1  0  0  0  0
 11 10  1  1  0  0  0
 12 13  1  6  0  0  0
 13 14  1  0  0  0  0
 14 12  1  0  0  0  0
 15 16  1  0  0  0  0
 16 17  1  6  0  0  0
 19 18  3  0  0  0  0
 21 20  1  6  0  0  0
 21 22  1  0  0  0  0
 23 31  1  6  0  0  0
 23 24  1  0  0  0  0
 25 27  1  6  0  0  0
 25 23  1  0  0  0  0
 25 28  1  0  0  0  0
 28 26  1  1  0  0  0
 28 24  1  0  0  0  0
 29 31  1  0  0  0  0
 30 22  1  6  0  0  0
 30 27  1  0  0  0  0
 30 29  1  0  0  0  0
 32 34  1  0  0  0  0
 32 21  1  0  0  0  0
 34 33  1  0  0  0  0
M  END
>  <MODEL>
8

>  <REMARK>
 VINA RESULT:      -5.8      2.133      5.345
  Name = 
  9 active torsions:
  status: ('A' for Active; 'I' for Inactive)
    1  A    between atoms: C_1  and  C_8
    2  A    between atoms: C_3  and  C_25
    3  A    between atoms: C_5  and  C_19
    4  A    between atoms: C_6  and  C_18
    5  A    between atoms: C_6  and  C_28
    6  A    between atoms: C_8  and  C_18
    7  A    between atoms: C_12  and  C_20
    8  A    between atoms: C_18  and  N_30
    9  A    between atoms: N_30  and  C_31
                            x       y       z     vdW  Elec       q    Type
                         _______ _______ _______ _____ _____    ______ ____

>  <TORSDO>
F 9

$$$$
=
 OpenBabel11052416003D

 34 38  0  0  1  0  0  0  0  0999 V2000
  187.8420  177.6230  144.0960 C   0  0  1  0  0  0  0  0  0  0  0  0
  190.5590  177.4240  141.6690 O   0  0  0  0  0  0  0  0  0  0  0  0
  190.3300  177.4930  144.1350 C   0  0  1  0  0  3  0  0  0  0  0  0
  187.2260  176.3760  144.2570 O   0  0  0  0  0  1  0  0  0  0  0  0
  189.0880  177.7500  145.0010 C   0  0  2  0  0  3  0  0  0  0  0  0
  190.5920  176.3940  139.5220 C   0  0  0  0  0  1  0  0  0  0  0  0
  189.8180  177.3130  140.4460 C   0  0  1  0  0  0  0  0  0  0  0  0
  188.3850  176.7020  140.5880 C   0  0  0  0  0  2  0  0  0  0  0  0
  189.7670  177.0700  142.7820 C   0  0  1  0  0  3  0  0  0  0  0  0
  187.6020  177.1750  141.6810 O   0  0  0  0  0  0  0  0  0  0  0  0
  188.4140  177.7350  142.6940 C   0  0  1  0  0  3  0  0  0  0  0  0
  189.6950  178.6730  139.7290 C   0  0  1  0  0  3  0  0  0  0  0  0
  189.4310  178.5670  138.2740 C   0  0  0  0  0  2  0  0  0  0  0  0
  188.4010  178.8350  139.1960 O   0  0  0  0  0  0  0  0  0  0  0  0
  190.3050  176.3890  146.5860 O   0  0  0  0  0  1  0  0  0  0  0  0
  189.0460  176.9150  146.2850 C   0  0  1  0  0  3  0  0  0  0  0  0
  188.5550  177.7600  147.4440 C   0  0  0  0  0  1  0  0  0  0  0  0
  191.1150  178.7350  144.0470 C   0  0  0  0  0  0  0  0  0  0  0  0
  191.7590  179.7520  143.9710 C   0  0  0  0  0  3  0  0  0  0  0  0
  186.8190  178.7290  144.3700 C   0  0  0  0  0  2  0  0  0  0  0  0
  185.4140  178.3760  143.8900 C   0  0  2  0  0  3  0  0  0  0  0  0
  185.0070  179.3070  142.7600 C   0  0  0  0  0  2  0  0  0  0  0  0
  182.7830  178.2760  139.1690 C   0  0  2  0  0  3  0  0  0  0  0  0
  181.4460  178.8910  138.7980 C   0  0  0  0  0  2  0  0  0  0  0  0
  182.2030  177.8710  140.5330 C   0  0  1  0  0  3  0  0  0  0  0  0
  179.8290  177.4170  139.9740 C   0  0  0  0  0  1  0  0  0  0  0  0
  182.8310  178.6320  141.7030 C   0  0  0  0  0  2  0  0  0  0  0  0
  180.8760  178.5000  140.1530 C   0  0  2  0  0  3  0  0  0  0  0  0
  184.9260  178.9970  140.2840 C   0  0  0  0  0  2  0  0  0  0  0  0
  184.3560  178.5260  141.6320 C   0  0  1  0  0  3  0  0  0  0  0  0
  183.8470  179.3730  139.2660 C   0  0  0  0  0  2  0  0  0  0  0  0
  184.4750  178.5040  144.9930 N   0  0  0  0  0  2  0  0  0  0  0  0
  184.9350  178.1460  147.3440 C   0  0  0  0  0  1  0  0  0  0  0  0
  185.2270  179.0040  146.1320 C   0  0  0  0  0  2  0  0  0  0  0  0
  1  4  1  1  0  0  0
  1 20  1  0  0  0  0
  1  5  1  0  0  0  0
  3 18  1  6  0  0  0
  3  5  1  0  0  0  0
  5 16  1  1  0  0  0
  7  6  1  6  0  0  0
  7  8  1  0  0  0  0
  7  2  1  0  0  0  0
  8 10  1  0  0  0  0
  9  2  1  6  0  0  0
  9  3  1  0  0  0  0
 11 10  1  6  0  0  0
 11  9  1  0  0  0  0
 11  1  1  0  0  0  0
 12 13  1  6  0  0  0
 12  7  1  0  0  0  0
 13 14  1  0  0  0  0
 14 12  1  0  0  0  0
 16 15  1  0  0  0  0
 16 17  1  1  0  0  0
 19 18  3  0  0  0  0
 21 22  1  6  0  0  0
 21 20  1  0  0  0  0
 21 32  1  0  0  0  0
 23 24  1  6  0  0  0
 23 31  1  0  0  0  0
 23 25  1  0  0  0  0
 24 28  1  0  0  0  0
 25 27  1  1  0  0  0
 28 26  1  6  0  0  0
 28 25  1  0  0  0  0
 29 30  1  0  0  0  0
 30 27  1  0  0  0  0
 30 22  1  1  0  0  0
 31 29  1  0  0  0  0
 32 34  1  0  0  0  0
 34 33  1  0  0  0  0
M  END
>  <MODEL>
9

>  <REMARK>
 VINA RESULT:      -5.6      2.654      7.372
  Name = 
  9 active torsions:
  status: ('A' for Active; 'I' for Inactive)
    1  A    between atoms: C_1  and  C_8
    2  A    between atoms: C_3  and  C_25
    3  A    between atoms: C_5  and  C_19
    4  A    between atoms: C_6  and  C_18
    5  A    between atoms: C_6  and  C_28
    6  A    between atoms: C_8  and  C_18
    7  A    between atoms: C_12  and  C_20
    8  A    between atoms: C_18  and  N_30
    9  A    between atoms: N_30  and  C_31
                            x       y       z     vdW  Elec       q    Type
                         _______ _______ _______ _____ _____    ______ ____

>  <TORSDO>
F 9

$$$$
