=
 OpenBabel11052413193D

 31 34  0  0  1  0  0  0  0  0999 V2000
  188.2510  177.5870  143.8910 C   0  0  0  0  0  0  0  0  0  0  0  0
  188.7670  177.4370  145.1870 C   0  0  0  0  0  0  0  0  0  0  0  0
  188.5900  177.4860  147.5900 C   0  0  0  0  0  3  0  0  0  0  0  0
  186.9210  177.9170  143.5080 N   0  0  0  0  0  0  0  0  0  0  0  0
  188.0010  177.6480  146.3360 C   0  0  0  0  0  3  0  0  0  0  0  0
  188.2850  177.5950  141.5280 C   0  0  1  0  0  3  0  0  0  0  0  0
  190.8930  176.8710  144.1970 N   0  0  0  0  0  0  0  0  0  0  0  0
  189.8990  177.1280  147.6920 N   0  0  0  0  0  0  0  0  0  0  0  0
  189.0510  177.4020  142.7940 C   0  0  0  0  0  0  0  0  0  0  0  0
  192.0420  176.5480  146.7620 N   0  0  0  0  0  1  0  0  0  0  0  0
  186.8440  177.8940  142.0460 C   0  0  2  0  0  3  0  0  0  0  0  0
  190.3860  177.0250  142.9420 C   0  0  0  0  0  3  0  0  0  0  0  0
  190.1290  177.0710  145.3140 C   0  0  0  0  0  0  0  0  0  0  0  0
  190.6760  176.9170  146.5960 C   0  0  0  0  0  0  0  0  0  0  0  0
  185.6760  178.9500  140.2150 O   0  0  0  0  0  1  0  0  0  0  0  0
  186.1740  179.1610  141.5040 C   0  0  0  0  0  2  0  0  0  0  0  0
  188.8970  178.7150  140.6810 C   0  0  0  0  0  2  0  0  0  0  0  0
  188.2380  176.6430  138.0890 O   0  0  0  0  0  0  0  0  0  0  0  0
  187.3930  178.0910  136.4560 N   0  0  0  0  0  2  0  0  0  0  0  0
  188.1100  177.8820  137.5080 C   0  0  0  0  0  0  0  0  0  0  0  0
  189.1030  176.6900  139.2080 C   0  0  2  0  0  3  0  0  0  0  0  0
  188.8730  178.9320  138.2050 C   0  0  0  0  0  2  0  0  0  0  0  0
  189.4820  178.1750  139.3850 C   0  0  1  0  0  3  0  0  0  0  0  0
  190.2980  175.9060  138.9260 N   0  0  0  0  0  2  0  0  0  0  0  0
  191.4590  176.7280  139.2370 C   0  0  0  0  0  2  0  0  0  0  0  0
  192.5420  176.4990  138.2340 C   0  0  0  0  0  0  0  0  0  0  0  0
  193.7080  176.6990  138.5310 O   0  0  0  0  0  0  0  0  0  0  0  0
  192.1950  176.0430  136.8600 C   0  0  0  0  0  1  0  0  0  0  0  0
  185.7450  177.7900  144.3580 C   0  0  0  0  0  2  0  0  0  0  0  0
  185.1930  179.1630  144.6980 C   0  0  0  0  0  2  0  0  0  0  0  0
  183.6810  179.1010  144.7350 C   0  0  0  0  0  1  0  0  0  0  0  0
  1  2  1  0  0  0  0
  2 13  2  0  0  0  0
  2  5  1  0  0  0  0
  3  8  1  0  0  0  0
  4  1  1  0  0  0  0
  4 29  1  0  0  0  0
  5  3  2  0  0  0  0
  6 17  1  1  0  0  0
  6 11  1  0  0  0  0
  6  9  1  0  0  0  0
  7 13  1  0  0  0  0
  9 12  1  0  0  0  0
  9  1  2  0  0  0  0
 11 16  1  6  0  0  0
 11  4  1  0  0  0  0
 12  7  2  0  0  0  0
 13 14  1  0  0  0  0
 14 10  1  0  0  0  0
 14  8  2  0  0  0  0
 15 16  1  0  0  0  0
 18 21  1  0  0  0  0
 19 20  2  0  0  0  0
 20 18  1  0  0  0  0
 20 22  1  0  0  0  0
 21 24  1  6  0  0  0
 21 23  1  0  0  0  0
 22 23  1  0  0  0  0
 23 17  1  1  0  0  0
 24 25  1  0  0  0  0
 26 27  2  0  0  0  0
 26 25  1  0  0  0  0
 28 26  1  0  0  0  0
 29 30  1  0  0  0  0
 30 31  1  0  0  0  0
M  END
>  <MODEL>
1

>  <REMARK>
 VINA RESULT:      -8.3      0.000      0.000
  Name = 
  8 active torsions:
  status: ('A' for Active; 'I' for Inactive)
    1  A    between atoms: C_1  and  C_24
    2  A    between atoms: C_2  and  C_25
    3  A    between atoms: N_6  and  C_19
    4  A    between atoms: N_6  and  C_24
    5  A    between atoms: N_12  and  C_25
    6  A    between atoms: C_15  and  C_20
    7  A    between atoms: C_20  and  C_23
    8  A    between atoms: C_27  and  C_28
                            x       y       z     vdW  Elec       q    Type
                         _______ _______ _______ _____ _____    ______ ____

>  <TORSDO>
F 8

$$$$
=
 OpenBabel11052413193D

 31 34  0  0  1  0  0  0  0  0999 V2000
  187.6060  178.2030  143.7820 C   0  0  0  0  0  0  0  0  0  0  0  0
  186.4450  178.3510  144.5560 C   0  0  0  0  0  0  0  0  0  0  0  0
  185.2370  178.3560  146.6420 C   0  0  0  0  0  3  0  0  0  0  0  0
  188.9290  177.9330  144.2280 N   0  0  0  0  0  0  0  0  0  0  0  0
  186.4360  178.2010  145.9440 C   0  0  0  0  0  3  0  0  0  0  0  0
  188.9100  178.1490  141.8130 C   0  0  1  0  0  3  0  0  0  0  0  0
  185.2300  178.7900  142.5180 N   0  0  0  0  0  0  0  0  0  0  0  0
  184.0880  178.6490  145.9740 N   0  0  0  0  0  0  0  0  0  0  0  0
  187.5570  178.3270  142.4190 C   0  0  0  0  0  0  0  0  0  0  0  0
  182.8260  179.1020  143.9750 N   0  0  0  0  0  1  0  0  0  0  0  0
  189.8160  177.9320  143.0630 C   0  0  2  0  0  3  0  0  0  0  0  0
  186.3610  178.6390  141.7730 C   0  0  0  0  0  3  0  0  0  0  0  0
  185.2370  178.6500  143.8780 C   0  0  0  0  0  0  0  0  0  0  0  0
  184.0580  178.8000  144.6230 C   0  0  0  0  0  0  0  0  0  0  0  0
  191.9970  177.0080  142.5920 O   0  0  0  0  0  1  0  0  0  0  0  0
  190.7150  176.6910  143.0480 C   0  0  0  0  0  2  0  0  0  0  0  0
  188.9170  176.9840  140.8180 C   0  0  0  0  0  2  0  0  0  0  0  0
  188.4830  177.0040  137.4620 O   0  0  0  0  0  0  0  0  0  0  0  0
  187.6840  179.1640  137.0450 N   0  0  0  0  0  2  0  0  0  0  0  0
  188.3450  178.3350  137.7790 C   0  0  0  0  0  0  0  0  0  0  0  0
  189.2800  176.3300  138.4190 C   0  0  2  0  0  3  0  0  0  0  0  0
  189.0280  178.7070  139.0300 C   0  0  0  0  0  2  0  0  0  0  0  0
  189.5940  177.3720  139.5120 C   0  0  1  0  0  3  0  0  0  0  0  0
  190.5160  175.8860  137.7900 N   0  0  0  0  0  2  0  0  0  0  0  0
  191.6260  176.5310  138.4750 C   0  0  0  0  0  2  0  0  0  0  0  0
  192.9280  176.0820  137.8960 C   0  0  0  0  0  0  0  0  0  0  0  0
  193.8170  176.8880  137.6830 O   0  0  0  0  0  0  0  0  0  0  0  0
  193.1330  174.6460  137.5610 C   0  0  0  0  0  1  0  0  0  0  0  0
  189.4170  178.1360  145.5860 C   0  0  0  0  0  2  0  0  0  0  0  0
  189.5740  176.8000  146.2910 C   0  0  0  0  0  2  0  0  0  0  0  0
  190.9610  176.7100  146.8920 C   0  0  0  0  0  1  0  0  0  0  0  0
  1  4  1  0  0  0  0
  1  2  1  0  0  0  0
  2  5  1  0  0  0  0
  4 29  1  0  0  0  0
  5  3  2  0  0  0  0
  6 17  1  6  0  0  0
  6  9  1  0  0  0  0
  6 11  1  0  0  0  0
  7 13  1  0  0  0  0
  8  3  1  0  0  0  0
  9  1  2  0  0  0  0
 10 14  1  0  0  0  0
 11 16  1  6  0  0  0
 11  4  1  0  0  0  0
 12  9  1  0  0  0  0
 12  7  2  0  0  0  0
 13  2  2  0  0  0  0
 13 14  1  0  0  0  0
 14  8  2  0  0  0  0
 15 16  1  0  0  0  0
 18 20  1  0  0  0  0
 18 21  1  0  0  0  0
 19 20  2  0  0  0  0
 20 22  1  0  0  0  0
 21 24  1  6  0  0  0
 21 23  1  0  0  0  0
 22 23  1  0  0  0  0
 23 17  1  1  0  0  0
 24 25  1  0  0  0  0
 26 25  1  0  0  0  0
 27 26  2  0  0  0  0
 28 26  1  0  0  0  0
 29 30  1  0  0  0  0
 30 31  1  0  0  0  0
M  END
>  <MODEL>
2

>  <REMARK>
 VINA RESULT:      -7.9      1.704      4.084
  Name = 
  8 active torsions:
  status: ('A' for Active; 'I' for Inactive)
    1  A    between atoms: C_1  and  C_24
    2  A    between atoms: C_2  and  C_25
    3  A    between atoms: N_6  and  C_19
    4  A    between atoms: N_6  and  C_24
    5  A    between atoms: N_12  and  C_25
    6  A    between atoms: C_15  and  C_20
    7  A    between atoms: C_20  and  C_23
    8  A    between atoms: C_27  and  C_28
                            x       y       z     vdW  Elec       q    Type
                         _______ _______ _______ _____ _____    ______ ____

>  <TORSDO>
F 8

$$$$
=
 OpenBabel11052413193D

 31 34  0  0  1  0  0  0  0  0999 V2000
  188.1560  177.4830  144.4700 C   0  0  0  0  0  0  0  0  0  0  0  0
  188.7280  177.4880  145.7510 C   0  0  0  0  0  0  0  0  0  0  0  0
  188.6750  177.8790  148.1290 C   0  0  0  0  0  3  0  0  0  0  0  0
  186.8250  177.8240  144.1030 N   0  0  0  0  0  0  0  0  0  0  0  0
  188.0310  177.8950  146.8910 C   0  0  0  0  0  3  0  0  0  0  0  0
  188.0710  177.1620  142.1310 C   0  0  1  0  0  3  0  0  0  0  0  0
  190.7760  176.6830  144.7600 N   0  0  0  0  0  0  0  0  0  0  0  0
  189.9700  177.4720  148.2240 N   0  0  0  0  0  0  0  0  0  0  0  0
  188.8910  177.1070  143.3780 C   0  0  0  0  0  0  0  0  0  0  0  0
  192.0360  176.6610  147.2930 N   0  0  0  0  0  1  0  0  0  0  0  0
  186.6740  177.6030  142.6630 C   0  0  2  0  0  3  0  0  0  0  0  0
  190.2130  176.6860  143.5190 C   0  0  0  0  0  3  0  0  0  0  0  0
  190.0780  177.0740  145.8690 C   0  0  0  0  0  0  0  0  0  0  0  0
  190.6810  177.0720  147.1360 C   0  0  0  0  0  0  0  0  0  0  0  0
  184.8060  178.4740  141.4040 O   0  0  0  0  0  1  0  0  0  0  0  0
  186.0340  178.8150  141.9770 C   0  0  0  0  0  2  0  0  0  0  0  0
  188.6900  178.1210  141.1090 C   0  0  0  0  0  2  0  0  0  0  0  0
  190.0730  178.3490  138.0290 O   0  0  0  0  0  0  0  0  0  0  0  0
  191.6370  176.6070  138.0210 N   0  0  0  0  0  2  0  0  0  0  0  0
  190.5500  177.1370  138.4710 C   0  0  0  0  0  0  0  0  0  0  0  0
  188.8520  178.6800  138.6650 C   0  0  2  0  0  3  0  0  0  0  0  0
  189.6960  176.5160  139.4990 C   0  0  0  0  0  2  0  0  0  0  0  0
  188.5990  177.5620  139.6970 C   0  0  1  0  0  3  0  0  0  0  0  0
  187.7830  178.6910  137.6760 N   0  0  0  0  0  2  0  0  0  0  0  0
  186.5860  178.1490  138.3030 C   0  0  0  0  0  2  0  0  0  0  0  0
  185.7550  177.4210  137.2970 C   0  0  0  0  0  0  0  0  0  0  0  0
  184.6810  176.9400  137.6190 O   0  0  0  0  0  0  0  0  0  0  0  0
  186.2480  177.2660  135.9010 C   0  0  0  0  0  1  0  0  0  0  0  0
  185.6880  177.8770  145.0120 C   0  0  0  0  0  2  0  0  0  0  0  0
  185.0570  179.2570  144.9850 C   0  0  0  0  0  2  0  0  0  0  0  0
  183.5760  179.1280  144.6990 C   0  0  0  0  0  1  0  0  0  0  0  0
  1  2  1  0  0  0  0
  2 13  2  0  0  0  0
  2  5  1  0  0  0  0
  3  8  1  0  0  0  0
  4  1  1  0  0  0  0
  4 29  1  0  0  0  0
  5  3  2  0  0  0  0
  6 17  1  6  0  0  0
  6 11  1  0  0  0  0
  6  9  1  0  0  0  0
  7 13  1  0  0  0  0
  9 12  1  0  0  0  0
  9  1  2  0  0  0  0
 11 16  1  6  0  0  0
 11  4  1  0  0  0  0
 12  7  2  0  0  0  0
 13 14  1  0  0  0  0
 14 10  1  0  0  0  0
 14  8  2  0  0  0  0
 15 16  1  0  0  0  0
 18 20  1  0  0  0  0
 18 21  1  0  0  0  0
 19 20  2  0  0  0  0
 20 22  1  0  0  0  0
 21 24  1  6  0  0  0
 21 23  1  0  0  0  0
 22 23  1  0  0  0  0
 23 17  1  1  0  0  0
 24 25  1  0  0  0  0
 26 27  2  0  0  0  0
 26 25  1  0  0  0  0
 28 26  1  0  0  0  0
 30 29  1  0  0  0  0
 31 30  1  0  0  0  0
M  END
>  <MODEL>
3

>  <REMARK>
 VINA RESULT:      -7.8      1.320      2.950
  Name = 
  8 active torsions:
  status: ('A' for Active; 'I' for Inactive)
    1  A    between atoms: C_1  and  C_24
    2  A    between atoms: C_2  and  C_25
    3  A    between atoms: N_6  and  C_19
    4  A    between atoms: N_6  and  C_24
    5  A    between atoms: N_12  and  C_25
    6  A    between atoms: C_15  and  C_20
    7  A    between atoms: C_20  and  C_23
    8  A    between atoms: C_27  and  C_28
                            x       y       z     vdW  Elec       q    Type
                         _______ _______ _______ _____ _____    ______ ____

>  <TORSDO>
F 8

$$$$
=
 OpenBabel11052413193D

 31 34  0  0  1  0  0  0  0  0999 V2000
  186.8570  178.2920  143.1310 C   0  0  0  0  0  0  0  0  0  0  0  0
  187.8090  177.8180  144.0450 C   0  0  0  0  0  0  0  0  0  0  0  0
  189.9860  176.9660  144.6370 C   0  0  0  0  0  3  0  0  0  0  0  0
  187.0150  178.5110  141.7340 N   0  0  0  0  0  0  0  0  0  0  0  0
  189.0990  177.4370  143.6670 C   0  0  0  0  0  3  0  0  0  0  0  0
  184.7660  179.1190  142.4060 C   0  0  1  0  0  3  0  0  0  0  0  0
  186.1580  178.0740  145.7860 N   0  0  0  0  0  0  0  0  0  0  0  0
  189.5960  176.8790  145.9380 N   0  0  0  0  0  0  0  0  0  0  0  0
  185.5940  178.6220  143.5450 C   0  0  0  0  0  0  0  0  0  0  0  0
  187.9930  177.1220  147.7170 N   0  0  0  0  0  1  0  0  0  0  0  0
  185.7680  179.0740  141.2130 C   0  0  2  0  0  3  0  0  0  0  0  0
  185.2380  178.5280  144.8900 C   0  0  0  0  0  3  0  0  0  0  0  0
  187.4200  177.7140  145.4040 C   0  0  0  0  0  0  0  0  0  0  0  0
  188.3480  177.2380  146.3420 C   0  0  0  0  0  0  0  0  0  0  0  0
  185.6110  179.0530  138.8030 O   0  0  0  0  0  1  0  0  0  0  0  0
  185.3020  178.3290  139.9570 C   0  0  0  0  0  2  0  0  0  0  0  0
  183.5180  178.2500  142.2160 C   0  0  0  0  0  2  0  0  0  0  0  0
  180.1450  178.0360  142.0430 O   0  0  0  0  0  0  0  0  0  0  0  0
  179.5010  178.0100  144.2930 N   0  0  0  0  0  2  0  0  0  0  0  0
  180.3490  178.3220  143.3720 C   0  0  0  0  0  0  0  0  0  0  0  0
  181.2140  178.5140  141.2480 C   0  0  2  0  0  3  0  0  0  0  0  0
  181.6220  179.0180  143.6280 C   0  0  0  0  0  2  0  0  0  0  0  0
  182.2490  179.0900  142.2360 C   0  0  1  0  0  3  0  0  0  0  0  0
  180.7270  179.5700  140.3720 N   0  0  0  0  0  2  0  0  0  0  0  0
  181.2550  179.3270  139.0370 C   0  0  0  0  0  2  0  0  0  0  0  0
  181.8770  180.5690  138.4880 C   0  0  0  0  0  0  0  0  0  0  0  0
  183.0010  180.8970  138.8300 O   0  0  0  0  0  0  0  0  0  0  0  0
  181.1150  181.4190  137.5320 C   0  0  0  0  0  1  0  0  0  0  0  0
  188.2900  178.6530  141.0430 C   0  0  0  0  0  2  0  0  0  0  0  0
  188.5270  177.4640  140.1300 C   0  0  0  0  0  2  0  0  0  0  0  0
  189.0170  177.9530  138.7840 C   0  0  0  0  0  1  0  0  0  0  0  0
  1  9  2  0  0  0  0
  1  2  1  0  0  0  0
  2 13  1  0  0  0  0
  3  8  2  0  0  0  0
  4  1  1  0  0  0  0
  5  2  2  0  0  0  0
  5  3  1  0  0  0  0
  6 17  1  6  0  0  0
  6  9  1  0  0  0  0
  8 14  1  0  0  0  0
  9 12  1  0  0  0  0
 11 16  1  6  0  0  0
 11  4  1  0  0  0  0
 11  6  1  0  0  0  0
 12  7  2  0  0  0  0
 13  7  1  0  0  0  0
 13 14  2  0  0  0  0
 14 10  1  0  0  0  0
 15 16  1  0  0  0  0
 18 20  1  0  0  0  0
 20 22  1  0  0  0  0
 20 19  2  0  0  0  0
 21 24  1  6  0  0  0
 21 18  1  0  0  0  0
 21 23  1  0  0  0  0
 23 17  1  1  0  0  0
 23 22  1  0  0  0  0
 25 24  1  0  0  0  0
 26 27  2  0  0  0  0
 26 25  1  0  0  0  0
 28 26  1  0  0  0  0
 29  4  1  0  0  0  0
 30 29  1  0  0  0  0
 31 30  1  0  0  0  0
M  END
>  <MODEL>
4

>  <REMARK>
 VINA RESULT:      -7.4      3.349      6.856
  Name = 
  8 active torsions:
  status: ('A' for Active; 'I' for Inactive)
    1  A    between atoms: C_1  and  C_24
    2  A    between atoms: C_2  and  C_25
    3  A    between atoms: N_6  and  C_19
    4  A    between atoms: N_6  and  C_24
    5  A    between atoms: N_12  and  C_25
    6  A    between atoms: C_15  and  C_20
    7  A    between atoms: C_20  and  C_23
    8  A    between atoms: C_27  and  C_28
                            x       y       z     vdW  Elec       q    Type
                         _______ _______ _______ _____ _____    ______ ____

>  <TORSDO>
F 8

$$$$
=
 OpenBabel11052413193D

 31 34  0  0  1  0  0  0  0  0999 V2000
  187.6460  178.1650  143.7570 C   0  0  0  0  0  0  0  0  0  0  0  0
  186.4840  178.3210  144.5280 C   0  0  0  0  0  0  0  0  0  0  0  0
  185.2710  178.3350  146.6110 C   0  0  0  0  0  3  0  0  0  0  0  0
  188.9670  177.8890  144.2070 N   0  0  0  0  0  0  0  0  0  0  0  0
  186.4710  178.1720  145.9160 C   0  0  0  0  0  3  0  0  0  0  0  0
  188.9550  178.1020  141.7910 C   0  0  1  0  0  3  0  0  0  0  0  0
  185.2770  178.7640  142.4860 N   0  0  0  0  0  0  0  0  0  0  0  0
  184.1260  178.6340  145.9400 N   0  0  0  0  0  0  0  0  0  0  0  0
  187.6020  178.2880  142.3940 C   0  0  0  0  0  0  0  0  0  0  0  0
  182.8710  179.0920  143.9380 N   0  0  0  0  0  1  0  0  0  0  0  0
  189.8570  177.8820  143.0440 C   0  0  2  0  0  3  0  0  0  0  0  0
  186.4090  178.6060  141.7450 C   0  0  0  0  0  3  0  0  0  0  0  0
  185.2800  178.6260  143.8470 C   0  0  0  0  0  0  0  0  0  0  0  0
  184.1000  178.7830  144.5890 C   0  0  0  0  0  0  0  0  0  0  0  0
  192.0410  176.9500  142.6020 O   0  0  0  0  0  1  0  0  0  0  0  0
  190.7480  176.6360  143.0330 C   0  0  0  0  0  2  0  0  0  0  0  0
  188.9570  176.9360  140.7980 C   0  0  0  0  0  2  0  0  0  0  0  0
  188.5530  176.9120  137.4390 O   0  0  0  0  0  0  0  0  0  0  0  0
  187.7290  179.0570  136.9900 N   0  0  0  0  0  2  0  0  0  0  0  0
  188.3940  178.2450  137.7390 C   0  0  0  0  0  0  0  0  0  0  0  0
  189.3500  176.2600  138.4100 C   0  0  2  0  0  3  0  0  0  0  0  0
  189.0610  178.6410  138.9920 C   0  0  0  0  0  2  0  0  0  0  0  0
  189.6410  177.3180  139.4940 C   0  0  1  0  0  3  0  0  0  0  0  0
  190.5970  175.8260  137.7960 N   0  0  0  0  0  2  0  0  0  0  0  0
  190.3810  174.5040  137.2270 C   0  0  0  0  0  2  0  0  0  0  0  0
  190.4210  174.5650  135.7350 C   0  0  0  0  0  0  0  0  0  0  0  0
  189.9530  173.6570  135.0680 O   0  0  0  0  0  0  0  0  0  0  0  0
  191.0510  175.7320  135.0580 C   0  0  0  0  0  1  0  0  0  0  0  0
  189.4530  178.0900  145.5660 C   0  0  0  0  0  2  0  0  0  0  0  0
  189.6120  176.7540  146.2690 C   0  0  0  0  0  2  0  0  0  0  0  0
  190.9010  176.7540  147.0620 C   0  0  0  0  0  1  0  0  0  0  0  0
  1  4  1  0  0  0  0
  1  2  1  0  0  0  0
  2  5  1  0  0  0  0
  4 29  1  0  0  0  0
  5  3  2  0  0  0  0
  6 17  1  6  0  0  0
  6  9  1  0  0  0  0
  6 11  1  0  0  0  0
  7 13  1  0  0  0  0
  8  3  1  0  0  0  0
  9  1  2  0  0  0  0
 10 14  1  0  0  0  0
 11 16  1  6  0  0  0
 11  4  1  0  0  0  0
 12  9  1  0  0  0  0
 12  7  2  0  0  0  0
 13  2  2  0  0  0  0
 13 14  1  0  0  0  0
 14  8  2  0  0  0  0
 15 16  1  0  0  0  0
 18 20  1  0  0  0  0
 18 21  1  0  0  0  0
 19 20  2  0  0  0  0
 20 22  1  0  0  0  0
 21 24  1  6  0  0  0
 21 23  1  0  0  0  0
 22 23  1  0  0  0  0
 23 17  1  1  0  0  0
 25 24  1  0  0  0  0
 26 25  1  0  0  0  0
 27 26  2  0  0  0  0
 28 26  1  0  0  0  0
 29 30  1  0  0  0  0
 30 31  1  0  0  0  0
M  END
>  <MODEL>
5

>  <REMARK>
 VINA RESULT:      -7.3      1.983      4.306
  Name = 
  8 active torsions:
  status: ('A' for Active; 'I' for Inactive)
    1  A    between atoms: C_1  and  C_24
    2  A    between atoms: C_2  and  C_25
    3  A    between atoms: N_6  and  C_19
    4  A    between atoms: N_6  and  C_24
    5  A    between atoms: N_12  and  C_25
    6  A    between atoms: C_15  and  C_20
    7  A    between atoms: C_20  and  C_23
    8  A    between atoms: C_27  and  C_28
                            x       y       z     vdW  Elec       q    Type
                         _______ _______ _______ _____ _____    ______ ____

>  <TORSDO>
F 8

$$$$
=
 OpenBabel11052413193D

 31 34  0  0  1  0  0  0  0  0999 V2000
  188.6830  177.2960  139.2010 C   0  0  0  0  0  0  0  0  0  0  0  0
  189.2040  176.6010  138.0980 C   0  0  0  0  0  0  0  0  0  0  0  0
  189.1070  175.7720  135.8370 C   0  0  0  0  0  3  0  0  0  0  0  0
  187.4600  178.0170  139.2850 N   0  0  0  0  0  0  0  0  0  0  0  0
  188.5240  176.4880  136.8840 C   0  0  0  0  0  3  0  0  0  0  0  0
  188.6370  178.1560  141.4000 C   0  0  1  0  0  3  0  0  0  0  0  0
  191.1420  176.0770  139.4370 N   0  0  0  0  0  0  0  0  0  0  0  0
  190.3250  175.1900  136.0000 N   0  0  0  0  0  0  0  0  0  0  0  0
  189.3730  177.3510  140.3820 C   0  0  0  0  0  0  0  0  0  0  0  0
  192.2860  174.6420  137.2850 N   0  0  0  0  0  1  0  0  0  0  0  0
  187.3760  178.6280  140.6130 C   0  0  2  0  0  3  0  0  0  0  0  0
  190.6250  176.7480  140.5050 C   0  0  0  0  0  3  0  0  0  0  0  0
  190.4690  175.9820  138.2510 C   0  0  0  0  0  0  0  0  0  0  0  0
  191.0150  175.2760  137.1690 C   0  0  0  0  0  0  0  0  0  0  0  0
  185.3360  179.5440  141.5230 O   0  0  0  0  0  1  0  0  0  0  0  0
  186.0190  178.3520  141.2690 C   0  0  0  0  0  2  0  0  0  0  0  0
  188.3280  177.3180  142.6450 C   0  0  0  0  0  2  0  0  0  0  0  0
  189.8200  176.8430  145.6440 O   0  0  0  0  0  0  0  0  0  0  0  0
  192.0410  177.4570  145.2330 N   0  0  0  0  0  2  0  0  0  0  0  0
  190.7850  177.5300  144.9470 C   0  0  0  0  0  0  0  0  0  0  0  0
  188.5270  177.1260  145.1420 C   0  0  2  0  0  3  0  0  0  0  0  0
  190.2380  178.3520  143.8540 C   0  0  0  0  0  2  0  0  0  0  0  0
  188.7430  178.0400  143.9180 C   0  0  1  0  0  3  0  0  0  0  0  0
  187.7610  177.8350  146.1580 N   0  0  0  0  0  2  0  0  0  0  0  0
  186.3560  177.5010  145.9760 C   0  0  0  0  0  2  0  0  0  0  0  0
  185.5090  178.7250  146.1000 C   0  0  0  0  0  0  0  0  0  0  0  0
  185.6700  179.4920  147.0340 O   0  0  0  0  0  0  0  0  0  0  0  0
  184.4520  179.0010  145.0880 C   0  0  0  0  0  1  0  0  0  0  0  0
  186.6880  178.5010  138.1480 C   0  0  0  0  0  2  0  0  0  0  0  0
  185.2980  177.8900  138.1580 C   0  0  0  0  0  2  0  0  0  0  0  0
  185.0620  177.1590  136.8540 C   0  0  0  0  0  1  0  0  0  0  0  0
  1  4  1  0  0  0  0
  1  9  1  0  0  0  0
  2 13  1  0  0  0  0
  2  1  2  0  0  0  0
  3  8  1  0  0  0  0
  3  5  2  0  0  0  0
  4 11  1  0  0  0  0
  5  2  1  0  0  0  0
  6 17  1  1  0  0  0
  7 12  1  0  0  0  0
  8 14  2  0  0  0  0
  9 12  2  0  0  0  0
  9  6  1  0  0  0  0
 11 16  1  1  0  0  0
 11  6  1  0  0  0  0
 13  7  2  0  0  0  0
 14 10  1  0  0  0  0
 14 13  1  0  0  0  0
 16 15  1  0  0  0  0
 20 19  2  0  0  0  0
 20 18  1  0  0  0  0
 21 18  1  0  0  0  0
 21 24  1  1  0  0  0
 22 23  1  0  0  0  0
 22 20  1  0  0  0  0
 23 17  1  6  0  0  0
 23 21  1  0  0  0  0
 25 26  1  0  0  0  0
 25 24  1  0  0  0  0
 26 27  2  0  0  0  0
 28 26  1  0  0  0  0
 29 30  1  0  0  0  0
 29  4  1  0  0  0  0
 31 30  1  0  0  0  0
M  END
>  <MODEL>
6

>  <REMARK>
 VINA RESULT:      -7.3      2.495      7.503
  Name = 
  8 active torsions:
  status: ('A' for Active; 'I' for Inactive)
    1  A    between atoms: C_1  and  C_24
    2  A    between atoms: C_2  and  C_25
    3  A    between atoms: N_6  and  C_19
    4  A    between atoms: N_6  and  C_24
    5  A    between atoms: N_12  and  C_25
    6  A    between atoms: C_15  and  C_20
    7  A    between atoms: C_20  and  C_23
    8  A    between atoms: C_27  and  C_28
                            x       y       z     vdW  Elec       q    Type
                         _______ _______ _______ _____ _____    ______ ____

>  <TORSDO>
F 8

$$$$
=
 OpenBabel11052413193D

 31 34  0  0  1  0  0  0  0  0999 V2000
  184.7960  178.5440  142.1670 C   0  0  0  0  0  0  0  0  0  0  0  0
  183.4580  178.6750  141.7630 C   0  0  0  0  0  0  0  0  0  0  0  0
  181.0800  178.6230  142.1520 C   0  0  0  0  0  3  0  0  0  0  0  0
  185.2960  178.2540  143.4670 N   0  0  0  0  0  0  0  0  0  0  0  0
  182.3820  178.4830  142.6330 C   0  0  0  0  0  3  0  0  0  0  0  0
  187.1460  178.5430  141.9270 C   0  0  1  0  0  3  0  0  0  0  0  0
  184.2540  179.1830  139.5430 N   0  0  0  0  0  0  0  0  0  0  0  0
  180.8610  178.9430  140.8470 N   0  0  0  0  0  0  0  0  0  0  0  0
  185.8160  178.7100  141.2690 C   0  0  0  0  0  0  0  0  0  0  0  0
  181.5970  179.4640  138.6150 N   0  0  0  0  0  1  0  0  0  0  0  0
  186.7580  178.2840  143.4140 C   0  0  2  0  0  3  0  0  0  0  0  0
  185.5500  179.0480  139.9420 C   0  0  0  0  0  3  0  0  0  0  0  0
  183.2100  179.0010  140.4070 C   0  0  0  0  0  0  0  0  0  0  0  0
  181.8840  179.1350  139.9720 C   0  0  0  0  0  0  0  0  0  0  0  0
  188.2060  177.3920  145.1290 O   0  0  0  0  0  1  0  0  0  0  0  0
  187.3650  177.0390  144.0700 C   0  0  0  0  0  2  0  0  0  0  0  0
  187.9420  177.4090  141.2740 C   0  0  0  0  0  2  0  0  0  0  0  0
  190.8840  176.3000  140.0240 O   0  0  0  0  0  0  0  0  0  0  0  0
  190.6970  176.7650  137.7370 N   0  0  0  0  0  2  0  0  0  0  0  0
  190.3660  177.0020  138.9610 C   0  0  0  0  0  0  0  0  0  0  0  0
  190.3750  176.7830  141.2530 C   0  0  2  0  0  3  0  0  0  0  0  0
  189.4050  178.0430  139.3670 C   0  0  0  0  0  2  0  0  0  0  0  0
  189.3400  177.8650  140.8840 C   0  0  1  0  0  3  0  0  0  0  0  0
  191.4600  177.3780  142.0220 N   0  0  0  0  0  2  0  0  0  0  0  0
  191.6720  176.5610  143.2080 C   0  0  0  0  0  2  0  0  0  0  0  0
  191.6480  177.4090  144.4370 C   0  0  0  0  0  0  0  0  0  0  0  0
  191.6410  178.6260  144.3440 O   0  0  0  0  0  0  0  0  0  0  0  0
  191.6520  176.7680  145.7800 C   0  0  0  0  0  1  0  0  0  0  0  0
  184.5510  178.4120  144.7100 C   0  0  0  0  0  2  0  0  0  0  0  0
  185.3010  179.3310  145.6570 C   0  0  0  0  0  2  0  0  0  0  0  0
  185.5170  178.6230  146.9780 C   0  0  0  0  0  1  0  0  0  0  0  0
  1  4  1  0  0  0  0
  2  1  1  0  0  0  0
  2  5  1  0  0  0  0
  3  5  2  0  0  0  0
  4 29  1  0  0  0  0
  6 17  1  6  0  0  0
  6 11  1  0  0  0  0
  7 12  2  0  0  0  0
  7 13  1  0  0  0  0
  8  3  1  0  0  0  0
  9  6  1  0  0  0  0
  9  1  2  0  0  0  0
 10 14  1  0  0  0  0
 11  4  1  0  0  0  0
 11 16  1  6  0  0  0
 12  9  1  0  0  0  0
 13  2  2  0  0  0  0
 14 13  1  0  0  0  0
 14  8  2  0  0  0  0
 16 15  1  0  0  0  0
 18 21  1  0  0  0  0
 19 20  2  0  0  0  0
 20 22  1  0  0  0  0
 20 18  1  0  0  0  0
 21 24  1  1  0  0  0
 22 23  1  0  0  0  0
 23 21  1  0  0  0  0
 23 17  1  6  0  0  0
 24 25  1  0  0  0  0
 25 26  1  0  0  0  0
 26 28  1  0  0  0  0
 27 26  2  0  0  0  0
 29 30  1  0  0  0  0
 30 31  1  0  0  0  0
M  END
>  <MODEL>
7

>  <REMARK>
 VINA RESULT:      -7.2      3.054      6.044
  Name = 
  8 active torsions:
  status: ('A' for Active; 'I' for Inactive)
    1  A    between atoms: C_1  and  C_24
    2  A    between atoms: C_2  and  C_25
    3  A    between atoms: N_6  and  C_19
    4  A    between atoms: N_6  and  C_24
    5  A    between atoms: N_12  and  C_25
    6  A    between atoms: C_15  and  C_20
    7  A    between atoms: C_20  and  C_23
    8  A    between atoms: C_27  and  C_28
                            x       y       z     vdW  Elec       q    Type
                         _______ _______ _______ _____ _____    ______ ____

>  <TORSDO>
F 8

$$$$
=
 OpenBabel11052413193D

 31 34  0  0  1  0  0  0  0  0999 V2000
  188.4170  177.4840  141.0040 C   0  0  0  0  0  0  0  0  0  0  0  0
  187.8420  177.9820  139.8250 C   0  0  0  0  0  0  0  0  0  0  0  0
  187.8890  178.5510  137.4830 C   0  0  0  0  0  3  0  0  0  0  0  0
  189.7130  176.9240  141.1800 N   0  0  0  0  0  0  0  0  0  0  0  0
  188.5290  178.0330  138.6100 C   0  0  0  0  0  3  0  0  0  0  0  0
  188.5180  176.8940  143.2900 C   0  0  1  0  0  3  0  0  0  0  0  0
  185.8310  178.4300  141.0810 N   0  0  0  0  0  0  0  0  0  0  0  0
  186.6080  179.0030  137.5690 N   0  0  0  0  0  0  0  0  0  0  0  0
  187.7140  177.4860  142.1800 C   0  0  0  0  0  0  0  0  0  0  0  0
  184.5730  179.4650  138.7690 N   0  0  0  0  0  1  0  0  0  0  0  0
  189.8390  176.4840  142.5700 C   0  0  2  0  0  3  0  0  0  0  0  0
  186.3990  177.9490  142.2230 C   0  0  0  0  0  3  0  0  0  0  0  0
  186.5110  178.4640  139.8960 C   0  0  0  0  0  0  0  0  0  0  0  0
  185.9100  178.9730  138.7360 C   0  0  0  0  0  0  0  0  0  0  0  0
  191.9120  175.9240  143.6770 O   0  0  0  0  0  1  0  0  0  0  0  0
  191.1430  176.9890  143.1990 C   0  0  0  0  0  2  0  0  0  0  0  0
  188.7040  177.9000  144.4300 C   0  0  0  0  0  2  0  0  0  0  0  0
  187.3740  178.8340  147.3970 O   0  0  0  0  0  0  0  0  0  0  0  0
  185.0710  178.6270  147.0330 N   0  0  0  0  0  2  0  0  0  0  0  0
  186.2860  178.3000  146.7480 C   0  0  0  0  0  0  0  0  0  0  0  0
  188.5820  178.2800  146.9100 C   0  0  2  0  0  3  0  0  0  0  0  0
  186.6520  177.3230  145.7080 C   0  0  0  0  0  2  0  0  0  0  0  0
  188.1790  177.3500  145.7470 C   0  0  1  0  0  3  0  0  0  0  0  0
  189.2160  177.5030  147.9670 N   0  0  0  0  0  2  0  0  0  0  0  0
  189.8400  176.3380  147.3560 C   0  0  0  0  0  2  0  0  0  0  0  0
  191.3000  176.5780  147.1500 C   0  0  0  0  0  0  0  0  0  0  0  0
  191.6810  177.5410  146.5060 O   0  0  0  0  0  0  0  0  0  0  0  0
  192.2950  175.6270  147.7190 C   0  0  0  0  0  1  0  0  0  0  0  0
  190.5570  176.4040  140.1120 C   0  0  0  0  0  2  0  0  0  0  0  0
  191.6940  177.3690  139.8250 C   0  0  0  0  0  2  0  0  0  0  0  0
  192.6300  176.7530  138.8080 C   0  0  0  0  0  1  0  0  0  0  0  0
  1  4  1  0  0  0  0
  1  9  1  0  0  0  0
  2 13  1  0  0  0  0
  2  1  2  0  0  0  0
  3  8  1  0  0  0  0
  3  5  2  0  0  0  0
  4 11  1  0  0  0  0
  5  2  1  0  0  0  0
  6 17  1  1  0  0  0
  7 12  1  0  0  0  0
  8 14  2  0  0  0  0
  9 12  2  0  0  0  0
  9  6  1  0  0  0  0
 11 16  1  1  0  0  0
 11  6  1  0  0  0  0
 13  7  2  0  0  0  0
 14 10  1  0  0  0  0
 14 13  1  0  0  0  0
 16 15  1  0  0  0  0
 20 19  2  0  0  0  0
 20 18  1  0  0  0  0
 21 18  1  0  0  0  0
 21 24  1  1  0  0  0
 22 23  1  0  0  0  0
 22 20  1  0  0  0  0
 23 17  1  6  0  0  0
 23 21  1  0  0  0  0
 25 24  1  0  0  0  0
 26 25  1  0  0  0  0
 26 28  1  0  0  0  0
 27 26  2  0  0  0  0
 29  4  1  0  0  0  0
 30 29  1  0  0  0  0
 31 30  1  0  0  0  0
M  END
>  <MODEL>
8

>  <REMARK>
 VINA RESULT:      -7.1      2.776      7.820
  Name = 
  8 active torsions:
  status: ('A' for Active; 'I' for Inactive)
    1  A    between atoms: C_1  and  C_24
    2  A    between atoms: C_2  and  C_25
    3  A    between atoms: N_6  and  C_19
    4  A    between atoms: N_6  and  C_24
    5  A    between atoms: N_12  and  C_25
    6  A    between atoms: C_15  and  C_20
    7  A    between atoms: C_20  and  C_23
    8  A    between atoms: C_27  and  C_28
                            x       y       z     vdW  Elec       q    Type
                         _______ _______ _______ _____ _____    ______ ____

>  <TORSDO>
F 8

$$$$
=
 OpenBabel11052413193D

 31 34  0  0  1  0  0  0  0  0999 V2000
  183.0500  178.7090  141.5740 C   0  0  0  0  0  0  0  0  0  0  0  0
  182.1650  178.5490  140.4960 C   0  0  0  0  0  0  0  0  0  0  0  0
  179.9650  178.4150  139.5210 C   0  0  0  0  0  3  0  0  0  0  0  0
  182.7350  178.9740  142.9350 N   0  0  0  0  0  0  0  0  0  0  0  0
  180.7770  178.5910  140.6420 C   0  0  0  0  0  3  0  0  0  0  0  0
  185.1410  178.8470  142.6640 C   0  0  1  0  0  3  0  0  0  0  0  0
  184.0830  178.2690  139.0590 N   0  0  0  0  0  0  0  0  0  0  0  0
  180.5210  178.2030  138.2980 N   0  0  0  0  0  0  0  0  0  0  0  0
  184.4040  178.6270  141.3850 C   0  0  0  0  0  0  0  0  0  0  0  0
  182.3960  177.9240  136.8140 N   0  0  0  0  0  1  0  0  0  0  0  0
  183.9880  179.1240  143.6770 C   0  0  2  0  0  3  0  0  0  0  0  0
  184.9350  178.4190  140.1120 C   0  0  0  0  0  3  0  0  0  0  0  0
  182.7260  178.3220  139.2150 C   0  0  0  0  0  0  0  0  0  0  0  0
  181.8690  178.1540  138.1180 C   0  0  0  0  0  0  0  0  0  0  0  0
  184.2830  179.0610  146.0730 O   0  0  0  0  0  1  0  0  0  0  0  0
  183.9840  178.2780  144.9550 C   0  0  0  0  0  2  0  0  0  0  0  0
  186.0100  177.6350  143.0120 C   0  0  0  0  0  2  0  0  0  0  0  0
  189.1600  176.4010  142.9220 O   0  0  0  0  0  0  0  0  0  0  0  0
  189.8590  176.8960  140.7440 N   0  0  0  0  0  2  0  0  0  0  0  0
  189.1040  177.1360  141.7620 C   0  0  0  0  0  0  0  0  0  0  0  0
  188.2480  176.8960  143.8850 C   0  0  2  0  0  3  0  0  0  0  0  0
  188.1040  178.2170  141.8060 C   0  0  0  0  0  2  0  0  0  0  0  0
  187.4700  178.0280  143.1840 C   0  0  1  0  0  3  0  0  0  0  0  0
  188.9880  177.4330  145.0180 N   0  0  0  0  0  2  0  0  0  0  0  0
  188.0700  177.5490  146.1420 C   0  0  0  0  0  2  0  0  0  0  0  0
  188.8200  177.5110  147.4330 C   0  0  0  0  0  0  0  0  0  0  0  0
  189.9330  177.0150  147.4840 O   0  0  0  0  0  0  0  0  0  0  0  0
  188.1990  178.0670  148.6670 C   0  0  0  0  0  1  0  0  0  0  0  0
  181.4680  179.5100  143.4170 C   0  0  0  0  0  2  0  0  0  0  0  0
  180.6680  178.4220  144.1110 C   0  0  0  0  0  2  0  0  0  0  0  0
  179.2500  178.9040  144.3300 C   0  0  0  0  0  1  0  0  0  0  0  0
  1  4  1  0  0  0  0
  2  5  1  0  0  0  0
  2  1  2  0  0  0  0
  3  5  2  0  0  0  0
  4 29  1  0  0  0  0
  4 11  1  0  0  0  0
  6 17  1  1  0  0  0
  6 11  1  0  0  0  0
  7 13  2  0  0  0  0
  7 12  1  0  0  0  0
  8  3  1  0  0  0  0
  9  1  1  0  0  0  0
  9  6  1  0  0  0  0
 10 14  1  0  0  0  0
 11 16  1  1  0  0  0
 12  9  2  0  0  0  0
 13  2  1  0  0  0  0
 14  8  2  0  0  0  0
 14 13  1  0  0  0  0
 16 15  1  0  0  0  0
 18 21  1  0  0  0  0
 19 20  2  0  0  0  0
 20 22  1  0  0  0  0
 20 18  1  0  0  0  0
 21 24  1  1  0  0  0
 22 23  1  0  0  0  0
 23 17  1  6  0  0  0
 23 21  1  0  0  0  0
 24 25  1  0  0  0  0
 25 26  1  0  0  0  0
 26 27  2  0  0  0  0
 26 28  1  0  0  0  0
 29 30  1  0  0  0  0
 30 31  1  0  0  0  0
M  END
>  <MODEL>
9

>  <REMARK>
 VINA RESULT:      -7.0      3.832      7.698
  Name = 
  8 active torsions:
  status: ('A' for Active; 'I' for Inactive)
    1  A    between atoms: C_1  and  C_24
    2  A    between atoms: C_2  and  C_25
    3  A    between atoms: N_6  and  C_19
    4  A    between atoms: N_6  and  C_24
    5  A    between atoms: N_12  and  C_25
    6  A    between atoms: C_15  and  C_20
    7  A    between atoms: C_20  and  C_23
    8  A    between atoms: C_27  and  C_28
                            x       y       z     vdW  Elec       q    Type
                         _______ _______ _______ _____ _____    ______ ____

>  <TORSDO>
F 8

$$$$
