=
 OpenBabel11052415573D

 34 40  0  0  1  0  0  0  0  0999 V2000
  190.5160  174.9330  137.7470 C   0  0  1  0  0  3  0  0  0  0  0  0
  192.9930  174.1710  135.0310 C   0  0  0  0  0  3  0  0  0  0  0  0
  189.1380  177.1690  142.3240 C   0  0  0  0  0  2  0  0  0  0  0  0
  190.5810  173.8750  134.9900 C   0  0  0  0  0  2  0  0  0  0  0  0
  187.6680  178.6080  140.1140 C   0  0  0  0  0  2  0  0  0  0  0  0
  185.9510  178.2640  144.0600 C   0  0  0  0  0  0  0  0  0  0  0  0
  189.1830  176.8700  138.8540 C   0  0  2  0  0  0  0  0  0  0  0  0
  190.2890  175.8020  139.0080 C   0  0  0  0  0  2  0  0  0  0  0  0
  188.1110  175.6380  137.0360 C   0  0  0  0  0  0  0  0  0  0  0  0
  187.2490  175.4470  135.8360 C   0  0  0  0  0  3  0  0  0  0  0  0
  187.2210  177.7290  143.8140 C   0  0  0  0  0  3  0  0  0  0  0  0
  187.8040  177.8250  142.5470 C   0  0  0  0  0  0  0  0  0  0  0  0
  188.0180  176.6130  137.9330 C   0  0  0  0  0  2  0  0  0  0  0  0
  189.7490  178.2720  138.6900 C   0  0  0  0  0  2  0  0  0  0  0  0
  189.3260  174.3910  135.6370 C   0  0  0  0  0  0  0  0  0  0  0  0
  189.3100  174.8620  136.8660 C   0  0  1  0  0  3  0  0  0  0  0  0
  188.1160  174.6790  134.9380 N   0  0  0  0  0  0  0  0  0  0  0  0
  194.3200  174.5540  135.5950 C   0  0  0  0  0  2  0  0  0  0  0  0
  194.4750  176.0390  135.6700 C   0  0  0  0  0  0  0  0  0  0  0  0
  185.8230  178.9790  141.7440 C   0  0  0  0  0  3  0  0  0  0  0  0
  193.6890  176.7740  136.4620 C   0  0  0  0  0  3  0  0  0  0  0  0
  187.0890  178.4440  141.4940 C   0  0  0  0  0  0  0  0  0  0  0  0
  185.2550  178.8890  143.0170 C   0  0  0  0  0  3  0  0  0  0  0  0
  189.0130  177.9000  139.9630 C   0  0  1  0  0  0  0  0  0  0  0  0
  189.9130  177.8220  141.1860 C   0  0  0  0  0  2  0  0  0  0  0  0
  191.8310  174.4680  135.6140 C   0  0  0  0  0  0  0  0  0  0  0  0
  192.5230  176.2770  137.2200 C   0  0  0  0  0  3  0  0  0  0  0  0
  191.7270  175.2430  136.8970 C   0  0  0  0  0  0  0  0  0  0  0  0
  195.5830  176.6770  134.9380 C   0  0  0  0  0  0  0  0  0  0  0  0
  195.5070  178.0210  134.5940 O   0  0  0  0  0  0  0  0  0  0  0  0
  196.6090  176.0160  134.6200 O   0  0  0  0  0  1  0  0  0  0  0  0
  185.3650  178.1680  145.3640 N   0  0  0  0  0  0  0  0  0  0  0  0
  184.1580  178.7270  145.6170 O   0  0  0  0  0  0  0  0  0  0  0  0
  186.0120  177.5180  146.3620 O   0  0  0  0  0  0  0  0  0  0  0  0
  1  8  1  1  0  0  0
  2 18  1  0  0  0  0
  2 26  2  0  0  0  0
  3 12  1  0  0  0  0
  4 26  1  0  0  0  0
  4 15  1  0  0  0  0
  5 22  1  0  0  0  0
  6 32  1  0  0  0  0
  7 13  1  6  0  0  0
  7  8  1  0  0  0  0
  7 24  1  0  0  0  0
  9 13  1  0  0  0  0
 10  9  2  0  0  0  0
 11  6  1  0  0  0  0
 12 11  2  0  0  0  0
 14  7  1  0  0  0  0
 16 15  1  6  0  0  0
 16  9  1  0  0  0  0
 16  1  1  0  0  0  0
 17 15  2  0  0  0  0
 17 10  1  0  0  0  0
 18 19  1  0  0  0  0
 19 21  2  0  0  0  0
 20 23  1  0  0  0  0
 21 27  1  0  0  0  0
 22 20  2  0  0  0  0
 22 12  1  0  0  0  0
 23  6  2  0  0  0  0
 24 14  1  6  0  0  0
 24  5  1  0  0  0  0
 24 25  1  0  0  0  0
 25  3  1  0  0  0  0
 26 28  1  0  0  0  0
 28 27  2  0  0  0  0
 28  1  1  0  0  0  0
 29 19  1  0  0  0  0
 30 29  2  0  0  0  0
 31 29  1  0  0  0  0
 32 33  2  0  0  0  0
 32 34  2  0  0  0  0
M  END
>  <MODEL>
1

>  <REMARK>
 VINA RESULT:      -8.0      0.000      0.000
  Name = 
  2 active torsions:
  status: ('A' for Active; 'I' for Inactive)
    1  A    between atoms: C_3  and  C_25
    2  A    between atoms: C_7  and  N_11
                            x       y       z     vdW  Elec       q    Type
                         _______ _______ _______ _____ _____    ______ ____

>  <TORSDO>
F 2

$$$$
=
 OpenBabel11052415573D

 34 40  0  0  1  0  0  0  0  0999 V2000
  189.2500  176.3700  143.2000 C   0  0  1  0  0  3  0  0  0  0  0  0
  186.8480  177.5520  145.8340 C   0  0  0  0  0  3  0  0  0  0  0  0
  190.4060  174.7860  138.3020 C   0  0  0  0  0  2  0  0  0  0  0  0
  189.2770  177.5940  145.8890 C   0  0  0  0  0  2  0  0  0  0  0  0
  191.6710  177.4950  138.7190 C   0  0  0  0  0  2  0  0  0  0  0  0
  193.4620  174.5980  136.0660 C   0  0  0  0  0  0  0  0  0  0  0  0
  190.3570  177.0480  140.9500 C   0  0  2  0  0  0  0  0  0  0  0  0
  189.3870  176.0960  141.6830 C   0  0  0  0  0  2  0  0  0  0  0  0
  191.5460  177.5850  143.0160 C   0  0  0  0  0  0  0  0  0  0  0  0
  192.4100  178.3860  143.9270 C   0  0  0  0  0  2  0  0  0  0  0  0
  192.2610  174.2860  136.7140 C   0  0  0  0  0  3  0  0  0  0  0  0
  191.6560  175.2040  137.5790 C   0  0  0  0  0  0  0  0  0  0  0  0
  191.5340  177.6320  141.6900 C   0  0  0  0  0  2  0  0  0  0  0  0
  189.6280  178.0890  140.1140 C   0  0  0  0  0  2  0  0  0  0  0  0
  190.4700  177.6060  144.9740 C   0  0  0  0  0  0  0  0  0  0  0  0
  190.4450  177.0580  143.7780 C   0  0  0  0  0  0  0  0  0  0  0  0
  191.6300  178.4140  145.1680 N   0  0  0  0  0  0  0  0  0  0  0  0
  185.4920  177.2960  145.2680 C   0  0  0  0  0  2  0  0  0  0  0  0
  185.1640  178.2610  144.1740 C   0  0  0  0  0  0  0  0  0  0  0  0
  193.4780  176.7590  137.1740 C   0  0  0  0  0  3  0  0  0  0  0  0
  185.8670  178.2790  143.0380 C   0  0  0  0  0  3  0  0  0  0  0  0
  192.2810  176.4500  137.8240 C   0  0  0  0  0  0  0  0  0  0  0  0
  194.0670  175.8400  136.3010 C   0  0  0  0  0  3  0  0  0  0  0  0
  190.4170  176.9900  139.4290 C   0  0  1  0  0  0  0  0  0  0  0  0
  189.5470  175.9810  138.6950 C   0  0  0  0  0  2  0  0  0  0  0  0
  187.9740  177.4480  145.1260 C   0  0  0  0  0  0  0  0  0  0  0  0
  187.0920  177.4980  142.7700 C   0  0  0  0  0  3  0  0  0  0  0  0
  188.0010  177.0820  143.6690 C   0  0  0  0  0  0  0  0  0  0  0  0
  183.9800  179.1260  144.3190 C   0  0  0  0  0  0  0  0  0  0  0  0
  183.4140  179.3260  145.5720 O   0  0  0  0  0  1  0  0  0  0  0  0
  183.4730  179.6950  143.3150 O   0  0  0  0  0  0  0  0  0  0  0  0
  194.0700  173.6550  135.1750 N   0  0  0  0  0  0  0  0  0  0  0  0
  193.4600  172.4770  134.9030 O   0  0  0  0  0  0  0  0  0  0  0  0
  195.2630  173.9300  134.5940 O   0  0  0  0  0  0  0  0  0  0  0  0
  1  8  1  6  0  0  0
  1 28  1  0  0  0  0
  1 16  1  0  0  0  0
  3 25  1  0  0  0  0
  5 24  1  0  0  0  0
  6 23  2  0  0  0  0
  6 11  1  0  0  0  0
  7 14  1  1  0  0  0
  7  8  1  0  0  0  0
  7 13  1  0  0  0  0
  9 16  2  0  0  0  0
  9 10  1  0  0  0  0
 10 17  1  0  0  0  0
 11 12  2  0  0  0  0
 12 22  1  0  0  0  0
 12  3  1  0  0  0  0
 13  9  1  0  0  0  0
 15 17  2  0  0  0  0
 15  4  1  0  0  0  0
 16 15  1  0  0  0  0
 18  2  1  0  0  0  0
 19 29  1  0  0  0  0
 19 18  1  0  0  0  0
 20 22  2  0  0  0  0
 21 19  2  0  0  0  0
 22  5  1  0  0  0  0
 23 20  1  0  0  0  0
 24 25  1  6  0  0  0
 24 14  1  0  0  0  0
 24  7  1  0  0  0  0
 26  2  2  0  0  0  0
 26  4  1  0  0  0  0
 27 21  1  0  0  0  0
 27 28  2  0  0  0  0
 28 26  1  0  0  0  0
 29 30  1  0  0  0  0
 31 29  2  0  0  0  0
 32  6  1  0  0  0  0
 33 32  2  0  0  0  0
 34 32  2  0  0  0  0
M  END
>  <MODEL>
2

>  <REMARK>
 VINA RESULT:      -7.3      2.350     10.178
  Name = 
  2 active torsions:
  status: ('A' for Active; 'I' for Inactive)
    1  A    between atoms: C_3  and  C_25
    2  A    between atoms: C_7  and  N_11
                            x       y       z     vdW  Elec       q    Type
                         _______ _______ _______ _____ _____    ______ ____

>  <TORSDO>
F 2

$$$$
=
 OpenBabel11052415573D

 34 40  0  0  1  0  0  0  0  0999 V2000
  185.8080  179.4650  143.2900 C   0  0  1  0  0  3  0  0  0  0  0  0
  188.6540  178.0730  145.3060 C   0  0  0  0  0  3  0  0  0  0  0  0
  183.4360  180.5990  138.7150 C   0  0  0  0  0  2  0  0  0  0  0  0
  186.4270  178.6780  146.0690 C   0  0  0  0  0  2  0  0  0  0  0  0
  181.8570  178.4020  140.0540 C   0  0  0  0  0  2  0  0  0  0  0  0
  179.9170  181.2690  137.4730 C   0  0  0  0  0  0  0  0  0  0  0  0
  183.9010  178.7950  141.6580 C   0  0  2  0  0  0  0  0  0  0  0  0
  185.2330  179.5520  141.8560 C   0  0  0  0  0  2  0  0  0  0  0  0
  183.3840  178.8820  144.0450 C   0  0  0  0  0  0  0  0  0  0  0  0
  182.7280  178.4710  145.3180 C   0  0  0  0  0  2  0  0  0  0  0  0
  181.3020  181.3420  137.6630 C   0  0  0  0  0  3  0  0  0  0  0  0
  181.9600  180.4270  138.4920 C   0  0  0  0  0  0  0  0  0  0  0  0
  182.9440  178.6500  142.8140 C   0  0  0  0  0  2  0  0  0  0  0  0
  184.0810  177.4930  140.8920 C   0  0  0  0  0  2  0  0  0  0  0  0
  185.0220  178.8530  145.5640 C   0  0  0  0  0  0  0  0  0  0  0  0
  184.7590  179.2020  144.3230 C   0  0  0  0  0  0  0  0  0  0  0  0
  183.8540  178.4120  146.2540 N   0  0  0  0  0  0  0  0  0  0  0  0
  189.7660  177.8830  144.3300 C   0  0  0  0  0  2  0  0  0  0  0  0
  189.5060  176.7230  143.4240 C   0  0  0  0  0  0  0  0  0  0  0  0
  179.8300  179.3640  138.9770 C   0  0  0  0  0  3  0  0  0  0  0  0
  188.4770  176.7320  142.5710 C   0  0  0  0  0  3  0  0  0  0  0  0
  181.2110  179.4350  139.1700 C   0  0  0  0  0  0  0  0  0  0  0  0
  179.1850  180.2750  138.1360 C   0  0  0  0  0  3  0  0  0  0  0  0
  183.3510  178.6550  140.2450 C   0  0  1  0  0  0  0  0  0  0  0  0
  184.1140  179.2870  139.0910 C   0  0  0  0  0  2  0  0  0  0  0  0
  187.4030  178.3700  144.9500 C   0  0  0  0  0  0  0  0  0  0  0  0
  187.4200  177.7620  142.5080 C   0  0  0  0  0  3  0  0  0  0  0  0
  186.9680  178.5230  143.5190 C   0  0  0  0  0  0  0  0  0  0  0  0
  190.4670  175.6070  143.4030 C   0  0  0  0  0  0  0  0  0  0  0  0
  191.7100  175.7470  144.0090 O   0  0  0  0  0  1  0  0  0  0  0  0
  190.1740  174.5160  142.8430 O   0  0  0  0  0  0  0  0  0  0  0  0
  179.2540  182.2040  136.6150 N   0  0  0  0  0  0  0  0  0  0  0  0
  178.9400  181.8650  135.3430 O   0  0  0  0  0  0  0  0  0  0  0  0
  178.9330  183.4410  137.0650 O   0  0  0  0  0  0  0  0  0  0  0  0
  1  8  1  6  0  0  0
  1 28  1  0  0  0  0
  1 16  1  0  0  0  0
  3 25  1  0  0  0  0
  5 24  1  0  0  0  0
  6 11  2  0  0  0  0
  6 23  1  0  0  0  0
  7 14  1  1  0  0  0
  7  8  1  0  0  0  0
  7 13  1  0  0  0  0
  9 16  2  0  0  0  0
  9 10  1  0  0  0  0
 10 17  1  0  0  0  0
 11 12  1  0  0  0  0
 12  3  1  0  0  0  0
 12 22  2  0  0  0  0
 13  9  1  0  0  0  0
 15  4  1  0  0  0  0
 15 17  2  0  0  0  0
 16 15  1  0  0  0  0
 18  2  1  0  0  0  0
 19 18  1  0  0  0  0
 20 22  1  0  0  0  0
 21 19  2  0  0  0  0
 22  5  1  0  0  0  0
 23 20  2  0  0  0  0
 24 25  1  6  0  0  0
 24 14  1  0  0  0  0
 24  7  1  0  0  0  0
 26  2  2  0  0  0  0
 26  4  1  0  0  0  0
 27 21  1  0  0  0  0
 27 28  2  0  0  0  0
 28 26  1  0  0  0  0
 29 19  1  0  0  0  0
 29 30  1  0  0  0  0
 31 29  2  0  0  0  0
 32 34  2  0  0  0  0
 32  6  1  0  0  0  0
 33 32  2  0  0  0  0
M  END
>  <MODEL>
3

>  <REMARK>
 VINA RESULT:      -7.0      6.323      9.343
  Name = 
  2 active torsions:
  status: ('A' for Active; 'I' for Inactive)
    1  A    between atoms: C_3  and  C_25
    2  A    between atoms: C_7  and  N_11
                            x       y       z     vdW  Elec       q    Type
                         _______ _______ _______ _____ _____    ______ ____

>  <TORSDO>
F 2

$$$$
=
 OpenBabel11052415573D

 34 40  0  0  1  0  0  0  0  0999 V2000
  181.9070  177.6980  141.1530 C   0  0  1  0  0  3  0  0  0  0  0  0
  179.4970  178.6060  138.4200 C   0  0  0  0  0  3  0  0  0  0  0  0
  186.7530  177.4880  143.2320 C   0  0  0  0  0  2  0  0  0  0  0  0
  178.9980  177.9520  140.7070 C   0  0  0  0  0  2  0  0  0  0  0  0
  185.1400  179.4630  144.8480 C   0  0  0  0  0  2  0  0  0  0  0  0
  188.3140  177.1750  146.6720 C   0  0  0  0  0  0  0  0  0  0  0  0
  183.5080  178.7160  142.9280 C   0  0  2  0  0  0  0  0  0  0  0  0
  183.3670  177.8910  141.6300 C   0  0  0  0  0  2  0  0  0  0  0  0
  181.2140  178.2210  143.6080 C   0  0  0  0  0  0  0  0  0  0  0  0
  179.9320  178.4190  144.3400 C   0  0  0  0  0  2  0  0  0  0  0  0
  188.0540  177.0210  145.3050 C   0  0  0  0  0  3  0  0  0  0  0  0
  187.0330  177.7480  144.6850 C   0  0  0  0  0  0  0  0  0  0  0  0
  182.4070  178.6860  143.9580 C   0  0  0  0  0  2  0  0  0  0  0  0
  184.0120  180.1280  142.6660 C   0  0  0  0  0  2  0  0  0  0  0  0
  179.6140  177.9200  142.0780 C   0  0  0  0  0  0  0  0  0  0  0  0
  180.9120  177.8080  142.2630 C   0  0  0  0  0  0  0  0  0  0  0  0
  178.9310  178.2700  143.2800 N   0  0  0  0  0  0  0  0  0  0  0  0
  180.3500  178.9290  137.2390 C   0  0  0  0  0  2  0  0  0  0  0  0
  181.0460  180.2410  137.4100 C   0  0  0  0  0  0  0  0  0  0  0  0
  186.4990  178.7810  146.8180 C   0  0  0  0  0  3  0  0  0  0  0  0
  181.9490  180.4210  138.3780 C   0  0  0  0  0  3  0  0  0  0  0  0
  186.2350  178.6280  145.4550 C   0  0  0  0  0  0  0  0  0  0  0  0
  187.5300  178.0590  147.4250 C   0  0  0  0  0  3  0  0  0  0  0  0
  184.9040  179.1280  143.3760 C   0  0  1  0  0  0  0  0  0  0  0  0
  186.1030  178.6860  142.5510 C   0  0  0  0  0  2  0  0  0  0  0  0
  179.9800  178.4220  139.6500 C   0  0  0  0  0  0  0  0  0  0  0  0
  182.2650  179.4570  139.4520 C   0  0  0  0  0  3  0  0  0  0  0  0
  181.4390  178.5430  139.9900 C   0  0  0  0  0  0  0  0  0  0  0  0
  180.8030  181.3080  136.4240 C   0  0  0  0  0  0  0  0  0  0  0  0
  180.6820  182.6280  136.8430 O   0  0  0  0  0  1  0  0  0  0  0  0
  180.7080  181.0400  135.1960 O   0  0  0  0  0  0  0  0  0  0  0  0
  189.3680  176.4320  147.2970 N   0  0  0  0  0  0  0  0  0  0  0  0
  189.0830  175.3830  148.1030 O   0  0  0  0  0  0  0  0  0  0  0  0
  190.6630  176.7710  147.0880 O   0  0  0  0  0  0  0  0  0  0  0  0
  1  8  1  1  0  0  0
  1 16  1  0  0  0  0
  2 26  2  0  0  0  0
  3 12  1  0  0  0  0
  4 15  1  0  0  0  0
  5 22  1  0  0  0  0
  6 32  1  0  0  0  0
  6 23  1  0  0  0  0
  7  8  1  6  0  0  0
  7 24  1  0  0  0  0
  7 13  1  0  0  0  0
  9 13  1  0  0  0  0
  9 10  1  0  0  0  0
 11  6  2  0  0  0  0
 12 11  1  0  0  0  0
 12 22  2  0  0  0  0
 14  7  1  0  0  0  0
 14 24  1  0  0  0  0
 15 16  1  0  0  0  0
 15 17  2  0  0  0  0
 16  9  2  0  0  0  0
 17 10  1  0  0  0  0
 18 19  1  0  0  0  0
 18  2  1  0  0  0  0
 19 21  2  0  0  0  0
 20 23  2  0  0  0  0
 21 27  1  0  0  0  0
 22 20  1  0  0  0  0
 24 25  1  6  0  0  0
 24  5  1  0  0  0  0
 25  3  1  0  0  0  0
 26 28  1  0  0  0  0
 26  4  1  0  0  0  0
 27 28  2  0  0  0  0
 28  1  1  0  0  0  0
 29 30  1  0  0  0  0
 29 19  1  0  0  0  0
 31 29  2  0  0  0  0
 32 33  2  0  0  0  0
 34 32  2  0  0  0  0
M  END
>  <MODEL>
4

>  <REMARK>
 VINA RESULT:      -6.9      7.646     10.000
  Name = 
  2 active torsions:
  status: ('A' for Active; 'I' for Inactive)
    1  A    between atoms: C_3  and  C_25
    2  A    between atoms: C_7  and  N_11
                            x       y       z     vdW  Elec       q    Type
                         _______ _______ _______ _____ _____    ______ ____

>  <TORSDO>
F 2

$$$$
=
 OpenBabel11052415573D

 34 40  0  0  1  0  0  0  0  0999 V2000
  191.5410  174.4070  137.3130 C   0  0  1  0  0  3  0  0  0  0  0  0
  194.7790  173.2840  135.7790 C   0  0  0  0  0  3  0  0  0  0  0  0
  188.5680  177.8990  139.9220 C   0  0  0  0  0  2  0  0  0  0  0  0
  192.5630  172.3360  135.4700 C   0  0  0  0  0  2  0  0  0  0  0  0
  187.5680  177.7790  137.0760 C   0  0  0  0  0  2  0  0  0  0  0  0
  184.8830  178.6900  140.3310 C   0  0  0  0  0  0  0  0  0  0  0  0
  189.6460  176.1710  137.0970 C   0  0  2  0  0  0  0  0  0  0  0  0
  190.8240  175.6290  137.9360 C   0  0  0  0  0  2  0  0  0  0  0  0
  189.3550  174.0350  135.9470 C   0  0  0  0  0  0  0  0  0  0  0  0
  188.9140  173.1160  134.8600 C   0  0  0  0  0  3  0  0  0  0  0  0
  186.2410  178.4810  140.5980 C   0  0  0  0  0  3  0  0  0  0  0  0
  187.1360  178.1850  139.5660 C   0  0  0  0  0  0  0  0  0  0  0  0
  188.8500  175.2290  136.2290 C   0  0  0  0  0  2  0  0  0  0  0  0
  189.9940  177.4640  136.3750 C   0  0  0  0  0  2  0  0  0  0  0  0
  191.1080  172.7050  135.5590 C   0  0  0  0  0  0  0  0  0  0  0  0
  190.6650  173.6300  136.3830 C   0  0  1  0  0  3  0  0  0  0  0  0
  190.1160  172.3140  134.6100 N   0  0  0  0  0  0  0  0  0  0  0  0
  195.8080  174.2260  136.3080 C   0  0  0  0  0  2  0  0  0  0  0  0
  195.6860  175.5770  135.6810 C   0  0  0  0  0  0  0  0  0  0  0  0
  185.3020  178.2780  137.9750 C   0  0  0  0  0  3  0  0  0  0  0  0
  194.5960  176.3280  135.8690 C   0  0  0  0  0  3  0  0  0  0  0  0
  186.6570  178.0660  138.2390 C   0  0  0  0  0  0  0  0  0  0  0  0
  184.4190  178.5860  139.0130 C   0  0  0  0  0  3  0  0  0  0  0  0
  189.0000  177.4830  137.5200 C   0  0  1  0  0  0  0  0  0  0  0  0
  189.5140  178.1910  138.7640 C   0  0  0  0  0  2  0  0  0  0  0  0
  193.4670  173.4620  135.9350 C   0  0  0  0  0  0  0  0  0  0  0  0
  193.3630  175.8980  136.5580 C   0  0  0  0  0  3  0  0  0  0  0  0
  192.8750  174.6490  136.6440 C   0  0  0  0  0  0  0  0  0  0  0  0
  196.8340  176.1230  134.9360 C   0  0  0  0  0  0  0  0  0  0  0  0
  196.8730  177.4730  134.6080 O   0  0  0  0  0  1  0  0  0  0  0  0
  197.7910  175.3780  134.5940 O   0  0  0  0  0  0  0  0  0  0  0  0
  183.9750  179.0010  141.3950 N   0  0  0  0  0  0  0  0  0  0  0  0
  182.6390  178.8860  141.2120 O   0  0  0  0  0  0  0  0  0  0  0  0
  184.4430  179.4150  142.5970 O   0  0  0  0  0  0  0  0  0  0  0  0
  1  8  1  6  0  0  0
  2 26  2  0  0  0  0
  2 18  1  0  0  0  0
  4 15  1  0  0  0  0
  4 26  1  0  0  0  0
  5 24  1  0  0  0  0
  5 22  1  0  0  0  0
  6 11  1  0  0  0  0
  6 32  1  0  0  0  0
  7 13  1  6  0  0  0
  7 24  1  0  0  0  0
  7  8  1  0  0  0  0
  9 13  1  0  0  0  0
  9 16  1  0  0  0  0
 10  9  2  0  0  0  0
 12  3  1  0  0  0  0
 12 11  2  0  0  0  0
 14  7  1  0  0  0  0
 16 15  1  6  0  0  0
 16  1  1  0  0  0  0
 17 10  1  0  0  0  0
 17 15  2  0  0  0  0
 19 21  2  0  0  0  0
 19 18  1  0  0  0  0
 20 22  2  0  0  0  0
 20 23  1  0  0  0  0
 21 27  1  0  0  0  0
 22 12  1  0  0  0  0
 23  6  2  0  0  0  0
 24 14  1  6  0  0  0
 24 25  1  0  0  0  0
 25  3  1  0  0  0  0
 26 28  1  0  0  0  0
 27 28  2  0  0  0  0
 28  1  1  0  0  0  0
 29 19  1  0  0  0  0
 30 29  1  0  0  0  0
 31 29  2  0  0  0  0
 32 34  2  0  0  0  0
 33 32  2  0  0  0  0
M  END
>  <MODEL>
5

>  <REMARK>
 VINA RESULT:      -6.5      2.010      2.713
  Name = 
  2 active torsions:
  status: ('A' for Active; 'I' for Inactive)
    1  A    between atoms: C_3  and  C_25
    2  A    between atoms: C_7  and  N_11
                            x       y       z     vdW  Elec       q    Type
                         _______ _______ _______ _____ _____    ______ ____

>  <TORSDO>
F 2

$$$$
=
 OpenBabel11052415573D

 34 40  0  0  1  0  0  0  0  0999 V2000
  188.3070  176.4610  143.0040 C   0  0  1  0  0  3  0  0  0  0  0  0
  191.0920  176.0780  145.4940 C   0  0  0  0  0  3  0  0  0  0  0  0
  183.2950  177.4970  141.7210 C   0  0  0  0  0  2  0  0  0  0  0  0
  191.2520  176.2470  143.0740 C   0  0  0  0  0  2  0  0  0  0  0  0
  185.0030  179.7520  140.6650 C   0  0  0  0  0  2  0  0  0  0  0  0
  181.3590  178.6040  138.6550 C   0  0  0  0  0  0  0  0  0  0  0  0
  186.6970  178.2050  141.9460 C   0  0  2  0  0  0  0  0  0  0  0  0
  186.8490  176.9570  142.8430 C   0  0  0  0  0  2  0  0  0  0  0  0
  188.8130  177.7630  140.8050 C   0  0  0  0  0  0  0  0  0  0  0  0
  190.0280  178.0840  140.0060 C   0  0  0  0  0  3  0  0  0  0  0  0
  181.7330  177.9420  139.8300 C   0  0  0  0  0  3  0  0  0  0  0  0
  182.9070  178.2910  140.5050 C   0  0  0  0  0  0  0  0  0  0  0  0
  187.6710  178.4390  140.8180 C   0  0  0  0  0  2  0  0  0  0  0  0
  186.4340  179.4690  142.7500 C   0  0  0  0  0  2  0  0  0  0  0  0
  190.5000  176.7730  141.8840 C   0  0  0  0  0  0  0  0  0  0  0  0
  189.1880  176.8650  141.8650 C   0  0  1  0  0  3  0  0  0  0  0  0
  191.1010  177.4630  140.7890 N   0  0  0  0  0  0  0  0  0  0  0  0
  190.4210  176.0360  146.8250 C   0  0  0  0  0  2  0  0  0  0  0  0
  189.9090  177.3830  147.2230 C   0  0  0  0  0  0  0  0  0  0  0  0
  183.3630  179.9660  138.8050 C   0  0  0  0  0  3  0  0  0  0  0  0
  188.9470  177.9890  146.5210 C   0  0  0  0  0  3  0  0  0  0  0  0
  183.7410  179.3060  139.9760 C   0  0  0  0  0  0  0  0  0  0  0  0
  182.1810  179.6180  138.1460 C   0  0  0  0  0  3  0  0  0  0  0  0
  185.3370  178.8870  141.8790 C   0  0  1  0  0  0  0  0  0  0  0  0
  184.1780  178.2990  142.6690 C   0  0  0  0  0  2  0  0  0  0  0  0
  190.4640  176.3990  144.3610 C   0  0  0  0  0  0  0  0  0  0  0  0
  188.3860  177.5140  145.2400 C   0  0  0  0  0  3  0  0  0  0  0  0
  189.0100  176.7780  144.3040 C   0  0  0  0  0  0  0  0  0  0  0  0
  190.4050  177.9930  148.4680 C   0  0  0  0  0  0  0  0  0  0  0  0
  191.7460  177.8780  148.8150 O   0  0  0  0  0  0  0  0  0  0  0  0
  189.6240  178.6280  149.2280 O   0  0  0  0  0  1  0  0  0  0  0  0
  180.1490  178.2450  137.9760 N   0  0  0  0  0  0  0  0  0  0  0  0
  179.3530  177.2650  138.4640 O   0  0  0  0  0  0  0  0  0  0  0  0
  179.7870  178.8820  136.8360 O   0  0  0  0  0  0  0  0  0  0  0  0
  1  8  1  1  0  0  0
  1 28  1  0  0  0  0
  2 18  1  0  0  0  0
  3 25  1  0  0  0  0
  4 26  1  0  0  0  0
  6 11  1  0  0  0  0
  7 13  1  6  0  0  0
  7 14  1  0  0  0  0
  7  8  1  0  0  0  0
  9 13  1  0  0  0  0
 10 17  1  0  0  0  0
 10  9  2  0  0  0  0
 11 12  2  0  0  0  0
 12  3  1  0  0  0  0
 15  4  1  0  0  0  0
 16  9  1  1  0  0  0
 16 15  1  0  0  0  0
 16  1  1  0  0  0  0
 17 15  2  0  0  0  0
 18 19  1  0  0  0  0
 19 29  1  0  0  0  0
 20 22  2  0  0  0  0
 21 19  2  0  0  0  0
 22 12  1  0  0  0  0
 22  5  1  0  0  0  0
 23  6  2  0  0  0  0
 23 20  1  0  0  0  0
 24  5  1  6  0  0  0
 24  7  1  0  0  0  0
 24 25  1  0  0  0  0
 24 14  1  0  0  0  0
 26  2  2  0  0  0  0
 27 21  1  0  0  0  0
 28 26  1  0  0  0  0
 28 27  2  0  0  0  0
 29 30  2  0  0  0  0
 29 31  1  0  0  0  0
 32 33  2  0  0  0  0
 32  6  1  0  0  0  0
 34 32  2  0  0  0  0
M  END
>  <MODEL>
6

>  <REMARK>
 VINA RESULT:      -6.0      5.724      8.424
  Name = 
  2 active torsions:
  status: ('A' for Active; 'I' for Inactive)
    1  A    between atoms: C_3  and  C_25
    2  A    between atoms: C_7  and  N_11
                            x       y       z     vdW  Elec       q    Type
                         _______ _______ _______ _____ _____    ______ ____

>  <TORSDO>
F 2

$$$$
=
 OpenBabel11052415573D

 34 40  0  0  1  0  0  0  0  0999 V2000
  188.1640  174.7910  137.3480 C   0  0  1  0  0  3  0  0  0  0  0  0
  184.4940  173.9980  137.2900 C   0  0  0  0  0  3  0  0  0  0  0  0
  193.2480  173.4150  137.0360 C   0  0  0  0  0  2  0  0  0  0  0  0
  185.5620  176.1770  137.1560 C   0  0  0  0  0  2  0  0  0  0  0  0
  192.5870  175.0630  134.5940 C   0  0  0  0  0  2  0  0  0  0  0  0
  196.5630  175.0900  136.2750 C   0  0  0  0  0  0  0  0  0  0  0  0
  190.2970  174.8460  135.8650 C   0  0  2  0  0  0  0  0  0  0  0  0
  189.5640  174.1970  137.0590 C   0  0  0  0  0  2  0  0  0  0  0  0
  188.9740  176.8930  136.0400 C   0  0  0  0  0  0  0  0  0  0  0  0
  188.3600  178.1680  135.5750 C   0  0  0  0  0  3  0  0  0  0  0  0
  195.5780  174.2800  136.8530 C   0  0  0  0  0  3  0  0  0  0  0  0
  194.2820  174.2490  136.3310 C   0  0  0  0  0  0  0  0  0  0  0  0
  190.0410  176.2930  135.5270 C   0  0  0  0  0  2  0  0  0  0  0  0
  190.2950  173.9570  134.6310 C   0  0  0  0  0  2  0  0  0  0  0  0
  186.8620  176.8230  136.7660 C   0  0  0  0  0  0  0  0  0  0  0  0
  188.0150  176.1940  136.8540 C   0  0  1  0  0  3  0  0  0  0  0  0
  186.9710  178.0380  136.0250 N   0  0  0  0  0  0  0  0  0  0  0  0
  184.4150  172.5120  137.3920 C   0  0  0  0  0  2  0  0  0  0  0  0
  184.8370  171.8530  136.1190 C   0  0  0  0  0  0  0  0  0  0  0  0
  194.9390  175.8740  134.6500 C   0  0  0  0  0  3  0  0  0  0  0  0
  186.0890  171.9670  135.6660 C   0  0  0  0  0  3  0  0  0  0  0  0
  193.9530  175.0690  135.2250 C   0  0  0  0  0  0  0  0  0  0  0  0
  196.2350  175.8880  135.1710 C   0  0  0  0  0  3  0  0  0  0  0  0
  191.5910  174.2090  135.3770 C   0  0  1  0  0  0  0  0  0  0  0  0
  192.1270  172.9820  136.1000 C   0  0  0  0  0  2  0  0  0  0  0  0
  185.6320  174.6640  137.0840 C   0  0  0  0  0  0  0  0  0  0  0  0
  187.1380  172.8320  136.2430 C   0  0  0  0  0  3  0  0  0  0  0  0
  186.9620  173.9870  136.9080 C   0  0  0  0  0  0  0  0  0  0  0  0
  183.8790  170.9800  135.4180 C   0  0  0  0  0  0  0  0  0  0  0  0
  182.6210  171.4610  135.0760 O   0  0  0  0  0  0  0  0  0  0  0  0
  184.1890  169.7960  135.1180 O   0  0  0  0  0  1  0  0  0  0  0  0
  197.8910  175.1090  136.8110 N   0  0  0  0  0  0  0  0  0  0  0  0
  198.0910  175.2290  138.1450 O   0  0  0  0  0  0  0  0  0  0  0  0
  198.9650  175.0070  135.9910 O   0  0  0  0  0  0  0  0  0  0  0  0
  1  8  1  6  0  0  0
  2 18  1  0  0  0  0
  5 22  1  0  0  0  0
  6 32  1  0  0  0  0
  6 11  1  0  0  0  0
  7 14  1  6  0  0  0
  7  8  1  0  0  0  0
 10 17  1  0  0  0  0
 10  9  2  0  0  0  0
 12 11  2  0  0  0  0
 12  3  1  0  0  0  0
 13  7  1  0  0  0  0
 13  9  1  0  0  0  0
 14 24  1  0  0  0  0
 15 16  1  0  0  0  0
 15  4  1  0  0  0  0
 16  9  1  6  0  0  0
 16  1  1  0  0  0  0
 17 15  2  0  0  0  0
 19 18  1  0  0  0  0
 20 23  1  0  0  0  0
 20 22  2  0  0  0  0
 21 19  2  0  0  0  0
 21 27  1  0  0  0  0
 22 12  1  0  0  0  0
 23  6  2  0  0  0  0
 24  5  1  6  0  0  0
 24  7  1  0  0  0  0
 24 25  1  0  0  0  0
 25  3  1  0  0  0  0
 26  4  1  0  0  0  0
 26  2  2  0  0  0  0
 27 28  2  0  0  0  0
 28 26  1  0  0  0  0
 28  1  1  0  0  0  0
 29 19  1  0  0  0  0
 30 29  2  0  0  0  0
 31 29  1  0  0  0  0
 32 33  2  0  0  0  0
 34 32  2  0  0  0  0
M  END
>  <MODEL>
7

>  <REMARK>
 VINA RESULT:      -5.9      4.982      9.468
  Name = 
  2 active torsions:
  status: ('A' for Active; 'I' for Inactive)
    1  A    between atoms: C_3  and  C_25
    2  A    between atoms: C_7  and  N_11
                            x       y       z     vdW  Elec       q    Type
                         _______ _______ _______ _____ _____    ______ ____

>  <TORSDO>
F 2

$$$$
=
 OpenBabel11052415573D

 34 40  0  0  1  0  0  0  0  0999 V2000
  188.9770  175.9840  135.8110 C   0  0  1  0  0  3  0  0  0  0  0  0
  185.4950  177.1040  136.6600 C   0  0  0  0  0  3  0  0  0  0  0  0
  194.2280  176.4090  136.1140 C   0  0  0  0  0  2  0  0  0  0  0  0
  186.1940  175.0050  135.6520 C   0  0  0  0  0  2  0  0  0  0  0  0
  193.4180  173.9010  137.5880 C   0  0  0  0  0  2  0  0  0  0  0  0
  197.2530  174.1760  135.6240 C   0  0  0  0  0  0  0  0  0  0  0  0
  191.1390  174.9730  136.8390 C   0  0  2  0  0  0  0  0  0  0  0  0
  190.4680  176.1940  136.1720 C   0  0  0  0  0  2  0  0  0  0  0  0
  189.4900  173.4320  135.9030 C   0  0  0  0  0  0  0  0  0  0  0  0
  188.6960  172.1750  135.8020 C   0  0  0  0  0  2  0  0  0  0  0  0
  196.3890  175.2780  135.6030 C   0  0  0  0  0  3  0  0  0  0  0  0
  195.1410  175.2210  136.2310 C   0  0  0  0  0  0  0  0  0  0  0  0
  190.6630  173.5820  136.5040 C   0  0  0  0  0  2  0  0  0  0  0  0
  191.3410  175.1680  138.3340 C   0  0  0  0  0  2  0  0  0  0  0  0
  187.3870  174.0960  135.5460 C   0  0  0  0  0  0  0  0  0  0  0  0
  188.6220  174.5440  135.6210 C   0  0  0  0  0  0  0  0  0  0  0  0
  187.3280  172.6730  135.6290 N   0  0  0  0  0  0  0  0  0  0  0  0
  185.6570  178.4600  137.2600 C   0  0  0  0  0  2  0  0  0  0  0  0
  186.2410  178.3830  138.6340 C   0  0  0  0  0  0  0  0  0  0  0  0
  195.5990  172.9270  136.8890 C   0  0  0  0  0  3  0  0  0  0  0  0
  187.4770  177.9150  138.8330 C   0  0  0  0  0  3  0  0  0  0  0  0
  194.7340  174.0240  136.8680 C   0  0  0  0  0  0  0  0  0  0  0  0
  196.8500  173.0010  136.2700 C   0  0  0  0  0  3  0  0  0  0  0  0
  192.5420  175.1400  137.4080 C   0  0  1  0  0  0  0  0  0  0  0  0
  193.2380  176.4850  137.2700 C   0  0  0  0  0  2  0  0  0  0  0  0
  186.5160  176.2840  136.4020 C   0  0  0  0  0  0  0  0  0  0  0  0
  188.3410  177.3020  137.8040 C   0  0  0  0  0  3  0  0  0  0  0  0
  187.9470  176.6280  136.7100 C   0  0  0  0  0  0  0  0  0  0  0  0
  185.4740  178.9340  139.7650 C   0  0  0  0  0  0  0  0  0  0  0  0
  185.7980  178.5730  141.0680 O   0  0  0  0  0  1  0  0  0  0  0  0
  184.5230  179.7370  139.5670 O   0  0  0  0  0  0  0  0  0  0  0  0
  198.5330  174.2480  134.9860 N   0  0  0  0  0  0  0  0  0  0  0  0
  199.1240  175.4470  134.7660 O   0  0  0  0  0  0  0  0  0  0  0  0
  199.1700  173.1180  134.5940 O   0  0  0  0  0  0  0  0  0  0  0  0
  1  8  1  1  0  0  0
  1 28  1  0  0  0  0
  2 18  1  0  0  0  0
  3 12  1  0  0  0  0
  3 25  1  0  0  0  0
  4 26  1  0  0  0  0
  6 23  1  0  0  0  0
  7  8  1  6  0  0  0
  7 24  1  0  0  0  0
  7 14  1  0  0  0  0
  9 13  1  0  0  0  0
 10  9  1  0  0  0  0
 11  6  2  0  0  0  0
 11 12  1  0  0  0  0
 12 22  2  0  0  0  0
 13  7  1  0  0  0  0
 15 16  1  0  0  0  0
 15 17  2  0  0  0  0
 15  4  1  0  0  0  0
 16  1  1  0  0  0  0
 16  9  2  0  0  0  0
 17 10  1  0  0  0  0
 18 19  1  0  0  0  0
 19 21  2  0  0  0  0
 19 29  1  0  0  0  0
 22 20  1  0  0  0  0
 22  5  1  0  0  0  0
 23 20  2  0  0  0  0
 24 25  1  6  0  0  0
 24  5  1  0  0  0  0
 24 14  1  0  0  0  0
 26  2  2  0  0  0  0
 26 28  1  0  0  0  0
 27 21  1  0  0  0  0
 28 27  2  0  0  0  0
 29 30  1  0  0  0  0
 31 29  2  0  0  0  0
 32  6  1  0  0  0  0
 33 32  2  0  0  0  0
 34 32  2  0  0  0  0
M  END
>  <MODEL>
8

>  <REMARK>
 VINA RESULT:      -5.8      3.218      9.428
  Name = 
  2 active torsions:
  status: ('A' for Active; 'I' for Inactive)
    1  A    between atoms: C_3  and  C_25
    2  A    between atoms: C_7  and  N_11
                            x       y       z     vdW  Elec       q    Type
                         _______ _______ _______ _____ _____    ______ ____

>  <TORSDO>
F 2

$$$$
=
 OpenBabel11052415573D

 34 40  0  0  1  0  0  0  0  0999 V2000
  190.2740  176.6970  136.7800 C   0  0  1  0  0  3  0  0  0  0  0  0
  193.7320  175.2700  137.1100 C   0  0  0  0  0  3  0  0  0  0  0  0
  185.4730  176.8570  134.5970 C   0  0  0  0  0  2  0  0  0  0  0  0
  192.5750  176.7720  138.6310 C   0  0  0  0  0  2  0  0  0  0  0  0
  185.1640  175.8800  137.4370 C   0  0  0  0  0  2  0  0  0  0  0  0
  182.0200  178.1270  135.5130 C   0  0  0  0  0  0  0  0  0  0  0  0
  187.7600  176.1400  137.1240 C   0  0  2  0  0  0  0  0  0  0  0  0
  188.8930  176.4560  136.1230 C   0  0  0  0  0  2  0  0  0  0  0  0
  188.9570  177.2080  138.9680 C   0  0  0  0  0  0  0  0  0  0  0  0
  189.3070  177.4940  140.3870 C   0  0  0  0  0  2  0  0  0  0  0  0
  183.1830  177.8200  134.7960 C   0  0  0  0  0  3  0  0  0  0  0  0
  184.2190  177.0940  135.3920 C   0  0  0  0  0  0  0  0  0  0  0  0
  187.8100  176.7140  138.5170 C   0  0  0  0  0  2  0  0  0  0  0  0
  187.3790  174.6670  137.1220 C   0  0  0  0  0  2  0  0  0  0  0  0
  191.1900  177.1930  139.0330 C   0  0  0  0  0  0  0  0  0  0  0  0
  190.1720  177.1540  138.2000 C   0  0  0  0  0  0  0  0  0  0  0  0
  190.7700  177.4120  140.3790 N   0  0  0  0  0  0  0  0  0  0  0  0
  193.9170  174.4120  135.9030 C   0  0  0  0  0  2  0  0  0  0  0  0
  193.1130  173.1550  135.9970 C   0  0  0  0  0  0  0  0  0  0  0  0
  182.9390  176.9940  137.4540 C   0  0  0  0  0  3  0  0  0  0  0  0
  191.7780  173.1910  136.0280 C   0  0  0  0  0  3  0  0  0  0  0  0
  184.1020  176.6890  136.7430 C   0  0  0  0  0  0  0  0  0  0  0  0
  181.9040  177.7100  136.8450 C   0  0  0  0  0  3  0  0  0  0  0  0
  186.4110  175.6980  136.5730 C   0  0  1  0  0  0  0  0  0  0  0  0
  186.2210  175.6150  135.0670 C   0  0  0  0  0  2  0  0  0  0  0  0
  192.5610  175.8020  137.4640 C   0  0  0  0  0  0  0  0  0  0  0  0
  190.9520  174.4120  136.1190 C   0  0  0  0  0  3  0  0  0  0  0  0
  191.2880  175.5780  136.6970 C   0  0  0  0  0  0  0  0  0  0  0  0
  193.8120  171.8590  135.9460 C   0  0  0  0  0  0  0  0  0  0  0  0
  195.1720  171.7900  136.2230 O   0  0  0  0  0  1  0  0  0  0  0  0
  193.1870  170.8030  135.6580 O   0  0  0  0  0  0  0  0  0  0  0  0
  180.9610  178.8640  134.8910 N   0  0  0  0  0  0  0  0  0  0  0  0
  179.7860  178.2590  134.5940 O   0  0  0  0  0  0  0  0  0  0  0  0
  181.1200  180.1760  134.5940 O   0  0  0  0  0  0  0  0  0  0  0  0
  1  8  1  1  0  0  0
  1 16  1  0  0  0  0
  2 26  2  0  0  0  0
  3 25  1  0  0  0  0
  3 12  1  0  0  0  0
  4 15  1  0  0  0  0
  6 23  1  0  0  0  0
  7  8  1  6  0  0  0
  7 13  1  0  0  0  0
  9 10  1  0  0  0  0
 11 12  1  0  0  0  0
 11  6  2  0  0  0  0
 12 22  2  0  0  0  0
 13  9  1  0  0  0  0
 14  7  1  0  0  0  0
 15 17  2  0  0  0  0
 16  9  2  0  0  0  0
 16 15  1  0  0  0  0
 17 10  1  0  0  0  0
 18 19  1  0  0  0  0
 18  2  1  0  0  0  0
 19 21  2  0  0  0  0
 21 27  1  0  0  0  0
 22  5  1  0  0  0  0
 22 20  1  0  0  0  0
 23 20  2  0  0  0  0
 24 25  1  6  0  0  0
 24 14  1  0  0  0  0
 24  7  1  0  0  0  0
 24  5  1  0  0  0  0
 26  4  1  0  0  0  0
 27 28  2  0  0  0  0
 28  1  1  0  0  0  0
 28 26  1  0  0  0  0
 29 19  1  0  0  0  0
 29 30  1  0  0  0  0
 31 29  2  0  0  0  0
 32  6  1  0  0  0  0
 33 32  2  0  0  0  0
 34 32  2  0  0  0  0
M  END
>  <MODEL>
9

>  <REMARK>
 VINA RESULT:      -5.2      4.328      6.215
  Name = 
  2 active torsions:
  status: ('A' for Active; 'I' for Inactive)
    1  A    between atoms: C_3  and  C_25
    2  A    between atoms: C_7  and  N_11
                            x       y       z     vdW  Elec       q    Type
                         _______ _______ _______ _____ _____    ______ ____

>  <TORSDO>
F 2

$$$$
