=
 OpenBabel11052415483D

 34 39  0  0  0  0  0  0  0  0999 V2000
  188.7400  177.7040  144.1140 C   0  0  0  0  0  0  0  0  0  0  0  0
  191.8950  177.0790  142.4300 C   0  0  0  0  0  2  0  0  0  0  0  0
  190.7620  176.8840  144.6390 C   0  0  0  0  0  0  0  0  0  0  0  0
  187.0140  178.0530  145.8260 N   0  0  0  0  0  0  0  0  0  0  0  0
  187.3160  178.1060  144.3810 C   0  0  0  0  0  2  0  0  0  0  0  0
  189.1890  177.2000  146.4160 C   0  0  0  0  0  0  0  0  0  0  0  0
  190.1290  176.7400  147.2910 N   0  0  0  0  0  0  0  0  0  0  0  0
  187.9690  177.5780  146.8050 C   0  0  0  0  0  3  0  0  0  0  0  0
  191.7100  176.4280  145.5500 C   0  0  0  0  0  3  0  0  0  0  0  0
  189.5300  177.2740  145.0800 C   0  0  0  0  0  0  0  0  0  0  0  0
  191.3500  176.3690  146.8690 N   0  0  0  0  0  0  0  0  0  0  0  0
  191.8930  177.6400  141.0440 C   0  0  0  0  0  2  0  0  0  0  0  0
  190.8550  177.0530  140.1370 C   0  0  0  0  0  0  0  0  0  0  0  0
  189.5390  177.1230  140.3860 C   0  0  0  0  0  3  0  0  0  0  0  0
  190.8100  177.1010  143.1970 C   0  0  0  0  0  0  0  0  0  0  0  0
  188.8840  177.5530  141.6380 C   0  0  0  0  0  2  0  0  0  0  0  0
  189.4620  177.5780  142.8420 C   0  0  0  0  0  0  0  0  0  0  0  0
  191.3250  176.5300  138.8180 C   0  0  0  0  0  3  0  0  0  0  0  0
  192.7160  176.5980  138.7380 O   0  0  0  0  0  1  0  0  0  0  0  0
  190.9060  175.2110  138.6370 O   0  0  0  0  0  1  0  0  0  0  0  0
  185.7190  178.5260  146.2860 C   0  0  0  0  0  2  0  0  0  0  0  0
  182.5090  178.8790  144.3030 C   0  0  0  0  0  3  0  0  0  0  0  0
  185.2500  178.5220  143.8270 C   0  0  0  0  0  3  0  0  0  0  0  0
  182.5630  178.7400  140.6000 C   0  0  0  0  0  0  0  0  0  0  0  0
  182.0910  178.8460  141.9160 C   0  0  0  0  0  3  0  0  0  0  0  0
  182.9800  178.7760  142.9910 C   0  0  0  0  0  0  0  0  0  0  0  0
  184.8310  178.4870  141.4410 C   0  0  0  0  0  3  0  0  0  0  0  0
  184.3610  178.5950  142.7520 C   0  0  0  0  0  0  0  0  0  0  0  0
  183.9350  178.5600  140.3700 C   0  0  0  0  0  3  0  0  0  0  0  0
  184.7740  178.6340  145.1380 C   0  0  0  0  0  0  0  0  0  0  0  0
  183.4040  178.8060  145.3750 C   0  0  0  0  0  3  0  0  0  0  0  0
  181.6210  178.8160  139.4720 C   0  0  0  0  0  0  0  0  0  0  0  0
  180.3770  178.7880  139.6760 O   0  0  0  0  0  1  0  0  0  0  0  0
  182.0940  178.9160  138.1690 O   0  0  0  0  0  0  0  0  0  0  0  0
  1  5  1  0  0  0  0
  1 10  2  0  0  0  0
  2 15  1  0  0  0  0
  3 10  1  0  0  0  0
  3  9  2  0  0  0  0
  4 21  1  0  0  0  0
  4  8  1  0  0  0  0
  5  4  1  0  0  0  0
  6  8  2  0  0  0  0
  6  7  1  0  0  0  0
  9 11  1  0  0  0  0
 10  6  1  0  0  0  0
 11  7  2  0  0  0  0
 12  2  1  0  0  0  0
 13 14  2  0  0  0  0
 13 12  1  0  0  0  0
 14 16  1  0  0  0  0
 15  3  1  0  0  0  0
 16 17  1  0  0  0  0
 17 15  2  0  0  0  0
 17  1  1  0  0  0  0
 18 13  1  0  0  0  0
 19 18  1  0  0  0  0
 20 18  1  0  0  0  0
 22 31  1  0  0  0  0
 23 30  1  0  0  0  0
 24 25  2  0  0  0  0
 25 26  1  0  0  0  0
 26 22  2  0  0  0  0
 27 28  1  0  0  0  0
 28 26  1  0  0  0  0
 28 23  2  0  0  0  0
 29 24  1  0  0  0  0
 29 27  2  0  0  0  0
 30 31  2  0  0  0  0
 30 21  1  0  0  0  0
 32 33  1  0  0  0  0
 32 24  1  0  0  0  0
 34 32  2  0  0  0  0
M  END
>  <MODEL>
1

>  <REMARK>
 VINA RESULT:     -11.5      0.000      0.000
  Name = 
  4 active torsions:
  status: ('A' for Active; 'I' for Inactive)
    1  A    between atoms: C_3  and  C_25
    2  A    between atoms: C_7  and  C_11
    3  A    between atoms: N_8  and  C_18
    4  A    between atoms: C_18  and  C_30
                            x       y       z     vdW  Elec       q    Type
                         _______ _______ _______ _____ _____    ______ ____

>  <TORSDO>
F 4

$$$$
=
 OpenBabel11052415483D

 34 39  0  0  0  0  0  0  0  0999 V2000
  187.3720  178.1010  143.9260 C   0  0  0  0  0  0  0  0  0  0  0  0
  188.4480  177.8390  147.3830 C   0  0  0  0  0  2  0  0  0  0  0  0
  186.4220  178.1040  145.9590 C   0  0  0  0  0  0  0  0  0  0  0  0
  186.0540  178.5220  141.8960 N   0  0  0  0  0  0  0  0  0  0  0  0
  187.3860  178.1600  142.4230 C   0  0  0  0  0  2  0  0  0  0  0  0
  185.0200  178.5590  144.0720 C   0  0  0  0  0  0  0  0  0  0  0  0
  183.9670  178.7050  144.9260 N   0  0  0  0  0  0  0  0  0  0  0  0
  184.8980  178.6940  142.7490 C   0  0  0  0  0  3  0  0  0  0  0  0
  185.3360  178.2680  146.8140 C   0  0  0  0  0  3  0  0  0  0  0  0
  186.2560  178.2640  144.6140 C   0  0  0  0  0  0  0  0  0  0  0  0
  184.1230  178.5650  146.2530 N   0  0  0  0  0  0  0  0  0  0  0  0
  189.9390  177.8690  147.4920 C   0  0  0  0  0  2  0  0  0  0  0  0
  190.6370  176.7450  146.7910 C   0  0  0  0  0  0  0  0  0  0  0  0
  190.5360  176.5280  145.4700 C   0  0  0  0  0  3  0  0  0  0  0  0
  187.8320  177.8200  146.2050 C   0  0  0  0  0  0  0  0  0  0  0  0
  189.5910  177.1610  144.5280 C   0  0  0  0  0  2  0  0  0  0  0  0
  188.4440  177.7540  144.8670 C   0  0  0  0  0  0  0  0  0  0  0  0
  191.6240  175.9550  147.5890 C   0  0  0  0  0  3  0  0  0  0  0  0
  192.4390  175.2030  146.7430 O   0  0  0  0  0  1  0  0  0  0  0  0
  192.4090  176.8010  148.3730 O   0  0  0  0  0  1  0  0  0  0  0  0
  185.9070  178.7440  140.4670 C   0  0  0  0  0  2  0  0  0  0  0  0
  188.0990  177.3080  137.7300 C   0  0  0  0  0  3  0  0  0  0  0  0
  188.3320  178.1270  140.4030 C   0  0  0  0  0  3  0  0  0  0  0  0
  191.6800  176.5960  138.3700 C   0  0  0  0  0  0  0  0  0  0  0  0
  190.4450  176.6980  137.7130 C   0  0  0  0  0  3  0  0  0  0  0  0
  189.3300  177.2080  138.3840 C   0  0  0  0  0  0  0  0  0  0  0  0
  190.6760  177.5150  140.3860 C   0  0  0  0  0  3  0  0  0  0  0  0
  189.4470  177.6190  139.7310 C   0  0  0  0  0  0  0  0  0  0  0  0
  191.7880  177.0050  139.7070 C   0  0  0  0  0  3  0  0  0  0  0  0
  187.1040  178.2320  139.7400 C   0  0  0  0  0  0  0  0  0  0  0  0
  186.9870  177.8170  138.4080 C   0  0  0  0  0  3  0  0  0  0  0  0
  192.8500  176.0580  137.6570 C   0  0  0  0  0  0  0  0  0  0  0  0
  193.7790  176.8250  137.2880 O   0  0  0  0  0  0  0  0  0  0  0  0
  192.9400  174.6990  137.3820 O   0  0  0  0  0  1  0  0  0  0  0  0
  1 10  2  0  0  0  0
  1 17  1  0  0  0  0
  2 12  1  0  0  0  0
  3 15  1  0  0  0  0
  3  9  2  0  0  0  0
  4  5  1  0  0  0  0
  4  8  1  0  0  0  0
  5  1  1  0  0  0  0
  6 10  1  0  0  0  0
  6  7  1  0  0  0  0
  7 11  2  0  0  0  0
  8  6  2  0  0  0  0
 10  3  1  0  0  0  0
 11  9  1  0  0  0  0
 13 12  1  0  0  0  0
 13 18  1  0  0  0  0
 14 13  2  0  0  0  0
 15  2  1  0  0  0  0
 16 17  1  0  0  0  0
 16 14  1  0  0  0  0
 17 15  2  0  0  0  0
 18 20  1  0  0  0  0
 19 18  1  0  0  0  0
 21  4  1  0  0  0  0
 22 26  2  0  0  0  0
 22 31  1  0  0  0  0
 24 29  1  0  0  0  0
 25 24  2  0  0  0  0
 25 26  1  0  0  0  0
 26 28  1  0  0  0  0
 28 27  1  0  0  0  0
 28 23  2  0  0  0  0
 29 27  2  0  0  0  0
 30 23  1  0  0  0  0
 30 21  1  0  0  0  0
 31 30  2  0  0  0  0
 32 24  1  0  0  0  0
 33 32  2  0  0  0  0
 34 32  1  0  0  0  0
M  END
>  <MODEL>
2

>  <REMARK>
 VINA RESULT:     -11.4      3.894      7.206
  Name = 
  4 active torsions:
  status: ('A' for Active; 'I' for Inactive)
    1  A    between atoms: C_3  and  C_25
    2  A    between atoms: C_7  and  C_11
    3  A    between atoms: N_8  and  C_18
    4  A    between atoms: C_18  and  C_30
                            x       y       z     vdW  Elec       q    Type
                         _______ _______ _______ _____ _____    ______ ____

>  <TORSDO>
F 4

$$$$
=
 OpenBabel11052415483D

 34 39  0  0  0  0  0  0  0  0999 V2000
  188.9600  177.9020  142.8520 C   0  0  0  0  0  0  0  0  0  0  0  0
  188.8580  177.6010  146.4680 C   0  0  0  0  0  2  0  0  0  0  0  0
  187.3980  177.7620  144.4580 C   0  0  0  0  0  0  0  0  0  0  0  0
  188.3530  178.2930  140.5040 N   0  0  0  0  0  0  0  0  0  0  0  0
  189.4630  178.0130  141.4400 C   0  0  0  0  0  2  0  0  0  0  0  0
  186.6620  178.1770  142.2170 C   0  0  0  0  0  0  0  0  0  0  0  0
  185.3790  178.2140  142.6760 N   0  0  0  0  0  0  0  0  0  0  0  0
  186.9710  178.3480  140.9290 C   0  0  0  0  0  3  0  0  0  0  0  0
  186.0820  177.8150  144.9070 C   0  0  0  0  0  3  0  0  0  0  0  0
  187.6720  177.9570  143.1340 C   0  0  0  0  0  0  0  0  0  0  0  0
  185.1010  178.0410  143.9790 N   0  0  0  0  0  0  0  0  0  0  0  0
  190.2220  177.7380  147.0650 C   0  0  0  0  0  2  0  0  0  0  0  0
  191.2020  176.6950  146.6240 C   0  0  0  0  0  0  0  0  0  0  0  0
  191.5590  176.5160  145.3430 C   0  0  0  0  0  3  0  0  0  0  0  0
  188.6670  177.5760  145.1530 C   0  0  0  0  0  0  0  0  0  0  0  0
  190.9280  177.1090  144.1460 C   0  0  0  0  0  2  0  0  0  0  0  0
  189.6880  177.6030  144.0920 C   0  0  0  0  0  0  0  0  0  0  0  0
  191.9320  175.9530  147.6970 C   0  0  0  0  0  3  0  0  0  0  0  0
  192.8790  175.0960  147.1350 O   0  0  0  0  0  1  0  0  0  0  0  0
  192.5610  176.8440  148.5680 O   0  0  0  0  0  1  0  0  0  0  0  0
  188.6670  178.5540  139.1090 C   0  0  0  0  0  2  0  0  0  0  0  0
  189.3350  175.2420  137.3930 C   0  0  0  0  0  3  0  0  0  0  0  0
  190.7840  177.3210  138.5940 C   0  0  0  0  0  3  0  0  0  0  0  0
  192.8030  173.9940  137.0020 C   0  0  0  0  0  0  0  0  0  0  0  0
  191.4040  174.0660  136.9330 C   0  0  0  0  0  3  0  0  0  0  0  0
  190.7290  175.1710  137.4590 C   0  0  0  0  0  0  0  0  0  0  0  0
  192.8510  176.1450  138.1370 C   0  0  0  0  0  3  0  0  0  0  0  0
  191.4590  176.2180  138.0660 C   0  0  0  0  0  0  0  0  0  0  0  0
  193.5200  175.0370  137.6060 C   0  0  0  0  0  3  0  0  0  0  0  0
  189.3880  177.3910  138.5170 C   0  0  0  0  0  0  0  0  0  0  0  0
  188.6660  176.3490  137.9230 C   0  0  0  0  0  3  0  0  0  0  0  0
  193.5070  172.8280  136.4450 C   0  0  0  0  0  0  0  0  0  0  0  0
  192.8590  171.8320  136.0230 O   0  0  0  0  0  0  0  0  0  0  0  0
  194.8960  172.8130  136.3800 O   0  0  0  0  0  1  0  0  0  0  0  0
  1 10  2  0  0  0  0
  1 17  1  0  0  0  0
  2 12  1  0  0  0  0
  3  9  2  0  0  0  0
  3 15  1  0  0  0  0
  4  8  1  0  0  0  0
  4  5  1  0  0  0  0
  5  1  1  0  0  0  0
  6  7  1  0  0  0  0
  6 10  1  0  0  0  0
  7 11  2  0  0  0  0
  8  6  2  0  0  0  0
 10  3  1  0  0  0  0
 11  9  1  0  0  0  0
 13 12  1  0  0  0  0
 13 18  1  0  0  0  0
 14 13  2  0  0  0  0
 15  2  1  0  0  0  0
 16 14  1  0  0  0  0
 17 16  1  0  0  0  0
 17 15  2  0  0  0  0
 18 20  1  0  0  0  0
 19 18  1  0  0  0  0
 21  4  1  0  0  0  0
 22 26  2  0  0  0  0
 22 31  1  0  0  0  0
 24 29  1  0  0  0  0
 25 24  2  0  0  0  0
 25 26  1  0  0  0  0
 26 28  1  0  0  0  0
 28 27  1  0  0  0  0
 28 23  2  0  0  0  0
 29 27  2  0  0  0  0
 30 23  1  0  0  0  0
 30 21  1  0  0  0  0
 31 30  2  0  0  0  0
 32 24  1  0  0  0  0
 33 32  2  0  0  0  0
 34 32  1  0  0  0  0
M  END
>  <MODEL>
3

>  <REMARK>
 VINA RESULT:     -11.4      4.493      8.243
  Name = 
  4 active torsions:
  status: ('A' for Active; 'I' for Inactive)
    1  A    between atoms: C_3  and  C_25
    2  A    between atoms: C_7  and  C_11
    3  A    between atoms: N_8  and  C_18
    4  A    between atoms: C_18  and  C_30
                            x       y       z     vdW  Elec       q    Type
                         _______ _______ _______ _____ _____    ______ ____

>  <TORSDO>
F 4

$$$$
=
 OpenBabel11052415483D

 34 39  0  0  0  0  0  0  0  0999 V2000
  185.0920  178.5980  142.3980 C   0  0  0  0  0  0  0  0  0  0  0  0
  184.8950  178.6350  146.0230 C   0  0  0  0  0  2  0  0  0  0  0  0
  183.4880  178.6040  143.9680 C   0  0  0  0  0  0  0  0  0  0  0  0
  184.5470  178.7670  140.0090 N   0  0  0  0  0  0  0  0  0  0  0  0
  185.6320  178.5790  140.9950 C   0  0  0  0  0  2  0  0  0  0  0  0
  182.8120  178.8060  141.6810 C   0  0  0  0  0  0  0  0  0  0  0  0
  181.5170  178.8830  142.1000 N   0  0  0  0  0  0  0  0  0  0  0  0
  183.1540  178.8580  140.3900 C   0  0  0  0  0  3  0  0  0  0  0  0
  182.1610  178.6950  144.3760 C   0  0  0  0  0  3  0  0  0  0  0  0
  183.7970  178.6750  142.6400 C   0  0  0  0  0  0  0  0  0  0  0  0
  181.2050  178.8300  143.4060 N   0  0  0  0  0  0  0  0  0  0  0  0
  186.2440  178.8310  146.6390 C   0  0  0  0  0  2  0  0  0  0  0  0
  187.2350  177.7530  146.3230 C   0  0  0  0  0  0  0  0  0  0  0  0
  187.6250  177.4580  145.0740 C   0  0  0  0  0  3  0  0  0  0  0  0
  184.7390  178.4870  144.7110 C   0  0  0  0  0  0  0  0  0  0  0  0
  187.0260  177.9350  143.8120 C   0  0  0  0  0  2  0  0  0  0  0  0
  185.7870  178.4180  143.6790 C   0  0  0  0  0  0  0  0  0  0  0  0
  187.9370  177.1170  147.4800 C   0  0  0  0  0  3  0  0  0  0  0  0
  189.2320  176.7470  147.1150 O   0  0  0  0  0  1  0  0  0  0  0  0
  187.9840  177.9920  148.5660 O   0  0  0  0  0  1  0  0  0  0  0  0
  184.8970  178.8970  138.6040 C   0  0  0  0  0  2  0  0  0  0  0  0
  187.0600  176.1660  137.1140 C   0  0  0  0  0  3  0  0  0  0  0  0
  187.3070  178.2990  138.9180 C   0  0  0  0  0  3  0  0  0  0  0  0
  190.6220  175.8490  138.0860 C   0  0  0  0  0  0  0  0  0  0  0  0
  189.3910  175.6020  137.4620 C   0  0  0  0  0  3  0  0  0  0  0  0
  188.2870  176.4140  137.7350 C   0  0  0  0  0  0  0  0  0  0  0  0
  189.6370  177.7340  139.2680 C   0  0  0  0  0  3  0  0  0  0  0  0
  188.4120  177.4890  138.6440 C   0  0  0  0  0  0  0  0  0  0  0  0
  190.7380  176.9170  138.9890 C   0  0  0  0  0  3  0  0  0  0  0  0
  186.0820  178.0510  138.2880 C   0  0  0  0  0  0  0  0  0  0  0  0
  185.9590  176.9810  137.3920 C   0  0  0  0  0  3  0  0  0  0  0  0
  191.7810  174.9900  137.7950 C   0  0  0  0  0  0  0  0  0  0  0  0
  191.6170  173.7730  137.5110 O   0  0  0  0  0  0  0  0  0  0  0  0
  193.0680  175.5130  137.8310 O   0  0  0  0  0  1  0  0  0  0  0  0
  1 10  2  0  0  0  0
  1 17  1  0  0  0  0
  2 12  1  0  0  0  0
  3  9  2  0  0  0  0
  3 15  1  0  0  0  0
  4  8  1  0  0  0  0
  4  5  1  0  0  0  0
  5  1  1  0  0  0  0
  6  7  1  0  0  0  0
  6 10  1  0  0  0  0
  7 11  2  0  0  0  0
  8  6  2  0  0  0  0
 10  3  1  0  0  0  0
 11  9  1  0  0  0  0
 13 12  1  0  0  0  0
 13 18  1  0  0  0  0
 14 13  2  0  0  0  0
 15  2  1  0  0  0  0
 16 14  1  0  0  0  0
 17 16  1  0  0  0  0
 17 15  2  0  0  0  0
 18 20  1  0  0  0  0
 19 18  1  0  0  0  0
 21  4  1  0  0  0  0
 22 31  2  0  0  0  0
 22 26  1  0  0  0  0
 24 29  1  0  0  0  0
 25 26  1  0  0  0  0
 25 24  2  0  0  0  0
 26 28  2  0  0  0  0
 28 23  1  0  0  0  0
 28 27  1  0  0  0  0
 29 27  2  0  0  0  0
 30 21  1  0  0  0  0
 30 23  2  0  0  0  0
 31 30  1  0  0  0  0
 32 34  1  0  0  0  0
 32 24  1  0  0  0  0
 33 32  2  0  0  0  0
M  END
>  <MODEL>
4

>  <REMARK>
 VINA RESULT:     -11.3      4.154      8.077
  Name = 
  4 active torsions:
  status: ('A' for Active; 'I' for Inactive)
    1  A    between atoms: C_3  and  C_25
    2  A    between atoms: C_7  and  C_11
    3  A    between atoms: N_8  and  C_18
    4  A    between atoms: C_18  and  C_30
                            x       y       z     vdW  Elec       q    Type
                         _______ _______ _______ _____ _____    ______ ____

>  <TORSDO>
F 4

$$$$
=
 OpenBabel11052415483D

 34 39  0  0  0  0  0  0  0  0999 V2000
  188.1360  177.7510  141.4030 C   0  0  0  0  0  0  0  0  0  0  0  0
  188.1750  177.2380  144.9970 C   0  0  0  0  0  2  0  0  0  0  0  0
  189.6700  177.5190  143.0250 C   0  0  0  0  0  0  0  0  0  0  0  0
  188.7830  177.8890  139.0380 N   0  0  0  0  0  0  0  0  0  0  0  0
  187.6580  177.9610  139.9930 C   0  0  0  0  0  2  0  0  0  0  0  0
  190.4440  177.6090  140.7610 C   0  0  0  0  0  0  0  0  0  0  0  0
  191.7190  177.4620  141.2220 N   0  0  0  0  0  0  0  0  0  0  0  0
  190.1580  177.7310  139.4620 C   0  0  0  0  0  3  0  0  0  0  0  0
  190.9770  177.3590  143.4730 C   0  0  0  0  0  3  0  0  0  0  0  0
  189.4190  177.6260  141.6870 C   0  0  0  0  0  0  0  0  0  0  0  0
  191.9740  177.3390  142.5350 N   0  0  0  0  0  0  0  0  0  0  0  0
  186.7990  176.9800  145.5250 C   0  0  0  0  0  2  0  0  0  0  0  0
  185.8300  178.1020  145.3110 C   0  0  0  0  0  0  0  0  0  0  0  0
  185.4970  178.5640  144.0960 C   0  0  0  0  0  3  0  0  0  0  0  0
  188.3890  177.5540  143.7230 C   0  0  0  0  0  0  0  0  0  0  0  0
  186.1480  178.2490  142.8090 C   0  0  0  0  0  2  0  0  0  0  0  0
  187.3870  177.7710  142.6660 C   0  0  0  0  0  0  0  0  0  0  0  0
  185.0830  178.5910  146.5100 C   0  0  0  0  0  3  0  0  0  0  0  0
  185.7530  179.6680  147.0920 O   0  0  0  0  0  1  0  0  0  0  0  0
  183.7890  178.9750  146.1580 O   0  0  0  0  0  1  0  0  0  0  0  0
  188.4940  177.9480  137.6150 C   0  0  0  0  0  2  0  0  0  0  0  0
  185.0130  176.7800  136.6770 C   0  0  0  0  0  3  0  0  0  0  0  0
  187.5010  175.6660  137.3420 C   0  0  0  0  0  3  0  0  0  0  0  0
  184.2310  173.1610  136.4980 C   0  0  0  0  0  0  0  0  0  0  0  0
  184.0800  174.5540  136.4470 C   0  0  0  0  0  3  0  0  0  0  0  0
  185.1650  175.3910  136.7250 C   0  0  0  0  0  0  0  0  0  0  0  0
  186.5670  173.4430  137.1150 C   0  0  0  0  0  3  0  0  0  0  0  0
  186.4180  174.8300  137.0620 C   0  0  0  0  0  0  0  0  0  0  0  0
  185.4770  172.6120  136.8330 C   0  0  0  0  0  3  0  0  0  0  0  0
  187.3460  177.0570  137.2850 C   0  0  0  0  0  0  0  0  0  0  0  0
  186.1020  177.6110  136.9580 C   0  0  0  0  0  3  0  0  0  0  0  0
  183.0850  172.2860  136.2030 C   0  0  0  0  0  0  0  0  0  0  0  0
  182.7180  171.4140  137.0350 O   0  0  0  0  0  1  0  0  0  0  0  0
  182.3970  172.4130  135.0020 O   0  0  0  0  0  0  0  0  0  0  0  0
  1 10  2  0  0  0  0
  1 17  1  0  0  0  0
  2 12  1  0  0  0  0
  3  9  2  0  0  0  0
  3 15  1  0  0  0  0
  4  8  1  0  0  0  0
  4  5  1  0  0  0  0
  5  1  1  0  0  0  0
  6  7  1  0  0  0  0
  6 10  1  0  0  0  0
  7 11  2  0  0  0  0
  8  6  2  0  0  0  0
 10  3  1  0  0  0  0
 11  9  1  0  0  0  0
 13 12  1  0  0  0  0
 13 18  1  0  0  0  0
 14 13  2  0  0  0  0
 15  2  1  0  0  0  0
 16 14  1  0  0  0  0
 17 16  1  0  0  0  0
 17 15  2  0  0  0  0
 18 19  1  0  0  0  0
 20 18  1  0  0  0  0
 21  4  1  0  0  0  0
 22 26  2  0  0  0  0
 22 31  1  0  0  0  0
 24 29  1  0  0  0  0
 25 24  2  0  0  0  0
 25 26  1  0  0  0  0
 26 28  1  0  0  0  0
 28 27  1  0  0  0  0
 28 23  2  0  0  0  0
 29 27  2  0  0  0  0
 30 23  1  0  0  0  0
 30 21  1  0  0  0  0
 31 30  2  0  0  0  0
 32 24  1  0  0  0  0
 32 33  1  0  0  0  0
 34 32  2  0  0  0  0
M  END
>  <MODEL>
5

>  <REMARK>
 VINA RESULT:     -11.2      4.568      6.888
  Name = 
  4 active torsions:
  status: ('A' for Active; 'I' for Inactive)
    1  A    between atoms: C_3  and  C_25
    2  A    between atoms: C_7  and  C_11
    3  A    between atoms: N_8  and  C_18
    4  A    between atoms: C_18  and  C_30
                            x       y       z     vdW  Elec       q    Type
                         _______ _______ _______ _____ _____    ______ ____

>  <TORSDO>
F 4

$$$$
=
 OpenBabel11052415483D

 34 39  0  0  0  0  0  0  0  0999 V2000
  184.8450  178.5260  141.8580 C   0  0  0  0  0  0  0  0  0  0  0  0
  185.2600  178.0640  138.2810 C   0  0  0  0  0  2  0  0  0  0  0  0
  183.5940  178.7350  140.0060 C   0  0  0  0  0  0  0  0  0  0  0  0
  183.8800  178.8240  144.0970 N   0  0  0  0  0  0  0  0  0  0  0  0
  185.1240  178.5880  143.3340 C   0  0  0  0  0  2  0  0  0  0  0  0
  182.5130  179.0240  142.1220 C   0  0  0  0  0  0  0  0  0  0  0  0
  181.3390  179.2370  141.4610 N   0  0  0  0  0  0  0  0  0  0  0  0
  182.6040  179.0550  143.4550 C   0  0  0  0  0  3  0  0  0  0  0  0
  182.3850  178.9450  139.3510 C   0  0  0  0  0  3  0  0  0  0  0  0
  183.6410  178.7620  141.3700 C   0  0  0  0  0  0  0  0  0  0  0  0
  181.2800  179.1960  140.1200 N   0  0  0  0  0  0  0  0  0  0  0  0
  186.5810  177.4390  137.9630 C   0  0  0  0  0  2  0  0  0  0  0  0
  187.7700  178.2490  138.3820 C   0  0  0  0  0  0  0  0  0  0  0  0
  188.0110  178.5940  139.6560 C   0  0  0  0  0  3  0  0  0  0  0  0
  184.9330  178.4190  139.5200 C   0  0  0  0  0  0  0  0  0  0  0  0
  187.0970  178.4630  140.8080 C   0  0  0  0  0  2  0  0  0  0  0  0
  185.7690  178.3460  140.7310 C   0  0  0  0  0  0  0  0  0  0  0  0
  188.8080  178.5190  137.3410 C   0  0  0  0  0  3  0  0  0  0  0  0
  189.0520  179.8900  137.2450 O   0  0  0  0  0  1  0  0  0  0  0  0
  189.9940  177.8490  137.6460 O   0  0  0  0  0  1  0  0  0  0  0  0
  183.9360  178.7930  145.5490 C   0  0  0  0  0  2  0  0  0  0  0  0
  186.9730  178.3100  147.7630 C   0  0  0  0  0  3  0  0  0  0  0  0
  186.2320  177.9070  145.0880 C   0  0  0  0  0  3  0  0  0  0  0  0
  190.1220  176.9480  146.3620 C   0  0  0  0  0  0  0  0  0  0  0  0
  189.1930  177.4690  147.2730 C   0  0  0  0  0  3  0  0  0  0  0  0
  187.8980  177.7880  146.8550 C   0  0  0  0  0  0  0  0  0  0  0  0
  188.4510  177.0700  144.5990 C   0  0  0  0  0  3  0  0  0  0  0  0
  187.5250  177.5860  145.5070 C   0  0  0  0  0  0  0  0  0  0  0  0
  189.7440  176.7510  145.0250 C   0  0  0  0  0  3  0  0  0  0  0  0
  185.3060  178.4220  146.0030 C   0  0  0  0  0  0  0  0  0  0  0  0
  185.6800  178.6280  147.3370 C   0  0  0  0  0  3  0  0  0  0  0  0
  191.4840  176.6140  146.8090 C   0  0  0  0  0  0  0  0  0  0  0  0
  192.2160  175.8580  146.1160 O   0  0  0  0  0  0  0  0  0  0  0  0
  191.9750  177.1280  148.0040 O   0  0  0  0  0  1  0  0  0  0  0  0
  1  5  1  0  0  0  0
  2 15  1  0  0  0  0
  3 10  1  0  0  0  0
  4 21  1  0  0  0  0
  5  4  1  0  0  0  0
  6  8  2  0  0  0  0
  7  6  1  0  0  0  0
  8  4  1  0  0  0  0
  9  3  2  0  0  0  0
  9 11  1  0  0  0  0
 10  1  2  0  0  0  0
 10  6  1  0  0  0  0
 11  7  2  0  0  0  0
 12  2  1  0  0  0  0
 12 13  1  0  0  0  0
 13 14  2  0  0  0  0
 14 16  1  0  0  0  0
 15  3  1  0  0  0  0
 15 17  2  0  0  0  0
 17 16  1  0  0  0  0
 17  1  1  0  0  0  0
 18 20  1  0  0  0  0
 18 13  1  0  0  0  0
 19 18  1  0  0  0  0
 21 30  1  0  0  0  0
 23 28  2  0  0  0  0
 23 30  1  0  0  0  0
 24 32  1  0  0  0  0
 24 25  2  0  0  0  0
 26 25  1  0  0  0  0
 26 22  2  0  0  0  0
 27 29  2  0  0  0  0
 27 28  1  0  0  0  0
 28 26  1  0  0  0  0
 29 24  1  0  0  0  0
 30 31  2  0  0  0  0
 31 22  1  0  0  0  0
 32 34  1  0  0  0  0
 33 32  2  0  0  0  0
M  END
>  <MODEL>
6

>  <REMARK>
 VINA RESULT:     -11.1      3.337      7.336
  Name = 
  4 active torsions:
  status: ('A' for Active; 'I' for Inactive)
    1  A    between atoms: C_3  and  C_25
    2  A    between atoms: C_7  and  C_11
    3  A    between atoms: N_8  and  C_18
    4  A    between atoms: C_18  and  C_30
                            x       y       z     vdW  Elec       q    Type
                         _______ _______ _______ _____ _____    ______ ____

>  <TORSDO>
F 4

$$$$
=
 OpenBabel11052415483D

 34 39  0  0  0  0  0  0  0  0999 V2000
  186.2390  178.2470  142.9870 C   0  0  0  0  0  0  0  0  0  0  0  0
  188.8300  177.8500  145.4980 C   0  0  0  0  0  2  0  0  0  0  0  0
  186.3760  178.1730  145.2260 C   0  0  0  0  0  0  0  0  0  0  0  0
  184.1210  178.7480  141.8480 N   0  0  0  0  0  0  0  0  0  0  0  0
  185.5360  178.3630  141.6630 C   0  0  0  0  0  2  0  0  0  0  0  0
  184.2530  178.7030  144.2540 C   0  0  0  0  0  0  0  0  0  0  0  0
  183.7390  178.8190  145.5110 N   0  0  0  0  0  0  0  0  0  0  0  0
  183.5160  178.8890  143.1550 C   0  0  0  0  0  3  0  0  0  0  0  0
  185.8340  178.3070  146.5000 C   0  0  0  0  0  3  0  0  0  0  0  0
  185.5920  178.3860  144.1280 C   0  0  0  0  0  0  0  0  0  0  0  0
  184.5070  178.6280  146.5970 N   0  0  0  0  0  0  0  0  0  0  0  0
  190.1930  177.8740  144.8820 C   0  0  0  0  0  2  0  0  0  0  0  0
  190.4490  176.7760  143.8950 C   0  0  0  0  0  0  0  0  0  0  0  0
  189.7250  176.6100  142.7780 C   0  0  0  0  0  3  0  0  0  0  0  0
  187.7260  177.8780  144.7580 C   0  0  0  0  0  0  0  0  0  0  0  0
  188.4580  177.2800  142.4230 C   0  0  0  0  0  2  0  0  0  0  0  0
  187.6230  177.8620  143.2890 C   0  0  0  0  0  0  0  0  0  0  0  0
  191.6800  175.9530  144.0990 C   0  0  0  0  0  3  0  0  0  0  0  0
  192.0540  175.9670  145.4430 O   0  0  0  0  0  1  0  0  0  0  0  0
  191.4660  174.6390  143.6810 O   0  0  0  0  0  1  0  0  0  0  0  0
  183.3140  179.0250  140.6720 C   0  0  0  0  0  2  0  0  0  0  0  0
  182.6830  175.6300  139.1100 C   0  0  0  0  0  3  0  0  0  0  0  0
  184.2120  177.9270  138.6090 C   0  0  0  0  0  3  0  0  0  0  0  0
  184.4310  174.6400  135.9960 C   0  0  0  0  0  0  0  0  0  0  0  0
  183.5930  174.5910  137.1190 C   0  0  0  0  0  3  0  0  0  0  0  0
  183.5160  175.6810  137.9890 C   0  0  0  0  0  0  0  0  0  0  0  0
  185.1230  176.8870  136.6200 C   0  0  0  0  0  3  0  0  0  0  0  0
  184.2880  176.8380  137.7370 C   0  0  0  0  0  0  0  0  0  0  0  0
  185.1940  175.7920  135.7530 C   0  0  0  0  0  3  0  0  0  0  0  0
  183.3700  177.8740  139.7250 C   0  0  0  0  0  0  0  0  0  0  0  0
  182.6120  176.7240  139.9780 C   0  0  0  0  0  3  0  0  0  0  0  0
  184.5070  173.4880  135.0830 C   0  0  0  0  0  0  0  0  0  0  0  0
  183.4570  172.9000  134.7090 O   0  0  0  0  0  1  0  0  0  0  0  0
  185.7390  173.0360  134.6260 O   0  0  0  0  0  0  0  0  0  0  0  0
  1 17  1  0  0  0  0
  1 10  2  0  0  0  0
  3  9  2  0  0  0  0
  4  8  1  0  0  0  0
  5  4  1  0  0  0  0
  5  1  1  0  0  0  0
  6  7  1  0  0  0  0
  7 11  2  0  0  0  0
  8  6  2  0  0  0  0
  9 11  1  0  0  0  0
 10  6  1  0  0  0  0
 10  3  1  0  0  0  0
 12  2  1  0  0  0  0
 13 18  1  0  0  0  0
 13 12  1  0  0  0  0
 14 13  2  0  0  0  0
 15  3  1  0  0  0  0
 15  2  1  0  0  0  0
 16 14  1  0  0  0  0
 16 17  1  0  0  0  0
 17 15  2  0  0  0  0
 18 19  1  0  0  0  0
 20 18  1  0  0  0  0
 21  4  1  0  0  0  0
 22 31  1  0  0  0  0
 23 30  1  0  0  0  0
 24 25  2  0  0  0  0
 25 26  1  0  0  0  0
 26 22  2  0  0  0  0
 27 28  1  0  0  0  0
 28 26  1  0  0  0  0
 28 23  2  0  0  0  0
 29 24  1  0  0  0  0
 29 27  2  0  0  0  0
 30 31  2  0  0  0  0
 30 21  1  0  0  0  0
 32 24  1  0  0  0  0
 33 32  1  0  0  0  0
 34 32  2  0  0  0  0
M  END
>  <MODEL>
7

>  <REMARK>
 VINA RESULT:     -11.1      3.581      5.482
  Name = 
  4 active torsions:
  status: ('A' for Active; 'I' for Inactive)
    1  A    between atoms: C_3  and  C_25
    2  A    between atoms: C_7  and  C_11
    3  A    between atoms: N_8  and  C_18
    4  A    between atoms: C_18  and  C_30
                            x       y       z     vdW  Elec       q    Type
                         _______ _______ _______ _____ _____    ______ ____

>  <TORSDO>
F 4

$$$$
=
 OpenBabel11052415483D

 34 39  0  0  0  0  0  0  0  0999 V2000
  186.1820  178.3000  142.9890 C   0  0  0  0  0  0  0  0  0  0  0  0
  188.2430  177.8230  145.9380 C   0  0  0  0  0  2  0  0  0  0  0  0
  185.8900  178.1960  145.2120 C   0  0  0  0  0  0  0  0  0  0  0  0
  184.3260  178.8550  141.4780 N   0  0  0  0  0  0  0  0  0  0  0  0
  185.7440  178.4460  141.5570 C   0  0  0  0  0  2  0  0  0  0  0  0
  183.9990  178.7780  143.8640 C   0  0  0  0  0  0  0  0  0  0  0  0
  183.2570  178.8880  145.0030 N   0  0  0  0  0  0  0  0  0  0  0  0
  183.4870  178.9920  142.6490 C   0  0  0  0  0  3  0  0  0  0  0  0
  185.1190  178.3240  146.3620 C   0  0  0  0  0  3  0  0  0  0  0  0
  185.3310  178.4370  143.9890 C   0  0  0  0  0  0  0  0  0  0  0  0
  183.8030  178.6690  146.2110 N   0  0  0  0  0  0  0  0  0  0  0  0
  189.6980  177.8280  145.5920 C   0  0  0  0  0  2  0  0  0  0  0  0
  190.1180  176.7380  144.6550 C   0  0  0  0  0  0  0  0  0  0  0  0
  189.6160  176.5990  143.4180 C   0  0  0  0  0  3  0  0  0  0  0  0
  187.3000  177.8800  145.0030 C   0  0  0  0  0  0  0  0  0  0  0  0
  188.4510  177.2980  142.8400 C   0  0  0  0  0  2  0  0  0  0  0  0
  187.4770  177.8850  143.5410 C   0  0  0  0  0  0  0  0  0  0  0  0
  191.2750  175.8900  145.0750 C   0  0  0  0  0  3  0  0  0  0  0  0
  192.0560  175.5540  143.9680 O   0  0  0  0  0  1  0  0  0  0  0  0
  192.0560  176.5590  146.0190 O   0  0  0  0  0  1  0  0  0  0  0  0
  183.7610  179.1620  140.1740 C   0  0  0  0  0  2  0  0  0  0  0  0
  183.5210  176.2160  137.8030 C   0  0  0  0  0  3  0  0  0  0  0  0
  182.0840  177.3170  139.9460 C   0  0  0  0  0  3  0  0  0  0  0  0
  180.6750  173.8510  138.0270 C   0  0  0  0  0  0  0  0  0  0  0  0
  181.8640  174.4580  137.5980 C   0  0  0  0  0  3  0  0  0  0  0  0
  182.3370  175.6090  138.2330 C   0  0  0  0  0  0  0  0  0  0  0  0
  180.4280  175.5620  139.7380 C   0  0  0  0  0  3  0  0  0  0  0  0
  181.6130  176.1650  139.3120 C   0  0  0  0  0  0  0  0  0  0  0  0
  179.9610  174.4090  139.0980 C   0  0  0  0  0  3  0  0  0  0  0  0
  183.2750  177.9150  139.5170 C   0  0  0  0  0  0  0  0  0  0  0  0
  183.9870  177.3680  138.4430 C   0  0  0  0  0  3  0  0  0  0  0  0
  180.1830  172.6390  137.3530 C   0  0  0  0  0  0  0  0  0  0  0  0
  180.6650  171.5100  137.6380 O   0  0  0  0  0  1  0  0  0  0  0  0
  179.1810  172.7280  136.3930 O   0  0  0  0  0  0  0  0  0  0  0  0
  1 17  1  0  0  0  0
  1 10  2  0  0  0  0
  3  9  2  0  0  0  0
  4  5  1  0  0  0  0
  4  8  1  0  0  0  0
  5  1  1  0  0  0  0
  6 10  1  0  0  0  0
  6  7  1  0  0  0  0
  7 11  2  0  0  0  0
  8  6  2  0  0  0  0
 10  3  1  0  0  0  0
 11  9  1  0  0  0  0
 12  2  1  0  0  0  0
 13 18  1  0  0  0  0
 13 12  1  0  0  0  0
 14 13  2  0  0  0  0
 15  3  1  0  0  0  0
 15  2  1  0  0  0  0
 16 14  1  0  0  0  0
 16 17  1  0  0  0  0
 17 15  2  0  0  0  0
 18 20  1  0  0  0  0
 19 18  1  0  0  0  0
 21  4  1  0  0  0  0
 22 26  2  0  0  0  0
 22 31  1  0  0  0  0
 24 29  1  0  0  0  0
 25 24  2  0  0  0  0
 25 26  1  0  0  0  0
 26 28  1  0  0  0  0
 28 27  1  0  0  0  0
 28 23  2  0  0  0  0
 29 27  2  0  0  0  0
 30 23  1  0  0  0  0
 30 21  1  0  0  0  0
 31 30  2  0  0  0  0
 32 33  1  0  0  0  0
 32 24  1  0  0  0  0
 34 32  2  0  0  0  0
M  END
>  <MODEL>
8

>  <REMARK>
 VINA RESULT:     -11.0      3.534      5.729
  Name = 
  4 active torsions:
  status: ('A' for Active; 'I' for Inactive)
    1  A    between atoms: C_3  and  C_25
    2  A    between atoms: C_7  and  C_11
    3  A    between atoms: N_8  and  C_18
    4  A    between atoms: C_18  and  C_30
                            x       y       z     vdW  Elec       q    Type
                         _______ _______ _______ _____ _____    ______ ____

>  <TORSDO>
F 4

$$$$
=
 OpenBabel11052415483D

 34 39  0  0  0  0  0  0  0  0999 V2000
  187.7990  177.7970  141.0780 C   0  0  0  0  0  0  0  0  0  0  0  0
  189.2790  177.1080  137.8360 C   0  0  0  0  0  2  0  0  0  0  0  0
  187.3180  178.1930  138.9220 C   0  0  0  0  0  0  0  0  0  0  0  0
  186.2270  178.3890  142.8710 N   0  0  0  0  0  0  0  0  0  0  0  0
  187.5730  177.8590  142.5630 C   0  0  0  0  0  2  0  0  0  0  0  0
  185.6790  178.7950  140.5600 C   0  0  0  0  0  0  0  0  0  0  0  0
  184.8700  179.2270  139.5500 N   0  0  0  0  0  0  0  0  0  0  0  0
  185.3220  178.8610  141.8460 C   0  0  0  0  0  3  0  0  0  0  0  0
  186.4730  178.6300  137.9060 C   0  0  0  0  0  3  0  0  0  0  0  0
  186.9090  178.2660  140.2230 C   0  0  0  0  0  0  0  0  0  0  0  0
  185.2570  179.1440  138.2660 N   0  0  0  0  0  0  0  0  0  0  0  0
  190.4620  176.2010  137.9590 C   0  0  0  0  0  2  0  0  0  0  0  0
  191.5860  176.7540  138.7800 C   0  0  0  0  0  0  0  0  0  0  0  0
  191.4550  177.0920  140.0720 C   0  0  0  0  0  3  0  0  0  0  0  0
  188.6400  177.5770  138.9040 C   0  0  0  0  0  0  0  0  0  0  0  0
  190.2020  177.2080  140.8450 C   0  0  0  0  0  2  0  0  0  0  0  0
  188.9850  177.3760  140.3220 C   0  0  0  0  0  0  0  0  0  0  0  0
  192.9450  176.7510  138.1590 C   0  0  0  0  0  3  0  0  0  0  0  0
  193.9300  176.7530  139.1480 O   0  0  0  0  0  1  0  0  0  0  0  0
  193.1050  175.6350  137.3360 O   0  0  0  0  0  1  0  0  0  0  0  0
  185.7850  178.4070  144.2560 C   0  0  0  0  0  2  0  0  0  0  0  0
  187.7340  177.5590  147.3930 C   0  0  0  0  0  3  0  0  0  0  0  0
  188.1740  177.7560  144.6300 C   0  0  0  0  0  3  0  0  0  0  0  0
  191.3350  176.7020  147.1940 C   0  0  0  0  0  0  0  0  0  0  0  0
  190.0590  176.9550  147.7180 C   0  0  0  0  0  3  0  0  0  0  0  0
  189.0050  177.3040  146.8700 C   0  0  0  0  0  0  0  0  0  0  0  0
  190.4970  177.1560  144.9560 C   0  0  0  0  0  3  0  0  0  0  0  0
  189.2270  177.4050  145.4770 C   0  0  0  0  0  0  0  0  0  0  0  0
  191.5470  176.8050  145.8110 C   0  0  0  0  0  3  0  0  0  0  0  0
  186.9010  178.0020  145.1580 C   0  0  0  0  0  0  0  0  0  0  0  0
  186.6850  177.9090  146.5380 C   0  0  0  0  0  3  0  0  0  0  0  0
  192.4400  176.3340  148.0930 C   0  0  0  0  0  0  0  0  0  0  0  0
  193.0650  175.2530  147.9270 O   0  0  0  0  0  0  0  0  0  0  0  0
  192.8050  177.1770  149.1370 O   0  0  0  0  0  1  0  0  0  0  0  0
  1  5  1  0  0  0  0
  2 12  1  0  0  0  0
  2 15  1  0  0  0  0
  3 10  1  0  0  0  0
  4 21  1  0  0  0  0
  5  4  1  0  0  0  0
  6  8  2  0  0  0  0
  7  6  1  0  0  0  0
  8  4  1  0  0  0  0
  9 11  1  0  0  0  0
  9  3  2  0  0  0  0
 10  6  1  0  0  0  0
 10  1  2  0  0  0  0
 11  7  2  0  0  0  0
 12 13  1  0  0  0  0
 13 14  2  0  0  0  0
 14 16  1  0  0  0  0
 15  3  1  0  0  0  0
 15 17  2  0  0  0  0
 17 16  1  0  0  0  0
 17  1  1  0  0  0  0
 18 13  1  0  0  0  0
 18 19  1  0  0  0  0
 20 18  1  0  0  0  0
 21 30  1  0  0  0  0
 23 30  2  0  0  0  0
 23 28  1  0  0  0  0
 24 25  1  0  0  0  0
 24 32  1  0  0  0  0
 26 22  1  0  0  0  0
 26 25  2  0  0  0  0
 27 28  2  0  0  0  0
 27 29  1  0  0  0  0
 28 26  1  0  0  0  0
 29 24  2  0  0  0  0
 30 31  1  0  0  0  0
 31 22  2  0  0  0  0
 32 34  1  0  0  0  0
 33 32  2  0  0  0  0
M  END
>  <MODEL>
9

>  <REMARK>
 VINA RESULT:     -11.0      3.843      7.223
  Name = 
  4 active torsions:
  status: ('A' for Active; 'I' for Inactive)
    1  A    between atoms: C_3  and  C_25
    2  A    between atoms: C_7  and  C_11
    3  A    between atoms: N_8  and  C_18
    4  A    between atoms: C_18  and  C_30
                            x       y       z     vdW  Elec       q    Type
                         _______ _______ _______ _____ _____    ______ ____

>  <TORSDO>
F 4

$$$$
