=
 OpenBabel11052416323D

 43 47  0  0  1  0  0  0  0  0999 V2000
  190.4470  177.2940  141.3810 C   0  0  0  0  0  2  0  0  0  0  0  0
  188.1330  177.6610  142.1500 C   0  0  0  0  0  2  0  0  0  0  0  0
  187.7470  178.2010  140.8530 N   0  0  0  0  0  0  0  0  0  0  0  0
  188.3070  178.6010  138.6250 O   0  0  0  0  0  0  0  0  0  0  0  0
  189.5870  178.0010  142.4230 C   0  0  1  0  0  3  0  0  0  0  0  0
  190.1120  177.7590  139.9510 C   0  0  2  0  0  3  0  0  0  0  0  0
  188.6720  178.1760  139.7520 C   0  0  0  0  0  0  0  0  0  0  0  0
  192.8890  173.5010  135.9120 C   0  0  0  0  0  0  0  0  0  0  0  0
  190.5250  176.7230  138.9520 C   0  0  0  0  0  0  0  0  0  0  0  0
  191.2090  174.7420  137.1300 C   0  0  0  0  0  0  0  0  0  0  0  0
  193.8970  174.2580  136.5200 C   0  0  0  0  0  3  0  0  0  0  0  0
  193.2120  172.5280  135.0310 F   0  0  0  0  0  0  0  0  0  0  0  0
  192.2270  175.5040  137.7450 C   0  0  0  0  0  0  0  0  0  0  0  0
  191.5450  173.7410  136.2170 C   0  0  0  0  0  3  0  0  0  0  0  0
  193.5660  175.2600  137.4370 C   0  0  0  0  0  3  0  0  0  0  0  0
  191.8760  176.4920  138.6600 C   0  0  0  0  0  3  0  0  0  0  0  0
  189.5490  175.9470  138.3200 C   0  0  0  0  0  3  0  0  0  0  0  0
  189.9050  174.9850  137.4280 N   0  0  0  0  0  0  0  0  0  0  0  0
  189.5280  177.5060  146.2010 C   0  0  0  0  0  3  0  0  0  0  0  0
  191.6310  176.6950  145.3250 C   0  0  0  0  0  3  0  0  0  0  0  0
  190.7770  176.9170  146.4080 C   0  0  0  0  0  0  0  0  0  0  0  0
  189.1270  177.8640  144.9090 C   0  0  0  0  0  3  0  0  0  0  0  0
  189.9770  177.6260  143.8170 C   0  0  0  0  0  0  0  0  0  0  0  0
  191.1740  176.5590  147.6900 O   0  0  0  0  0  1  0  0  0  0  0  0
  191.2310  177.0480  144.0330 C   0  0  0  0  0  3  0  0  0  0  0  0
  186.5910  178.9050  140.7600 O   0  0  0  0  0  0  0  0  0  0  0  0
  186.0360  178.9040  142.0470 C   0  0  0  0  0  2  0  0  0  0  0  0
  184.5170  179.0840  142.0110 C   0  0  1  0  0  3  0  0  0  0  0  0
  183.8370  177.8850  141.3570 C   0  0  0  0  0  2  0  0  0  0  0  0
  183.2300  178.2630  140.0090 C   0  0  0  0  0  3  0  0  0  0  0  0
  180.8520  177.5740  140.5410 C   0  0  0  0  0  2  0  0  0  0  0  0
  182.3760  175.9650  139.3860 C   0  0  0  0  0  2  0  0  0  0  0  0
  180.9400  176.4730  139.4940 C   0  0  0  0  0  2  0  0  0  0  0  0
  183.3130  177.1090  139.0010 C   0  0  0  0  0  2  0  0  0  0  0  0
  181.7810  178.7320  140.1760 C   0  0  0  0  0  2  0  0  0  0  0  0
  183.9300  179.3750  143.4000 C   0  0  1  0  0  3  0  0  0  0  0  0
  182.7690  178.4530  143.8040 C   0  0  0  0  0  2  0  0  0  0  0  0
  181.4500  179.1570  143.8170 C   0  0  0  0  0  3  0  0  0  0  0  0
  180.3760  178.5030  144.0500 N   0  0  0  0  0  0  0  0  0  0  0  0
  179.1110  179.1810  144.0470 C   0  0  0  0  0  1  0  0  0  0  0  0
  185.0180  179.4870  144.4670 C   0  0  0  0  0  2  0  0  0  0  0  0
  185.7910  178.0050  146.3250 C   0  0  0  0  0  1  0  0  0  0  0  0
  184.6100  178.7590  145.7390 C   0  0  0  0  0  2  0  0  0  0  0  0
  1  5  1  0  0  0  0
  2  5  1  0  0  0  0
  3  2  1  0  0  0  0
  4  7  2  0  0  0  0
  5 23  1  1  0  0  0
  6  9  1  6  0  0  0
  6  1  1  0  0  0  0
  7  6  1  0  0  0  0
  7  3  1  0  0  0  0
  8 14  2  0  0  0  0
  8 11  1  0  0  0  0
 10 18  2  0  0  0  0
 10 13  1  0  0  0  0
 11 15  2  0  0  0  0
 12  8  1  0  0  0  0
 13 16  2  0  0  0  0
 14 10  1  0  0  0  0
 15 13  1  0  0  0  0
 16  9  1  0  0  0  0
 17  9  2  0  0  0  0
 18 17  1  0  0  0  0
 19 21  1  0  0  0  0
 20 21  2  0  0  0  0
 21 24  1  0  0  0  0
 22 19  2  0  0  0  0
 23 25  2  0  0  0  0
 23 22  1  0  0  0  0
 25 20  1  0  0  0  0
 26  3  1  0  0  0  0
 26 27  1  0  0  0  0
 28 29  1  1  0  0  0
 28 27  1  0  0  0  0
 28 36  1  0  0  0  0
 30 35  1  0  0  0  0
 30 29  1  0  0  0  0
 32 33  1  0  0  0  0
 33 31  1  0  0  0  0
 34 32  1  0  0  0  0
 34 30  1  0  0  0  0
 35 31  1  0  0  0  0
 36 37  1  1  0  0  0
 36 41  1  0  0  0  0
 37 38  1  0  0  0  0
 38 39  2  0  0  0  0
 40 39  1  0  0  0  0
 41 43  1  0  0  0  0
 43 42  1  0  0  0  0
M  END
>  <MODEL>
1

>  <REMARK>
 VINA RESULT:      -9.2      0.000      0.000
  Name = 
  12 active torsions:
  status: ('A' for Active; 'I' for Inactive)
    1  A    between atoms: O_2  and  C_6
    2  A    between atoms: O_2  and  N_13
    3  A    between atoms: C_3  and  C_4
    4  A    between atoms: C_4  and  C_22
    5  A    between atoms: C_6  and  C_41
    6  A    between atoms: C_8  and  C_34
    7  A    between atoms: C_11  and  C_14
    8  A    between atoms: C_14  and  C_41
    9  A    between atoms: C_15  and  C_22
   10  A    between atoms: C_15  and  C_42
   11  A    between atoms: C_22  and  C_41
   12  A    between atoms: C_28  and  C_35
                            x       y       z     vdW  Elec       q    Type
                         _______ _______ _______ _____ _____    ______ ____

>  <TORSDO>
F 12

$$$$
=
 OpenBabel11052416323D

 43 47  0  0  1  0  0  0  0  0999 V2000
  183.8340  178.4160  141.0390 C   0  0  0  0  0  2  0  0  0  0  0  0
  186.2400  178.9600  141.0720 C   0  0  0  0  0  2  0  0  0  0  0  0
  186.3730  178.6280  139.6590 N   0  0  0  0  0  0  0  0  0  0  0  0
  185.3360  178.0750  137.6460 O   0  0  0  0  0  0  0  0  0  0  0  0
  185.1700  178.0810  141.6940 C   0  0  1  0  0  3  0  0  0  0  0  0
  183.8550  178.1370  139.5240 C   0  0  2  0  0  3  0  0  0  0  0  0
  185.2100  178.3110  138.8750 C   0  0  0  0  0  0  0  0  0  0  0  0
  179.8770  182.4910  136.8060 C   0  0  0  0  0  0  0  0  0  0  0  0
  182.8070  178.9480  138.8270 C   0  0  0  0  0  0  0  0  0  0  0  0
  180.8610  180.3790  137.4580 C   0  0  0  0  0  0  0  0  0  0  0  0
  180.8510  183.1770  137.5420 C   0  0  0  0  0  3  0  0  0  0  0  0
  178.9310  183.1790  136.1290 F   0  0  0  0  0  0  0  0  0  0  0  0
  181.8430  181.0730  138.1980 C   0  0  0  0  0  0  0  0  0  0  0  0
  179.8820  181.0920  136.7630 C   0  0  0  0  0  3  0  0  0  0  0  0
  181.8340  182.4680  138.2380 C   0  0  0  0  0  3  0  0  0  0  0  0
  182.8180  180.3490  138.8770 C   0  0  0  0  0  3  0  0  0  0  0  0
  181.8140  178.3010  138.0840 C   0  0  0  0  0  3  0  0  0  0  0  0
  180.8690  179.0210  137.4240 N   0  0  0  0  0  0  0  0  0  0  0  0
  183.9690  178.8940  145.2190 C   0  0  0  0  0  3  0  0  0  0  0  0
  186.2600  178.1220  145.3160 C   0  0  0  0  0  3  0  0  0  0  0  0
  185.1090  178.5830  145.9630 C   0  0  0  0  0  0  0  0  0  0  0  0
  183.9740  178.7360  143.8290 C   0  0  0  0  0  3  0  0  0  0  0  0
  185.1230  178.2570  143.1790 C   0  0  0  0  0  0  0  0  0  0  0  0
  185.1040  178.7370  147.3430 O   0  0  0  0  0  1  0  0  0  0  0  0
  186.2650  177.9600  143.9280 C   0  0  0  0  0  3  0  0  0  0  0  0
  187.6160  178.4260  139.1530 O   0  0  0  0  0  0  0  0  0  0  0  0
  188.3460  177.7940  140.1690 C   0  0  0  0  0  2  0  0  0  0  0  0
  189.8350  177.7080  139.8290 C   0  0  1  0  0  3  0  0  0  0  0  0
  190.6700  177.4460  141.0780 C   0  0  0  0  0  2  0  0  0  0  0  0
  189.7820  177.2330  142.3010 C   0  0  0  0  0  3  0  0  0  0  0  0
  191.3010  178.3610  143.9830 C   0  0  0  0  0  2  0  0  0  0  0  0
  191.4310  175.8850  143.6650 C   0  0  0  0  0  2  0  0  0  0  0  0
  191.5180  177.0240  144.6780 C   0  0  0  0  0  2  0  0  0  0  0  0
  190.0630  175.8880  142.9840 C   0  0  0  0  0  2  0  0  0  0  0  0
  189.9350  178.3880  143.2950 C   0  0  0  0  0  2  0  0  0  0  0  0
  190.1250  176.6710  138.7320 C   0  0  1  0  0  3  0  0  0  0  0  0
  189.9180  177.1880  137.3000 C   0  0  0  0  0  2  0  0  0  0  0  0
  188.7040  176.6080  136.6470 C   0  0  0  0  0  3  0  0  0  0  0  0
  188.0990  175.6170  137.1830 N   0  0  0  0  0  0  0  0  0  0  0  0
  186.9430  175.0540  136.5440 C   0  0  0  0  0  1  0  0  0  0  0  0
  191.4720  175.9810  138.9420 C   0  0  0  0  0  2  0  0  0  0  0  0
  193.5020  175.4000  137.6070 C   0  0  0  0  0  1  0  0  0  0  0  0
  192.5060  176.4940  137.9510 C   0  0  0  0  0  2  0  0  0  0  0  0
  1  5  1  0  0  0  0
  2  5  1  0  0  0  0
  3  2  1  0  0  0  0
  4  7  2  0  0  0  0
  5 23  1  1  0  0  0
  6  9  1  6  0  0  0
  6  1  1  0  0  0  0
  7  6  1  0  0  0  0
  7  3  1  0  0  0  0
  8 11  1  0  0  0  0
  9 16  1  0  0  0  0
 10 13  1  0  0  0  0
 11 15  2  0  0  0  0
 12  8  1  0  0  0  0
 13 15  1  0  0  0  0
 13 16  2  0  0  0  0
 14  8  2  0  0  0  0
 14 10  1  0  0  0  0
 17  9  2  0  0  0  0
 18 10  2  0  0  0  0
 18 17  1  0  0  0  0
 19 21  1  0  0  0  0
 20 21  2  0  0  0  0
 21 24  1  0  0  0  0
 22 19  2  0  0  0  0
 23 22  1  0  0  0  0
 23 25  2  0  0  0  0
 25 20  1  0  0  0  0
 26  3  1  0  0  0  0
 26 27  1  0  0  0  0
 28 27  1  1  0  0  0
 28 29  1  0  0  0  0
 29 30  1  0  0  0  0
 30 34  1  0  0  0  0
 30 35  1  0  0  0  0
 31 33  1  0  0  0  0
 32 33  1  0  0  0  0
 34 32  1  0  0  0  0
 35 31  1  0  0  0  0
 36 37  1  6  0  0  0
 36 41  1  0  0  0  0
 36 28  1  0  0  0  0
 38 39  2  0  0  0  0
 38 37  1  0  0  0  0
 40 39  1  0  0  0  0
 42 43  1  0  0  0  0
 43 41  1  0  0  0  0
M  END
>  <MODEL>
2

>  <REMARK>
 VINA RESULT:      -9.1      3.726      9.256
  Name = 
  12 active torsions:
  status: ('A' for Active; 'I' for Inactive)
    1  A    between atoms: O_2  and  C_6
    2  A    between atoms: O_2  and  N_13
    3  A    between atoms: C_3  and  C_4
    4  A    between atoms: C_4  and  C_22
    5  A    between atoms: C_6  and  C_41
    6  A    between atoms: C_8  and  C_34
    7  A    between atoms: C_11  and  C_14
    8  A    between atoms: C_14  and  C_41
    9  A    between atoms: C_15  and  C_22
   10  A    between atoms: C_15  and  C_42
   11  A    between atoms: C_22  and  C_41
   12  A    between atoms: C_28  and  C_35
                            x       y       z     vdW  Elec       q    Type
                         _______ _______ _______ _____ _____    ______ ____

>  <TORSDO>
F 12

$$$$
=
 OpenBabel11052416323D

 43 47  0  0  1  0  0  0  0  0999 V2000
  188.9890  176.6420  136.9640 C   0  0  0  0  0  2  0  0  0  0  0  0
  189.7110  176.9350  139.3040 C   0  0  0  0  0  2  0  0  0  0  0  0
  188.5150  177.7080  139.6160 N   0  0  0  0  0  0  0  0  0  0  0  0
  186.4210  178.4780  138.9430 O   0  0  0  0  0  0  0  0  0  0  0  0
  190.1020  177.1790  137.8570 C   0  0  1  0  0  3  0  0  0  0  0  0
  187.6520  177.3630  137.2210 C   0  0  2  0  0  3  0  0  0  0  0  0
  187.4680  177.8500  138.6410 C   0  0  0  0  0  0  0  0  0  0  0  0
  183.0140  172.9710  136.0490 C   0  0  0  0  0  0  0  0  0  0  0  0
  186.5030  176.5080  136.7830 C   0  0  0  0  0  0  0  0  0  0  0  0
  184.3140  175.0100  135.9640 C   0  0  0  0  0  0  0  0  0  0  0  0
  183.9250  172.4240  136.9610 C   0  0  0  0  0  3  0  0  0  0  0  0
  181.9410  172.2530  135.6520 F   0  0  0  0  0  0  0  0  0  0  0  0
  185.2300  174.4570  136.8850 C   0  0  0  0  0  0  0  0  0  0  0  0
  183.2070  174.2640  135.5510 C   0  0  0  0  0  3  0  0  0  0  0  0
  185.0330  173.1660  137.3790 C   0  0  0  0  0  3  0  0  0  0  0  0
  186.3220  175.2160  137.2950 C   0  0  0  0  0  3  0  0  0  0  0  0
  185.5730  177.0170  135.8710 C   0  0  0  0  0  3  0  0  0  0  0  0
  184.5100  176.2640  135.4800 N   0  0  0  0  0  0  0  0  0  0  0  0
  193.6890  175.9260  138.1510 C   0  0  0  0  0  3  0  0  0  0  0  0
  192.8520  175.4310  135.9370 C   0  0  0  0  0  3  0  0  0  0  0  0
  193.8810  175.3800  136.8810 C   0  0  0  0  0  0  0  0  0  0  0  0
  192.4640  176.5150  138.4830 C   0  0  0  0  0  3  0  0  0  0  0  0
  191.4230  176.5520  137.5420 C   0  0  0  0  0  0  0  0  0  0  0  0
  195.0960  174.7920  136.5510 O   0  0  0  0  0  1  0  0  0  0  0  0
  191.6260  176.0150  136.2680 C   0  0  0  0  0  3  0  0  0  0  0  0
  188.5000  178.4510  140.7510 O   0  0  0  0  0  0  0  0  0  0  0  0
  188.5020  177.5340  141.8110 C   0  0  0  0  0  2  0  0  0  0  0  0
  187.6640  178.0280  142.9910 C   0  0  1  0  0  3  0  0  0  0  0  0
  186.1730  177.8390  142.7260 C   0  0  0  0  0  2  0  0  0  0  0  0
  185.4820  179.1780  142.4840 C   0  0  0  0  0  3  0  0  0  0  0  0
  183.5520  178.8190  144.0830 C   0  0  0  0  0  2  0  0  0  0  0  0
  183.2740  178.2570  141.6630 C   0  0  0  0  0  2  0  0  0  0  0  0
  182.5850  178.8110  142.9070 C   0  0  0  0  0  2  0  0  0  0  0  0
  184.4940  179.1080  141.3120 C   0  0  0  0  0  2  0  0  0  0  0  0
  184.7810  179.6680  143.7550 C   0  0  0  0  0  2  0  0  0  0  0  0
  188.0850  177.3790  144.3190 C   0  0  1  0  0  3  0  0  0  0  0  0
  189.3080  178.0300  144.9840 C   0  0  0  0  0  2  0  0  0  0  0  0
  190.4120  177.0550  145.2420 C   0  0  0  0  0  3  0  0  0  0  0  0
  190.9260  176.9650  146.4100 N   0  0  0  0  0  0  0  0  0  0  0  0
  191.9960  176.0380  146.6490 C   0  0  0  0  0  1  0  0  0  0  0  0
  186.9000  177.2000  145.2660 C   0  0  0  0  0  2  0  0  0  0  0  0
  185.9370  178.7150  147.0040 C   0  0  0  0  0  1  0  0  0  0  0  0
  187.1510  177.9020  146.5920 C   0  0  0  0  0  2  0  0  0  0  0  0
  1  6  1  0  0  0  0
  1  5  1  0  0  0  0
  2  3  1  0  0  0  0
  3 26  1  0  0  0  0
  5 23  1  6  0  0  0
  5  2  1  0  0  0  0
  6  9  1  1  0  0  0
  6  7  1  0  0  0  0
  7  4  2  0  0  0  0
  7  3  1  0  0  0  0
  8 11  1  0  0  0  0
  9 16  1  0  0  0  0
 10 13  1  0  0  0  0
 11 15  2  0  0  0  0
 12  8  1  0  0  0  0
 13 16  2  0  0  0  0
 13 15  1  0  0  0  0
 14 10  1  0  0  0  0
 14  8  2  0  0  0  0
 17  9  2  0  0  0  0
 18 17  1  0  0  0  0
 18 10  2  0  0  0  0
 19 22  1  0  0  0  0
 20 25  2  0  0  0  0
 20 21  1  0  0  0  0
 21 19  2  0  0  0  0
 23 22  2  0  0  0  0
 24 21  1  0  0  0  0
 25 23  1  0  0  0  0
 26 27  1  0  0  0  0
 28 27  1  6  0  0  0
 28 36  1  0  0  0  0
 29 28  1  0  0  0  0
 30 29  1  0  0  0  0
 30 35  1  0  0  0  0
 32 33  1  0  0  0  0
 33 31  1  0  0  0  0
 34 32  1  0  0  0  0
 34 30  1  0  0  0  0
 35 31  1  0  0  0  0
 36 37  1  1  0  0  0
 36 41  1  0  0  0  0
 37 38  1  0  0  0  0
 38 39  2  0  0  0  0
 39 40  1  0  0  0  0
 41 43  1  0  0  0  0
 43 42  1  0  0  0  0
M  END
>  <MODEL>
3

>  <REMARK>
 VINA RESULT:      -8.9      3.299      6.730
  Name = 
  12 active torsions:
  status: ('A' for Active; 'I' for Inactive)
    1  A    between atoms: O_2  and  C_6
    2  A    between atoms: O_2  and  N_13
    3  A    between atoms: C_3  and  C_4
    4  A    between atoms: C_4  and  C_22
    5  A    between atoms: C_6  and  C_41
    6  A    between atoms: C_8  and  C_34
    7  A    between atoms: C_11  and  C_14
    8  A    between atoms: C_14  and  C_41
    9  A    between atoms: C_15  and  C_22
   10  A    between atoms: C_15  and  C_42
   11  A    between atoms: C_22  and  C_41
   12  A    between atoms: C_28  and  C_35
                            x       y       z     vdW  Elec       q    Type
                         _______ _______ _______ _____ _____    ______ ____

>  <TORSDO>
F 12

$$$$
=
 OpenBabel11052416323D

 43 47  0  0  1  0  0  0  0  0999 V2000
  189.3420  177.1300  137.9320 C   0  0  0  0  0  2  0  0  0  0  0  0
  190.0570  176.5090  140.2100 C   0  0  0  0  0  2  0  0  0  0  0  0
  189.1560  177.4890  140.8010 N   0  0  0  0  0  0  0  0  0  0  0  0
  187.4260  179.0240  140.5060 O   0  0  0  0  0  0  0  0  0  0  0  0
  190.5430  177.0210  138.8660 C   0  0  1  0  0  3  0  0  0  0  0  0
  188.2910  178.1230  138.4660 C   0  0  2  0  0  3  0  0  0  0  0  0
  188.2320  178.2180  139.9740 C   0  0  0  0  0  0  0  0  0  0  0  0
  182.0740  177.4200  136.7290 C   0  0  0  0  0  0  0  0  0  0  0  0
  186.9450  177.8240  137.8830 C   0  0  0  0  0  0  0  0  0  0  0  0
  184.4890  177.2810  136.7070 C   0  0  0  0  0  0  0  0  0  0  0  0
  182.1200  178.1060  137.9480 C   0  0  0  0  0  3  0  0  0  0  0  0
  180.8840  177.1590  136.1440 F   0  0  0  0  0  0  0  0  0  0  0  0
  184.5330  177.9740  137.9360 C   0  0  0  0  0  0  0  0  0  0  0  0
  183.2580  177.0080  136.1070 C   0  0  0  0  0  3  0  0  0  0  0  0
  183.3500  178.3820  138.5530 C   0  0  0  0  0  3  0  0  0  0  0  0
  185.7680  178.2470  138.5170 C   0  0  0  0  0  3  0  0  0  0  0  0
  186.8560  177.1390  136.6680 C   0  0  0  0  0  3  0  0  0  0  0  0
  185.6420  176.8800  136.1110 N   0  0  0  0  0  0  0  0  0  0  0  0
  193.9390  175.6220  137.8490 C   0  0  0  0  0  3  0  0  0  0  0  0
  192.2010  174.1120  137.1060 C   0  0  0  0  0  3  0  0  0  0  0  0
  193.5560  174.4410  137.2110 C   0  0  0  0  0  0  0  0  0  0  0  0
  192.9690  176.4720  138.3930 C   0  0  0  0  0  3  0  0  0  0  0  0
  191.6090  176.1360  138.3040 C   0  0  0  0  0  0  0  0  0  0  0  0
  194.5180  173.5950  136.6740 O   0  0  0  0  0  1  0  0  0  0  0  0
  191.2320  174.9580  137.6520 C   0  0  0  0  0  3  0  0  0  0  0  0
  189.3430  177.8460  142.0970 O   0  0  0  0  0  0  0  0  0  0  0  0
  188.5010  177.0180  142.8490 C   0  0  0  0  0  2  0  0  0  0  0  0
  187.8980  177.7570  144.0450 C   0  0  1  0  0  3  0  0  0  0  0  0
  186.3730  177.7030  144.0150 C   0  0  0  0  0  2  0  0  0  0  0  0
  185.7770  179.0870  143.7790 C   0  0  0  0  0  3  0  0  0  0  0  0
  183.6440  178.7290  145.0960 C   0  0  0  0  0  2  0  0  0  0  0  0
  183.6540  178.3310  142.6290 C   0  0  0  0  0  2  0  0  0  0  0  0
  182.8360  178.8420  143.8110 C   0  0  0  0  0  2  0  0  0  0  0  0
  184.9440  179.1390  142.4910 C   0  0  0  0  0  2  0  0  0  0  0  0
  184.9400  179.5330  144.9830 C   0  0  0  0  0  2  0  0  0  0  0  0
  188.4510  177.2500  145.3860 C   0  0  1  0  0  3  0  0  0  0  0  0
  189.7600  177.9230  145.8280 C   0  0  0  0  0  2  0  0  0  0  0  0
  190.8470  176.9380  146.1180 C   0  0  0  0  0  3  0  0  0  0  0  0
  191.1800  176.6900  147.3270 N   0  0  0  0  0  0  0  0  0  0  0  0
  192.2350  175.7540  147.6000 C   0  0  0  0  0  1  0  0  0  0  0  0
  187.3790  177.2280  146.4740 C   0  0  0  0  0  2  0  0  0  0  0  0
  188.0510  177.9540  148.7680 C   0  0  0  0  0  1  0  0  0  0  0  0
  187.5360  178.4120  147.4160 C   0  0  0  0  0  2  0  0  0  0  0  0
  1  6  1  0  0  0  0
  1  5  1  0  0  0  0
  2  3  1  0  0  0  0
  3 26  1  0  0  0  0
  5 23  1  6  0  0  0
  5  2  1  0  0  0  0
  6  9  1  1  0  0  0
  6  7  1  0  0  0  0
  7  4  2  0  0  0  0
  7  3  1  0  0  0  0
  8 11  1  0  0  0  0
  9 16  1  0  0  0  0
 10 13  1  0  0  0  0
 11 15  2  0  0  0  0
 12  8  1  0  0  0  0
 13 16  2  0  0  0  0
 13 15  1  0  0  0  0
 14 10  1  0  0  0  0
 14  8  2  0  0  0  0
 17  9  2  0  0  0  0
 18 17  1  0  0  0  0
 18 10  2  0  0  0  0
 19 22  1  0  0  0  0
 20 21  1  0  0  0  0
 20 25  2  0  0  0  0
 21 19  2  0  0  0  0
 23 22  2  0  0  0  0
 24 21  1  0  0  0  0
 25 23  1  0  0  0  0
 26 27  1  0  0  0  0
 28 27  1  6  0  0  0
 28 36  1  0  0  0  0
 29 28  1  0  0  0  0
 30 29  1  0  0  0  0
 30 35  1  0  0  0  0
 32 33  1  0  0  0  0
 33 31  1  0  0  0  0
 34 32  1  0  0  0  0
 34 30  1  0  0  0  0
 35 31  1  0  0  0  0
 36 37  1  1  0  0  0
 36 41  1  0  0  0  0
 37 38  1  0  0  0  0
 38 39  2  0  0  0  0
 39 40  1  0  0  0  0
 41 43  1  0  0  0  0
 43 42  1  0  0  0  0
M  END
>  <MODEL>
4

>  <REMARK>
 VINA RESULT:      -8.8      3.191      7.166
  Name = 
  12 active torsions:
  status: ('A' for Active; 'I' for Inactive)
    1  A    between atoms: O_2  and  C_6
    2  A    between atoms: O_2  and  N_13
    3  A    between atoms: C_3  and  C_4
    4  A    between atoms: C_4  and  C_22
    5  A    between atoms: C_6  and  C_41
    6  A    between atoms: C_8  and  C_34
    7  A    between atoms: C_11  and  C_14
    8  A    between atoms: C_14  and  C_41
    9  A    between atoms: C_15  and  C_22
   10  A    between atoms: C_15  and  C_42
   11  A    between atoms: C_22  and  C_41
   12  A    between atoms: C_28  and  C_35
                            x       y       z     vdW  Elec       q    Type
                         _______ _______ _______ _____ _____    ______ ____

>  <TORSDO>
F 12

$$$$
=
 OpenBabel11052416323D

 43 47  0  0  1  0  0  0  0  0999 V2000
  188.5560  176.6510  137.0390 C   0  0  0  0  0  2  0  0  0  0  0  0
  189.0410  177.3390  139.3580 C   0  0  0  0  0  2  0  0  0  0  0  0
  187.7810  178.0650  139.4470 N   0  0  0  0  0  0  0  0  0  0  0  0
  185.7180  178.5810  138.4910 O   0  0  0  0  0  0  0  0  0  0  0  0
  189.5500  177.3910  137.9290 C   0  0  1  0  0  3  0  0  0  0  0  0
  187.1630  177.3080  137.0700 C   0  0  2  0  0  3  0  0  0  0  0  0
  186.8220  177.9880  138.3780 C   0  0  0  0  0  0  0  0  0  0  0  0
  182.9780  172.4310  136.1450 C   0  0  0  0  0  0  0  0  0  0  0  0
  186.1080  176.3210  136.6760 C   0  0  0  0  0  0  0  0  0  0  0  0
  184.0870  174.5700  135.9310 C   0  0  0  0  0  0  0  0  0  0  0  0
  183.9110  172.0380  137.1120 C   0  0  0  0  0  3  0  0  0  0  0  0
  181.9850  171.5890  135.7820 F   0  0  0  0  0  0  0  0  0  0  0  0
  185.0260  174.1730  136.9080 C   0  0  0  0  0  0  0  0  0  0  0  0
  183.0640  173.6960  135.5540 C   0  0  0  0  0  3  0  0  0  0  0  0
  184.9350  172.9090  137.4940 C   0  0  0  0  0  3  0  0  0  0  0  0
  186.0330  175.0580  137.2800 C   0  0  0  0  0  3  0  0  0  0  0  0
  185.1600  176.6730  135.7120 C   0  0  0  0  0  3  0  0  0  0  0  0
  184.1800  175.7980  135.3590 N   0  0  0  0  0  0  0  0  0  0  0  0
  193.1420  176.4000  138.7320 C   0  0  0  0  0  3  0  0  0  0  0  0
  192.5780  175.6190  136.5130 C   0  0  0  0  0  3  0  0  0  0  0  0
  193.4990  175.7330  137.5580 C   0  0  0  0  0  0  0  0  0  0  0  0
  191.8600  176.9440  138.8670 C   0  0  0  0  0  3  0  0  0  0  0  0
  190.9270  176.8160  137.8250 C   0  0  0  0  0  0  0  0  0  0  0  0
  194.7700  175.1900  137.4250 O   0  0  0  0  0  1  0  0  0  0  0  0
  191.2950  176.1590  136.6480 C   0  0  0  0  0  3  0  0  0  0  0  0
  187.6200  178.9660  140.4480 O   0  0  0  0  0  0  0  0  0  0  0  0
  188.4500  178.5350  141.4910 C   0  0  0  0  0  2  0  0  0  0  0  0
  187.7530  177.5080  142.3840 C   0  0  1  0  0  3  0  0  0  0  0  0
  188.7530  176.8050  143.2970 C   0  0  0  0  0  2  0  0  0  0  0  0
  190.0360  177.6190  143.4410 C   0  0  0  0  0  3  0  0  0  0  0  0
  191.5240  175.7130  144.1930 C   0  0  0  0  0  2  0  0  0  0  0  0
  190.4270  177.1720  145.9000 C   0  0  0  0  0  2  0  0  0  0  0  0
  191.6840  176.3800  145.5520 C   0  0  0  0  0  2  0  0  0  0  0  0
  190.1660  178.2400  144.8380 C   0  0  0  0  0  2  0  0  0  0  0  0
  191.2640  176.7630  143.1120 C   0  0  0  0  0  2  0  0  0  0  0  0
  186.5960  178.1210  143.1870 C   0  0  1  0  0  3  0  0  0  0  0  0
  185.2880  178.2770  142.3950 C   0  0  0  0  0  2  0  0  0  0  0  0
  184.1040  178.5200  143.2770 C   0  0  0  0  0  3  0  0  0  0  0  0
  182.9580  178.7530  142.7610 N   0  0  0  0  0  0  0  0  0  0  0  0
  181.8280  179.0010  143.6120 C   0  0  0  0  0  1  0  0  0  0  0  0
  186.4120  177.4340  144.5390 C   0  0  0  0  0  2  0  0  0  0  0  0
  187.0920  177.8730  146.9030 C   0  0  0  0  0  1  0  0  0  0  0  0
  186.4180  178.4500  145.6710 C   0  0  0  0  0  2  0  0  0  0  0  0
  1  6  1  0  0  0  0
  1  5  1  0  0  0  0
  2  3  1  0  0  0  0
  3 26  1  0  0  0  0
  5 23  1  1  0  0  0
  5  2  1  0  0  0  0
  6  9  1  1  0  0  0
  6  7  1  0  0  0  0
  7  4  2  0  0  0  0
  7  3  1  0  0  0  0
  8 11  1  0  0  0  0
  9 16  1  0  0  0  0
 10 13  1  0  0  0  0
 11 15  2  0  0  0  0
 12  8  1  0  0  0  0
 13 16  2  0  0  0  0
 13 15  1  0  0  0  0
 14 10  1  0  0  0  0
 14  8  2  0  0  0  0
 17  9  2  0  0  0  0
 18 17  1  0  0  0  0
 18 10  2  0  0  0  0
 19 22  1  0  0  0  0
 20 25  2  0  0  0  0
 20 21  1  0  0  0  0
 21 19  2  0  0  0  0
 23 22  2  0  0  0  0
 24 21  1  0  0  0  0
 25 23  1  0  0  0  0
 26 27  1  0  0  0  0
 28 27  1  1  0  0  0
 28 36  1  0  0  0  0
 28 29  1  0  0  0  0
 29 30  1  0  0  0  0
 30 34  1  0  0  0  0
 31 33  1  0  0  0  0
 33 32  1  0  0  0  0
 34 32  1  0  0  0  0
 35 30  1  0  0  0  0
 35 31  1  0  0  0  0
 36 37  1  6  0  0  0
 36 41  1  0  0  0  0
 37 38  1  0  0  0  0
 39 38  2  0  0  0  0
 39 40  1  0  0  0  0
 41 43  1  0  0  0  0
 43 42  1  0  0  0  0
M  END
>  <MODEL>
5

>  <REMARK>
 VINA RESULT:      -8.7      3.224      6.876
  Name = 
  12 active torsions:
  status: ('A' for Active; 'I' for Inactive)
    1  A    between atoms: O_2  and  C_6
    2  A    between atoms: O_2  and  N_13
    3  A    between atoms: C_3  and  C_4
    4  A    between atoms: C_4  and  C_22
    5  A    between atoms: C_6  and  C_41
    6  A    between atoms: C_8  and  C_34
    7  A    between atoms: C_11  and  C_14
    8  A    between atoms: C_14  and  C_41
    9  A    between atoms: C_15  and  C_22
   10  A    between atoms: C_15  and  C_42
   11  A    between atoms: C_22  and  C_41
   12  A    between atoms: C_28  and  C_35
                            x       y       z     vdW  Elec       q    Type
                         _______ _______ _______ _____ _____    ______ ____

>  <TORSDO>
F 12

$$$$
=
 OpenBabel11052416323D

 43 47  0  0  1  0  0  0  0  0999 V2000
  189.2350  176.3120  137.0240 C   0  0  0  0  0  2  0  0  0  0  0  0
  189.8110  176.7050  139.3900 C   0  0  0  0  0  2  0  0  0  0  0  0
  188.6970  177.6310  139.5470 N   0  0  0  0  0  0  0  0  0  0  0  0
  186.7650  178.5790  138.6510 O   0  0  0  0  0  0  0  0  0  0  0  0
  190.3340  176.7880  137.9670 C   0  0  1  0  0  3  0  0  0  0  0  0
  187.9770  177.1980  137.1190 C   0  0  2  0  0  3  0  0  0  0  0  0
  187.7490  177.8140  138.4810 C   0  0  0  0  0  0  0  0  0  0  0  0
  182.9610  173.2720  135.8650 C   0  0  0  0  0  0  0  0  0  0  0  0
  186.7700  176.4480  136.6490 C   0  0  0  0  0  0  0  0  0  0  0  0
  184.4840  175.1480  135.7600 C   0  0  0  0  0  0  0  0  0  0  0  0
  183.7430  172.6860  136.8670 C   0  0  0  0  0  3  0  0  0  0  0  0
  181.8400  172.6510  135.4320 F   0  0  0  0  0  0  0  0  0  0  0  0
  185.2700  174.5570  136.7720 C   0  0  0  0  0  0  0  0  0  0  0  0
  183.3290  174.5020  135.3110 C   0  0  0  0  0  3  0  0  0  0  0  0
  184.8980  173.3290  137.3210 C   0  0  0  0  0  3  0  0  0  0  0  0
  186.4130  175.2170  137.2160 C   0  0  0  0  0  3  0  0  0  0  0  0
  185.9640  176.9960  135.6470 C   0  0  0  0  0  3  0  0  0  0  0  0
  184.8500  176.3410  135.2240 N   0  0  0  0  0  0  0  0  0  0  0  0
  193.9910  175.7160  138.0590 C   0  0  0  0  0  3  0  0  0  0  0  0
  192.6750  173.9710  137.0220 C   0  0  0  0  0  3  0  0  0  0  0  0
  193.9100  174.4570  137.4590 C   0  0  0  0  0  0  0  0  0  0  0  0
  192.8350  176.4860  138.2310 C   0  0  0  0  0  3  0  0  0  0  0  0
  191.5900  175.9920  137.8070 C   0  0  0  0  0  0  0  0  0  0  0  0
  195.0560  173.6910  137.2910 O   0  0  0  0  0  1  0  0  0  0  0  0
  191.5190  174.7370  137.1970 C   0  0  0  0  0  3  0  0  0  0  0  0
  188.6860  178.4590  140.6230 O   0  0  0  0  0  0  0  0  0  0  0  0
  188.6820  177.6250  141.7490 C   0  0  0  0  0  2  0  0  0  0  0  0
  187.8990  178.2420  142.9090 C   0  0  1  0  0  3  0  0  0  0  0  0
  186.4070  177.9470  142.7850 C   0  0  0  0  0  2  0  0  0  0  0  0
  185.6170  179.2150  142.4740 C   0  0  0  0  0  3  0  0  0  0  0  0
  183.7380  178.8170  144.1230 C   0  0  0  0  0  2  0  0  0  0  0  0
  183.4720  178.0890  141.7470 C   0  0  0  0  0  2  0  0  0  0  0  0
  182.7600  178.6680  142.9670 C   0  0  0  0  0  2  0  0  0  0  0  0
  184.6230  179.0030  141.3260 C   0  0  0  0  0  2  0  0  0  0  0  0
  184.8980  179.7300  143.7250 C   0  0  0  0  0  2  0  0  0  0  0  0
  188.4450  177.8090  144.2780 C   0  0  1  0  0  3  0  0  0  0  0  0
  187.3810  177.2550  145.2390 C   0  0  0  0  0  2  0  0  0  0  0  0
  187.4310  177.8970  146.5890 C   0  0  0  0  0  3  0  0  0  0  0  0
  188.1410  177.3800  147.5180 N   0  0  0  0  0  0  0  0  0  0  0  0
  188.1740  177.9920  148.8170 C   0  0  0  0  0  1  0  0  0  0  0  0
  189.6720  176.9100  144.1440 C   0  0  0  0  0  2  0  0  0  0  0  0
  191.3610  176.7480  145.9780 C   0  0  0  0  0  1  0  0  0  0  0  0
  190.8930  177.5560  144.7810 C   0  0  0  0  0  2  0  0  0  0  0  0
  1  6  1  0  0  0  0
  1  5  1  0  0  0  0
  2  3  1  0  0  0  0
  3 26  1  0  0  0  0
  5 23  1  1  0  0  0
  5  2  1  0  0  0  0
  6  9  1  1  0  0  0
  6  7  1  0  0  0  0
  7  4  2  0  0  0  0
  7  3  1  0  0  0  0
  8 11  1  0  0  0  0
  9 16  1  0  0  0  0
 10 13  1  0  0  0  0
 11 15  2  0  0  0  0
 12  8  1  0  0  0  0
 13 16  2  0  0  0  0
 13 15  1  0  0  0  0
 14 10  1  0  0  0  0
 14  8  2  0  0  0  0
 17  9  2  0  0  0  0
 18 17  1  0  0  0  0
 18 10  2  0  0  0  0
 19 22  1  0  0  0  0
 20 25  2  0  0  0  0
 20 21  1  0  0  0  0
 21 19  2  0  0  0  0
 23 22  2  0  0  0  0
 24 21  1  0  0  0  0
 25 23  1  0  0  0  0
 26 27  1  0  0  0  0
 28 27  1  6  0  0  0
 28 36  1  0  0  0  0
 29 28  1  0  0  0  0
 30 29  1  0  0  0  0
 30 35  1  0  0  0  0
 32 33  1  0  0  0  0
 33 31  1  0  0  0  0
 34 32  1  0  0  0  0
 34 30  1  0  0  0  0
 35 31  1  0  0  0  0
 36 41  1  6  0  0  0
 36 37  1  0  0  0  0
 37 38  1  0  0  0  0
 38 39  2  0  0  0  0
 39 40  1  0  0  0  0
 41 43  1  0  0  0  0
 43 42  1  0  0  0  0
M  END
>  <MODEL>
6

>  <REMARK>
 VINA RESULT:      -8.5      3.331      6.508
  Name = 
  12 active torsions:
  status: ('A' for Active; 'I' for Inactive)
    1  A    between atoms: O_2  and  C_6
    2  A    between atoms: O_2  and  N_13
    3  A    between atoms: C_3  and  C_4
    4  A    between atoms: C_4  and  C_22
    5  A    between atoms: C_6  and  C_41
    6  A    between atoms: C_8  and  C_34
    7  A    between atoms: C_11  and  C_14
    8  A    between atoms: C_14  and  C_41
    9  A    between atoms: C_15  and  C_22
   10  A    between atoms: C_15  and  C_42
   11  A    between atoms: C_22  and  C_41
   12  A    between atoms: C_28  and  C_35
                            x       y       z     vdW  Elec       q    Type
                         _______ _______ _______ _____ _____    ______ ____

>  <TORSDO>
F 12

$$$$
=
 OpenBabel11052416323D

 43 47  0  0  1  0  0  0  0  0999 V2000
  190.6680  177.1610  141.4210 C   0  0  0  0  0  2  0  0  0  0  0  0
  188.4110  177.6270  142.3010 C   0  0  0  0  0  2  0  0  0  0  0  0
  187.9930  178.2050  141.0300 N   0  0  0  0  0  0  0  0  0  0  0  0
  188.4700  178.6110  138.7840 O   0  0  0  0  0  0  0  0  0  0  0  0
  189.8910  177.8930  142.5100 C   0  0  1  0  0  3  0  0  0  0  0  0
  190.2910  177.6640  140.0140 C   0  0  2  0  0  3  0  0  0  0  0  0
  188.8650  178.1520  139.8870 C   0  0  0  0  0  0  0  0  0  0  0  0
  192.6690  173.3060  135.8290 C   0  0  0  0  0  0  0  0  0  0  0  0
  190.6070  176.6240  138.9840 C   0  0  0  0  0  0  0  0  0  0  0  0
  191.1080  174.6430  137.1040 C   0  0  0  0  0  0  0  0  0  0  0  0
  193.7410  173.9670  136.4390 C   0  0  0  0  0  3  0  0  0  0  0  0
  192.9030  172.3340  134.9200 F   0  0  0  0  0  0  0  0  0  0  0  0
  192.1910  175.3080  137.7200 C   0  0  0  0  0  0  0  0  0  0  0  0
  191.3520  173.6420  136.1610 C   0  0  0  0  0  3  0  0  0  0  0  0
  193.5030  174.9680  137.3850 C   0  0  0  0  0  3  0  0  0  0  0  0
  191.9320  176.2960  138.6650 C   0  0  0  0  0  3  0  0  0  0  0  0
  189.5640  175.9430  138.3490 C   0  0  0  0  0  3  0  0  0  0  0  0
  189.8320  174.9790  137.4280 N   0  0  0  0  0  0  0  0  0  0  0  0
  191.8340  176.3050  145.3790 C   0  0  0  0  0  3  0  0  0  0  0  0
  189.9310  177.5020  146.2720 C   0  0  0  0  0  3  0  0  0  0  0  0
  191.0730  176.7210  146.4730 C   0  0  0  0  0  0  0  0  0  0  0  0
  191.4620  176.6790  144.0830 C   0  0  0  0  0  3  0  0  0  0  0  0
  190.3250  177.4790  143.8800 C   0  0  0  0  0  0  0  0  0  0  0  0
  191.4440  176.3530  147.7600 O   0  0  0  0  0  1  0  0  0  0  0  0
  189.5600  177.8800  144.9790 C   0  0  0  0  0  3  0  0  0  0  0  0
  186.8700  178.9650  141.0000 O   0  0  0  0  0  0  0  0  0  0  0  0
  186.0590  178.4930  142.0410 C   0  0  0  0  0  2  0  0  0  0  0  0
  184.5960  178.8960  141.8480 C   0  0  1  0  0  3  0  0  0  0  0  0
  184.0080  178.2500  140.5970 C   0  0  0  0  0  2  0  0  0  0  0  0
  184.0370  179.2130  139.4130 C   0  0  0  0  0  3  0  0  0  0  0  0
  181.7550  178.6270  138.4870 C   0  0  0  0  0  2  0  0  0  0  0  0
  183.7860  177.4820  137.5850 C   0  0  0  0  0  2  0  0  0  0  0  0
  182.4130  178.0520  137.2400 C   0  0  0  0  0  2  0  0  0  0  0  0
  184.6780  178.5750  138.1740 C   0  0  0  0  0  2  0  0  0  0  0  0
  182.6290  179.7250  139.0920 C   0  0  0  0  0  2  0  0  0  0  0  0
  183.7400  178.6000  143.0890 C   0  0  1  0  0  3  0  0  0  0  0  0
  183.8620  179.6460  144.2080 C   0  0  0  0  0  2  0  0  0  0  0  0
  184.5290  179.1050  145.4330 C   0  0  0  0  0  3  0  0  0  0  0  0
  185.6170  178.4420  145.3300 N   0  0  0  0  0  0  0  0  0  0  0  0
  186.2450  177.9120  146.5080 C   0  0  0  0  0  1  0  0  0  0  0  0
  182.2950  178.2680  142.7190 C   0  0  0  0  0  2  0  0  0  0  0  0
  180.0060  179.2320  142.4490 C   0  0  0  0  0  1  0  0  0  0  0  0
  181.3590  179.3990  143.1180 C   0  0  0  0  0  2  0  0  0  0  0  0
  1  5  1  0  0  0  0
  2  5  1  0  0  0  0
  3  2  1  0  0  0  0
  4  7  2  0  0  0  0
  5 23  1  1  0  0  0
  6  9  1  6  0  0  0
  6  1  1  0  0  0  0
  7  6  1  0  0  0  0
  7  3  1  0  0  0  0
  8 14  2  0  0  0  0
  8 11  1  0  0  0  0
 10 18  2  0  0  0  0
 10 13  1  0  0  0  0
 11 15  2  0  0  0  0
 12  8  1  0  0  0  0
 13 16  2  0  0  0  0
 14 10  1  0  0  0  0
 15 13  1  0  0  0  0
 16  9  1  0  0  0  0
 17  9  2  0  0  0  0
 18 17  1  0  0  0  0
 19 21  1  0  0  0  0
 20 21  2  0  0  0  0
 21 24  1  0  0  0  0
 22 19  2  0  0  0  0
 23 22  1  0  0  0  0
 23 25  2  0  0  0  0
 25 20  1  0  0  0  0
 26  3  1  0  0  0  0
 26 27  1  0  0  0  0
 28 29  1  6  0  0  0
 28 27  1  0  0  0  0
 28 36  1  0  0  0  0
 30 29  1  0  0  0  0
 31 35  1  0  0  0  0
 32 34  1  0  0  0  0
 33 32  1  0  0  0  0
 33 31  1  0  0  0  0
 34 30  1  0  0  0  0
 35 30  1  0  0  0  0
 36 41  1  6  0  0  0
 36 37  1  0  0  0  0
 37 38  1  0  0  0  0
 39 38  2  0  0  0  0
 39 40  1  0  0  0  0
 41 43  1  0  0  0  0
 42 43  1  0  0  0  0
M  END
>  <MODEL>
7

>  <REMARK>
 VINA RESULT:      -8.5      1.244      2.375
  Name = 
  12 active torsions:
  status: ('A' for Active; 'I' for Inactive)
    1  A    between atoms: O_2  and  C_6
    2  A    between atoms: O_2  and  N_13
    3  A    between atoms: C_3  and  C_4
    4  A    between atoms: C_4  and  C_22
    5  A    between atoms: C_6  and  C_41
    6  A    between atoms: C_8  and  C_34
    7  A    between atoms: C_11  and  C_14
    8  A    between atoms: C_14  and  C_41
    9  A    between atoms: C_15  and  C_22
   10  A    between atoms: C_15  and  C_42
   11  A    between atoms: C_22  and  C_41
   12  A    between atoms: C_28  and  C_35
                            x       y       z     vdW  Elec       q    Type
                         _______ _______ _______ _____ _____    ______ ____

>  <TORSDO>
F 12

$$$$
=
 OpenBabel11052416323D

 43 47  0  0  1  0  0  0  0  0999 V2000
  190.9940  177.0760  141.0000 C   0  0  0  0  0  2  0  0  0  0  0  0
  188.6530  177.5880  141.5850 C   0  0  0  0  0  2  0  0  0  0  0  0
  188.3840  178.0800  140.2400 N   0  0  0  0  0  0  0  0  0  0  0  0
  189.1140  178.3400  138.0410 O   0  0  0  0  0  0  0  0  0  0  0  0
  190.1000  177.8740  141.9430 C   0  0  1  0  0  3  0  0  0  0  0  0
  190.7810  177.4830  139.5290 C   0  0  2  0  0  3  0  0  0  0  0  0
  189.3800  177.9560  139.2090 C   0  0  0  0  0  0  0  0  0  0  0  0
  193.6080  173.1030  135.6590 C   0  0  0  0  0  0  0  0  0  0  0  0
  191.2090  176.3800  138.6120 C   0  0  0  0  0  0  0  0  0  0  0  0
  191.9360  174.2700  136.9610 C   0  0  0  0  0  0  0  0  0  0  0  0
  194.5610  174.0670  136.0100 C   0  0  0  0  0  3  0  0  0  0  0  0
  193.9550  172.0670  134.8630 F   0  0  0  0  0  0  0  0  0  0  0  0
  192.8990  175.2400  137.3150 C   0  0  0  0  0  0  0  0  0  0  0  0
  192.2960  173.2030  136.1350 C   0  0  0  0  0  3  0  0  0  0  0  0
  194.2070  175.1360  136.8370 C   0  0  0  0  0  3  0  0  0  0  0  0
  192.5280  176.2920  138.1470 C   0  0  0  0  0  3  0  0  0  0  0  0
  190.2870  175.3990  138.2350 C   0  0  0  0  0  3  0  0  0  0  0  0
  190.6630  174.3760  137.4230 N   0  0  0  0  0  0  0  0  0  0  0  0
  189.9730  177.8690  145.7530 C   0  0  0  0  0  3  0  0  0  0  0  0
  191.6510  176.2930  145.0100 C   0  0  0  0  0  3  0  0  0  0  0  0
  190.9510  176.9180  146.0470 C   0  0  0  0  0  0  0  0  0  0  0  0
  189.6850  178.1900  144.4220 C   0  0  0  0  0  3  0  0  0  0  0  0
  190.3750  177.5520  143.3780 C   0  0  0  0  0  0  0  0  0  0  0  0
  191.2360  176.5950  147.3680 O   0  0  0  0  0  1  0  0  0  0  0  0
  191.3620  176.6100  143.6800 C   0  0  0  0  0  3  0  0  0  0  0  0
  187.2740  178.8310  140.0330 O   0  0  0  0  0  0  0  0  0  0  0  0
  186.6870  179.0050  141.2930 C   0  0  0  0  0  2  0  0  0  0  0  0
  185.3890  178.2060  141.4300 C   0  0  1  0  0  3  0  0  0  0  0  0
  185.1130  177.8520  142.8880 C   0  0  0  0  0  2  0  0  0  0  0  0
  185.6580  178.9230  143.8290 C   0  0  0  0  0  3  0  0  0  0  0  0
  185.7220  177.4930  145.9170 C   0  0  0  0  0  2  0  0  0  0  0  0
  183.7270  178.9290  145.4630 C   0  0  0  0  0  2  0  0  0  0  0  0
  184.6460  178.3690  146.5450 C   0  0  0  0  0  2  0  0  0  0  0  0
  184.5340  179.7540  144.4610 C   0  0  0  0  0  2  0  0  0  0  0  0
  186.5450  178.2990  144.9120 C   0  0  0  0  0  2  0  0  0  0  0  0
  184.1910  178.9230  140.7900 C   0  0  1  0  0  3  0  0  0  0  0  0
  184.3310  179.1670  139.2790 C   0  0  0  0  0  2  0  0  0  0  0  0
  184.4800  177.8980  138.5010 C   0  0  0  0  0  3  0  0  0  0  0  0
  185.2890  177.8460  137.5120 N   0  0  0  0  0  0  0  0  0  0  0  0
  185.4180  176.6300  136.7580 C   0  0  0  0  0  1  0  0  0  0  0  0
  182.8630  178.2760  141.1820 C   0  0  0  0  0  2  0  0  0  0  0  0
  180.6650  178.7490  140.0930 C   0  0  0  0  0  1  0  0  0  0  0  0
  181.7170  179.2680  141.0570 C   0  0  0  0  0  2  0  0  0  0  0  0
  1  5  1  0  0  0  0
  2  5  1  0  0  0  0
  3  2  1  0  0  0  0
  4  7  2  0  0  0  0
  5 23  1  1  0  0  0
  6  9  1  6  0  0  0
  6  1  1  0  0  0  0
  7  6  1  0  0  0  0
  7  3  1  0  0  0  0
  8 11  2  0  0  0  0
  8 14  1  0  0  0  0
 10 13  1  0  0  0  0
 10 18  1  0  0  0  0
 11 15  1  0  0  0  0
 12  8  1  0  0  0  0
 13 16  1  0  0  0  0
 14 10  2  0  0  0  0
 15 13  2  0  0  0  0
 16  9  2  0  0  0  0
 17  9  1  0  0  0  0
 18 17  2  0  0  0  0
 19 21  1  0  0  0  0
 20 21  2  0  0  0  0
 21 24  1  0  0  0  0
 22 19  2  0  0  0  0
 23 25  2  0  0  0  0
 23 22  1  0  0  0  0
 25 20  1  0  0  0  0
 26  3  1  0  0  0  0
 26 27  1  0  0  0  0
 28 27  1  1  0  0  0
 28 29  1  0  0  0  0
 29 30  1  0  0  0  0
 30 34  1  0  0  0  0
 30 35  1  0  0  0  0
 31 33  1  0  0  0  0
 32 33  1  0  0  0  0
 34 32  1  0  0  0  0
 35 31  1  0  0  0  0
 36 37  1  6  0  0  0
 36 41  1  0  0  0  0
 36 28  1  0  0  0  0
 38 37  1  0  0  0  0
 39 38  2  0  0  0  0
 40 39  1  0  0  0  0
 42 43  1  0  0  0  0
 43 41  1  0  0  0  0
M  END
>  <MODEL>
8

>  <REMARK>
 VINA RESULT:      -8.4      1.796      3.873
  Name = 
  12 active torsions:
  status: ('A' for Active; 'I' for Inactive)
    1  A    between atoms: O_2  and  C_6
    2  A    between atoms: O_2  and  N_13
    3  A    between atoms: C_3  and  C_4
    4  A    between atoms: C_4  and  C_22
    5  A    between atoms: C_6  and  C_41
    6  A    between atoms: C_8  and  C_34
    7  A    between atoms: C_11  and  C_14
    8  A    between atoms: C_14  and  C_41
    9  A    between atoms: C_15  and  C_22
   10  A    between atoms: C_15  and  C_42
   11  A    between atoms: C_22  and  C_41
   12  A    between atoms: C_28  and  C_35
                            x       y       z     vdW  Elec       q    Type
                         _______ _______ _______ _____ _____    ______ ____

>  <TORSDO>
F 12

$$$$
=
 OpenBabel11052416323D

 43 47  0  0  1  0  0  0  0  0999 V2000
  182.5020  177.2690  140.6300 C   0  0  0  0  0  2  0  0  0  0  0  0
  183.8260  176.7110  138.6260 C   0  0  0  0  0  2  0  0  0  0  0  0
  184.6200  177.9260  138.7650 N   0  0  0  0  0  0  0  0  0  0  0  0
  185.1850  179.7880  140.0480 O   0  0  0  0  0  0  0  0  0  0  0  0
  182.4210  176.9700  139.1370 C   0  0  1  0  0  3  0  0  0  0  0  0
  183.3480  178.5240  140.9160 C   0  0  2  0  0  3  0  0  0  0  0  0
  184.4580  178.7700  139.9180 C   0  0  0  0  0  0  0  0  0  0  0  0
  186.5210  178.0700  146.5630 C   0  0  0  0  0  0  0  0  0  0  0  0
  183.8720  178.4960  142.3190 C   0  0  0  0  0  0  0  0  0  0  0  0
  184.7890  178.5330  144.9390 C   0  0  0  0  0  0  0  0  0  0  0  0
  187.3400  177.5570  145.5510 C   0  0  0  0  0  3  0  0  0  0  0  0
  186.9620  178.1010  147.8410 F   0  0  0  0  0  0  0  0  0  0  0  0
  185.6180  178.0170  143.9190 C   0  0  0  0  0  0  0  0  0  0  0  0
  185.2460  178.5590  146.2590 C   0  0  0  0  0  3  0  0  0  0  0  0
  186.8890  177.5300  144.2280 C   0  0  0  0  0  3  0  0  0  0  0  0
  185.1530  178.0060  142.6070 C   0  0  0  0  0  3  0  0  0  0  0  0
  183.0830  178.9960  143.3590 C   0  0  0  0  0  3  0  0  0  0  0  0
  183.5510  179.0010  144.6360 N   0  0  0  0  0  0  0  0  0  0  0  0
  179.6140  174.4020  139.3810 C   0  0  0  0  0  3  0  0  0  0  0  0
  180.9750  173.9120  137.4430 C   0  0  0  0  0  3  0  0  0  0  0  0
  179.8820  173.6130  138.2620 C   0  0  0  0  0  0  0  0  0  0  0  0
  180.4310  175.4980  139.6790 C   0  0  0  0  0  3  0  0  0  0  0  0
  181.5200  175.8110  138.8480 C   0  0  0  0  0  0  0  0  0  0  0  0
  179.0690  172.5270  137.9640 O   0  0  0  0  0  1  0  0  0  0  0  0
  181.7900  175.0090  137.7360 C   0  0  0  0  0  3  0  0  0  0  0  0
  185.3540  178.3470  137.7050 O   0  0  0  0  0  0  0  0  0  0  0  0
  185.3360  177.2940  136.7810 C   0  0  0  0  0  2  0  0  0  0  0  0
  186.6800  176.5660  136.7220 C   0  0  1  0  0  3  0  0  0  0  0  0
  186.5240  175.1710  136.1240 C   0  0  0  0  0  2  0  0  0  0  0  0
  186.6090  174.0960  137.2030 C   0  0  0  0  0  3  0  0  0  0  0  0
  187.2120  172.1720  135.6710 C   0  0  0  0  0  2  0  0  0  0  0  0
  184.8190  172.5670  136.2740 C   0  0  0  0  0  2  0  0  0  0  0  0
  185.8790  171.5080  135.9860 C   0  0  0  0  0  2  0  0  0  0  0  0
  185.2480  173.4340  137.4580 C   0  0  0  0  0  2  0  0  0  0  0  0
  187.6630  173.0440  136.8430 C   0  0  0  0  0  2  0  0  0  0  0  0
  187.7520  177.3790  135.9810 C   0  0  1  0  0  3  0  0  0  0  0  0
  188.7440  178.1080  136.9000 C   0  0  0  0  0  2  0  0  0  0  0  0
  188.5920  177.7210  138.3370 C   0  0  0  0  0  3  0  0  0  0  0  0
  188.4400  178.6220  139.2310 N   0  0  0  0  0  0  0  0  0  0  0  0
  188.3090  178.2460  140.6110 C   0  0  0  0  0  1  0  0  0  0  0  0
  188.4290  176.5610  134.8820 C   0  0  0  0  0  2  0  0  0  0  0  0
  190.3860  175.0810  135.3520 C   0  0  0  0  0  1  0  0  0  0  0  0
  189.9350  176.5070  135.0930 C   0  0  0  0  0  2  0  0  0  0  0  0
  1  6  1  0  0  0  0
  2  3  1  0  0  0  0
  2  5  1  0  0  0  0
  3  7  1  0  0  0  0
  5 23  1  1  0  0  0
  5  1  1  0  0  0  0
  6  9  1  1  0  0  0
  7  4  2  0  0  0  0
  7  6  1  0  0  0  0
  8 12  1  0  0  0  0
  9 16  2  0  0  0  0
  9 17  1  0  0  0  0
 10 14  2  0  0  0  0
 11  8  2  0  0  0  0
 13 15  2  0  0  0  0
 13 10  1  0  0  0  0
 14  8  1  0  0  0  0
 15 11  1  0  0  0  0
 16 13  1  0  0  0  0
 17 18  2  0  0  0  0
 18 10  1  0  0  0  0
 19 22  1  0  0  0  0
 20 25  2  0  0  0  0
 20 21  1  0  0  0  0
 21 19  2  0  0  0  0
 23 22  2  0  0  0  0
 24 21  1  0  0  0  0
 25 23  1  0  0  0  0
 26  3  1  0  0  0  0
 27 26  1  0  0  0  0
 28 29  1  6  0  0  0
 28 27  1  0  0  0  0
 29 30  1  0  0  0  0
 30 34  1  0  0  0  0
 31 33  1  0  0  0  0
 31 35  1  0  0  0  0
 32 34  1  0  0  0  0
 33 32  1  0  0  0  0
 35 30  1  0  0  0  0
 36 41  1  6  0  0  0
 36 28  1  0  0  0  0
 36 37  1  0  0  0  0
 37 38  1  0  0  0  0
 38 39  2  0  0  0  0
 39 40  1  0  0  0  0
 41 43  1  0  0  0  0
 43 42  1  0  0  0  0
M  END
>  <MODEL>
9

>  <REMARK>
 VINA RESULT:      -8.4      3.888      9.613
  Name = 
  12 active torsions:
  status: ('A' for Active; 'I' for Inactive)
    1  A    between atoms: O_2  and  C_6
    2  A    between atoms: O_2  and  N_13
    3  A    between atoms: C_3  and  C_4
    4  A    between atoms: C_4  and  C_22
    5  A    between atoms: C_6  and  C_41
    6  A    between atoms: C_8  and  C_34
    7  A    between atoms: C_11  and  C_14
    8  A    between atoms: C_14  and  C_41
    9  A    between atoms: C_15  and  C_22
   10  A    between atoms: C_15  and  C_42
   11  A    between atoms: C_22  and  C_41
   12  A    between atoms: C_28  and  C_35
                            x       y       z     vdW  Elec       q    Type
                         _______ _______ _______ _____ _____    ______ ____

>  <TORSDO>
F 12

$$$$
