=
 OpenBabel11052416533D

 32 34  0  0  1  0  0  0  0  0999 V2000
  186.5560  178.2230  142.1880 C   0  0  0  0  0  0  0  0  0  0  0  0
  186.9830  178.4110  147.0120 C   0  0  0  0  0  2  0  0  0  0  0  0
  185.5060  178.8410  147.1210 C   0  0  0  0  0  2  0  0  0  0  0  0
  184.4170  179.1470  141.1200 C   0  0  0  0  0  0  0  0  0  0  0  0
  182.9040  179.1280  141.1400 C   0  0  2  0  0  3  0  0  0  0  0  0
  187.2680  177.4180  145.8800 C   0  0  0  0  0  2  0  0  0  0  0  0
  187.2440  177.8160  143.3690 C   0  0  0  0  0  0  0  0  0  0  0  0
  185.2530  178.2650  144.6970 C   0  0  0  0  0  0  0  0  0  0  0  0
  184.5620  178.6610  143.5470 C   0  0  0  0  0  0  0  0  0  0  0  0
  184.5890  178.2440  146.0460 C   0  0  0  0  0  2  0  0  0  0  0  0
  186.5850  177.8510  144.6100 C   0  0  0  0  0  0  0  0  0  0  0  0
  183.1450  179.1450  143.6520 C   0  0  0  0  0  2  0  0  0  0  0  0
  184.9960  179.6420  140.1160 O   0  0  0  0  0  0  0  0  0  0  0  0
  185.2090  178.6710  142.2940 C   0  0  0  0  0  0  0  0  0  0  0  0
  182.3280  178.6310  142.4770 C   0  0  1  0  0  3  0  0  0  0  0  0
  188.3930  178.5610  140.5040 C   0  0  0  0  0  3  0  0  0  0  0  0
  187.1710  178.1600  140.8320 C   0  0  0  0  0  3  0  0  0  0  0  0
  187.8010  177.7560  138.2700 C   0  0  0  0  0  1  0  0  0  0  0  0
  188.8680  178.4340  139.1040 C   0  0  0  0  0  2  0  0  0  0  0  0
  180.6510  180.2620  142.8200 O   0  0  0  0  0  0  0  0  0  0  0  0
  180.9120  179.0820  142.6480 C   0  0  0  0  0  3  0  0  0  0  0  0
  182.8920  176.8390  140.1390 C   0  0  0  0  0  1  0  0  0  0  0  0
  182.3760  178.2580  140.0050 C   0  0  0  0  0  2  0  0  0  0  0  0
  188.6860  177.4000  143.3450 C   0  0  0  0  0  2  0  0  0  0  0  0
  188.7780  175.9740  143.0850 N   0  0  0  0  0  2  0  0  0  0  0  0
  190.1780  175.6890  142.8240 C   0  0  0  0  0  2  0  0  0  0  0  0
  191.0520  176.7650  143.4470 C   0  0  0  0  0  2  0  0  0  0  0  0
  191.7520  176.2390  144.6090 N   0  0  0  0  0  2  0  0  0  0  0  0
  191.6010  177.2060  145.6830 C   0  0  0  0  0  2  0  0  0  0  0  0
  191.3490  176.4940  146.9640 C   0  0  0  0  0  0  0  0  0  0  0  0
  192.2880  175.5990  147.4580 O   0  0  0  0  0  0  0  0  0  0  0  0
  190.2670  176.6740  147.5810 O   0  0  0  0  0  1  0  0  0  0  0  0
  1 14  2  0  0  0  0
  1  7  1  0  0  0  0
  2  3  1  0  0  0  0
  4  5  1  0  0  0  0
  4 14  1  0  0  0  0
  5 23  1  6  0  0  0
  5 15  1  0  0  0  0
  6  2  1  0  0  0  0
  7 11  2  0  0  0  0
  8 10  1  0  0  0  0
  9 12  1  0  0  0  0
  9  8  2  0  0  0  0
 10  3  1  0  0  0  0
 11  8  1  0  0  0  0
 11  6  1  0  0  0  0
 13  4  2  0  0  0  0
 14  9  1  0  0  0  0
 15 21  1  1  0  0  0
 15 12  1  0  0  0  0
 16 17  2  0  0  0  0
 17  1  1  0  0  0  0
 18 19  1  0  0  0  0
 19 16  1  0  0  0  0
 21 20  2  0  0  0  0
 23 22  1  0  0  0  0
 24  7  1  0  0  0  0
 25 24  1  0  0  0  0
 26 25  1  0  0  0  0
 26 27  1  0  0  0  0
 27 28  1  0  0  0  0
 28 29  1  0  0  0  0
 29 30  1  0  0  0  0
 30 31  2  0  0  0  0
 30 32  1  0  0  0  0
M  END
>  <MODEL>
1

>  <REMARK>
 VINA RESULT:      -8.6      0.000      0.000
  Name = 
  11 active torsions:
  status: ('A' for Active; 'I' for Inactive)
    1  A    between atoms: C_1  and  C_24
    2  A    between atoms: C_2  and  N_10
    3  A    between atoms: C_2  and  C_12
    4  A    between atoms: C_3  and  C_28
    5  A    between atoms: C_7  and  C_22
    6  A    between atoms: C_8  and  C_23
    7  A    between atoms: C_9  and  C_14
    8  A    between atoms: C_9  and  N_21
    9  A    between atoms: N_10  and  C_24
   10  A    between atoms: C_12  and  N_21
   11  A    between atoms: C_30  and  C_32
                            x       y       z     vdW  Elec       q    Type
                         _______ _______ _______ _____ _____    ______ ____

>  <TORSDO>
F 11

$$$$
=
 OpenBabel11052416533D

 32 34  0  0  1  0  0  0  0  0999 V2000
  187.3820  177.9110  142.4540 C   0  0  0  0  0  0  0  0  0  0  0  0
  183.4020  178.8430  145.0560 C   0  0  0  0  0  2  0  0  0  0  0  0
  184.1570  178.4510  146.3420 C   0  0  0  0  0  2  0  0  0  0  0  0
  189.3570  176.7670  143.6190 C   0  0  0  0  0  0  0  0  0  0  0  0
  190.2840  176.7910  144.8160 C   0  0  2  0  0  3  0  0  0  0  0  0
  184.2680  179.5470  144.0070 C   0  0  0  0  0  2  0  0  0  0  0  0
  186.1270  178.5790  142.5680 C   0  0  0  0  0  0  0  0  0  0  0  0
  186.2670  178.4510  144.9950 C   0  0  0  0  0  0  0  0  0  0  0  0
  187.5020  177.8000  144.9010 C   0  0  0  0  0  0  0  0  0  0  0  0
  185.6540  178.7840  146.3270 C   0  0  0  0  0  2  0  0  0  0  0  0
  185.5830  178.8330  143.8390 C   0  0  0  0  0  0  0  0  0  0  0  0
  188.2140  177.3550  146.1450 C   0  0  0  0  0  2  0  0  0  0  0  0
  189.6740  176.0520  142.6310 O   0  0  0  0  0  0  0  0  0  0  0  0
  188.0550  177.5000  143.6380 C   0  0  0  0  0  0  0  0  0  0  0  0
  189.7110  177.5840  146.0020 C   0  0  1  0  0  3  0  0  0  0  0  0
  188.6950  178.5500  140.4060 C   0  0  0  0  0  3  0  0  0  0  0  0
  188.0460  177.6580  141.1440 C   0  0  0  0  0  3  0  0  0  0  0  0
  190.3560  177.0840  139.3680 C   0  0  0  0  0  1  0  0  0  0  0  0
  189.3080  178.1470  139.1160 C   0  0  0  0  0  2  0  0  0  0  0  0
  190.8830  176.0820  147.4020 O   0  0  0  0  0  0  0  0  0  0  0  0
  190.3770  177.1860  147.2810 C   0  0  0  0  0  3  0  0  0  0  0  0
  191.4780  178.8120  143.9600 C   0  0  0  0  0  1  0  0  0  0  0  0
  191.6350  177.3750  144.4190 C   0  0  0  0  0  2  0  0  0  0  0  0
  185.3260  178.9760  141.3630 C   0  0  0  0  0  2  0  0  0  0  0  0
  184.3220  177.9640  141.0880 N   0  0  0  0  0  2  0  0  0  0  0  0
  183.2770  178.6130  140.3160 C   0  0  0  0  0  2  0  0  0  0  0  0
  182.8230  177.7020  139.1880 C   0  0  0  0  0  2  0  0  0  0  0  0
  183.4720  178.0770  137.9410 N   0  0  0  0  0  2  0  0  0  0  0  0
  184.3810  177.0020  137.5820 C   0  0  0  0  0  2  0  0  0  0  0  0
  185.7690  177.5300  137.4940 C   0  0  0  0  0  0  0  0  0  0  0  0
  186.0680  178.7840  138.0090 O   0  0  0  0  0  1  0  0  0  0  0  0
  186.6620  176.8580  136.9160 O   0  0  0  0  0  0  0  0  0  0  0  0
  1  7  2  0  0  0  0
  1 14  1  0  0  0  0
  2  3  1  0  0  0  0
  4 14  1  0  0  0  0
  4  5  1  0  0  0  0
  5 23  1  6  0  0  0
  5 15  1  0  0  0  0
  6  2  1  0  0  0  0
  7 11  1  0  0  0  0
  8 10  1  0  0  0  0
  9  8  1  0  0  0  0
  9 12  1  0  0  0  0
 10  3  1  0  0  0  0
 11  6  1  0  0  0  0
 11  8  2  0  0  0  0
 13  4  2  0  0  0  0
 14  9  2  0  0  0  0
 15 12  1  0  0  0  0
 15 21  1  1  0  0  0
 16 17  2  0  0  0  0
 17  1  1  0  0  0  0
 19 18  1  0  0  0  0
 19 16  1  0  0  0  0
 21 20  2  0  0  0  0
 22 23  1  0  0  0  0
 24  7  1  0  0  0  0
 25 24  1  0  0  0  0
 26 25  1  0  0  0  0
 27 26  1  0  0  0  0
 28 27  1  0  0  0  0
 29 28  1  0  0  0  0
 30 29  1  0  0  0  0
 30 31  1  0  0  0  0
 32 30  2  0  0  0  0
M  END
>  <MODEL>
2

>  <REMARK>
 VINA RESULT:      -8.6      2.544      7.077
  Name = 
  11 active torsions:
  status: ('A' for Active; 'I' for Inactive)
    1  A    between atoms: C_1  and  C_24
    2  A    between atoms: C_2  and  N_10
    3  A    between atoms: C_2  and  C_12
    4  A    between atoms: C_3  and  C_28
    5  A    between atoms: C_7  and  C_22
    6  A    between atoms: C_8  and  C_23
    7  A    between atoms: C_9  and  C_14
    8  A    between atoms: C_9  and  N_21
    9  A    between atoms: N_10  and  C_24
   10  A    between atoms: C_12  and  N_21
   11  A    between atoms: C_30  and  C_32
                            x       y       z     vdW  Elec       q    Type
                         _______ _______ _______ _____ _____    ______ ____

>  <TORSDO>
F 11

$$$$
=
 OpenBabel11052416533D

 32 34  0  0  1  0  0  0  0  0999 V2000
  187.3620  177.8810  142.4400 C   0  0  0  0  0  0  0  0  0  0  0  0
  183.3580  178.8390  144.9960 C   0  0  0  0  0  2  0  0  0  0  0  0
  184.1020  178.4620  146.2930 C   0  0  0  0  0  2  0  0  0  0  0  0
  189.3270  176.7510  143.6360 C   0  0  0  0  0  0  0  0  0  0  0  0
  190.2430  176.7880  144.8410 C   0  0  2  0  0  3  0  0  0  0  0  0
  184.2340  179.5320  143.9470 C   0  0  0  0  0  2  0  0  0  0  0  0
  186.1060  178.5490  142.5350 C   0  0  0  0  0  0  0  0  0  0  0  0
  186.2240  178.4490  144.9650 C   0  0  0  0  0  0  0  0  0  0  0  0
  187.4600  177.7970  144.8890 C   0  0  0  0  0  0  0  0  0  0  0  0
  185.5990  178.7960  146.2880 C   0  0  0  0  0  2  0  0  0  0  0  0
  185.5500  178.8170  143.7980 C   0  0  0  0  0  0  0  0  0  0  0  0
  188.1610  177.3660  146.1450 C   0  0  0  0  0  2  0  0  0  0  0  0
  189.6540  176.0250  142.6580 O   0  0  0  0  0  0  0  0  0  0  0  0
  188.0250  177.4840  143.6350 C   0  0  0  0  0  0  0  0  0  0  0  0
  189.6590  177.5940  146.0130 C   0  0  1  0  0  3  0  0  0  0  0  0
  188.6690  178.5050  140.3840 C   0  0  0  0  0  3  0  0  0  0  0  0
  188.0390  177.6140  141.1390 C   0  0  0  0  0  3  0  0  0  0  0  0
  190.4070  177.0960  139.3910 C   0  0  0  0  0  1  0  0  0  0  0  0
  189.2970  178.0860  139.1060 C   0  0  0  0  0  2  0  0  0  0  0  0
  190.8460  176.1200  147.4290 O   0  0  0  0  0  0  0  0  0  0  0  0
  190.3140  177.2110  147.3020 C   0  0  0  0  0  3  0  0  0  0  0  0
  191.4470  178.8060  143.9920 C   0  0  0  0  0  1  0  0  0  0  0  0
  191.5970  177.3690  144.4500 C   0  0  0  0  0  2  0  0  0  0  0  0
  185.3160  178.9330  141.3190 C   0  0  0  0  0  2  0  0  0  0  0  0
  184.2160  178.0030  141.1370 N   0  0  0  0  0  2  0  0  0  0  0  0
  183.2430  178.6690  140.2900 C   0  0  0  0  0  2  0  0  0  0  0  0
  182.1320  177.7020  139.9150 C   0  0  0  0  0  2  0  0  0  0  0  0
  181.0290  177.8080  140.8580 N   0  0  0  0  0  2  0  0  0  0  0  0
  180.7430  179.2200  141.0370 C   0  0  0  0  0  2  0  0  0  0  0  0
  180.3510  179.4750  142.4490 C   0  0  0  0  0  0  0  0  0  0  0  0
  180.0780  180.7700  142.8700 O   0  0  0  0  0  0  0  0  0  0  0  0
  180.3060  178.5240  143.2720 O   0  0  0  0  0  1  0  0  0  0  0  0
  1  7  2  0  0  0  0
  1 14  1  0  0  0  0
  2  3  1  0  0  0  0
  4  5  1  0  0  0  0
  5 23  1  6  0  0  0
  5 15  1  0  0  0  0
  6  2  1  0  0  0  0
  7 11  1  0  0  0  0
  8 10  1  0  0  0  0
  9  8  1  0  0  0  0
  9 12  1  0  0  0  0
 10  3  1  0  0  0  0
 11  6  1  0  0  0  0
 11  8  2  0  0  0  0
 13  4  2  0  0  0  0
 14  4  1  0  0  0  0
 14  9  2  0  0  0  0
 15 12  1  0  0  0  0
 15 21  1  1  0  0  0
 16 17  2  0  0  0  0
 17  1  1  0  0  0  0
 19 18  1  0  0  0  0
 19 16  1  0  0  0  0
 21 20  2  0  0  0  0
 22 23  1  0  0  0  0
 24  7  1  0  0  0  0
 25 24  1  0  0  0  0
 26 25  1  0  0  0  0
 27 26  1  0  0  0  0
 27 28  1  0  0  0  0
 28 29  1  0  0  0  0
 29 30  1  0  0  0  0
 30 31  2  0  0  0  0
 30 32  1  0  0  0  0
M  END
>  <MODEL>
3

>  <REMARK>
 VINA RESULT:      -8.6      2.301      7.353
  Name = 
  11 active torsions:
  status: ('A' for Active; 'I' for Inactive)
    1  A    between atoms: C_1  and  C_24
    2  A    between atoms: C_2  and  N_10
    3  A    between atoms: C_2  and  C_12
    4  A    between atoms: C_3  and  C_28
    5  A    between atoms: C_7  and  C_22
    6  A    between atoms: C_8  and  C_23
    7  A    between atoms: C_9  and  C_14
    8  A    between atoms: C_9  and  N_21
    9  A    between atoms: N_10  and  C_24
   10  A    between atoms: C_12  and  N_21
   11  A    between atoms: C_30  and  C_32
                            x       y       z     vdW  Elec       q    Type
                         _______ _______ _______ _____ _____    ______ ____

>  <TORSDO>
F 11

$$$$
=
 OpenBabel11052416533D

 32 34  0  0  1  0  0  0  0  0999 V2000
  187.3690  177.8890  142.4830 C   0  0  0  0  0  0  0  0  0  0  0  0
  183.4310  178.7820  145.1630 C   0  0  0  0  0  2  0  0  0  0  0  0
  184.2170  178.4020  146.4350 C   0  0  0  0  0  2  0  0  0  0  0  0
  189.3800  176.7700  143.6110 C   0  0  0  0  0  0  0  0  0  0  0  0
  190.3300  176.8070  144.7880 C   0  0  2  0  0  3  0  0  0  0  0  0
  184.2690  179.4930  144.0950 C   0  0  0  0  0  2  0  0  0  0  0  0
  186.1090  178.5430  142.6210 C   0  0  0  0  0  0  0  0  0  0  0  0
  186.2990  178.4230  145.0450 C   0  0  0  0  0  0  0  0  0  0  0  0
  187.5390  177.7850  144.9270 C   0  0  0  0  0  0  0  0  0  0  0  0
  185.7100  178.7510  146.3890 C   0  0  0  0  0  2  0  0  0  0  0  0
  185.5880  178.7940  143.9020 C   0  0  0  0  0  0  0  0  0  0  0  0
  188.2810  177.3510  146.1580 C   0  0  0  0  0  2  0  0  0  0  0  0
  189.6850  176.0570  142.6180 O   0  0  0  0  0  0  0  0  0  0  0  0
  188.0710  177.4890  143.6550 C   0  0  0  0  0  0  0  0  0  0  0  0
  189.7720  177.5970  145.9850 C   0  0  1  0  0  3  0  0  0  0  0  0
  188.6100  178.5440  140.3960 C   0  0  0  0  0  3  0  0  0  0  0  0
  188.0100  177.6410  141.1610 C   0  0  0  0  0  3  0  0  0  0  0  0
  188.1050  177.7050  138.1540 C   0  0  0  0  0  1  0  0  0  0  0  0
  189.2050  178.1440  139.0970 C   0  0  0  0  0  2  0  0  0  0  0  0
  190.9660  176.1010  147.3730 O   0  0  0  0  0  0  0  0  0  0  0  0
  190.4690  177.2090  147.2510 C   0  0  0  0  0  3  0  0  0  0  0  0
  191.4940  178.8570  143.9600 C   0  0  0  0  0  1  0  0  0  0  0  0
  191.6660  177.4050  144.3640 C   0  0  0  0  0  2  0  0  0  0  0  0
  185.2800  178.9290  141.4310 C   0  0  0  0  0  2  0  0  0  0  0  0
  184.2720  177.9130  141.1880 N   0  0  0  0  0  2  0  0  0  0  0  0
  183.4840  178.3700  140.0570 C   0  0  0  0  0  2  0  0  0  0  0  0
  184.2740  179.3860  139.2510 C   0  0  0  0  0  2  0  0  0  0  0  0
  183.4370  180.5290  138.9150 N   0  0  0  0  0  2  0  0  0  0  0  0
  182.0560  180.0810  138.9470 C   0  0  0  0  0  2  0  0  0  0  0  0
  181.2910  180.7440  137.8570 C   0  0  0  0  0  0  0  0  0  0  0  0
  181.3290  182.1250  137.7230 O   0  0  0  0  0  1  0  0  0  0  0  0
  180.5780  180.0560  137.0810 O   0  0  0  0  0  0  0  0  0  0  0  0
  1  7  2  0  0  0  0
  1 14  1  0  0  0  0
  2  3  1  0  0  0  0
  4 14  1  0  0  0  0
  4  5  1  0  0  0  0
  5 23  1  6  0  0  0
  5 15  1  0  0  0  0
  6  2  1  0  0  0  0
  7 11  1  0  0  0  0
  8 10  1  0  0  0  0
  9  8  1  0  0  0  0
  9 12  1  0  0  0  0
 10  3  1  0  0  0  0
 11  6  1  0  0  0  0
 11  8  2  0  0  0  0
 13  4  2  0  0  0  0
 14  9  2  0  0  0  0
 15 12  1  0  0  0  0
 15 21  1  1  0  0  0
 16 17  2  0  0  0  0
 17  1  1  0  0  0  0
 18 19  1  0  0  0  0
 19 16  1  0  0  0  0
 21 20  2  0  0  0  0
 22 23  1  0  0  0  0
 24  7  1  0  0  0  0
 25 24  1  0  0  0  0
 26 25  1  0  0  0  0
 27 26  1  0  0  0  0
 28 29  1  0  0  0  0
 28 27  1  0  0  0  0
 30 29  1  0  0  0  0
 31 30  1  0  0  0  0
 32 30  2  0  0  0  0
M  END
>  <MODEL>
4

>  <REMARK>
 VINA RESULT:      -8.3      2.640      7.702
  Name = 
  11 active torsions:
  status: ('A' for Active; 'I' for Inactive)
    1  A    between atoms: C_1  and  C_24
    2  A    between atoms: C_2  and  N_10
    3  A    between atoms: C_2  and  C_12
    4  A    between atoms: C_3  and  C_28
    5  A    between atoms: C_7  and  C_22
    6  A    between atoms: C_8  and  C_23
    7  A    between atoms: C_9  and  C_14
    8  A    between atoms: C_9  and  N_21
    9  A    between atoms: N_10  and  C_24
   10  A    between atoms: C_12  and  N_21
   11  A    between atoms: C_30  and  C_32
                            x       y       z     vdW  Elec       q    Type
                         _______ _______ _______ _____ _____    ______ ____

>  <TORSDO>
F 11

$$$$
=
 OpenBabel11052416533D

 32 34  0  0  1  0  0  0  0  0999 V2000
  187.3490  177.8960  142.4320 C   0  0  0  0  0  0  0  0  0  0  0  0
  183.3630  178.8410  145.0210 C   0  0  0  0  0  2  0  0  0  0  0  0
  184.1170  178.4610  146.3110 C   0  0  0  0  0  2  0  0  0  0  0  0
  189.3240  176.7650  143.6100 C   0  0  0  0  0  0  0  0  0  0  0  0
  190.2490  176.7990  144.8080 C   0  0  2  0  0  3  0  0  0  0  0  0
  184.2300  179.5390  143.9680 C   0  0  0  0  0  2  0  0  0  0  0  0
  186.0930  178.5630  142.5390 C   0  0  0  0  0  0  0  0  0  0  0  0
  186.2290  178.4540  144.9680 C   0  0  0  0  0  0  0  0  0  0  0  0
  187.4650  177.8050  144.8800 C   0  0  0  0  0  0  0  0  0  0  0  0
  185.6140  178.7960  146.2960 C   0  0  0  0  0  2  0  0  0  0  0  0
  185.5460  178.8260  143.8070 C   0  0  0  0  0  0  0  0  0  0  0  0
  188.1760  177.3700  146.1300 C   0  0  0  0  0  2  0  0  0  0  0  0
  189.6450  176.0430  142.6280 O   0  0  0  0  0  0  0  0  0  0  0  0
  188.0210  177.4960  143.6210 C   0  0  0  0  0  0  0  0  0  0  0  0
  189.6730  177.6010  145.9880 C   0  0  1  0  0  3  0  0  0  0  0  0
  188.7010  178.5120  140.4030 C   0  0  0  0  0  3  0  0  0  0  0  0
  188.0160  177.6350  141.1260 C   0  0  0  0  0  3  0  0  0  0  0  0
  190.5140  177.2220  139.3850 C   0  0  0  0  0  1  0  0  0  0  0  0
  189.3110  178.1010  139.1140 C   0  0  0  0  0  2  0  0  0  0  0  0
  190.8170  176.1000  147.4120 O   0  0  0  0  0  0  0  0  0  0  0  0
  190.3380  177.2140  147.2700 C   0  0  0  0  0  3  0  0  0  0  0  0
  191.4470  178.8280  143.9770 C   0  0  0  0  0  1  0  0  0  0  0  0
  191.6000  177.3830  144.4090 C   0  0  0  0  0  2  0  0  0  0  0  0
  185.2940  178.9500  141.3300 C   0  0  0  0  0  2  0  0  0  0  0  0
  184.2270  177.9870  141.1210 N   0  0  0  0  0  2  0  0  0  0  0  0
  183.1320  178.7080  140.4950 C   0  0  0  0  0  2  0  0  0  0  0  0
  181.8500  177.9000  140.6040 C   0  0  0  0  0  2  0  0  0  0  0  0
  181.4590  177.3900  139.2980 N   0  0  0  0  0  2  0  0  0  0  0  0
  181.4580  175.9400  139.3780 C   0  0  0  0  0  2  0  0  0  0  0  0
  182.3780  175.3820  138.3510 C   0  0  0  0  0  0  0  0  0  0  0  0
  181.9770  174.3040  137.5740 O   0  0  0  0  0  0  0  0  0  0  0  0
  183.5330  175.8620  138.2140 O   0  0  0  0  0  1  0  0  0  0  0  0
  1  7  2  0  0  0  0
  1 14  1  0  0  0  0
  2  3  1  0  0  0  0
  4 14  1  0  0  0  0
  4  5  1  0  0  0  0
  5 23  1  6  0  0  0
  5 15  1  0  0  0  0
  6  2  1  0  0  0  0
  7 11  1  0  0  0  0
  8 10  1  0  0  0  0
  9  8  1  0  0  0  0
  9 12  1  0  0  0  0
 10  3  1  0  0  0  0
 11  6  1  0  0  0  0
 11  8  2  0  0  0  0
 13  4  2  0  0  0  0
 14  9  2  0  0  0  0
 15 12  1  0  0  0  0
 15 21  1  1  0  0  0
 16 17  2  0  0  0  0
 17  1  1  0  0  0  0
 19 18  1  0  0  0  0
 19 16  1  0  0  0  0
 21 20  2  0  0  0  0
 22 23  1  0  0  0  0
 24  7  1  0  0  0  0
 25 24  1  0  0  0  0
 26 27  1  0  0  0  0
 26 25  1  0  0  0  0
 28 29  1  0  0  0  0
 28 27  1  0  0  0  0
 30 29  1  0  0  0  0
 31 30  2  0  0  0  0
 32 30  1  0  0  0  0
M  END
>  <MODEL>
5

>  <REMARK>
 VINA RESULT:      -8.2      2.682      7.421
  Name = 
  11 active torsions:
  status: ('A' for Active; 'I' for Inactive)
    1  A    between atoms: C_1  and  C_24
    2  A    between atoms: C_2  and  N_10
    3  A    between atoms: C_2  and  C_12
    4  A    between atoms: C_3  and  C_28
    5  A    between atoms: C_7  and  C_22
    6  A    between atoms: C_8  and  C_23
    7  A    between atoms: C_9  and  C_14
    8  A    between atoms: C_9  and  N_21
    9  A    between atoms: N_10  and  C_24
   10  A    between atoms: C_12  and  N_21
   11  A    between atoms: C_30  and  C_32
                            x       y       z     vdW  Elec       q    Type
                         _______ _______ _______ _____ _____    ______ ____

>  <TORSDO>
F 11

$$$$
=
 OpenBabel11052416533D

 32 34  0  0  1  0  0  0  0  0999 V2000
  187.0650  177.9640  142.6250 C   0  0  0  0  0  0  0  0  0  0  0  0
  188.0260  178.1850  147.3690 C   0  0  0  0  0  2  0  0  0  0  0  0
  186.5870  178.6730  147.6330 C   0  0  0  0  0  2  0  0  0  0  0  0
  184.8580  178.9600  141.7840 C   0  0  0  0  0  0  0  0  0  0  0  0
  183.3570  179.0020  141.9690 C   0  0  2  0  0  3  0  0  0  0  0  0
  188.1460  177.1690  146.2280 C   0  0  0  0  0  2  0  0  0  0  0  0
  187.8620  177.5420  143.7290 C   0  0  0  0  0  0  0  0  0  0  0  0
  186.0480  178.0830  145.2610 C   0  0  0  0  0  0  0  0  0  0  0  0
  185.2500  178.4950  144.1880 C   0  0  0  0  0  0  0  0  0  0  0  0
  185.5350  178.1020  146.6740 C   0  0  0  0  0  2  0  0  0  0  0  0
  187.3450  177.6160  145.0340 C   0  0  0  0  0  0  0  0  0  0  0  0
  183.8730  179.0350  144.4400 C   0  0  0  0  0  2  0  0  0  0  0  0
  185.3420  179.4220  140.7150 O   0  0  0  0  0  0  0  0  0  0  0  0
  185.7560  178.4660  142.8710 C   0  0  0  0  0  0  0  0  0  0  0  0
  182.9120  178.5410  143.3680 C   0  0  1  0  0  3  0  0  0  0  0  0
  188.4310  178.6320  140.6230 C   0  0  0  0  0  3  0  0  0  0  0  0
  187.5240  177.8630  141.2110 C   0  0  0  0  0  3  0  0  0  0  0  0
  187.6830  177.6270  138.5210 C   0  0  0  0  0  1  0  0  0  0  0  0
  188.7870  178.4090  139.1990 C   0  0  0  0  0  2  0  0  0  0  0  0
  180.6040  178.2770  143.8060 O   0  0  0  0  0  0  0  0  0  0  0  0
  181.5420  179.0500  143.6870 C   0  0  0  0  0  3  0  0  0  0  0  0
  181.9600  179.0140  139.8980 C   0  0  0  0  0  1  0  0  0  0  0  0
  182.6750  178.1420  140.9120 C   0  0  0  0  0  2  0  0  0  0  0  0
  189.2760  177.0700  143.5540 C   0  0  0  0  0  2  0  0  0  0  0  0
  190.1860  178.1930  143.6850 N   0  0  0  0  0  2  0  0  0  0  0  0
  191.5210  177.6800  143.4300 C   0  0  0  0  0  2  0  0  0  0  0  0
  191.5330  176.8880  142.1330 C   0  0  0  0  0  2  0  0  0  0  0  0
  191.9440  177.7360  141.0250 N   0  0  0  0  0  2  0  0  0  0  0  0
  191.8250  176.9510  139.8080 C   0  0  0  0  0  2  0  0  0  0  0  0
  193.1630  176.8030  139.1760 C   0  0  0  0  0  0  0  0  0  0  0  0
  194.3040  176.7630  139.9670 O   0  0  0  0  0  1  0  0  0  0  0  0
  193.2660  176.7540  137.9230 O   0  0  0  0  0  0  0  0  0  0  0  0
  1 14  2  0  0  0  0
  1  7  1  0  0  0  0
  2  3  1  0  0  0  0
  4  5  1  0  0  0  0
  4 14  1  0  0  0  0
  5 23  1  6  0  0  0
  5 15  1  0  0  0  0
  6  2  1  0  0  0  0
  7 11  2  0  0  0  0
  8 10  1  0  0  0  0
  9 12  1  0  0  0  0
  9  8  2  0  0  0  0
 10  3  1  0  0  0  0
 11  8  1  0  0  0  0
 11  6  1  0  0  0  0
 13  4  2  0  0  0  0
 14  9  1  0  0  0  0
 15 21  1  1  0  0  0
 15 12  1  0  0  0  0
 16 17  2  0  0  0  0
 17  1  1  0  0  0  0
 18 19  1  0  0  0  0
 19 16  1  0  0  0  0
 21 20  2  0  0  0  0
 22 23  1  0  0  0  0
 24 25  1  0  0  0  0
 24  7  1  0  0  0  0
 26 25  1  0  0  0  0
 27 26  1  0  0  0  0
 28 27  1  0  0  0  0
 29 28  1  0  0  0  0
 30 29  1  0  0  0  0
 30 31  1  0  0  0  0
 32 30  2  0  0  0  0
M  END
>  <MODEL>
6

>  <REMARK>
 VINA RESULT:      -8.0      2.626      3.166
  Name = 
  11 active torsions:
  status: ('A' for Active; 'I' for Inactive)
    1  A    between atoms: C_1  and  C_24
    2  A    between atoms: C_2  and  N_10
    3  A    between atoms: C_2  and  C_12
    4  A    between atoms: C_3  and  C_28
    5  A    between atoms: C_7  and  C_22
    6  A    between atoms: C_8  and  C_23
    7  A    between atoms: C_9  and  C_14
    8  A    between atoms: C_9  and  N_21
    9  A    between atoms: N_10  and  C_24
   10  A    between atoms: C_12  and  N_21
   11  A    between atoms: C_30  and  C_32
                            x       y       z     vdW  Elec       q    Type
                         _______ _______ _______ _____ _____    ______ ____

>  <TORSDO>
F 11

$$$$
=
 OpenBabel11052416533D

 32 34  0  0  1  0  0  0  0  0999 V2000
  188.1660  177.6810  141.3710 C   0  0  0  0  0  0  0  0  0  0  0  0
  190.6530  177.2420  145.5070 C   0  0  0  0  0  2  0  0  0  0  0  0
  189.4190  177.7300  146.2940 C   0  0  0  0  0  2  0  0  0  0  0  0
  185.8810  178.8400  141.4430 C   0  0  0  0  0  0  0  0  0  0  0  0
  184.5320  178.8960  142.1260 C   0  0  2  0  0  3  0  0  0  0  0  0
  190.3190  176.3860  144.2810 C   0  0  0  0  0  2  0  0  0  0  0  0
  189.2530  177.0960  142.0850 C   0  0  0  0  0  0  0  0  0  0  0  0
  188.0880  177.4750  144.1900 C   0  0  0  0  0  0  0  0  0  0  0  0
  187.0110  178.0470  143.5030 C   0  0  0  0  0  0  0  0  0  0  0  0
  188.0730  177.3200  145.6850 C   0  0  0  0  0  2  0  0  0  0  0  0
  189.2020  177.0080  143.4880 C   0  0  0  0  0  0  0  0  0  0  0  0
  185.8350  178.5860  144.2650 C   0  0  0  0  0  2  0  0  0  0  0  0
  186.0160  179.4270  140.3350 O   0  0  0  0  0  0  0  0  0  0  0  0
  187.0500  178.1810  142.1000 C   0  0  0  0  0  0  0  0  0  0  0  0
  184.5430  178.2650  143.5290 C   0  0  1  0  0  3  0  0  0  0  0  0
  188.9130  178.4970  139.1120 C   0  0  0  0  0  3  0  0  0  0  0  0
  188.1260  177.7580  139.8830 C   0  0  0  0  0  3  0  0  0  0  0  0
  187.3600  177.9800  137.2930 C   0  0  0  0  0  1  0  0  0  0  0  0
  188.7510  178.4680  137.6370 C   0  0  0  0  0  2  0  0  0  0  0  0
  183.5610  179.1230  145.5010 O   0  0  0  0  0  0  0  0  0  0  0  0
  183.3930  178.7630  144.3460 C   0  0  0  0  0  3  0  0  0  0  0  0
  182.9570  179.1480  140.2020 C   0  0  0  0  0  1  0  0  0  0  0  0
  183.4810  178.2030  141.2660 C   0  0  0  0  0  2  0  0  0  0  0  0
  190.4920  176.6130  141.3910 C   0  0  0  0  0  2  0  0  0  0  0  0
  191.6100  177.4750  141.7320 N   0  0  0  0  0  2  0  0  0  0  0  0
  192.2630  177.8250  140.4830 C   0  0  0  0  0  2  0  0  0  0  0  0
  192.0920  176.7000  139.4750 C   0  0  0  0  0  2  0  0  0  0  0  0
  193.1950  176.6990  138.5260 N   0  0  0  0  0  2  0  0  0  0  0  0
  193.1860  175.4130  137.8500 C   0  0  0  0  0  2  0  0  0  0  0  0
  194.5530  174.8270  137.8730 C   0  0  0  0  0  0  0  0  0  0  0  0
  195.3670  175.0080  138.9830 O   0  0  0  0  0  1  0  0  0  0  0  0
  194.9860  174.2010  136.8700 O   0  0  0  0  0  0  0  0  0  0  0  0
  1  7  2  0  0  0  0
  1 14  1  0  0  0  0
  2  3  1  0  0  0  0
  4 14  1  0  0  0  0
  4  5  1  0  0  0  0
  5 23  1  6  0  0  0
  5 15  1  0  0  0  0
  6  2  1  0  0  0  0
  7 11  1  0  0  0  0
  8 10  1  0  0  0  0
  9  8  1  0  0  0  0
  9 12  1  0  0  0  0
 10  3  1  0  0  0  0
 11  8  2  0  0  0  0
 11  6  1  0  0  0  0
 13  4  2  0  0  0  0
 14  9  2  0  0  0  0
 15 12  1  0  0  0  0
 15 21  1  1  0  0  0
 16 17  2  0  0  0  0
 17  1  1  0  0  0  0
 18 19  1  0  0  0  0
 19 16  1  0  0  0  0
 21 20  2  0  0  0  0
 22 23  1  0  0  0  0
 24 25  1  0  0  0  0
 24  7  1  0  0  0  0
 26 25  1  0  0  0  0
 27 26  1  0  0  0  0
 28 27  1  0  0  0  0
 29 30  1  0  0  0  0
 29 28  1  0  0  0  0
 30 31  1  0  0  0  0
 32 30  2  0  0  0  0
M  END
>  <MODEL>
7

>  <REMARK>
 VINA RESULT:      -7.4      3.512      4.468
  Name = 
  11 active torsions:
  status: ('A' for Active; 'I' for Inactive)
    1  A    between atoms: C_1  and  C_24
    2  A    between atoms: C_2  and  N_10
    3  A    between atoms: C_2  and  C_12
    4  A    between atoms: C_3  and  C_28
    5  A    between atoms: C_7  and  C_22
    6  A    between atoms: C_8  and  C_23
    7  A    between atoms: C_9  and  C_14
    8  A    between atoms: C_9  and  N_21
    9  A    between atoms: N_10  and  C_24
   10  A    between atoms: C_12  and  N_21
   11  A    between atoms: C_30  and  C_32
                            x       y       z     vdW  Elec       q    Type
                         _______ _______ _______ _____ _____    ______ ____

>  <TORSDO>
F 11

$$$$
=
 OpenBabel11052416533D

 32 34  0  0  1  0  0  0  0  0999 V2000
  188.7900  177.3360  141.2940 C   0  0  0  0  0  0  0  0  0  0  0  0
  184.0920  178.5250  141.2570 C   0  0  0  0  0  2  0  0  0  0  0  0
  184.0520  178.3960  142.7930 C   0  0  0  0  0  2  0  0  0  0  0  0
  189.8150  176.5000  143.4890 C   0  0  0  0  0  0  0  0  0  0  0  0
  189.9900  176.7720  144.9680 C   0  0  2  0  0  3  0  0  0  0  0  0
  185.4110  179.0760  140.7060 C   0  0  0  0  0  2  0  0  0  0  0  0
  187.6930  177.9570  140.6260 C   0  0  0  0  0  0  0  0  0  0  0  0
  186.5520  178.2580  142.7560 C   0  0  0  0  0  0  0  0  0  0  0  0
  187.6220  177.6560  143.4270 C   0  0  0  0  0  0  0  0  0  0  0  0
  185.3570  178.7880  143.4990 C   0  0  0  0  0  2  0  0  0  0  0  0
  186.5840  178.4030  141.3670 C   0  0  0  0  0  0  0  0  0  0  0  0
  187.5630  177.4650  144.9150 C   0  0  0  0  0  2  0  0  0  0  0  0
  190.5600  175.6400  142.9470 O   0  0  0  0  0  0  0  0  0  0  0  0
  188.7310  177.1670  142.7060 C   0  0  0  0  0  0  0  0  0  0  0  0
  188.9280  177.7320  145.5310 C   0  0  1  0  0  3  0  0  0  0  0  0
  191.0720  177.6440  140.2840 C   0  0  0  0  0  3  0  0  0  0  0  0
  190.0210  176.8910  140.5830 C   0  0  0  0  0  3  0  0  0  0  0  0
  191.7450  176.3440  138.3230 C   0  0  0  0  0  1  0  0  0  0  0  0
  192.2310  177.0550  139.5680 C   0  0  0  0  0  2  0  0  0  0  0  0
  188.9040  176.4950  147.5450 O   0  0  0  0  0  0  0  0  0  0  0  0
  188.8160  177.5910  147.0160 C   0  0  0  0  0  3  0  0  0  0  0  0
  191.6440  178.5380  144.3460 C   0  0  0  0  0  1  0  0  0  0  0  0
  191.3790  177.3380  145.2350 C   0  0  0  0  0  2  0  0  0  0  0  0
  187.6530  178.1050  139.1340 C   0  0  0  0  0  2  0  0  0  0  0  0
  187.9010  176.8170  138.5090 N   0  0  0  0  0  2  0  0  0  0  0  0
  187.1330  176.7980  137.2760 C   0  0  0  0  0  2  0  0  0  0  0  0
  185.8950  177.6670  137.4220 C   0  0  0  0  0  2  0  0  0  0  0  0
  184.7370  177.0020  136.8430 N   0  0  0  0  0  2  0  0  0  0  0  0
  183.6310  177.1680  137.7690 C   0  0  0  0  0  2  0  0  0  0  0  0
  183.3150  175.8630  138.4100 C   0  0  0  0  0  0  0  0  0  0  0  0
  183.7150  174.6790  137.8060 O   0  0  0  0  0  0  0  0  0  0  0  0
  182.6510  175.8300  139.4780 O   0  0  0  0  0  1  0  0  0  0  0  0
  1 14  1  0  0  0  0
  2  3  1  0  0  0  0
  3 10  1  0  0  0  0
  4  5  1  0  0  0  0
  5 23  1  6  0  0  0
  5 15  1  0  0  0  0
  6  2  1  0  0  0  0
  6 11  1  0  0  0  0
  7  1  2  0  0  0  0
  7 11  1  0  0  0  0
  8  9  1  0  0  0  0
  8 10  1  0  0  0  0
  9 12  1  0  0  0  0
 11  8  2  0  0  0  0
 12 15  1  0  0  0  0
 13  4  2  0  0  0  0
 14  9  2  0  0  0  0
 14  4  1  0  0  0  0
 15 21  1  1  0  0  0
 16 17  2  0  0  0  0
 17  1  1  0  0  0  0
 18 19  1  0  0  0  0
 19 16  1  0  0  0  0
 21 20  2  0  0  0  0
 22 23  1  0  0  0  0
 24  7  1  0  0  0  0
 25 24  1  0  0  0  0
 26 27  1  0  0  0  0
 26 25  1  0  0  0  0
 28 27  1  0  0  0  0
 28 29  1  0  0  0  0
 29 30  1  0  0  0  0
 30 32  1  0  0  0  0
 31 30  2  0  0  0  0
M  END
>  <MODEL>
8

>  <REMARK>
 VINA RESULT:      -7.4      2.715      7.203
  Name = 
  11 active torsions:
  status: ('A' for Active; 'I' for Inactive)
    1  A    between atoms: C_1  and  C_24
    2  A    between atoms: C_2  and  N_10
    3  A    between atoms: C_2  and  C_12
    4  A    between atoms: C_3  and  C_28
    5  A    between atoms: C_7  and  C_22
    6  A    between atoms: C_8  and  C_23
    7  A    between atoms: C_9  and  C_14
    8  A    between atoms: C_9  and  N_21
    9  A    between atoms: N_10  and  C_24
   10  A    between atoms: C_12  and  N_21
   11  A    between atoms: C_30  and  C_32
                            x       y       z     vdW  Elec       q    Type
                         _______ _______ _______ _____ _____    ______ ____

>  <TORSDO>
F 11

$$$$
=
 OpenBabel11052416533D

 32 34  0  0  1  0  0  0  0  0999 V2000
  188.9310  177.4720  141.5990 C   0  0  0  0  0  0  0  0  0  0  0  0
  184.2120  178.5510  141.3720 C   0  0  0  0  0  2  0  0  0  0  0  0
  184.0790  178.2600  142.8810 C   0  0  0  0  0  2  0  0  0  0  0  0
  189.8390  176.4340  143.7590 C   0  0  0  0  0  0  0  0  0  0  0  0
  189.9110  176.5520  145.2660 C   0  0  2  0  0  3  0  0  0  0  0  0
  185.5470  179.1860  140.9700 C   0  0  0  0  0  2  0  0  0  0  0  0
  187.8620  178.1350  140.9270 C   0  0  0  0  0  0  0  0  0  0  0  0
  186.5780  178.1830  142.9960 C   0  0  0  0  0  0  0  0  0  0  0  0
  187.6210  177.5390  143.6710 C   0  0  0  0  0  0  0  0  0  0  0  0
  185.3230  178.6050  143.7080 C   0  0  0  0  0  2  0  0  0  0  0  0
  186.6950  178.4740  141.6340 C   0  0  0  0  0  0  0  0  0  0  0  0
  187.4730  177.1910  145.1240 C   0  0  0  0  0  2  0  0  0  0  0  0
  190.6420  175.6530  143.1810 O   0  0  0  0  0  0  0  0  0  0  0  0
  188.7880  177.1540  142.9790 C   0  0  0  0  0  0  0  0  0  0  0  0
  188.7880  177.4240  145.8530 C   0  0  1  0  0  3  0  0  0  0  0  0
  191.3350  177.8490  140.9620 C   0  0  0  0  0  3  0  0  0  0  0  0
  190.2180  177.1320  140.9290 C   0  0  0  0  0  3  0  0  0  0  0  0
  192.1290  176.7050  138.9500 C   0  0  0  0  0  1  0  0  0  0  0  0
  192.5440  177.3780  140.2410 C   0  0  0  0  0  2  0  0  0  0  0  0
  188.9050  177.9380  148.1580 O   0  0  0  0  0  0  0  0  0  0  0  0
  188.5850  177.1250  147.3050 C   0  0  0  0  0  3  0  0  0  0  0  0
  192.0200  176.1180  146.5340 C   0  0  0  0  0  1  0  0  0  0  0  0
  191.2630  177.1190  145.6820 C   0  0  0  0  0  2  0  0  0  0  0  0
  187.9120  178.4370  139.4580 C   0  0  0  0  0  2  0  0  0  0  0  0
  187.6920  177.2180  138.7010 N   0  0  0  0  0  2  0  0  0  0  0  0
  187.2440  177.6230  137.3800 C   0  0  0  0  0  2  0  0  0  0  0  0
  187.2700  176.4330  136.4350 C   0  0  0  0  0  2  0  0  0  0  0  0
  188.2480  175.4520  136.8830 N   0  0  0  0  0  2  0  0  0  0  0  0
  189.3460  175.4660  135.9320 C   0  0  0  0  0  2  0  0  0  0  0  0
  190.4480  174.5990  136.4280 C   0  0  0  0  0  0  0  0  0  0  0  0
  190.2640  173.8280  137.5670 O   0  0  0  0  0  1  0  0  0  0  0  0
  191.5600  174.5950  135.8390 O   0  0  0  0  0  0  0  0  0  0  0  0
  1 14  1  0  0  0  0
  2  3  1  0  0  0  0
  3 10  1  0  0  0  0
  4  5  1  0  0  0  0
  5 23  1  6  0  0  0
  5 15  1  0  0  0  0
  6  2  1  0  0  0  0
  6 11  1  0  0  0  0
  7  1  2  0  0  0  0
  7 11  1  0  0  0  0
  8  9  1  0  0  0  0
  8 10  1  0  0  0  0
  9 12  1  0  0  0  0
 11  8  2  0  0  0  0
 12 15  1  0  0  0  0
 13  4  2  0  0  0  0
 14  9  2  0  0  0  0
 14  4  1  0  0  0  0
 15 21  1  1  0  0  0
 17 16  2  0  0  0  0
 17  1  1  0  0  0  0
 18 19  1  0  0  0  0
 19 16  1  0  0  0  0
 21 20  2  0  0  0  0
 23 22  1  0  0  0  0
 24  7  1  0  0  0  0
 25 24  1  0  0  0  0
 26 25  1  0  0  0  0
 27 28  1  0  0  0  0
 27 26  1  0  0  0  0
 29 30  1  0  0  0  0
 29 28  1  0  0  0  0
 30 31  1  0  0  0  0
 32 30  2  0  0  0  0
M  END
>  <MODEL>
9

>  <REMARK>
 VINA RESULT:      -7.3      3.266      6.996
  Name = 
  11 active torsions:
  status: ('A' for Active; 'I' for Inactive)
    1  A    between atoms: C_1  and  C_24
    2  A    between atoms: C_2  and  N_10
    3  A    between atoms: C_2  and  C_12
    4  A    between atoms: C_3  and  C_28
    5  A    between atoms: C_7  and  C_22
    6  A    between atoms: C_8  and  C_23
    7  A    between atoms: C_9  and  C_14
    8  A    between atoms: C_9  and  N_21
    9  A    between atoms: N_10  and  C_24
   10  A    between atoms: C_12  and  N_21
   11  A    between atoms: C_30  and  C_32
                            x       y       z     vdW  Elec       q    Type
                         _______ _______ _______ _____ _____    ______ ____

>  <TORSDO>
F 11

$$$$
