=
 OpenBabel11052412463D

 25 28  0  0  1  0  0  0  0  0999 V2000
  187.4510  177.7380  146.0140 C   0  0  0  0  0  0  0  0  0  0  0  0
  188.6430  177.1490  145.9100 C   0  0  0  0  0  0  0  0  0  0  0  0
  187.7900  178.2780  148.4580 C   0  0  0  0  0  3  0  0  0  0  0  0
  186.4340  178.0930  145.0450 C   0  0  0  0  0  0  0  0  0  0  0  0
  190.5810  177.4130  144.3870 C   0  0  2  0  0  0  0  0  0  0  0  0
  184.3220  179.2470  143.5990 C   0  0  0  0  0  3  0  0  0  0  0  0
  188.9800  177.6590  148.4020 C   0  0  0  0  0  3  0  0  0  0  0  0
  185.4920  178.7360  145.7280 C   0  0  0  0  0  0  0  0  0  0  0  0
  184.1920  179.1510  145.1050 C   0  0  0  0  0  2  0  0  0  0  0  0
  190.9310  177.1060  146.9040 C   0  0  0  0  0  0  0  0  0  0  0  0
  191.7480  177.0840  147.8640 O   0  0  0  0  0  0  0  0  0  0  0  0
  189.2140  176.7450  144.5890 C   0  0  0  0  0  2  0  0  0  0  0  0
  185.2760  178.5810  142.9180 C   0  0  0  0  0  3  0  0  0  0  0  0
  186.9610  178.2850  147.2550 C   0  0  0  0  0  0  0  0  0  0  0  0
  185.8200  178.8820  147.1160 N   0  0  0  0  0  0  0  0  0  0  0  0
  191.4300  177.2090  145.5630 N   0  0  0  0  0  2  0  0  0  0  0  0
  186.2850  177.6900  143.6090 C   0  0  0  0  0  2  0  0  0  0  0  0
  190.4020  178.9120  144.1690 C   0  0  0  0  0  1  0  0  0  0  0  0
  189.4630  176.9040  147.1650 C   0  0  2  0  0  3  0  0  0  0  0  0
  191.2860  176.8000  143.1770 C   0  0  0  0  0  2  0  0  0  0  0  0
  190.3500  175.9950  142.2860 C   0  0  0  0  0  2  0  0  0  0  0  0
  189.5650  177.4690  140.4020 C   0  0  0  0  0  0  0  0  0  0  0  0
  189.7130  177.9240  138.9950 C   0  0  0  0  0  1  0  0  0  0  0  0
  188.6620  177.9650  141.1260 O   0  0  0  0  0  0  0  0  0  0  0  0
  190.4500  176.4750  140.9180 N   0  0  0  0  0  2  0  0  0  0  0  0
  1 14  1  0  0  0  0
  2  1  2  0  0  0  0
  2 19  1  0  0  0  0
  4  8  2  0  0  0  0
  4  1  1  0  0  0  0
  5 18  1  6  0  0  0
  5 12  1  0  0  0  0
  5 16  1  0  0  0  0
  6  9  1  0  0  0  0
  7  3  2  0  0  0  0
  8 15  1  0  0  0  0
  9  8  1  0  0  0  0
 10 19  1  0  0  0  0
 10 11  2  0  0  0  0
 12  2  1  0  0  0  0
 13  6  2  0  0  0  0
 13 17  1  0  0  0  0
 14  3  1  0  0  0  0
 15 14  2  0  0  0  0
 16 10  1  0  0  0  0
 17  4  1  0  0  0  0
 19  7  1  1  0  0  0
 20  5  1  0  0  0  0
 21 20  1  0  0  0  0
 22 25  1  0  0  0  0
 22 24  2  0  0  0  0
 23 22  1  0  0  0  0
 25 21  1  0  0  0  0
M  END
>  <MODEL>
1

>  <REMARK>
 VINA RESULT:     -11.0      0.000      0.000
  Name = 
  3 active torsions:
  status: ('A' for Active; 'I' for Inactive)
    1  A    between atoms: C_6  and  C_15
    2  A    between atoms: C_15  and  C_25
    3  A    between atoms: N_21  and  C_25
                            x       y       z     vdW  Elec       q    Type
                         _______ _______ _______ _____ _____    ______ ____

>  <TORSDO>
F 3

$$$$
=
 OpenBabel11052412463D

 25 28  0  0  1  0  0  0  0  0999 V2000
  187.4510  177.7240  145.8500 C   0  0  0  0  0  0  0  0  0  0  0  0
  188.6440  177.1410  145.7190 C   0  0  0  0  0  0  0  0  0  0  0  0
  187.8250  178.2260  148.2980 C   0  0  0  0  0  3  0  0  0  0  0  0
  186.4200  178.0910  144.9020 C   0  0  0  0  0  0  0  0  0  0  0  0
  190.5590  177.4350  144.1730 C   0  0  2  0  0  0  0  0  0  0  0  0
  184.2840  179.2620  143.5050 C   0  0  0  0  0  3  0  0  0  0  0  0
  189.0150  177.6110  148.2150 C   0  0  0  0  0  3  0  0  0  0  0  0
  185.4860  178.7210  145.6090 C   0  0  0  0  0  0  0  0  0  0  0  0
  184.1760  179.1410  145.0110 C   0  0  0  0  0  2  0  0  0  0  0  0
  190.9460  177.0890  146.6800 C   0  0  0  0  0  0  0  0  0  0  0  0
  191.7760  177.0530  147.6280 O   0  0  0  0  0  0  0  0  0  0  0  0
  189.1970  176.7590  144.3840 C   0  0  0  0  0  2  0  0  0  0  0  0
  185.2300  178.6100  142.7990 C   0  0  0  0  0  3  0  0  0  0  0  0
  186.9780  178.2500  147.1060 C   0  0  0  0  0  0  0  0  0  0  0  0
  185.8340  178.8460  146.9940 N   0  0  0  0  0  0  0  0  0  0  0  0
  191.4260  177.2150  145.3340 N   0  0  0  0  0  2  0  0  0  0  0  0
  186.2510  177.7110  143.4620 C   0  0  0  0  0  2  0  0  0  0  0  0
  190.3730  178.9360  143.9820 C   0  0  0  0  0  1  0  0  0  0  0  0
  189.4820  176.8780  146.9590 C   0  0  2  0  0  3  0  0  0  0  0  0
  191.2480  176.8430  142.9440 C   0  0  0  0  0  2  0  0  0  0  0  0
  190.6270  177.3030  141.6320 C   0  0  0  0  0  2  0  0  0  0  0  0
  191.5230  176.6120  139.3840 C   0  0  0  0  0  0  0  0  0  0  0  0
  192.5990  176.6930  138.3620 C   0  0  0  0  0  1  0  0  0  0  0  0
  190.5100  175.8950  139.1670 O   0  0  0  0  0  0  0  0  0  0  0  0
  191.6490  177.3470  140.6000 N   0  0  0  0  0  2  0  0  0  0  0  0
  1 14  1  0  0  0  0
  2  1  2  0  0  0  0
  2 19  1  0  0  0  0
  4  8  2  0  0  0  0
  4  1  1  0  0  0  0
  5 18  1  6  0  0  0
  5 12  1  0  0  0  0
  5 16  1  0  0  0  0
  6  9  1  0  0  0  0
  7  3  2  0  0  0  0
  8 15  1  0  0  0  0
  9  8  1  0  0  0  0
 10 19  1  0  0  0  0
 10 11  2  0  0  0  0
 12  2  1  0  0  0  0
 13 17  1  0  0  0  0
 13  6  2  0  0  0  0
 14  3  1  0  0  0  0
 15 14  2  0  0  0  0
 16 10  1  0  0  0  0
 17  4  1  0  0  0  0
 19  7  1  1  0  0  0
 20  5  1  0  0  0  0
 21 20  1  0  0  0  0
 22 25  1  0  0  0  0
 23 22  1  0  0  0  0
 24 22  2  0  0  0  0
 25 21  1  0  0  0  0
M  END
>  <MODEL>
2

>  <REMARK>
 VINA RESULT:     -10.6      1.133      1.141
  Name = 
  3 active torsions:
  status: ('A' for Active; 'I' for Inactive)
    1  A    between atoms: C_6  and  C_15
    2  A    between atoms: C_15  and  C_25
    3  A    between atoms: N_21  and  C_25
                            x       y       z     vdW  Elec       q    Type
                         _______ _______ _______ _____ _____    ______ ____

>  <TORSDO>
F 3

$$$$
=
 OpenBabel11052412463D

 25 28  0  0  1  0  0  0  0  0999 V2000
  187.0390  177.7450  145.3470 C   0  0  0  0  0  0  0  0  0  0  0  0
  188.1860  177.1140  145.0900 C   0  0  0  0  0  0  0  0  0  0  0  0
  187.7850  178.4280  147.6610 C   0  0  0  0  0  3  0  0  0  0  0  0
  185.8840  178.0690  144.5340 C   0  0  0  0  0  0  0  0  0  0  0  0
  189.8530  177.2220  143.2580 C   0  0  2  0  0  0  0  0  0  0  0  0
  183.5870  179.1930  143.3760 C   0  0  0  0  0  3  0  0  0  0  0  0
  188.9370  177.7700  147.4550 C   0  0  0  0  0  3  0  0  0  0  0  0
  185.0800  178.7820  145.3160 C   0  0  0  0  0  0  0  0  0  0  0  0
  183.7040  179.1960  144.8860 C   0  0  0  0  0  2  0  0  0  0  0  0
  190.6050  177.0650  145.7010 C   0  0  0  0  0  0  0  0  0  0  0  0
  191.5670  177.0780  146.5150 O   0  0  0  0  0  0  0  0  0  0  0  0
  188.5240  176.6100  143.7240 C   0  0  0  0  0  2  0  0  0  0  0  0
  184.4030  178.4560  142.5950 C   0  0  0  0  0  3  0  0  0  0  0  0
  186.7700  178.3840  146.6110 C   0  0  0  0  0  0  0  0  0  0  0  0
  185.6340  179.0060  146.6190 N   0  0  0  0  0  0  0  0  0  0  0  0
  190.8790  177.0670  144.2920 N   0  0  0  0  0  2  0  0  0  0  0  0
  185.4930  177.5800  143.1720 C   0  0  0  0  0  2  0  0  0  0  0  0
  189.6700  178.7090  142.9720 C   0  0  0  0  0  1  0  0  0  0  0  0
  189.1960  176.9240  146.2090 C   0  0  2  0  0  3  0  0  0  0  0  0
  190.3380  176.5120  141.9950 C   0  0  0  0  0  2  0  0  0  0  0  0
  191.2390  177.3840  141.1290 C   0  0  0  0  0  2  0  0  0  0  0  0
  190.3310  176.7320  138.8730 C   0  0  0  0  0  0  0  0  0  0  0  0
  189.6240  177.1210  137.6240 C   0  0  0  0  0  1  0  0  0  0  0  0
  190.7280  175.5460  139.0220 O   0  0  0  0  0  0  0  0  0  0  0  0
  190.5530  177.7090  139.8900 N   0  0  0  0  0  2  0  0  0  0  0  0
  1 14  1  0  0  0  0
  2  1  2  0  0  0  0
  2 19  1  0  0  0  0
  4  8  2  0  0  0  0
  4  1  1  0  0  0  0
  5 18  1  6  0  0  0
  5 12  1  0  0  0  0
  5 16  1  0  0  0  0
  6  9  1  0  0  0  0
  7  3  2  0  0  0  0
  8 15  1  0  0  0  0
  9  8  1  0  0  0  0
 10 19  1  0  0  0  0
 10 11  2  0  0  0  0
 12  2  1  0  0  0  0
 13 17  1  0  0  0  0
 13  6  2  0  0  0  0
 14 15  2  0  0  0  0
 14  3  1  0  0  0  0
 16 10  1  0  0  0  0
 17  4  1  0  0  0  0
 19  7  1  1  0  0  0
 20  5  1  0  0  0  0
 21 20  1  0  0  0  0
 22 24  2  0  0  0  0
 22 25  1  0  0  0  0
 23 22  1  0  0  0  0
 25 21  1  0  0  0  0
M  END
>  <MODEL>
3

>  <REMARK>
 VINA RESULT:      -9.5      1.317      1.390
  Name = 
  3 active torsions:
  status: ('A' for Active; 'I' for Inactive)
    1  A    between atoms: C_6  and  C_15
    2  A    between atoms: C_15  and  C_25
    3  A    between atoms: N_21  and  C_25
                            x       y       z     vdW  Elec       q    Type
                         _______ _______ _______ _____ _____    ______ ____

>  <TORSDO>
F 3

$$$$
=
 OpenBabel11052412463D

 25 28  0  0  1  0  0  0  0  0999 V2000
  189.1090  176.9560  144.7840 C   0  0  0  0  0  0  0  0  0  0  0  0
  188.8800  176.7480  143.4860 C   0  0  0  0  0  0  0  0  0  0  0  0
  191.5710  176.4320  144.5640 C   0  0  0  0  0  3  0  0  0  0  0  0
  188.2900  177.4660  145.8640 C   0  0  2  0  0  3  0  0  0  0  0  0
  187.8130  178.0670  141.6790 C   0  0  2  0  0  0  0  0  0  0  0  0
  187.2750  178.6440  148.2020 C   0  0  0  0  0  3  0  0  0  0  0  0
  191.3720  176.1760  143.2610 C   0  0  0  0  0  3  0  0  0  0  0  0
  189.0860  177.5230  146.9270 C   0  0  0  0  0  0  0  0  0  0  0  0
  188.5760  177.8730  148.2930 C   0  0  0  0  0  2  0  0  0  0  0  0
  189.9800  176.7750  141.2460 C   0  0  0  0  0  0  0  0  0  0  0  0
  190.9130  176.5140  140.4410 O   0  0  0  0  0  0  0  0  0  0  0  0
  187.5760  177.0970  142.8460 C   0  0  0  0  0  2  0  0  0  0  0  0
  186.4720  178.5700  147.1220 C   0  0  0  0  0  3  0  0  0  0  0  0
  190.4100  176.7830  145.3800 C   0  0  0  0  0  0  0  0  0  0  0  0
  190.4290  177.1160  146.6320 N   0  0  0  0  0  0  0  0  0  0  0  0
  188.8660  177.5610  140.7970 N   0  0  0  0  0  2  0  0  0  0  0  0
  186.8120  177.7100  145.9240 C   0  0  0  0  0  2  0  0  0  0  0  0
  188.2380  179.4310  142.2130 C   0  0  0  0  0  1  0  0  0  0  0  0
  189.9850  176.1640  142.6210 C   0  0  0  0  0  0  0  0  0  0  0  0
  186.5330  178.2150  140.8580 C   0  0  0  0  0  2  0  0  0  0  0  0
  185.6200  179.3240  141.3680 C   0  0  0  0  0  2  0  0  0  0  0  0
  184.2950  179.2540  143.5070 C   0  0  0  0  0  0  0  0  0  0  0  0
  183.2180  178.6280  144.3180 C   0  0  0  0  0  1  0  0  0  0  0  0
  184.9460  180.2240  143.9780 O   0  0  0  0  0  0  0  0  0  0  0  0
  184.5790  178.7490  142.2030 N   0  0  0  0  0  2  0  0  0  0  0  0
  1 14  2  0  0  0  0
  1  4  1  0  0  0  0
  2  1  1  0  0  0  0
  3 14  1  0  0  0  0
  4 17  1  1  0  0  0
  4  8  1  0  0  0  0
  5 18  1  1  0  0  0
  5 12  1  0  0  0  0
  6  9  1  0  0  0  0
  7  3  2  0  0  0  0
  8  9  1  0  0  0  0
 10 19  1  0  0  0  0
 11 10  2  0  0  0  0
 12  2  1  0  0  0  0
 13  6  2  0  0  0  0
 14 15  1  0  0  0  0
 15  8  2  0  0  0  0
 16 10  1  0  0  0  0
 16  5  1  0  0  0  0
 17 13  1  0  0  0  0
 19  7  1  0  0  0  0
 19  2  2  0  0  0  0
 20 21  1  0  0  0  0
 20  5  1  0  0  0  0
 21 25  1  0  0  0  0
 22 24  2  0  0  0  0
 22 23  1  0  0  0  0
 25 22  1  0  0  0  0
M  END
>  <MODEL>
4

>  <REMARK>
 VINA RESULT:      -8.6      2.238      5.064
  Name = 
  3 active torsions:
  status: ('A' for Active; 'I' for Inactive)
    1  A    between atoms: C_6  and  C_15
    2  A    between atoms: C_15  and  C_25
    3  A    between atoms: N_21  and  C_25
                            x       y       z     vdW  Elec       q    Type
                         _______ _______ _______ _____ _____    ______ ____

>  <TORSDO>
F 3

$$$$
=
 OpenBabel11052412463D

 25 28  0  0  1  0  0  0  0  0999 V2000
  187.9150  177.6280  142.3090 C   0  0  0  0  0  0  0  0  0  0  0  0
  188.2090  177.2590  143.5560 C   0  0  0  0  0  0  0  0  0  0  0  0
  185.7080  178.6490  142.9950 C   0  0  0  0  0  3  0  0  0  0  0  0
  188.6640  177.6110  141.0690 C   0  0  0  0  0  0  0  0  0  0  0  0
  190.1560  177.5990  145.0530 C   0  0  2  0  0  0  0  0  0  0  0  0
  189.7310  178.0800  138.5150 C   0  0  0  0  0  3  0  0  0  0  0  0
  185.9510  178.2590  144.2560 C   0  0  0  0  0  3  0  0  0  0  0  0
  187.8770  178.1820  140.1620 C   0  0  0  0  0  0  0  0  0  0  0  0
  188.2370  178.2330  138.7070 C   0  0  0  0  0  2  0  0  0  0  0  0
  187.7670  177.8160  145.9480 C   0  0  0  0  0  0  0  0  0  0  0  0
  187.0250  178.1160  146.9220 O   0  0  0  0  0  0  0  0  0  0  0  0
  189.5590  176.7380  143.9310 C   0  0  0  0  0  2  0  0  0  0  0  0
  190.5170  177.4910  139.4380 C   0  0  0  0  0  3  0  0  0  0  0  0
  186.6810  178.2880  141.9650 C   0  0  0  0  0  0  0  0  0  0  0  0
  186.6340  178.6310  140.7170 N   0  0  0  0  0  0  0  0  0  0  0  0
  189.1890  177.7680  146.1400 N   0  0  0  0  0  2  0  0  0  0  0  0
  189.9610  176.9380  140.7320 C   0  0  0  0  0  2  0  0  0  0  0  0
  190.5270  178.9760  144.5120 C   0  0  0  0  0  1  0  0  0  0  0  0
  187.1530  177.3970  144.6400 C   0  0  2  0  0  3  0  0  0  0  0  0
  191.4010  176.9200  145.6230 C   0  0  0  0  0  2  0  0  0  0  0  0
  191.1610  176.2790  146.9840 C   0  0  0  0  0  2  0  0  0  0  0  0
  192.8800  176.3000  148.8220 C   0  0  0  0  0  0  0  0  0  0  0  0
  193.6480  177.0660  149.8390 C   0  0  0  0  0  1  0  0  0  0  0  0
  193.0700  175.0610  148.7010 O   0  0  0  0  0  0  0  0  0  0  0  0
  191.9370  176.9790  147.9930 N   0  0  0  0  0  2  0  0  0  0  0  0
  1  2  2  0  0  0  0
  2 12  1  0  0  0  0
  2 19  1  0  0  0  0
  3  7  2  0  0  0  0
  4  1  1  0  0  0  0
  5 18  1  6  0  0  0
  5 20  1  0  0  0  0
  5 16  1  0  0  0  0
  6  9  1  0  0  0  0
  6 13  2  0  0  0  0
  8 15  1  0  0  0  0
  8  4  2  0  0  0  0
  9  8  1  0  0  0  0
 10 16  1  0  0  0  0
 10 11  2  0  0  0  0
 12  5  1  0  0  0  0
 13 17  1  0  0  0  0
 14  1  1  0  0  0  0
 14  3  1  0  0  0  0
 15 14  2  0  0  0  0
 17  4  1  0  0  0  0
 19  7  1  6  0  0  0
 19 10  1  0  0  0  0
 20 21  1  0  0  0  0
 21 25  1  0  0  0  0
 22 23  1  0  0  0  0
 24 22  2  0  0  0  0
 25 22  1  0  0  0  0
M  END
>  <MODEL>
5

>  <REMARK>
 VINA RESULT:      -8.4      2.229      5.743
  Name = 
  3 active torsions:
  status: ('A' for Active; 'I' for Inactive)
    1  A    between atoms: C_6  and  C_15
    2  A    between atoms: C_15  and  C_25
    3  A    between atoms: N_21  and  C_25
                            x       y       z     vdW  Elec       q    Type
                         _______ _______ _______ _____ _____    ______ ____

>  <TORSDO>
F 3

$$$$
=
 OpenBabel11052412463D

 25 28  0  0  1  0  0  0  0  0999 V2000
  188.8970  177.1800  144.8710 C   0  0  0  0  0  0  0  0  0  0  0  0
  189.2790  176.8590  143.6350 C   0  0  0  0  0  0  0  0  0  0  0  0
  191.2620  177.1090  145.7580 C   0  0  0  0  0  3  0  0  0  0  0  0
  187.6300  177.5930  145.4400 C   0  0  0  0  0  0  0  0  0  0  0  0
  188.9150  177.8520  141.3920 C   0  0  2  0  0  0  0  0  0  0  0  0
  185.5540  178.6960  146.9740 C   0  0  0  0  0  3  0  0  0  0  0  0
  191.6800  176.7450  144.5350 C   0  0  0  0  0  3  0  0  0  0  0  0
  187.8760  177.8570  146.7190 C   0  0  0  0  0  0  0  0  0  0  0  0
  186.7840  178.1860  147.6940 C   0  0  0  0  0  2  0  0  0  0  0  0
  191.2180  176.9590  142.0660 C   0  0  0  0  0  0  0  0  0  0  0  0
  192.4330  176.8290  141.7590 O   0  0  0  0  0  0  0  0  0  0  0  0
  188.3410  176.9240  142.4730 C   0  0  0  0  0  2  0  0  0  0  0  0
  185.3110  178.4130  145.6790 C   0  0  0  0  0  3  0  0  0  0  0  0
  189.8260  177.2860  145.9690 C   0  0  1  0  0  3  0  0  0  0  0  0
  189.2580  177.6880  147.0610 N   0  0  0  0  0  0  0  0  0  0  0  0
  190.3050  177.4980  141.0980 N   0  0  0  0  0  2  0  0  0  0  0  0
  186.2510  177.5630  144.8520 C   0  0  0  0  0  2  0  0  0  0  0  0
  188.8700  179.2990  141.8700 C   0  0  0  0  0  1  0  0  0  0  0  0
  190.7190  176.4400  143.3870 C   0  0  0  0  0  0  0  0  0  0  0  0
  188.1040  177.7130  140.1040 C   0  0  0  0  0  2  0  0  0  0  0  0
  188.8410  178.2300  138.8760 C   0  0  0  0  0  2  0  0  0  0  0  0
  187.6090  178.4940  136.6970 C   0  0  0  0  0  0  0  0  0  0  0  0
  187.0090  177.8680  135.4890 C   0  0  0  0  0  1  0  0  0  0  0  0
  187.5560  179.7440  136.8430 O   0  0  0  0  0  0  0  0  0  0  0  0
  188.2390  177.6710  137.6770 N   0  0  0  0  0  2  0  0  0  0  0  0
  1  4  2  0  0  0  0
  1 14  1  0  0  0  0
  2  1  1  0  0  0  0
  4  8  1  0  0  0  0
  5 18  1  1  0  0  0
  5 12  1  0  0  0  0
  6  9  1  0  0  0  0
  7  3  2  0  0  0  0
  8 15  2  0  0  0  0
  8  9  1  0  0  0  0
 10 19  1  0  0  0  0
 11 10  2  0  0  0  0
 12  2  1  0  0  0  0
 13  6  2  0  0  0  0
 14  3  1  6  0  0  0
 14 15  1  0  0  0  0
 16  5  1  0  0  0  0
 16 10  1  0  0  0  0
 17  4  1  0  0  0  0
 17 13  1  0  0  0  0
 19  2  2  0  0  0  0
 19  7  1  0  0  0  0
 20  5  1  0  0  0  0
 21 20  1  0  0  0  0
 22 24  2  0  0  0  0
 22 25  1  0  0  0  0
 23 22  1  0  0  0  0
 25 21  1  0  0  0  0
M  END
>  <MODEL>
6

>  <REMARK>
 VINA RESULT:      -8.2      2.190      3.816
  Name = 
  3 active torsions:
  status: ('A' for Active; 'I' for Inactive)
    1  A    between atoms: C_6  and  C_15
    2  A    between atoms: C_15  and  C_25
    3  A    between atoms: N_21  and  C_25
                            x       y       z     vdW  Elec       q    Type
                         _______ _______ _______ _____ _____    ______ ____

>  <TORSDO>
F 3

$$$$
=
 OpenBabel11052412463D

 25 28  0  0  1  0  0  0  0  0999 V2000
  188.4020  177.6700  144.1920 C   0  0  0  0  0  0  0  0  0  0  0  0
  187.6710  177.6160  143.0780 C   0  0  0  0  0  0  0  0  0  0  0  0
  190.5560  178.0050  142.9160 C   0  0  0  0  0  3  0  0  0  0  0  0
  188.0590  177.7070  145.5990 C   0  0  2  0  0  3  0  0  0  0  0  0
  185.6510  178.8030  142.2680 C   0  0  2  0  0  0  0  0  0  0  0  0
  187.9590  178.0970  148.3780 C   0  0  0  0  0  3  0  0  0  0  0  0
  189.8600  177.9160  141.7720 C   0  0  0  0  0  3  0  0  0  0  0  0
  189.2100  177.8400  146.2500 C   0  0  0  0  0  0  0  0  0  0  0  0
  189.2980  177.7790  147.7460 C   0  0  0  0  0  2  0  0  0  0  0  0
  187.6230  178.3620  140.6970 C   0  0  0  0  0  0  0  0  0  0  0  0
  188.1330  178.5490  139.5590 O   0  0  0  0  0  0  0  0  0  0  0  0
  186.1770  177.6300  143.1080 C   0  0  0  0  0  2  0  0  0  0  0  0
  186.7970  177.9480  147.7110 C   0  0  0  0  0  3  0  0  0  0  0  0
  189.8340  177.8270  144.1750 C   0  0  0  0  0  0  0  0  0  0  0  0
  190.3340  177.9370  145.3650 N   0  0  0  0  0  0  0  0  0  0  0  0
  186.2840  178.8120  140.9470 N   0  0  0  0  0  2  0  0  0  0  0  0
  186.7480  177.4520  146.2820 C   0  0  0  0  0  2  0  0  0  0  0  0
  185.9580  180.1230  142.9650 C   0  0  0  0  0  1  0  0  0  0  0  0
  188.3730  177.5670  141.7310 C   0  0  0  0  0  0  0  0  0  0  0  0
  184.1410  178.6660  142.0720 C   0  0  0  0  0  2  0  0  0  0  0  0
  183.7660  178.0450  140.7330 C   0  0  0  0  0  2  0  0  0  0  0  0
  183.1070  179.9210  139.1900 C   0  0  0  0  0  0  0  0  0  0  0  0
  182.0340  180.7280  138.5530 C   0  0  0  0  0  1  0  0  0  0  0  0
  184.3140  180.1760  138.9350 O   0  0  0  0  0  0  0  0  0  0  0  0
  182.7580  178.8650  140.0830 N   0  0  0  0  0  2  0  0  0  0  0  0
  1  4  1  0  0  0  0
  2 12  1  0  0  0  0
  2  1  1  0  0  0  0
  3 14  1  0  0  0  0
  4  8  1  0  0  0  0
  4 17  1  1  0  0  0
  5 18  1  1  0  0  0
  5 12  1  0  0  0  0
  7  3  2  0  0  0  0
  8  9  1  0  0  0  0
  9  6  1  0  0  0  0
 10 16  1  0  0  0  0
 10 19  1  0  0  0  0
 11 10  2  0  0  0  0
 13  6  2  0  0  0  0
 14  1  2  0  0  0  0
 14 15  1  0  0  0  0
 15  8  2  0  0  0  0
 16  5  1  0  0  0  0
 17 13  1  0  0  0  0
 19  7  1  0  0  0  0
 19  2  2  0  0  0  0
 20  5  1  0  0  0  0
 21 20  1  0  0  0  0
 22 25  1  0  0  0  0
 23 22  1  0  0  0  0
 24 22  2  0  0  0  0
 25 21  1  0  0  0  0
M  END
>  <MODEL>
7

>  <REMARK>
 VINA RESULT:      -8.2      2.837      5.868
  Name = 
  3 active torsions:
  status: ('A' for Active; 'I' for Inactive)
    1  A    between atoms: C_6  and  C_15
    2  A    between atoms: C_15  and  C_25
    3  A    between atoms: N_21  and  C_25
                            x       y       z     vdW  Elec       q    Type
                         _______ _______ _______ _____ _____    ______ ____

>  <TORSDO>
F 3

$$$$
=
 OpenBabel11052412463D

 25 28  0  0  1  0  0  0  0  0999 V2000
  187.7860  177.7760  144.3310 C   0  0  0  0  0  0  0  0  0  0  0  0
  186.6850  177.8640  143.5840 C   0  0  0  0  0  0  0  0  0  0  0  0
  189.3120  178.1280  142.3490 C   0  0  0  0  0  3  0  0  0  0  0  0
  188.0080  177.6950  145.7600 C   0  0  2  0  0  3  0  0  0  0  0  0
  184.6110  179.2170  143.7010 C   0  0  2  0  0  0  0  0  0  0  0  0
  189.0060  177.8230  148.3810 C   0  0  0  0  0  3  0  0  0  0  0  0
  188.2290  178.1830  141.5590 C   0  0  0  0  0  3  0  0  0  0  0  0
  189.3270  177.7110  145.9230 C   0  0  0  0  0  0  0  0  0  0  0  0
  189.9730  177.5030  147.2610 C   0  0  0  0  0  2  0  0  0  0  0  0
  185.7950  178.8350  141.4640 C   0  0  0  0  0  0  0  0  0  0  0  0
  185.8460  179.1050  140.2340 O   0  0  0  0  0  0  0  0  0  0  0  0
  185.3210  177.9460  144.1890 C   0  0  0  0  0  2  0  0  0  0  0  0
  187.6690  177.7940  148.2060 C   0  0  0  0  0  3  0  0  0  0  0  0
  189.1120  177.8660  143.7730 C   0  0  0  0  0  0  0  0  0  0  0  0
  190.0340  177.8380  144.6820 N   0  0  0  0  0  0  0  0  0  0  0  0
  184.6930  179.3220  142.2430 N   0  0  0  0  0  2  0  0  0  0  0  0
  187.0400  177.4390  146.8760 C   0  0  0  0  0  2  0  0  0  0  0  0
  185.2660  180.4490  144.3160 C   0  0  0  0  0  1  0  0  0  0  0  0
  186.8150  177.9100  142.0710 C   0  0  0  0  0  0  0  0  0  0  0  0
  183.1350  179.1720  144.0940 C   0  0  0  0  0  2  0  0  0  0  0  0
  182.2250  178.7450  142.9500 C   0  0  0  0  0  2  0  0  0  0  0  0
  180.3030  179.8260  141.7350 C   0  0  0  0  0  0  0  0  0  0  0  0
  179.0980  180.6950  141.7750 C   0  0  0  0  0  1  0  0  0  0  0  0
  180.6620  179.3080  140.6440 O   0  0  0  0  0  0  0  0  0  0  0  0
  181.0400  179.5870  142.9330 N   0  0  0  0  0  2  0  0  0  0  0  0
  1  4  1  0  0  0  0
  2 12  1  0  0  0  0
  2  1  1  0  0  0  0
  3 14  1  0  0  0  0
  4  8  1  0  0  0  0
  4 17  1  6  0  0  0
  5 20  1  0  0  0  0
  5 12  1  0  0  0  0
  5 18  1  1  0  0  0
  7 19  1  0  0  0  0
  7  3  2  0  0  0  0
  8  9  1  0  0  0  0
  9  6  1  0  0  0  0
 10 19  1  0  0  0  0
 10 16  1  0  0  0  0
 11 10  2  0  0  0  0
 13  6  2  0  0  0  0
 14  1  2  0  0  0  0
 14 15  1  0  0  0  0
 15  8  2  0  0  0  0
 16  5  1  0  0  0  0
 17 13  1  0  0  0  0
 19  2  2  0  0  0  0
 21 20  1  0  0  0  0
 22 23  1  0  0  0  0
 22 25  1  0  0  0  0
 24 22  2  0  0  0  0
 25 21  1  0  0  0  0
M  END
>  <MODEL>
8

>  <REMARK>
 VINA RESULT:      -8.1      3.030      6.830
  Name = 
  3 active torsions:
  status: ('A' for Active; 'I' for Inactive)
    1  A    between atoms: C_6  and  C_15
    2  A    between atoms: C_15  and  C_25
    3  A    between atoms: N_21  and  C_25
                            x       y       z     vdW  Elec       q    Type
                         _______ _______ _______ _____ _____    ______ ____

>  <TORSDO>
F 3

$$$$
=
 OpenBabel11052412463D

 25 28  0  0  1  0  0  0  0  0999 V2000
  186.7270  178.5600  142.8660 C   0  0  0  0  0  0  0  0  0  0  0  0
  187.9720  178.4170  142.4100 C   0  0  0  0  0  0  0  0  0  0  0  0
  185.7430  178.5890  140.5390 C   0  0  0  0  0  3  0  0  0  0  0  0
  186.1490  178.5250  144.1940 C   0  0  2  0  0  3  0  0  0  0  0  0
  189.8150  176.8230  142.8670 C   0  0  2  0  0  0  0  0  0  0  0  0
  184.4970  178.2570  146.4480 C   0  0  0  0  0  3  0  0  0  0  0  0
  186.9850  178.4850  140.0420 C   0  0  0  0  0  3  0  0  0  0  0  0
  184.8370  178.6490  144.0210 C   0  0  0  0  0  0  0  0  0  0  0  0
  183.8870  178.7980  145.1730 C   0  0  0  0  0  2  0  0  0  0  0  0
  189.2920  177.5630  140.4720 C   0  0  0  0  0  0  0  0  0  0  0  0
  189.5390  177.4230  139.2440 O   0  0  0  0  0  0  0  0  0  0  0  0
  189.1190  178.1140  143.3200 C   0  0  0  0  0  2  0  0  0  0  0  0
  185.8300  178.1450  146.6150 C   0  0  0  0  0  3  0  0  0  0  0  0
  185.5890  178.6830  141.9900 C   0  0  0  0  0  0  0  0  0  0  0  0
  184.4690  178.7300  142.6380 N   0  0  0  0  0  0  0  0  0  0  0  0
  190.1060  176.8730  141.4320 N   0  0  0  0  0  2  0  0  0  0  0  0
  186.8130  178.5530  145.5380 C   0  0  0  0  0  2  0  0  0  0  0  0
  188.9150  175.6220  143.1400 C   0  0  0  0  0  1  0  0  0  0  0  0
  188.2360  178.5370  140.9190 C   0  0  0  0  0  0  0  0  0  0  0  0
  191.1360  176.6540  143.6160 C   0  0  0  0  0  2  0  0  0  0  0  0
  191.2170  177.4970  144.8820 C   0  0  0  0  0  2  0  0  0  0  0  0
  191.5240  176.3070  147.0790 C   0  0  0  0  0  0  0  0  0  0  0  0
  192.4280  175.6280  148.0440 C   0  0  0  0  0  1  0  0  0  0  0  0
  190.2980  176.4180  147.3450 O   0  0  0  0  0  0  0  0  0  0  0  0
  192.0550  176.8260  145.8600 N   0  0  0  0  0  2  0  0  0  0  0  0
  1  4  1  0  0  0  0
  2  1  1  0  0  0  0
  2 12  1  0  0  0  0
  3 14  1  0  0  0  0
  4 17  1  1  0  0  0
  5 18  1  1  0  0  0
  5 12  1  0  0  0  0
  5 20  1  0  0  0  0
  6 13  2  0  0  0  0
  7  3  2  0  0  0  0
  7 19  1  0  0  0  0
  8  4  1  0  0  0  0
  8  9  1  0  0  0  0
  9  6  1  0  0  0  0
 10 19  1  0  0  0  0
 10 16  1  0  0  0  0
 11 10  2  0  0  0  0
 14 15  1  0  0  0  0
 14  1  2  0  0  0  0
 15  8  2  0  0  0  0
 16  5  1  0  0  0  0
 17 13  1  0  0  0  0
 19  2  2  0  0  0  0
 20 21  1  0  0  0  0
 21 25  1  0  0  0  0
 22 24  2  0  0  0  0
 22 23  1  0  0  0  0
 25 22  1  0  0  0  0
M  END
>  <MODEL>
9

>  <REMARK>
 VINA RESULT:      -8.1      1.765      5.226
  Name = 
  3 active torsions:
  status: ('A' for Active; 'I' for Inactive)
    1  A    between atoms: C_6  and  C_15
    2  A    between atoms: C_15  and  C_25
    3  A    between atoms: N_21  and  C_25
                            x       y       z     vdW  Elec       q    Type
                         _______ _______ _______ _____ _____    ______ ____

>  <TORSDO>
F 3

$$$$
