=
 OpenBabel11052415123D

 55 58  0  0  1  0  0  0  0  0999 V2000
  185.1430  174.8260  136.7290 C   0  0  0  0  0  2  0  0  0  0  0  0
  187.7880  177.2080  137.1600 C   0  0  2  0  0  3  0  0  0  0  0  0
  184.8210  178.7780  139.5240 O   0  0  0  0  0  1  0  0  0  0  0  0
  186.2060  178.9870  136.3190 C   0  0  0  0  0  1  0  0  0  0  0  0
  184.2160  177.8860  138.6370 C   0  0  2  0  0  0  0  0  0  0  0  0
  185.2900  177.1310  137.8300 C   0  0  2  0  0  3  0  0  0  0  0  0
  183.2360  176.4250  136.4040 C   0  0  1  0  0  3  0  0  0  0  0  0
  188.6070  176.4730  135.0250 O   0  0  0  0  0  1  0  0  0  0  0  0
  186.5080  178.0050  137.4450 C   0  0  1  0  0  3  0  0  0  0  0  0
  183.2900  178.6740  137.7080 C   0  0  0  0  0  2  0  0  0  0  0  0
  186.5670  174.6030  137.2480 C   0  0  0  0  0  2  0  0  0  0  0  0
  183.4080  176.8990  139.4600 C   0  0  0  0  0  1  0  0  0  0  0  0
  184.7520  176.3080  136.6270 C   0  0  2  0  0  3  0  0  0  0  0  0
  187.6090  176.2410  135.9690 C   0  0  1  0  0  3  0  0  0  0  0  0
  182.7020  177.8670  136.5330 C   0  0  2  0  0  3  0  0  0  0  0  0
  187.5770  174.8650  136.2960 O   0  0  0  0  0  0  0  0  0  0  0  0
  181.9460  174.5630  135.2540 C   0  0  0  0  0  1  0  0  0  0  0  0
  182.8190  175.7970  135.0690 C   0  0  0  0  0  2  0  0  0  0  0  0
  181.1700  177.8740  136.5430 C   0  0  1  0  0  3  0  0  0  0  0  0
  179.8280  176.6050  138.7270 O   0  0  0  0  0  0  0  0  0  0  0  0
  180.6390  178.5550  137.7180 N   0  0  0  0  0  2  0  0  0  0  0  0
  179.9520  177.8600  138.7620 C   0  0  0  0  0  0  0  0  0  0  0  0
  179.3850  178.6290  139.9060 C   0  0  0  0  0  2  0  0  0  0  0  0
  180.3480  179.6140  140.3730 N   0  0  0  0  0  0  0  0  0  0  0  0
  179.5920  180.8200  140.6700 C   0  0  0  0  0  1  0  0  0  0  0  0
  180.8710  179.1230  141.6420 C   0  0  0  0  0  2  0  0  0  0  0  0
  180.2110  178.7050  144.0080 C   0  0  0  0  0  1  0  0  0  0  0  0
  179.7270  178.7580  142.5730 C   0  0  0  0  0  2  0  0  0  0  0  0
  180.6030  178.4910  135.2730 C   0  0  0  0  0  2  0  0  0  0  0  0
  180.9870  180.9960  134.8520 C   0  0  0  0  0  3  0  0  0  0  0  0
  179.9810  182.5680  136.3580 N   0  0  0  0  0  0  0  0  0  0  0  0
  179.3250  180.2020  136.4570 C   0  0  0  0  0  3  0  0  0  0  0  0
  178.9310  181.6240  136.7590 C   0  0  0  0  0  2  0  0  0  0  0  0
  180.8620  182.2570  135.2690 C   0  0  0  0  0  3  0  0  0  0  0  0
  180.2370  179.9160  135.5240 C   0  0  0  0  0  0  0  0  0  0  0  0
  180.0200  183.9140  136.9200 C   0  0  2  0  0  3  0  0  0  0  0  0
  179.6010  184.8880  135.9270 N   0  0  0  0  0  1  0  0  0  0  0  0
  181.4130  184.2490  137.4210 C   0  0  0  0  0  1  0  0  0  0  0  0
  188.2190  176.5560  138.3210 O   0  0  0  0  0  0  0  0  0  0  0  0
  188.9310  177.5130  139.0510 C   0  0  0  0  0  2  0  0  0  0  0  0
  189.1610  177.0380  140.3530 O   0  0  0  0  0  0  0  0  0  0  0  0
  188.3670  177.7460  141.2960 C   0  0  2  0  0  3  0  0  0  0  0  0
  188.1690  179.0980  141.0150 F   0  0  0  0  0  0  0  0  0  0  0  0
  188.8880  177.5700  142.7250 C   0  0  1  0  0  3  0  0  0  0  0  0
  187.7920  177.5580  143.7400 C   0  0  2  0  0  3  0  0  0  0  0  0
  186.7080  177.5450  144.7470 C   0  0  1  0  0  3  0  0  0  0  0  0
  186.4220  177.5270  143.4210 C   0  0  0  0  0  2  0  0  0  0  0  0
  186.2640  177.5470  146.1650 C   0  0  0  0  0  2  0  0  0  0  0  0
  185.9740  178.9680  146.6020 C   0  0  0  0  0  1  0  0  0  0  0  0
  189.8210  176.3730  142.8650 C   0  0  0  0  0  2  0  0  0  0  0  0
  191.6810  177.6460  142.0480 O   0  0  0  0  0  1  0  0  0  0  0  0
  191.2410  176.8530  143.1130 C   0  0  1  0  0  3  0  0  0  0  0  0
  191.6320  177.0300  145.4700 O   0  0  0  0  0  1  0  0  0  0  0  0
  191.3210  177.6110  144.3960 C   0  0  0  0  0  0  0  0  0  0  0  0
  191.0740  178.9770  144.4010 O   0  0  0  0  0  0  0  0  0  0  0  0
  1 11  1  0  0  0  0
  2  9  1  0  0  0  0
  2 39  1  1  0  0  0
  4  9  1  0  0  0  0
  5 12  1  1  0  0  0
  5  3  1  0  0  0  0
  6  5  1  0  0  0  0
  7 15  1  0  0  0  0
  7 13  1  0  0  0  0
  8 14  1  0  0  0  0
  9  6  1  0  0  0  0
 10  5  1  0  0  0  0
 13  1  1  0  0  0  0
 13  6  1  0  0  0  0
 14 16  1  0  0  0  0
 14  2  1  0  0  0  0
 15 19  1  0  0  0  0
 15 10  1  0  0  0  0
 16 11  1  0  0  0  0
 18 17  1  0  0  0  0
 18  7  1  0  0  0  0
 19 21  1  0  0  0  0
 20 22  2  0  0  0  0
 21 22  1  0  0  0  0
 22 23  1  0  0  0  0
 23 24  1  0  0  0  0
 24 25  1  0  0  0  0
 24 26  1  0  0  0  0
 26 28  1  0  0  0  0
 28 27  1  0  0  0  0
 29 35  1  0  0  0  0
 29 19  1  0  0  0  0
 30 34  2  0  0  0  0
 30 35  1  0  0  0  0
 31 33  1  0  0  0  0
 31 36  1  0  0  0  0
 32 33  1  0  0  0  0
 34 31  1  0  0  0  0
 35 32  2  0  0  0  0
 36 38  1  0  0  0  0
 37 36  1  0  0  0  0
 39 40  1  0  0  0  0
 40 41  1  0  0  0  0
 41 42  1  0  0  0  0
 42 44  1  0  0  0  0
 43 42  1  0  0  0  0
 44 50  1  0  0  0  0
 44 45  1  0  0  0  0
 45 46  1  0  0  0  0
 46 48  1  0  0  0  0
 47 45  1  0  0  0  0
 47 46  1  0  0  0  0
 48 49  1  0  0  0  0
 50 52  1  0  0  0  0
 51 52  1  0  0  0  0
 52 54  1  0  0  0  0
 54 55  2  0  0  0  0
 54 53  1  0  0  0  0
M  END
>  <MODEL>
1

>  <REMARK>
 VINA RESULT:      -6.3      0.000      0.000
  Name = 
  20 active torsions:
  status: ('A' for Active; 'I' for Inactive)
    1  A    between atoms: C_1  and  O_30
    2  A    between atoms: C_1  and  C_53
    3  A    between atoms: C_6  and  C_53
    4  A    between atoms: C_7  and  O_8
    5  A    between atoms: O_8  and  C_20
    6  A    between atoms: C_10  and  N_32
    7  A    between atoms: C_11  and  C_29
    8  A    between atoms: C_11  and  C_38
    9  A    between atoms: C_12  and  C_14
   10  A    between atoms: C_19  and  C_40
   11  A    between atoms: C_20  and  O_30
   12  A    between atoms: N_27  and  C_31
   13  A    between atoms: N_27  and  C_55
   14  A    between atoms: N_28  and  C_49
   15  A    between atoms: C_31  and  C_44
   16  A    between atoms: C_33  and  C_49
   17  A    between atoms: C_33  and  C_52
   18  A    between atoms: C_38  and  C_53
   19  A    between atoms: C_41  and  C_55
   20  A    between atoms: C_45  and  C_49
                            x       y       z     vdW  Elec       q    Type
                         _______ _______ _______ _____ _____    ______ ____

>  <TORSDO>
F 20

$$$$
=
 OpenBabel11052415123D

 55 58  0  0  1  0  0  0  0  0999 V2000
  180.9670  177.5520  140.9860 C   0  0  0  0  0  2  0  0  0  0  0  0
  180.2840  179.7540  138.2400 C   0  0  2  0  0  3  0  0  0  0  0  0
  183.8380  178.0380  137.1050 O   0  0  0  0  0  1  0  0  0  0  0  0
  182.5090  180.8610  138.6870 C   0  0  0  0  0  1  0  0  0  0  0  0
  183.7080  177.8500  138.4830 C   0  0  2  0  0  0  0  0  0  0  0  0
  182.3160  178.3190  138.9520 C   0  0  2  0  0  3  0  0  0  0  0  0
  183.4020  178.0740  141.2990 C   0  0  1  0  0  3  0  0  0  0  0  0
  178.9700  181.0410  139.7830 O   0  0  0  0  0  1  0  0  0  0  0  0
  181.8100  179.5880  138.2250 C   0  0  1  0  0  3  0  0  0  0  0  0
  184.8150  178.6340  139.1900 C   0  0  0  0  0  2  0  0  0  0  0  0
  179.7470  177.5890  140.0600 C   0  0  0  0  0  2  0  0  0  0  0  0
  183.8650  176.3650  138.7590 C   0  0  0  0  0  1  0  0  0  0  0  0
  182.1390  178.4130  140.4920 C   0  0  2  0  0  3  0  0  0  0  0  0
  179.7350  179.8820  139.6780 C   0  0  1  0  0  3  0  0  0  0  0  0
  184.6900  178.7010  140.7250 C   0  0  2  0  0  3  0  0  0  0  0  0
  178.9890  178.7770  140.1500 O   0  0  0  0  0  0  0  0  0  0  0  0
  182.0950  179.4180  143.0150 C   0  0  0  0  0  1  0  0  0  0  0  0
  183.2270  178.4260  142.7820 C   0  0  0  0  0  2  0  0  0  0  0  0
  185.9250  178.1270  141.4260 C   0  0  1  0  0  3  0  0  0  0  0  0
  188.3690  179.5510  141.0060 O   0  0  0  0  0  0  0  0  0  0  0  0
  186.9660  177.7560  140.4740 N   0  0  0  0  0  2  0  0  0  0  0  0
  188.1530  178.5330  140.2950 C   0  0  0  0  0  0  0  0  0  0  0  0
  189.1470  178.1250  139.2610 C   0  0  0  0  0  2  0  0  0  0  0  0
  188.4810  177.4200  138.1770 N   0  0  0  0  0  0  0  0  0  0  0  0
  188.3760  178.3650  137.0760 C   0  0  0  0  0  1  0  0  0  0  0  0
  189.3880  176.3660  137.7410 C   0  0  0  0  0  2  0  0  0  0  0  0
  191.8080  175.7710  137.7250 C   0  0  0  0  0  1  0  0  0  0  0  0
  190.7000  176.4570  138.5010 C   0  0  0  0  0  2  0  0  0  0  0  0
  186.4790  179.0900  142.4660 C   0  0  0  0  0  2  0  0  0  0  0  0
  185.9970  178.4560  144.9080 C   0  0  0  0  0  3  0  0  0  0  0  0
  187.7490  177.4290  146.1830 N   0  0  0  0  0  0  0  0  0  0  0  0
  188.0050  177.6830  143.7510 C   0  0  0  0  0  3  0  0  0  0  0  0
  188.4260  176.9230  144.9810 C   0  0  0  0  0  2  0  0  0  0  0  0
  186.4480  178.0240  146.0880 C   0  0  0  0  0  3  0  0  0  0  0  0
  186.8440  178.3410  143.7040 C   0  0  0  0  0  0  0  0  0  0  0  0
  188.2930  177.1550  147.5090 C   0  0  2  0  0  3  0  0  0  0  0  0
  187.8730  178.1810  148.4480 N   0  0  0  0  0  1  0  0  0  0  0  0
  189.8080  177.0810  147.4640 C   0  0  0  0  0  1  0  0  0  0  0  0
  179.6790  178.7130  137.5250 O   0  0  0  0  0  0  0  0  0  0  0  0
  180.2200  178.7750  136.2360 C   0  0  0  0  0  2  0  0  0  0  0  0
  179.8670  177.6170  135.5220 O   0  0  0  0  0  0  0  0  0  0  0  0
  179.9150  176.4720  136.3620 C   0  0  2  0  0  3  0  0  0  0  0  0
  180.8300  176.5400  137.4140 F   0  0  0  0  0  0  0  0  0  0  0  0
  180.1210  175.1840  135.5590 C   0  0  1  0  0  3  0  0  0  0  0  0
  181.5590  174.7990  135.4470 C   0  0  0  0  0  0  0  0  0  0  0  0
  182.9840  174.4150  135.3370 C   0  0  0  0  0  0  0  0  0  0  0  0
  182.5670  175.6470  134.9520 C   0  0  0  0  0  2  0  0  0  0  0  0
  184.0690  173.4150  135.5190 C   0  0  0  0  0  2  0  0  0  0  0  0
  184.3080  173.1920  136.9980 C   0  0  0  0  0  1  0  0  0  0  0  0
  179.2500  174.0380  136.0590 C   0  0  0  0  0  2  0  0  0  0  0  0
  179.9010  172.9060  138.0700 O   0  0  0  0  0  1  0  0  0  0  0  0
  180.1230  172.9660  136.6910 C   0  0  1  0  0  3  0  0  0  0  0  0
  180.4690  171.2880  135.0160 O   0  0  0  0  0  0  0  0  0  0  0  0
  179.8600  171.6380  136.0620 C   0  0  0  0  0  0  0  0  0  0  0  0
  178.9500  170.7700  136.6500 O   0  0  0  0  0  1  0  0  0  0  0  0
  2 39  1  1  0  0  0
  2 14  1  0  0  0  0
  3  5  1  0  0  0  0
  5 12  1  1  0  0  0
  5  6  1  0  0  0  0
  5 10  1  0  0  0  0
  6 13  1  0  0  0  0
  7 18  1  0  0  0  0
  9  2  1  0  0  0  0
  9  4  1  0  0  0  0
  9  6  1  0  0  0  0
 10 15  1  0  0  0  0
 11 16  1  0  0  0  0
 11  1  1  0  0  0  0
 13  1  1  0  0  0  0
 13  7  1  0  0  0  0
 14  8  1  0  0  0  0
 14 16  1  0  0  0  0
 15  7  1  0  0  0  0
 15 19  1  0  0  0  0
 18 17  1  0  0  0  0
 19 29  1  0  0  0  0
 21 19  1  0  0  0  0
 22 21  1  0  0  0  0
 22 20  2  0  0  0  0
 23 22  1  0  0  0  0
 24 23  1  0  0  0  0
 25 24  1  0  0  0  0
 26 24  1  0  0  0  0
 26 28  1  0  0  0  0
 27 28  1  0  0  0  0
 29 35  1  0  0  0  0
 30 34  2  0  0  0  0
 31 36  1  0  0  0  0
 32 33  1  0  0  0  0
 33 31  1  0  0  0  0
 34 31  1  0  0  0  0
 35 32  2  0  0  0  0
 35 30  1  0  0  0  0
 36 37  1  0  0  0  0
 38 36  1  0  0  0  0
 40 39  1  0  0  0  0
 41 40  1  0  0  0  0
 41 42  1  0  0  0  0
 42 43  1  0  0  0  0
 44 50  1  0  0  0  0
 44 42  1  0  0  0  0
 45 44  1  0  0  0  0
 46 45  2  0  0  0  0
 46 48  1  0  0  0  0
 47 46  1  0  0  0  0
 47 45  1  0  0  0  0
 48 49  1  0  0  0  0
 50 52  1  0  0  0  0
 52 51  1  0  0  0  0
 53 54  2  0  0  0  0
 54 55  1  0  0  0  0
 54 52  1  0  0  0  0
M  END
>  <MODEL>
2

>  <REMARK>
 VINA RESULT:      -4.6      3.608     10.367
  Name = 
  20 active torsions:
  status: ('A' for Active; 'I' for Inactive)
    1  A    between atoms: C_1  and  O_30
    2  A    between atoms: C_1  and  C_53
    3  A    between atoms: C_6  and  C_53
    4  A    between atoms: C_7  and  O_8
    5  A    between atoms: O_8  and  C_20
    6  A    between atoms: C_10  and  N_32
    7  A    between atoms: C_11  and  C_29
    8  A    between atoms: C_11  and  C_38
    9  A    between atoms: C_12  and  C_14
   10  A    between atoms: C_19  and  C_40
   11  A    between atoms: C_20  and  O_30
   12  A    between atoms: N_27  and  C_31
   13  A    between atoms: N_27  and  C_55
   14  A    between atoms: N_28  and  C_49
   15  A    between atoms: C_31  and  C_44
   16  A    between atoms: C_33  and  C_49
   17  A    between atoms: C_33  and  C_52
   18  A    between atoms: C_38  and  C_53
   19  A    between atoms: C_41  and  C_55
   20  A    between atoms: C_45  and  C_49
                            x       y       z     vdW  Elec       q    Type
                         _______ _______ _______ _____ _____    ______ ____

>  <TORSDO>
F 20

$$$$
=
 OpenBabel11052415123D

 55 58  0  0  1  0  0  0  0  0999 V2000
  185.3540  173.9690  136.7070 C   0  0  0  0  0  2  0  0  0  0  0  0
  188.2050  176.1400  136.7990 C   0  0  2  0  0  3  0  0  0  0  0  0
  185.2450  178.5380  138.3320 O   0  0  0  0  0  1  0  0  0  0  0  0
  186.9110  177.7580  135.3560 C   0  0  0  0  0  1  0  0  0  0  0  0
  184.6200  177.4970  137.6430 C   0  0  2  0  0  0  0  0  0  0  0  0
  185.6670  176.4620  137.1840 C   0  0  2  0  0  3  0  0  0  0  0  0
  183.6740  175.5810  135.7690 C   0  0  1  0  0  3  0  0  0  0  0  0
  189.1120  174.7910  135.0320 O   0  0  0  0  0  1  0  0  0  0  0  0
  187.0030  177.0930  136.7240 C   0  0  1  0  0  3  0  0  0  0  0  0
  183.8710  178.0830  136.4450 C   0  0  0  0  0  2  0  0  0  0  0  0
  186.6940  173.7700  137.4210 C   0  0  0  0  0  2  0  0  0  0  0  0
  183.6390  176.8400  138.5990 C   0  0  0  0  0  1  0  0  0  0  0  0
  185.1430  175.3970  136.1830 C   0  0  2  0  0  3  0  0  0  0  0  0
  188.0180  174.9080  135.8860 C   0  0  1  0  0  3  0  0  0  0  0  0
  183.2970  177.0450  135.4610 C   0  0  2  0  0  3  0  0  0  0  0  0
  187.8040  173.6790  136.5520 O   0  0  0  0  0  0  0  0  0  0  0  0
  182.8500  173.2800  135.0760 C   0  0  0  0  0  1  0  0  0  0  0  0
  183.3030  174.6550  134.6050 C   0  0  0  0  0  2  0  0  0  0  0  0
  181.7800  177.1870  135.2980 C   0  0  1  0  0  3  0  0  0  0  0  0
  179.0630  176.3050  135.4300 O   0  0  0  0  0  0  0  0  0  0  0  0
  181.0680  176.8240  136.5180 N   0  0  0  0  0  2  0  0  0  0  0  0
  179.6980  176.4180  136.5140 C   0  0  0  0  0  0  0  0  0  0  0  0
  179.0180  176.1170  137.8060 C   0  0  0  0  0  2  0  0  0  0  0  0
  179.9660  175.5480  138.7500 N   0  0  0  0  0  0  0  0  0  0  0  0
  180.1700  176.5520  139.7830 C   0  0  0  0  0  1  0  0  0  0  0  0
  179.3010  174.4190  139.3870 C   0  0  0  0  0  2  0  0  0  0  0  0
  180.9200  173.3700  137.8090 C   0  0  0  0  0  1  0  0  0  0  0  0
  179.7700  173.1150  138.7620 C   0  0  0  0  0  2  0  0  0  0  0  0
  181.3920  178.5900  134.8570 C   0  0  0  0  0  2  0  0  0  0  0  0
  179.4120  179.9650  135.7470 C   0  0  0  0  0  3  0  0  0  0  0  0
  179.6650  181.0900  137.8500 N   0  0  0  0  0  0  0  0  0  0  0  0
  181.3470  179.4430  137.1440 C   0  0  0  0  0  3  0  0  0  0  0  0
  180.7110  180.1640  138.3030 C   0  0  0  0  0  2  0  0  0  0  0  0
  178.9300  180.8260  136.6460 C   0  0  0  0  0  3  0  0  0  0  0  0
  180.7110  179.3010  135.9790 C   0  0  0  0  0  0  0  0  0  0  0  0
  179.2170  182.1800  138.7110 C   0  0  2  0  0  3  0  0  0  0  0  0
  180.1360  183.3020  138.6230 N   0  0  0  0  0  1  0  0  0  0  0  0
  179.1020  181.7150  140.1510 C   0  0  0  0  0  1  0  0  0  0  0  0
  188.4590  175.7890  138.1300 O   0  0  0  0  0  0  0  0  0  0  0  0
  189.2660  176.8100  138.6430 C   0  0  0  0  0  2  0  0  0  0  0  0
  189.2480  176.7640  140.0480 O   0  0  0  0  0  0  0  0  0  0  0  0
  188.6450  177.9340  140.5830 C   0  0  2  0  0  3  0  0  0  0  0  0
  189.1900  179.1410  140.1450 F   0  0  0  0  0  0  0  0  0  0  0  0
  188.5900  177.8990  142.1130 C   0  0  1  0  0  3  0  0  0  0  0  0
  187.2490  178.2730  142.6510 C   0  0  0  0  0  0  0  0  0  0  0  0
  185.9190  178.6450  143.1840 C   0  0  0  0  0  0  0  0  0  0  0  0
  186.5260  177.4980  143.5780 C   0  0  0  0  0  2  0  0  0  0  0  0
  184.7700  179.5860  143.2430 C   0  0  0  0  0  2  0  0  0  0  0  0
  183.6770  178.9950  144.1090 C   0  0  0  0  0  1  0  0  0  0  0  0
  189.0980  176.5810  142.6860 C   0  0  0  0  0  2  0  0  0  0  0  0
  191.4410  177.0310  142.4480 O   0  0  0  0  0  1  0  0  0  0  0  0
  190.4290  176.8020  143.3860 C   0  0  1  0  0  3  0  0  0  0  0  0
  190.3140  177.7440  145.5860 O   0  0  0  0  0  1  0  0  0  0  0  0
  190.3350  177.9440  144.3420 C   0  0  0  0  0  0  0  0  0  0  0  0
  190.2930  179.2430  143.8550 O   0  0  0  0  0  0  0  0  0  0  0  0
  1 11  1  0  0  0  0
  2 39  1  1  0  0  0
  4  9  1  0  0  0  0
  5  3  1  0  0  0  0
  5 12  1  1  0  0  0
  6  5  1  0  0  0  0
  7 13  1  0  0  0  0
  8 14  1  0  0  0  0
  9  2  1  0  0  0  0
  9  6  1  0  0  0  0
 10  5  1  0  0  0  0
 13  1  1  0  0  0  0
 13  6  1  0  0  0  0
 14 16  1  0  0  0  0
 14  2  1  0  0  0  0
 15  7  1  0  0  0  0
 15 10  1  0  0  0  0
 16 11  1  0  0  0  0
 18 17  1  0  0  0  0
 18  7  1  0  0  0  0
 19 15  1  0  0  0  0
 19 21  1  0  0  0  0
 20 22  2  0  0  0  0
 22 21  1  0  0  0  0
 22 23  1  0  0  0  0
 23 24  1  0  0  0  0
 24 26  1  0  0  0  0
 24 25  1  0  0  0  0
 27 28  1  0  0  0  0
 28 26  1  0  0  0  0
 29 19  1  0  0  0  0
 29 35  1  0  0  0  0
 30 35  1  0  0  0  0
 30 34  2  0  0  0  0
 31 33  1  0  0  0  0
 31 36  1  0  0  0  0
 32 33  1  0  0  0  0
 34 31  1  0  0  0  0
 35 32  2  0  0  0  0
 36 38  1  0  0  0  0
 37 36  1  0  0  0  0
 39 40  1  0  0  0  0
 40 41  1  0  0  0  0
 41 42  1  0  0  0  0
 42 44  1  0  0  0  0
 43 42  1  0  0  0  0
 44 45  1  0  0  0  0
 44 50  1  0  0  0  0
 45 46  2  0  0  0  0
 45 47  1  0  0  0  0
 46 48  1  0  0  0  0
 46 47  1  0  0  0  0
 48 49  1  0  0  0  0
 50 52  1  0  0  0  0
 51 52  1  0  0  0  0
 52 54  1  0  0  0  0
 54 53  1  0  0  0  0
 55 54  2  0  0  0  0
M  END
>  <MODEL>
3

>  <REMARK>
 VINA RESULT:      -3.8      1.797      2.556
  Name = 
  20 active torsions:
  status: ('A' for Active; 'I' for Inactive)
    1  A    between atoms: C_1  and  O_30
    2  A    between atoms: C_1  and  C_53
    3  A    between atoms: C_6  and  C_53
    4  A    between atoms: C_7  and  O_8
    5  A    between atoms: O_8  and  C_20
    6  A    between atoms: C_10  and  N_32
    7  A    between atoms: C_11  and  C_29
    8  A    between atoms: C_11  and  C_38
    9  A    between atoms: C_12  and  C_14
   10  A    between atoms: C_19  and  C_40
   11  A    between atoms: C_20  and  O_30
   12  A    between atoms: N_27  and  C_31
   13  A    between atoms: N_27  and  C_55
   14  A    between atoms: N_28  and  C_49
   15  A    between atoms: C_31  and  C_44
   16  A    between atoms: C_33  and  C_49
   17  A    between atoms: C_33  and  C_52
   18  A    between atoms: C_38  and  C_53
   19  A    between atoms: C_41  and  C_55
   20  A    between atoms: C_45  and  C_49
                            x       y       z     vdW  Elec       q    Type
                         _______ _______ _______ _____ _____    ______ ____

>  <TORSDO>
F 20

$$$$
=
 OpenBabel11052415123D

 55 58  0  0  1  0  0  0  0  0999 V2000
  186.4040  176.6890  134.9290 C   0  0  0  0  0  2  0  0  0  0  0  0
  183.5030  176.4590  137.0220 C   0  0  2  0  0  3  0  0  0  0  0  0
  185.8930  179.0360  139.1430 O   0  0  0  0  0  1  0  0  0  0  0  0
  185.0140  175.6600  138.8810 C   0  0  0  0  0  1  0  0  0  0  0  0
  186.7150  178.3530  138.2450 C   0  0  2  0  0  0  0  0  0  0  0  0
  185.8600  177.4900  137.2970 C   0  0  2  0  0  3  0  0  0  0  0  0
  188.1710  176.4670  136.6960 C   0  0  1  0  0  3  0  0  0  0  0  0
  183.1050  174.3250  135.9950 O   0  0  0  0  0  1  0  0  0  0  0  0
  184.6380  176.8350  137.9850 C   0  0  1  0  0  3  0  0  0  0  0  0
  187.6930  177.4850  139.0400 C   0  0  0  0  0  2  0  0  0  0  0  0
  184.9450  177.0180  134.5950 C   0  0  0  0  0  2  0  0  0  0  0  0
  187.4770  179.3920  137.4410 C   0  0  0  0  0  1  0  0  0  0  0  0
  186.6580  176.4790  136.4280 C   0  0  2  0  0  3  0  0  0  0  0  0
  183.9610  175.4240  135.9710 C   0  0  1  0  0  3  0  0  0  0  0  0
  188.5340  176.5070  138.1950 C   0  0  2  0  0  3  0  0  0  0  0  0
  184.0760  175.9060  134.6460 O   0  0  0  0  0  0  0  0  0  0  0  0
  189.5780  175.7060  134.7220 C   0  0  0  0  0  1  0  0  0  0  0  0
  188.8520  175.2860  135.9930 C   0  0  0  0  0  2  0  0  0  0  0  0
  190.0380  176.7400  138.3780 C   0  0  1  0  0  3  0  0  0  0  0  0
  190.2870  176.0120  141.1330 O   0  0  0  0  0  0  0  0  0  0  0  0
  190.3140  177.6620  139.4740 N   0  0  0  0  0  2  0  0  0  0  0  0
  190.3970  177.2320  140.8350 C   0  0  0  0  0  0  0  0  0  0  0  0
  190.6260  178.2400  141.9090 C   0  0  0  0  0  2  0  0  0  0  0  0
  190.6930  177.5850  143.2050 N   0  0  0  0  0  0  0  0  0  0  0  0
  191.8960  178.0800  143.8550 C   0  0  0  0  0  1  0  0  0  0  0  0
  189.5620  178.0740  143.9840 C   0  0  0  0  0  2  0  0  0  0  0  0
  187.2720  177.1090  143.8070 C   0  0  0  0  0  1  0  0  0  0  0  0
  188.6610  176.9180  144.3820 C   0  0  0  0  0  2  0  0  0  0  0  0
  190.7870  175.4310  138.5870 C   0  0  0  0  0  2  0  0  0  0  0  0
  192.2880  174.0930  136.9880 C   0  0  0  0  0  3  0  0  0  0  0  0
  194.4070  175.0290  136.3700 N   0  0  0  0  0  0  0  0  0  0  0  0
  192.7640  176.4220  137.5530 C   0  0  0  0  0  3  0  0  0  0  0  0
  193.9630  176.4020  136.6420 C   0  0  0  0  0  2  0  0  0  0  0  0
  193.4680  173.9450  136.3840 C   0  0  0  0  0  3  0  0  0  0  0  0
  191.9540  175.3650  137.6600 C   0  0  0  0  0  0  0  0  0  0  0  0
  195.7590  174.7710  135.8840 C   0  0  2  0  0  3  0  0  0  0  0  0
  196.4830  173.9380  136.8280 N   0  0  0  0  0  1  0  0  0  0  0  0
  196.5080  176.0730  135.6600 C   0  0  0  0  0  1  0  0  0  0  0  0
  182.9620  177.6110  136.4410 O   0  0  0  0  0  0  0  0  0  0  0  0
  182.4670  178.3750  137.5040 C   0  0  0  0  0  2  0  0  0  0  0  0
  181.1860  177.9160  137.8570 O   0  0  0  0  0  0  0  0  0  0  0  0
  180.6320  178.7160  138.8930 C   0  0  2  0  0  3  0  0  0  0  0  0
  181.1900  179.9870  139.0310 F   0  0  0  0  0  0  0  0  0  0  0  0
  180.6320  177.9840  140.2380 C   0  0  1  0  0  3  0  0  0  0  0  0
  180.1660  176.5700  140.1260 C   0  0  2  0  0  3  0  0  0  0  0  0
  179.7040  175.1690  140.0120 C   0  0  1  0  0  3  0  0  0  0  0  0
  179.6260  175.8300  141.1940 C   0  0  0  0  0  2  0  0  0  0  0  0
  179.4850  173.9440  139.1990 C   0  0  0  0  0  2  0  0  0  0  0  0
  179.9690  174.1840  137.7830 C   0  0  0  0  0  1  0  0  0  0  0  0
  181.9660  178.0990  140.9670 C   0  0  0  0  0  2  0  0  0  0  0  0
  180.6440  178.7340  142.8630 O   0  0  0  0  0  1  0  0  0  0  0  0
  181.8210  179.0230  142.1640 C   0  0  1  0  0  3  0  0  0  0  0  0
  183.8440  177.9770  142.9080 O   0  0  0  0  0  0  0  0  0  0  0  0
  183.0050  178.9040  143.0650 C   0  0  0  0  0  0  0  0  0  0  0  0
  183.1970  179.8400  144.0720 O   0  0  0  0  0  1  0  0  0  0  0  0
  1 13  1  0  0  0  0
  2 39  1  6  0  0  0
  2  9  1  0  0  0  0
  5 12  1  6  0  0  0
  5 10  1  0  0  0  0
  5  3  1  0  0  0  0
  6  9  1  0  0  0  0
  6  5  1  0  0  0  0
  7 15  1  0  0  0  0
  9  4  1  0  0  0  0
 11 16  1  0  0  0  0
 11  1  1  0  0  0  0
 13  7  1  0  0  0  0
 13  6  1  0  0  0  0
 14  8  1  0  0  0  0
 14  2  1  0  0  0  0
 15 19  1  0  0  0  0
 15 10  1  0  0  0  0
 16 14  1  0  0  0  0
 17 18  1  0  0  0  0
 18  7  1  0  0  0  0
 19 29  1  0  0  0  0
 19 21  1  0  0  0  0
 21 22  1  0  0  0  0
 22 20  2  0  0  0  0
 22 23  1  0  0  0  0
 23 24  1  0  0  0  0
 24 25  1  0  0  0  0
 24 26  1  0  0  0  0
 26 28  1  0  0  0  0
 27 28  1  0  0  0  0
 30 35  1  0  0  0  0
 31 34  1  0  0  0  0
 31 33  1  0  0  0  0
 32 35  2  0  0  0  0
 33 32  1  0  0  0  0
 34 30  2  0  0  0  0
 35 29  1  0  0  0  0
 36 31  1  0  0  0  0
 36 37  1  0  0  0  0
 38 36  1  0  0  0  0
 39 40  1  0  0  0  0
 40 41  1  0  0  0  0
 41 42  1  0  0  0  0
 42 43  1  0  0  0  0
 42 44  1  0  0  0  0
 44 50  1  0  0  0  0
 45 44  1  0  0  0  0
 45 47  1  0  0  0  0
 46 45  1  0  0  0  0
 46 47  1  0  0  0  0
 48 46  1  0  0  0  0
 49 48  1  0  0  0  0
 50 52  1  0  0  0  0
 52 51  1  0  0  0  0
 52 54  1  0  0  0  0
 53 54  2  0  0  0  0
 54 55  1  0  0  0  0
M  END
>  <MODEL>
4

>  <REMARK>
 VINA RESULT:      -3.5      4.772      9.658
  Name = 
  20 active torsions:
  status: ('A' for Active; 'I' for Inactive)
    1  A    between atoms: C_1  and  O_30
    2  A    between atoms: C_1  and  C_53
    3  A    between atoms: C_6  and  C_53
    4  A    between atoms: C_7  and  O_8
    5  A    between atoms: O_8  and  C_20
    6  A    between atoms: C_10  and  N_32
    7  A    between atoms: C_11  and  C_29
    8  A    between atoms: C_11  and  C_38
    9  A    between atoms: C_12  and  C_14
   10  A    between atoms: C_19  and  C_40
   11  A    between atoms: C_20  and  O_30
   12  A    between atoms: N_27  and  C_31
   13  A    between atoms: N_27  and  C_55
   14  A    between atoms: N_28  and  C_49
   15  A    between atoms: C_31  and  C_44
   16  A    between atoms: C_33  and  C_49
   17  A    between atoms: C_33  and  C_52
   18  A    between atoms: C_38  and  C_53
   19  A    between atoms: C_41  and  C_55
   20  A    between atoms: C_45  and  C_49
                            x       y       z     vdW  Elec       q    Type
                         _______ _______ _______ _____ _____    ______ ____

>  <TORSDO>
F 20

$$$$
=
 OpenBabel11052415123D

 55 58  0  0  1  0  0  0  0  0999 V2000
  181.7110  177.2180  140.9060 C   0  0  0  0  0  2  0  0  0  0  0  0
  180.7880  179.4590  138.2630 C   0  0  2  0  0  3  0  0  0  0  0  0
  184.6350  178.4570  137.2380 O   0  0  0  0  0  1  0  0  0  0  0  0
  182.7620  180.8950  138.9080 C   0  0  0  0  0  1  0  0  0  0  0  0
  184.4740  178.1530  138.5910 C   0  0  2  0  0  0  0  0  0  0  0  0
  183.0020  178.3440  139.0050 C   0  0  2  0  0  3  0  0  0  0  0  0
  184.0000  178.1240  141.3940 C   0  0  1  0  0  3  0  0  0  0  0  0
  179.1980  180.3920  139.8020 O   0  0  0  0  0  1  0  0  0  0  0  0
  182.3180  179.5570  138.3280 C   0  0  1  0  0  3  0  0  0  0  0  0
  185.3930  179.0620  139.4090 C   0  0  0  0  0  2  0  0  0  0  0  0
  180.5490  177.1120  139.9130 C   0  0  0  0  0  2  0  0  0  0  0  0
  184.8740  176.7010  138.7850 C   0  0  0  0  0  1  0  0  0  0  0  0
  182.7380  178.2990  140.5350 C   0  0  2  0  0  3  0  0  0  0  0  0
  180.1570  179.3900  139.6720 C   0  0  1  0  0  3  0  0  0  0  0  0
  185.1850  178.9990  140.9360 C   0  0  2  0  0  3  0  0  0  0  0  0
  179.5930  178.1440  140.0310 O   0  0  0  0  0  0  0  0  0  0  0  0
  182.3980  179.0980  143.1080 C   0  0  0  0  0  1  0  0  0  0  0  0
  183.6960  178.3360  142.8820 C   0  0  0  0  0  2  0  0  0  0  0  0
  186.4670  178.5960  141.6720 C   0  0  1  0  0  3  0  0  0  0  0  0
  187.6150  179.0490  144.2520 O   0  0  0  0  0  0  0  0  0  0  0  0
  186.1810  177.8180  142.8720 N   0  0  0  0  0  2  0  0  0  0  0  0
  186.8150  178.0830  144.1260 C   0  0  0  0  0  0  0  0  0  0  0  0
  186.5170  177.2090  145.2970 C   0  0  0  0  0  2  0  0  0  0  0  0
  186.4310  178.0090  146.5090 N   0  0  0  0  0  0  0  0  0  0  0  0
  185.0300  178.3690  146.6640 C   0  0  0  0  0  1  0  0  0  0  0  0
  186.7640  177.1270  147.6200 C   0  0  0  0  0  2  0  0  0  0  0  0
  188.8130  178.2720  148.4560 C   0  0  0  0  0  1  0  0  0  0  0  0
  188.2720  177.0300  147.7770 C   0  0  0  0  0  2  0  0  0  0  0  0
  187.4210  177.8340  140.7630 C   0  0  0  0  0  2  0  0  0  0  0  0
  189.0010  176.1840  141.9390 C   0  0  0  0  0  3  0  0  0  0  0  0
  190.7600  177.0730  143.3050 N   0  0  0  0  0  0  0  0  0  0  0  0
  189.4830  178.5770  141.8390 C   0  0  0  0  0  3  0  0  0  0  0  0
  190.7720  178.3530  142.5850 C   0  0  0  0  0  2  0  0  0  0  0  0
  189.9840  175.9700  142.8160 C   0  0  0  0  0  3  0  0  0  0  0  0
  188.6960  177.5570  141.4880 C   0  0  0  0  0  0  0  0  0  0  0  0
  191.6860  176.8360  144.4080 C   0  0  2  0  0  3  0  0  0  0  0  0
  191.9960  175.4210  144.5100 N   0  0  0  0  0  1  0  0  0  0  0  0
  191.1020  177.3360  145.7170 C   0  0  0  0  0  1  0  0  0  0  0  0
  180.4070  178.3830  137.4520 O   0  0  0  0  0  0  0  0  0  0  0  0
  180.3450  178.8940  136.1510 C   0  0  0  0  0  2  0  0  0  0  0  0
  180.7100  177.8940  135.2340 O   0  0  0  0  0  0  0  0  0  0  0  0
  181.6040  176.9640  135.8320 C   0  0  2  0  0  3  0  0  0  0  0  0
  182.9440  177.3500  135.8500 F   0  0  0  0  0  0  0  0  0  0  0  0
  181.4600  175.5650  135.2260 C   0  0  1  0  0  3  0  0  0  0  0  0
  182.5700  174.6490  135.6230 C   0  0  0  0  0  0  0  0  0  0  0  0
  183.6700  173.7400  136.0180 C   0  0  0  0  0  0  0  0  0  0  0  0
  183.8450  174.6480  135.0250 C   0  0  0  0  0  2  0  0  0  0  0  0
  184.1930  172.6440  136.8740 C   0  0  0  0  0  2  0  0  0  0  0  0
  183.0640  171.6990  137.2330 C   0  0  0  0  0  1  0  0  0  0  0  0
  180.0870  174.9560  135.4800 C   0  0  0  0  0  2  0  0  0  0  0  0
  179.4700  174.4660  137.7440 O   0  0  0  0  0  1  0  0  0  0  0  0
  180.1650  173.9720  136.6360 C   0  0  1  0  0  3  0  0  0  0  0  0
  179.8000  172.2030  135.0620 O   0  0  0  0  0  0  0  0  0  0  0  0
  179.6230  172.6420  136.2300 C   0  0  0  0  0  0  0  0  0  0  0  0
  178.9370  171.8700  137.1570 O   0  0  0  0  0  1  0  0  0  0  0  0
  2 39  1  6  0  0  0
  2  9  1  0  0  0  0
  2 14  1  0  0  0  0
  3  5  1  0  0  0  0
  5 12  1  1  0  0  0
  5  6  1  0  0  0  0
  5 10  1  0  0  0  0
  6 13  1  0  0  0  0
  7 18  1  0  0  0  0
  9  4  1  0  0  0  0
  9  6  1  0  0  0  0
 10 15  1  0  0  0  0
 11 16  1  0  0  0  0
 11  1  1  0  0  0  0
 13  1  1  0  0  0  0
 13  7  1  0  0  0  0
 14  8  1  0  0  0  0
 14 16  1  0  0  0  0
 15  7  1  0  0  0  0
 15 19  1  0  0  0  0
 18 17  1  0  0  0  0
 19 21  1  0  0  0  0
 21 22  1  0  0  0  0
 22 20  2  0  0  0  0
 22 23  1  0  0  0  0
 23 24  1  0  0  0  0
 24 25  1  0  0  0  0
 24 26  1  0  0  0  0
 26 28  1  0  0  0  0
 28 27  1  0  0  0  0
 29 35  1  0  0  0  0
 29 19  1  0  0  0  0
 30 34  2  0  0  0  0
 31 36  1  0  0  0  0
 32 33  1  0  0  0  0
 33 31  1  0  0  0  0
 34 31  1  0  0  0  0
 35 32  2  0  0  0  0
 35 30  1  0  0  0  0
 36 37  1  0  0  0  0
 36 38  1  0  0  0  0
 40 39  1  0  0  0  0
 41 42  1  0  0  0  0
 41 40  1  0  0  0  0
 42 43  1  0  0  0  0
 44 50  1  0  0  0  0
 44 45  1  0  0  0  0
 44 42  1  0  0  0  0
 45 46  2  0  0  0  0
 46 48  1  0  0  0  0
 47 45  1  0  0  0  0
 47 46  1  0  0  0  0
 48 49  1  0  0  0  0
 50 52  1  0  0  0  0
 52 51  1  0  0  0  0
 53 54  2  0  0  0  0
 54 52  1  0  0  0  0
 54 55  1  0  0  0  0
M  END
>  <MODEL>
5

>  <REMARK>
 VINA RESULT:      -3.4      3.669     10.098
  Name = 
  20 active torsions:
  status: ('A' for Active; 'I' for Inactive)
    1  A    between atoms: C_1  and  O_30
    2  A    between atoms: C_1  and  C_53
    3  A    between atoms: C_6  and  C_53
    4  A    between atoms: C_7  and  O_8
    5  A    between atoms: O_8  and  C_20
    6  A    between atoms: C_10  and  N_32
    7  A    between atoms: C_11  and  C_29
    8  A    between atoms: C_11  and  C_38
    9  A    between atoms: C_12  and  C_14
   10  A    between atoms: C_19  and  C_40
   11  A    between atoms: C_20  and  O_30
   12  A    between atoms: N_27  and  C_31
   13  A    between atoms: N_27  and  C_55
   14  A    between atoms: N_28  and  C_49
   15  A    between atoms: C_31  and  C_44
   16  A    between atoms: C_33  and  C_49
   17  A    between atoms: C_33  and  C_52
   18  A    between atoms: C_38  and  C_53
   19  A    between atoms: C_41  and  C_55
   20  A    between atoms: C_45  and  C_49
                            x       y       z     vdW  Elec       q    Type
                         _______ _______ _______ _____ _____    ______ ____

>  <TORSDO>
F 20

$$$$
=
 OpenBabel11052415123D

 55 58  0  0  1  0  0  0  0  0999 V2000
  186.3780  176.6860  144.1840 C   0  0  0  0  0  2  0  0  0  0  0  0
  184.5670  179.5900  145.2520 C   0  0  2  0  0  3  0  0  0  0  0  0
  183.4540  179.2800  141.3130 O   0  0  0  0  0  1  0  0  0  0  0  0
  185.7350  180.8840  143.4250 C   0  0  0  0  0  1  0  0  0  0  0  0
  184.6250  178.5390  141.4710 C   0  0  2  0  0  0  0  0  0  0  0  0
  185.0100  178.4690  142.9630 C   0  0  2  0  0  3  0  0  0  0  0  0
  187.2410  177.5560  141.9940 C   0  0  1  0  0  3  0  0  0  0  0  0
  186.2490  179.8420  146.9470 O   0  0  0  0  0  1  0  0  0  0  0  0
  184.7320  179.7800  143.7380 C   0  0  1  0  0  3  0  0  0  0  0  0
  185.7360  179.1980  140.6520 C   0  0  0  0  0  2  0  0  0  0  0  0
  185.3520  176.8210  145.3140 C   0  0  0  0  0  2  0  0  0  0  0  0
  184.3550  177.1380  140.9490 C   0  0  0  0  0  1  0  0  0  0  0  0
  186.4280  177.9040  143.2510 C   0  0  2  0  0  3  0  0  0  0  0  0
  185.8460  179.0150  145.9010 C   0  0  1  0  0  3  0  0  0  0  0  0
  187.1480  178.6220  140.8830 C   0  0  2  0  0  3  0  0  0  0  0  0
  185.7540  177.6810  146.3600 O   0  0  0  0  0  0  0  0  0  0  0  0
  189.3360  178.3250  143.2080 C   0  0  0  0  0  1  0  0  0  0  0  0
  188.7010  177.2440  142.3440 C   0  0  0  0  0  2  0  0  0  0  0  0
  187.7730  178.1000  139.5840 C   0  0  1  0  0  3  0  0  0  0  0  0
  187.0920  175.8940  137.8960 O   0  0  0  0  0  0  0  0  0  0  0  0
  186.8300  178.1470  138.4720 N   0  0  0  0  0  2  0  0  0  0  0  0
  186.5590  177.0100  137.6490 C   0  0  0  0  0  0  0  0  0  0  0  0
  185.6260  177.1470  136.4940 C   0  0  0  0  0  2  0  0  0  0  0  0
  184.3760  176.4590  136.7750 N   0  0  0  0  0  0  0  0  0  0  0  0
  183.4040  177.4910  137.1000 C   0  0  0  0  0  1  0  0  0  0  0  0
  183.9400  175.8490  135.5260 C   0  0  0  0  0  2  0  0  0  0  0  0
  184.3060  173.9100  137.0490 C   0  0  0  0  0  1  0  0  0  0  0  0
  184.0490  174.3360  135.6170 C   0  0  0  0  0  2  0  0  0  0  0  0
  189.0460  178.8550  139.2300 C   0  0  0  0  0  2  0  0  0  0  0  0
  189.9870  177.4420  137.3020 C   0  0  0  0  0  3  0  0  0  0  0  0
  191.5870  175.7330  137.8230 N   0  0  0  0  0  0  0  0  0  0  0  0
  190.9620  177.3750  139.5410 C   0  0  0  0  0  3  0  0  0  0  0  0
  192.0050  176.3990  139.0630 C   0  0  0  0  0  2  0  0  0  0  0  0
  190.7120  176.3970  136.9000 C   0  0  0  0  0  3  0  0  0  0  0  0
  190.0670  177.9030  138.7030 C   0  0  0  0  0  0  0  0  0  0  0  0
  192.2080  174.4780  137.4120 C   0  0  2  0  0  3  0  0  0  0  0  0
  193.5550  174.3840  137.9470 N   0  0  0  0  0  1  0  0  0  0  0  0
  192.2400  174.3630  135.8990 C   0  0  0  0  0  1  0  0  0  0  0  0
  183.4340  178.8140  145.5210 O   0  0  0  0  0  0  0  0  0  0  0  0
  182.4240  179.3210  144.6960 C   0  0  0  0  0  2  0  0  0  0  0  0
  181.7480  178.2590  144.0710 O   0  0  0  0  0  0  0  0  0  0  0  0
  180.3750  178.5750  143.8850 C   0  0  2  0  0  3  0  0  0  0  0  0
  179.4990  178.0000  144.8050 F   0  0  0  0  0  0  0  0  0  0  0  0
  179.9130  178.2820  142.4540 C   0  0  1  0  0  3  0  0  0  0  0  0
  179.8100  179.5150  141.6190 C   0  0  0  0  0  0  0  0  0  0  0  0
  179.7090  180.7370  140.7890 C   0  0  0  0  0  0  0  0  0  0  0  0
  179.4480  180.7800  142.1200 C   0  0  0  0  0  2  0  0  0  0  0  0
  179.8180  181.4140  139.4700 C   0  0  0  0  0  2  0  0  0  0  0  0
  181.2700  181.4550  139.0410 C   0  0  0  0  0  1  0  0  0  0  0  0
  180.7420  177.1940  141.7830 C   0  0  0  0  0  2  0  0  0  0  0  0
  180.6120  177.7720  139.4590 O   0  0  0  0  0  1  0  0  0  0  0  0
  180.1530  176.8650  140.4210 C   0  0  1  0  0  3  0  0  0  0  0  0
  179.7950  174.4960  140.4190 O   0  0  0  0  0  1  0  0  0  0  0  0
  180.4950  175.4670  140.0250 C   0  0  0  0  0  0  0  0  0  0  0  0
  181.5830  175.2370  139.1950 O   0  0  0  0  0  0  0  0  0  0  0  0
  1 11  1  0  0  0  0
  2 39  1  6  0  0  0
  2 14  1  0  0  0  0
  3  5  1  0  0  0  0
  4  9  1  0  0  0  0
  5 12  1  6  0  0  0
  5  6  1  0  0  0  0
  6 13  1  0  0  0  0
  6  9  1  0  0  0  0
  7 18  1  0  0  0  0
  7 13  1  0  0  0  0
  9  2  1  0  0  0  0
 10 15  1  0  0  0  0
 10  5  1  0  0  0  0
 11 16  1  0  0  0  0
 13  1  1  0  0  0  0
 14 16  1  0  0  0  0
 14  8  1  0  0  0  0
 15  7  1  0  0  0  0
 18 17  1  0  0  0  0
 19 15  1  0  0  0  0
 21 19  1  0  0  0  0
 22 20  2  0  0  0  0
 22 21  1  0  0  0  0
 23 24  1  0  0  0  0
 23 22  1  0  0  0  0
 24 25  1  0  0  0  0
 26 28  1  0  0  0  0
 26 24  1  0  0  0  0
 28 27  1  0  0  0  0
 29 19  1  0  0  0  0
 30 35  1  0  0  0  0
 31 33  1  0  0  0  0
 33 32  1  0  0  0  0
 34 30  2  0  0  0  0
 34 31  1  0  0  0  0
 35 29  1  0  0  0  0
 35 32  2  0  0  0  0
 36 31  1  0  0  0  0
 36 37  1  0  0  0  0
 38 36  1  0  0  0  0
 40 39  1  0  0  0  0
 41 40  1  0  0  0  0
 42 41  1  0  0  0  0
 42 43  1  0  0  0  0
 44 42  1  0  0  0  0
 45 47  1  0  0  0  0
 45 44  1  0  0  0  0
 46 45  2  0  0  0  0
 46 47  1  0  0  0  0
 48 46  1  0  0  0  0
 49 48  1  0  0  0  0
 50 44  1  0  0  0  0
 51 52  1  0  0  0  0
 52 50  1  0  0  0  0
 54 53  1  0  0  0  0
 54 52  1  0  0  0  0
 55 54  2  0  0  0  0
M  END
>  <MODEL>
6

>  <REMARK>
 VINA RESULT:      -3.3      3.801      9.589
  Name = 
  20 active torsions:
  status: ('A' for Active; 'I' for Inactive)
    1  A    between atoms: C_1  and  O_30
    2  A    between atoms: C_1  and  C_53
    3  A    between atoms: C_6  and  C_53
    4  A    between atoms: C_7  and  O_8
    5  A    between atoms: O_8  and  C_20
    6  A    between atoms: C_10  and  N_32
    7  A    between atoms: C_11  and  C_29
    8  A    between atoms: C_11  and  C_38
    9  A    between atoms: C_12  and  C_14
   10  A    between atoms: C_19  and  C_40
   11  A    between atoms: C_20  and  O_30
   12  A    between atoms: N_27  and  C_31
   13  A    between atoms: N_27  and  C_55
   14  A    between atoms: N_28  and  C_49
   15  A    between atoms: C_31  and  C_44
   16  A    between atoms: C_33  and  C_49
   17  A    between atoms: C_33  and  C_52
   18  A    between atoms: C_38  and  C_53
   19  A    between atoms: C_41  and  C_55
   20  A    between atoms: C_45  and  C_49
                            x       y       z     vdW  Elec       q    Type
                         _______ _______ _______ _____ _____    ______ ____

>  <TORSDO>
F 20

$$$$
