=
 OpenBabel11052413443D

 27 31  0  0  1  0  0  0  0  0999 V2000
  181.7990  178.0840  142.4160 C   0  0  0  0  0  3  0  0  0  0  0  0
  183.7570  178.3880  140.9390 C   0  0  1  0  0  3  0  0  0  0  0  0
  182.1250  179.2650  139.2520 N   0  0  0  0  0  0  0  0  0  0  0  0
  185.5500  177.7140  137.3480 N   0  0  0  0  0  0  0  0  0  0  0  0
  184.6520  176.3490  135.2000 S   0  0  0  0  0  0  0  0  0  0  0  0
  184.9890  179.1900  140.5470 C   0  0  0  0  0  3  0  0  0  0  0  0
  183.3610  176.8380  137.5860 C   0  0  0  0  0  0  0  0  0  0  0  0
  179.6810  181.9770  139.4590 C   0  0  0  0  0  3  0  0  0  0  0  0
  182.0230  176.2720  137.2490 C   0  0  0  0  0  1  0  0  0  0  0  0
  178.9310  181.6240  140.5030 C   0  0  0  0  0  2  0  0  0  0  0  0
  183.6700  177.5460  138.6560 C   0  0  0  0  0  0  0  0  0  0  0  0
  183.0810  178.8400  142.2360 C   0  0  2  0  0  3  0  0  0  0  0  0
  184.5540  176.8870  136.7400 C   0  0  0  0  0  0  0  0  0  0  0  0
  185.0120  178.0620  138.4710 C   0  0  0  0  0  0  0  0  0  0  0  0
  180.6650  178.5160  141.8600 C   0  0  0  0  0  3  0  0  0  0  0  0
  182.8010  178.0700  139.7540 C   0  0  1  0  0  3  0  0  0  0  0  0
  180.7320  181.1210  138.9980 N   0  0  0  0  0  0  0  0  0  0  0  0
  185.5860  178.9810  139.4040 N   0  0  0  0  0  0  0  0  0  0  0  0
  179.1060  180.2810  141.1520 C   0  0  0  0  0  2  0  0  0  0  0  0
  180.5690  179.8400  141.1560 C   0  0  2  0  0  3  0  0  0  0  0  0
  181.1650  179.9880  139.7590 C   0  0  0  0  0  0  0  0  0  0  0  0
  185.6020  178.2760  145.6750 C   0  0  0  0  0  3  0  0  0  0  0  0
  183.9760  178.6420  143.4220 C   0  0  0  0  0  0  0  0  0  0  0  0
  183.5120  179.0070  144.6910 C   0  0  0  0  0  3  0  0  0  0  0  0
  184.3240  178.8260  145.8150 C   0  0  0  0  0  3  0  0  0  0  0  0
  186.0690  177.9080  144.4110 C   0  0  0  0  0  3  0  0  0  0  0  0
  185.2600  178.0890  143.2860 C   0  0  0  0  0  3  0  0  0  0  0  0
  2  6  1  6  0  0  0
  2 12  1  0  0  0  0
  3 16  1  0  0  0  0
  3 21  2  0  0  0  0
  4 14  2  0  0  0  0
  5 13  2  0  0  0  0
  7 11  2  0  0  0  0
  8 10  1  0  0  0  0
  9  7  1  0  0  0  0
 10 19  1  0  0  0  0
 12  1  1  0  0  0  0
 12 23  1  1  0  0  0
 13  4  1  0  0  0  0
 13  7  1  0  0  0  0
 14 11  1  0  0  0  0
 14 18  1  0  0  0  0
 15  1  2  0  0  0  0
 16 11  1  6  0  0  0
 16  2  1  0  0  0  0
 17  8  2  0  0  0  0
 17 21  1  0  0  0  0
 18  6  2  0  0  0  0
 20 19  1  6  0  0  0
 20 15  1  0  0  0  0
 21 20  1  0  0  0  0
 22 25  1  0  0  0  0
 23 24  1  0  0  0  0
 24 25  2  0  0  0  0
 26 22  2  0  0  0  0
 27 23  2  0  0  0  0
 27 26  1  0  0  0  0
M  END
>  <MODEL>
1

>  <REMARK>
 VINA RESULT:      -7.9      0.000      0.000
  Name = 
  1 active torsions:
  status: ('A' for Active; 'I' for Inactive)
    1  A    between atoms: C_9  and  C_15
                            x       y       z     vdW  Elec       q    Type
                         _______ _______ _______ _____ _____    ______ ____

>  <TORSDO>
F 1

$$$$
=
 OpenBabel11052413443D

 27 31  0  0  1  0  0  0  0  0999 V2000
  188.5820  178.4570  138.4040 C   0  0  0  0  0  3  0  0  0  0  0  0
  189.4810  176.2760  137.6700 C   0  0  1  0  0  3  0  0  0  0  0  0
  190.5170  176.1370  139.9470 N   0  0  0  0  0  0  0  0  0  0  0  0
  192.6860  173.8150  137.1780 N   0  0  0  0  0  0  0  0  0  0  0  0
  195.2930  174.2460  137.7270 S   0  0  0  0  0  0  0  0  0  0  0  0
  189.2630  174.7950  137.3960 C   0  0  0  0  0  3  0  0  0  0  0  0
  193.1490  175.9260  138.1510 C   0  0  0  0  0  0  0  0  0  0  0  0
  189.0300  176.3590  143.2800 C   0  0  0  0  0  3  0  0  0  0  0  0
  193.8470  177.0170  138.8890 C   0  0  0  0  0  1  0  0  0  0  0  0
  188.4230  177.5460  143.2580 C   0  0  0  0  0  2  0  0  0  0  0  0
  191.8450  175.7900  137.9940 C   0  0  0  0  0  0  0  0  0  0  0  0
  188.2100  177.0640  137.9940 C   0  0  2  0  0  3  0  0  0  0  0  0
  193.7270  174.6980  137.6040 C   0  0  0  0  0  0  0  0  0  0  0  0
  191.6060  174.4900  137.3980 C   0  0  0  0  0  0  0  0  0  0  0  0
  188.8920  178.7390  139.6720 C   0  0  0  0  0  3  0  0  0  0  0  0
  190.7140  176.5810  138.5680 C   0  0  1  0  0  3  0  0  0  0  0  0
  189.8050  175.9190  142.1600 N   0  0  0  0  0  0  0  0  0  0  0  0
  190.2770  173.9900  137.2240 N   0  0  0  0  0  0  0  0  0  0  0  0
  188.6190  178.4840  142.1020 C   0  0  0  0  0  2  0  0  0  0  0  0
  188.7450  177.7330  140.7770 C   0  0  2  0  0  3  0  0  0  0  0  0
  189.7720  176.6110  140.9070 C   0  0  0  0  0  0  0  0  0  0  0  0
  185.5510  177.1730  134.6160 C   0  0  0  0  0  3  0  0  0  0  0  0
  187.2680  177.0950  136.8290 C   0  0  0  0  0  0  0  0  0  0  0  0
  187.6110  177.8460  135.6990 C   0  0  0  0  0  3  0  0  0  0  0  0
  186.7530  177.8860  134.5950 C   0  0  0  0  0  3  0  0  0  0  0  0
  185.2040  176.4200  135.7400 C   0  0  0  0  0  3  0  0  0  0  0  0
  186.0600  176.3790  136.8460 C   0  0  0  0  0  3  0  0  0  0  0  0
  1 15  2  0  0  0  0
  2  6  1  1  0  0  0
  2 12  1  0  0  0  0
  2 16  1  0  0  0  0
  3 21  2  0  0  0  0
  4 14  2  0  0  0  0
  4 13  1  0  0  0  0
  7  9  1  0  0  0  0
 10  8  1  0  0  0  0
 11  7  2  0  0  0  0
 12 23  1  6  0  0  0
 12  1  1  0  0  0  0
 13  5  2  0  0  0  0
 13  7  1  0  0  0  0
 14 11  1  0  0  0  0
 16 11  1  6  0  0  0
 16  3  1  0  0  0  0
 17  8  2  0  0  0  0
 18  6  2  0  0  0  0
 18 14  1  0  0  0  0
 19 10  1  0  0  0  0
 20 15  1  6  0  0  0
 20 21  1  0  0  0  0
 20 19  1  0  0  0  0
 21 17  1  0  0  0  0
 22 26  1  0  0  0  0
 23 27  1  0  0  0  0
 24 23  2  0  0  0  0
 25 22  2  0  0  0  0
 25 24  1  0  0  0  0
 26 27  2  0  0  0  0
M  END
>  <MODEL>
2

>  <REMARK>
 VINA RESULT:      -7.2      6.330      9.187
  Name = 
  1 active torsions:
  status: ('A' for Active; 'I' for Inactive)
    1  A    between atoms: C_9  and  C_15
                            x       y       z     vdW  Elec       q    Type
                         _______ _______ _______ _____ _____    ______ ____

>  <TORSDO>
F 1

$$$$
=
 OpenBabel11052413443D

 27 31  0  0  1  0  0  0  0  0999 V2000
  181.2510  178.6170  142.9010 C   0  0  0  0  0  3  0  0  0  0  0  0
  182.7820  177.9100  141.0940 C   0  0  1  0  0  3  0  0  0  0  0  0
  181.0370  178.7760  139.5190 N   0  0  0  0  0  0  0  0  0  0  0  0
  183.3860  175.8100  137.6610 N   0  0  0  0  0  0  0  0  0  0  0  0
  181.6690  174.2770  136.2510 S   0  0  0  0  0  0  0  0  0  0  0  0
  184.0300  178.1650  140.2610 C   0  0  0  0  0  3  0  0  0  0  0  0
  181.1850  175.7410  138.5360 C   0  0  0  0  0  0  0  0  0  0  0  0
  179.4560  182.0620  139.2560 C   0  0  0  0  0  3  0  0  0  0  0  0
  179.7090  175.5460  138.6320 C   0  0  0  0  0  1  0  0  0  0  0  0
  178.9330  182.2400  140.4690 C   0  0  0  0  0  2  0  0  0  0  0  0
  181.9170  176.5730  139.2530 C   0  0  0  0  0  0  0  0  0  0  0  0
  182.5890  178.8690  142.2720 C   0  0  2  0  0  3  0  0  0  0  0  0
  182.0990  175.2010  137.5290 C   0  0  0  0  0  0  0  0  0  0  0  0
  183.2520  176.5860  138.6860 C   0  0  0  0  0  0  0  0  0  0  0  0
  180.1520  179.2150  142.4360 C   0  0  0  0  0  3  0  0  0  0  0  0
  181.5090  177.6040  140.2550 C   0  0  1  0  0  3  0  0  0  0  0  0
  180.1160  180.8360  138.9220 N   0  0  0  0  0  0  0  0  0  0  0  0
  184.2490  177.4940  139.1620 N   0  0  0  0  0  0  0  0  0  0  0  0
  178.9370  181.1250  141.4760 C   0  0  0  0  0  2  0  0  0  0  0  0
  180.2030  180.2740  141.3720 C   0  0  2  0  0  3  0  0  0  0  0  0
  180.4410  179.8640  139.9220 C   0  0  0  0  0  0  0  0  0  0  0  0
  185.6810  178.4450  145.2310 C   0  0  0  0  0  3  0  0  0  0  0  0
  183.6810  178.7220  143.2880 C   0  0  0  0  0  0  0  0  0  0  0  0
  183.4000  178.9960  144.6310 C   0  0  0  0  0  3  0  0  0  0  0  0
  184.3990  178.8590  145.6000 C   0  0  0  0  0  3  0  0  0  0  0  0
  185.9670  178.1660  143.8920 C   0  0  0  0  0  3  0  0  0  0  0  0
  184.9700  178.3030  142.9210 C   0  0  0  0  0  3  0  0  0  0  0  0
  2  6  1  6  0  0  0
  2 12  1  0  0  0  0
  3 21  2  0  0  0  0
  3 16  1  0  0  0  0
  4 14  2  0  0  0  0
  5 13  2  0  0  0  0
  7  9  1  0  0  0  0
  7 11  2  0  0  0  0
  8 10  1  0  0  0  0
 10 19  1  0  0  0  0
 12  1  1  0  0  0  0
 12 23  1  1  0  0  0
 13  4  1  0  0  0  0
 13  7  1  0  0  0  0
 14 18  1  0  0  0  0
 14 11  1  0  0  0  0
 15  1  2  0  0  0  0
 16 11  1  6  0  0  0
 16  2  1  0  0  0  0
 17  8  2  0  0  0  0
 17 21  1  0  0  0  0
 18  6  2  0  0  0  0
 20 19  1  6  0  0  0
 20 15  1  0  0  0  0
 21 20  1  0  0  0  0
 22 25  1  0  0  0  0
 23 24  1  0  0  0  0
 24 25  2  0  0  0  0
 26 22  2  0  0  0  0
 27 23  2  0  0  0  0
 27 26  1  0  0  0  0
M  END
>  <MODEL>
3

>  <REMARK>
 VINA RESULT:      -7.1      1.416      1.648
  Name = 
  1 active torsions:
  status: ('A' for Active; 'I' for Inactive)
    1  A    between atoms: C_9  and  C_15
                            x       y       z     vdW  Elec       q    Type
                         _______ _______ _______ _____ _____    ______ ____

>  <TORSDO>
F 1

$$$$
=
 OpenBabel11052413443D

 27 31  0  0  1  0  0  0  0  0999 V2000
  183.2890  177.5430  139.9160 C   0  0  0  0  0  3  0  0  0  0  0  0
  181.6830  179.3440  140.4510 C   0  0  1  0  0  3  0  0  0  0  0  0
  180.2070  178.2990  138.7170 N   0  0  0  0  0  0  0  0  0  0  0  0
  179.3130  182.3930  139.1670 N   0  0  0  0  0  0  0  0  0  0  0  0
  178.9310  183.3490  136.6720 S   0  0  0  0  0  0  0  0  0  0  0  0
  180.6230  179.9200  141.3780 C   0  0  0  0  0  3  0  0  0  0  0  0
  180.4960  181.2270  137.4760 C   0  0  0  0  0  0  0  0  0  0  0  0
  178.9310  174.8880  138.3890 C   0  0  0  0  0  3  0  0  0  0  0  0
  180.9040  180.7150  136.1370 C   0  0  0  0  0  1  0  0  0  0  0  0
  180.0430  174.1530  138.3720 C   0  0  0  0  0  3  0  0  0  0  0  0
  180.6930  180.6340  138.6400 C   0  0  0  0  0  0  0  0  0  0  0  0
  182.4000  178.1020  140.9870 C   0  0  2  0  0  3  0  0  0  0  0  0
  179.6490  182.3810  137.7770 C   0  0  0  0  0  0  0  0  0  0  0  0
  179.9540  181.3770  139.6430 C   0  0  0  0  0  0  0  0  0  0  0  0
  182.8150  176.6860  139.0090 C   0  0  0  0  0  3  0  0  0  0  0  0
  181.2570  179.2870  138.9560 C   0  0  1  0  0  3  0  0  0  0  0  0
  179.0050  176.3170  138.4370 N   0  0  0  0  0  2  0  0  0  0  0  0
  179.8600  180.9060  140.9900 N   0  0  0  0  0  0  0  0  0  0  0  0
  181.3930  174.8090  138.3030 C   0  0  0  0  0  2  0  0  0  0  0  0
  181.4270  176.1190  139.0890 C   0  0  2  0  0  3  0  0  0  0  0  0
  180.2390  176.9950  138.6990 C   0  0  0  0  0  0  0  0  0  0  0  0
  184.7290  179.0020  144.4880 C   0  0  0  0  0  3  0  0  0  0  0  0
  183.1950  178.4120  142.2190 C   0  0  0  0  0  0  0  0  0  0  0  0
  184.5920  178.3990  142.1460 C   0  0  0  0  0  3  0  0  0  0  0  0
  185.3580  178.6920  143.2790 C   0  0  0  0  0  3  0  0  0  0  0  0
  183.3340  179.0190  144.5660 C   0  0  0  0  0  3  0  0  0  0  0  0
  182.5660  178.7250  143.4350 C   0  0  0  0  0  3  0  0  0  0  0  0
  1 12  1  0  0  0  0
  2 12  1  0  0  0  0
  2  6  1  1  0  0  0
  3 16  1  0  0  0  0
  4 14  2  0  0  0  0
  5 13  2  0  0  0  0
  7 13  1  0  0  0  0
  7 11  2  0  0  0  0
  8 17  1  0  0  0  0
  9  7  1  0  0  0  0
 10  8  2  0  0  0  0
 11 14  1  0  0  0  0
 12 23  1  1  0  0  0
 13  4  1  0  0  0  0
 14 18  1  0  0  0  0
 15 20  1  0  0  0  0
 15  1  2  0  0  0  0
 16 11  1  1  0  0  0
 16  2  1  0  0  0  0
 17 21  1  0  0  0  0
 18  6  2  0  0  0  0
 19 10  1  0  0  0  0
 20 19  1  6  0  0  0
 21  3  2  0  0  0  0
 21 20  1  0  0  0  0
 22 26  1  0  0  0  0
 23 27  1  0  0  0  0
 24 23  2  0  0  0  0
 24 25  1  0  0  0  0
 25 22  2  0  0  0  0
 27 26  2  0  0  0  0
M  END
>  <MODEL>
4

>  <REMARK>
 VINA RESULT:      -7.0      2.720      4.947
  Name = 
  1 active torsions:
  status: ('A' for Active; 'I' for Inactive)
    1  A    between atoms: C_9  and  C_15
                            x       y       z     vdW  Elec       q    Type
                         _______ _______ _______ _____ _____    ______ ____

>  <TORSDO>
F 1

$$$$
=
 OpenBabel11052413443D

 27 31  0  0  1  0  0  0  0  0999 V2000
  188.5440  178.3570  138.1500 C   0  0  0  0  0  3  0  0  0  0  0  0
  189.2170  176.0750  137.4820 C   0  0  1  0  0  3  0  0  0  0  0  0
  190.5120  176.0210  139.6260 N   0  0  0  0  0  0  0  0  0  0  0  0
  192.1890  173.3780  136.8040 N   0  0  0  0  0  0  0  0  0  0  0  0
  194.8640  173.6690  137.0110 S   0  0  0  0  0  0  0  0  0  0  0  0
  188.8810  174.5970  137.3470 C   0  0  0  0  0  3  0  0  0  0  0  0
  192.8890  175.5130  137.5550 C   0  0  0  0  0  0  0  0  0  0  0  0
  189.4560  176.5660  143.0840 C   0  0  0  0  0  3  0  0  0  0  0  0
  193.7350  176.6020  138.1240 C   0  0  0  0  0  1  0  0  0  0  0  0
  188.9210  177.7870  143.0440 C   0  0  0  0  0  2  0  0  0  0  0  0
  191.5700  175.4550  137.5630 C   0  0  0  0  0  0  0  0  0  0  0  0
  188.0430  176.9670  137.8930 C   0  0  2  0  0  3  0  0  0  0  0  0
  193.3230  174.2160  137.0380 C   0  0  0  0  0  0  0  0  0  0  0  0
  191.1850  174.1370  137.0980 C   0  0  0  0  0  0  0  0  0  0  0  0
  189.0210  178.7020  139.3490 C   0  0  0  0  0  3  0  0  0  0  0  0
  190.5650  176.3570  138.2040 C   0  0  1  0  0  3  0  0  0  0  0  0
  190.0620  176.0000  141.9170 N   0  0  0  0  0  0  0  0  0  0  0  0
  189.8170  173.7170  137.1180 N   0  0  0  0  0  0  0  0  0  0  0  0
  189.0300  178.6300  141.8070 C   0  0  0  0  0  2  0  0  0  0  0  0
  188.9510  177.7850  140.5360 C   0  0  2  0  0  3  0  0  0  0  0  0
  189.9180  176.6080  140.6280 C   0  0  0  0  0  0  0  0  0  0  0  0
  184.9240  177.0100  134.9320 C   0  0  0  0  0  3  0  0  0  0  0  0
  186.9700  176.9830  136.8460 C   0  0  0  0  0  0  0  0  0  0  0  0
  185.6890  176.5300  137.1800 C   0  0  0  0  0  3  0  0  0  0  0  0
  184.6680  176.5420  136.2240 C   0  0  0  0  0  3  0  0  0  0  0  0
  186.2010  177.4660  134.5940 C   0  0  0  0  0  3  0  0  0  0  0  0
  187.2230  177.4540  135.5470 C   0  0  0  0  0  3  0  0  0  0  0  0
  1 15  2  0  0  0  0
  2  6  1  1  0  0  0
  2 12  1  0  0  0  0
  2 16  1  0  0  0  0
  3 21  2  0  0  0  0
  4 13  1  0  0  0  0
  4 14  2  0  0  0  0
  5 13  2  0  0  0  0
  7 11  2  0  0  0  0
  7  9  1  0  0  0  0
 10  8  1  0  0  0  0
 12 23  1  6  0  0  0
 12  1  1  0  0  0  0
 13  7  1  0  0  0  0
 14 18  1  0  0  0  0
 14 11  1  0  0  0  0
 16 11  1  6  0  0  0
 16  3  1  0  0  0  0
 17  8  2  0  0  0  0
 18  6  2  0  0  0  0
 19 10  1  0  0  0  0
 20 15  1  6  0  0  0
 20 21  1  0  0  0  0
 20 19  1  0  0  0  0
 21 17  1  0  0  0  0
 22 25  1  0  0  0  0
 23 24  1  0  0  0  0
 25 24  2  0  0  0  0
 26 22  2  0  0  0  0
 26 27  1  0  0  0  0
 27 23  2  0  0  0  0
M  END
>  <MODEL>
5

>  <REMARK>
 VINA RESULT:      -6.9      6.162      9.104
  Name = 
  1 active torsions:
  status: ('A' for Active; 'I' for Inactive)
    1  A    between atoms: C_9  and  C_15
                            x       y       z     vdW  Elec       q    Type
                         _______ _______ _______ _____ _____    ______ ____

>  <TORSDO>
F 1

$$$$
=
 OpenBabel11052413443D

 27 31  0  0  1  0  0  0  0  0999 V2000
  181.6250  177.6390  140.7260 C   0  0  0  0  0  3  0  0  0  0  0  0
  183.8410  178.0700  139.7220 C   0  0  1  0  0  3  0  0  0  0  0  0
  182.5940  178.5050  137.5920 N   0  0  0  0  0  0  0  0  0  0  0  0
  186.5470  177.2860  136.7840 N   0  0  0  0  0  0  0  0  0  0  0  0
  186.3870  175.5770  134.7010 S   0  0  0  0  0  0  0  0  0  0  0  0
  185.0290  179.0010  139.5190 C   0  0  0  0  0  3  0  0  0  0  0  0
  184.4890  176.1240  136.6240 C   0  0  0  0  0  0  0  0  0  0  0  0
  179.8730  180.8270  136.8340 C   0  0  0  0  0  3  0  0  0  0  0  0
  183.3550  175.3310  136.0670 C   0  0  0  0  0  1  0  0  0  0  0  0
  178.9320  180.4800  137.7110 C   0  0  0  0  0  2  0  0  0  0  0  0
  184.4320  176.9820  137.6250 C   0  0  0  0  0  0  0  0  0  0  0  0
  182.8130  178.5550  140.7460 C   0  0  2  0  0  3  0  0  0  0  0  0
  185.8410  176.2590  136.0830 C   0  0  0  0  0  0  0  0  0  0  0  0
  185.7070  177.6700  137.6880 C   0  0  0  0  0  0  0  0  0  0  0  0
  180.6250  177.8340  139.8640 C   0  0  0  0  0  3  0  0  0  0  0  0
  183.2590  177.4860  138.4030 C   0  0  1  0  0  3  0  0  0  0  0  0
  181.1010  180.0930  136.7570 N   0  0  0  0  0  0  0  0  0  0  0  0
  185.9150  178.7610  138.5900 N   0  0  0  0  0  0  0  0  0  0  0  0
  179.0960  179.2580  138.5670 C   0  0  0  0  0  2  0  0  0  0  0  0
  180.5530  179.0440  138.9770 C   0  0  2  0  0  3  0  0  0  0  0  0
  181.4590  179.1270  137.7520 C   0  0  0  0  0  0  0  0  0  0  0  0
  184.5430  178.7430  144.6790 C   0  0  0  0  0  3  0  0  0  0  0  0
  183.3970  178.6230  142.1250 C   0  0  0  0  0  0  0  0  0  0  0  0
  184.6790  178.1080  142.3450 C   0  0  0  0  0  3  0  0  0  0  0  0
  185.2500  178.1660  143.6200 C   0  0  0  0  0  3  0  0  0  0  0  0
  183.2640  179.2620  144.4640 C   0  0  0  0  0  3  0  0  0  0  0  0
  182.6900  179.2040  143.1910 C   0  0  0  0  0  3  0  0  0  0  0  0
  1 12  1  0  0  0  0
  2  6  1  6  0  0  0
  2 12  1  0  0  0  0
  3 21  2  0  0  0  0
  4 14  2  0  0  0  0
  5 13  2  0  0  0  0
  7 11  2  0  0  0  0
  8 10  1  0  0  0  0
  9  7  1  0  0  0  0
 10 19  1  0  0  0  0
 11 14  1  0  0  0  0
 11 16  1  0  0  0  0
 12 23  1  1  0  0  0
 13  7  1  0  0  0  0
 13  4  1  0  0  0  0
 14 18  1  0  0  0  0
 15  1  2  0  0  0  0
 16  3  1  6  0  0  0
 16  2  1  0  0  0  0
 17  8  2  0  0  0  0
 17 21  1  0  0  0  0
 18  6  2  0  0  0  0
 20 19  1  6  0  0  0
 20 15  1  0  0  0  0
 21 20  1  0  0  0  0
 23 24  2  0  0  0  0
 23 27  1  0  0  0  0
 24 25  1  0  0  0  0
 25 22  2  0  0  0  0
 26 22  1  0  0  0  0
 27 26  2  0  0  0  0
M  END
>  <MODEL>
6

>  <REMARK>
 VINA RESULT:      -6.8      1.602      2.058
  Name = 
  1 active torsions:
  status: ('A' for Active; 'I' for Inactive)
    1  A    between atoms: C_9  and  C_15
                            x       y       z     vdW  Elec       q    Type
                         _______ _______ _______ _____ _____    ______ ____

>  <TORSDO>
F 1

$$$$
=
 OpenBabel11052413443D

 27 31  0  0  1  0  0  0  0  0999 V2000
  183.8110  177.6020  141.7680 C   0  0  0  0  0  3  0  0  0  0  0  0
  186.0940  178.3520  141.1890 C   0  0  1  0  0  3  0  0  0  0  0  0
  185.0750  179.2360  139.0770 N   0  0  0  0  0  0  0  0  0  0  0  0
  189.1710  178.4090  138.5260 N   0  0  0  0  0  0  0  0  0  0  0  0
  189.3740  177.2470  136.0980 S   0  0  0  0  0  0  0  0  0  0  0  0
  187.2280  179.3500  141.3660 C   0  0  0  0  0  3  0  0  0  0  0  0
  187.2320  177.2370  137.8320 C   0  0  0  0  0  0  0  0  0  0  0  0
  182.3050  181.5610  138.5370 C   0  0  0  0  0  3  0  0  0  0  0  0
  186.2290  176.5570  136.9630 C   0  0  0  0  0  1  0  0  0  0  0  0
  181.2940  180.9750  139.1800 C   0  0  0  0  0  2  0  0  0  0  0  0
  186.9990  177.8260  138.9910 C   0  0  0  0  0  0  0  0  0  0  0  0
  184.9210  178.5330  142.1560 C   0  0  2  0  0  3  0  0  0  0  0  0
  188.6250  177.5540  137.5190 C   0  0  0  0  0  0  0  0  0  0  0  0
  188.2060  178.5290  139.3780 C   0  0  0  0  0  0  0  0  0  0  0  0
  182.9070  177.9580  140.8530 C   0  0  0  0  0  3  0  0  0  0  0  0
  185.7110  178.0800  139.7060 C   0  0  1  0  0  3  0  0  0  0  0  0
  183.5810  180.9170  138.4510 N   0  0  0  0  0  0  0  0  0  0  0  0
  188.2310  179.3780  140.5290 N   0  0  0  0  0  0  0  0  0  0  0  0
  181.4430  179.5900  139.7390 C   0  0  0  0  0  2  0  0  0  0  0  0
  182.8540  179.3420  140.2730 C   0  0  2  0  0  3  0  0  0  0  0  0
  183.8880  179.7550  139.2290 C   0  0  0  0  0  0  0  0  0  0  0  0
  186.0550  177.8520  146.2490 C   0  0  0  0  0  3  0  0  0  0  0  0
  185.3350  178.2900  143.5760 C   0  0  0  0  0  0  0  0  0  0  0  0
  184.5730  178.8460  144.6100 C   0  0  0  0  0  3  0  0  0  0  0  0
  184.9330  178.6280  145.9440 C   0  0  0  0  0  3  0  0  0  0  0  0
  186.8180  177.2930  145.2210 C   0  0  0  0  0  3  0  0  0  0  0  0
  186.4610  177.5100  143.8870 C   0  0  0  0  0  3  0  0  0  0  0  0
  1 12  1  0  0  0  0
  2  6  1  6  0  0  0
  2 12  1  0  0  0  0
  3 21  2  0  0  0  0
  3 16  1  0  0  0  0
  4 14  2  0  0  0  0
  5 13  2  0  0  0  0
  7 11  2  0  0  0  0
  8 10  1  0  0  0  0
  9  7  1  0  0  0  0
 10 19  1  0  0  0  0
 11 14  1  0  0  0  0
 12 23  1  1  0  0  0
 13  7  1  0  0  0  0
 13  4  1  0  0  0  0
 14 18  1  0  0  0  0
 15  1  2  0  0  0  0
 16 11  1  6  0  0  0
 16  2  1  0  0  0  0
 17  8  2  0  0  0  0
 17 21  1  0  0  0  0
 18  6  2  0  0  0  0
 20 19  1  6  0  0  0
 20 15  1  0  0  0  0
 21 20  1  0  0  0  0
 23 27  2  0  0  0  0
 23 24  1  0  0  0  0
 24 25  2  0  0  0  0
 25 22  1  0  0  0  0
 26 22  2  0  0  0  0
 27 26  1  0  0  0  0
M  END
>  <MODEL>
7

>  <REMARK>
 VINA RESULT:      -6.5      2.137      2.839
  Name = 
  1 active torsions:
  status: ('A' for Active; 'I' for Inactive)
    1  A    between atoms: C_9  and  C_15
                            x       y       z     vdW  Elec       q    Type
                         _______ _______ _______ _____ _____    ______ ____

>  <TORSDO>
F 1

$$$$
=
 OpenBabel11052413443D

 27 31  0  0  1  0  0  0  0  0999 V2000
  184.3420  179.2340  139.3400 C   0  0  0  0  0  3  0  0  0  0  0  0
  182.7240  177.3660  139.3260 C   0  0  1  0  0  3  0  0  0  0  0  0
  183.8730  176.6200  137.2280 N   0  0  0  0  0  0  0  0  0  0  0  0
  179.9000  175.2170  137.3330 N   0  0  0  0  0  0  0  0  0  0  0  0
  178.9320  175.5390  134.8340 S   0  0  0  0  0  0  0  0  0  0  0  0
  182.2780  176.0160  139.8690 C   0  0  0  0  0  3  0  0  0  0  0  0
  180.9030  176.9820  136.1100 C   0  0  0  0  0  0  0  0  0  0  0  0
  187.3860  175.8660  136.5520 C   0  0  0  0  0  3  0  0  0  0  0  0
  181.3420  177.8390  134.9710 C   0  0  0  0  0  1  0  0  0  0  0  0
  188.0050  176.9970  136.8920 C   0  0  0  0  0  2  0  0  0  0  0  0
  181.4990  176.8650  137.2820 C   0  0  0  0  0  0  0  0  0  0  0  0
  183.8990  178.0020  140.0720 C   0  0  2  0  0  3  0  0  0  0  0  0
  179.8470  175.9700  136.1180 C   0  0  0  0  0  0  0  0  0  0  0  0
  180.8570  175.7780  137.9960 C   0  0  0  0  0  0  0  0  0  0  0  0
  185.2220  179.1570  138.3390 C   0  0  0  0  0  3  0  0  0  0  0  0
  182.7900  177.4370  137.7740 C   0  0  1  0  0  3  0  0  0  0  0  0
  185.9580  175.7750  136.6060 N   0  0  0  0  0  0  0  0  0  0  0  0
  181.3650  175.3160  139.2510 N   0  0  0  0  0  0  0  0  0  0  0  0
  187.2160  178.2260  137.2420 C   0  0  0  0  0  2  0  0  0  0  0  0
  185.9260  177.8780  137.9860 C   0  0  2  0  0  3  0  0  0  0  0  0
  185.1660  176.7890  137.2340 C   0  0  0  0  0  0  0  0  0  0  0  0
  182.9210  178.9710  144.1470 C   0  0  0  0  0  3  0  0  0  0  0  0
  183.5390  178.3360  141.4880 C   0  0  0  0  0  0  0  0  0  0  0  0
  184.5370  178.3090  142.4670 C   0  0  0  0  0  3  0  0  0  0  0  0
  184.2290  178.6240  143.7950 C   0  0  0  0  0  3  0  0  0  0  0  0
  181.9200  179.0020  143.1720 C   0  0  0  0  0  3  0  0  0  0  0  0
  182.2260  178.6860  141.8450 C   0  0  0  0  0  3  0  0  0  0  0  0
  1 12  1  0  0  0  0
  2  6  1  6  0  0  0
  2 12  1  0  0  0  0
  3 21  2  0  0  0  0
  4 14  2  0  0  0  0
  5 13  2  0  0  0  0
  7 13  1  0  0  0  0
  7 11  2  0  0  0  0
  8 17  2  0  0  0  0
  8 10  1  0  0  0  0
  9  7  1  0  0  0  0
 10 19  1  0  0  0  0
 11 16  1  0  0  0  0
 11 14  1  0  0  0  0
 12 23  1  1  0  0  0
 13  4  1  0  0  0  0
 14 18  1  0  0  0  0
 15  1  2  0  0  0  0
 16  3  1  6  0  0  0
 16  2  1  0  0  0  0
 17 21  1  0  0  0  0
 18  6  2  0  0  0  0
 20 19  1  6  0  0  0
 20 15  1  0  0  0  0
 21 20  1  0  0  0  0
 23 27  2  0  0  0  0
 23 24  1  0  0  0  0
 24 25  2  0  0  0  0
 25 22  1  0  0  0  0
 26 22  2  0  0  0  0
 27 26  1  0  0  0  0
M  END
>  <MODEL>
8

>  <REMARK>
 VINA RESULT:      -6.4      2.685      5.343
  Name = 
  1 active torsions:
  status: ('A' for Active; 'I' for Inactive)
    1  A    between atoms: C_9  and  C_15
                            x       y       z     vdW  Elec       q    Type
                         _______ _______ _______ _____ _____    ______ ____

>  <TORSDO>
F 1

$$$$
=
 OpenBabel11052413443D

 27 31  0  0  1  0  0  0  0  0999 V2000
  181.5240  179.0870  140.1320 C   0  0  0  0  0  3  0  0  0  0  0  0
  182.6830  177.1890  139.0550 C   0  0  1  0  0  3  0  0  0  0  0  0
  181.2650  177.6910  137.0510 N   0  0  0  0  0  0  0  0  0  0  0  0
  182.4600  173.6490  137.0600 N   0  0  0  0  0  0  0  0  0  0  0  0
  180.2930  172.2310  136.2970 S   0  0  0  0  0  0  0  0  0  0  0  0
  183.9180  176.6320  138.3630 C   0  0  0  0  0  3  0  0  0  0  0  0
  180.3850  174.6670  137.5840 C   0  0  0  0  0  0  0  0  0  0  0  0
  180.8320  180.7680  135.1240 C   0  0  0  0  0  3  0  0  0  0  0  0
  178.9310  174.9950  137.5700 C   0  0  0  0  0  1  0  0  0  0  0  0
  180.4340  181.6440  136.0470 C   0  0  0  0  0  2  0  0  0  0  0  0
  181.3710  175.4740  137.9300 C   0  0  0  0  0  0  0  0  0  0  0  0
  182.8500  178.5970  139.6330 C   0  0  2  0  0  3  0  0  0  0  0  0
  181.0410  173.4700  137.0580 C   0  0  0  0  0  0  0  0  0  0  0  0
  182.6180  174.8150  137.5940 C   0  0  0  0  0  0  0  0  0  0  0  0
  180.6650  179.6960  139.3110 C   0  0  0  0  0  3  0  0  0  0  0  0
  181.3530  176.9240  138.2930 C   0  0  1  0  0  3  0  0  0  0  0  0
  181.0460  179.3950  135.4710 N   0  0  0  0  0  0  0  0  0  0  0  0
  183.8710  175.4920  137.7270 N   0  0  0  0  0  0  0  0  0  0  0  0
  180.1080  181.1930  137.4410 C   0  0  0  0  0  2  0  0  0  0  0  0
  181.0230  180.0570  137.8980 C   0  0  2  0  0  3  0  0  0  0  0  0
  181.0680  178.9620  136.8360 C   0  0  0  0  0  0  0  0  0  0  0  0
  185.7320  178.6410  142.8250 C   0  0  0  0  0  3  0  0  0  0  0  0
  183.8660  178.6250  140.7340 C   0  0  0  0  0  0  0  0  0  0  0  0
  183.4790  178.2490  142.0250 C   0  0  0  0  0  3  0  0  0  0  0  0
  184.4100  178.2590  143.0690 C   0  0  0  0  0  3  0  0  0  0  0  0
  186.1250  179.0150  141.5370 C   0  0  0  0  0  3  0  0  0  0  0  0
  185.1960  179.0070  140.4920 C   0  0  0  0  0  3  0  0  0  0  0  0
  2  6  1  6  0  0  0
  2 12  1  0  0  0  0
  4 14  2  0  0  0  0
  5 13  2  0  0  0  0
  7 11  2  0  0  0  0
  8 17  2  0  0  0  0
  8 10  1  0  0  0  0
  9  7  1  0  0  0  0
 10 19  1  0  0  0  0
 11 16  1  0  0  0  0
 12  1  1  0  0  0  0
 12 23  1  1  0  0  0
 13  4  1  0  0  0  0
 13  7  1  0  0  0  0
 14 18  1  0  0  0  0
 14 11  1  0  0  0  0
 15  1  2  0  0  0  0
 16  3  1  6  0  0  0
 16  2  1  0  0  0  0
 17 21  1  0  0  0  0
 18  6  2  0  0  0  0
 20 19  1  6  0  0  0
 20 15  1  0  0  0  0
 21  3  2  0  0  0  0
 21 20  1  0  0  0  0
 22 25  1  0  0  0  0
 23 24  1  0  0  0  0
 24 25  2  0  0  0  0
 26 22  2  0  0  0  0
 27 23  2  0  0  0  0
 27 26  1  0  0  0  0
M  END
>  <MODEL>
9

>  <REMARK>
 VINA RESULT:      -6.0      2.620      3.627
  Name = 
  1 active torsions:
  status: ('A' for Active; 'I' for Inactive)
    1  A    between atoms: C_9  and  C_15
                            x       y       z     vdW  Elec       q    Type
                         _______ _______ _______ _____ _____    ______ ____

>  <TORSDO>
F 1

$$$$
