=
 OpenBabel11052412383D

 30 32  0  0  1  0  0  0  0  0999 V2000
  186.2100  177.4150  144.8500 C   0  0  2  0  0  3  0  0  0  0  0  0
  183.9370  178.9690  143.2150 C   0  0  2  0  0  3  0  0  0  0  0  0
  186.3980  179.4660  141.8110 O   0  0  0  0  0  1  0  0  0  0  0  0
  184.7680  177.9150  142.6050 N   0  0  0  0  0  0  0  0  0  0  0  0
  185.3240  178.4480  145.5430 C   0  0  0  0  0  2  0  0  0  0  0  0
  187.0930  176.7910  145.9210 C   0  0  0  0  0  1  0  0  0  0  0  0
  184.6570  180.1350  143.8850 C   0  0  0  0  0  2  0  0  0  0  0  0
  184.1430  178.9940  144.7320 C   0  0  1  0  0  0  0  0  0  0  0  0
  186.1970  178.2190  142.4140 C   0  0  2  0  0  3  0  0  0  0  0  0
  183.0420  179.4150  145.4770 O   0  0  0  0  0  1  0  0  0  0  0  0
  187.0230  178.0680  143.7050 C   0  0  2  0  0  3  0  0  0  0  0  0
  188.3470  177.3290  143.4200 C   0  0  1  0  0  3  0  0  0  0  0  0
  188.1270  176.1290  142.7390 O   0  0  0  0  0  1  0  0  0  0  0  0
  189.4180  178.1680  142.7130 C   0  0  2  0  0  3  0  0  0  0  0  0
  190.4610  175.7670  142.0730 O   0  0  0  0  0  0  0  0  0  0  0  0
  191.8220  177.7350  141.5800 O   0  0  0  0  0  0  0  0  0  0  0  0
  190.4210  177.1930  141.5970 S   0  0  0  0  0  0  0  0  0  0  0  0
  189.7580  177.2480  139.9690 C   0  0  0  0  0  0  0  0  0  0  0  0
  188.7790  178.0980  139.6770 C   0  0  0  0  0  2  0  0  0  0  0  0
  190.3420  176.1420  138.7380 Cl  0  0  0  0  0  0  0  0  0  0  0  0
  190.2280  178.8460  143.6280 O   0  0  0  0  0  0  0  0  0  0  0  0
  190.2020  178.0610  144.7810 C   0  0  0  0  0  2  0  0  0  0  0  0
  191.5640  176.5220  146.5640 S   0  0  0  0  0  1  0  0  0  0  0  0
  191.6030  177.5780  145.0920 C   0  0  0  0  0  2  0  0  0  0  0  0
  184.1910  177.6080  141.3050 C   0  0  0  0  0  2  0  0  0  0  0  0
  183.0150  178.4910  141.0530 C   0  0  0  0  0  3  0  0  0  0  0  0
  182.7610  178.9200  139.8210 C   0  0  0  0  0  3  0  0  0  0  0  0
  181.5870  179.8020  139.5660 C   0  0  0  0  0  3  0  0  0  0  0  0
  181.8860  180.7000  138.3840 C   0  0  0  0  0  2  0  0  0  0  0  0
  181.0130  179.4790  138.2030 C   0  0  0  0  0  2  0  0  0  0  0  0
  1  5  1  0  0  0  0
  1  6  1  1  0  0  0
  2  7  1  6  0  0  0
  2  8  1  0  0  0  0
  4  2  1  0  0  0  0
  7  8  1  0  0  0  0
  8 10  1  1  0  0  0
  8  5  1  0  0  0  0
  9  3  1  1  0  0  0
  9  4  1  0  0  0  0
  9 11  1  0  0  0  0
 11 12  1  6  0  0  0
 11  1  1  0  0  0  0
 12 13  1  6  0  0  0
 14 12  1  0  0  0  0
 14 21  1  1  0  0  0
 16 17  2  0  0  0  0
 17 15  2  0  0  0  0
 17 14  1  0  0  0  0
 18 17  1  0  0  0  0
 19 18  2  0  0  0  0
 20 18  1  0  0  0  0
 21 22  1  0  0  0  0
 22 24  1  0  0  0  0
 24 23  1  0  0  0  0
 25  4  1  0  0  0  0
 26 25  1  0  0  0  0
 27 26  2  0  0  0  0
 28 27  1  0  0  0  0
 29 28  1  0  0  0  0
 30 29  1  0  0  0  0
 30 28  1  0  0  0  0
M  END
>  <MODEL>
1

>  <REMARK>
 VINA RESULT:      -6.5      0.000      0.000
  Name = 
  10 active torsions:
  status: ('A' for Active; 'I' for Inactive)
    1  A    between atoms: C_1  and  C_4
    2  A    between atoms: C_1  and  C_29
    3  A    between atoms: C_4  and  O_5
    4  A    between atoms: C_4  and  S_12
    5  A    between atoms: O_5  and  C_21
    6  A    between atoms: C_10  and  C_25
    7  A    between atoms: N_11  and  C_24
    8  A    between atoms: S_12  and  C_13
    9  A    between atoms: C_15  and  C_24
   10  A    between atoms: C_17  and  C_21
                            x       y       z     vdW  Elec       q    Type
                         _______ _______ _______ _____ _____    ______ ____

>  <TORSDO>
F 10

$$$$
=
 OpenBabel11052412383D

 30 32  0  0  1  0  0  0  0  0999 V2000
  189.2770  178.3170  140.1520 C   0  0  2  0  0  3  0  0  0  0  0  0
  189.0020  177.7440  143.2910 C   0  0  2  0  0  3  0  0  0  0  0  0
  190.9000  175.8230  142.3010 O   0  0  0  0  0  1  0  0  0  0  0  0
  190.2870  178.1000  142.6630 N   0  0  0  0  0  0  0  0  0  0  0  0
  187.9120  178.0240  140.7710 C   0  0  0  0  0  2  0  0  0  0  0  0
  189.0420  178.6530  138.6870 C   0  0  0  0  0  1  0  0  0  0  0  0
  188.2410  176.5550  142.7140 C   0  0  0  0  0  2  0  0  0  0  0  0
  187.8520  177.9560  142.3010 C   0  0  1  0  0  0  0  0  0  0  0  0
  190.8800  177.1090  141.7480 C   0  0  2  0  0  3  0  0  0  0  0  0
  186.6280  178.2960  142.8740 O   0  0  0  0  0  1  0  0  0  0  0  0
  190.2380  177.1190  140.3480 C   0  0  2  0  0  3  0  0  0  0  0  0
  191.3220  177.0410  139.2530 C   0  0  1  0  0  3  0  0  0  0  0  0
  192.6040  177.1820  139.7910 O   0  0  0  0  0  1  0  0  0  0  0  0
  191.2430  175.8040  138.3500 C   0  0  2  0  0  3  0  0  0  0  0  0
  193.5350  176.8730  137.4190 O   0  0  0  0  0  0  0  0  0  0  0  0
  192.0140  175.9000  135.7720 O   0  0  0  0  0  0  0  0  0  0  0  0
  192.5750  175.7450  137.1580 S   0  0  0  0  0  0  0  0  0  0  0  0
  193.4310  174.2120  137.2680 C   0  0  0  0  0  0  0  0  0  0  0  0
  194.5060  174.1040  138.0430 C   0  0  0  0  0  2  0  0  0  0  0  0
  192.9080  172.8350  136.3130 Cl  0  0  0  0  0  0  0  0  0  0  0  0
  190.0070  175.7170  137.7040 O   0  0  0  0  0  0  0  0  0  0  0  0
  189.8380  174.3590  137.4350 C   0  0  0  0  0  2  0  0  0  0  0  0
  187.8120  175.7640  136.2850 S   0  0  0  0  0  1  0  0  0  0  0  0
  188.6460  174.1720  136.5220 C   0  0  0  0  0  2  0  0  0  0  0  0
  191.2360  178.3540  143.7360 C   0  0  0  0  0  2  0  0  0  0  0  0
  190.7850  177.6710  144.9830 C   0  0  0  0  0  3  0  0  0  0  0  0
  191.6090  176.8490  145.6230 C   0  0  0  0  0  3  0  0  0  0  0  0
  191.1600  176.1650  146.8690 C   0  0  0  0  0  3  0  0  0  0  0  0
  192.3710  175.6270  147.6050 C   0  0  0  0  0  2  0  0  0  0  0  0
  191.7130  176.9080  148.0670 C   0  0  0  0  0  2  0  0  0  0  0  0
  1  6  1  6  0  0  0
  1 11  1  0  0  0  0
  1  5  1  0  0  0  0
  2  7  1  6  0  0  0
  4  2  1  0  0  0  0
  4 25  1  0  0  0  0
  5  8  1  0  0  0  0
  8  7  1  0  0  0  0
  8 10  1  1  0  0  0
  8  2  1  0  0  0  0
  9  3  1  1  0  0  0
  9  4  1  0  0  0  0
 11 12  1  6  0  0  0
 11  9  1  0  0  0  0
 12 13  1  1  0  0  0
 14 21  1  6  0  0  0
 14 12  1  0  0  0  0
 16 17  2  0  0  0  0
 17 18  1  0  0  0  0
 17 15  2  0  0  0  0
 17 14  1  0  0  0  0
 18 19  2  0  0  0  0
 20 18  1  0  0  0  0
 22 21  1  0  0  0  0
 23 24  1  0  0  0  0
 24 22  1  0  0  0  0
 25 26  1  0  0  0  0
 26 27  2  0  0  0  0
 27 28  1  0  0  0  0
 28 29  1  0  0  0  0
 28 30  1  0  0  0  0
 29 30  1  0  0  0  0
M  END
>  <MODEL>
2

>  <REMARK>
 VINA RESULT:      -6.4      4.226      7.715
  Name = 
  10 active torsions:
  status: ('A' for Active; 'I' for Inactive)
    1  A    between atoms: C_1  and  C_4
    2  A    between atoms: C_1  and  C_29
    3  A    between atoms: C_4  and  O_5
    4  A    between atoms: C_4  and  S_12
    5  A    between atoms: O_5  and  C_21
    6  A    between atoms: C_10  and  C_25
    7  A    between atoms: N_11  and  C_24
    8  A    between atoms: S_12  and  C_13
    9  A    between atoms: C_15  and  C_24
   10  A    between atoms: C_17  and  C_21
                            x       y       z     vdW  Elec       q    Type
                         _______ _______ _______ _____ _____    ______ ____

>  <TORSDO>
F 10

$$$$
=
 OpenBabel11052412383D

 30 32  0  0  1  0  0  0  0  0999 V2000
  187.1930  178.4650  141.3930 C   0  0  2  0  0  3  0  0  0  0  0  0
  188.7590  177.3790  143.9670 C   0  0  2  0  0  3  0  0  0  0  0  0
  190.0340  176.1610  141.6940 O   0  0  0  0  0  1  0  0  0  0  0  0
  189.4310  178.1330  142.8930 N   0  0  0  0  0  0  0  0  0  0  0  0
  186.4420  177.7520  142.5160 C   0  0  0  0  0  2  0  0  0  0  0  0
  186.1520  178.9470  140.3930 C   0  0  0  0  0  1  0  0  0  0  0  0
  187.9680  176.1380  143.5670 C   0  0  0  0  0  2  0  0  0  0  0  0
  187.2390  177.4430  143.7880 C   0  0  1  0  0  0  0  0  0  0  0  0
  189.5490  177.4690  141.5830 C   0  0  2  0  0  3  0  0  0  0  0  0
  186.4970  177.3780  144.9660 O   0  0  0  0  0  1  0  0  0  0  0  0
  188.2500  177.5280  140.7580 C   0  0  2  0  0  3  0  0  0  0  0  0
  188.5550  177.8880  139.2890 C   0  0  1  0  0  3  0  0  0  0  0  0
  189.8750  178.3190  139.1320 O   0  0  0  0  0  1  0  0  0  0  0  0
  188.2150  176.7930  138.2700 C   0  0  2  0  0  3  0  0  0  0  0  0
  190.5440  175.5130  138.7160 O   0  0  0  0  0  0  0  0  0  0  0  0
  190.4560  177.0180  136.7940 O   0  0  0  0  0  0  0  0  0  0  0  0
  189.6770  176.0130  137.5950 S   0  0  0  0  0  0  0  0  0  0  0  0
  189.2290  174.6660  136.5560 C   0  0  0  0  0  0  0  0  0  0  0  0
  189.3940  173.4160  136.9790 C   0  0  0  0  0  2  0  0  0  0  0  0
  188.6200  174.9610  134.9360 Cl  0  0  0  0  0  0  0  0  0  0  0  0
  187.4050  177.2810  137.2420 O   0  0  0  0  0  0  0  0  0  0  0  0
  186.1930  176.6080  137.3900 C   0  0  0  0  0  2  0  0  0  0  0  0
  185.2360  176.9020  134.8600 S   0  0  0  0  0  1  0  0  0  0  0  0
  185.1150  177.3360  136.6150 C   0  0  0  0  0  2  0  0  0  0  0  0
  190.7710  178.4520  143.3630 C   0  0  0  0  0  2  0  0  0  0  0  0
  190.8530  178.2430  144.8380 C   0  0  0  0  0  3  0  0  0  0  0  0
  191.5710  177.2380  145.3260 C   0  0  0  0  0  3  0  0  0  0  0  0
  191.6550  177.0270  146.7990 C   0  0  0  0  0  3  0  0  0  0  0  0
  190.7180  175.9040  147.1950 C   0  0  0  0  0  2  0  0  0  0  0  0
  192.2020  175.6420  147.0690 C   0  0  0  0  0  2  0  0  0  0  0  0
  1  6  1  6  0  0  0
  1  5  1  0  0  0  0
  2  7  1  6  0  0  0
  4 25  1  0  0  0  0
  4  2  1  0  0  0  0
  5  8  1  0  0  0  0
  7  8  1  0  0  0  0
  8  2  1  0  0  0  0
  8 10  1  1  0  0  0
  9  3  1  1  0  0  0
  9  4  1  0  0  0  0
 11 12  1  6  0  0  0
 11  1  1  0  0  0  0
 11  9  1  0  0  0  0
 12 13  1  1  0  0  0
 14 21  1  6  0  0  0
 14 12  1  0  0  0  0
 16 17  2  0  0  0  0
 17 14  1  0  0  0  0
 17 15  2  0  0  0  0
 18 19  2  0  0  0  0
 18 17  1  0  0  0  0
 20 18  1  0  0  0  0
 21 22  1  0  0  0  0
 23 24  1  0  0  0  0
 24 22  1  0  0  0  0
 25 26  1  0  0  0  0
 26 27  2  0  0  0  0
 27 28  1  0  0  0  0
 28 30  1  0  0  0  0
 28 29  1  0  0  0  0
 30 29  1  0  0  0  0
M  END
>  <MODEL>
3

>  <REMARK>
 VINA RESULT:      -6.1      3.402      7.312
  Name = 
  10 active torsions:
  status: ('A' for Active; 'I' for Inactive)
    1  A    between atoms: C_1  and  C_4
    2  A    between atoms: C_1  and  C_29
    3  A    between atoms: C_4  and  O_5
    4  A    between atoms: C_4  and  S_12
    5  A    between atoms: O_5  and  C_21
    6  A    between atoms: C_10  and  C_25
    7  A    between atoms: N_11  and  C_24
    8  A    between atoms: S_12  and  C_13
    9  A    between atoms: C_15  and  C_24
   10  A    between atoms: C_17  and  C_21
                            x       y       z     vdW  Elec       q    Type
                         _______ _______ _______ _____ _____    ______ ____

>  <TORSDO>
F 10

$$$$
=
 OpenBabel11052412383D

 30 32  0  0  1  0  0  0  0  0999 V2000
  187.1590  178.5390  141.5640 C   0  0  2  0  0  3  0  0  0  0  0  0
  189.0570  177.1040  143.7070 C   0  0  2  0  0  3  0  0  0  0  0  0
  190.0890  176.3720  141.1240 O   0  0  0  0  0  1  0  0  0  0  0  0
  189.5710  178.0690  142.7190 N   0  0  0  0  0  0  0  0  0  0  0  0
  186.5710  177.6020  142.6170 C   0  0  0  0  0  2  0  0  0  0  0  0
  185.9910  179.1320  140.7900 C   0  0  0  0  0  1  0  0  0  0  0  0
  188.2640  175.9120  143.1820 C   0  0  0  0  0  2  0  0  0  0  0  0
  187.5250  177.1180  143.7150 C   0  0  1  0  0  0  0  0  0  0  0  0
  189.5510  177.6510  141.3060 C   0  0  2  0  0  3  0  0  0  0  0  0
  186.9330  176.8090  144.9380 O   0  0  0  0  0  1  0  0  0  0  0  0
  188.1620  177.7850  140.6550 C   0  0  2  0  0  3  0  0  0  0  0  0
  188.2770  178.4120  139.2500 C   0  0  1  0  0  3  0  0  0  0  0  0
  189.2880  179.3750  139.2010 O   0  0  0  0  0  1  0  0  0  0  0  0
  188.4270  177.4050  138.1030 C   0  0  2  0  0  3  0  0  0  0  0  0
  188.0620  177.4150  135.4330 O   0  0  0  0  0  0  0  0  0  0  0  0
  187.0930  179.2710  136.6920 O   0  0  0  0  0  0  0  0  0  0  0  0
  187.3700  177.7940  136.7130 S   0  0  0  0  0  0  0  0  0  0  0  0
  185.8490  176.9210  136.8350 C   0  0  0  0  0  0  0  0  0  0  0  0
  184.8810  177.3760  137.6250 C   0  0  0  0  0  2  0  0  0  0  0  0
  185.6200  175.4140  135.9640 Cl  0  0  0  0  0  0  0  0  0  0  0  0
  188.2010  176.0950  138.5340 O   0  0  0  0  0  0  0  0  0  0  0  0
  189.1090  175.3190  137.8150 C   0  0  0  0  0  2  0  0  0  0  0  0
  191.7710  174.8330  137.5340 S   0  0  0  0  0  1  0  0  0  0  0  0
  190.4370  176.0420  137.7350 C   0  0  0  0  0  2  0  0  0  0  0  0
  190.9460  178.3720  143.0840 C   0  0  0  0  0  2  0  0  0  0  0  0
  191.1060  178.2860  144.5650 C   0  0  0  0  0  3  0  0  0  0  0  0
  191.5480  177.1630  145.1210 C   0  0  0  0  0  3  0  0  0  0  0  0
  191.7080  177.0750  146.5990 C   0  0  0  0  0  3  0  0  0  0  0  0
  190.6660  176.1280  147.1580 C   0  0  0  0  0  2  0  0  0  0  0  0
  192.0910  175.6580  146.9710 C   0  0  0  0  0  2  0  0  0  0  0  0
  1  6  1  6  0  0  0
  1  5  1  0  0  0  0
  2  7  1  6  0  0  0
  2  8  1  0  0  0  0
  4 25  1  0  0  0  0
  4  2  1  0  0  0  0
  5  8  1  0  0  0  0
  7  8  1  0  0  0  0
  8 10  1  1  0  0  0
  9  3  1  1  0  0  0
  9  4  1  0  0  0  0
 11 12  1  6  0  0  0
 11  9  1  0  0  0  0
 11  1  1  0  0  0  0
 12 13  1  1  0  0  0
 14 21  1  1  0  0  0
 14 12  1  0  0  0  0
 15 17  2  0  0  0  0
 16 17  2  0  0  0  0
 17 18  1  0  0  0  0
 17 14  1  0  0  0  0
 18 19  2  0  0  0  0
 20 18  1  0  0  0  0
 22 21  1  0  0  0  0
 23 24  1  0  0  0  0
 24 22  1  0  0  0  0
 25 26  1  0  0  0  0
 26 27  2  0  0  0  0
 27 28  1  0  0  0  0
 28 30  1  0  0  0  0
 28 29  1  0  0  0  0
 30 29  1  0  0  0  0
M  END
>  <MODEL>
4

>  <REMARK>
 VINA RESULT:      -5.9      3.520      7.127
  Name = 
  10 active torsions:
  status: ('A' for Active; 'I' for Inactive)
    1  A    between atoms: C_1  and  C_4
    2  A    between atoms: C_1  and  C_29
    3  A    between atoms: C_4  and  O_5
    4  A    between atoms: C_4  and  S_12
    5  A    between atoms: O_5  and  C_21
    6  A    between atoms: C_10  and  C_25
    7  A    between atoms: N_11  and  C_24
    8  A    between atoms: S_12  and  C_13
    9  A    between atoms: C_15  and  C_24
   10  A    between atoms: C_17  and  C_21
                            x       y       z     vdW  Elec       q    Type
                         _______ _______ _______ _____ _____    ______ ____

>  <TORSDO>
F 10

$$$$
=
 OpenBabel11052412383D

 30 32  0  0  1  0  0  0  0  0999 V2000
  186.7140  177.1140  143.9360 C   0  0  2  0  0  3  0  0  0  0  0  0
  184.1150  178.9310  144.3820 C   0  0  2  0  0  3  0  0  0  0  0  0
  185.6310  180.2190  142.3050 O   0  0  0  0  0  1  0  0  0  0  0  0
  184.4310  178.3100  143.0840 N   0  0  0  0  0  0  0  0  0  0  0  0
  186.3890  177.6760  145.3180 C   0  0  0  0  0  2  0  0  0  0  0  0
  187.9320  176.2150  144.0940 C   0  0  0  0  0  1  0  0  0  0  0  0
  185.1890  179.8020  145.0270 C   0  0  0  0  0  2  0  0  0  0  0  0
  185.0290  178.3680  145.4750 C   0  0  1  0  0  0  0  0  0  0  0  0
  185.6140  178.8210  142.3690 C   0  0  2  0  0  3  0  0  0  0  0  0
  184.4760  178.3300  146.7540 O   0  0  0  0  0  1  0  0  0  0  0  0
  186.9390  178.2570  142.9160 C   0  0  2  0  0  3  0  0  0  0  0  0
  187.8730  177.8460  141.7590 C   0  0  1  0  0  3  0  0  0  0  0  0
  187.3700  178.2600  140.5230 O   0  0  0  0  0  1  0  0  0  0  0  0
  189.3360  178.2760  141.9230 C   0  0  2  0  0  3  0  0  0  0  0  0
  190.3680  175.8120  141.5720 O   0  0  0  0  0  0  0  0  0  0  0  0
  191.8700  177.7050  141.2150 O   0  0  0  0  0  0  0  0  0  0  0  0
  190.4630  177.2110  141.0310 S   0  0  0  0  0  0  0  0  0  0  0  0
  190.0730  177.2030  139.3160 C   0  0  0  0  0  0  0  0  0  0  0  0
  190.2730  176.1050  138.5930 C   0  0  0  0  0  2  0  0  0  0  0  0
  189.4720  178.6570  138.5380 Cl  0  0  0  0  0  0  0  0  0  0  0  0
  189.7010  178.3520  143.2700 O   0  0  0  0  0  0  0  0  0  0  0  0
  190.6300  179.3910  143.3310 C   0  0  0  0  0  2  0  0  0  0  0  0
  191.4470  177.3520  144.9360 S   0  0  0  0  0  1  0  0  0  0  0  0
  191.7190  179.0340  144.3210 C   0  0  0  0  0  2  0  0  0  0  0  0
  183.2700  178.4880  142.2260 C   0  0  0  0  0  2  0  0  0  0  0  0
  183.5340  177.8900  140.8850 C   0  0  0  0  0  3  0  0  0  0  0  0
  182.5430  177.7560  140.0110 C   0  0  0  0  0  3  0  0  0  0  0  0
  182.8050  177.1580  138.6710 C   0  0  0  0  0  3  0  0  0  0  0  0
  182.4820  178.1790  137.5990 C   0  0  0  0  0  2  0  0  0  0  0  0
  183.9190  177.9290  137.9960 C   0  0  0  0  0  2  0  0  0  0  0  0
  1  6  1  1  0  0  0
  1  5  1  0  0  0  0
  2  7  1  6  0  0  0
  2  8  1  0  0  0  0
  4  2  1  0  0  0  0
  5  8  1  0  0  0  0
  7  8  1  0  0  0  0
  8 10  1  1  0  0  0
  9  3  1  1  0  0  0
  9 11  1  0  0  0  0
  9  4  1  0  0  0  0
 11 12  1  6  0  0  0
 11  1  1  0  0  0  0
 12 13  1  6  0  0  0
 12 14  1  0  0  0  0
 14 21  1  1  0  0  0
 17 16  2  0  0  0  0
 17 15  2  0  0  0  0
 17 14  1  0  0  0  0
 18 17  1  0  0  0  0
 19 18  2  0  0  0  0
 20 18  1  0  0  0  0
 21 22  1  0  0  0  0
 22 24  1  0  0  0  0
 24 23  1  0  0  0  0
 25  4  1  0  0  0  0
 26 25  1  0  0  0  0
 27 26  2  0  0  0  0
 28 27  1  0  0  0  0
 29 30  1  0  0  0  0
 29 28  1  0  0  0  0
 30 28  1  0  0  0  0
M  END
>  <MODEL>
5

>  <REMARK>
 VINA RESULT:      -5.7      1.451      1.759
  Name = 
  10 active torsions:
  status: ('A' for Active; 'I' for Inactive)
    1  A    between atoms: C_1  and  C_4
    2  A    between atoms: C_1  and  C_29
    3  A    between atoms: C_4  and  O_5
    4  A    between atoms: C_4  and  S_12
    5  A    between atoms: O_5  and  C_21
    6  A    between atoms: C_10  and  C_25
    7  A    between atoms: N_11  and  C_24
    8  A    between atoms: S_12  and  C_13
    9  A    between atoms: C_15  and  C_24
   10  A    between atoms: C_17  and  C_21
                            x       y       z     vdW  Elec       q    Type
                         _______ _______ _______ _____ _____    ______ ____

>  <TORSDO>
F 10

$$$$
=
 OpenBabel11052412383D

 30 32  0  0  1  0  0  0  0  0999 V2000
  185.5890  179.3970  144.4770 C   0  0  2  0  0  3  0  0  0  0  0  0
  187.9280  177.5060  145.5760 C   0  0  2  0  0  3  0  0  0  0  0  0
  187.3350  176.5670  142.9230 O   0  0  0  0  0  1  0  0  0  0  0  0
  188.0790  178.3220  144.3580 N   0  0  0  0  0  0  0  0  0  0  0  0
  185.4140  178.6270  145.7840 C   0  0  0  0  0  2  0  0  0  0  0  0
  184.3570  180.2740  144.3070 C   0  0  0  0  0  1  0  0  0  0  0  0
  186.7350  176.5580  145.6470 C   0  0  0  0  0  2  0  0  0  0  0  0
  186.6540  177.9050  146.3270 C   0  0  1  0  0  0  0  0  0  0  0  0
  187.2620  177.9390  143.1930 C   0  0  2  0  0  3  0  0  0  0  0  0
  186.7010  177.7420  147.7100 O   0  0  0  0  0  1  0  0  0  0  0  0
  185.8040  178.4260  143.2900 C   0  0  2  0  0  3  0  0  0  0  0  0
  185.3380  179.0180  141.9450 C   0  0  1  0  0  3  0  0  0  0  0  0
  186.3340  179.8030  141.3580 O   0  0  0  0  0  1  0  0  0  0  0  0
  184.7890  177.9960  140.9420 C   0  0  2  0  0  3  0  0  0  0  0  0
  186.1400  178.4790  138.6620 O   0  0  0  0  0  0  0  0  0  0  0  0
  184.4050  180.0820  139.2830 O   0  0  0  0  0  0  0  0  0  0  0  0
  184.7720  178.6250  139.2670 S   0  0  0  0  0  0  0  0  0  0  0  0
  183.6040  177.7440  138.2920 C   0  0  0  0  0  0  0  0  0  0  0  0
  183.8460  176.4860  137.9390 C   0  0  0  0  0  2  0  0  0  0  0  0
  182.1420  178.5370  137.7300 Cl  0  0  0  0  0  0  0  0  0  0  0  0
  183.5150  177.5510  141.3070 O   0  0  0  0  0  0  0  0  0  0  0  0
  182.8160  178.7070  141.6520 C   0  0  0  0  0  2  0  0  0  0  0  0
  180.3400  179.5630  142.3860 S   0  0  0  0  0  1  0  0  0  0  0  0
  181.3560  178.5380  141.2900 C   0  0  0  0  0  2  0  0  0  0  0  0
  189.4800  178.2640  143.9700 C   0  0  0  0  0  2  0  0  0  0  0  0
  190.1570  177.1460  144.6870 C   0  0  0  0  0  3  0  0  0  0  0  0
  191.1690  177.4010  145.5090 C   0  0  0  0  0  3  0  0  0  0  0  0
  191.8480  176.2860  146.2270 C   0  0  0  0  0  3  0  0  0  0  0  0
  192.0000  176.6530  147.6890 C   0  0  0  0  0  2  0  0  0  0  0  0
  190.8990  175.7110  147.2570 C   0  0  0  0  0  2  0  0  0  0  0  0
  1  6  1  6  0  0  0
  1  5  1  0  0  0  0
  2  7  1  6  0  0  0
  2  8  1  0  0  0  0
  4  2  1  0  0  0  0
  5  8  1  0  0  0  0
  7  8  1  0  0  0  0
  8 10  1  1  0  0  0
  9  3  1  1  0  0  0
  9 11  1  0  0  0  0
  9  4  1  0  0  0  0
 11 12  1  6  0  0  0
 11  1  1  0  0  0  0
 12 13  1  6  0  0  0
 14 21  1  1  0  0  0
 14 12  1  0  0  0  0
 15 17  2  0  0  0  0
 17 16  2  0  0  0  0
 17 14  1  0  0  0  0
 18 17  1  0  0  0  0
 19 18  2  0  0  0  0
 20 18  1  0  0  0  0
 21 22  1  0  0  0  0
 24 22  1  0  0  0  0
 24 23  1  0  0  0  0
 25  4  1  0  0  0  0
 25 26  1  0  0  0  0
 26 27  2  0  0  0  0
 27 28  1  0  0  0  0
 28 30  1  0  0  0  0
 28 29  1  0  0  0  0
 30 29  1  0  0  0  0
M  END
>  <MODEL>
6

>  <REMARK>
 VINA RESULT:      -5.7      3.547      7.378
  Name = 
  10 active torsions:
  status: ('A' for Active; 'I' for Inactive)
    1  A    between atoms: C_1  and  C_4
    2  A    between atoms: C_1  and  C_29
    3  A    between atoms: C_4  and  O_5
    4  A    between atoms: C_4  and  S_12
    5  A    between atoms: O_5  and  C_21
    6  A    between atoms: C_10  and  C_25
    7  A    between atoms: N_11  and  C_24
    8  A    between atoms: S_12  and  C_13
    9  A    between atoms: C_15  and  C_24
   10  A    between atoms: C_17  and  C_21
                            x       y       z     vdW  Elec       q    Type
                         _______ _______ _______ _____ _____    ______ ____

>  <TORSDO>
F 10

$$$$
=
 OpenBabel11052412383D

 30 32  0  0  1  0  0  0  0  0999 V2000
  190.7910  176.7570  140.5900 C   0  0  2  0  0  3  0  0  0  0  0  0
  189.6530  177.7760  143.4050 C   0  0  2  0  0  3  0  0  0  0  0  0
  187.8860  178.8470  141.4040 O   0  0  0  0  0  1  0  0  0  0  0  0
  188.8540  176.9510  142.4810 N   0  0  0  0  0  0  0  0  0  0  0  0
  191.6820  177.5470  141.5460 C   0  0  0  0  0  2  0  0  0  0  0  0
  191.6620  176.3340  139.4150 C   0  0  0  0  0  1  0  0  0  0  0  0
  190.2580  179.0640  142.8550 C   0  0  0  0  0  2  0  0  0  0  0  0
  191.1140  177.8220  142.9440 C   0  0  1  0  0  0  0  0  0  0  0  0
  188.4430  177.5770  141.2120 C   0  0  2  0  0  3  0  0  0  0  0  0
  192.0560  177.9670  143.9610 O   0  0  0  0  0  1  0  0  0  0  0  0
  189.5650  177.5980  140.1580 C   0  0  2  0  0  3  0  0  0  0  0  0
  189.0190  177.1870  138.7750 C   0  0  1  0  0  3  0  0  0  0  0  0
  187.7650  176.5810  138.8790 O   0  0  0  0  0  1  0  0  0  0  0  0
  188.9990  178.3060  137.7270 C   0  0  2  0  0  3  0  0  0  0  0  0
  187.3120  180.1040  136.6400 O   0  0  0  0  0  0  0  0  0  0  0  0
  186.4010  178.6280  138.3600 O   0  0  0  0  0  0  0  0  0  0  0  0
  187.3400  178.7050  137.1890 S   0  0  0  0  0  0  0  0  0  0  0  0
  186.8100  177.5790  135.9470 C   0  0  0  0  0  0  0  0  0  0  0  0
  186.9750  177.8780  134.6620 C   0  0  0  0  0  2  0  0  0  0  0  0
  186.0080  176.0820  136.3920 Cl  0  0  0  0  0  0  0  0  0  0  0  0
  189.8050  177.9980  136.6290 O   0  0  0  0  0  0  0  0  0  0  0  0
  189.9390  176.6100  136.6600 C   0  0  0  0  0  2  0  0  0  0  0  0
  189.2540  174.8060  134.7420 S   0  0  0  0  0  1  0  0  0  0  0  0
  190.3760  176.1170  135.2970 C   0  0  0  0  0  2  0  0  0  0  0  0
  187.6540  176.5420  143.1960 C   0  0  0  0  0  2  0  0  0  0  0  0
  187.3870  177.4880  144.3170 C   0  0  0  0  0  3  0  0  0  0  0  0
  186.1520  177.9320  144.5310 C   0  0  0  0  0  3  0  0  0  0  0  0
  185.8820  178.8770  145.6510 C   0  0  0  0  0  3  0  0  0  0  0  0
  184.8780  178.2530  146.5980 C   0  0  0  0  0  2  0  0  0  0  0  0
  186.3500  178.2530  146.9480 C   0  0  0  0  0  2  0  0  0  0  0  0
  1  6  1  6  0  0  0
  1  5  1  0  0  0  0
  2  7  1  6  0  0  0
  4 25  1  0  0  0  0
  4  2  1  0  0  0  0
  5  8  1  0  0  0  0
  7  8  1  0  0  0  0
  8  2  1  0  0  0  0
  8 10  1  1  0  0  0
  9  3  1  1  0  0  0
  9  4  1  0  0  0  0
 11 12  1  6  0  0  0
 11  1  1  0  0  0  0
 11  9  1  0  0  0  0
 12 13  1  1  0  0  0
 14 21  1  6  0  0  0
 14 12  1  0  0  0  0
 15 17  2  0  0  0  0
 17 14  1  0  0  0  0
 17 16  2  0  0  0  0
 18 20  1  0  0  0  0
 18 17  1  0  0  0  0
 19 18  2  0  0  0  0
 21 22  1  0  0  0  0
 23 24  1  0  0  0  0
 24 22  1  0  0  0  0
 25 26  1  0  0  0  0
 26 27  2  0  0  0  0
 27 28  1  0  0  0  0
 28 29  1  0  0  0  0
 28 30  1  0  0  0  0
 29 30  1  0  0  0  0
M  END
>  <MODEL>
7

>  <REMARK>
 VINA RESULT:      -5.5      4.049      6.773
  Name = 
  10 active torsions:
  status: ('A' for Active; 'I' for Inactive)
    1  A    between atoms: C_1  and  C_4
    2  A    between atoms: C_1  and  C_29
    3  A    between atoms: C_4  and  O_5
    4  A    between atoms: C_4  and  S_12
    5  A    between atoms: O_5  and  C_21
    6  A    between atoms: C_10  and  C_25
    7  A    between atoms: N_11  and  C_24
    8  A    between atoms: S_12  and  C_13
    9  A    between atoms: C_15  and  C_24
   10  A    between atoms: C_17  and  C_21
                            x       y       z     vdW  Elec       q    Type
                         _______ _______ _______ _____ _____    ______ ____

>  <TORSDO>
F 10

$$$$
=
 OpenBabel11052412383D

 30 32  0  0  1  0  0  0  0  0999 V2000
  186.4680  177.2840  143.7600 C   0  0  2  0  0  3  0  0  0  0  0  0
  183.8260  179.0600  143.4080 C   0  0  2  0  0  3  0  0  0  0  0  0
  185.6360  179.9200  141.3450 O   0  0  0  0  0  1  0  0  0  0  0  0
  184.3370  178.1830  142.3390 N   0  0  0  0  0  0  0  0  0  0  0  0
  185.9340  178.1200  144.9210 C   0  0  0  0  0  2  0  0  0  0  0  0
  187.6500  176.4850  144.2900 C   0  0  0  0  0  1  0  0  0  0  0  0
  184.7870  180.0880  143.9960 C   0  0  0  0  0  2  0  0  0  0  0  0
  184.5650  178.7800  144.7200 C   0  0  1  0  0  0  0  0  0  0  0  0
  185.6130  178.5700  141.7120 C   0  0  2  0  0  3  0  0  0  0  0  0
  183.8240  179.0000  145.8800 O   0  0  0  0  0  1  0  0  0  0  0  0
  186.8420  178.1860  142.5580 C   0  0  2  0  0  3  0  0  0  0  0  0
  187.9420  177.5680  141.6710 C   0  0  1  0  0  3  0  0  0  0  0  0
  187.6210  177.6680  140.3150 O   0  0  0  0  0  1  0  0  0  0  0  0
  189.3580  178.0920  141.9360 C   0  0  2  0  0  3  0  0  0  0  0  0
  190.6900  175.7900  141.5050 O   0  0  0  0  0  0  0  0  0  0  0  0
  191.9340  177.8680  141.1850 O   0  0  0  0  0  0  0  0  0  0  0  0
  190.5990  177.2040  141.0020 S   0  0  0  0  0  0  0  0  0  0  0  0
  190.1880  177.1920  139.2920 C   0  0  0  0  0  0  0  0  0  0  0  0
  190.3520  176.0840  138.5760 C   0  0  0  0  0  2  0  0  0  0  0  0
  189.6170  178.6550  138.5080 Cl  0  0  0  0  0  0  0  0  0  0  0  0
  189.6680  178.0720  143.2990 O   0  0  0  0  0  0  0  0  0  0  0  0
  190.4320  179.2190  143.5100 C   0  0  0  0  0  2  0  0  0  0  0  0
  191.4060  177.2720  145.1420 S   0  0  0  0  0  1  0  0  0  0  0  0
  191.6670  178.8600  144.3090 C   0  0  0  0  0  2  0  0  0  0  0  0
  183.3190  178.1300  141.3010 C   0  0  0  0  0  2  0  0  0  0  0  0
  182.0860  178.8290  141.7650 C   0  0  0  0  0  3  0  0  0  0  0  0
  180.9220  178.1860  141.7730 C   0  0  0  0  0  3  0  0  0  0  0  0
  179.6890  178.8820  142.2370 C   0  0  0  0  0  3  0  0  0  0  0  0
  179.5500  178.7040  143.7350 C   0  0  0  0  0  2  0  0  0  0  0  0
  180.0780  180.0050  143.1740 C   0  0  0  0  0  2  0  0  0  0  0  0
  1  6  1  1  0  0  0
  1  5  1  0  0  0  0
  2  7  1  6  0  0  0
  2  8  1  0  0  0  0
  4  2  1  0  0  0  0
  7  8  1  0  0  0  0
  8  5  1  0  0  0  0
  8 10  1  1  0  0  0
  9  3  1  1  0  0  0
  9  4  1  0  0  0  0
  9 11  1  0  0  0  0
 11 12  1  6  0  0  0
 11  1  1  0  0  0  0
 12 13  1  6  0  0  0
 12 14  1  0  0  0  0
 14 21  1  1  0  0  0
 17 16  2  0  0  0  0
 17 15  2  0  0  0  0
 17 14  1  0  0  0  0
 18 17  1  0  0  0  0
 19 18  2  0  0  0  0
 20 18  1  0  0  0  0
 21 22  1  0  0  0  0
 22 24  1  0  0  0  0
 24 23  1  0  0  0  0
 25 26  1  0  0  0  0
 25  4  1  0  0  0  0
 26 27  2  0  0  0  0
 27 28  1  0  0  0  0
 28 30  1  0  0  0  0
 28 29  1  0  0  0  0
 30 29  1  0  0  0  0
M  END
>  <MODEL>
8

>  <REMARK>
 VINA RESULT:      -5.5      1.751      2.109
  Name = 
  10 active torsions:
  status: ('A' for Active; 'I' for Inactive)
    1  A    between atoms: C_1  and  C_4
    2  A    between atoms: C_1  and  C_29
    3  A    between atoms: C_4  and  O_5
    4  A    between atoms: C_4  and  S_12
    5  A    between atoms: O_5  and  C_21
    6  A    between atoms: C_10  and  C_25
    7  A    between atoms: N_11  and  C_24
    8  A    between atoms: S_12  and  C_13
    9  A    between atoms: C_15  and  C_24
   10  A    between atoms: C_17  and  C_21
                            x       y       z     vdW  Elec       q    Type
                         _______ _______ _______ _____ _____    ______ ____

>  <TORSDO>
F 10

$$$$
=
 OpenBabel11052412383D

 30 32  0  0  1  0  0  0  0  0999 V2000
  187.6570  175.9930  137.5730 C   0  0  2  0  0  3  0  0  0  0  0  0
  190.2370  176.9800  139.1940 C   0  0  2  0  0  3  0  0  0  0  0  0
  189.0570  179.3490  138.0690 O   0  0  0  0  0  1  0  0  0  0  0  0
  188.8780  177.4550  139.5080 N   0  0  0  0  0  0  0  0  0  0  0  0
  189.0370  175.4170  137.2610 C   0  0  0  0  0  2  0  0  0  0  0  0
  186.6520  175.2370  136.7160 C   0  0  0  0  0  1  0  0  0  0  0  0
  190.7230  177.1350  137.7560 C   0  0  0  0  0  2  0  0  0  0  0  0
  190.1740  175.8040  138.2140 C   0  0  1  0  0  0  0  0  0  0  0  0
  188.2230  178.3140  138.5050 C   0  0  2  0  0  3  0  0  0  0  0  0
  191.2090  174.8770  138.3270 O   0  0  0  0  0  1  0  0  0  0  0  0
  187.6300  177.5210  137.3260 C   0  0  2  0  0  3  0  0  0  0  0  0
  186.2210  178.0410  136.9740 C   0  0  1  0  0  3  0  0  0  0  0  0
  185.7580  177.4950  135.7750 O   0  0  0  0  0  1  0  0  0  0  0  0
  185.1750  177.8810  138.0850 C   0  0  2  0  0  3  0  0  0  0  0  0
  183.6850  177.1140  135.9750 O   0  0  0  0  0  0  0  0  0  0  0  0
  182.5820  178.4780  137.6750 O   0  0  0  0  0  0  0  0  0  0  0  0
  183.5800  177.3770  137.4510 S   0  0  0  0  0  0  0  0  0  0  0  0
  183.0280  175.9200  138.2670 C   0  0  0  0  0  0  0  0  0  0  0  0
  182.4680  176.0010  139.4700 C   0  0  0  0  0  2  0  0  0  0  0  0
  183.2650  174.3460  137.5250 Cl  0  0  0  0  0  0  0  0  0  0  0  0
  185.0510  179.0460  138.8460 O   0  0  0  0  0  0  0  0  0  0  0  0
  185.2130  178.6300  140.1680 C   0  0  0  0  0  2  0  0  0  0  0  0
  184.2620  178.6290  142.7170 S   0  0  0  0  0  1  0  0  0  0  0  0
  183.9810  179.0010  140.9660 C   0  0  0  0  0  2  0  0  0  0  0  0
  188.9560  178.1940  140.7580 C   0  0  0  0  0  2  0  0  0  0  0  0
  188.7180  177.2720  141.9060 C   0  0  0  0  0  3  0  0  0  0  0  0
  188.0670  177.7060  142.9800 C   0  0  0  0  0  3  0  0  0  0  0  0
  187.8280  176.7870  144.1290 C   0  0  0  0  0  3  0  0  0  0  0  0
  188.4890  177.3550  145.3680 C   0  0  0  0  0  2  0  0  0  0  0  0
  186.9970  177.5050  145.1710 C   0  0  0  0  0  2  0  0  0  0  0  0
  1  6  1  6  0  0  0
  2  7  1  6  0  0  0
  2  4  1  0  0  0  0
  4 25  1  0  0  0  0
  5  1  1  0  0  0  0
  5  8  1  0  0  0  0
  7  8  1  0  0  0  0
  8 10  1  1  0  0  0
  8  2  1  0  0  0  0
  9  3  1  6  0  0  0
  9  4  1  0  0  0  0
 11 12  1  1  0  0  0
 11  1  1  0  0  0  0
 11  9  1  0  0  0  0
 12 13  1  6  0  0  0
 12 14  1  0  0  0  0
 14 21  1  6  0  0  0
 15 17  2  0  0  0  0
 17 16  2  0  0  0  0
 17 14  1  0  0  0  0
 17 18  1  0  0  0  0
 18 19  2  0  0  0  0
 20 18  1  0  0  0  0
 21 22  1  0  0  0  0
 22 24  1  0  0  0  0
 24 23  1  0  0  0  0
 25 26  1  0  0  0  0
 26 27  2  0  0  0  0
 27 28  1  0  0  0  0
 28 30  1  0  0  0  0
 28 29  1  0  0  0  0
 30 29  1  0  0  0  0
M  END
>  <MODEL>
9

>  <REMARK>
 VINA RESULT:      -5.5      3.978      7.875
  Name = 
  10 active torsions:
  status: ('A' for Active; 'I' for Inactive)
    1  A    between atoms: C_1  and  C_4
    2  A    between atoms: C_1  and  C_29
    3  A    between atoms: C_4  and  O_5
    4  A    between atoms: C_4  and  S_12
    5  A    between atoms: O_5  and  C_21
    6  A    between atoms: C_10  and  C_25
    7  A    between atoms: N_11  and  C_24
    8  A    between atoms: S_12  and  C_13
    9  A    between atoms: C_15  and  C_24
   10  A    between atoms: C_17  and  C_21
                            x       y       z     vdW  Elec       q    Type
                         _______ _______ _______ _____ _____    ______ ____

>  <TORSDO>
F 10

$$$$
