=
 OpenBabel11052412483D

 25 28  0  0  1  0  0  0  0  0999 V2000
  188.3520  176.9450  143.0130 C   0  0  0  0  0  0  0  0  0  0  0  0
  186.9700  177.2730  142.5330 C   0  0  1  0  0  3  0  0  0  0  0  0
  189.4510  177.9440  141.0410 C   0  0  0  0  0  2  0  0  0  0  0  0
  188.7880  176.9530  144.2550 C   0  0  0  0  0  3  0  0  0  0  0  0
  188.0500  178.1650  140.4480 C   0  0  0  0  0  2  0  0  0  0  0  0
  190.2620  176.7220  144.2290 C   0  0  1  0  0  3  0  0  0  0  0  0
  185.6810  178.8510  141.0850 C   0  0  0  0  0  0  0  0  0  0  0  0
  185.5540  179.5570  140.0970 O   0  0  0  0  0  0  0  0  0  0  0  0
  185.9600  177.5400  143.6120 C   0  0  0  0  0  3  0  0  0  0  0  0
  189.4570  176.7770  142.0370 C   0  0  1  0  0  3  0  0  0  0  0  0
  190.6880  176.7860  142.8250 N   0  0  0  0  0  2  0  0  0  0  0  0
  184.4510  178.3970  141.8350 C   0  0  0  0  0  2  0  0  0  0  0  0
  184.7590  178.0480  143.2790 C   0  0  0  0  0  0  0  0  0  0  0  0
  187.0560  178.4690  141.5760 C   0  0  1  0  0  3  0  0  0  0  0  0
  183.7170  179.8170  144.7290 C   0  0  0  0  0  2  0  0  0  0  0  0
  183.7360  178.3480  144.3490 C   0  0  2  0  0  3  0  0  0  0  0  0
  184.3150  178.8170  145.6950 C   0  0  1  0  0  3  0  0  0  0  0  0
  185.8230  179.0390  145.7340 C   0  0  0  0  0  2  0  0  0  0  0  0
  186.2830  179.0490  147.1130 N   0  0  0  0  0  2  0  0  0  0  0  0
  187.2350  177.9600  147.2610 C   0  0  0  0  0  2  0  0  0  0  0  0
  188.0380  178.1530  148.5340 C   0  0  0  0  0  1  0  0  0  0  0  0
  191.6540  178.8910  144.2900 C   0  0  0  0  0  1  0  0  0  0  0  0
  191.0530  177.7290  145.0800 C   0  0  2  0  0  3  0  0  0  0  0  0
  191.9240  177.1550  146.0350 O   0  0  0  0  0  0  0  0  0  0  0  0
  191.1840  176.7430  147.1550 C   0  0  0  0  0  1  0  0  0  0  0  0
  1  4  2  0  0  0  0
  2  1  1  0  0  0  0
  2  9  1  1  0  0  0
  5  3  1  0  0  0  0
  6  4  1  0  0  0  0
  6 23  1  1  0  0  0
  7 14  1  0  0  0  0
  7 12  1  0  0  0  0
  8  7  2  0  0  0  0
 10  3  1  6  0  0  0
 10 11  1  0  0  0  0
 10  1  1  0  0  0  0
 11  6  1  0  0  0  0
 12 13  1  0  0  0  0
 13  9  2  0  0  0  0
 14  5  1  6  0  0  0
 14  2  1  0  0  0  0
 15 17  1  0  0  0  0
 16 13  1  6  0  0  0
 16 15  1  0  0  0  0
 16 17  1  0  0  0  0
 17 18  1  6  0  0  0
 18 19  1  0  0  0  0
 19 20  1  0  0  0  0
 20 21  1  0  0  0  0
 23 22  1  6  0  0  0
 23 24  1  0  0  0  0
 24 25  1  0  0  0  0
M  END
>  <MODEL>
1

>  <REMARK>
 VINA RESULT:      -8.1      0.000      0.000
  Name = 
  6 active torsions:
  status: ('A' for Active; 'I' for Inactive)
    1  A    between atoms: C_2  and  N_12
    2  A    between atoms: C_10  and  C_11
    3  A    between atoms: C_11  and  O_17
    4  A    between atoms: N_12  and  C_25
    5  A    between atoms: C_15  and  C_23
    6  A    between atoms: C_21  and  C_25
                            x       y       z     vdW  Elec       q    Type
                         _______ _______ _______ _____ _____    ______ ____

>  <TORSDO>
F 6

$$$$
=
 OpenBabel11052412483D

 25 28  0  0  1  0  0  0  0  0999 V2000
  187.6930  177.1550  143.0940 C   0  0  0  0  0  0  0  0  0  0  0  0
  188.7570  177.0270  142.0450 C   0  0  1  0  0  3  0  0  0  0  0  0
  189.3030  177.1120  144.9640 C   0  0  0  0  0  2  0  0  0  0  0  0
  186.5790  177.8530  143.0190 C   0  0  0  0  0  3  0  0  0  0  0  0
  190.4060  176.8330  143.9300 C   0  0  0  0  0  2  0  0  0  0  0  0
  185.9190  177.8120  144.3570 C   0  0  1  0  0  3  0  0  0  0  0  0
  191.1740  177.4720  141.5870 C   0  0  0  0  0  0  0  0  0  0  0  0
  192.3450  177.5480  141.9250 O   0  0  0  0  0  0  0  0  0  0  0  0
  188.4520  177.6960  140.7340 C   0  0  0  0  0  3  0  0  0  0  0  0
  187.9340  176.6350  144.4630 C   0  0  1  0  0  3  0  0  0  0  0  0
  186.8660  177.1910  145.2920 N   0  0  0  0  0  2  0  0  0  0  0  0
  190.8320  177.3330  140.1220 C   0  0  0  0  0  2  0  0  0  0  0  0
  189.4270  177.8170  139.8150 C   0  0  0  0  0  0  0  0  0  0  0  0
  190.0760  177.5590  142.6200 C   0  0  1  0  0  3  0  0  0  0  0  0
  187.7550  178.2170  137.9810 C   0  0  0  0  0  2  0  0  0  0  0  0
  189.1520  178.5060  138.5000 C   0  0  2  0  0  3  0  0  0  0  0  0
  188.9390  177.5670  137.3000 C   0  0  1  0  0  3  0  0  0  0  0  0
  188.9080  176.0750  137.6150 C   0  0  0  0  0  2  0  0  0  0  0  0
  189.6520  175.3430  136.6030 N   0  0  0  0  0  2  0  0  0  0  0  0
  191.0390  175.7680  136.6900 C   0  0  0  0  0  2  0  0  0  0  0  0
  191.8090  174.8180  137.5880 C   0  0  0  0  0  1  0  0  0  0  0  0
  185.5220  179.3510  146.3860 C   0  0  0  0  0  1  0  0  0  0  0  0
  185.4860  179.1970  144.8670 C   0  0  2  0  0  3  0  0  0  0  0  0
  184.3310  179.7300  144.2490 O   0  0  0  0  0  0  0  0  0  0  0  0
  183.2180  178.9410  144.5770 C   0  0  0  0  0  1  0  0  0  0  0  0
  1 10  1  0  0  0  0
  2  9  1  6  0  0  0
  2 14  1  0  0  0  0
  2  1  1  0  0  0  0
  4  1  2  0  0  0  0
  4  6  1  0  0  0  0
  5  3  1  0  0  0  0
  6 23  1  1  0  0  0
  6 11  1  0  0  0  0
  7  8  2  0  0  0  0
  7 14  1  0  0  0  0
 10  3  1  1  0  0  0
 10 11  1  0  0  0  0
 12  7  1  0  0  0  0
 13 12  1  0  0  0  0
 13  9  2  0  0  0  0
 14  5  1  1  0  0  0
 15 16  1  0  0  0  0
 16 13  1  1  0  0  0
 17 18  1  1  0  0  0
 17 15  1  0  0  0  0
 17 16  1  0  0  0  0
 19 20  1  0  0  0  0
 19 18  1  0  0  0  0
 20 21  1  0  0  0  0
 23 22  1  1  0  0  0
 24 25  1  0  0  0  0
 24 23  1  0  0  0  0
M  END
>  <MODEL>
2

>  <REMARK>
 VINA RESULT:      -7.8      2.758      6.989
  Name = 
  6 active torsions:
  status: ('A' for Active; 'I' for Inactive)
    1  A    between atoms: C_2  and  N_12
    2  A    between atoms: C_10  and  C_11
    3  A    between atoms: C_11  and  O_17
    4  A    between atoms: N_12  and  C_25
    5  A    between atoms: C_15  and  C_23
    6  A    between atoms: C_21  and  C_25
                            x       y       z     vdW  Elec       q    Type
                         _______ _______ _______ _____ _____    ______ ____

>  <TORSDO>
F 6

$$$$
=
 OpenBabel11052412483D

 25 28  0  0  1  0  0  0  0  0999 V2000
  188.2650  176.9250  143.5150 C   0  0  0  0  0  0  0  0  0  0  0  0
  186.9880  177.4280  142.9100 C   0  0  1  0  0  3  0  0  0  0  0  0
  189.5010  177.0140  141.3800 C   0  0  0  0  0  2  0  0  0  0  0  0
  188.7340  177.1840  144.7170 C   0  0  0  0  0  3  0  0  0  0  0  0
  188.1770  177.3900  140.6980 C   0  0  0  0  0  2  0  0  0  0  0  0
  190.1050  176.6030  144.8120 C   0  0  1  0  0  3  0  0  0  0  0  0
  186.0720  178.7870  141.0230 C   0  0  0  0  0  0  0  0  0  0  0  0
  186.0850  179.1870  139.8700 O   0  0  0  0  0  0  0  0  0  0  0  0
  186.1140  178.2330  143.8300 C   0  0  0  0  0  3  0  0  0  0  0  0
  189.2590  176.2190  142.6700 C   0  0  1  0  0  3  0  0  0  0  0  0
  190.4830  176.1540  143.4660 N   0  0  0  0  0  2  0  0  0  0  0  0
  184.7960  178.8830  141.8270 C   0  0  0  0  0  2  0  0  0  0  0  0
  185.0620  178.9000  143.3210 C   0  0  0  0  0  0  0  0  0  0  0  0
  187.3290  178.2390  141.6540 C   0  0  1  0  0  3  0  0  0  0  0  0
  183.4610  178.8960  145.2590 C   0  0  0  0  0  2  0  0  0  0  0  0
  184.1840  179.7360  144.2210 C   0  0  2  0  0  3  0  0  0  0  0  0
  182.6740  179.4650  144.0980 C   0  0  1  0  0  3  0  0  0  0  0  0
  182.2740  178.3100  143.1860 C   0  0  0  0  0  2  0  0  0  0  0  0
  181.1930  178.7270  142.3080 N   0  0  0  0  0  2  0  0  0  0  0  0
  180.4120  179.7230  143.0220 C   0  0  0  0  0  2  0  0  0  0  0  0
  179.1940  179.0680  143.6440 C   0  0  0  0  0  1  0  0  0  0  0  0
  191.7940  178.4840  144.3100 C   0  0  0  0  0  1  0  0  0  0  0  0
  191.1490  177.5870  145.3660 C   0  0  2  0  0  3  0  0  0  0  0  0
  192.0540  177.0380  146.3040 O   0  0  0  0  0  0  0  0  0  0  0  0
  191.3410  176.5310  147.4010 C   0  0  0  0  0  1  0  0  0  0  0  0
  1  4  2  0  0  0  0
  2  1  1  0  0  0  0
  2  9  1  1  0  0  0
  4  6  1  0  0  0  0
  5  3  1  0  0  0  0
  6 23  1  6  0  0  0
  7 14  1  0  0  0  0
  7 12  1  0  0  0  0
  8  7  2  0  0  0  0
 10  3  1  6  0  0  0
 10 11  1  0  0  0  0
 10  1  1  0  0  0  0
 11  6  1  0  0  0  0
 12 13  1  0  0  0  0
 13  9  2  0  0  0  0
 14  5  1  6  0  0  0
 14  2  1  0  0  0  0
 16 13  1  6  0  0  0
 16 15  1  0  0  0  0
 17 18  1  6  0  0  0
 17 16  1  0  0  0  0
 17 15  1  0  0  0  0
 19 20  1  0  0  0  0
 19 18  1  0  0  0  0
 20 21  1  0  0  0  0
 23 22  1  6  0  0  0
 23 24  1  0  0  0  0
 24 25  1  0  0  0  0
M  END
>  <MODEL>
3

>  <REMARK>
 VINA RESULT:      -7.8      1.980      3.198
  Name = 
  6 active torsions:
  status: ('A' for Active; 'I' for Inactive)
    1  A    between atoms: C_2  and  N_12
    2  A    between atoms: C_10  and  C_11
    3  A    between atoms: C_11  and  O_17
    4  A    between atoms: N_12  and  C_25
    5  A    between atoms: C_15  and  C_23
    6  A    between atoms: C_21  and  C_25
                            x       y       z     vdW  Elec       q    Type
                         _______ _______ _______ _____ _____    ______ ____

>  <TORSDO>
F 6

$$$$
=
 OpenBabel11052412483D

 25 28  0  0  1  0  0  0  0  0999 V2000
  186.0550  177.5370  144.2340 C   0  0  0  0  0  0  0  0  0  0  0  0
  186.9430  177.2380  145.4050 C   0  0  1  0  0  3  0  0  0  0  0  0
  184.8050  179.3010  145.4250 C   0  0  0  0  0  2  0  0  0  0  0  0
  186.3820  177.5170  142.9590 C   0  0  0  0  0  3  0  0  0  0  0  0
  185.5940  178.9240  146.6890 C   0  0  0  0  0  2  0  0  0  0  0  0
  185.2240  178.0400  142.1770 C   0  0  1  0  0  3  0  0  0  0  0  0
  187.9160  178.2370  147.4790 C   0  0  0  0  0  0  0  0  0  0  0  0
  187.8660  178.9680  148.4570 O   0  0  0  0  0  0  0  0  0  0  0  0
  188.3280  176.7690  145.0590 C   0  0  0  0  0  3  0  0  0  0  0  0
  184.7070  178.1170  144.4540 C   0  0  1  0  0  3  0  0  0  0  0  0
  184.2520  178.5710  143.1410 N   0  0  0  0  0  2  0  0  0  0  0  0
  188.9210  177.1090  147.4470 C   0  0  0  0  0  2  0  0  0  0  0  0
  189.2560  176.6830  146.0300 C   0  0  0  0  0  0  0  0  0  0  0  0
  187.0100  178.4840  146.2970 C   0  0  1  0  0  3  0  0  0  0  0  0
  191.7080  177.0550  146.4380 C   0  0  0  0  0  2  0  0  0  0  0  0
  190.6610  176.2380  145.7030 C   0  0  2  0  0  3  0  0  0  0  0  0
  191.5190  177.2730  144.9530 C   0  0  1  0  0  3  0  0  0  0  0  0
  190.8870  178.6460  144.7530 C   0  0  0  0  0  2  0  0  0  0  0  0
  190.8480  178.9680  143.3360 N   0  0  0  0  0  2  0  0  0  0  0  0
  191.1370  177.7470  142.6040 C   0  0  0  0  0  2  0  0  0  0  0  0
  189.9850  177.4250  141.6710 C   0  0  0  0  0  1  0  0  0  0  0  0
  184.5870  179.3420  140.0450 C   0  0  0  0  0  1  0  0  0  0  0  0
  185.6150  179.1200  141.1540 C   0  0  2  0  0  3  0  0  0  0  0  0
  186.9570  179.0690  140.7110 O   0  0  0  0  0  0  0  0  0  0  0  0
  187.0260  178.3470  139.5100 C   0  0  0  0  0  1  0  0  0  0  0  0
  1 10  1  0  0  0  0
  1  2  1  0  0  0  0
  2  9  1  6  0  0  0
  2 14  1  0  0  0  0
  3  5  1  0  0  0  0
  4  1  2  0  0  0  0
  6 23  1  6  0  0  0
  6  4  1  0  0  0  0
  6 11  1  0  0  0  0
  7  8  2  0  0  0  0
  9 13  2  0  0  0  0
 10  3  1  1  0  0  0
 11 10  1  0  0  0  0
 12  7  1  0  0  0  0
 13 12  1  0  0  0  0
 14  5  1  1  0  0  0
 14  7  1  0  0  0  0
 16 13  1  1  0  0  0
 16 15  1  0  0  0  0
 17 18  1  1  0  0  0
 17 16  1  0  0  0  0
 17 15  1  0  0  0  0
 19 18  1  0  0  0  0
 20 19  1  0  0  0  0
 21 20  1  0  0  0  0
 23 22  1  6  0  0  0
 24 23  1  0  0  0  0
 25 24  1  0  0  0  0
M  END
>  <MODEL>
4

>  <REMARK>
 VINA RESULT:      -7.6      1.846      6.439
  Name = 
  6 active torsions:
  status: ('A' for Active; 'I' for Inactive)
    1  A    between atoms: C_2  and  N_12
    2  A    between atoms: C_10  and  C_11
    3  A    between atoms: C_11  and  O_17
    4  A    between atoms: N_12  and  C_25
    5  A    between atoms: C_15  and  C_23
    6  A    between atoms: C_21  and  C_25
                            x       y       z     vdW  Elec       q    Type
                         _______ _______ _______ _____ _____    ______ ____

>  <TORSDO>
F 6

$$$$
=
 OpenBabel11052412483D

 25 28  0  0  1  0  0  0  0  0999 V2000
  184.7100  177.9110  142.8620 C   0  0  0  0  0  0  0  0  0  0  0  0
  185.4790  177.7180  144.1360 C   0  0  1  0  0  3  0  0  0  0  0  0
  183.1310  179.5190  143.8670 C   0  0  0  0  0  2  0  0  0  0  0  0
  185.1900  177.9270  141.6360 C   0  0  0  0  0  3  0  0  0  0  0  0
  183.7990  179.2380  145.2220 C   0  0  0  0  0  2  0  0  0  0  0  0
  184.0820  178.3110  140.7130 C   0  0  1  0  0  3  0  0  0  0  0  0
  186.0710  178.8260  146.2970 C   0  0  0  0  0  0  0  0  0  0  0  0
  185.8200  179.5470  147.2500 O   0  0  0  0  0  0  0  0  0  0  0  0
  186.9400  177.4120  143.9660 C   0  0  0  0  0  3  0  0  0  0  0  0
  183.2880  178.3310  142.9090 C   0  0  1  0  0  3  0  0  0  0  0  0
  182.9460  178.7270  141.5450 N   0  0  0  0  0  2  0  0  0  0  0  0
  187.1950  177.8210  146.4020 C   0  0  0  0  0  2  0  0  0  0  0  0
  187.7470  177.4360  145.0420 C   0  0  0  0  0  0  0  0  0  0  0  0
  185.2940  178.9650  145.0100 C   0  0  1  0  0  3  0  0  0  0  0  0
  190.0350  178.4280  144.7270 C   0  0  0  0  0  2  0  0  0  0  0  0
  189.2230  177.1560  144.8930 C   0  0  2  0  0  3  0  0  0  0  0  0
  189.8260  177.5290  143.5280 C   0  0  1  0  0  3  0  0  0  0  0  0
  188.8920  178.2430  142.5570 C   0  0  0  0  0  2  0  0  0  0  0  0
  189.0890  177.7250  141.2130 N   0  0  0  0  0  2  0  0  0  0  0  0
  190.2780  176.8910  141.2380 C   0  0  0  0  0  2  0  0  0  0  0  0
  191.1920  177.2680  140.0880 C   0  0  0  0  0  1  0  0  0  0  0  0
  183.2870  180.0530  138.9870 C   0  0  0  0  0  1  0  0  0  0  0  0
  184.4680  179.4270  139.7280 C   0  0  2  0  0  3  0  0  0  0  0  0
  185.5920  179.1500  138.9150 O   0  0  0  0  0  0  0  0  0  0  0  0
  185.2820  178.1060  138.0300 C   0  0  0  0  0  1  0  0  0  0  0  0
  1 10  1  0  0  0  0
  1  2  1  0  0  0  0
  2  9  1  6  0  0  0
  2 14  1  0  0  0  0
  3  5  1  0  0  0  0
  4  1  2  0  0  0  0
  6 23  1  6  0  0  0
  6 11  1  0  0  0  0
  6  4  1  0  0  0  0
  7 12  1  0  0  0  0
  7  8  2  0  0  0  0
  9 13  2  0  0  0  0
 10  3  1  1  0  0  0
 11 10  1  0  0  0  0
 13 12  1  0  0  0  0
 14  5  1  1  0  0  0
 14  7  1  0  0  0  0
 15 16  1  0  0  0  0
 16 13  1  6  0  0  0
 17 18  1  6  0  0  0
 17 15  1  0  0  0  0
 17 16  1  0  0  0  0
 19 20  1  0  0  0  0
 19 18  1  0  0  0  0
 21 20  1  0  0  0  0
 23 22  1  6  0  0  0
 24 23  1  0  0  0  0
 25 24  1  0  0  0  0
M  END
>  <MODEL>
5

>  <REMARK>
 VINA RESULT:      -7.6      2.392      6.696
  Name = 
  6 active torsions:
  status: ('A' for Active; 'I' for Inactive)
    1  A    between atoms: C_2  and  N_12
    2  A    between atoms: C_10  and  C_11
    3  A    between atoms: C_11  and  O_17
    4  A    between atoms: N_12  and  C_25
    5  A    between atoms: C_15  and  C_23
    6  A    between atoms: C_21  and  C_25
                            x       y       z     vdW  Elec       q    Type
                         _______ _______ _______ _____ _____    ______ ____

>  <TORSDO>
F 6

$$$$
=
 OpenBabel11052412483D

 25 28  0  0  1  0  0  0  0  0999 V2000
  187.1260  177.1770  144.6380 C   0  0  0  0  0  0  0  0  0  0  0  0
  188.5380  176.7530  144.3590 C   0  0  1  0  0  3  0  0  0  0  0  0
  187.7270  178.3990  146.6960 C   0  0  0  0  0  2  0  0  0  0  0  0
  186.2040  177.5050  143.7580 C   0  0  0  0  0  3  0  0  0  0  0  0
  189.1580  177.8640  146.5250 C   0  0  0  0  0  2  0  0  0  0  0  0
  185.0150  178.0110  144.5040 C   0  0  1  0  0  3  0  0  0  0  0  0
  190.9250  177.3780  144.7560 C   0  0  0  0  0  0  0  0  0  0  0  0
  191.8250  177.8440  145.4390 O   0  0  0  0  0  0  0  0  0  0  0  0
  188.8880  176.5970  142.9060 C   0  0  0  0  0  3  0  0  0  0  0  0
  186.7020  177.4740  146.0280 C   0  0  1  0  0  3  0  0  0  0  0  0
  185.4090  178.1460  145.9130 N   0  0  0  0  0  2  0  0  0  0  0  0
  191.2670  176.4570  143.6080 C   0  0  0  0  0  2  0  0  0  0  0  0
  190.1760  176.4310  142.5530 C   0  0  0  0  0  0  0  0  0  0  0  0
  189.4890  177.7510  145.0310 C   0  0  1  0  0  3  0  0  0  0  0  0
  191.3280  177.5020  140.5920 C   0  0  0  0  0  2  0  0  0  0  0  0
  190.5550  176.2970  141.0980 C   0  0  2  0  0  3  0  0  0  0  0  0
  189.8930  177.3130  140.1520 C   0  0  1  0  0  3  0  0  0  0  0  0
  189.0470  178.3940  140.8170 C   0  0  0  0  0  2  0  0  0  0  0  0
  187.7930  178.5500  140.0970 N   0  0  0  0  0  2  0  0  0  0  0  0
  187.9620  177.9350  138.7910 C   0  0  0  0  0  2  0  0  0  0  0  0
  186.7210  178.1720  137.9510 C   0  0  0  0  0  1  0  0  0  0  0  0
  182.9800  179.5600  144.1800 C   0  0  0  0  0  1  0  0  0  0  0  0
  184.4780  179.3470  143.9640 C   0  0  2  0  0  3  0  0  0  0  0  0
  184.9430  179.7050  142.6770 O   0  0  0  0  0  0  0  0  0  0  0  0
  184.2210  178.9970  141.7040 C   0  0  0  0  0  1  0  0  0  0  0  0
  1 10  1  0  0  0  0
  2  9  1  6  0  0  0
  2  1  1  0  0  0  0
  2 14  1  0  0  0  0
  4  6  1  0  0  0  0
  4  1  2  0  0  0  0
  5  3  1  0  0  0  0
  6 23  1  6  0  0  0
  6 11  1  0  0  0  0
  7 14  1  0  0  0  0
  7  8  2  0  0  0  0
 10  3  1  6  0  0  0
 11 10  1  0  0  0  0
 12  7  1  0  0  0  0
 13  9  2  0  0  0  0
 13 12  1  0  0  0  0
 14  5  1  1  0  0  0
 15 16  1  0  0  0  0
 16 13  1  1  0  0  0
 17 15  1  0  0  0  0
 17 18  1  1  0  0  0
 17 16  1  0  0  0  0
 19 18  1  0  0  0  0
 20 19  1  0  0  0  0
 21 20  1  0  0  0  0
 23 22  1  6  0  0  0
 24 23  1  0  0  0  0
 25 24  1  0  0  0  0
M  END
>  <MODEL>
6

>  <REMARK>
 VINA RESULT:      -7.4      1.644      6.819
  Name = 
  6 active torsions:
  status: ('A' for Active; 'I' for Inactive)
    1  A    between atoms: C_2  and  N_12
    2  A    between atoms: C_10  and  C_11
    3  A    between atoms: C_11  and  O_17
    4  A    between atoms: N_12  and  C_25
    5  A    between atoms: C_15  and  C_23
    6  A    between atoms: C_21  and  C_25
                            x       y       z     vdW  Elec       q    Type
                         _______ _______ _______ _____ _____    ______ ____

>  <TORSDO>
F 6

$$$$
=
 OpenBabel11052412483D

 25 28  0  0  1  0  0  0  0  0999 V2000
  184.3110  178.0570  142.5980 C   0  0  0  0  0  0  0  0  0  0  0  0
  185.2540  177.9000  143.7540 C   0  0  1  0  0  3  0  0  0  0  0  0
  182.6290  179.2820  143.9250 C   0  0  0  0  0  2  0  0  0  0  0  0
  184.6250  178.2530  141.3350 C   0  0  0  0  0  3  0  0  0  0  0  0
  183.4980  179.0150  145.1640 C   0  0  0  0  0  2  0  0  0  0  0  0
  183.3630  178.5110  140.5810 C   0  0  1  0  0  3  0  0  0  0  0  0
  185.9240  178.9200  145.9360 C   0  0  0  0  0  0  0  0  0  0  0  0
  185.6800  179.5080  146.9780 O   0  0  0  0  0  0  0  0  0  0  0  0
  186.7130  177.8670  143.3960 C   0  0  0  0  0  3  0  0  0  0  0  0
  182.8570  178.2190  142.8430 C   0  0  1  0  0  3  0  0  0  0  0  0
  182.2870  178.6560  141.5700 N   0  0  0  0  0  2  0  0  0  0  0  0
  187.2010  178.1200  145.8180 C   0  0  0  0  0  2  0  0  0  0  0  0
  187.6330  177.9450  144.3740 C   0  0  0  0  0  0  0  0  0  0  0  0
  184.9790  179.0220  144.7630 C   0  0  1  0  0  3  0  0  0  0  0  0
  189.6560  176.5300  143.8990 C   0  0  0  0  0  2  0  0  0  0  0  0
  189.1050  177.9380  144.0370 C   0  0  2  0  0  3  0  0  0  0  0  0
  190.0230  177.3450  145.1200 C   0  0  1  0  0  3  0  0  0  0  0  0
  189.3220  176.7310  146.3280 C   0  0  0  0  0  2  0  0  0  0  0  0
  190.2300  176.7030  147.4620 N   0  0  0  0  0  2  0  0  0  0  0  0
  191.5430  176.3350  146.9590 C   0  0  0  0  0  2  0  0  0  0  0  0
  192.4360  175.9260  148.1150 C   0  0  0  0  0  1  0  0  0  0  0  0
  182.1860  179.9900  138.8290 C   0  0  0  0  0  1  0  0  0  0  0  0
  183.4350  179.7510  139.6760 C   0  0  2  0  0  3  0  0  0  0  0  0
  184.6560  179.9180  138.9820 O   0  0  0  0  0  0  0  0  0  0  0  0
  184.9150  178.7760  138.2090 C   0  0  0  0  0  1  0  0  0  0  0  0
  1 10  1  0  0  0  0
  1  2  1  0  0  0  0
  2  9  1  6  0  0  0
  2 14  1  0  0  0  0
  3  5  1  0  0  0  0
  4  1  2  0  0  0  0
  6 23  1  1  0  0  0
  6  4  1  0  0  0  0
  6 11  1  0  0  0  0
  7  8  2  0  0  0  0
  9 13  2  0  0  0  0
 10  3  1  1  0  0  0
 11 10  1  0  0  0  0
 12  7  1  0  0  0  0
 13 12  1  0  0  0  0
 14  5  1  1  0  0  0
 14  7  1  0  0  0  0
 15 16  1  0  0  0  0
 15 17  1  0  0  0  0
 16 13  1  1  0  0  0
 16 17  1  0  0  0  0
 17 18  1  1  0  0  0
 18 19  1  0  0  0  0
 20 19  1  0  0  0  0
 20 21  1  0  0  0  0
 23 22  1  6  0  0  0
 24 23  1  0  0  0  0
 25 24  1  0  0  0  0
M  END
>  <MODEL>
7

>  <REMARK>
 VINA RESULT:      -7.4      2.654      6.625
  Name = 
  6 active torsions:
  status: ('A' for Active; 'I' for Inactive)
    1  A    between atoms: C_2  and  N_12
    2  A    between atoms: C_10  and  C_11
    3  A    between atoms: C_11  and  O_17
    4  A    between atoms: N_12  and  C_25
    5  A    between atoms: C_15  and  C_23
    6  A    between atoms: C_21  and  C_25
                            x       y       z     vdW  Elec       q    Type
                         _______ _______ _______ _____ _____    ______ ____

>  <TORSDO>
F 6

$$$$
=
 OpenBabel11052412483D

 25 28  0  0  1  0  0  0  0  0999 V2000
  188.3440  178.1980  140.0540 C   0  0  0  0  0  0  0  0  0  0  0  0
  188.6970  177.8930  141.4800 C   0  0  1  0  0  3  0  0  0  0  0  0
  190.3470  177.0770  139.1470 C   0  0  0  0  0  2  0  0  0  0  0  0
  187.1410  178.2330  139.5210 C   0  0  0  0  0  3  0  0  0  0  0  0
  190.8170  176.8730  140.5960 C   0  0  0  0  0  2  0  0  0  0  0  0
  187.2950  178.4160  138.0480 C   0  0  1  0  0  3  0  0  0  0  0  0
  189.9620  176.2920  142.9240 C   0  0  0  0  0  0  0  0  0  0  0  0
  190.9020  175.5470  143.1500 O   0  0  0  0  0  0  0  0  0  0  0  0
  187.5290  177.7060  142.4060 C   0  0  0  0  0  3  0  0  0  0  0  0
  189.4120  178.2870  139.0270 C   0  0  1  0  0  3  0  0  0  0  0  0
  188.7240  178.2750  137.7380 N   0  0  0  0  0  2  0  0  0  0  0  0
  189.1380  176.8180  144.0770 C   0  0  0  0  0  2  0  0  0  0  0  0
  187.7420  177.2230  143.6430 C   0  0  0  0  0  0  0  0  0  0  0  0
  189.6000  176.6530  141.5040 C   0  0  1  0  0  3  0  0  0  0  0  0
  185.9530  178.3100  145.0350 C   0  0  0  0  0  2  0  0  0  0  0  0
  186.5820  177.0040  144.5840 C   0  0  2  0  0  3  0  0  0  0  0  0
  186.7930  177.5230  146.0170 C   0  0  1  0  0  3  0  0  0  0  0  0
  188.0830  178.2980  146.2650 C   0  0  0  0  0  2  0  0  0  0  0  0
  188.5340  178.0810  147.6290 N   0  0  0  0  0  2  0  0  0  0  0  0
  189.1430  176.7630  147.6820 C   0  0  0  0  0  2  0  0  0  0  0  0
  190.6180  176.8670  147.3430 C   0  0  0  0  0  1  0  0  0  0  0  0
  184.9550  177.5140  137.4510 C   0  0  0  0  0  1  0  0  0  0  0  0
  186.4630  177.4240  137.2180 C   0  0  2  0  0  3  0  0  0  0  0  0
  186.9720  176.1050  137.1700 O   0  0  0  0  0  0  0  0  0  0  0  0
  186.4250  175.4320  136.0670 C   0  0  0  0  0  1  0  0  0  0  0  0
  1  2  1  0  0  0  0
  2 14  1  0  0  0  0
  2  9  1  1  0  0  0
  3  5  1  0  0  0  0
  4  1  2  0  0  0  0
  6 23  1  6  0  0  0
  6  4  1  0  0  0  0
  7  8  2  0  0  0  0
  7 12  1  0  0  0  0
  9 13  2  0  0  0  0
 10  3  1  6  0  0  0
 10  1  1  0  0  0  0
 11  6  1  0  0  0  0
 11 10  1  0  0  0  0
 13 12  1  0  0  0  0
 14  5  1  6  0  0  0
 14  7  1  0  0  0  0
 15 17  1  0  0  0  0
 16 13  1  6  0  0  0
 16 15  1  0  0  0  0
 16 17  1  0  0  0  0
 17 18  1  6  0  0  0
 18 19  1  0  0  0  0
 19 20  1  0  0  0  0
 21 20  1  0  0  0  0
 23 22  1  1  0  0  0
 24 23  1  0  0  0  0
 25 24  1  0  0  0  0
M  END
>  <MODEL>
8

>  <REMARK>
 VINA RESULT:      -7.3      2.578      5.531
  Name = 
  6 active torsions:
  status: ('A' for Active; 'I' for Inactive)
    1  A    between atoms: C_2  and  N_12
    2  A    between atoms: C_10  and  C_11
    3  A    between atoms: C_11  and  O_17
    4  A    between atoms: N_12  and  C_25
    5  A    between atoms: C_15  and  C_23
    6  A    between atoms: C_21  and  C_25
                            x       y       z     vdW  Elec       q    Type
                         _______ _______ _______ _____ _____    ______ ____

>  <TORSDO>
F 6

$$$$
=
 OpenBabel11052412483D

 25 28  0  0  1  0  0  0  0  0999 V2000
  187.1190  177.4510  142.8810 C   0  0  0  0  0  0  0  0  0  0  0  0
  186.7950  177.4300  144.3460 C   0  0  1  0  0  3  0  0  0  0  0  0
  185.6030  179.3390  142.4060 C   0  0  0  0  0  2  0  0  0  0  0  0
  188.2840  177.2050  142.3190 C   0  0  0  0  0  3  0  0  0  0  0  0
  185.1360  179.2550  143.8680 C   0  0  0  0  0  2  0  0  0  0  0  0
  188.1650  177.5050  140.8620 C   0  0  1  0  0  3  0  0  0  0  0  0
  185.9940  178.8590  146.2340 C   0  0  0  0  0  0  0  0  0  0  0  0
  185.3110  179.7590  146.6980 O   0  0  0  0  0  0  0  0  0  0  0  0
  187.9110  176.9790  145.2450 C   0  0  0  0  0  3  0  0  0  0  0  0
  186.1340  177.9890  141.9100 C   0  0  1  0  0  3  0  0  0  0  0  0
  186.8650  178.1580  140.6560 N   0  0  0  0  0  2  0  0  0  0  0  0
  186.5530  177.8010  147.1560 C   0  0  0  0  0  2  0  0  0  0  0  0
  187.7850  177.1310  146.5760 C   0  0  0  0  0  0  0  0  0  0  0  0
  186.3090  178.8250  144.7580 C   0  0  1  0  0  3  0  0  0  0  0  0
  189.6980  177.8920  148.0180 C   0  0  0  0  0  2  0  0  0  0  0  0
  188.9020  176.7080  147.4990 C   0  0  2  0  0  3  0  0  0  0  0  0
  190.3230  176.9870  146.9790 C   0  0  1  0  0  3  0  0  0  0  0  0
  190.4160  177.7620  145.6690 C   0  0  0  0  0  2  0  0  0  0  0  0
  191.4090  177.1500  144.8040 N   0  0  0  0  0  2  0  0  0  0  0  0
  191.6740  178.0800  143.7190 C   0  0  0  0  0  2  0  0  0  0  0  0
  190.9330  179.3800  143.9680 C   0  0  0  0  0  1  0  0  0  0  0  0
  189.0540  178.9640  138.9320 C   0  0  0  0  0  1  0  0  0  0  0  0
  189.3030  178.3890  140.3260 C   0  0  2  0  0  3  0  0  0  0  0  0
  190.6060  177.8770  140.5270 O   0  0  0  0  0  0  0  0  0  0  0  0
  190.8460  176.8360  139.6170 C   0  0  0  0  0  1  0  0  0  0  0  0
  1  2  1  0  0  0  0
  2 14  1  0  0  0  0
  2  9  1  1  0  0  0
  3  5  1  0  0  0  0
  4  1  2  0  0  0  0
  6 23  1  1  0  0  0
  6  4  1  0  0  0  0
  7  8  2  0  0  0  0
  7 12  1  0  0  0  0
  9 13  2  0  0  0  0
 10  3  1  1  0  0  0
 10  1  1  0  0  0  0
 11  6  1  0  0  0  0
 11 10  1  0  0  0  0
 13 12  1  0  0  0  0
 14  5  1  6  0  0  0
 14  7  1  0  0  0  0
 16 13  1  6  0  0  0
 16 15  1  0  0  0  0
 17 18  1  6  0  0  0
 17 16  1  0  0  0  0
 17 15  1  0  0  0  0
 19 18  1  0  0  0  0
 20 21  1  0  0  0  0
 20 19  1  0  0  0  0
 23 22  1  6  0  0  0
 23 24  1  0  0  0  0
 25 24  1  0  0  0  0
M  END
>  <MODEL>
9

>  <REMARK>
 VINA RESULT:      -7.2      2.312      5.075
  Name = 
  6 active torsions:
  status: ('A' for Active; 'I' for Inactive)
    1  A    between atoms: C_2  and  N_12
    2  A    between atoms: C_10  and  C_11
    3  A    between atoms: C_11  and  O_17
    4  A    between atoms: N_12  and  C_25
    5  A    between atoms: C_15  and  C_23
    6  A    between atoms: C_21  and  C_25
                            x       y       z     vdW  Elec       q    Type
                         _______ _______ _______ _____ _____    ______ ____

>  <TORSDO>
F 6

$$$$
