=
 OpenBabel11052413033D

 31 35  0  0  1  0  0  0  0  0999 V2000
  189.9830  177.5440  147.1970 C   0  0  0  0  0  0  0  0  0  0  0  0
  188.2310  177.7880  143.7990 C   0  0  0  0  0  0  0  0  0  0  0  0
  186.8750  178.1770  144.0380 C   0  0  0  0  0  0  0  0  0  0  0  0
  184.9380  177.6780  145.5950 C   0  0  0  0  0  2  0  0  0  0  0  0
  189.2020  177.4280  144.8900 C   0  0  0  0  0  0  0  0  0  0  0  0
  191.1120  176.7930  146.8630 C   0  0  0  0  0  3  0  0  0  0  0  0
  186.3500  178.2230  145.4550 C   0  0  0  0  0  2  0  0  0  0  0  0
  190.1290  177.2990  142.1730 C   0  0  2  0  0  3  0  0  0  0  0  0
  189.8020  177.9640  148.4710 F   0  0  0  0  0  0  0  0  0  0  0  0
  186.5790  178.5310  141.6430 C   0  0  0  0  0  3  0  0  0  0  0  0
  183.9120  178.7980  145.4270 C   0  0  0  0  0  2  0  0  0  0  0  0
  190.5910  176.2320  143.1630 C   0  0  0  0  0  2  0  0  0  0  0  0
  188.7010  177.7120  142.4620 C   0  0  0  0  0  0  0  0  0  0  0  0
  189.0420  177.8630  146.2160 C   0  0  0  0  0  3  0  0  0  0  0  0
  184.2350  179.7290  144.2600 C   0  0  0  0  0  2  0  0  0  0  0  0
  190.3660  176.6980  144.5630 C   0  0  0  0  0  0  0  0  0  0  0  0
  191.3030  176.3710  145.5470 C   0  0  0  0  0  3  0  0  0  0  0  0
  187.8790  178.1140  141.4080 C   0  0  0  0  0  3  0  0  0  0  0  0
  186.0610  178.5740  142.9340 C   0  0  0  0  0  0  0  0  0  0  0  0
  184.5990  178.9310  143.0190 C   0  0  0  0  0  2  0  0  0  0  0  0
  191.5900  175.3410  136.0450 C   0  0  2  0  0  3  0  0  0  0  0  0
  190.3580  175.7580  138.1570 C   0  0  0  0  0  2  0  0  0  0  0  0
  193.8860  176.5720  138.5450 O   0  0  0  0  0  0  0  0  0  0  0  0
  192.4330  177.6090  140.5270 O   0  0  0  0  0  0  0  0  0  0  0  0
  191.4970  175.3460  134.5960 N   0  0  0  0  0  1  0  0  0  0  0  0
  191.4650  176.9630  140.0410 C   0  0  0  0  0  0  0  0  0  0  0  0
  190.3020  175.8860  136.6390 C   0  0  0  0  0  2  0  0  0  0  0  0
  192.7820  176.3910  137.9670 C   0  0  0  0  0  0  0  0  0  0  0  0
  191.5420  176.4230  138.7090 N   0  0  0  0  0  0  0  0  0  0  0  0
  190.2710  176.7900  140.8120 N   0  0  0  0  0  2  0  0  0  0  0  0
  192.7690  176.2000  136.4800 C   0  0  0  0  0  2  0  0  0  0  0  0
  1  9  1  0  0  0  0
  2  3  1  0  0  0  0
  2  5  1  0  0  0  0
  3  7  1  0  0  0  0
  5 14  1  0  0  0  0
  6  1  1  0  0  0  0
  7  4  1  0  0  0  0
  8 30  1  6  0  0  0
  8 13  1  0  0  0  0
  8 12  1  0  0  0  0
 10 19  1  0  0  0  0
 11  4  1  0  0  0  0
 12 16  1  0  0  0  0
 13  2  2  0  0  0  0
 14  1  2  0  0  0  0
 15 11  1  0  0  0  0
 16  5  2  0  0  0  0
 16 17  1  0  0  0  0
 17  6  2  0  0  0  0
 18 10  2  0  0  0  0
 18 13  1  0  0  0  0
 19 20  1  0  0  0  0
 19  3  2  0  0  0  0
 20 15  1  0  0  0  0
 21 25  1  6  0  0  0
 21 31  1  0  0  0  0
 21 27  1  0  0  0  0
 22 29  1  0  0  0  0
 26 24  2  0  0  0  0
 26 30  1  0  0  0  0
 27 22  1  0  0  0  0
 28 23  2  0  0  0  0
 28 29  1  0  0  0  0
 29 26  1  0  0  0  0
 31 28  1  0  0  0  0
M  END
>  <MODEL>
1

>  <REMARK>
 VINA RESULT:     -11.8      0.000      0.000
  Name = 
  1 active torsions:
  status: ('A' for Active; 'I' for Inactive)
    1  A    between atoms: C_15  and  N_23
                            x       y       z     vdW  Elec       q    Type
                         _______ _______ _______ _____ _____    ______ ____

>  <TORSDO>
F 1

$$$$
=
 OpenBabel11052413033D

 31 35  0  0  1  0  0  0  0  0999 V2000
  183.9860  178.6980  143.4870 C   0  0  0  0  0  0  0  0  0  0  0  0
  187.6420  177.6130  143.8460 C   0  0  0  0  0  0  0  0  0  0  0  0
  187.9510  177.5850  145.2420 C   0  0  0  0  0  0  0  0  0  0  0  0
  187.5930  178.9380  147.3560 C   0  0  0  0  0  2  0  0  0  0  0  0
  186.3520  178.1450  143.2850 C   0  0  0  0  0  0  0  0  0  0  0  0
  183.9470  179.0670  142.1410 C   0  0  0  0  0  3  0  0  0  0  0  0
  186.9530  178.1310  146.2390 C   0  0  0  0  0  2  0  0  0  0  0  0
  188.3110  177.1520  141.4320 C   0  0  2  0  0  3  0  0  0  0  0  0
  182.8680  178.7870  144.2460 F   0  0  0  0  0  0  0  0  0  0  0  0
  190.0650  176.4810  144.7310 C   0  0  0  0  0  3  0  0  0  0  0  0
  187.9300  178.0360  148.5430 C   0  0  0  0  0  2  0  0  0  0  0  0
  187.5040  178.3930  141.0590 C   0  0  0  0  0  2  0  0  0  0  0  0
  188.6040  177.1320  142.9180 C   0  0  0  0  0  0  0  0  0  0  0  0
  185.1770  178.2360  144.0490 C   0  0  0  0  0  3  0  0  0  0  0  0
  188.5720  176.7150  148.1210 C   0  0  0  0  0  2  0  0  0  0  0  0
  186.2870  178.4910  141.9170 C   0  0  0  0  0  0  0  0  0  0  0  0
  185.0960  178.9630  141.3580 C   0  0  0  0  0  3  0  0  0  0  0  0
  189.7840  176.5460  143.3760 C   0  0  0  0  0  3  0  0  0  0  0  0
  189.1720  176.9850  145.6730 C   0  0  0  0  0  0  0  0  0  0  0  0
  189.6690  176.9520  147.0960 C   0  0  0  0  0  2  0  0  0  0  0  0
  193.3640  176.7490  137.2090 C   0  0  2  0  0  3  0  0  0  0  0  0
  192.0430  177.0890  139.2820 C   0  0  0  0  0  2  0  0  0  0  0  0
  189.8440  176.6620  136.4100 O   0  0  0  0  0  0  0  0  0  0  0  0
  188.5090  176.3680  138.7000 O   0  0  0  0  0  0  0  0  0  0  0  0
  194.5890  176.1970  136.6610 N   0  0  0  0  0  1  0  0  0  0  0  0
  189.5730  176.7340  139.2700 C   0  0  0  0  0  0  0  0  0  0  0  0
  193.2650  176.4000  138.6850 C   0  0  0  0  0  2  0  0  0  0  0  0
  190.8800  176.5570  137.1190 C   0  0  0  0  0  0  0  0  0  0  0  0
  190.8210  176.7410  138.5510 N   0  0  0  0  0  0  0  0  0  0  0  0
  189.5420  177.1220  140.6470 N   0  0  0  0  0  2  0  0  0  0  0  0
  192.1700  176.1770  136.4580 C   0  0  0  0  0  2  0  0  0  0  0  0
  1 14  1  0  0  0  0
  1  9  1  0  0  0  0
  2  3  1  0  0  0  0
  3 19  2  0  0  0  0
  3  7  1  0  0  0  0
  4 11  1  0  0  0  0
  5  2  1  0  0  0  0
  5 14  2  0  0  0  0
  6  1  2  0  0  0  0
  7  4  1  0  0  0  0
  8 30  1  6  0  0  0
  8 13  1  0  0  0  0
 10 19  1  0  0  0  0
 12  8  1  0  0  0  0
 12 16  1  0  0  0  0
 13 18  1  0  0  0  0
 13  2  2  0  0  0  0
 15 11  1  0  0  0  0
 16  5  1  0  0  0  0
 17 16  2  0  0  0  0
 17  6  1  0  0  0  0
 18 10  2  0  0  0  0
 19 20  1  0  0  0  0
 20 15  1  0  0  0  0
 21 25  1  6  0  0  0
 21 27  1  0  0  0  0
 23 28  2  0  0  0  0
 24 26  2  0  0  0  0
 26 30  1  0  0  0  0
 27 22  1  0  0  0  0
 28 29  1  0  0  0  0
 29 26  1  0  0  0  0
 29 22  1  0  0  0  0
 31 28  1  0  0  0  0
 31 21  1  0  0  0  0
M  END
>  <MODEL>
2

>  <REMARK>
 VINA RESULT:     -10.9      2.257      4.468
  Name = 
  1 active torsions:
  status: ('A' for Active; 'I' for Inactive)
    1  A    between atoms: C_15  and  N_23
                            x       y       z     vdW  Elec       q    Type
                         _______ _______ _______ _____ _____    ______ ____

>  <TORSDO>
F 1

$$$$
=
 OpenBabel11052413033D

 31 35  0  0  1  0  0  0  0  0999 V2000
  192.0320  177.3850  140.7210 C   0  0  0  0  0  0  0  0  0  0  0  0
  189.4690  177.4620  143.5680 C   0  0  0  0  0  0  0  0  0  0  0  0
  190.1280  177.0180  144.7560 C   0  0  0  0  0  0  0  0  0  0  0  0
  191.7450  175.2350  145.5520 C   0  0  0  0  0  2  0  0  0  0  0  0
  190.0930  177.4200  142.2000 C   0  0  0  0  0  0  0  0  0  0  0  0
  191.1950  177.4360  139.6050 C   0  0  0  0  0  3  0  0  0  0  0  0
  191.5270  176.4510  144.6670 C   0  0  0  0  0  2  0  0  0  0  0  0
  187.4120  178.4310  142.4190 C   0  0  2  0  0  3  0  0  0  0  0  0
  193.3760  177.3390  140.5590 F   0  0  0  0  0  0  0  0  0  0  0  0
  188.1890  177.7120  146.0640 C   0  0  0  0  0  3  0  0  0  0  0  0
  192.2560  175.6570  146.9280 C   0  0  0  0  0  2  0  0  0  0  0  0
  187.7790  177.5660  141.2160 C   0  0  0  0  0  2  0  0  0  0  0  0
  188.1410  177.9570  143.6590 C   0  0  0  0  0  0  0  0  0  0  0  0
  191.4840  177.3840  142.0060 C   0  0  0  0  0  3  0  0  0  0  0  0
  191.5070  176.8620  147.4960 C   0  0  0  0  0  2  0  0  0  0  0  0
  189.2620  177.5050  141.0610 C   0  0  0  0  0  0  0  0  0  0  0  0
  189.8120  177.4970  139.7750 C   0  0  0  0  0  3  0  0  0  0  0  0
  187.5350  178.1040  144.9070 C   0  0  0  0  0  3  0  0  0  0  0  0
  189.4730  177.1760  146.0150 C   0  0  0  0  0  0  0  0  0  0  0  0
  190.0050  176.6860  147.3380 C   0  0  0  0  0  2  0  0  0  0  0  0
  180.8180  178.6270  142.4540 C   0  0  2  0  0  3  0  0  0  0  0  0
  183.1720  178.3170  143.1720 C   0  0  0  0  0  2  0  0  0  0  0  0
  182.9920  178.9530  139.5900 O   0  0  0  0  0  0  0  0  0  0  0  0
  185.4780  179.2710  140.5030 O   0  0  0  0  0  0  0  0  0  0  0  0
  179.5110  179.1150  142.8530 N   0  0  0  0  0  1  0  0  0  0  0  0
  185.0420  178.8250  141.5990 C   0  0  0  0  0  0  0  0  0  0  0  0
  181.8320  178.9430  143.5400 C   0  0  0  0  0  2  0  0  0  0  0  0
  182.6530  178.9750  140.8030 C   0  0  0  0  0  0  0  0  0  0  0  0
  183.6260  178.7590  141.8490 N   0  0  0  0  0  0  0  0  0  0  0  0
  185.9650  178.4050  142.6100 N   0  0  0  0  0  2  0  0  0  0  0  0
  181.2290  179.2900  141.1470 C   0  0  0  0  0  2  0  0  0  0  0  0
  1 14  1  0  0  0  0
  2 13  2  0  0  0  0
  2  3  1  0  0  0  0
  3 19  2  0  0  0  0
  4 11  1  0  0  0  0
  5  2  1  0  0  0  0
  6 17  1  0  0  0  0
  6  1  2  0  0  0  0
  7  3  1  0  0  0  0
  7  4  1  0  0  0  0
  8 30  1  1  0  0  0
  8 13  1  0  0  0  0
  9  1  1  0  0  0  0
 11 15  1  0  0  0  0
 12  8  1  0  0  0  0
 13 18  1  0  0  0  0
 14  5  2  0  0  0  0
 16 12  1  0  0  0  0
 16  5  1  0  0  0  0
 17 16  2  0  0  0  0
 18 10  2  0  0  0  0
 19 10  1  0  0  0  0
 19 20  1  0  0  0  0
 20 15  1  0  0  0  0
 21 25  1  1  0  0  0
 21 27  1  0  0  0  0
 22 27  1  0  0  0  0
 23 28  2  0  0  0  0
 24 26  2  0  0  0  0
 26 29  1  0  0  0  0
 26 30  1  0  0  0  0
 28 31  1  0  0  0  0
 28 29  1  0  0  0  0
 29 22  1  0  0  0  0
 31 21  1  0  0  0  0
M  END
>  <MODEL>
3

>  <REMARK>
 VINA RESULT:     -10.4      3.970      7.740
  Name = 
  1 active torsions:
  status: ('A' for Active; 'I' for Inactive)
    1  A    between atoms: C_15  and  N_23
                            x       y       z     vdW  Elec       q    Type
                         _______ _______ _______ _____ _____    ______ ____

>  <TORSDO>
F 1

$$$$
=
 OpenBabel11052413033D

 31 35  0  0  1  0  0  0  0  0999 V2000
  185.7130  178.5230  146.5040 C   0  0  0  0  0  0  0  0  0  0  0  0
  184.5940  178.6420  142.8420 C   0  0  0  0  0  0  0  0  0  0  0  0
  183.1730  178.7980  142.8280 C   0  0  0  0  0  0  0  0  0  0  0  0
  181.0930  177.9260  143.9860 C   0  0  0  0  0  2  0  0  0  0  0  0
  185.3960  178.3910  144.0890 C   0  0  0  0  0  0  0  0  0  0  0  0
  186.9920  177.9780  146.3760 C   0  0  0  0  0  3  0  0  0  0  0  0
  182.3970  178.6950  144.1220 C   0  0  0  0  0  2  0  0  0  0  0  0
  186.8120  178.5360  141.5930 C   0  0  2  0  0  3  0  0  0  0  0  0
  185.2360  178.8500  147.7280 F   0  0  0  0  0  0  0  0  0  0  0  0
  183.2640  179.2110  140.4260 C   0  0  0  0  0  3  0  0  0  0  0  0
  179.9450  178.8750  143.6470 C   0  0  0  0  0  2  0  0  0  0  0  0
  187.2550  177.5130  142.6350 C   0  0  0  0  0  2  0  0  0  0  0  0
  185.3060  178.7030  141.6150 C   0  0  0  0  0  0  0  0  0  0  0  0
  184.9270  178.7330  145.3690 C   0  0  0  0  0  3  0  0  0  0  0  0
  180.3170  179.8990  142.5750 C   0  0  0  0  0  2  0  0  0  0  0  0
  186.7040  177.8720  143.9750 C   0  0  0  0  0  0  0  0  0  0  0  0
  187.4860  177.6530  145.1130 C   0  0  0  0  0  3  0  0  0  0  0  0
  184.6350  179.0180  140.4320 C   0  0  0  0  0  3  0  0  0  0  0  0
  182.5190  179.1110  141.5980 C   0  0  0  0  0  0  0  0  0  0  0  0
  181.0280  179.2260  141.4120 C   0  0  0  0  0  2  0  0  0  0  0  0
  189.7130  176.4900  136.0330 C   0  0  2  0  0  3  0  0  0  0  0  0
  188.0340  177.3790  137.6280 C   0  0  0  0  0  2  0  0  0  0  0  0
  190.9460  176.1020  139.4040 O   0  0  0  0  0  0  0  0  0  0  0  0
  189.4460  177.6370  140.9880 O   0  0  0  0  0  0  0  0  0  0  0  0
  190.2830  176.6360  134.7060 N   0  0  0  0  0  1  0  0  0  0  0  0
  188.6170  177.6600  140.0380 C   0  0  0  0  0  0  0  0  0  0  0  0
  188.7200  177.6120  136.2870 C   0  0  0  0  0  2  0  0  0  0  0  0
  190.2700  176.5920  138.4610 C   0  0  0  0  0  0  0  0  0  0  0  0
  189.0090  177.2500  138.7150 N   0  0  0  0  0  0  0  0  0  0  0  0
  187.2820  178.1200  140.2750 N   0  0  0  0  0  2  0  0  0  0  0  0
  190.8260  176.5330  137.0700 C   0  0  0  0  0  2  0  0  0  0  0  0
  1  9  1  0  0  0  0
  2  5  1  0  0  0  0
  3  2  1  0  0  0  0
  3  7  1  0  0  0  0
  4  7  1  0  0  0  0
  5 14  1  0  0  0  0
  6  1  1  0  0  0  0
  8 30  1  6  0  0  0
  8 13  1  0  0  0  0
  8 12  1  0  0  0  0
 10 18  2  0  0  0  0
 10 19  1  0  0  0  0
 11  4  1  0  0  0  0
 12 16  1  0  0  0  0
 13  2  2  0  0  0  0
 14  1  2  0  0  0  0
 15 11  1  0  0  0  0
 16  5  2  0  0  0  0
 16 17  1  0  0  0  0
 17  6  2  0  0  0  0
 18 13  1  0  0  0  0
 19  3  2  0  0  0  0
 20 19  1  0  0  0  0
 20 15  1  0  0  0  0
 21 25  1  6  0  0  0
 21 27  1  0  0  0  0
 21 31  1  0  0  0  0
 22 29  1  0  0  0  0
 26 30  1  0  0  0  0
 26 24  2  0  0  0  0
 27 22  1  0  0  0  0
 28 29  1  0  0  0  0
 28 23  2  0  0  0  0
 29 26  1  0  0  0  0
 31 28  1  0  0  0  0
M  END
>  <MODEL>
4

>  <REMARK>
 VINA RESULT:     -10.1      2.398      3.600
  Name = 
  1 active torsions:
  status: ('A' for Active; 'I' for Inactive)
    1  A    between atoms: C_15  and  N_23
                            x       y       z     vdW  Elec       q    Type
                         _______ _______ _______ _____ _____    ______ ____

>  <TORSDO>
F 1

$$$$
=
 OpenBabel11052413033D

 31 35  0  0  1  0  0  0  0  0999 V2000
  186.9090  177.8770  147.2130 C   0  0  0  0  0  0  0  0  0  0  0  0
  187.3320  178.1430  143.4150 C   0  0  0  0  0  0  0  0  0  0  0  0
  188.7310  178.0590  143.1280 C   0  0  0  0  0  0  0  0  0  0  0  0
  190.9600  178.9250  143.9690 C   0  0  0  0  0  2  0  0  0  0  0  0
  186.7680  178.2410  144.8060 C   0  0  0  0  0  0  0  0  0  0  0  0
  185.6120  178.3680  147.3730 C   0  0  0  0  0  3  0  0  0  0  0  0
  189.7290  178.0840  144.2640 C   0  0  0  0  0  2  0  0  0  0  0  0
  184.9190  178.2510  142.6060 C   0  0  2  0  0  3  0  0  0  0  0  0
  187.6150  177.4660  148.2930 F   0  0  0  0  0  0  0  0  0  0  0  0
  188.2090  177.8590  140.7540 C   0  0  0  0  0  3  0  0  0  0  0  0
  192.0550  178.0680  143.3360 C   0  0  0  0  0  2  0  0  0  0  0  0
  184.6450  179.1540  143.8050 C   0  0  0  0  0  2  0  0  0  0  0  0
  186.4070  178.1570  142.3380 C   0  0  0  0  0  0  0  0  0  0  0  0
  187.4770  177.8090  145.9390 C   0  0  0  0  0  3  0  0  0  0  0  0
  191.5240  177.1280  142.2550 C   0  0  0  0  0  2  0  0  0  0  0  0
  185.4460  178.7030  144.9820 C   0  0  0  0  0  0  0  0  0  0  0  0
  184.8810  178.7800  146.2590 C   0  0  0  0  0  3  0  0  0  0  0  0
  186.8570  177.9830  141.0280 C   0  0  0  0  0  3  0  0  0  0  0  0
  189.1540  177.8900  141.7750 C   0  0  0  0  0  0  0  0  0  0  0  0
  190.5880  177.8660  141.3110 C   0  0  0  0  0  2  0  0  0  0  0  0
  180.9290  180.4070  137.8150 C   0  0  2  0  0  3  0  0  0  0  0  0
  182.9640  179.7490  139.0720 C   0  0  0  0  0  2  0  0  0  0  0  0
  180.0510  179.7650  141.2580 O   0  0  0  0  0  0  0  0  0  0  0  0
  182.0870  178.4520  142.3730 O   0  0  0  0  0  0  0  0  0  0  0  0
  180.2650  180.3610  136.5260 N   0  0  0  0  0  1  0  0  0  0  0  0
  182.7720  178.8530  141.3930 C   0  0  0  0  0  0  0  0  0  0  0  0
  182.2100  179.5910  137.7570 C   0  0  0  0  0  2  0  0  0  0  0  0
  180.7150  179.6820  140.1910 C   0  0  0  0  0  0  0  0  0  0  0  0
  182.1280  179.3790  140.2180 N   0  0  0  0  0  0  0  0  0  0  0  0
  184.2000  178.7600  141.4420 N   0  0  0  0  0  2  0  0  0  0  0  0
  180.0020  179.8450  138.8840 C   0  0  0  0  0  2  0  0  0  0  0  0
  1  6  1  0  0  0  0
  1  9  1  0  0  0  0
  2  5  1  0  0  0  0
  3  2  1  0  0  0  0
  3  7  1  0  0  0  0
  4  7  1  0  0  0  0
  5 16  2  0  0  0  0
  5 14  1  0  0  0  0
  8 30  1  6  0  0  0
  8 12  1  0  0  0  0
 10 18  2  0  0  0  0
 10 19  1  0  0  0  0
 11  4  1  0  0  0  0
 12 16  1  0  0  0  0
 13  8  1  0  0  0  0
 13  2  2  0  0  0  0
 14  1  2  0  0  0  0
 15 11  1  0  0  0  0
 16 17  1  0  0  0  0
 17  6  2  0  0  0  0
 18 13  1  0  0  0  0
 19  3  2  0  0  0  0
 20 19  1  0  0  0  0
 20 15  1  0  0  0  0
 21 25  1  6  0  0  0
 21 31  1  0  0  0  0
 22 29  1  0  0  0  0
 26 30  1  0  0  0  0
 26 24  2  0  0  0  0
 27 21  1  0  0  0  0
 27 22  1  0  0  0  0
 28 29  1  0  0  0  0
 28 23  2  0  0  0  0
 29 26  1  0  0  0  0
 31 28  1  0  0  0  0
M  END
>  <MODEL>
5

>  <REMARK>
 VINA RESULT:      -9.3      4.814      7.611
  Name = 
  1 active torsions:
  status: ('A' for Active; 'I' for Inactive)
    1  A    between atoms: C_15  and  N_23
                            x       y       z     vdW  Elec       q    Type
                         _______ _______ _______ _____ _____    ______ ____

>  <TORSDO>
F 1

$$$$
=
 OpenBabel11052413033D

 31 35  0  0  1  0  0  0  0  0999 V2000
  182.2320  179.1890  140.2610 C   0  0  0  0  0  0  0  0  0  0  0  0
  185.9620  178.3440  140.0310 C   0  0  0  0  0  0  0  0  0  0  0  0
  186.2750  178.1380  138.6510 C   0  0  0  0  0  0  0  0  0  0  0  0
  185.3510  177.0090  136.5780 C   0  0  0  0  0  2  0  0  0  0  0  0
  184.5640  178.5360  140.5520 C   0  0  0  0  0  0  0  0  0  0  0  0
  181.9890  178.9630  141.6170 C   0  0  0  0  0  3  0  0  0  0  0  0
  185.1600  178.0880  137.6310 C   0  0  0  0  0  2  0  0  0  0  0  0
  186.7180  178.5610  142.4540 C   0  0  2  0  0  3  0  0  0  0  0  0
  181.2290  179.6090  139.4540 F   0  0  0  0  0  0  0  0  0  0  0  0
  188.6480  178.1070  139.2180 C   0  0  0  0  0  3  0  0  0  0  0  0
  186.1100  177.5630  135.3740 C   0  0  0  0  0  2  0  0  0  0  0  0
  185.4010  177.8910  142.8380 C   0  0  0  0  0  2  0  0  0  0  0  0
  187.0150  178.3510  140.9840 C   0  0  0  0  0  0  0  0  0  0  0  0
  183.5100  178.9830  139.7370 C   0  0  0  0  0  3  0  0  0  0  0  0
  187.3040  178.4300  135.7720 C   0  0  0  0  0  2  0  0  0  0  0  0
  184.3090  178.3450  141.9280 C   0  0  0  0  0  0  0  0  0  0  0  0
  183.0270  178.5430  142.4490 C   0  0  0  0  0  3  0  0  0  0  0  0
  188.3420  178.2640  140.5590 C   0  0  0  0  0  3  0  0  0  0  0  0
  187.6440  178.0450  138.2550 C   0  0  0  0  0  0  0  0  0  0  0  0
  188.1250  177.7500  136.8570 C   0  0  0  0  0  2  0  0  0  0  0  0
  191.0610  176.4310  146.9400 C   0  0  2  0  0  3  0  0  0  0  0  0
  189.9940  176.9980  144.7730 C   0  0  0  0  0  2  0  0  0  0  0  0
  187.6240  177.3780  147.5130 O   0  0  0  0  0  0  0  0  0  0  0  0
  186.7470  178.5870  145.3030 O   0  0  0  0  0  0  0  0  0  0  0  0
  192.3030  176.4450  147.6900 N   0  0  0  0  0  1  0  0  0  0  0  0
  187.7380  178.0630  144.7240 C   0  0  0  0  0  0  0  0  0  0  0  0
  191.2640  177.1290  145.6050 C   0  0  0  0  0  2  0  0  0  0  0  0
  188.7360  177.3310  146.9230 C   0  0  0  0  0  0  0  0  0  0  0  0
  188.8250  177.5150  145.4920 N   0  0  0  0  0  0  0  0  0  0  0  0
  187.7900  178.0370  143.2940 N   0  0  0  0  0  2  0  0  0  0  0  0
  189.9780  177.1410  147.7400 C   0  0  0  0  0  2  0  0  0  0  0  0
  1  6  1  0  0  0  0
  2  5  1  0  0  0  0
  2 13  1  0  0  0  0
  3  2  2  0  0  0  0
  4  7  1  0  0  0  0
  5 16  2  0  0  0  0
  6 17  2  0  0  0  0
  7  3  1  0  0  0  0
  8 12  1  0  0  0  0
  8 30  1  1  0  0  0
  9  1  1  0  0  0  0
 10 18  1  0  0  0  0
 11 15  1  0  0  0  0
 11  4  1  0  0  0  0
 13  8  1  0  0  0  0
 14  1  2  0  0  0  0
 14  5  1  0  0  0  0
 15 20  1  0  0  0  0
 16 17  1  0  0  0  0
 16 12  1  0  0  0  0
 18 13  2  0  0  0  0
 19  3  1  0  0  0  0
 19 10  2  0  0  0  0
 20 19  1  0  0  0  0
 21 25  1  1  0  0  0
 21 31  1  0  0  0  0
 22 29  1  0  0  0  0
 22 27  1  0  0  0  0
 26 24  2  0  0  0  0
 26 29  1  0  0  0  0
 27 21  1  0  0  0  0
 28 23  2  0  0  0  0
 28 31  1  0  0  0  0
 29 28  1  0  0  0  0
 30 26  1  0  0  0  0
M  END
>  <MODEL>
6

>  <REMARK>
 VINA RESULT:      -9.2      4.416      8.202
  Name = 
  1 active torsions:
  status: ('A' for Active; 'I' for Inactive)
    1  A    between atoms: C_15  and  N_23
                            x       y       z     vdW  Elec       q    Type
                         _______ _______ _______ _____ _____    ______ ____

>  <TORSDO>
F 1

$$$$
=
 OpenBabel11052413033D

 31 35  0  0  1  0  0  0  0  0999 V2000
  185.8040  178.5140  145.2380 C   0  0  0  0  0  0  0  0  0  0  0  0
  186.0780  178.2400  141.4260 C   0  0  0  0  0  0  0  0  0  0  0  0
  184.8010  178.5720  140.8750 C   0  0  0  0  0  0  0  0  0  0  0  0
  182.3310  178.1490  141.2580 C   0  0  0  0  0  2  0  0  0  0  0  0
  186.3360  178.0730  142.8990 C   0  0  0  0  0  0  0  0  0  0  0  0
  186.9330  177.7980  145.6400 C   0  0  0  0  0  3  0  0  0  0  0  0
  183.6150  178.7570  141.7960 C   0  0  0  0  0  2  0  0  0  0  0  0
  188.5390  177.6730  141.0980 C   0  0  2  0  0  3  0  0  0  0  0  0
  184.9920  179.0730  146.1650 F   0  0  0  0  0  0  0  0  0  0  0  0
  185.7970  178.6160  138.6490 C   0  0  0  0  0  3  0  0  0  0  0  0
  181.5550  179.1760  140.4350 C   0  0  0  0  0  2  0  0  0  0  0  0
  188.4070  176.7640  142.3170 C   0  0  0  0  0  2  0  0  0  0  0  0
  187.1740  178.0310  140.5480 C   0  0  0  0  0  0  0  0  0  0  0  0
  185.5140  178.6540  143.8790 C   0  0  0  0  0  3  0  0  0  0  0  0
  182.4480  179.9780  139.4900 C   0  0  0  0  0  2  0  0  0  0  0  0
  187.4920  177.3810  143.3210 C   0  0  0  0  0  0  0  0  0  0  0  0
  187.7760  177.2330  144.6820 C   0  0  0  0  0  3  0  0  0  0  0  0
  187.0250  178.2530  139.1790 C   0  0  0  0  0  3  0  0  0  0  0  0
  184.6840  178.7830  139.4680 C   0  0  0  0  0  0  0  0  0  0  0  0
  183.3950  179.0590  138.7360 C   0  0  0  0  0  2  0  0  0  0  0  0
  192.9350  175.1650  136.8660 C   0  0  2  0  0  3  0  0  0  0  0  0
  190.8060  175.6550  138.0410 C   0  0  0  0  0  2  0  0  0  0  0  0
  193.6280  177.0970  139.8370 O   0  0  0  0  0  0  0  0  0  0  0  0
  191.3180  178.1370  140.6730 O   0  0  0  0  0  0  0  0  0  0  0  0
  193.5540  174.9560  135.5700 N   0  0  0  0  0  1  0  0  0  0  0  0
  190.7620  177.2770  139.9370 C   0  0  0  0  0  0  0  0  0  0  0  0
  191.4810  175.5620  136.6770 C   0  0  0  0  0  2  0  0  0  0  0  0
  192.9590  176.6550  138.8660 C   0  0  0  0  0  0  0  0  0  0  0  0
  191.5180  176.5790  138.9300 N   0  0  0  0  0  0  0  0  0  0  0  0
  189.3630  177.0130  140.0890 N   0  0  0  0  0  2  0  0  0  0  0  0
  193.6820  176.2620  137.6130 C   0  0  0  0  0  2  0  0  0  0  0  0
  1  6  1  0  0  0  0
  1  9  1  0  0  0  0
  2  5  1  0  0  0  0
  3  2  1  0  0  0  0
  3  7  1  0  0  0  0
  4  7  1  0  0  0  0
  5 16  2  0  0  0  0
  5 14  1  0  0  0  0
  8 30  1  6  0  0  0
  8 12  1  0  0  0  0
 10 18  2  0  0  0  0
 10 19  1  0  0  0  0
 11  4  1  0  0  0  0
 12 16  1  0  0  0  0
 13  8  1  0  0  0  0
 13  2  2  0  0  0  0
 14  1  2  0  0  0  0
 15 11  1  0  0  0  0
 16 17  1  0  0  0  0
 17  6  2  0  0  0  0
 18 13  1  0  0  0  0
 19  3  2  0  0  0  0
 20 19  1  0  0  0  0
 20 15  1  0  0  0  0
 21 25  1  6  0  0  0
 21 31  1  0  0  0  0
 22 29  1  0  0  0  0
 26 30  1  0  0  0  0
 26 24  2  0  0  0  0
 27 21  1  0  0  0  0
 27 22  1  0  0  0  0
 28 29  1  0  0  0  0
 28 23  2  0  0  0  0
 29 26  1  0  0  0  0
 31 28  1  0  0  0  0
M  END
>  <MODEL>
7

>  <REMARK>
 VINA RESULT:      -8.9      2.158      3.306
  Name = 
  1 active torsions:
  status: ('A' for Active; 'I' for Inactive)
    1  A    between atoms: C_15  and  N_23
                            x       y       z     vdW  Elec       q    Type
                         _______ _______ _______ _____ _____    ______ ____

>  <TORSDO>
F 1

$$$$
=
 OpenBabel11052413033D

 31 35  0  0  1  0  0  0  0  0999 V2000
  181.3000  179.2830  138.4390 C   0  0  0  0  0  0  0  0  0  0  0  0
  184.9520  178.4090  139.2030 C   0  0  0  0  0  0  0  0  0  0  0  0
  185.5760  178.0410  137.9700 C   0  0  0  0  0  0  0  0  0  0  0  0
  185.1340  176.6750  135.8810 C   0  0  0  0  0  2  0  0  0  0  0  0
  183.4760  178.6650  139.3500 C   0  0  0  0  0  0  0  0  0  0  0  0
  180.7370  179.2200  139.7150 C   0  0  0  0  0  3  0  0  0  0  0  0
  184.7320  177.8720  136.7270 C   0  0  0  0  0  2  0  0  0  0  0  0
  185.1190  178.9110  141.6940 C   0  0  2  0  0  3  0  0  0  0  0  0
  180.5290  179.6060  137.3740 F   0  0  0  0  0  0  0  0  0  0  0  0
  187.7450  178.0720  139.0850 C   0  0  0  0  0  3  0  0  0  0  0  0
  186.1720  177.0810  134.8370 C   0  0  0  0  0  2  0  0  0  0  0  0
  183.7300  178.2940  141.8280 C   0  0  0  0  0  2  0  0  0  0  0  0
  185.7490  178.5280  140.3720 C   0  0  0  0  0  0  0  0  0  0  0  0
  182.6590  179.0140  138.2620 C   0  0  0  0  0  3  0  0  0  0  0  0
  187.2640  177.9870  135.4050 C   0  0  0  0  0  2  0  0  0  0  0  0
  182.8980  178.6390  140.6380 C   0  0  0  0  0  0  0  0  0  0  0  0
  181.5350  178.8990  140.8120 C   0  0  0  0  0  3  0  0  0  0  0  0
  187.1350  178.3880  140.2880 C   0  0  0  0  0  3  0  0  0  0  0  0
  186.9950  177.8990  137.9250 C   0  0  0  0  0  0  0  0  0  0  0  0
  187.7840  177.4400  136.7250 C   0  0  0  0  0  2  0  0  0  0  0  0
  188.2700  177.4200  147.2950 C   0  0  2  0  0  3  0  0  0  0  0  0
  187.6970  177.6050  144.8890 C   0  0  0  0  0  2  0  0  0  0  0  0
  184.9290  178.7480  146.9620 O   0  0  0  0  0  0  0  0  0  0  0  0
  184.6270  179.5330  144.4310 O   0  0  0  0  0  0  0  0  0  0  0  0
  189.3460  177.4890  148.2670 N   0  0  0  0  0  1  0  0  0  0  0  0
  185.6360  178.8190  144.1780 C   0  0  0  0  0  0  0  0  0  0  0  0
  188.7990  177.8030  145.9230 C   0  0  0  0  0  2  0  0  0  0  0  0
  186.1160  178.4860  146.6320 C   0  0  0  0  0  0  0  0  0  0  0  0
  186.4880  178.3560  145.2420 N   0  0  0  0  0  0  0  0  0  0  0  0
  185.9470  178.4880  142.8200 N   0  0  0  0  0  2  0  0  0  0  0  0
  187.1530  178.3700  147.7070 C   0  0  0  0  0  2  0  0  0  0  0  0
  1  6  1  0  0  0  0
  2  5  1  0  0  0  0
  2 13  1  0  0  0  0
  3  2  2  0  0  0  0
  4  7  1  0  0  0  0
  5 16  2  0  0  0  0
  6 17  2  0  0  0  0
  7  3  1  0  0  0  0
  8 12  1  0  0  0  0
  8 30  1  1  0  0  0
  9  1  1  0  0  0  0
 10 18  1  0  0  0  0
 11 15  1  0  0  0  0
 11  4  1  0  0  0  0
 13  8  1  0  0  0  0
 14  1  2  0  0  0  0
 14  5  1  0  0  0  0
 15 20  1  0  0  0  0
 16 17  1  0  0  0  0
 16 12  1  0  0  0  0
 18 13  2  0  0  0  0
 19  3  1  0  0  0  0
 19 10  2  0  0  0  0
 20 19  1  0  0  0  0
 21 31  1  0  0  0  0
 21 25  1  1  0  0  0
 22 29  1  0  0  0  0
 22 27  1  0  0  0  0
 26 24  2  0  0  0  0
 26 29  1  0  0  0  0
 27 21  1  0  0  0  0
 28 23  2  0  0  0  0
 28 31  1  0  0  0  0
 29 28  1  0  0  0  0
 30 26  1  0  0  0  0
M  END
>  <MODEL>
8

>  <REMARK>
 VINA RESULT:      -8.8      5.078      9.333
  Name = 
  1 active torsions:
  status: ('A' for Active; 'I' for Inactive)
    1  A    between atoms: C_15  and  N_23
                            x       y       z     vdW  Elec       q    Type
                         _______ _______ _______ _____ _____    ______ ____

>  <TORSDO>
F 1

$$$$
