=
 OpenBabel11052414473D

 32 33  0  0  1  0  0  0  0  0999 V2000
  186.5680  178.7840  141.4100 C   0  0  0  0  0  2  0  0  0  0  0  0
  187.6370  178.4380  142.3330 N   0  0  0  0  0  2  0  0  0  0  0  0
  187.9310  177.0250  142.1370 C   0  0  1  0  0  3  0  0  0  0  0  0
  189.1800  176.5660  142.8980 C   0  0  2  0  0  3  0  0  0  0  0  0
  187.7990  176.2960  143.4570 C   0  0  0  0  0  2  0  0  0  0  0  0
  189.8560  177.6650  143.7150 C   0  0  0  0  0  2  0  0  0  0  0  0
  191.0210  177.1030  144.5140 C   0  0  2  0  0  3  0  0  0  0  0  0
  191.6790  175.9510  143.7630 C   0  0  0  0  0  1  0  0  0  0  0  0
  190.5580  176.7110  145.9240 C   0  0  1  0  0  3  0  0  0  0  0  0
  192.3480  175.2150  146.8640 O   0  0  0  0  0  0  0  0  0  0  0  0
  191.6600  176.4210  146.9030 C   0  0  0  0  0  0  0  0  0  0  0  0
  191.9580  177.2800  147.7730 O   0  0  0  0  0  1  0  0  0  0  0  0
  189.4500  177.6000  146.4900 C   0  0  0  0  0  2  0  0  0  0  0  0
  188.3630  176.8090  147.2100 C   0  0  0  0  0  2  0  0  0  0  0  0
  188.9580  178.5430  148.8940 C   0  0  0  0  0  1  0  0  0  0  0  0
  187.8990  177.5540  148.4480 C   0  0  0  0  0  2  0  0  0  0  0  0
  185.2100  178.5660  142.0710 C   0  0  2  0  0  3  0  0  0  0  0  0
  184.0950  178.8160  141.1010 C   0  0  0  0  0  0  0  0  0  0  0  0
  184.3540  179.0790  139.7480 C   0  0  0  0  0  3  0  0  0  0  0  0
  182.7720  178.7570  141.5510 C   0  0  0  0  0  3  0  0  0  0  0  0
  180.9370  179.4480  138.4150 O   0  0  0  0  0  1  0  0  0  0  0  0
  181.9770  179.2360  139.3110 C   0  0  0  0  0  0  0  0  0  0  0  0
  183.2980  179.2900  138.8580 C   0  0  0  0  0  3  0  0  0  0  0  0
  181.7060  178.9700  140.6630 C   0  0  0  0  0  0  0  0  0  0  0  0
  180.3480  178.9120  141.1160 N   0  0  0  0  0  2  0  0  0  0  0  0
  179.8520  177.9180  142.0580 C   0  0  0  0  0  2  0  0  0  0  0  0
  179.7480  178.5240  143.4440 C   0  0  0  0  0  1  0  0  0  0  0  0
  185.0540  179.4490  143.3040 C   0  0  0  0  0  2  0  0  0  0  0  0
  184.7710  178.6160  144.5460 C   0  0  2  0  0  3  0  0  0  0  0  0
  183.3370  178.8490  144.9790 C   0  0  0  0  0  1  0  0  0  0  0  0
  185.0510  178.9630  146.8960 O   0  0  0  0  0  1  0  0  0  0  0  0
  185.7150  179.0140  145.6720 C   0  0  0  0  0  2  0  0  0  0  0  0
  1  2  1  0  0  0  0
  3  2  1  1  0  0  0
  3  4  1  0  0  0  0
  3  5  1  0  0  0  0
  4  5  1  0  0  0  0
  4  6  1  1  0  0  0
  6  7  1  0  0  0  0
  7  8  1  6  0  0  0
  7  9  1  0  0  0  0
  9 13  1  1  0  0  0
  9 11  1  0  0  0  0
 10 11  2  0  0  0  0
 11 12  1  0  0  0  0
 13 14  1  0  0  0  0
 14 16  1  0  0  0  0
 16 15  1  0  0  0  0
 17  1  1  6  0  0  0
 17 28  1  0  0  0  0
 18 20  1  0  0  0  0
 18 17  1  0  0  0  0
 19 18  2  0  0  0  0
 21 22  1  0  0  0  0
 22 24  1  0  0  0  0
 23 22  2  0  0  0  0
 23 19  1  0  0  0  0
 24 25  1  0  0  0  0
 24 20  2  0  0  0  0
 25 26  1  0  0  0  0
 26 27  1  0  0  0  0
 28 29  1  0  0  0  0
 29 30  1  1  0  0  0
 29 32  1  0  0  0  0
 32 31  1  0  0  0  0
M  END
>  <MODEL>
1

>  <REMARK>
 VINA RESULT:      -7.1      0.000      0.000
  Name = 
  16 active torsions:
  status: ('A' for Active; 'I' for Inactive)
    1  A    between atoms: N_1  and  C_4
    2  A    between atoms: N_1  and  C_5
    3  A    between atoms: C_2  and  C_14
    4  A    between atoms: C_3  and  C_15
    5  A    between atoms: C_3  and  C_20
    6  A    between atoms: C_3  and  C_22
    7  A    between atoms: C_5  and  C_14
    8  A    between atoms: C_9  and  N_28
    9  A    between atoms: C_13  and  C_29
   10  A    between atoms: C_13  and  C_30
   11  A    between atoms: C_14  and  C_30
   12  A    between atoms: C_15  and  C_26
   13  A    between atoms: C_16  and  C_20
   14  A    between atoms: C_16  and  C_24
   15  A    between atoms: C_19  and  C_26
   16  A    between atoms: N_28  and  C_32
                            x       y       z     vdW  Elec       q    Type
                         _______ _______ _______ _____ _____    ______ ____

>  <TORSDO>
F 16

$$$$
=
 OpenBabel11052414473D

 32 33  0  0  1  0  0  0  0  0999 V2000
  188.7670  176.3910  142.9690 C   0  0  0  0  0  2  0  0  0  0  0  0
  189.4310  177.3010  142.0490 N   0  0  0  0  0  2  0  0  0  0  0  0
  190.4410  176.5290  141.3390 C   0  0  1  0  0  3  0  0  0  0  0  0
  190.5540  176.9160  139.8590 C   0  0  2  0  0  3  0  0  0  0  0  0
  191.5440  177.4550  140.8700 C   0  0  0  0  0  2  0  0  0  0  0  0
  189.6050  178.0320  139.4290 C   0  0  0  0  0  2  0  0  0  0  0  0
  189.2360  177.8880  137.9600 C   0  0  2  0  0  3  0  0  0  0  0  0
  189.0790  179.2590  137.3110 C   0  0  0  0  0  1  0  0  0  0  0  0
  187.9880  177.0080  137.8100 C   0  0  1  0  0  3  0  0  0  0  0  0
  186.2860  178.4770  138.9380 O   0  0  0  0  0  1  0  0  0  0  0  0
  186.6790  177.7450  137.8240 C   0  0  0  0  0  0  0  0  0  0  0  0
  185.9270  177.6930  136.8170 O   0  0  0  0  0  0  0  0  0  0  0  0
  188.0900  175.9590  136.7020 C   0  0  0  0  0  2  0  0  0  0  0  0
  189.5290  175.5650  136.3880 C   0  0  0  0  0  2  0  0  0  0  0  0
  188.9210  173.1970  136.8550 C   0  0  0  0  0  1  0  0  0  0  0  0
  189.9120  174.3070  137.1460 C   0  0  0  0  0  2  0  0  0  0  0  0
  188.8610  176.9230  144.3960 C   0  0  2  0  0  3  0  0  0  0  0  0
  187.5460  177.4820  144.8470 C   0  0  0  0  0  0  0  0  0  0  0  0
  187.3260  177.8360  146.1860 C   0  0  0  0  0  3  0  0  0  0  0  0
  186.5290  177.6780  143.9070 C   0  0  0  0  0  3  0  0  0  0  0  0
  183.8650  179.0980  146.0450 O   0  0  0  0  0  1  0  0  0  0  0  0
  185.0820  178.5640  145.6390 C   0  0  0  0  0  0  0  0  0  0  0  0
  186.0980  178.3730  146.5790 C   0  0  0  0  0  3  0  0  0  0  0  0
  185.2910  178.2160  144.2950 C   0  0  0  0  0  0  0  0  0  0  0  0
  184.2450  178.4200  143.3390 N   0  0  0  0  0  2  0  0  0  0  0  0
  184.4810  178.7270  141.9340 C   0  0  0  0  0  2  0  0  0  0  0  0
  183.5180  177.9430  141.0630 C   0  0  0  0  0  1  0  0  0  0  0  0
  189.9590  177.9750  144.5170 C   0  0  0  0  0  2  0  0  0  0  0  0
  191.1560  177.4340  145.2840 C   0  0  2  0  0  3  0  0  0  0  0  0
  191.7160  176.2360  144.5420 C   0  0  0  0  0  1  0  0  0  0  0  0
  191.8630  176.8130  147.4830 O   0  0  0  0  0  1  0  0  0  0  0  0
  190.7370  177.0170  146.6860 C   0  0  0  0  0  2  0  0  0  0  0  0
  2  1  1  0  0  0  0
  3  2  1  1  0  0  0
  4  6  1  1  0  0  0
  4  5  1  0  0  0  0
  4  3  1  0  0  0  0
  5  3  1  0  0  0  0
  7  8  1  1  0  0  0
  7  6  1  0  0  0  0
  9 13  1  6  0  0  0
  9 11  1  0  0  0  0
  9  7  1  0  0  0  0
 11 10  1  0  0  0  0
 12 11  2  0  0  0  0
 14 13  1  0  0  0  0
 14 16  1  0  0  0  0
 15 16  1  0  0  0  0
 17  1  1  6  0  0  0
 17 28  1  0  0  0  0
 17 18  1  0  0  0  0
 18 19  1  0  0  0  0
 19 23  2  0  0  0  0
 20 24  1  0  0  0  0
 20 18  2  0  0  0  0
 22 21  1  0  0  0  0
 22 23  1  0  0  0  0
 24 22  2  0  0  0  0
 25 24  1  0  0  0  0
 26 25  1  0  0  0  0
 27 26  1  0  0  0  0
 28 29  1  0  0  0  0
 29 30  1  6  0  0  0
 29 32  1  0  0  0  0
 32 31  1  0  0  0  0
M  END
>  <MODEL>
2

>  <REMARK>
 VINA RESULT:      -7.1      3.339      7.485
  Name = 
  16 active torsions:
  status: ('A' for Active; 'I' for Inactive)
    1  A    between atoms: N_1  and  C_4
    2  A    between atoms: N_1  and  C_5
    3  A    between atoms: C_2  and  C_14
    4  A    between atoms: C_3  and  C_15
    5  A    between atoms: C_3  and  C_20
    6  A    between atoms: C_3  and  C_22
    7  A    between atoms: C_5  and  C_14
    8  A    between atoms: C_9  and  N_28
    9  A    between atoms: C_13  and  C_29
   10  A    between atoms: C_13  and  C_30
   11  A    between atoms: C_14  and  C_30
   12  A    between atoms: C_15  and  C_26
   13  A    between atoms: C_16  and  C_20
   14  A    between atoms: C_16  and  C_24
   15  A    between atoms: C_19  and  C_26
   16  A    between atoms: N_28  and  C_32
                            x       y       z     vdW  Elec       q    Type
                         _______ _______ _______ _____ _____    ______ ____

>  <TORSDO>
F 16

$$$$
=
 OpenBabel11052414473D

 32 33  0  0  1  0  0  0  0  0999 V2000
  185.7670  179.0730  142.1580 C   0  0  0  0  0  2  0  0  0  0  0  0
  186.7330  178.0480  141.7960 N   0  0  0  0  0  2  0  0  0  0  0  0
  187.8800  178.7310  141.2110 C   0  0  1  0  0  3  0  0  0  0  0  0
  189.1930  178.4180  141.9390 C   0  0  2  0  0  3  0  0  0  0  0  0
  188.8420  177.7050  140.6500 C   0  0  0  0  0  2  0  0  0  0  0  0
  189.0440  177.4540  143.1130 C   0  0  0  0  0  2  0  0  0  0  0  0
  189.8600  177.9280  144.3060 C   0  0  2  0  0  3  0  0  0  0  0  0
  190.6850  179.1550  143.9360 C   0  0  0  0  0  1  0  0  0  0  0  0
  190.7130  176.7770  144.8580 C   0  0  1  0  0  3  0  0  0  0  0  0
  192.0830  176.8010  142.7490 O   0  0  0  0  0  0  0  0  0  0  0  0
  191.6110  176.1080  143.8570 C   0  0  0  0  0  0  0  0  0  0  0  0
  191.9350  174.9040  144.0230 O   0  0  0  0  0  1  0  0  0  0  0  0
  191.3980  177.0880  146.1890 C   0  0  0  0  0  2  0  0  0  0  0  0
  190.6340  176.5460  147.3920 C   0  0  0  0  0  2  0  0  0  0  0  0
  189.0340  178.1160  148.4730 C   0  0  0  0  0  1  0  0  0  0  0  0
  189.2090  177.0680  147.3920 C   0  0  0  0  0  2  0  0  0  0  0  0
  184.9290  178.6090  143.3460 C   0  0  2  0  0  3  0  0  0  0  0  0
  183.4660  178.6730  143.0270 C   0  0  0  0  0  0  0  0  0  0  0  0
  182.5040  178.7970  144.0410 C   0  0  0  0  0  3  0  0  0  0  0  0
  183.0560  178.6360  141.6900 C   0  0  0  0  0  3  0  0  0  0  0  0
  179.3880  178.9090  142.0760 O   0  0  0  0  0  1  0  0  0  0  0  0
  180.7410  178.8320  142.3820 C   0  0  0  0  0  0  0  0  0  0  0  0
  181.1480  178.8740  143.7180 C   0  0  0  0  0  3  0  0  0  0  0  0
  181.6940  178.7110  141.3580 C   0  0  0  0  0  0  0  0  0  0  0  0
  181.2660  178.6740  139.9920 N   0  0  0  0  0  2  0  0  0  0  0  0
  181.1510  179.8560  139.1480 C   0  0  0  0  0  2  0  0  0  0  0  0
  181.1240  179.4490  137.6870 C   0  0  0  0  0  1  0  0  0  0  0  0
  185.2410  179.4320  144.5910 C   0  0  0  0  0  2  0  0  0  0  0  0
  186.1990  178.6920  145.5140 C   0  0  2  0  0  3  0  0  0  0  0  0
  186.2420  177.2320  145.1090 C   0  0  0  0  0  1  0  0  0  0  0  0
  184.4080  178.3840  147.0690 O   0  0  0  0  0  1  0  0  0  0  0  0
  185.7310  178.8080  146.9580 C   0  0  0  0  0  2  0  0  0  0  0  0
  2  1  1  0  0  0  0
  3  2  1  1  0  0  0
  3  4  1  0  0  0  0
  4  6  1  1  0  0  0
  5  3  1  0  0  0  0
  5  4  1  0  0  0  0
  6  7  1  0  0  0  0
  7  8  1  6  0  0  0
  7  9  1  0  0  0  0
  9 13  1  1  0  0  0
 10 11  2  0  0  0  0
 11 12  1  0  0  0  0
 11  9  1  0  0  0  0
 13 14  1  0  0  0  0
 16 14  1  0  0  0  0
 16 15  1  0  0  0  0
 17  1  1  6  0  0  0
 17 28  1  0  0  0  0
 18 17  1  0  0  0  0
 18 19  1  0  0  0  0
 20 18  2  0  0  0  0
 21 22  1  0  0  0  0
 22 23  1  0  0  0  0
 23 19  2  0  0  0  0
 24 20  1  0  0  0  0
 24 22  2  0  0  0  0
 25 24  1  0  0  0  0
 26 25  1  0  0  0  0
 27 26  1  0  0  0  0
 28 29  1  0  0  0  0
 29 30  1  6  0  0  0
 29 32  1  0  0  0  0
 32 31  1  0  0  0  0
M  END
>  <MODEL>
3

>  <REMARK>
 VINA RESULT:      -7.0      1.642      2.811
  Name = 
  16 active torsions:
  status: ('A' for Active; 'I' for Inactive)
    1  A    between atoms: N_1  and  C_4
    2  A    between atoms: N_1  and  C_5
    3  A    between atoms: C_2  and  C_14
    4  A    between atoms: C_3  and  C_15
    5  A    between atoms: C_3  and  C_20
    6  A    between atoms: C_3  and  C_22
    7  A    between atoms: C_5  and  C_14
    8  A    between atoms: C_9  and  N_28
    9  A    between atoms: C_13  and  C_29
   10  A    between atoms: C_13  and  C_30
   11  A    between atoms: C_14  and  C_30
   12  A    between atoms: C_15  and  C_26
   13  A    between atoms: C_16  and  C_20
   14  A    between atoms: C_16  and  C_24
   15  A    between atoms: C_19  and  C_26
   16  A    between atoms: N_28  and  C_32
                            x       y       z     vdW  Elec       q    Type
                         _______ _______ _______ _____ _____    ______ ____

>  <TORSDO>
F 16

$$$$
=
 OpenBabel11052414473D

 32 33  0  0  1  0  0  0  0  0999 V2000
  189.5120  176.8120  140.4980 C   0  0  0  0  0  2  0  0  0  0  0  0
  189.7140  177.2310  141.8750 N   0  0  0  0  0  2  0  0  0  0  0  0
  189.2940  176.1240  142.7240 C   0  0  1  0  0  3  0  0  0  0  0  0
  189.0420  176.5510  144.1760 C   0  0  2  0  0  3  0  0  0  0  0  0
  187.8840  176.3750  143.2160 C   0  0  0  0  0  2  0  0  0  0  0  0
  189.2640  178.0380  144.4400 C   0  0  0  0  0  2  0  0  0  0  0  0
  190.3990  178.2440  145.4320 C   0  0  2  0  0  3  0  0  0  0  0  0
  191.7450  178.2290  144.7160 C   0  0  0  0  0  1  0  0  0  0  0  0
  190.3110  177.2100  146.5630 C   0  0  1  0  0  3  0  0  0  0  0  0
  192.1150  175.5230  146.0890 O   0  0  0  0  0  0  0  0  0  0  0  0
  191.6020  176.5240  146.9060 C   0  0  0  0  0  0  0  0  0  0  0  0
  192.2230  176.8560  147.9480 O   0  0  0  0  0  1  0  0  0  0  0  0
  189.5220  177.6830  147.7850 C   0  0  0  0  0  2  0  0  0  0  0  0
  188.1020  177.1310  147.8260 C   0  0  0  0  0  2  0  0  0  0  0  0
  186.2100  177.8440  146.3740 C   0  0  0  0  0  1  0  0  0  0  0  0
  187.0970  178.2320  147.5400 C   0  0  0  0  0  2  0  0  0  0  0  0
  189.1720  178.0170  139.6250 C   0  0  2  0  0  3  0  0  0  0  0  0
  187.6960  178.2820  139.6290 C   0  0  0  0  0  0  0  0  0  0  0  0
  186.9210  178.0960  138.4750 C   0  0  0  0  0  3  0  0  0  0  0  0
  187.0800  178.6960  140.8140 C   0  0  0  0  0  3  0  0  0  0  0  0
  183.5610  178.9790  139.7090 O   0  0  0  0  0  1  0  0  0  0  0  0
  184.9310  178.7490  139.6920 C   0  0  0  0  0  0  0  0  0  0  0  0
  185.5440  178.3310  138.5080 C   0  0  0  0  0  3  0  0  0  0  0  0
  185.6970  178.9350  140.8540 C   0  0  0  0  0  0  0  0  0  0  0  0
  185.0580  179.3590  142.0630 N   0  0  0  0  0  2  0  0  0  0  0  0
  184.6250  178.4450  143.1130 C   0  0  0  0  0  2  0  0  0  0  0  0
  183.3310  178.9400  143.7290 C   0  0  0  0  0  1  0  0  0  0  0  0
  189.6760  177.8210  138.2000 C   0  0  0  0  0  2  0  0  0  0  0  0
  190.2270  176.4170  138.0000 C   0  0  2  0  0  3  0  0  0  0  0  0
  191.6830  176.5140  137.5870 C   0  0  0  0  0  1  0  0  0  0  0  0
  190.2500  175.4490  135.8130 O   0  0  0  0  0  1  0  0  0  0  0  0
  189.4370  175.6930  136.9190 C   0  0  0  0  0  2  0  0  0  0  0  0
  1  2  1  0  0  0  0
  3  2  1  6  0  0  0
  3  5  1  0  0  0  0
  3  4  1  0  0  0  0
  4  6  1  6  0  0  0
  5  4  1  0  0  0  0
  6  7  1  0  0  0  0
  7  8  1  6  0  0  0
  7  9  1  0  0  0  0
  9 11  1  0  0  0  0
  9 13  1  1  0  0  0
 10 11  2  0  0  0  0
 11 12  1  0  0  0  0
 13 14  1  0  0  0  0
 15 16  1  0  0  0  0
 16 14  1  0  0  0  0
 17 28  1  6  0  0  0
 17 18  1  0  0  0  0
 17  1  1  0  0  0  0
 18 20  1  0  0  0  0
 19 23  1  0  0  0  0
 19 18  2  0  0  0  0
 20 24  2  0  0  0  0
 22 21  1  0  0  0  0
 22 24  1  0  0  0  0
 23 22  2  0  0  0  0
 24 25  1  0  0  0  0
 25 26  1  0  0  0  0
 26 27  1  0  0  0  0
 29 30  1  6  0  0  0
 29 28  1  0  0  0  0
 31 32  1  0  0  0  0
 32 29  1  0  0  0  0
M  END
>  <MODEL>
4

>  <REMARK>
 VINA RESULT:      -6.8      3.017      4.813
  Name = 
  16 active torsions:
  status: ('A' for Active; 'I' for Inactive)
    1  A    between atoms: N_1  and  C_4
    2  A    between atoms: N_1  and  C_5
    3  A    between atoms: C_2  and  C_14
    4  A    between atoms: C_3  and  C_15
    5  A    between atoms: C_3  and  C_20
    6  A    between atoms: C_3  and  C_22
    7  A    between atoms: C_5  and  C_14
    8  A    between atoms: C_9  and  N_28
    9  A    between atoms: C_13  and  C_29
   10  A    between atoms: C_13  and  C_30
   11  A    between atoms: C_14  and  C_30
   12  A    between atoms: C_15  and  C_26
   13  A    between atoms: C_16  and  C_20
   14  A    between atoms: C_16  and  C_24
   15  A    between atoms: C_19  and  C_26
   16  A    between atoms: N_28  and  C_32
                            x       y       z     vdW  Elec       q    Type
                         _______ _______ _______ _____ _____    ______ ____

>  <TORSDO>
F 16

$$$$
=
 OpenBabel11052414473D

 32 33  0  0  1  0  0  0  0  0999 V2000
  188.3480  176.4330  142.9320 C   0  0  0  0  0  2  0  0  0  0  0  0
  189.2880  177.3690  142.3380 N   0  0  0  0  0  2  0  0  0  0  0  0
  190.5090  176.6250  142.0550 C   0  0  1  0  0  3  0  0  0  0  0  0
  190.9020  176.6690  140.5730 C   0  0  2  0  0  3  0  0  0  0  0  0
  191.5800  177.5820  141.5740 C   0  0  0  0  0  2  0  0  0  0  0  0
  189.9550  177.4850  139.6970 C   0  0  0  0  0  2  0  0  0  0  0  0
  189.5630  176.7030  138.4530 C   0  0  2  0  0  3  0  0  0  0  0  0
  190.3350  177.2070  137.2390 C   0  0  0  0  0  1  0  0  0  0  0  0
  188.0420  176.7450  138.2550 C   0  0  1  0  0  3  0  0  0  0  0  0
  187.4350  178.9840  137.2830 O   0  0  0  0  0  0  0  0  0  0  0  0
  187.4200  178.1080  138.3620 C   0  0  0  0  0  0  0  0  0  0  0  0
  186.8840  178.4620  139.4430 O   0  0  0  0  0  1  0  0  0  0  0  0
  187.5420  175.9320  137.0610 C   0  0  0  0  0  2  0  0  0  0  0  0
  186.1130  175.4320  137.2390 C   0  0  0  0  0  2  0  0  0  0  0  0
  185.1910  173.1680  137.7080 C   0  0  0  0  0  1  0  0  0  0  0  0
  185.9820  174.0100  136.7260 C   0  0  0  0  0  2  0  0  0  0  0  0
  187.9480  176.9020  144.3280 C   0  0  2  0  0  3  0  0  0  0  0  0
  186.6450  177.6420  144.2920 C   0  0  0  0  0  0  0  0  0  0  0  0
  186.0280  178.0860  145.4710 C   0  0  0  0  0  3  0  0  0  0  0  0
  186.0490  177.9160  143.0570 C   0  0  0  0  0  3  0  0  0  0  0  0
  183.0280  179.7600  144.1320 O   0  0  0  0  0  1  0  0  0  0  0  0
  184.2270  179.0590  144.1760 C   0  0  0  0  0  0  0  0  0  0  0  0
  184.8230  178.7910  145.4110 C   0  0  0  0  0  3  0  0  0  0  0  0
  184.8380  178.6210  142.9890 C   0  0  0  0  0  0  0  0  0  0  0  0
  184.2200  178.9060  141.7290 N   0  0  0  0  0  2  0  0  0  0  0  0
  183.4150  177.9440  140.9870 C   0  0  0  0  0  2  0  0  0  0  0  0
  181.9700  178.4020  140.9440 C   0  0  0  0  0  1  0  0  0  0  0  0
  189.0390  177.7700  144.9470 C   0  0  0  0  0  2  0  0  0  0  0  0
  189.7500  177.0380  146.0750 C   0  0  2  0  0  3  0  0  0  0  0  0
  189.3650  177.6760  147.3960 C   0  0  0  0  0  1  0  0  0  0  0  0
  191.9080  176.8480  147.0900 O   0  0  0  0  0  1  0  0  0  0  0  0
  191.2590  177.1230  145.8880 C   0  0  0  0  0  2  0  0  0  0  0  0
  2  1  1  0  0  0  0
  3  2  1  6  0  0  0
  4  6  1  6  0  0  0
  4  5  1  0  0  0  0
  4  3  1  0  0  0  0
  5  3  1  0  0  0  0
  7  8  1  6  0  0  0
  7  6  1  0  0  0  0
  9 13  1  6  0  0  0
  9 11  1  0  0  0  0
  9  7  1  0  0  0  0
 10 11  2  0  0  0  0
 11 12  1  0  0  0  0
 13 14  1  0  0  0  0
 16 14  1  0  0  0  0
 16 15  1  0  0  0  0
 17  1  1  6  0  0  0
 17 28  1  0  0  0  0
 18 17  1  0  0  0  0
 18 19  1  0  0  0  0
 20 18  2  0  0  0  0
 21 22  1  0  0  0  0
 22 23  1  0  0  0  0
 23 19  2  0  0  0  0
 24 20  1  0  0  0  0
 24 22  2  0  0  0  0
 25 24  1  0  0  0  0
 26 25  1  0  0  0  0
 27 26  1  0  0  0  0
 28 29  1  0  0  0  0
 29 30  1  1  0  0  0
 32 29  1  0  0  0  0
 32 31  1  0  0  0  0
M  END
>  <MODEL>
5

>  <REMARK>
 VINA RESULT:      -6.7      3.329      6.826
  Name = 
  16 active torsions:
  status: ('A' for Active; 'I' for Inactive)
    1  A    between atoms: N_1  and  C_4
    2  A    between atoms: N_1  and  C_5
    3  A    between atoms: C_2  and  C_14
    4  A    between atoms: C_3  and  C_15
    5  A    between atoms: C_3  and  C_20
    6  A    between atoms: C_3  and  C_22
    7  A    between atoms: C_5  and  C_14
    8  A    between atoms: C_9  and  N_28
    9  A    between atoms: C_13  and  C_29
   10  A    between atoms: C_13  and  C_30
   11  A    between atoms: C_14  and  C_30
   12  A    between atoms: C_15  and  C_26
   13  A    between atoms: C_16  and  C_20
   14  A    between atoms: C_16  and  C_24
   15  A    between atoms: C_19  and  C_26
   16  A    between atoms: N_28  and  C_32
                            x       y       z     vdW  Elec       q    Type
                         _______ _______ _______ _____ _____    ______ ____

>  <TORSDO>
F 16

$$$$
=
 OpenBabel11052414473D

 32 33  0  0  1  0  0  0  0  0999 V2000
  188.6900  178.6720  142.2550 C   0  0  0  0  0  2  0  0  0  0  0  0
  189.5740  177.5260  142.3920 N   0  0  0  0  0  2  0  0  0  0  0  0
  190.9110  178.0460  142.6490 C   0  0  1  0  0  3  0  0  0  0  0  0
  191.4850  177.5730  143.9900 C   0  0  2  0  0  3  0  0  0  0  0  0
  191.8960  176.8980  142.6990 C   0  0  0  0  0  2  0  0  0  0  0  0
  190.5590  176.6480  144.7770 C   0  0  0  0  0  2  0  0  0  0  0  0
  190.3980  177.1380  146.2080 C   0  0  2  0  0  3  0  0  0  0  0  0
  191.2450  176.2990  147.1590 C   0  0  0  0  0  1  0  0  0  0  0  0
  188.9140  177.1670  146.5960 C   0  0  1  0  0  3  0  0  0  0  0  0
  189.1490  178.7550  148.5330 O   0  0  0  0  0  0  0  0  0  0  0  0
  188.6300  177.5750  148.0140 C   0  0  0  0  0  0  0  0  0  0  0  0
  187.9180  176.8350  148.7410 O   0  0  0  0  0  1  0  0  0  0  0  0
  188.0100  177.8490  145.5680 C   0  0  0  0  0  2  0  0  0  0  0  0
  186.5290  177.5750  145.8040 C   0  0  0  0  0  2  0  0  0  0  0  0
  184.3130  178.7030  145.8980 C   0  0  0  0  0  1  0  0  0  0  0  0
  185.8000  178.8620  146.1420 C   0  0  0  0  0  2  0  0  0  0  0  0
  188.0260  178.6640  140.8810 C   0  0  2  0  0  3  0  0  0  0  0  0
  186.5360  178.5730  141.0060 C   0  0  0  0  0  0  0  0  0  0  0  0
  185.9250  178.2870  142.2360 C   0  0  0  0  0  3  0  0  0  0  0  0
  185.7400  178.8030  139.8790 C   0  0  0  0  0  3  0  0  0  0  0  0
  182.3570  178.3870  141.3160 O   0  0  0  0  0  1  0  0  0  0  0  0
  183.7400  178.4520  141.2050 C   0  0  0  0  0  0  0  0  0  0  0  0
  184.5330  178.2260  142.3330 C   0  0  0  0  0  3  0  0  0  0  0  0
  184.3400  178.7420  139.9690 C   0  0  0  0  0  0  0  0  0  0  0  0
  183.5180  178.9760  138.8200 N   0  0  0  0  0  2  0  0  0  0  0  0
  183.0900  177.9270  137.9030 C   0  0  0  0  0  2  0  0  0  0  0  0
  181.5770  177.8280  137.8990 C   0  0  0  0  0  1  0  0  0  0  0  0
  188.5620  177.5240  140.0210 C   0  0  0  0  0  2  0  0  0  0  0  0
  189.4610  178.0480  138.9110 C   0  0  2  0  0  3  0  0  0  0  0  0
  188.6280  178.2650  137.6630 C   0  0  0  0  0  1  0  0  0  0  0  0
  190.5250  175.9990  139.5350 O   0  0  0  0  0  1  0  0  0  0  0  0
  190.5700  177.0470  138.6180 C   0  0  0  0  0  2  0  0  0  0  0  0
  1  2  1  0  0  0  0
  3  2  1  1  0  0  0
  3  5  1  0  0  0  0
  3  4  1  0  0  0  0
  4  6  1  1  0  0  0
  5  4  1  0  0  0  0
  6  7  1  0  0  0  0
  7  9  1  0  0  0  0
  7  8  1  1  0  0  0
  9 13  1  6  0  0  0
  9 11  1  0  0  0  0
 11 10  2  0  0  0  0
 11 12  1  0  0  0  0
 13 14  1  0  0  0  0
 14 16  1  0  0  0  0
 15 16  1  0  0  0  0
 17 28  1  6  0  0  0
 17 18  1  0  0  0  0
 17  1  1  0  0  0  0
 18 19  1  0  0  0  0
 19 23  2  0  0  0  0
 20 24  1  0  0  0  0
 20 18  2  0  0  0  0
 22 21  1  0  0  0  0
 22 23  1  0  0  0  0
 24 22  2  0  0  0  0
 25 24  1  0  0  0  0
 26 25  1  0  0  0  0
 27 26  1  0  0  0  0
 29 30  1  6  0  0  0
 29 28  1  0  0  0  0
 32 29  1  0  0  0  0
 32 31  1  0  0  0  0
M  END
>  <MODEL>
6

>  <REMARK>
 VINA RESULT:      -6.7      2.528      4.541
  Name = 
  16 active torsions:
  status: ('A' for Active; 'I' for Inactive)
    1  A    between atoms: N_1  and  C_4
    2  A    between atoms: N_1  and  C_5
    3  A    between atoms: C_2  and  C_14
    4  A    between atoms: C_3  and  C_15
    5  A    between atoms: C_3  and  C_20
    6  A    between atoms: C_3  and  C_22
    7  A    between atoms: C_5  and  C_14
    8  A    between atoms: C_9  and  N_28
    9  A    between atoms: C_13  and  C_29
   10  A    between atoms: C_13  and  C_30
   11  A    between atoms: C_14  and  C_30
   12  A    between atoms: C_15  and  C_26
   13  A    between atoms: C_16  and  C_20
   14  A    between atoms: C_16  and  C_24
   15  A    between atoms: C_19  and  C_26
   16  A    between atoms: N_28  and  C_32
                            x       y       z     vdW  Elec       q    Type
                         _______ _______ _______ _____ _____    ______ ____

>  <TORSDO>
F 16

$$$$
=
 OpenBabel11052414473D

 32 33  0  0  1  0  0  0  0  0999 V2000
  185.2160  179.0350  141.0510 C   0  0  0  0  0  2  0  0  0  0  0  0
  184.9360  178.0530  142.0860 N   0  0  0  0  0  2  0  0  0  0  0  0
  184.0640  178.6970  143.0600 C   0  0  1  0  0  3  0  0  0  0  0  0
  184.6060  178.6080  144.4920 C   0  0  2  0  0  3  0  0  0  0  0  0
  184.7870  179.8740  143.6810 C   0  0  0  0  0  2  0  0  0  0  0  0
  185.9450  177.8830  144.6130 C   0  0  0  0  0  2  0  0  0  0  0  0
  186.3360  177.7150  146.0730 C   0  0  2  0  0  3  0  0  0  0  0  0
  185.5020  178.6330  146.9600 C   0  0  0  0  0  1  0  0  0  0  0  0
  187.8460  177.9270  146.2450 C   0  0  1  0  0  3  0  0  0  0  0  0
  188.6610  176.2700  147.9530 O   0  0  0  0  0  0  0  0  0  0  0  0
  188.3900  177.5870  147.6040 C   0  0  0  0  0  0  0  0  0  0  0  0
  188.5970  178.5070  148.4360 O   0  0  0  0  0  1  0  0  0  0  0  0
  188.6910  177.3860  145.0920 C   0  0  0  0  0  2  0  0  0  0  0  0
  190.1270  177.8990  145.1140 C   0  0  0  0  0  2  0  0  0  0  0  0
  191.7300  176.4470  146.3450 C   0  0  0  0  0  1  0  0  0  0  0  0
  191.1040  176.7440  144.9970 C   0  0  0  0  0  2  0  0  0  0  0  0
  184.8170  178.4870  139.6830 C   0  0  2  0  0  3  0  0  0  0  0  0
  186.0230  178.2680  138.8210 C   0  0  0  0  0  0  0  0  0  0  0  0
  185.9080  178.1300  137.4300 C   0  0  0  0  0  3  0  0  0  0  0  0
  187.2890  178.2270  139.4150 C   0  0  0  0  0  3  0  0  0  0  0  0
  189.4370  177.7170  136.4470 O   0  0  0  0  0  1  0  0  0  0  0  0
  188.3120  177.9010  137.2410 C   0  0  0  0  0  0  0  0  0  0  0  0
  187.0480  177.9460  136.6450 C   0  0  0  0  0  3  0  0  0  0  0  0
  188.4390  178.0410  138.6330 C   0  0  0  0  0  0  0  0  0  0  0  0
  189.7390  177.9980  139.2320 N   0  0  0  0  0  2  0  0  0  0  0  0
  190.2960  176.8120  139.8700 C   0  0  0  0  0  2  0  0  0  0  0  0
  190.7800  177.1530  141.2660 C   0  0  0  0  0  1  0  0  0  0  0  0
  183.8250  179.4140  138.9900 C   0  0  0  0  0  2  0  0  0  0  0  0
  182.4760  178.7360  138.8030 C   0  0  2  0  0  3  0  0  0  0  0  0
  181.7580  179.3830  137.6350 C   0  0  0  0  0  1  0  0  0  0  0  0
  180.7290  177.8270  140.1600 O   0  0  0  0  0  1  0  0  0  0  0  0
  181.6350  178.8810  140.0630 C   0  0  0  0  0  2  0  0  0  0  0  0
  1  2  1  0  0  0  0
  3  2  1  6  0  0  0
  3  5  1  0  0  0  0
  3  4  1  0  0  0  0
  4  6  1  6  0  0  0
  5  4  1  0  0  0  0
  6  7  1  0  0  0  0
  7  9  1  0  0  0  0
  7  8  1  1  0  0  0
  9 13  1  6  0  0  0
  9 11  1  0  0  0  0
 11 10  2  0  0  0  0
 11 12  1  0  0  0  0
 13 14  1  0  0  0  0
 16 14  1  0  0  0  0
 16 15  1  0  0  0  0
 17 28  1  6  0  0  0
 17  1  1  0  0  0  0
 18 20  1  0  0  0  0
 18 17  1  0  0  0  0
 19 18  2  0  0  0  0
 21 22  1  0  0  0  0
 22 24  1  0  0  0  0
 23 22  2  0  0  0  0
 23 19  1  0  0  0  0
 24 25  1  0  0  0  0
 24 20  2  0  0  0  0
 25 26  1  0  0  0  0
 26 27  1  0  0  0  0
 29 30  1  6  0  0  0
 29 28  1  0  0  0  0
 29 32  1  0  0  0  0
 32 31  1  0  0  0  0
M  END
>  <MODEL>
7

>  <REMARK>
 VINA RESULT:      -6.6      2.734      5.829
  Name = 
  16 active torsions:
  status: ('A' for Active; 'I' for Inactive)
    1  A    between atoms: N_1  and  C_4
    2  A    between atoms: N_1  and  C_5
    3  A    between atoms: C_2  and  C_14
    4  A    between atoms: C_3  and  C_15
    5  A    between atoms: C_3  and  C_20
    6  A    between atoms: C_3  and  C_22
    7  A    between atoms: C_5  and  C_14
    8  A    between atoms: C_9  and  N_28
    9  A    between atoms: C_13  and  C_29
   10  A    between atoms: C_13  and  C_30
   11  A    between atoms: C_14  and  C_30
   12  A    between atoms: C_15  and  C_26
   13  A    between atoms: C_16  and  C_20
   14  A    between atoms: C_16  and  C_24
   15  A    between atoms: C_19  and  C_26
   16  A    between atoms: N_28  and  C_32
                            x       y       z     vdW  Elec       q    Type
                         _______ _______ _______ _____ _____    ______ ____

>  <TORSDO>
F 16

$$$$
=
 OpenBabel11052414473D

 32 33  0  0  1  0  0  0  0  0999 V2000
  188.3610  176.6130  143.3920 C   0  0  0  0  0  2  0  0  0  0  0  0
  189.3640  177.5520  142.9150 N   0  0  0  0  0  2  0  0  0  0  0  0
  190.6600  176.8990  143.0540 C   0  0  1  0  0  3  0  0  0  0  0  0
  191.3580  176.6710  141.7080 C   0  0  2  0  0  3  0  0  0  0  0  0
  191.7490  177.8400  142.5860 C   0  0  0  0  0  2  0  0  0  0  0  0
  190.5730  177.1790  140.5010 C   0  0  0  0  0  2  0  0  0  0  0  0
  190.8810  176.3430  139.2680 C   0  0  2  0  0  3  0  0  0  0  0  0
  192.2550  176.6990  138.7090 C   0  0  0  0  0  1  0  0  0  0  0  0
  189.7580  176.4890  138.2320 C   0  0  1  0  0  3  0  0  0  0  0  0
  188.0910  175.1180  136.9400 O   0  0  0  0  0  0  0  0  0  0  0  0
  189.3260  175.2120  137.5700 C   0  0  0  0  0  0  0  0  0  0  0  0
  190.0910  174.2130  137.5930 O   0  0  0  0  0  1  0  0  0  0  0  0
  188.5940  177.3690  138.6900 C   0  0  0  0  0  2  0  0  0  0  0  0
  188.5910  178.7420  138.0270 C   0  0  0  0  0  2  0  0  0  0  0  0
  186.9300  178.2260  136.2470 C   0  0  0  0  0  1  0  0  0  0  0  0
  188.3690  178.6080  136.5320 C   0  0  0  0  0  2  0  0  0  0  0  0
  187.9900  176.9280  144.8380 C   0  0  2  0  0  3  0  0  0  0  0  0
  186.6510  177.5980  144.9130 C   0  0  0  0  0  0  0  0  0  0  0  0
  186.0840  177.9540  146.1460 C   0  0  0  0  0  3  0  0  0  0  0  0
  185.9680  177.8950  143.7300 C   0  0  0  0  0  3  0  0  0  0  0  0
  182.9280  179.5230  145.0670 O   0  0  0  0  0  1  0  0  0  0  0  0
  184.1610  178.8860  145.0070 C   0  0  0  0  0  0  0  0  0  0  0  0
  184.8440  178.5940  146.1910 C   0  0  0  0  0  3  0  0  0  0  0  0
  184.7210  178.5370  143.7670 C   0  0  0  0  0  0  0  0  0  0  0  0
  184.0150  178.8460  142.5600 N   0  0  0  0  0  2  0  0  0  0  0  0
  184.1430  178.0770  141.3280 C   0  0  0  0  0  2  0  0  0  0  0  0
  184.7450  178.9410  140.2370 C   0  0  0  0  0  1  0  0  0  0  0  0
  189.0570  177.7910  145.5020 C   0  0  0  0  0  2  0  0  0  0  0  0
  189.6530  177.0920  146.7150 C   0  0  2  0  0  3  0  0  0  0  0  0
  189.3700  177.9240  147.9510 C   0  0  0  0  0  1  0  0  0  0  0  0
  191.7840  176.9200  147.7870 O   0  0  0  0  0  1  0  0  0  0  0  0
  191.1570  176.9300  146.5420 C   0  0  0  0  0  2  0  0  0  0  0  0
  2  1  1  0  0  0  0
  3  2  1  6  0  0  0
  4  6  1  6  0  0  0
  4  5  1  0  0  0  0
  4  3  1  0  0  0  0
  5  3  1  0  0  0  0
  7  8  1  6  0  0  0
  7  6  1  0  0  0  0
  9 13  1  1  0  0  0
  9  7  1  0  0  0  0
 10 11  2  0  0  0  0
 11 12  1  0  0  0  0
 11  9  1  0  0  0  0
 14 13  1  0  0  0  0
 15 16  1  0  0  0  0
 16 14  1  0  0  0  0
 17  1  1  6  0  0  0
 17 18  1  0  0  0  0
 17 28  1  0  0  0  0
 18 19  1  0  0  0  0
 19 23  2  0  0  0  0
 20 24  1  0  0  0  0
 20 18  2  0  0  0  0
 22 21  1  0  0  0  0
 22 23  1  0  0  0  0
 24 22  2  0  0  0  0
 25 24  1  0  0  0  0
 26 25  1  0  0  0  0
 27 26  1  0  0  0  0
 28 29  1  0  0  0  0
 29 30  1  1  0  0  0
 32 29  1  0  0  0  0
 32 31  1  0  0  0  0
M  END
>  <MODEL>
8

>  <REMARK>
 VINA RESULT:      -6.5      3.484      6.794
  Name = 
  16 active torsions:
  status: ('A' for Active; 'I' for Inactive)
    1  A    between atoms: N_1  and  C_4
    2  A    between atoms: N_1  and  C_5
    3  A    between atoms: C_2  and  C_14
    4  A    between atoms: C_3  and  C_15
    5  A    between atoms: C_3  and  C_20
    6  A    between atoms: C_3  and  C_22
    7  A    between atoms: C_5  and  C_14
    8  A    between atoms: C_9  and  N_28
    9  A    between atoms: C_13  and  C_29
   10  A    between atoms: C_13  and  C_30
   11  A    between atoms: C_14  and  C_30
   12  A    between atoms: C_15  and  C_26
   13  A    between atoms: C_16  and  C_20
   14  A    between atoms: C_16  and  C_24
   15  A    between atoms: C_19  and  C_26
   16  A    between atoms: N_28  and  C_32
                            x       y       z     vdW  Elec       q    Type
                         _______ _______ _______ _____ _____    ______ ____

>  <TORSDO>
F 16

$$$$
=
 OpenBabel11052414473D

 32 33  0  0  1  0  0  0  0  0999 V2000
  189.0270  177.6070  143.8750 C   0  0  0  0  0  2  0  0  0  0  0  0
  189.7270  176.3660  143.5890 N   0  0  0  0  0  2  0  0  0  0  0  0
  191.1470  176.6840  143.5140 C   0  0  1  0  0  3  0  0  0  0  0  0
  191.6580  176.7890  142.0720 C   0  0  2  0  0  3  0  0  0  0  0  0
  191.3250  178.0380  142.8610 C   0  0  0  0  0  2  0  0  0  0  0  0
  190.5870  176.5560  141.0090 C   0  0  0  0  0  2  0  0  0  0  0  0
  190.7910  177.4890  139.8250 C   0  0  2  0  0  3  0  0  0  0  0  0
  189.4620  178.0940  139.3850 C   0  0  0  0  0  1  0  0  0  0  0  0
  191.5200  176.7570  138.6910 C   0  0  1  0  0  3  0  0  0  0  0  0
  193.6670  177.4560  139.8000 O   0  0  0  0  0  1  0  0  0  0  0  0
  193.0200  176.7760  138.7750 C   0  0  0  0  0  0  0  0  0  0  0  0
  193.6980  176.1740  137.9030 O   0  0  0  0  0  0  0  0  0  0  0  0
  190.9410  175.3810  138.3580 C   0  0  0  0  0  2  0  0  0  0  0  0
  190.3430  175.3110  136.9580 C   0  0  0  0  0  2  0  0  0  0  0  0
  188.9390  173.2820  136.6280 C   0  0  0  0  0  1  0  0  0  0  0  0
  188.9340  174.7490  137.0110 C   0  0  0  0  0  2  0  0  0  0  0  0
  188.1620  177.4480  145.1220 C   0  0  2  0  0  3  0  0  0  0  0  0
  186.7540  177.8880  144.8570 C   0  0  0  0  0  0  0  0  0  0  0  0
  185.9300  178.3540  145.8930 C   0  0  0  0  0  3  0  0  0  0  0  0
  186.2640  177.8570  143.5480 C   0  0  0  0  0  3  0  0  0  0  0  0
  182.8400  179.1620  144.0530 O   0  0  0  0  0  1  0  0  0  0  0  0
  184.1380  178.7400  144.3100 C   0  0  0  0  0  0  0  0  0  0  0  0
  184.6270  178.7760  145.6190 C   0  0  0  0  0  3  0  0  0  0  0  0
  184.9550  178.2780  143.2650 C   0  0  0  0  0  0  0  0  0  0  0  0
  184.4450  178.2500  141.9270 N   0  0  0  0  0  2  0  0  0  0  0  0
  185.0850  178.9220  140.8030 C   0  0  0  0  0  2  0  0  0  0  0  0
  184.0470  179.2930  139.7620 C   0  0  0  0  0  1  0  0  0  0  0  0
  188.7510  178.2190  146.2990 C   0  0  0  0  0  2  0  0  0  0  0  0
  189.0190  177.3000  147.4810 C   0  0  2  0  0  3  0  0  0  0  0  0
  188.3460  177.8730  148.7130 C   0  0  0  0  0  1  0  0  0  0  0  0
  190.9770  175.9410  147.2840 O   0  0  0  0  0  1  0  0  0  0  0  0
  190.5170  177.1810  147.7250 C   0  0  0  0  0  2  0  0  0  0  0  0
  2  1  1  0  0  0  0
  3  2  1  6  0  0  0
  4  6  1  6  0  0  0
  4  5  1  0  0  0  0
  4  3  1  0  0  0  0
  5  3  1  0  0  0  0
  7  8  1  6  0  0  0
  7  6  1  0  0  0  0
  9 13  1  1  0  0  0
  9 11  1  0  0  0  0
  9  7  1  0  0  0  0
 11 10  1  0  0  0  0
 12 11  2  0  0  0  0
 14 16  1  0  0  0  0
 14 13  1  0  0  0  0
 15 16  1  0  0  0  0
 17  1  1  6  0  0  0
 17 28  1  0  0  0  0
 18 17  1  0  0  0  0
 18 19  1  0  0  0  0
 20 18  2  0  0  0  0
 21 22  1  0  0  0  0
 22 23  1  0  0  0  0
 23 19  2  0  0  0  0
 24 20  1  0  0  0  0
 24 22  2  0  0  0  0
 25 24  1  0  0  0  0
 26 25  1  0  0  0  0
 27 26  1  0  0  0  0
 28 29  1  0  0  0  0
 29 32  1  0  0  0  0
 29 30  1  1  0  0  0
 31 32  1  0  0  0  0
M  END
>  <MODEL>
9

>  <REMARK>
 VINA RESULT:      -6.5      3.633      6.564
  Name = 
  16 active torsions:
  status: ('A' for Active; 'I' for Inactive)
    1  A    between atoms: N_1  and  C_4
    2  A    between atoms: N_1  and  C_5
    3  A    between atoms: C_2  and  C_14
    4  A    between atoms: C_3  and  C_15
    5  A    between atoms: C_3  and  C_20
    6  A    between atoms: C_3  and  C_22
    7  A    between atoms: C_5  and  C_14
    8  A    between atoms: C_9  and  N_28
    9  A    between atoms: C_13  and  C_29
   10  A    between atoms: C_13  and  C_30
   11  A    between atoms: C_14  and  C_30
   12  A    between atoms: C_15  and  C_26
   13  A    between atoms: C_16  and  C_20
   14  A    between atoms: C_16  and  C_24
   15  A    between atoms: C_19  and  C_26
   16  A    between atoms: N_28  and  C_32
                            x       y       z     vdW  Elec       q    Type
                         _______ _______ _______ _____ _____    ______ ____

>  <TORSDO>
F 16

$$$$
