=
 OpenBabel11052415423D

 34 38  0  0  1  0  0  0  0  0999 V2000
  187.8120  177.6570  144.3540 C   0  0  2  0  0  3  0  0  0  0  0  0
  183.9460  178.1670  144.9230 C   0  0  0  0  0  2  0  0  0  0  0  0
  182.7310  179.0890  142.0220 C   0  0  0  0  0  0  0  0  0  0  0  0
  185.8400  178.0010  146.4330 O   0  0  0  0  0  0  0  0  0  0  0  0
  189.5400  177.7610  146.1830 C   0  0  0  0  0  3  0  0  0  0  0  0
  188.9040  178.0320  148.5050 C   0  0  0  0  0  3  0  0  0  0  0  0
  182.8460  178.8530  140.6560 O   0  0  0  0  0  0  0  0  0  0  0  0
  189.8940  177.8790  147.5290 C   0  0  0  0  0  3  0  0  0  0  0  0
  187.1930  177.9450  146.7920 C   0  0  0  0  0  0  0  0  0  0  0  0
  188.1920  177.7970  145.8060 C   0  0  0  0  0  0  0  0  0  0  0  0
  187.5560  178.0670  148.1360 C   0  0  0  0  0  3  0  0  0  0  0  0
  183.7950  179.5270  144.2540 C   0  0  0  0  0  2  0  0  0  0  0  0
  181.5920  179.0600  142.5580 O   0  0  0  0  0  1  0  0  0  0  0  0
  183.8970  179.3680  142.8070 N   0  0  0  0  0  0  0  0  0  0  0  0
  185.2150  179.3390  142.1860 C   0  0  0  0  0  2  0  0  0  0  0  0
  185.4010  177.7200  145.1030 C   0  0  2  0  0  3  0  0  0  0  0  0
  185.9920  178.1070  142.6280 C   0  0  0  0  0  2  0  0  0  0  0  0
  186.4220  178.2610  144.0840 C   0  0  2  0  0  3  0  0  0  0  0  0
  187.9710  176.2160  143.8430 C   0  0  0  0  0  2  0  0  0  0  0  0
  189.2730  175.9910  143.0820 C   0  0  0  0  0  2  0  0  0  0  0  0
  189.6440  177.2020  142.3670 N   0  0  0  0  0  2  0  0  0  0  0  0
  188.6100  178.2940  138.9380 C   0  0  0  0  0  3  0  0  0  0  0  0
  190.4060  176.5250  140.1490 C   0  0  0  0  0  3  0  0  0  0  0  0
  190.1880  176.5780  135.9100 C   0  0  1  0  0  3  0  0  0  0  0  0
  189.3910  177.6580  136.6530 C   0  0  0  0  0  2  0  0  0  0  0  0
  189.4410  177.4990  138.1440 C   0  0  0  0  0  0  0  0  0  0  0  0
  191.2060  175.7080  137.9250 C   0  0  0  0  0  2  0  0  0  0  0  0
  190.3580  176.6230  138.7550 C   0  0  0  0  0  0  0  0  0  0  0  0
  191.4510  176.2640  136.5910 N   0  0  0  0  0  2  0  0  0  0  0  0
  189.5730  177.3190  140.9430 C   0  0  0  0  0  0  0  0  0  0  0  0
  188.6710  178.2020  140.3300 C   0  0  0  0  0  3  0  0  0  0  0  0
  189.3840  175.3500  135.5980 C   0  0  0  0  0  0  0  0  0  0  0  0
  189.9830  174.2940  134.9260 O   0  0  0  0  0  0  0  0  0  0  0  0
  188.1840  175.2530  135.9670 O   0  0  0  0  0  1  0  0  0  0  0  0
  1 19  1  1  0  0  0
  1 10  1  0  0  0  0
  3 13  1  0  0  0  0
  3 14  1  0  0  0  0
  4  9  1  0  0  0  0
  5  8  1  0  0  0  0
  7  3  2  0  0  0  0
  8  6  2  0  0  0  0
  9 11  2  0  0  0  0
 10  5  2  0  0  0  0
 10  9  1  0  0  0  0
 11  6  1  0  0  0  0
 12  2  1  0  0  0  0
 14 12  1  0  0  0  0
 15 17  1  0  0  0  0
 15 14  1  0  0  0  0
 16  2  1  6  0  0  0
 16  4  1  0  0  0  0
 18 17  1  6  0  0  0
 18  1  1  0  0  0  0
 18 16  1  0  0  0  0
 20 19  1  0  0  0  0
 21 20  1  0  0  0  0
 22 31  1  0  0  0  0
 23 30  1  0  0  0  0
 24 32  1  1  0  0  0
 24 29  1  0  0  0  0
 24 25  1  0  0  0  0
 25 26  1  0  0  0  0
 26 28  1  0  0  0  0
 26 22  2  0  0  0  0
 27 28  1  0  0  0  0
 28 23  2  0  0  0  0
 29 27  1  0  0  0  0
 30 21  1  0  0  0  0
 31 30  2  0  0  0  0
 32 34  1  0  0  0  0
 33 32  2  0  0  0  0
M  END
>  <MODEL>
1

>  <REMARK>
 VINA RESULT:      -9.2      0.000      0.000
  Name = 
  5 active torsions:
  status: ('A' for Active; 'I' for Inactive)
    1  A    between atoms: C_1  and  C_9
    2  A    between atoms: CA_7  and  C_11
    3  A    between atoms: C_8  and  C_9
    4  A    between atoms: C_8  and  N_18
    5  A    between atoms: N_18  and  C_30
                            x       y       z     vdW  Elec       q    Type
                         _______ _______ _______ _____ _____    ______ ____

>  <TORSDO>
F 5

$$$$
=
 OpenBabel11052415423D

 34 38  0  0  1  0  0  0  0  0999 V2000
  184.9450  178.2720  142.6590 C   0  0  2  0  0  3  0  0  0  0  0  0
  185.7060  179.2080  146.4110 C   0  0  0  0  0  2  0  0  0  0  0  0
  188.5830  177.8060  147.1150 C   0  0  0  0  0  0  0  0  0  0  0  0
  183.6890  179.2650  145.0590 O   0  0  0  0  0  0  0  0  0  0  0  0
  182.6410  178.2450  141.6440 C   0  0  0  0  0  3  0  0  0  0  0  0
  180.7010  178.9690  142.9000 C   0  0  0  0  0  3  0  0  0  0  0  0
  189.8340  177.5290  146.5730 O   0  0  0  0  0  0  0  0  0  0  0  0
  181.2650  178.4750  141.7200 C   0  0  0  0  0  3  0  0  0  0  0  0
  182.8900  179.0130  143.9370 C   0  0  0  0  0  0  0  0  0  0  0  0
  183.4600  178.5080  142.7480 C   0  0  0  0  0  0  0  0  0  0  0  0
  181.5110  179.2350  144.0070 C   0  0  0  0  0  3  0  0  0  0  0  0
  186.0790  177.8230  146.9200 C   0  0  0  0  0  2  0  0  0  0  0  0
  188.5100  178.3640  148.2420 O   0  0  0  0  0  1  0  0  0  0  0  0
  187.3920  177.4550  146.4000 N   0  0  0  0  0  0  0  0  0  0  0  0
  187.4910  176.8640  145.0710 C   0  0  0  0  0  2  0  0  0  0  0  0
  185.1150  179.2140  144.9960 C   0  0  2  0  0  3  0  0  0  0  0  0
  187.0720  177.8670  144.0050 C   0  0  0  0  0  2  0  0  0  0  0  0
  185.5610  178.0760  144.0570 C   0  0  2  0  0  3  0  0  0  0  0  0
  185.6580  179.3370  141.8110 C   0  0  0  0  0  2  0  0  0  0  0  0
  186.1510  178.8040  140.4710 C   0  0  0  0  0  2  0  0  0  0  0  0
  187.6010  178.6830  140.4880 N   0  0  0  0  0  2  0  0  0  0  0  0
  188.4940  177.2230  137.1580 C   0  0  0  0  0  3  0  0  0  0  0  0
  189.6790  177.7200  139.6420 C   0  0  0  0  0  3  0  0  0  0  0  0
  191.9790  175.7260  136.6850 C   0  0  1  0  0  3  0  0  0  0  0  0
  190.6140  176.2690  136.2430 C   0  0  0  0  0  2  0  0  0  0  0  0
  189.8280  176.8630  137.3740 C   0  0  0  0  0  0  0  0  0  0  0  0
  191.8320  176.6890  138.8990 C   0  0  0  0  0  2  0  0  0  0  0  0
  190.4280  177.1310  138.6190 C   0  0  0  0  0  0  0  0  0  0  0  0
  192.6250  176.6040  137.6690 N   0  0  0  0  0  2  0  0  0  0  0  0
  188.3440  178.0780  139.4250 C   0  0  0  0  0  0  0  0  0  0  0  0
  187.7550  177.8230  138.1780 C   0  0  0  0  0  3  0  0  0  0  0  0
  191.9370  174.2950  137.1320 C   0  0  0  0  0  0  0  0  0  0  0  0
  190.7110  173.6870  137.3620 O   0  0  0  0  0  1  0  0  0  0  0  0
  192.9980  173.6300  137.2690 O   0  0  0  0  0  0  0  0  0  0  0  0
  1 19  1  1  0  0  0
  1 10  1  0  0  0  0
  1 18  1  0  0  0  0
  2 12  1  0  0  0  0
  3 13  1  0  0  0  0
  5  8  2  0  0  0  0
  5 10  1  0  0  0  0
  6 11  2  0  0  0  0
  7  3  2  0  0  0  0
  8  6  1  0  0  0  0
  9 11  1  0  0  0  0
  9  4  1  0  0  0  0
 10  9  2  0  0  0  0
 14 12  1  0  0  0  0
 14  3  1  0  0  0  0
 15 14  1  0  0  0  0
 16  4  1  0  0  0  0
 16  2  1  1  0  0  0
 17 15  1  0  0  0  0
 18 17  1  6  0  0  0
 18 16  1  0  0  0  0
 20 21  1  0  0  0  0
 20 19  1  0  0  0  0
 22 26  2  0  0  0  0
 22 31  1  0  0  0  0
 24 32  1  1  0  0  0
 24 29  1  0  0  0  0
 25 24  1  0  0  0  0
 25 26  1  0  0  0  0
 26 28  1  0  0  0  0
 28 27  1  0  0  0  0
 28 23  2  0  0  0  0
 29 27  1  0  0  0  0
 30 23  1  0  0  0  0
 30 21  1  0  0  0  0
 31 30  2  0  0  0  0
 32 34  2  0  0  0  0
 32 33  1  0  0  0  0
M  END
>  <MODEL>
2

>  <REMARK>
 VINA RESULT:      -9.1      2.019      4.984
  Name = 
  5 active torsions:
  status: ('A' for Active; 'I' for Inactive)
    1  A    between atoms: C_1  and  C_9
    2  A    between atoms: CA_7  and  C_11
    3  A    between atoms: C_8  and  C_9
    4  A    between atoms: C_8  and  N_18
    5  A    between atoms: N_18  and  C_30
                            x       y       z     vdW  Elec       q    Type
                         _______ _______ _______ _____ _____    ______ ____

>  <TORSDO>
F 5

$$$$
=
 OpenBabel11052415423D

 34 38  0  0  1  0  0  0  0  0999 V2000
  184.5260  178.1380  142.3120 C   0  0  2  0  0  3  0  0  0  0  0  0
  185.4410  179.4000  145.9320 C   0  0  0  0  0  2  0  0  0  0  0  0
  188.1520  177.7690  146.7870 C   0  0  0  0  0  0  0  0  0  0  0  0
  183.4240  179.5320  144.5850 O   0  0  0  0  0  0  0  0  0  0  0  0
  182.2200  178.2580  141.3090 C   0  0  0  0  0  3  0  0  0  0  0  0
  180.3910  179.3350  142.4770 C   0  0  0  0  0  3  0  0  0  0  0  0
  189.3550  177.2930  146.2780 O   0  0  0  0  0  0  0  0  0  0  0  0
  180.8790  178.6500  141.3610 C   0  0  0  0  0  3  0  0  0  0  0  0
  182.5850  179.2470  143.5000 C   0  0  0  0  0  0  0  0  0  0  0  0
  183.0780  178.5500  142.3760 C   0  0  0  0  0  0  0  0  0  0  0  0
  181.2420  179.6310  143.5460 C   0  0  0  0  0  3  0  0  0  0  0  0
  185.6630  178.0470  146.5950 C   0  0  0  0  0  2  0  0  0  0  0  0
  188.1580  178.4550  147.8430 O   0  0  0  0  0  1  0  0  0  0  0  0
  186.9190  177.4760  146.1180 N   0  0  0  0  0  0  0  0  0  0  0  0
  186.9310  176.7330  144.8650 C   0  0  0  0  0  2  0  0  0  0  0  0
  184.8340  179.3120  144.5270 C   0  0  2  0  0  3  0  0  0  0  0  0
  186.6120  177.6490  143.6920 C   0  0  0  0  0  2  0  0  0  0  0  0
  185.1350  178.0330  143.7220 C   0  0  2  0  0  3  0  0  0  0  0  0
  185.3420  179.0130  141.3470 C   0  0  0  0  0  2  0  0  0  0  0  0
  185.3710  178.4680  139.9240 C   0  0  0  0  0  2  0  0  0  0  0  0
  186.6330  178.8120  139.2870 N   0  0  0  0  0  2  0  0  0  0  0  0
  189.9760  177.1310  139.4200 C   0  0  0  0  0  3  0  0  0  0  0  0
  188.2830  178.6180  141.0760 C   0  0  0  0  0  3  0  0  0  0  0  0
  191.8980  177.1230  142.7230 C   0  0  1  0  0  3  0  0  0  0  0  0
  191.7060  176.9450  141.2120 C   0  0  0  0  0  2  0  0  0  0  0  0
  190.3600  177.4060  140.7350 C   0  0  0  0  0  0  0  0  0  0  0  0
  189.8710  178.4160  142.9960 C   0  0  0  0  0  2  0  0  0  0  0  0
  189.5150  178.1710  141.5610 C   0  0  0  0  0  0  0  0  0  0  0  0
  191.3220  178.3870  143.2030 N   0  0  0  0  0  2  0  0  0  0  0  0
  187.8980  178.3400  139.7610 C   0  0  0  0  0  0  0  0  0  0  0  0
  188.7500  177.5910  138.9350 C   0  0  0  0  0  3  0  0  0  0  0  0
  191.4400  175.9420  143.5270 C   0  0  0  0  0  0  0  0  0  0  0  0
  191.8940  175.7840  144.8290 O   0  0  0  0  0  1  0  0  0  0  0  0
  190.6240  175.1110  143.0470 O   0  0  0  0  0  0  0  0  0  0  0  0
  1 19  1  6  0  0  0
  1 10  1  0  0  0  0
  1 18  1  0  0  0  0
  2 12  1  0  0  0  0
  3 13  1  0  0  0  0
  5  8  2  0  0  0  0
  5 10  1  0  0  0  0
  6 11  2  0  0  0  0
  7  3  2  0  0  0  0
  8  6  1  0  0  0  0
  9 11  1  0  0  0  0
  9  4  1  0  0  0  0
 10  9  2  0  0  0  0
 14 12  1  0  0  0  0
 14  3  1  0  0  0  0
 15 14  1  0  0  0  0
 16  4  1  0  0  0  0
 16  2  1  1  0  0  0
 17 15  1  0  0  0  0
 18 17  1  6  0  0  0
 18 16  1  0  0  0  0
 20 19  1  0  0  0  0
 21 30  1  0  0  0  0
 21 20  1  0  0  0  0
 22 26  1  0  0  0  0
 23 28  1  0  0  0  0
 24 29  1  0  0  0  0
 24 32  1  1  0  0  0
 25 24  1  0  0  0  0
 26 25  1  0  0  0  0
 26 28  2  0  0  0  0
 27 29  1  0  0  0  0
 28 27  1  0  0  0  0
 30 23  2  0  0  0  0
 31 22  2  0  0  0  0
 31 30  1  0  0  0  0
 32 33  1  0  0  0  0
 34 32  2  0  0  0  0
M  END
>  <MODEL>
3

>  <REMARK>
 VINA RESULT:      -8.8      2.941      6.027
  Name = 
  5 active torsions:
  status: ('A' for Active; 'I' for Inactive)
    1  A    between atoms: C_1  and  C_9
    2  A    between atoms: CA_7  and  C_11
    3  A    between atoms: C_8  and  C_9
    4  A    between atoms: C_8  and  N_18
    5  A    between atoms: N_18  and  C_30
                            x       y       z     vdW  Elec       q    Type
                         _______ _______ _______ _____ _____    ______ ____

>  <TORSDO>
F 5

$$$$
=
 OpenBabel11052415423D

 34 38  0  0  1  0  0  0  0  0999 V2000
  188.6940  178.2700  141.6350 C   0  0  2  0  0  3  0  0  0  0  0  0
  190.7840  175.6280  143.6790 C   0  0  0  0  0  2  0  0  0  0  0  0
  190.8680  176.7460  146.7590 C   0  0  0  0  0  0  0  0  0  0  0  0
  190.5350  176.0740  141.3050 O   0  0  0  0  0  0  0  0  0  0  0  0
  188.8590  178.5880  139.1430 C   0  0  0  0  0  3  0  0  0  0  0  0
  190.2380  177.1400  137.7750 C   0  0  0  0  0  3  0  0  0  0  0  0
  190.0880  177.3810  147.7200 O   0  0  0  0  0  1  0  0  0  0  0  0
  189.3570  178.2190  137.8900 C   0  0  0  0  0  3  0  0  0  0  0  0
  190.1260  176.7850  140.1690 C   0  0  0  0  0  0  0  0  0  0  0  0
  189.2420  177.8790  140.2870 C   0  0  0  0  0  0  0  0  0  0  0  0
  190.6240  176.4250  138.9130 C   0  0  0  0  0  3  0  0  0  0  0  0
  191.7200  176.5880  144.4020 C   0  0  0  0  0  2  0  0  0  0  0  0
  191.4780  175.6870  147.0620 O   0  0  0  0  0  0  0  0  0  0  0  0
  190.9780  177.2960  145.4400 N   0  0  0  0  0  0  0  0  0  0  0  0
  190.2190  178.4880  145.0850 C   0  0  0  0  0  2  0  0  0  0  0  0
  189.9380  176.2890  142.5850 C   0  0  2  0  0  3  0  0  0  0  0  0
  189.0690  178.1360  144.1520 C   0  0  0  0  0  2  0  0  0  0  0  0
  189.6120  177.7840  142.7700 C   0  0  2  0  0  3  0  0  0  0  0  0
  187.2220  177.8630  141.8100 C   0  0  0  0  0  2  0  0  0  0  0  0
  186.2590  179.0410  141.7170 C   0  0  0  0  0  2  0  0  0  0  0  0
  185.3150  178.9980  142.8240 N   0  0  0  0  0  2  0  0  0  0  0  0
  181.6370  178.8840  143.5150 C   0  0  0  0  0  3  0  0  0  0  0  0
  183.3990  178.6260  141.3580 C   0  0  0  0  0  3  0  0  0  0  0  0
  179.2550  178.0450  140.6470 C   0  0  1  0  0  3  0  0  0  0  0  0
  179.6490  178.5480  142.0410 C   0  0  0  0  0  2  0  0  0  0  0  0
  181.1340  178.6240  142.2370 C   0  0  0  0  0  0  0  0  0  0  0  0
  181.5120  178.1630  139.7840 C   0  0  0  0  0  2  0  0  0  0  0  0
  182.0210  178.5140  141.1490 C   0  0  0  0  0  0  0  0  0  0  0  0
  180.1240  178.5970  139.5990 N   0  0  0  0  0  2  0  0  0  0  0  0
  183.9010  178.8840  142.6370 C   0  0  0  0  0  0  0  0  0  0  0  0
  183.0130  179.0090  143.7160 C   0  0  0  0  0  3  0  0  0  0  0  0
  179.1330  176.5510  140.5630 C   0  0  0  0  0  0  0  0  0  0  0  0
  179.2080  175.7940  141.7230 O   0  0  0  0  0  1  0  0  0  0  0  0
  178.9310  175.9820  139.4580 O   0  0  0  0  0  0  0  0  0  0  0  0
  1 19  1  1  0  0  0
  1 18  1  0  0  0  0
  2 12  1  0  0  0  0
  3 13  2  0  0  0  0
  3  7  1  0  0  0  0
  4 16  1  0  0  0  0
  5 10  1  0  0  0  0
  6  8  1  0  0  0  0
  6 11  2  0  0  0  0
  8  5  2  0  0  0  0
  9 10  2  0  0  0  0
  9  4  1  0  0  0  0
 10  1  1  0  0  0  0
 11  9  1  0  0  0  0
 12 14  1  0  0  0  0
 14  3  1  0  0  0  0
 15 14  1  0  0  0  0
 16 18  1  0  0  0  0
 16  2  1  1  0  0  0
 17 15  1  0  0  0  0
 18 17  1  1  0  0  0
 20 19  1  0  0  0  0
 20 21  1  0  0  0  0
 22 31  1  0  0  0  0
 23 30  1  0  0  0  0
 24 32  1  1  0  0  0
 24 25  1  0  0  0  0
 25 26  1  0  0  0  0
 26 22  2  0  0  0  0
 27 28  1  0  0  0  0
 28 23  2  0  0  0  0
 28 26  1  0  0  0  0
 29 27  1  0  0  0  0
 29 24  1  0  0  0  0
 30 21  1  0  0  0  0
 30 31  2  0  0  0  0
 32 33  1  0  0  0  0
 34 32  2  0  0  0  0
M  END
>  <MODEL>
4

>  <REMARK>
 VINA RESULT:      -8.7      3.091      8.469
  Name = 
  5 active torsions:
  status: ('A' for Active; 'I' for Inactive)
    1  A    between atoms: C_1  and  C_9
    2  A    between atoms: CA_7  and  C_11
    3  A    between atoms: C_8  and  C_9
    4  A    between atoms: C_8  and  N_18
    5  A    between atoms: N_18  and  C_30
                            x       y       z     vdW  Elec       q    Type
                         _______ _______ _______ _____ _____    ______ ____

>  <TORSDO>
F 5

$$$$
=
 OpenBabel11052415423D

 34 38  0  0  1  0  0  0  0  0999 V2000
  183.2220  179.0260  142.1250 C   0  0  2  0  0  3  0  0  0  0  0  0
  183.4120  176.6870  138.9590 C   0  0  0  0  0  2  0  0  0  0  0  0
  186.3120  177.3060  137.5640 C   0  0  0  0  0  0  0  0  0  0  0  0
  181.5820  177.4180  140.3790 O   0  0  0  0  0  0  0  0  0  0  0  0
  181.0770  179.7530  143.2250 C   0  0  0  0  0  3  0  0  0  0  0  0
  178.9310  178.9070  142.4850 C   0  0  0  0  0  3  0  0  0  0  0  0
  187.6420  177.5790  137.8660 O   0  0  0  0  0  1  0  0  0  0  0  0
  179.6850  179.7110  143.3440 C   0  0  0  0  0  3  0  0  0  0  0  0
  180.9580  178.1740  141.3800 C   0  0  0  0  0  0  0  0  0  0  0  0
  181.7200  178.9900  142.2440 C   0  0  0  0  0  0  0  0  0  0  0  0
  179.5660  178.1420  141.5020 C   0  0  0  0  0  3  0  0  0  0  0  0
  183.8630  177.7220  137.9380 C   0  0  0  0  0  2  0  0  0  0  0  0
  186.0420  176.3930  136.7410 O   0  0  0  0  0  0  0  0  0  0  0  0
  185.2620  178.0620  138.1810 N   0  0  0  0  0  0  0  0  0  0  0  0
  185.5850  179.0750  139.1780 C   0  0  0  0  0  2  0  0  0  0  0  0
  183.0020  177.2830  140.3110 C   0  0  2  0  0  3  0  0  0  0  0  0
  185.1970  178.6020  140.5710 C   0  0  0  0  0  2  0  0  0  0  0  0
  183.6780  178.6080  140.7160 C   0  0  2  0  0  3  0  0  0  0  0  0
  183.9180  178.2530  143.2570 C   0  0  0  0  0  2  0  0  0  0  0  0
  184.4300  179.1560  144.3720 C   0  0  0  0  0  2  0  0  0  0  0  0
  185.0570  178.3540  145.4120 N   0  0  0  0  0  2  0  0  0  0  0  0
  188.6010  177.7040  146.4290 C   0  0  0  0  0  3  0  0  0  0  0  0
  186.9620  177.4580  144.1760 C   0  0  0  0  0  3  0  0  0  0  0  0
  191.0650  176.4380  143.7960 C   0  0  1  0  0  3  0  0  0  0  0  0
  190.5630  176.7530  145.2110 C   0  0  0  0  0  2  0  0  0  0  0  0
  189.1330  177.2040  145.2370 C   0  0  0  0  0  0  0  0  0  0  0  0
  188.8660  176.5990  142.8010 C   0  0  0  0  0  2  0  0  0  0  0  0
  188.3020  177.0630  144.1090 C   0  0  0  0  0  0  0  0  0  0  0  0
  190.0450  175.7500  142.9940 N   0  0  0  0  0  2  0  0  0  0  0  0
  186.4320  177.9600  145.3680 C   0  0  0  0  0  0  0  0  0  0  0  0
  187.2600  178.0840  146.4940 C   0  0  0  0  0  3  0  0  0  0  0  0
  191.6450  177.6280  143.0880 C   0  0  0  0  0  0  0  0  0  0  0  0
  192.0690  177.5020  141.7730 O   0  0  0  0  0  0  0  0  0  0  0  0
  191.7200  178.7470  143.6630 O   0  0  0  0  0  1  0  0  0  0  0  0
  1 10  1  0  0  0  0
  1 19  1  1  0  0  0
  3  7  1  0  0  0  0
  3 14  1  0  0  0  0
  4  9  1  0  0  0  0
  5  8  1  0  0  0  0
  6  8  2  0  0  0  0
  9 11  2  0  0  0  0
  9 10  1  0  0  0  0
 10  5  2  0  0  0  0
 11  6  1  0  0  0  0
 12 14  1  0  0  0  0
 12  2  1  0  0  0  0
 13  3  2  0  0  0  0
 14 15  1  0  0  0  0
 15 17  1  0  0  0  0
 16  2  1  6  0  0  0
 16  4  1  0  0  0  0
 16 18  1  0  0  0  0
 18 17  1  1  0  0  0
 18  1  1  0  0  0  0
 19 20  1  0  0  0  0
 20 21  1  0  0  0  0
 22 31  1  0  0  0  0
 23 30  1  0  0  0  0
 24 32  1  6  0  0  0
 24 25  1  0  0  0  0
 25 26  1  0  0  0  0
 26 22  2  0  0  0  0
 27 29  1  0  0  0  0
 27 28  1  0  0  0  0
 28 23  2  0  0  0  0
 28 26  1  0  0  0  0
 29 24  1  0  0  0  0
 30 21  1  0  0  0  0
 30 31  2  0  0  0  0
 32 34  1  0  0  0  0
 33 32  2  0  0  0  0
M  END
>  <MODEL>
5

>  <REMARK>
 VINA RESULT:      -8.6      2.949      7.089
  Name = 
  5 active torsions:
  status: ('A' for Active; 'I' for Inactive)
    1  A    between atoms: C_1  and  C_9
    2  A    between atoms: CA_7  and  C_11
    3  A    between atoms: C_8  and  C_9
    4  A    between atoms: C_8  and  N_18
    5  A    between atoms: N_18  and  C_30
                            x       y       z     vdW  Elec       q    Type
                         _______ _______ _______ _____ _____    ______ ____

>  <TORSDO>
F 5

$$$$
=
 OpenBabel11052415423D

 34 38  0  0  1  0  0  0  0  0999 V2000
  187.9700  177.7280  144.3340 C   0  0  2  0  0  3  0  0  0  0  0  0
  184.0840  178.0160  144.9220 C   0  0  0  0  0  2  0  0  0  0  0  0
  182.8200  179.0110  142.0660 C   0  0  0  0  0  0  0  0  0  0  0  0
  185.9860  177.8750  146.4240 O   0  0  0  0  0  0  0  0  0  0  0  0
  189.6930  177.8340  146.1670 C   0  0  0  0  0  3  0  0  0  0  0  0
  189.0470  177.9620  148.4990 C   0  0  0  0  0  3  0  0  0  0  0  0
  182.9460  178.8450  140.6910 O   0  0  0  0  0  0  0  0  0  0  0  0
  190.0420  177.9050  147.5190 C   0  0  0  0  0  3  0  0  0  0  0  0
  187.3400  177.8700  146.7820 C   0  0  0  0  0  0  0  0  0  0  0  0
  188.3450  177.8190  145.7910 C   0  0  0  0  0  0  0  0  0  0  0  0
  187.6990  177.9470  148.1310 C   0  0  0  0  0  3  0  0  0  0  0  0
  183.8640  179.3960  144.3180 C   0  0  0  0  0  2  0  0  0  0  0  0
  181.6850  178.8990  142.5990 O   0  0  0  0  0  1  0  0  0  0  0  0
  183.9720  179.3100  142.8650 N   0  0  0  0  0  0  0  0  0  0  0  0
  185.2890  179.3770  142.2440 C   0  0  0  0  0  2  0  0  0  0  0  0
  185.5600  177.6340  145.0820 C   0  0  2  0  0  3  0  0  0  0  0  0
  186.1270  178.1670  142.6290 C   0  0  0  0  0  2  0  0  0  0  0  0
  186.5510  178.2740  144.0910 C   0  0  2  0  0  3  0  0  0  0  0  0
  188.2010  176.3230  143.7560 C   0  0  0  0  0  2  0  0  0  0  0  0
  189.5030  176.2040  142.9730 C   0  0  0  0  0  2  0  0  0  0  0  0
  189.6110  177.2990  142.0210 N   0  0  0  0  0  2  0  0  0  0  0  0
  189.4180  176.9240  138.3000 C   0  0  0  0  0  3  0  0  0  0  0  0
  191.3330  176.8870  140.3390 C   0  0  0  0  0  3  0  0  0  0  0  0
  192.6100  176.0920  136.3710 C   0  0  1  0  0  3  0  0  0  0  0  0
  191.1550  176.5450  136.5460 C   0  0  0  0  0  2  0  0  0  0  0  0
  190.7610  176.7010  137.9860 C   0  0  0  0  0  0  0  0  0  0  0  0
  193.1610  176.3930  138.7070 C   0  0  0  0  0  2  0  0  0  0  0  0
  191.7260  176.7020  139.0110 C   0  0  0  0  0  0  0  0  0  0  0  0
  193.5080  176.7500  137.3290 N   0  0  0  0  0  2  0  0  0  0  0  0
  189.9880  177.1080  140.6540 C   0  0  0  0  0  0  0  0  0  0  0  0
  189.0320  177.1220  139.6270 C   0  0  0  0  0  3  0  0  0  0  0  0
  192.7750  174.6000  136.3620 C   0  0  0  0  0  0  0  0  0  0  0  0
  194.0400  174.0530  136.2050 O   0  0  0  0  0  0  0  0  0  0  0  0
  191.7840  173.8400  136.5270 O   0  0  0  0  0  1  0  0  0  0  0  0
  1 19  1  1  0  0  0
  1 10  1  0  0  0  0
  3 13  1  0  0  0  0
  3 14  1  0  0  0  0
  4  9  1  0  0  0  0
  5  8  1  0  0  0  0
  7  3  2  0  0  0  0
  8  6  2  0  0  0  0
  9 11  2  0  0  0  0
 10  5  2  0  0  0  0
 10  9  1  0  0  0  0
 11  6  1  0  0  0  0
 12  2  1  0  0  0  0
 14 12  1  0  0  0  0
 15 17  1  0  0  0  0
 15 14  1  0  0  0  0
 16  2  1  1  0  0  0
 16  4  1  0  0  0  0
 18 17  1  6  0  0  0
 18  1  1  0  0  0  0
 18 16  1  0  0  0  0
 20 19  1  0  0  0  0
 21 20  1  0  0  0  0
 22 31  1  0  0  0  0
 23 30  1  0  0  0  0
 24 32  1  1  0  0  0
 24 25  1  0  0  0  0
 24 29  1  0  0  0  0
 25 26  1  0  0  0  0
 26 22  2  0  0  0  0
 26 28  1  0  0  0  0
 27 28  1  0  0  0  0
 28 23  2  0  0  0  0
 29 27  1  0  0  0  0
 30 21  1  0  0  0  0
 31 30  2  0  0  0  0
 32 34  1  0  0  0  0
 33 32  2  0  0  0  0
M  END
>  <MODEL>
6

>  <REMARK>
 VINA RESULT:      -8.5      1.249      1.513
  Name = 
  5 active torsions:
  status: ('A' for Active; 'I' for Inactive)
    1  A    between atoms: C_1  and  C_9
    2  A    between atoms: CA_7  and  C_11
    3  A    between atoms: C_8  and  C_9
    4  A    between atoms: C_8  and  N_18
    5  A    between atoms: N_18  and  C_30
                            x       y       z     vdW  Elec       q    Type
                         _______ _______ _______ _____ _____    ______ ____

>  <TORSDO>
F 5

$$$$
=
 OpenBabel11052415423D

 34 38  0  0  1  0  0  0  0  0999 V2000
  188.7290  177.5040  144.0650 C   0  0  2  0  0  3  0  0  0  0  0  0
  184.8770  178.0380  143.4250 C   0  0  0  0  0  2  0  0  0  0  0  0
  184.6210  179.0520  140.3180 C   0  0  0  0  0  0  0  0  0  0  0  0
  186.2110  177.8120  145.4410 O   0  0  0  0  0  0  0  0  0  0  0  0
  189.8060  177.5410  146.3410 C   0  0  0  0  0  3  0  0  0  0  0  0
  188.4840  177.7550  148.3590 C   0  0  0  0  0  3  0  0  0  0  0  0
  185.1530  178.8510  139.0490 O   0  0  0  0  0  0  0  0  0  0  0  0
  189.7270  177.6180  147.7340 C   0  0  0  0  0  3  0  0  0  0  0  0
  187.3870  177.7320  146.1990 C   0  0  0  0  0  0  0  0  0  0  0  0
  188.6420  177.6000  145.5670 C   0  0  0  0  0  0  0  0  0  0  0  0
  187.3160  177.8140  147.5930 C   0  0  0  0  0  3  0  0  0  0  0  0
  184.9420  179.4170  142.7820 C   0  0  0  0  0  2  0  0  0  0  0  0
  183.3720  179.0190  140.4750 O   0  0  0  0  0  1  0  0  0  0  0  0
  185.4870  179.2960  141.4340 N   0  0  0  0  0  0  0  0  0  0  0  0
  186.9330  179.2710  141.2500 C   0  0  0  0  0  2  0  0  0  0  0  0
  186.2040  177.5710  144.0330 C   0  0  2  0  0  3  0  0  0  0  0  0
  187.5320  178.0190  141.8750 C   0  0  0  0  0  2  0  0  0  0  0  0
  187.4920  178.1300  143.3960 C   0  0  2  0  0  3  0  0  0  0  0  0
  189.0360  176.0760  143.5870 C   0  0  0  0  0  2  0  0  0  0  0  0
  190.4900  175.8840  143.1710 C   0  0  0  0  0  2  0  0  0  0  0  0
  190.9130  176.9870  142.3220 N   0  0  0  0  0  2  0  0  0  0  0  0
  192.2150  177.1440  138.8150 C   0  0  0  0  0  3  0  0  0  0  0  0
  189.8750  176.4470  140.1790 C   0  0  0  0  0  3  0  0  0  0  0  0
  189.8490  176.2880  135.9380 C   0  0  1  0  0  3  0  0  0  0  0  0
  191.2020  176.5630  136.6070 C   0  0  0  0  0  2  0  0  0  0  0  0
  191.0990  176.7060  138.0970 C   0  0  0  0  0  0  0  0  0  0  0  0
  188.6960  175.9350  138.0350 C   0  0  0  0  0  2  0  0  0  0  0  0
  189.9280  176.3370  138.7870 C   0  0  0  0  0  0  0  0  0  0  0  0
  189.0260  175.3620  136.7270 N   0  0  0  0  0  2  0  0  0  0  0  0
  190.9920  176.8870  140.8970 C   0  0  0  0  0  0  0  0  0  0  0  0
  192.1620  177.2390  140.2070 C   0  0  0  0  0  3  0  0  0  0  0  0
  189.1060  177.5350  135.5580 C   0  0  0  0  0  0  0  0  0  0  0  0
  189.3480  178.7130  136.2510 O   0  0  0  0  0  1  0  0  0  0  0  0
  188.2920  177.5340  134.5970 O   0  0  0  0  0  0  0  0  0  0  0  0
  1 19  1  1  0  0  0
  1 10  1  0  0  0  0
  3 13  1  0  0  0  0
  3 14  1  0  0  0  0
  4  9  1  0  0  0  0
  5  8  1  0  0  0  0
  7  3  2  0  0  0  0
  8  6  2  0  0  0  0
  9 11  2  0  0  0  0
 10  9  1  0  0  0  0
 10  5  2  0  0  0  0
 11  6  1  0  0  0  0
 12  2  1  0  0  0  0
 14 12  1  0  0  0  0
 15 14  1  0  0  0  0
 15 17  1  0  0  0  0
 16  2  1  6  0  0  0
 16  4  1  0  0  0  0
 18 17  1  6  0  0  0
 18 16  1  0  0  0  0
 18  1  1  0  0  0  0
 20 19  1  0  0  0  0
 21 20  1  0  0  0  0
 22 31  1  0  0  0  0
 23 30  1  0  0  0  0
 24 32  1  1  0  0  0
 24 25  1  0  0  0  0
 24 29  1  0  0  0  0
 25 26  1  0  0  0  0
 26 28  1  0  0  0  0
 26 22  2  0  0  0  0
 27 28  1  0  0  0  0
 28 23  2  0  0  0  0
 29 27  1  0  0  0  0
 30 21  1  0  0  0  0
 31 30  2  0  0  0  0
 32 33  1  0  0  0  0
 34 32  2  0  0  0  0
M  END
>  <MODEL>
7

>  <REMARK>
 VINA RESULT:      -8.5      1.538      2.002
  Name = 
  5 active torsions:
  status: ('A' for Active; 'I' for Inactive)
    1  A    between atoms: C_1  and  C_9
    2  A    between atoms: CA_7  and  C_11
    3  A    between atoms: C_8  and  C_9
    4  A    between atoms: C_8  and  N_18
    5  A    between atoms: N_18  and  C_30
                            x       y       z     vdW  Elec       q    Type
                         _______ _______ _______ _____ _____    ______ ____

>  <TORSDO>
F 5

$$$$
=
 OpenBabel11052415423D

 34 38  0  0  1  0  0  0  0  0999 V2000
  188.5980  178.2650  141.6530 C   0  0  2  0  0  3  0  0  0  0  0  0
  190.8220  175.6520  143.5890 C   0  0  0  0  0  2  0  0  0  0  0  0
  190.9580  176.7160  146.6860 C   0  0  0  0  0  0  0  0  0  0  0  0
  190.4950  176.1320  141.2320 O   0  0  0  0  0  0  0  0  0  0  0  0
  188.6860  178.6330  139.1630 C   0  0  0  0  0  3  0  0  0  0  0  0
  190.0690  177.2520  137.7320 C   0  0  0  0  0  3  0  0  0  0  0  0
  190.1860  177.3090  147.6800 O   0  0  0  0  0  1  0  0  0  0  0  0
  189.1590  178.3020  137.8910 C   0  0  0  0  0  3  0  0  0  0  0  0
  190.0340  176.8510  140.1210 C   0  0  0  0  0  0  0  0  0  0  0  0
  189.1200  177.9150  140.2830 C   0  0  0  0  0  0  0  0  0  0  0  0
  190.5070  176.5290  138.8460 C   0  0  0  0  0  3  0  0  0  0  0  0
  191.7490  176.6260  144.3040 C   0  0  0  0  0  2  0  0  0  0  0  0
  191.6070  175.6700  146.9530 O   0  0  0  0  0  0  0  0  0  0  0  0
  191.0150  177.2920  145.3760 N   0  0  0  0  0  0  0  0  0  0  0  0
  190.2100  178.4670  145.0630 C   0  0  0  0  0  2  0  0  0  0  0  0
  189.9270  176.3060  142.5310 C   0  0  2  0  0  3  0  0  0  0  0  0
  189.0460  178.0970  144.1560 C   0  0  0  0  0  2  0  0  0  0  0  0
  189.5620  177.7860  142.7530 C   0  0  2  0  0  3  0  0  0  0  0  0
  187.1450  177.8100  141.8600 C   0  0  0  0  0  2  0  0  0  0  0  0
  186.1800  178.9690  142.0780 C   0  0  0  0  0  2  0  0  0  0  0  0
  185.5990  179.3780  140.8080 N   0  0  0  0  0  2  0  0  0  0  0  0
  182.7950  177.1000  139.8220 C   0  0  0  0  0  3  0  0  0  0  0  0
  185.0700  178.2750  138.6950 C   0  0  0  0  0  3  0  0  0  0  0  0
  182.7860  175.6190  136.2980 C   0  0  1  0  0  3  0  0  0  0  0  0
  182.1980  175.9890  137.6660 C   0  0  0  0  0  2  0  0  0  0  0  0
  183.1180  176.8450  138.4860 C   0  0  0  0  0  0  0  0  0  0  0  0
  184.6590  177.1360  136.5070 C   0  0  0  0  0  2  0  0  0  0  0  0
  184.2520  177.4530  137.9150 C   0  0  0  0  0  0  0  0  0  0  0  0
  183.5070  176.7450  135.6900 N   0  0  0  0  0  2  0  0  0  0  0  0
  184.7480  178.5290  140.0320 C   0  0  0  0  0  0  0  0  0  0  0  0
  183.6080  177.9340  140.5930 C   0  0  0  0  0  3  0  0  0  0  0  0
  183.6020  174.3590  136.3190 C   0  0  0  0  0  0  0  0  0  0  0  0
  184.2660  173.9560  135.1700 O   0  0  0  0  0  0  0  0  0  0  0  0
  183.7170  173.6830  137.3760 O   0  0  0  0  0  1  0  0  0  0  0  0
  1 19  1  1  0  0  0
  1 18  1  0  0  0  0
  2 12  1  0  0  0  0
  3 13  2  0  0  0  0
  3  7  1  0  0  0  0
  4 16  1  0  0  0  0
  5 10  1  0  0  0  0
  6  8  1  0  0  0  0
  6 11  2  0  0  0  0
  8  5  2  0  0  0  0
  9 10  2  0  0  0  0
  9  4  1  0  0  0  0
 10  1  1  0  0  0  0
 11  9  1  0  0  0  0
 12 14  1  0  0  0  0
 14  3  1  0  0  0  0
 15 14  1  0  0  0  0
 16 18  1  0  0  0  0
 16  2  1  1  0  0  0
 17 15  1  0  0  0  0
 18 17  1  1  0  0  0
 19 20  1  0  0  0  0
 21 20  1  0  0  0  0
 22 31  1  0  0  0  0
 23 30  1  0  0  0  0
 24 32  1  1  0  0  0
 24 25  1  0  0  0  0
 25 26  1  0  0  0  0
 26 22  2  0  0  0  0
 27 28  1  0  0  0  0
 28 26  1  0  0  0  0
 28 23  2  0  0  0  0
 29 24  1  0  0  0  0
 29 27  1  0  0  0  0
 30 31  2  0  0  0  0
 30 21  1  0  0  0  0
 32 34  1  0  0  0  0
 33 32  2  0  0  0  0
M  END
>  <MODEL>
8

>  <REMARK>
 VINA RESULT:      -8.4      3.600      7.024
  Name = 
  5 active torsions:
  status: ('A' for Active; 'I' for Inactive)
    1  A    between atoms: C_1  and  C_9
    2  A    between atoms: CA_7  and  C_11
    3  A    between atoms: C_8  and  C_9
    4  A    between atoms: C_8  and  N_18
    5  A    between atoms: N_18  and  C_30
                            x       y       z     vdW  Elec       q    Type
                         _______ _______ _______ _____ _____    ______ ____

>  <TORSDO>
F 5

$$$$
=
 OpenBabel11052415423D

 34 38  0  0  1  0  0  0  0  0999 V2000
  187.5510  177.5370  144.6540 C   0  0  2  0  0  3  0  0  0  0  0  0
  191.1900  178.3310  143.3680 C   0  0  0  0  0  2  0  0  0  0  0  0
  191.3430  177.1280  140.3230 C   0  0  0  0  0  0  0  0  0  0  0  0
  190.1770  178.2980  145.5750 O   0  0  0  0  0  0  0  0  0  0  0  0
  186.9080  177.3800  147.0840 C   0  0  0  0  0  3  0  0  0  0  0  0
  188.4970  177.8780  148.8430 C   0  0  0  0  0  3  0  0  0  0  0  0
  190.5940  176.9820  139.1600 O   0  0  0  0  0  0  0  0  0  0  0  0
  187.2140  177.4940  148.4430 C   0  0  0  0  0  3  0  0  0  0  0  0
  189.1800  178.0430  146.5250 C   0  0  0  0  0  0  0  0  0  0  0  0
  187.8860  177.6490  146.1190 C   0  0  0  0  0  0  0  0  0  0  0  0
  189.4790  178.1490  147.8860 C   0  0  0  0  0  3  0  0  0  0  0  0
  191.5430  176.9550  142.8200 C   0  0  0  0  0  2  0  0  0  0  0  0
  192.5000  177.6180  140.2530 O   0  0  0  0  0  1  0  0  0  0  0  0
  190.8010  176.7210  141.5860 N   0  0  0  0  0  0  0  0  0  0  0  0
  189.4370  176.2130  141.6610 C   0  0  0  0  0  2  0  0  0  0  0  0
  189.8890  178.3640  144.1770 C   0  0  2  0  0  3  0  0  0  0  0  0
  188.5180  177.2330  142.3160 C   0  0  0  0  0  2  0  0  0  0  0  0
  188.8190  177.3180  143.8100 C   0  0  2  0  0  3  0  0  0  0  0  0
  186.6730  178.7000  144.1640 C   0  0  0  0  0  2  0  0  0  0  0  0
  185.2910  178.2530  143.7000 C   0  0  0  0  0  2  0  0  0  0  0  0
  184.8170  179.1290  142.6400 N   0  0  0  0  0  2  0  0  0  0  0  0
  183.4070  177.9350  139.3830 C   0  0  0  0  0  3  0  0  0  0  0  0
  185.8720  178.6600  140.4880 C   0  0  0  0  0  3  0  0  0  0  0  0
  185.8020  177.2550  136.4840 C   0  0  1  0  0  3  0  0  0  0  0  0
  184.4420  177.4850  137.1550 C   0  0  0  0  0  2  0  0  0  0  0  0
  184.5620  177.8790  138.5980 C   0  0  0  0  0  0  0  0  0  0  0  0
  187.0600  178.1400  138.3510 C   0  0  0  0  0  2  0  0  0  0  0  0
  185.7980  178.2620  139.1500 C   0  0  0  0  0  0  0  0  0  0  0  0
  186.7990  178.2460  136.9130 N   0  0  0  0  0  2  0  0  0  0  0  0
  184.7160  178.7140  141.2740 C   0  0  0  0  0  0  0  0  0  0  0  0
  183.4830  178.3470  140.7150 C   0  0  0  0  0  3  0  0  0  0  0  0
  186.3010  175.8460  136.6120 C   0  0  0  0  0  0  0  0  0  0  0  0
  187.5820  175.5330  136.1780 O   0  0  0  0  0  0  0  0  0  0  0  0
  185.5860  174.9530  137.1370 O   0  0  0  0  0  1  0  0  0  0  0  0
  1 19  1  6  0  0  0
  1 10  1  0  0  0  0
  3 14  1  0  0  0  0
  4  9  1  0  0  0  0
  5  8  1  0  0  0  0
  7  3  2  0  0  0  0
  8  6  2  0  0  0  0
  9 11  2  0  0  0  0
 10  9  1  0  0  0  0
 10  5  2  0  0  0  0
 11  6  1  0  0  0  0
 12  2  1  0  0  0  0
 13  3  1  0  0  0  0
 14 15  1  0  0  0  0
 14 12  1  0  0  0  0
 15 17  1  0  0  0  0
 16  2  1  6  0  0  0
 16  4  1  0  0  0  0
 18 17  1  6  0  0  0
 18 16  1  0  0  0  0
 18  1  1  0  0  0  0
 20 19  1  0  0  0  0
 21 20  1  0  0  0  0
 22 31  1  0  0  0  0
 23 30  1  0  0  0  0
 24 32  1  1  0  0  0
 24 29  1  0  0  0  0
 24 25  1  0  0  0  0
 25 26  1  0  0  0  0
 26 28  1  0  0  0  0
 26 22  2  0  0  0  0
 27 28  1  0  0  0  0
 28 23  2  0  0  0  0
 29 27  1  0  0  0  0
 30 21  1  0  0  0  0
 31 30  2  0  0  0  0
 32 34  1  0  0  0  0
 33 32  2  0  0  0  0
M  END
>  <MODEL>
9

>  <REMARK>
 VINA RESULT:      -8.2      2.663      5.120
  Name = 
  5 active torsions:
  status: ('A' for Active; 'I' for Inactive)
    1  A    between atoms: C_1  and  C_9
    2  A    between atoms: CA_7  and  C_11
    3  A    between atoms: C_8  and  C_9
    4  A    between atoms: C_8  and  N_18
    5  A    between atoms: N_18  and  C_30
                            x       y       z     vdW  Elec       q    Type
                         _______ _______ _______ _____ _____    ______ ____

>  <TORSDO>
F 5

$$$$
