=
 OpenBabel11052413533D

 27 31  0  0  0  0  0  0  0  0999 V2000
  186.9140  179.3130  141.0500 C   0  0  0  0  0  2  0  0  0  0  0  0
  186.7200  178.0850  143.2390 C   0  0  0  0  0  0  0  0  0  0  0  0
  189.2100  178.2910  142.5320 C   0  0  0  0  0  2  0  0  0  0  0  0
  186.0200  177.7070  144.3260 N   0  0  0  0  0  2  0  0  0  0  0  0
  190.4580  175.6100  138.6090 O   0  0  0  0  0  1  0  0  0  0  0  0
  189.5990  176.5230  139.2030 C   0  0  0  0  0  0  0  0  0  0  0  0
  186.1020  178.5990  142.0350 N   0  0  0  0  0  0  0  0  0  0  0  0
  188.2030  177.4050  144.7360 C   0  0  0  0  0  0  0  0  0  0  0  0
  187.8690  178.3700  140.3970 C   0  0  0  0  0  0  0  0  0  0  0  0
  188.0830  177.9080  143.4500 C   0  0  0  0  0  0  0  0  0  0  0  0
  189.8200  176.9330  140.5210 C   0  0  0  0  0  3  0  0  0  0  0  0
  186.9170  177.2910  145.2420 C   0  0  0  0  0  3  0  0  0  0  0  0
  188.5120  177.0300  138.4850 C   0  0  0  0  0  3  0  0  0  0  0  0
  187.6450  177.9500  139.0830 C   0  0  0  0  0  3  0  0  0  0  0  0
  188.9560  177.8540  141.1240 C   0  0  0  0  0  0  0  0  0  0  0  0
  189.4580  177.1100  146.8750 C   0  0  0  0  0  3  0  0  0  0  0  0
  191.7610  176.3650  146.8990 C   0  0  0  0  0  3  0  0  0  0  0  0
  191.7520  176.2980  145.5050 C   0  0  0  0  0  3  0  0  0  0  0  0
  190.5960  176.6380  144.7960 C   0  0  0  0  0  3  0  0  0  0  0  0
  189.4380  177.0470  145.4730 C   0  0  0  0  0  0  0  0  0  0  0  0
  190.6130  176.7710  147.5860 C   0  0  0  0  0  3  0  0  0  0  0  0
  181.9600  178.0730  141.1990 C   0  0  0  0  0  3  0  0  0  0  0  0
  184.6990  178.4010  141.7550 C   0  0  0  0  0  0  0  0  0  0  0  0
  184.2770  177.7850  140.5640 C   0  0  0  0  0  3  0  0  0  0  0  0
  182.9170  177.6190  140.2890 C   0  0  0  0  0  3  0  0  0  0  0  0
  182.3640  178.6950  142.3830 C   0  0  0  0  0  3  0  0  0  0  0  0
  183.7240  178.8610  142.6570 C   0  0  0  0  0  3  0  0  0  0  0  0
  1  7  1  0  0  0  0
  2 10  2  0  0  0  0
  2  4  1  0  0  0  0
  3 10  1  0  0  0  0
  4 12  1  0  0  0  0
  5  6  1  0  0  0  0
  6 11  1  0  0  0  0
  7  2  1  0  0  0  0
  8 12  2  0  0  0  0
  8 20  1  0  0  0  0
  9  1  1  0  0  0  0
  9 15  1  0  0  0  0
 10  8  1  0  0  0  0
 11 15  2  0  0  0  0
 13 14  1  0  0  0  0
 13  6  2  0  0  0  0
 14  9  2  0  0  0  0
 15  3  1  0  0  0  0
 16 21  1  0  0  0  0
 17 21  2  0  0  0  0
 18 17  1  0  0  0  0
 19 20  1  0  0  0  0
 19 18  2  0  0  0  0
 20 16  2  0  0  0  0
 22 26  1  0  0  0  0
 23  7  1  0  0  0  0
 23 27  1  0  0  0  0
 24 23  2  0  0  0  0
 25 24  1  0  0  0  0
 25 22  2  0  0  0  0
 26 27  2  0  0  0  0
M  END
>  <MODEL>
1

>  <REMARK>
 VINA RESULT:      -8.9      0.000      0.000
  Name = 
  2 active torsions:
  status: ('A' for Active; 'I' for Inactive)
    1  A    between atoms: C_9  and  N_15
    2  A    between atoms: C_14  and  C_17
                            x       y       z     vdW  Elec       q    Type
                         _______ _______ _______ _____ _____    ______ ____

>  <TORSDO>
F 2

$$$$
=
 OpenBabel11052413533D

 27 31  0  0  0  0  0  0  0  0999 V2000
  186.9730  179.3430  141.0760 C   0  0  0  0  0  2  0  0  0  0  0  0
  186.7510  178.1030  143.2560 C   0  0  0  0  0  0  0  0  0  0  0  0
  189.2460  178.2750  142.5610 C   0  0  0  0  0  2  0  0  0  0  0  0
  186.0390  177.7290  144.3380 N   0  0  0  0  0  2  0  0  0  0  0  0
  190.4690  175.6000  138.6250 O   0  0  0  0  0  1  0  0  0  0  0  0
  189.6210  176.5230  139.2220 C   0  0  0  0  0  0  0  0  0  0  0  0
  186.1460  178.6350  142.0540 N   0  0  0  0  0  0  0  0  0  0  0  0
  188.2160  177.3900  144.7560 C   0  0  0  0  0  0  0  0  0  0  0  0
  187.9160  178.3890  140.4220 C   0  0  0  0  0  0  0  0  0  0  0  0
  188.1100  177.9040  143.4720 C   0  0  0  0  0  0  0  0  0  0  0  0
  189.8430  176.9210  140.5440 C   0  0  0  0  0  3  0  0  0  0  0  0
  186.9270  177.2930  145.2550 C   0  0  0  0  0  3  0  0  0  0  0  0
  188.5460  177.0520  138.5030 C   0  0  0  0  0  3  0  0  0  0  0  0
  187.6910  177.9820  139.1030 C   0  0  0  0  0  3  0  0  0  0  0  0
  188.9910  177.8510  141.1490 C   0  0  0  0  0  0  0  0  0  0  0  0
  190.5940  176.6280  144.7870 C   0  0  0  0  0  3  0  0  0  0  0  0
  191.7860  176.2890  146.8660 C   0  0  0  0  0  3  0  0  0  0  0  0
  190.6470  176.6660  147.5800 C   0  0  0  0  0  3  0  0  0  0  0  0
  189.4810  177.0230  146.8960 C   0  0  0  0  0  3  0  0  0  0  0  0
  189.4420  177.0080  145.4950 C   0  0  0  0  0  0  0  0  0  0  0  0
  191.7610  176.2700  145.4690 C   0  0  0  0  0  3  0  0  0  0  0  0
  182.0100  178.0680  141.2130 C   0  0  0  0  0  3  0  0  0  0  0  0
  184.7410  178.4620  141.7660 C   0  0  0  0  0  0  0  0  0  0  0  0
  183.7580  178.8490  142.6930 C   0  0  0  0  0  3  0  0  0  0  0  0
  182.4020  178.6560  142.4180 C   0  0  0  0  0  3  0  0  0  0  0  0
  182.9760  177.6710  140.2850 C   0  0  0  0  0  3  0  0  0  0  0  0
  184.3320  177.8630  140.5610 C   0  0  0  0  0  3  0  0  0  0  0  0
  1  7  1  0  0  0  0
  2 10  2  0  0  0  0
  2  4  1  0  0  0  0
  3 10  1  0  0  0  0
  4 12  1  0  0  0  0
  5  6  1  0  0  0  0
  6 11  1  0  0  0  0
  7  2  1  0  0  0  0
  8 12  2  0  0  0  0
  8 20  1  0  0  0  0
  9  1  1  0  0  0  0
  9 15  1  0  0  0  0
 10  8  1  0  0  0  0
 11 15  2  0  0  0  0
 13 14  1  0  0  0  0
 13  6  2  0  0  0  0
 14  9  2  0  0  0  0
 15  3  1  0  0  0  0
 16 21  2  0  0  0  0
 16 20  1  0  0  0  0
 17 18  2  0  0  0  0
 19 18  1  0  0  0  0
 20 19  2  0  0  0  0
 21 17  1  0  0  0  0
 22 25  1  0  0  0  0
 23  7  1  0  0  0  0
 23 24  1  0  0  0  0
 25 24  2  0  0  0  0
 26 27  1  0  0  0  0
 26 22  2  0  0  0  0
 27 23  2  0  0  0  0
M  END
>  <MODEL>
2

>  <REMARK>
 VINA RESULT:      -8.8      0.058      1.317
  Name = 
  2 active torsions:
  status: ('A' for Active; 'I' for Inactive)
    1  A    between atoms: C_9  and  N_15
    2  A    between atoms: C_14  and  C_17
                            x       y       z     vdW  Elec       q    Type
                         _______ _______ _______ _____ _____    ______ ____

>  <TORSDO>
F 2

$$$$
=
 OpenBabel11052413533D

 27 31  0  0  1  0  0  0  0  0999 V2000
  187.1520  176.2760  143.9530 C   0  0  0  0  0  2  0  0  0  0  0  0
  187.7560  177.5900  141.8930 C   0  0  0  0  0  0  0  0  0  0  0  0
  189.7500  176.1040  142.6370 C   0  0  0  0  0  2  0  0  0  0  0  0
  187.4180  178.3480  140.8310 N   0  0  0  0  0  0  0  0  0  0  0  0
  191.8890  177.4930  146.8370 O   0  0  0  0  0  1  0  0  0  0  0  0
  190.7330  177.1850  146.1330 C   0  0  0  0  0  0  0  0  0  0  0  0
  186.8790  177.3720  143.0240 N   0  0  0  0  0  0  0  0  0  0  0  0
  189.4820  177.5350  140.5070 C   0  0  0  0  0  0  0  0  0  0  0  0
  188.4010  176.5570  144.7200 C   0  0  0  0  0  0  0  0  0  0  0  0
  189.0350  177.0690  141.7340 C   0  0  1  0  0  3  0  0  0  0  0  0
  190.8120  176.8160  144.7870 C   0  0  0  0  0  3  0  0  0  0  0  0
  188.4660  178.3190  139.9830 C   0  0  0  0  0  3  0  0  0  0  0  0
  189.4900  177.2450  146.7710 C   0  0  0  0  0  3  0  0  0  0  0  0
  188.3240  176.9350  146.0630 C   0  0  0  0  0  3  0  0  0  0  0  0
  189.6490  176.5050  144.0750 C   0  0  0  0  0  0  0  0  0  0  0  0
  190.8020  176.7320  138.5450 C   0  0  0  0  0  3  0  0  0  0  0  0
  193.2220  176.7740  138.5460 C   0  0  0  0  0  3  0  0  0  0  0  0
  193.2110  177.3130  139.8330 C   0  0  0  0  0  3  0  0  0  0  0  0
  191.9960  177.5610  140.4770 C   0  0  0  0  0  3  0  0  0  0  0  0
  190.7800  177.2730  139.8410 C   0  0  0  0  0  0  0  0  0  0  0  0
  192.0170  176.4830  137.9000 C   0  0  0  0  0  3  0  0  0  0  0  0
  183.5100  179.8540  143.8100 C   0  0  0  0  0  3  0  0  0  0  0  0
  185.7470  178.2300  143.2870 C   0  0  0  0  0  0  0  0  0  0  0  0
  185.6620  178.9730  144.4770 C   0  0  0  0  0  3  0  0  0  0  0  0
  184.5530  179.7820  144.7360 C   0  0  0  0  0  3  0  0  0  0  0  0
  183.5760  179.1150  142.6260 C   0  0  0  0  0  3  0  0  0  0  0  0
  184.6860  178.3060  142.3680 C   0  0  0  0  0  3  0  0  0  0  0  0
  1  9  1  0  0  0  0
  2  7  1  0  0  0  0
  3 15  1  0  0  0  0
  4  2  2  0  0  0  0
  6 13  1  0  0  0  0
  6  5  1  0  0  0  0
  7 23  1  0  0  0  0
  7  1  1  0  0  0  0
  8 10  1  0  0  0  0
  9 14  1  0  0  0  0
 10  2  1  0  0  0  0
 10  3  1  6  0  0  0
 11  6  2  0  0  0  0
 12  8  2  0  0  0  0
 12  4  1  0  0  0  0
 14 13  2  0  0  0  0
 15  9  2  0  0  0  0
 15 11  1  0  0  0  0
 16 20  1  0  0  0  0
 17 18  2  0  0  0  0
 18 19  1  0  0  0  0
 20 19  2  0  0  0  0
 20  8  1  0  0  0  0
 21 16  2  0  0  0  0
 21 17  1  0  0  0  0
 22 25  1  0  0  0  0
 23 24  1  0  0  0  0
 24 25  2  0  0  0  0
 26 22  2  0  0  0  0
 27 26  1  0  0  0  0
 27 23  2  0  0  0  0
M  END
>  <MODEL>
3

>  <REMARK>
 VINA RESULT:      -8.7      2.373      5.404
  Name = 
  2 active torsions:
  status: ('A' for Active; 'I' for Inactive)
    1  A    between atoms: C_9  and  N_15
    2  A    between atoms: C_14  and  C_17
                            x       y       z     vdW  Elec       q    Type
                         _______ _______ _______ _____ _____    ______ ____

>  <TORSDO>
F 2

$$$$
=
 OpenBabel11052413533D

 27 31  0  0  0  0  0  0  0  0999 V2000
  185.9900  179.3280  140.4830 C   0  0  0  0  0  2  0  0  0  0  0  0
  186.0550  178.0940  142.6770 C   0  0  0  0  0  0  0  0  0  0  0  0
  188.4570  178.4180  141.7470 C   0  0  0  0  0  2  0  0  0  0  0  0
  185.4750  177.6830  143.8220 N   0  0  0  0  0  2  0  0  0  0  0  0
  189.4710  175.7970  137.7170 O   0  0  0  0  0  1  0  0  0  0  0  0
  188.6260  176.6690  138.3900 C   0  0  0  0  0  0  0  0  0  0  0  0
  185.3060  178.5760  141.5360 N   0  0  0  0  0  0  0  0  0  0  0  0
  187.6990  177.4860  144.0310 C   0  0  0  0  0  0  0  0  0  0  0  0
  186.9260  178.4320  139.7430 C   0  0  0  0  0  0  0  0  0  0  0  0
  187.4390  177.9830  142.7630 C   0  0  0  0  0  0  0  0  0  0  0  0
  188.9470  177.0900  139.6840 C   0  0  0  0  0  3  0  0  0  0  0  0
  186.4710  177.3110  144.6510 C   0  0  0  0  0  3  0  0  0  0  0  0
  187.4560  177.1230  137.7750 C   0  0  0  0  0  3  0  0  0  0  0  0
  186.6040  178.0010  138.4530 C   0  0  0  0  0  3  0  0  0  0  0  0
  188.0980  177.9690  140.3660 C   0  0  0  0  0  0  0  0  0  0  0  0
  190.0820  176.7660  143.8480 C   0  0  0  0  0  3  0  0  0  0  0  0
  191.5160  176.6280  145.7940 C   0  0  0  0  0  3  0  0  0  0  0  0
  190.4580  177.0490  146.6010 C   0  0  0  0  0  3  0  0  0  0  0  0
  189.2120  177.3280  146.0320 C   0  0  0  0  0  3  0  0  0  0  0  0
  189.0110  177.1890  144.6510 C   0  0  0  0  0  0  0  0  0  0  0  0
  191.3290  176.4860  144.4160 C   0  0  0  0  0  3  0  0  0  0  0  0
  181.1370  177.8510  141.0680 C   0  0  0  0  0  3  0  0  0  0  0  0
  183.8940  178.3120  141.3830 C   0  0  0  0  0  0  0  0  0  0  0  0
  183.4160  177.5080  140.3340 C   0  0  0  0  0  3  0  0  0  0  0  0
  182.0470  177.2760  140.1790 C   0  0  0  0  0  3  0  0  0  0  0  0
  181.5960  178.6580  142.1110 C   0  0  0  0  0  3  0  0  0  0  0  0
  182.9650  178.8900  142.2660 C   0  0  0  0  0  3  0  0  0  0  0  0
  1  7  1  0  0  0  0
  2 10  2  0  0  0  0
  2  4  1  0  0  0  0
  3 10  1  0  0  0  0
  4 12  1  0  0  0  0
  5  6  1  0  0  0  0
  6 11  1  0  0  0  0
  7  2  1  0  0  0  0
  8 20  1  0  0  0  0
  8 12  2  0  0  0  0
  9 15  1  0  0  0  0
  9  1  1  0  0  0  0
 10  8  1  0  0  0  0
 11 15  2  0  0  0  0
 13  6  2  0  0  0  0
 13 14  1  0  0  0  0
 14  9  2  0  0  0  0
 15  3  1  0  0  0  0
 16 21  2  0  0  0  0
 16 20  1  0  0  0  0
 17 18  2  0  0  0  0
 19 18  1  0  0  0  0
 20 19  2  0  0  0  0
 21 17  1  0  0  0  0
 22 26  1  0  0  0  0
 23  7  1  0  0  0  0
 23 27  1  0  0  0  0
 24 23  2  0  0  0  0
 25 24  1  0  0  0  0
 25 22  2  0  0  0  0
 26 27  2  0  0  0  0
M  END
>  <MODEL>
4

>  <REMARK>
 VINA RESULT:      -8.2      0.900      1.388
  Name = 
  2 active torsions:
  status: ('A' for Active; 'I' for Inactive)
    1  A    between atoms: C_9  and  N_15
    2  A    between atoms: C_14  and  C_17
                            x       y       z     vdW  Elec       q    Type
                         _______ _______ _______ _____ _____    ______ ____

>  <TORSDO>
F 2

$$$$
=
 OpenBabel11052413533D

 27 31  0  0  1  0  0  0  0  0999 V2000
  188.6680  178.8290  138.9370 C   0  0  0  0  0  2  0  0  0  0  0  0
  186.2350  178.2930  139.2970 C   0  0  0  0  0  0  0  0  0  0  0  0
  187.3770  178.8780  141.5530 C   0  0  0  0  0  2  0  0  0  0  0  0
  184.9860  178.0940  138.8330 N   0  0  0  0  0  0  0  0  0  0  0  0
  190.6220  175.5460  143.1370 O   0  0  0  0  0  1  0  0  0  0  0  0
  190.1490  176.3570  142.1150 C   0  0  0  0  0  0  0  0  0  0  0  0
  187.4100  178.2630  138.4520 N   0  0  0  0  0  0  0  0  0  0  0  0
  184.8820  178.4650  141.0410 C   0  0  0  0  0  0  0  0  0  0  0  0
  189.2040  177.9970  140.0550 C   0  0  0  0  0  0  0  0  0  0  0  0
  186.2160  178.5220  140.6680 C   0  0  1  0  0  3  0  0  0  0  0  0
  189.0400  177.1790  142.3320 C   0  0  0  0  0  3  0  0  0  0  0  0
  184.1560  178.1970  139.8910 C   0  0  0  0  0  3  0  0  0  0  0  0
  190.7830  176.3500  140.8680 C   0  0  0  0  0  3  0  0  0  0  0  0
  190.3080  177.1670  139.8370 C   0  0  0  0  0  3  0  0  0  0  0  0
  188.5610  177.9980  141.3040 C   0  0  0  0  0  0  0  0  0  0  0  0
  182.9110  178.8370  142.5290 C   0  0  0  0  0  3  0  0  0  0  0  0
  183.1510  178.9960  144.9320 C   0  0  0  0  0  3  0  0  0  0  0  0
  184.5290  178.8100  144.8050 C   0  0  0  0  0  3  0  0  0  0  0  0
  185.0970  178.6380  143.5400 C   0  0  0  0  0  3  0  0  0  0  0  0
  184.2950  178.6510  142.3890 C   0  0  0  0  0  0  0  0  0  0  0  0
  182.3410  179.0090  143.7930 C   0  0  0  0  0  3  0  0  0  0  0  0
  187.3010  176.4590  134.5970 C   0  0  0  0  0  3  0  0  0  0  0  0
  187.3910  177.6580  137.1400 C   0  0  0  0  0  0  0  0  0  0  0  0
  187.2460  178.4410  135.9820 C   0  0  0  0  0  3  0  0  0  0  0  0
  187.2050  177.8460  134.7190 C   0  0  0  0  0  3  0  0  0  0  0  0
  187.4370  175.6660  135.7390 C   0  0  0  0  0  3  0  0  0  0  0  0
  187.4780  176.2610  137.0020 C   0  0  0  0  0  3  0  0  0  0  0  0
  1  9  1  0  0  0  0
  2 10  1  0  0  0  0
  4  2  2  0  0  0  0
  4 12  1  0  0  0  0
  6 11  1  0  0  0  0
  6  5  1  0  0  0  0
  7  1  1  0  0  0  0
  7  2  1  0  0  0  0
  8 20  1  0  0  0  0
  9 15  1  0  0  0  0
 10  8  1  0  0  0  0
 10  3  1  6  0  0  0
 12  8  2  0  0  0  0
 13  6  2  0  0  0  0
 14  9  2  0  0  0  0
 14 13  1  0  0  0  0
 15  3  1  0  0  0  0
 15 11  2  0  0  0  0
 16 21  1  0  0  0  0
 18 17  1  0  0  0  0
 19 18  2  0  0  0  0
 20 16  2  0  0  0  0
 20 19  1  0  0  0  0
 21 17  2  0  0  0  0
 22 25  2  0  0  0  0
 22 26  1  0  0  0  0
 23  7  1  0  0  0  0
 24 23  2  0  0  0  0
 25 24  1  0  0  0  0
 26 27  2  0  0  0  0
 27 23  1  0  0  0  0
M  END
>  <MODEL>
5

>  <REMARK>
 VINA RESULT:      -8.0      2.791      5.742
  Name = 
  2 active torsions:
  status: ('A' for Active; 'I' for Inactive)
    1  A    between atoms: C_9  and  N_15
    2  A    between atoms: C_14  and  C_17
                            x       y       z     vdW  Elec       q    Type
                         _______ _______ _______ _____ _____    ______ ____

>  <TORSDO>
F 2

$$$$
=
 OpenBabel11052413533D

 27 31  0  0  0  0  0  0  0  0999 V2000
  187.8030  178.4750  137.6290 C   0  0  0  0  0  2  0  0  0  0  0  0
  187.2750  178.2310  140.0790 C   0  0  0  0  0  0  0  0  0  0  0  0
  189.7930  177.7750  139.6440 C   0  0  0  0  0  2  0  0  0  0  0  0
  186.4610  178.4110  141.1380 N   0  0  0  0  0  2  0  0  0  0  0  0
  190.7320  173.6330  137.1740 O   0  0  0  0  0  1  0  0  0  0  0  0
  190.0240  174.8220  137.2820 C   0  0  0  0  0  0  0  0  0  0  0  0
  186.8240  178.3260  138.7070 N   0  0  0  0  0  0  0  0  0  0  0  0
  188.5280  177.9690  141.8860 C   0  0  0  0  0  0  0  0  0  0  0  0
  188.6020  177.2220  137.4910 C   0  0  0  0  0  0  0  0  0  0  0  0
  188.5700  177.9490  140.5000 C   0  0  0  0  0  0  0  0  0  0  0  0
  190.2490  175.6710  138.3690 C   0  0  0  0  0  3  0  0  0  0  0  0
  187.2190  178.2530  142.2420 C   0  0  0  0  0  3  0  0  0  0  0  0
  189.0870  175.1680  136.3030 C   0  0  0  0  0  3  0  0  0  0  0  0
  188.3740  176.3660  136.4100 C   0  0  0  0  0  3  0  0  0  0  0  0
  189.5370  176.8710  138.4800 C   0  0  0  0  0  0  0  0  0  0  0  0
  190.0270  176.4340  143.1630 C   0  0  0  0  0  3  0  0  0  0  0  0
  191.7440  177.2840  144.6430 C   0  0  0  0  0  3  0  0  0  0  0  0
  191.3660  178.5910  144.3290 C   0  0  0  0  0  3  0  0  0  0  0  0
  190.3170  178.8190  143.4330 C   0  0  0  0  0  3  0  0  0  0  0  0
  189.6370  177.7440  142.8420 C   0  0  0  0  0  0  0  0  0  0  0  0
  191.0740  176.2040  144.0600 C   0  0  0  0  0  3  0  0  0  0  0  0
  182.6950  178.0470  137.7060 C   0  0  0  0  0  3  0  0  0  0  0  0
  185.4250  178.2470  138.3560 C   0  0  0  0  0  0  0  0  0  0  0  0
  184.4940  179.1630  138.8770 C   0  0  0  0  0  3  0  0  0  0  0  0
  183.1390  179.0660  138.5530 C   0  0  0  0  0  3  0  0  0  0  0  0
  183.6060  177.1250  137.1870 C   0  0  0  0  0  3  0  0  0  0  0  0
  184.9610  177.2220  137.5130 C   0  0  0  0  0  3  0  0  0  0  0  0
  1  7  1  0  0  0  0
  2 10  2  0  0  0  0
  2  4  1  0  0  0  0
  3 10  1  0  0  0  0
  4 12  1  0  0  0  0
  5  6  1  0  0  0  0
  6 11  1  0  0  0  0
  7  2  1  0  0  0  0
  8 12  2  0  0  0  0
  8 20  1  0  0  0  0
  9  1  1  0  0  0  0
  9 15  1  0  0  0  0
 10  8  1  0  0  0  0
 11 15  2  0  0  0  0
 13 14  1  0  0  0  0
 13  6  2  0  0  0  0
 14  9  2  0  0  0  0
 15  3  1  0  0  0  0
 16 21  1  0  0  0  0
 18 17  1  0  0  0  0
 19 18  2  0  0  0  0
 20 16  2  0  0  0  0
 20 19  1  0  0  0  0
 21 17  2  0  0  0  0
 22 25  1  0  0  0  0
 23  7  1  0  0  0  0
 23 24  1  0  0  0  0
 25 24  2  0  0  0  0
 26 27  1  0  0  0  0
 26 22  2  0  0  0  0
 27 23  2  0  0  0  0
M  END
>  <MODEL>
6

>  <REMARK>
 VINA RESULT:      -7.8      2.228      3.277
  Name = 
  2 active torsions:
  status: ('A' for Active; 'I' for Inactive)
    1  A    between atoms: C_9  and  N_15
    2  A    between atoms: C_14  and  C_17
                            x       y       z     vdW  Elec       q    Type
                         _______ _______ _______ _____ _____    ______ ____

>  <TORSDO>
F 2

$$$$
=
 OpenBabel11052413533D

 27 31  0  0  0  0  0  0  0  0999 V2000
  187.4590  176.4590  144.1000 C   0  0  0  0  0  2  0  0  0  0  0  0
  185.6220  178.0010  144.8660 C   0  0  0  0  0  0  0  0  0  0  0  0
  185.3300  177.4200  142.3520 C   0  0  0  0  0  2  0  0  0  0  0  0
  184.9130  178.6060  145.8390 N   0  0  0  0  0  2  0  0  0  0  0  0
  188.7360  179.3580  139.3890 O   0  0  0  0  0  1  0  0  0  0  0  0
  188.4220  178.6400  140.5350 C   0  0  0  0  0  0  0  0  0  0  0  0
  186.9170  177.3930  145.0870 N   0  0  0  0  0  0  0  0  0  0  0  0
  183.7500  178.7190  143.9260 C   0  0  0  0  0  0  0  0  0  0  0  0
  187.7930  177.1870  142.8410 C   0  0  0  0  0  0  0  0  0  0  0  0
  184.9360  178.0530  143.6570 C   0  0  0  0  0  0  0  0  0  0  0  0
  187.0850  178.4000  140.8630 C   0  0  0  0  0  3  0  0  0  0  0  0
  183.7710  179.0460  145.2730 C   0  0  0  0  0  3  0  0  0  0  0  0
  189.4440  178.1610  141.3600 C   0  0  0  0  0  3  0  0  0  0  0  0
  189.1290  177.4370  142.5140 C   0  0  0  0  0  3  0  0  0  0  0  0
  186.7650  177.6770  142.0180 C   0  0  0  0  0  0  0  0  0  0  0  0
  181.4200  179.5100  143.4970 C   0  0  0  0  0  3  0  0  0  0  0  0
  180.5290  179.6620  141.2520 C   0  0  0  0  0  3  0  0  0  0  0  0
  181.7400  179.1940  140.7400 C   0  0  0  0  0  3  0  0  0  0  0  0
  182.7920  178.8840  141.6080 C   0  0  0  0  0  3  0  0  0  0  0  0
  182.6430  179.0380  142.9940 C   0  0  0  0  0  0  0  0  0  0  0  0
  180.3680  179.8200  142.6310 C   0  0  0  0  0  3  0  0  0  0  0  0
  189.2500  178.2630  148.5410 C   0  0  0  0  0  3  0  0  0  0  0  0
  187.7160  177.7030  146.2500 C   0  0  0  0  0  0  0  0  0  0  0  0
  189.1050  177.4910  146.2530 C   0  0  0  0  0  3  0  0  0  0  0  0
  189.8680  177.7720  147.3890 C   0  0  0  0  0  3  0  0  0  0  0  0
  187.8690  178.4710  148.5570 C   0  0  0  0  0  3  0  0  0  0  0  0
  187.1070  178.1900  147.4200 C   0  0  0  0  0  3  0  0  0  0  0  0
  1  7  1  0  0  0  0
  2  7  1  0  0  0  0
  2  4  1  0  0  0  0
  3 10  1  0  0  0  0
  5  6  1  0  0  0  0
  6 11  2  0  0  0  0
  6 13  1  0  0  0  0
  7 23  1  0  0  0  0
  8 12  2  0  0  0  0
  9  1  1  0  0  0  0
 10  8  1  0  0  0  0
 10  2  2  0  0  0  0
 11 15  1  0  0  0  0
 12  4  1  0  0  0  0
 13 14  2  0  0  0  0
 14  9  1  0  0  0  0
 15  3  1  0  0  0  0
 15  9  2  0  0  0  0
 17 21  1  0  0  0  0
 18 17  2  0  0  0  0
 18 19  1  0  0  0  0
 19 20  2  0  0  0  0
 20 16  1  0  0  0  0
 20  8  1  0  0  0  0
 21 16  2  0  0  0  0
 22 26  1  0  0  0  0
 23 24  2  0  0  0  0
 23 27  1  0  0  0  0
 24 25  1  0  0  0  0
 25 22  2  0  0  0  0
 27 26  2  0  0  0  0
M  END
>  <MODEL>
7

>  <REMARK>
 VINA RESULT:      -7.7      1.875      6.718
  Name = 
  2 active torsions:
  status: ('A' for Active; 'I' for Inactive)
    1  A    between atoms: C_9  and  N_15
    2  A    between atoms: C_14  and  C_17
                            x       y       z     vdW  Elec       q    Type
                         _______ _______ _______ _____ _____    ______ ____

>  <TORSDO>
F 2

$$$$
=
 OpenBabel11052413533D

 27 31  0  0  0  0  0  0  0  0999 V2000
  185.1310  179.1690  139.3510 C   0  0  0  0  0  2  0  0  0  0  0  0
  185.4010  178.2080  141.6620 C   0  0  0  0  0  0  0  0  0  0  0  0
  187.7220  178.6290  140.5780 C   0  0  0  0  0  2  0  0  0  0  0  0
  184.9090  177.8850  142.8750 N   0  0  0  0  0  2  0  0  0  0  0  0
  188.8020  175.6550  136.8200 O   0  0  0  0  0  1  0  0  0  0  0  0
  187.9100  176.5220  137.4350 C   0  0  0  0  0  0  0  0  0  0  0  0
  184.5640  178.4880  140.5150 N   0  0  0  0  0  0  0  0  0  0  0  0
  187.1480  177.9070  142.9890 C   0  0  0  0  0  0  0  0  0  0  0  0
  186.1140  178.2770  138.6680 C   0  0  0  0  0  0  0  0  0  0  0  0
  186.7910  178.2280  141.6880 C   0  0  0  0  0  0  0  0  0  0  0  0
  188.2440  177.1180  138.6550 C   0  0  0  0  0  3  0  0  0  0  0  0
  185.9690  177.7000  143.6870 C   0  0  0  0  0  3  0  0  0  0  0  0
  186.6780  176.7980  136.8350 C   0  0  0  0  0  3  0  0  0  0  0  0
  185.7780  177.6720  137.4530 C   0  0  0  0  0  3  0  0  0  0  0  0
  187.3470  177.9930  139.2770 C   0  0  0  0  0  0  0  0  0  0  0  0
  188.6860  177.9170  144.9560 C   0  0  0  0  0  3  0  0  0  0  0  0
  191.0700  177.5870  144.7000 C   0  0  0  0  0  3  0  0  0  0  0  0
  190.9040  177.4670  143.3200 C   0  0  0  0  0  3  0  0  0  0  0  0
  189.6290  177.5730  142.7570 C   0  0  0  0  0  3  0  0  0  0  0  0
  188.5080  177.7990  143.5690 C   0  0  0  0  0  0  0  0  0  0  0  0
  189.9610  177.8120  145.5200 C   0  0  0  0  0  3  0  0  0  0  0  0
  180.4870  177.2620  140.4100 C   0  0  0  0  0  3  0  0  0  0  0  0
  183.1770  178.0860  140.4670 C   0  0  0  0  0  0  0  0  0  0  0  0
  182.1760  178.8600  141.0810 C   0  0  0  0  0  3  0  0  0  0  0  0
  180.8400  178.4530  141.0500 C   0  0  0  0  0  3  0  0  0  0  0  0
  181.4710  176.4790  139.8030 C   0  0  0  0  0  3  0  0  0  0  0  0
  182.8080  176.8870  139.8340 C   0  0  0  0  0  3  0  0  0  0  0  0
  1  7  1  0  0  0  0
  2 10  2  0  0  0  0
  2  4  1  0  0  0  0
  3 10  1  0  0  0  0
  4 12  1  0  0  0  0
  5  6  1  0  0  0  0
  6 11  1  0  0  0  0
  7  2  1  0  0  0  0
  8 20  1  0  0  0  0
  8 12  2  0  0  0  0
  9 15  1  0  0  0  0
  9  1  1  0  0  0  0
 10  8  1  0  0  0  0
 11 15  2  0  0  0  0
 13  6  2  0  0  0  0
 13 14  1  0  0  0  0
 14  9  2  0  0  0  0
 15  3  1  0  0  0  0
 16 21  1  0  0  0  0
 17 21  2  0  0  0  0
 18 17  1  0  0  0  0
 19 18  2  0  0  0  0
 19 20  1  0  0  0  0
 20 16  2  0  0  0  0
 22 25  1  0  0  0  0
 23  7  1  0  0  0  0
 23 24  1  0  0  0  0
 25 24  2  0  0  0  0
 26 27  1  0  0  0  0
 26 22  2  0  0  0  0
 27 23  2  0  0  0  0
M  END
>  <MODEL>
8

>  <REMARK>
 VINA RESULT:      -7.6      1.466      2.427
  Name = 
  2 active torsions:
  status: ('A' for Active; 'I' for Inactive)
    1  A    between atoms: C_9  and  N_15
    2  A    between atoms: C_14  and  C_17
                            x       y       z     vdW  Elec       q    Type
                         _______ _______ _______ _____ _____    ______ ____

>  <TORSDO>
F 2

$$$$
=
 OpenBabel11052413533D

 27 31  0  0  0  0  0  0  0  0999 V2000
  183.7400  179.1630  140.6050 C   0  0  0  0  0  2  0  0  0  0  0  0
  186.1800  178.5570  140.7410 C   0  0  0  0  0  0  0  0  0  0  0  0
  185.3010  178.2410  138.3190 C   0  0  0  0  0  2  0  0  0  0  0  0
  187.3670  178.5610  141.3800 N   0  0  0  0  0  2  0  0  0  0  0  0
  182.1390  174.5230  137.7520 O   0  0  0  0  0  1  0  0  0  0  0  0
  182.5260  175.6640  138.4420 C   0  0  0  0  0  0  0  0  0  0  0  0
  184.9220  178.8340  141.4020 N   0  0  0  0  0  0  0  0  0  0  0  0
  187.7140  178.0770  139.2180 C   0  0  0  0  0  0  0  0  0  0  0  0
  183.3000  177.9670  139.8290 C   0  0  0  0  0  0  0  0  0  0  0  0
  186.3510  178.2550  139.3940 C   0  0  0  0  0  0  0  0  0  0  0  0
  183.6780  176.3550  138.0560 C   0  0  0  0  0  3  0  0  0  0  0  0
  188.3060  178.2680  140.4570 C   0  0  0  0  0  3  0  0  0  0  0  0
  181.7650  176.1180  139.5230 C   0  0  0  0  0  3  0  0  0  0  0  0
  182.1540  177.2670  140.2190 C   0  0  0  0  0  3  0  0  0  0  0  0
  184.0710  177.5050  138.7490 C   0  0  0  0  0  0  0  0  0  0  0  0
  189.2310  176.5880  137.9070 C   0  0  0  0  0  3  0  0  0  0  0  0
  189.8350  177.0950  135.6190 C   0  0  0  0  0  3  0  0  0  0  0  0
  189.0560  178.2520  135.6720 C   0  0  0  0  0  3  0  0  0  0  0  0
  188.3650  178.5770  136.8420 C   0  0  0  0  0  3  0  0  0  0  0  0
  188.4450  177.7490  137.9720 C   0  0  0  0  0  0  0  0  0  0  0  0
  189.9230  176.2610  136.7380 C   0  0  0  0  0  3  0  0  0  0  0  0
  184.4810  178.5870  145.6290 C   0  0  0  0  0  3  0  0  0  0  0  0
  184.7840  178.7660  142.8380 C   0  0  0  0  0  0  0  0  0  0  0  0
  185.8500  178.3410  143.6500 C   0  0  0  0  0  3  0  0  0  0  0  0
  185.7010  178.2540  145.0360 C   0  0  0  0  0  3  0  0  0  0  0  0
  183.4100  179.0030  144.8350 C   0  0  0  0  0  3  0  0  0  0  0  0
  183.5590  179.0880  143.4490 C   0  0  0  0  0  3  0  0  0  0  0  0
  1  7  1  0  0  0  0
  2  4  1  0  0  0  0
  2  7  1  0  0  0  0
  3 15  1  0  0  0  0
  3 10  1  0  0  0  0
  5  6  1  0  0  0  0
  6 13  1  0  0  0  0
  7 23  1  0  0  0  0
  8 10  1  0  0  0  0
  8 12  2  0  0  0  0
  9 14  1  0  0  0  0
  9  1  1  0  0  0  0
 10  2  2  0  0  0  0
 11  6  2  0  0  0  0
 11 15  1  0  0  0  0
 12  4  1  0  0  0  0
 13 14  2  0  0  0  0
 15  9  2  0  0  0  0
 16 20  1  0  0  0  0
 17 18  2  0  0  0  0
 17 21  1  0  0  0  0
 18 19  1  0  0  0  0
 19 20  2  0  0  0  0
 20  8  1  0  0  0  0
 21 16  2  0  0  0  0
 23 27  2  0  0  0  0
 23 24  1  0  0  0  0
 24 25  2  0  0  0  0
 25 22  1  0  0  0  0
 26 22  2  0  0  0  0
 27 26  1  0  0  0  0
M  END
>  <MODEL>
9

>  <REMARK>
 VINA RESULT:      -7.4      3.337      6.334
  Name = 
  2 active torsions:
  status: ('A' for Active; 'I' for Inactive)
    1  A    between atoms: C_9  and  N_15
    2  A    between atoms: C_14  and  C_17
                            x       y       z     vdW  Elec       q    Type
                         _______ _______ _______ _____ _____    ______ ____

>  <TORSDO>
F 2

$$$$
