=
 OpenBabel11052414173D

 34 40  0  0  1  0  0  0  0  0999 V2000
  189.8320  176.9030  140.3170 C   0  0  0  0  0  0  0  0  0  0  0  0
  187.8880  178.2530  139.7350 C   0  0  0  0  0  0  0  0  0  0  0  0
  188.1640  177.4260  142.0030 C   0  0  0  0  0  0  0  0  0  0  0  0
  186.5190  178.0660  143.8240 C   0  0  1  0  0  3  0  0  0  0  0  0
  189.5150  177.6640  138.0380 C   0  0  0  0  0  3  0  0  0  0  0  0
  188.3280  178.3060  138.4090 C   0  0  0  0  0  3  0  0  0  0  0  0
  186.4170  179.1330  141.5040 C   0  0  0  0  0  2  0  0  0  0  0  0
  188.6260  177.5290  140.6840 C   0  0  0  0  0  0  0  0  0  0  0  0
  190.2700  176.9680  138.9910 C   0  0  0  0  0  3  0  0  0  0  0  0
  188.9500  176.7490  142.9570 C   0  0  0  0  0  0  0  0  0  0  0  0
  190.5560  176.2300  141.2500 N   0  0  0  0  0  0  0  0  0  0  0  0
  186.7210  178.9220  140.1230 O   0  0  0  0  0  0  0  0  0  0  0  0
  187.0370  176.8380  144.5670 C   0  0  0  0  0  2  0  0  0  0  0  0
  188.5570  176.7110  144.4150 C   0  0  2  0  0  3  0  0  0  0  0  0
  186.7520  177.8790  142.3190 C   0  0  1  0  0  3  0  0  0  0  0  0
  190.1480  176.1490  142.5460 C   0  0  0  0  0  3  0  0  0  0  0  0
  190.7430  177.6330  145.3280 C   0  0  0  0  0  0  0  0  0  0  0  0
  191.3050  176.8720  146.8270 S   0  0  0  0  0  0  0  0  0  0  0  0
  188.7330  177.8940  146.6910 C   0  0  1  0  0  3  0  0  0  0  0  0
  189.8290  177.5030  147.6860 C   0  0  1  0  0  3  0  0  0  0  0  0
  189.2670  177.8000  145.2530 C   0  0  2  0  0  3  0  0  0  0  0  0
  188.6820  176.5550  147.4120 C   0  0  0  0  0  2  0  0  0  0  0  0
  191.5240  178.5190  144.7180 C   0  0  0  0  0  2  0  0  0  0  0  0
  185.0380  178.2240  144.1450 C   0  0  0  0  0  2  0  0  0  0  0  0
  184.7490  179.5380  144.5230 O   0  0  0  0  0  0  0  0  0  0  0  0
  183.5460  179.8080  143.9610 N   0  0  0  0  0  2  0  0  0  0  0  0
  182.6390  178.7520  144.3770 C   0  0  0  0  0  2  0  0  0  0  0  0
  179.6810  177.3060  144.3440 O   0  0  0  0  0  1  0  0  0  0  0  0
  181.4170  178.7380  143.4780 C   0  0  1  0  0  3  0  0  0  0  0  0
  180.1440  178.6240  144.3330 C   0  0  1  0  0  3  0  0  0  0  0  0
  178.9860  179.4090  142.4970 C   0  0  0  0  0  2  0  0  0  0  0  0
  180.3070  179.7530  141.7830 C   0  0  0  0  0  2  0  0  0  0  0  0
  181.3680  179.9100  142.6990 O   0  0  0  0  0  0  0  0  0  0  0  0
  179.1250  179.5070  143.8990 O   0  0  0  0  0  0  0  0  0  0  0  0
  1  8  2  0  0  0  0
  1 11  1  0  0  0  0
  2 12  1  0  0  0  0
  2  8  1  0  0  0  0
  3 15  1  0  0  0  0
  3 10  2  0  0  0  0
  4 24  1  6  0  0  0
  4 13  1  0  0  0  0
  5  6  1  0  0  0  0
  5  9  2  0  0  0  0
  6  2  2  0  0  0  0
  8  3  1  0  0  0  0
  9  1  1  0  0  0  0
 10 14  1  0  0  0  0
 11 16  2  0  0  0  0
 12  7  1  0  0  0  0
 14 13  1  6  0  0  0
 14 21  1  0  0  0  0
 15  7  1  6  0  0  0
 15  4  1  0  0  0  0
 16 10  1  0  0  0  0
 17 18  1  0  0  0  0
 18 20  1  0  0  0  0
 19 22  1  6  0  0  0
 19 20  1  0  0  0  0
 20 22  1  1  0  0  0
 21 17  1  1  0  0  0
 21 19  1  0  0  0  0
 23 17  2  0  0  0  0
 24 25  1  0  0  0  0
 26 27  1  0  0  0  0
 26 25  1  0  0  0  0
 29 30  1  0  0  0  0
 29 27  1  1  0  0  0
 30 28  1  6  0  0  0
 31 34  1  0  0  0  0
 32 31  1  0  0  0  0
 32 33  1  0  0  0  0
 33 29  1  0  0  0  0
 34 30  1  0  0  0  0
M  END
>  <MODEL>
1

>  <REMARK>
 VINA RESULT:      -9.7      0.000      0.000
  Name = 
  6 active torsions:
  status: ('A' for Active; 'I' for Inactive)
    1  A    between atoms: C_3  and  C_13
    2  A    between atoms: C_3  and  N_17
    3  A    between atoms: C_5  and  C_18
    4  A    between atoms: N_17  and  O_29
    5  A    between atoms: C_18  and  O_29
    6  A    between atoms: C_23  and  C_28
                            x       y       z     vdW  Elec       q    Type
                         _______ _______ _______ _____ _____    ______ ____

>  <TORSDO>
F 6

$$$$
=
 OpenBabel11052414173D

 34 40  0  0  1  0  0  0  0  0999 V2000
  189.8620  176.8620  140.3110 C   0  0  0  0  0  0  0  0  0  0  0  0
  187.9280  178.2220  139.7210 C   0  0  0  0  0  0  0  0  0  0  0  0
  188.1940  177.4020  141.9930 C   0  0  0  0  0  0  0  0  0  0  0  0
  186.5510  178.0590  143.8080 C   0  0  1  0  0  3  0  0  0  0  0  0
  189.5540  177.6170  138.0290 C   0  0  0  0  0  3  0  0  0  0  0  0
  188.3700  178.2680  138.3960 C   0  0  0  0  0  3  0  0  0  0  0  0
  186.4590  179.1170  141.4850 C   0  0  0  0  0  2  0  0  0  0  0  0
  188.6590  177.4970  140.6740 C   0  0  0  0  0  0  0  0  0  0  0  0
  190.3020  176.9190  138.9860 C   0  0  0  0  0  3  0  0  0  0  0  0
  188.9750  176.7240  142.9500 C   0  0  0  0  0  0  0  0  0  0  0  0
  190.5800  176.1880  141.2480 N   0  0  0  0  0  0  0  0  0  0  0  0
  186.7640  178.9000  140.1050 O   0  0  0  0  0  0  0  0  0  0  0  0
  187.0600  176.8300  144.5570 C   0  0  0  0  0  2  0  0  0  0  0  0
  188.5800  176.6940  144.4080 C   0  0  2  0  0  3  0  0  0  0  0  0
  186.7850  177.8650  142.3050 C   0  0  1  0  0  3  0  0  0  0  0  0
  190.1700  176.1140  142.5430 C   0  0  0  0  0  3  0  0  0  0  0  0
  190.7680  177.5990  145.3290 C   0  0  0  0  0  0  0  0  0  0  0  0
  191.3120  176.8440  146.8380 S   0  0  0  0  0  0  0  0  0  0  0  0
  188.7520  177.8900  146.6770 C   0  0  1  0  0  3  0  0  0  0  0  0
  189.8370  177.4960  147.6810 C   0  0  1  0  0  3  0  0  0  0  0  0
  189.2950  177.7810  145.2430 C   0  0  2  0  0  3  0  0  0  0  0  0
  188.6830  176.5580  147.4070 C   0  0  0  0  0  2  0  0  0  0  0  0
  191.5620  178.4730  144.7190 C   0  0  0  0  0  2  0  0  0  0  0  0
  185.0700  178.2270  144.1260 C   0  0  0  0  0  2  0  0  0  0  0  0
  184.7940  179.5380  144.5280 O   0  0  0  0  0  0  0  0  0  0  0  0
  183.4450  179.6440  144.4700 N   0  0  0  0  0  2  0  0  0  0  0  0
  183.0160  178.9460  143.2720 C   0  0  0  0  0  2  0  0  0  0  0  0
  181.0390  179.6070  140.7220 O   0  0  0  0  0  1  0  0  0  0  0  0
  181.5330  179.1760  143.0420 C   0  0  1  0  0  3  0  0  0  0  0  0
  181.1210  178.5930  141.6810 C   0  0  1  0  0  3  0  0  0  0  0  0
  178.9470  178.6380  142.4550 C   0  0  0  0  0  2  0  0  0  0  0  0
  179.4380  178.9650  143.8790 C   0  0  0  0  0  2  0  0  0  0  0  0
  180.7800  178.5750  144.0690 O   0  0  0  0  0  0  0  0  0  0  0  0
  179.9030  177.8730  141.7510 O   0  0  0  0  0  0  0  0  0  0  0  0
  1  8  2  0  0  0  0
  1 11  1  0  0  0  0
  2 12  1  0  0  0  0
  2  8  1  0  0  0  0
  3 15  1  0  0  0  0
  3 10  2  0  0  0  0
  4 24  1  6  0  0  0
  4 13  1  0  0  0  0
  5  6  1  0  0  0  0
  5  9  2  0  0  0  0
  6  2  2  0  0  0  0
  8  3  1  0  0  0  0
  9  1  1  0  0  0  0
 10 14  1  0  0  0  0
 11 16  2  0  0  0  0
 12  7  1  0  0  0  0
 14 13  1  6  0  0  0
 14 21  1  0  0  0  0
 15  7  1  6  0  0  0
 15  4  1  0  0  0  0
 16 10  1  0  0  0  0
 17 18  1  0  0  0  0
 18 20  1  0  0  0  0
 19 22  1  6  0  0  0
 19 20  1  0  0  0  0
 20 22  1  1  0  0  0
 21 17  1  1  0  0  0
 21 19  1  0  0  0  0
 23 17  2  0  0  0  0
 24 25  1  0  0  0  0
 26 25  1  0  0  0  0
 27 26  1  0  0  0  0
 29 27  1  1  0  0  0
 29 33  1  0  0  0  0
 30 28  1  6  0  0  0
 30 34  1  0  0  0  0
 30 29  1  0  0  0  0
 31 32  1  0  0  0  0
 32 33  1  0  0  0  0
 34 31  1  0  0  0  0
M  END
>  <MODEL>
2

>  <REMARK>
 VINA RESULT:      -9.6      0.761      1.196
  Name = 
  6 active torsions:
  status: ('A' for Active; 'I' for Inactive)
    1  A    between atoms: C_3  and  C_13
    2  A    between atoms: C_3  and  N_17
    3  A    between atoms: C_5  and  C_18
    4  A    between atoms: N_17  and  O_29
    5  A    between atoms: C_18  and  O_29
    6  A    between atoms: C_23  and  C_28
                            x       y       z     vdW  Elec       q    Type
                         _______ _______ _______ _____ _____    ______ ____

>  <TORSDO>
F 6

$$$$
=
 OpenBabel11052414173D

 34 40  0  0  1  0  0  0  0  0999 V2000
  189.8340  176.7430  140.5270 C   0  0  0  0  0  0  0  0  0  0  0  0
  188.0060  178.1800  139.7980 C   0  0  0  0  0  0  0  0  0  0  0  0
  188.1130  177.4180  142.1030 C   0  0  0  0  0  0  0  0  0  0  0  0
  186.4150  178.2140  143.8090 C   0  0  1  0  0  3  0  0  0  0  0  0
  189.6830  177.4410  138.2120 C   0  0  0  0  0  3  0  0  0  0  0  0
  188.5180  178.1630  138.4970 C   0  0  0  0  0  3  0  0  0  0  0  0
  186.4980  179.2040  141.4550 C   0  0  0  0  0  2  0  0  0  0  0  0
  188.6490  177.4490  140.8080 C   0  0  0  0  0  0  0  0  0  0  0  0
  190.3440  176.7370  139.2260 C   0  0  0  0  0  3  0  0  0  0  0  0
  188.8060  176.7320  143.1190 C   0  0  0  0  0  0  0  0  0  0  0  0
  190.4660  176.0620  141.5190 N   0  0  0  0  0  0  0  0  0  0  0  0
  186.8620  178.9280  140.1000 O   0  0  0  0  0  0  0  0  0  0  0  0
  186.8200  176.9850  144.6190 C   0  0  0  0  0  2  0  0  0  0  0  0
  188.3360  176.7670  144.5540 C   0  0  2  0  0  3  0  0  0  0  0  0
  186.7150  177.9620  142.3270 C   0  0  1  0  0  3  0  0  0  0  0  0
  189.9870  176.0490  142.7930 C   0  0  0  0  0  3  0  0  0  0  0  0
  190.5380  177.6660  145.4460 C   0  0  0  0  0  0  0  0  0  0  0  0
  191.1180  176.8840  146.9270 S   0  0  0  0  0  0  0  0  0  0  0  0
  188.5510  177.9200  146.8410 C   0  0  1  0  0  3  0  0  0  0  0  0
  189.6590  177.5120  147.8150 C   0  0  1  0  0  3  0  0  0  0  0  0
  189.0630  177.8420  145.3940 C   0  0  2  0  0  3  0  0  0  0  0  0
  188.5030  176.5730  147.5470 C   0  0  0  0  0  2  0  0  0  0  0  0
  191.3150  178.5560  144.8360 C   0  0  0  0  0  2  0  0  0  0  0  0
  184.9300  178.4670  144.0440 C   0  0  0  0  0  2  0  0  0  0  0  0
  184.1880  178.1620  142.8990 O   0  0  0  0  0  0  0  0  0  0  0  0
  183.1180  178.9920  142.9440 N   0  0  0  0  0  2  0  0  0  0  0  0
  182.1680  178.5110  141.9570 C   0  0  0  0  0  2  0  0  0  0  0  0
  182.5950  176.0110  139.8550 O   0  0  0  0  0  1  0  0  0  0  0  0
  182.8740  178.2770  140.6330 C   0  0  1  0  0  3  0  0  0  0  0  0
  182.0560  177.2980  139.7750 C   0  0  1  0  0  3  0  0  0  0  0  0
  183.2460  178.0860  137.9600 C   0  0  0  0  0  2  0  0  0  0  0  0
  183.8390  179.2220  138.8140 C   0  0  0  0  0  2  0  0  0  0  0  0
  183.0410  179.4940  139.9450 O   0  0  0  0  0  0  0  0  0  0  0  0
  181.9640  177.7160  138.4240 O   0  0  0  0  0  0  0  0  0  0  0  0
  1  8  2  0  0  0  0
  1 11  1  0  0  0  0
  2 12  1  0  0  0  0
  2  8  1  0  0  0  0
  3 15  1  0  0  0  0
  3 10  2  0  0  0  0
  4 24  1  6  0  0  0
  4 13  1  0  0  0  0
  5  6  1  0  0  0  0
  5  9  2  0  0  0  0
  6  2  2  0  0  0  0
  8  3  1  0  0  0  0
  9  1  1  0  0  0  0
 10 14  1  0  0  0  0
 11 16  2  0  0  0  0
 12  7  1  0  0  0  0
 14 13  1  6  0  0  0
 14 21  1  0  0  0  0
 15  7  1  6  0  0  0
 15  4  1  0  0  0  0
 16 10  1  0  0  0  0
 17 18  1  0  0  0  0
 18 20  1  0  0  0  0
 19 22  1  6  0  0  0
 19 20  1  0  0  0  0
 20 22  1  1  0  0  0
 21 17  1  1  0  0  0
 21 19  1  0  0  0  0
 23 17  2  0  0  0  0
 25 26  1  0  0  0  0
 25 24  1  0  0  0  0
 27 26  1  0  0  0  0
 29 27  1  1  0  0  0
 30 28  1  6  0  0  0
 30 29  1  0  0  0  0
 31 34  1  0  0  0  0
 31 32  1  0  0  0  0
 32 33  1  0  0  0  0
 33 29  1  0  0  0  0
 34 30  1  0  0  0  0
M  END
>  <MODEL>
3

>  <REMARK>
 VINA RESULT:      -9.0      1.960      2.395
  Name = 
  6 active torsions:
  status: ('A' for Active; 'I' for Inactive)
    1  A    between atoms: C_3  and  C_13
    2  A    between atoms: C_3  and  N_17
    3  A    between atoms: C_5  and  C_18
    4  A    between atoms: N_17  and  O_29
    5  A    between atoms: C_18  and  O_29
    6  A    between atoms: C_23  and  C_28
                            x       y       z     vdW  Elec       q    Type
                         _______ _______ _______ _____ _____    ______ ____

>  <TORSDO>
F 6

$$$$
=
 OpenBabel11052414173D

 34 40  0  0  1  0  0  0  0  0999 V2000
  185.6670  178.6250  139.5420 C   0  0  0  0  0  0  0  0  0  0  0  0
  186.3110  177.2980  137.6020 C   0  0  0  0  0  0  0  0  0  0  0  0
  187.9140  177.7160  139.3800 C   0  0  0  0  0  0  0  0  0  0  0  0
  190.2220  176.6690  139.3150 C   0  0  1  0  0  3  0  0  0  0  0  0
  184.0950  178.2710  137.7310 C   0  0  0  0  0  3  0  0  0  0  0  0
  185.0470  177.5090  137.0440 C   0  0  0  0  0  3  0  0  0  0  0  0
  188.4260  176.0350  137.6120 C   0  0  0  0  0  2  0  0  0  0  0  0
  186.6310  177.8780  138.8390 C   0  0  0  0  0  0  0  0  0  0  0  0
  184.4020  178.8240  138.9810 C   0  0  0  0  0  3  0  0  0  0  0  0
  188.1970  178.2520  140.6520 C   0  0  0  0  0  0  0  0  0  0  0  0
  185.9760  179.1570  140.7540 N   0  0  0  0  0  0  0  0  0  0  0  0
  187.2570  176.5070  136.9380 O   0  0  0  0  0  0  0  0  0  0  0  0
  190.6260  177.7700  140.2930 C   0  0  0  0  0  2  0  0  0  0  0  0
  189.5230  178.0050  141.3320 C   0  0  2  0  0  3  0  0  0  0  0  0
  189.0080  177.1370  138.5040 C   0  0  1  0  0  3  0  0  0  0  0  0
  187.2020  178.9810  141.3180 C   0  0  0  0  0  3  0  0  0  0  0  0
  188.6030  177.0700  143.5080 C   0  0  0  0  0  0  0  0  0  0  0  0
  189.4880  177.5600  144.9640 S   0  0  0  0  0  0  0  0  0  0  0  0
  190.8600  176.4160  142.8470 C   0  0  1  0  0  3  0  0  0  0  0  0
  190.9570  176.6770  144.3520 C   0  0  1  0  0  3  0  0  0  0  0  0
  189.4720  176.8230  142.3280 C   0  0  2  0  0  3  0  0  0  0  0  0
  191.6800  177.5820  143.3790 C   0  0  0  0  0  2  0  0  0  0  0  0
  187.4780  176.3740  143.6370 C   0  0  0  0  0  2  0  0  0  0  0  0
  191.4160  176.3760  138.4140 C   0  0  0  0  0  2  0  0  0  0  0  0
  192.5940  176.8820  138.9710 O   0  0  0  0  0  0  0  0  0  0  0  0
  193.5350  176.7150  138.0100 N   0  0  0  0  0  2  0  0  0  0  0  0
  193.5150  175.3120  137.6380 C   0  0  0  0  0  2  0  0  0  0  0  0
  195.8770  173.6870  136.0170 O   0  0  0  0  0  1  0  0  0  0  0  0
  194.8520  174.6720  137.9650 C   0  0  1  0  0  3  0  0  0  0  0  0
  195.8180  174.8540  136.7820 C   0  0  1  0  0  3  0  0  0  0  0  0
  197.5280  174.4110  138.2680 C   0  0  0  0  0  2  0  0  0  0  0  0
  196.5510  174.5040  139.4550 C   0  0  0  0  0  2  0  0  0  0  0  0
  195.4010  175.2500  139.1250 O   0  0  0  0  0  0  0  0  0  0  0  0
  197.1150  175.2410  137.2020 O   0  0  0  0  0  0  0  0  0  0  0  0
  1 11  1  0  0  0  0
  2  8  1  0  0  0  0
  3 10  2  0  0  0  0
  4 24  1  6  0  0  0
  4 13  1  0  0  0  0
  5  9  2  0  0  0  0
  6  2  2  0  0  0  0
  6  5  1  0  0  0  0
  8  3  1  0  0  0  0
  8  1  2  0  0  0  0
  9  1  1  0  0  0  0
 10 16  1  0  0  0  0
 10 14  1  0  0  0  0
 11 16  2  0  0  0  0
 12  2  1  0  0  0  0
 12  7  1  0  0  0  0
 14 13  1  6  0  0  0
 14 21  1  0  0  0  0
 15  7  1  1  0  0  0
 15  4  1  0  0  0  0
 15  3  1  0  0  0  0
 17 23  2  0  0  0  0
 17 18  1  0  0  0  0
 19 22  1  6  0  0  0
 19 20  1  0  0  0  0
 20 22  1  6  0  0  0
 20 18  1  0  0  0  0
 21 19  1  0  0  0  0
 21 17  1  1  0  0  0
 24 25  1  0  0  0  0
 26 25  1  0  0  0  0
 27 26  1  0  0  0  0
 29 27  1  6  0  0  0
 29 33  1  0  0  0  0
 30 28  1  1  0  0  0
 30 34  1  0  0  0  0
 30 29  1  0  0  0  0
 31 32  1  0  0  0  0
 33 32  1  0  0  0  0
 34 31  1  0  0  0  0
M  END
>  <MODEL>
4

>  <REMARK>
 VINA RESULT:      -7.8      4.570      9.581
  Name = 
  6 active torsions:
  status: ('A' for Active; 'I' for Inactive)
    1  A    between atoms: C_3  and  C_13
    2  A    between atoms: C_3  and  N_17
    3  A    between atoms: C_5  and  C_18
    4  A    between atoms: N_17  and  O_29
    5  A    between atoms: C_18  and  O_29
    6  A    between atoms: C_23  and  C_28
                            x       y       z     vdW  Elec       q    Type
                         _______ _______ _______ _____ _____    ______ ____

>  <TORSDO>
F 6

$$$$
=
 OpenBabel11052414173D

 34 40  0  0  1  0  0  0  0  0999 V2000
  187.8330  177.3980  146.2410 C   0  0  0  0  0  0  0  0  0  0  0  0
  190.2210  177.8210  146.4830 C   0  0  0  0  0  0  0  0  0  0  0  0
  189.2800  177.3550  144.2910 C   0  0  0  0  0  0  0  0  0  0  0  0
  190.7320  177.4400  142.2140 C   0  0  1  0  0  3  0  0  0  0  0  0
  188.7850  177.7860  148.4360 C   0  0  0  0  0  3  0  0  0  0  0  0
  190.0560  177.9360  147.8660 C   0  0  0  0  0  3  0  0  0  0  0  0
  191.6210  178.1890  144.4900 C   0  0  0  0  0  2  0  0  0  0  0  0
  189.1140  177.5260  145.6720 C   0  0  0  0  0  0  0  0  0  0  0  0
  187.6740  177.5230  147.6250 C   0  0  0  0  0  3  0  0  0  0  0  0
  188.1480  177.1230  143.4850 C   0  0  0  0  0  0  0  0  0  0  0  0
  186.7620  177.1430  145.4450 N   0  0  0  0  0  0  0  0  0  0  0  0
  191.4810  178.0050  145.9010 O   0  0  0  0  0  0  0  0  0  0  0  0
  189.6530  176.5800  141.5620 C   0  0  0  0  0  2  0  0  0  0  0  0
  188.2560  177.0510  141.9800 C   0  0  2  0  0  3  0  0  0  0  0  0
  190.6850  177.2390  143.7340 C   0  0  1  0  0  3  0  0  0  0  0  0
  186.8910  177.0120  144.0960 C   0  0  0  0  0  3  0  0  0  0  0  0
  186.4730  178.5810  141.0120 C   0  0  0  0  0  0  0  0  0  0  0  0
  186.0130  178.2260  139.3380 S   0  0  0  0  0  0  0  0  0  0  0  0
  188.6830  178.6010  139.9740 C   0  0  1  0  0  3  0  0  0  0  0  0
  187.7020  178.6380  138.8000 C   0  0  1  0  0  3  0  0  0  0  0  0
  187.9210  178.3950  141.2930 C   0  0  2  0  0  3  0  0  0  0  0  0
  188.5770  177.4230  139.0170 C   0  0  0  0  0  2  0  0  0  0  0  0
  185.8000  179.5090  141.6870 C   0  0  0  0  0  2  0  0  0  0  0  0
  192.0810  177.0270  141.6370 C   0  0  0  0  0  2  0  0  0  0  0  0
  192.4220  177.8320  140.5470 O   0  0  0  0  0  0  0  0  0  0  0  0
  193.3800  177.1380  139.8860 N   0  0  0  0  0  2  0  0  0  0  0  0
  192.8130  176.7490  138.6070 C   0  0  0  0  0  2  0  0  0  0  0  0
  193.2950  175.4800  135.6060 O   0  0  0  0  0  1  0  0  0  0  0  0
  193.6510  175.6460  137.9850 C   0  0  1  0  0  3  0  0  0  0  0  0
  194.1060  176.0690  136.5790 C   0  0  1  0  0  3  0  0  0  0  0  0
  195.7300  174.4380  136.7460 C   0  0  0  0  0  2  0  0  0  0  0  0
  195.4080  174.2390  138.2390 C   0  0  0  0  0  2  0  0  0  0  0  0
  194.7730  175.3710  138.7900 O   0  0  0  0  0  0  0  0  0  0  0  0
  195.4700  175.7660  136.3420 O   0  0  0  0  0  0  0  0  0  0  0  0
  1  9  2  0  0  0  0
  2  6  1  0  0  0  0
  3  8  1  0  0  0  0
  4 24  1  6  0  0  0
  4 15  1  0  0  0  0
  6  5  2  0  0  0  0
  7 12  1  0  0  0  0
  8  1  1  0  0  0  0
  8  2  2  0  0  0  0
  9  5  1  0  0  0  0
 10 16  1  0  0  0  0
 10  3  2  0  0  0  0
 11  1  1  0  0  0  0
 12  2  1  0  0  0  0
 13  4  1  0  0  0  0
 14 13  1  1  0  0  0
 14 10  1  0  0  0  0
 15  3  1  0  0  0  0
 15  7  1  1  0  0  0
 16 11  2  0  0  0  0
 17 23  2  0  0  0  0
 18 17  1  0  0  0  0
 19 22  1  6  0  0  0
 19 21  1  0  0  0  0
 20 22  1  6  0  0  0
 20 18  1  0  0  0  0
 20 19  1  0  0  0  0
 21 17  1  6  0  0  0
 21 14  1  0  0  0  0
 25 24  1  0  0  0  0
 26 25  1  0  0  0  0
 27 26  1  0  0  0  0
 29 27  1  1  0  0  0
 29 33  1  0  0  0  0
 30 28  1  6  0  0  0
 30 29  1  0  0  0  0
 31 32  1  0  0  0  0
 32 33  1  0  0  0  0
 34 30  1  0  0  0  0
 34 31  1  0  0  0  0
M  END
>  <MODEL>
5

>  <REMARK>
 VINA RESULT:      -7.7      4.860      9.805
  Name = 
  6 active torsions:
  status: ('A' for Active; 'I' for Inactive)
    1  A    between atoms: C_3  and  C_13
    2  A    between atoms: C_3  and  N_17
    3  A    between atoms: C_5  and  C_18
    4  A    between atoms: N_17  and  O_29
    5  A    between atoms: C_18  and  O_29
    6  A    between atoms: C_23  and  C_28
                            x       y       z     vdW  Elec       q    Type
                         _______ _______ _______ _____ _____    ______ ____

>  <TORSDO>
F 6

$$$$
=
 OpenBabel11052414173D

 34 40  0  0  1  0  0  0  0  0999 V2000
  187.6210  177.8280  137.7790 C   0  0  0  0  0  0  0  0  0  0  0  0
  188.7060  177.8970  139.9600 C   0  0  0  0  0  0  0  0  0  0  0  0
  186.3130  178.2770  139.7760 C   0  0  0  0  0  0  0  0  0  0  0  0
  184.8920  178.6090  141.8490 C   0  0  1  0  0  3  0  0  0  0  0  0
  190.0190  177.5260  137.9560 C   0  0  0  0  0  3  0  0  0  0  0  0
  189.9430  177.6740  139.3460 C   0  0  0  0  0  3  0  0  0  0  0  0
  187.3510  177.9370  142.0170 C   0  0  0  0  0  2  0  0  0  0  0  0
  187.5480  178.0000  139.1740 C   0  0  0  0  0  0  0  0  0  0  0  0
  188.8600  177.5970  137.1740 C   0  0  0  0  0  3  0  0  0  0  0  0
  185.1520  178.3130  138.9790 C   0  0  0  0  0  0  0  0  0  0  0  0
  186.4900  177.8990  137.0290 N   0  0  0  0  0  0  0  0  0  0  0  0
  188.6150  178.0110  141.3520 O   0  0  0  0  0  0  0  0  0  0  0  0
  183.8780  179.2610  140.9130 C   0  0  0  0  0  2  0  0  0  0  0  0
  183.7820  178.4880  139.5920 C   0  0  2  0  0  3  0  0  0  0  0  0
  186.2900  178.7120  141.2280 C   0  0  1  0  0  3  0  0  0  0  0  0
  185.2730  178.1270  137.5950 C   0  0  0  0  0  3  0  0  0  0  0  0
  182.7800  176.3930  138.5620 C   0  0  0  0  0  0  0  0  0  0  0  0
  181.1230  176.5770  137.9590 S   0  0  0  0  0  0  0  0  0  0  0  0
  181.7200  177.3020  140.5660 C   0  0  1  0  0  3  0  0  0  0  0  0
  180.5550  176.9020  139.6580 C   0  0  1  0  0  3  0  0  0  0  0  0
  183.0520  177.1440  139.8170 C   0  0  2  0  0  3  0  0  0  0  0  0
  180.8050  178.3610  139.9690 C   0  0  0  0  0  2  0  0  0  0  0  0
  183.4280  175.2540  138.3390 C   0  0  0  0  0  2  0  0  0  0  0  0
  184.8230  179.3250  143.1930 C   0  0  0  0  0  2  0  0  0  0  0  0
  184.8200  178.4040  144.2460 O   0  0  0  0  0  0  0  0  0  0  0  0
  185.7040  178.8990  145.1450 N   0  0  0  0  0  2  0  0  0  0  0  0
  186.1410  177.7840  145.9660 C   0  0  0  0  0  2  0  0  0  0  0  0
  188.1360  178.3710  148.5200 O   0  0  0  0  0  1  0  0  0  0  0  0
  187.6350  177.8790  146.2130 C   0  0  1  0  0  3  0  0  0  0  0  0
  187.9680  177.3250  147.6090 C   0  0  1  0  0  3  0  0  0  0  0  0
  190.1460  177.1190  146.8750 C   0  0  0  0  0  2  0  0  0  0  0  0
  189.7120  177.4220  145.4280 C   0  0  0  0  0  2  0  0  0  0  0  0
  188.3410  177.1570  145.2310 O   0  0  0  0  0  0  0  0  0  0  0  0
  189.1100  176.4860  147.5960 O   0  0  0  0  0  0  0  0  0  0  0  0
  1  8  1  0  0  0  0
  2 12  1  0  0  0  0
  3 15  1  0  0  0  0
  4 24  1  1  0  0  0
  5  6  2  0  0  0  0
  6  2  1  0  0  0  0
  8  3  1  0  0  0  0
  8  2  2  0  0  0  0
  9  1  2  0  0  0  0
  9  5  1  0  0  0  0
 10 14  1  0  0  0  0
 10  3  2  0  0  0  0
 11 16  2  0  0  0  0
 11  1  1  0  0  0  0
 12  7  1  0  0  0  0
 13  4  1  0  0  0  0
 14 21  1  0  0  0  0
 14 13  1  1  0  0  0
 15  4  1  0  0  0  0
 15  7  1  1  0  0  0
 16 10  1  0  0  0  0
 18 17  1  0  0  0  0
 18 20  1  0  0  0  0
 19 22  1  6  0  0  0
 20 22  1  6  0  0  0
 20 19  1  0  0  0  0
 21 17  1  6  0  0  0
 21 19  1  0  0  0  0
 23 17  2  0  0  0  0
 24 25  1  0  0  0  0
 25 26  1  0  0  0  0
 26 27  1  0  0  0  0
 29 27  1  6  0  0  0
 29 30  1  0  0  0  0
 30 28  1  1  0  0  0
 31 34  1  0  0  0  0
 32 31  1  0  0  0  0
 33 32  1  0  0  0  0
 33 29  1  0  0  0  0
 34 30  1  0  0  0  0
M  END
>  <MODEL>
6

>  <REMARK>
 VINA RESULT:      -7.7      3.756      7.213
  Name = 
  6 active torsions:
  status: ('A' for Active; 'I' for Inactive)
    1  A    between atoms: C_3  and  C_13
    2  A    between atoms: C_3  and  N_17
    3  A    between atoms: C_5  and  C_18
    4  A    between atoms: N_17  and  O_29
    5  A    between atoms: C_18  and  O_29
    6  A    between atoms: C_23  and  C_28
                            x       y       z     vdW  Elec       q    Type
                         _______ _______ _______ _____ _____    ______ ____

>  <TORSDO>
F 6

$$$$
=
 OpenBabel11052414173D

 34 40  0  0  1  0  0  0  0  0999 V2000
  181.8820  178.6400  142.5240 C   0  0  0  0  0  0  0  0  0  0  0  0
  184.3090  178.8400  142.6140 C   0  0  0  0  0  0  0  0  0  0  0  0
  183.2010  178.3910  140.4990 C   0  0  0  0  0  0  0  0  0  0  0  0
  184.5280  178.2640  138.3430 C   0  0  1  0  0  3  0  0  0  0  0  0
  182.9960  179.0110  144.6440 C   0  0  0  0  0  3  0  0  0  0  0  0
  184.2380  179.0190  143.9990 C   0  0  0  0  0  3  0  0  0  0  0  0
  185.6170  179.0030  140.5330 C   0  0  0  0  0  2  0  0  0  0  0  0
  183.1330  178.6240  141.8790 C   0  0  0  0  0  0  0  0  0  0  0  0
  181.8180  178.8280  143.9080 C   0  0  0  0  0  3  0  0  0  0  0  0
  182.0060  178.2400  139.7680 C   0  0  0  0  0  0  0  0  0  0  0  0
  180.7460  178.4610  141.7990 N   0  0  0  0  0  0  0  0  0  0  0  0
  185.5440  178.8820  141.9560 O   0  0  0  0  0  0  0  0  0  0  0  0
  183.3370  177.4890  137.7870 C   0  0  0  0  0  2  0  0  0  0  0  0
  182.0170  178.1060  138.2630 C   0  0  2  0  0  3  0  0  0  0  0  0
  184.5530  178.1210  139.8700 C   0  0  1  0  0  3  0  0  0  0  0  0
  180.7830  178.2710  140.4520 C   0  0  0  0  0  3  0  0  0  0  0  0
  181.2300  180.5160  138.4280 C   0  0  0  0  0  0  0  0  0  0  0  0
  179.4770  180.7400  138.3010 S   0  0  0  0  0  0  0  0  0  0  0  0
  180.8230  179.3220  136.3380 C   0  0  1  0  0  3  0  0  0  0  0  0
  179.5330  180.1030  136.5960 C   0  0  1  0  0  3  0  0  0  0  0  0
  181.7690  179.4510  137.5420 C   0  0  2  0  0  3  0  0  0  0  0  0
  179.5260  178.5920  136.6560 C   0  0  0  0  0  2  0  0  0  0  0  0
  181.9980  181.5630  138.7190 C   0  0  0  0  0  2  0  0  0  0  0  0
  185.7960  177.7030  137.7080 C   0  0  0  0  0  2  0  0  0  0  0  0
  186.8140  178.6620  137.7030 O   0  0  0  0  0  0  0  0  0  0  0  0
  187.9650  177.9480  137.7530 N   0  0  0  0  0  2  0  0  0  0  0  0
  188.8140  178.5840  138.7450 C   0  0  0  0  0  2  0  0  0  0  0  0
  190.6830  175.9200  139.2530 O   0  0  0  0  0  1  0  0  0  0  0  0
  189.0900  177.6180  139.8830 C   0  0  1  0  0  3  0  0  0  0  0  0
  190.5640  177.1800  139.8460 C   0  0  1  0  0  3  0  0  0  0  0  0
  190.3000  176.5320  142.0450 C   0  0  0  0  0  2  0  0  0  0  0  0
  188.9260  177.2250  142.1080 C   0  0  0  0  0  2  0  0  0  0  0  0
  188.8010  178.2240  141.1210 O   0  0  0  0  0  0  0  0  0  0  0  0
  191.1580  177.1850  141.1320 O   0  0  0  0  0  0  0  0  0  0  0  0
  1  9  2  0  0  0  0
  2  6  1  0  0  0  0
  3  8  1  0  0  0  0
  4 24  1  6  0  0  0
  4 15  1  0  0  0  0
  6  5  2  0  0  0  0
  7 12  1  0  0  0  0
  8  1  1  0  0  0  0
  8  2  2  0  0  0  0
  9  5  1  0  0  0  0
 10 16  1  0  0  0  0
 10  3  2  0  0  0  0
 11  1  1  0  0  0  0
 12  2  1  0  0  0  0
 13  4  1  0  0  0  0
 14 13  1  6  0  0  0
 14 10  1  0  0  0  0
 15  3  1  0  0  0  0
 15  7  1  1  0  0  0
 16 11  2  0  0  0  0
 17 23  2  0  0  0  0
 18 17  1  0  0  0  0
 19 20  1  0  0  0  0
 19 22  1  1  0  0  0
 19 21  1  0  0  0  0
 20 22  1  1  0  0  0
 20 18  1  0  0  0  0
 21 14  1  0  0  0  0
 21 17  1  1  0  0  0
 25 24  1  0  0  0  0
 25 26  1  0  0  0  0
 26 27  1  0  0  0  0
 29 27  1  6  0  0  0
 29 33  1  0  0  0  0
 30 28  1  1  0  0  0
 30 29  1  0  0  0  0
 30 34  1  0  0  0  0
 31 32  1  0  0  0  0
 33 32  1  0  0  0  0
 34 31  1  0  0  0  0
M  END
>  <MODEL>
7

>  <REMARK>
 VINA RESULT:      -7.7      4.118      9.540
  Name = 
  6 active torsions:
  status: ('A' for Active; 'I' for Inactive)
    1  A    between atoms: C_3  and  C_13
    2  A    between atoms: C_3  and  N_17
    3  A    between atoms: C_5  and  C_18
    4  A    between atoms: N_17  and  O_29
    5  A    between atoms: C_18  and  O_29
    6  A    between atoms: C_23  and  C_28
                            x       y       z     vdW  Elec       q    Type
                         _______ _______ _______ _____ _____    ______ ____

>  <TORSDO>
F 6

$$$$
=
 OpenBabel11052414173D

 34 40  0  0  1  0  0  0  0  0999 V2000
  181.9520  178.9850  143.6840 C   0  0  0  0  0  0  0  0  0  0  0  0
  181.4420  178.2420  141.4190 C   0  0  0  0  0  0  0  0  0  0  0  0
  183.7440  178.6620  142.0760 C   0  0  0  0  0  0  0  0  0  0  0  0
  185.6520  178.2020  140.4710 C   0  0  1  0  0  3  0  0  0  0  0  0
  179.6520  178.6400  143.0040 C   0  0  0  0  0  3  0  0  0  0  0  0
  180.0780  178.2630  141.7250 C   0  0  0  0  0  3  0  0  0  0  0  0
  183.2540  177.5170  139.9160 C   0  0  0  0  0  2  0  0  0  0  0  0
  182.3790  178.6280  142.3910 C   0  0  0  0  0  0  0  0  0  0  0  0
  180.5870  178.9950  143.9840 C   0  0  0  0  0  3  0  0  0  0  0  0
  184.6740  178.9900  143.0820 C   0  0  0  0  0  0  0  0  0  0  0  0
  182.8680  179.3280  144.6270 N   0  0  0  0  0  0  0  0  0  0  0  0
  181.8800  177.8320  140.1540 O   0  0  0  0  0  0  0  0  0  0  0  0
  186.4660  179.1530  141.3430 C   0  0  0  0  0  2  0  0  0  0  0  0
  186.1620  178.9240  142.8280 C   0  0  2  0  0  3  0  0  0  0  0  0
  184.1620  178.5280  140.6240 C   0  0  1  0  0  3  0  0  0  0  0  0
  184.2030  179.3300  144.3570 C   0  0  0  0  0  3  0  0  0  0  0  0
  187.2380  177.6080  144.7170 C   0  0  0  0  0  0  0  0  0  0  0  0
  188.9780  177.8780  144.9190 S   0  0  0  0  0  0  0  0  0  0  0  0
  187.9840  177.1530  142.4360 C   0  0  1  0  0  3  0  0  0  0  0  0
  189.2670  177.1630  143.2700 C   0  0  1  0  0  3  0  0  0  0  0  0
  186.7900  177.5920  143.2990 C   0  0  2  0  0  3  0  0  0  0  0  0
  189.0270  178.2430  142.2380 C   0  0  0  0  0  2  0  0  0  0  0  0
  186.5910  176.8600  145.6060 C   0  0  0  0  0  2  0  0  0  0  0  0
  186.1150  178.3690  139.0280 C   0  0  0  0  0  2  0  0  0  0  0  0
  187.4900  178.6160  138.9740 O   0  0  0  0  0  0  0  0  0  0  0  0
  188.0100  177.5550  138.3090 N   0  0  0  0  0  2  0  0  0  0  0  0
  188.9560  178.0850  137.3430 C   0  0  0  0  0  2  0  0  0  0  0  0
  191.0910  176.9580  139.5840 O   0  0  0  0  0  1  0  0  0  0  0  0
  190.2240  177.2500  137.3530 C   0  0  1  0  0  3  0  0  0  0  0  0
  190.2630  176.3780  138.6180 C   0  0  1  0  0  3  0  0  0  0  0  0
  191.8230  175.0750  137.5260 C   0  0  0  0  0  2  0  0  0  0  0  0
  191.5490  175.8160  136.2030 C   0  0  0  0  0  2  0  0  0  0  0  0
  190.2820  176.4340  136.2070 O   0  0  0  0  0  0  0  0  0  0  0  0
  190.6720  175.0500  138.3430 O   0  0  0  0  0  0  0  0  0  0  0  0
  1  9  1  0  0  0  0
  1 11  1  0  0  0  0
  2  6  2  0  0  0  0
  2  8  1  0  0  0  0
  3  8  1  0  0  0  0
  3 10  2  0  0  0  0
  4 24  1  6  0  0  0
  4 15  1  0  0  0  0
  4 13  1  0  0  0  0
  5  9  2  0  0  0  0
  6  5  1  0  0  0  0
  7 12  1  0  0  0  0
  8  1  2  0  0  0  0
 10 16  1  0  0  0  0
 12  2  1  0  0  0  0
 14 13  1  6  0  0  0
 14 10  1  0  0  0  0
 14 21  1  0  0  0  0
 15  7  1  1  0  0  0
 15  3  1  0  0  0  0
 16 11  2  0  0  0  0
 17 18  1  0  0  0  0
 17 23  2  0  0  0  0
 19 22  1  6  0  0  0
 19 20  1  0  0  0  0
 19 21  1  0  0  0  0
 20 22  1  6  0  0  0
 20 18  1  0  0  0  0
 21 17  1  1  0  0  0
 25 24  1  0  0  0  0
 26 25  1  0  0  0  0
 27 26  1  0  0  0  0
 29 27  1  6  0  0  0
 29 30  1  0  0  0  0
 30 28  1  1  0  0  0
 31 34  1  0  0  0  0
 32 33  1  0  0  0  0
 32 31  1  0  0  0  0
 33 29  1  0  0  0  0
 34 30  1  0  0  0  0
M  END
>  <MODEL>
8

>  <REMARK>
 VINA RESULT:      -7.5      2.473      8.056
  Name = 
  6 active torsions:
  status: ('A' for Active; 'I' for Inactive)
    1  A    between atoms: C_3  and  C_13
    2  A    between atoms: C_3  and  N_17
    3  A    between atoms: C_5  and  C_18
    4  A    between atoms: N_17  and  O_29
    5  A    between atoms: C_18  and  O_29
    6  A    between atoms: C_23  and  C_28
                            x       y       z     vdW  Elec       q    Type
                         _______ _______ _______ _____ _____    ______ ____

>  <TORSDO>
F 6

$$$$
=
 OpenBabel11052414173D

 34 40  0  0  1  0  0  0  0  0999 V2000
  187.6480  177.5030  147.0290 C   0  0  0  0  0  0  0  0  0  0  0  0
  189.9800  178.0270  146.5510 C   0  0  0  0  0  0  0  0  0  0  0  0
  188.4100  177.6790  144.7290 C   0  0  0  0  0  0  0  0  0  0  0  0
  189.1340  177.9910  142.3190 C   0  0  1  0  0  3  0  0  0  0  0  0
  189.2320  177.7750  148.8430 C   0  0  0  0  0  3  0  0  0  0  0  0
  190.2550  178.0310  147.9220 C   0  0  0  0  0  3  0  0  0  0  0  0
  190.6740  178.6120  144.2610 C   0  0  0  0  0  2  0  0  0  0  0  0
  188.6820  177.7370  146.1030 C   0  0  0  0  0  0  0  0  0  0  0  0
  187.9290  177.5170  148.3980 C   0  0  0  0  0  3  0  0  0  0  0  0
  187.0880  177.4500  144.2990 C   0  0  0  0  0  0  0  0  0  0  0  0
  186.3870  177.2540  146.5860 N   0  0  0  0  0  0  0  0  0  0  0  0
  190.9880  178.3170  145.6240 O   0  0  0  0  0  0  0  0  0  0  0  0
  187.9260  177.1280  141.9630 C   0  0  0  0  0  2  0  0  0  0  0  0
  186.7200  177.4950  142.8340 C   0  0  2  0  0  3  0  0  0  0  0  0
  189.5720  177.6750  143.7550 C   0  0  1  0  0  3  0  0  0  0  0  0
  186.0900  177.2300  145.2580 C   0  0  0  0  0  3  0  0  0  0  0  0
  184.8170  179.1730  142.9810 C   0  0  0  0  0  0  0  0  0  0  0  0
  183.4680  178.8710  141.8710 S   0  0  0  0  0  0  0  0  0  0  0  0
  186.0500  179.0230  140.8780 C   0  0  1  0  0  3  0  0  0  0  0  0
  184.5830  179.1500  140.4600 C   0  0  1  0  0  3  0  0  0  0  0  0
  186.1530  178.8680  142.4040 C   0  0  2  0  0  3  0  0  0  0  0  0
  185.3380  177.8670  140.1930 C   0  0  0  0  0  2  0  0  0  0  0  0
  184.7100  180.1460  143.8810 C   0  0  0  0  0  2  0  0  0  0  0  0
  190.2430  177.6900  141.3180 C   0  0  0  0  0  2  0  0  0  0  0  0
  189.9300  176.5600  140.5560 O   0  0  0  0  0  0  0  0  0  0  0  0
  190.7610  176.6190  139.4870 N   0  0  0  0  0  2  0  0  0  0  0  0
  190.0510  176.0270  138.3670 C   0  0  0  0  0  2  0  0  0  0  0  0
  189.0430  179.1610  138.4950 O   0  0  0  0  0  1  0  0  0  0  0  0
  188.7690  176.7970  138.1030 C   0  0  1  0  0  3  0  0  0  0  0  0
  189.1030  178.1740  137.5070 C   0  0  1  0  0  3  0  0  0  0  0  0
  186.9170  178.2520  136.7720 C   0  0  0  0  0  2  0  0  0  0  0  0
  186.7140  176.7720  137.1500 C   0  0  0  0  0  2  0  0  0  0  0  0
  187.9400  176.0800  137.2190 O   0  0  0  0  0  0  0  0  0  0  0  0
  188.2600  178.5070  136.4180 O   0  0  0  0  0  0  0  0  0  0  0  0
  1  9  2  0  0  0  0
  2  6  1  0  0  0  0
  3  8  1  0  0  0  0
  4 24  1  6  0  0  0
  4 15  1  0  0  0  0
  6  5  2  0  0  0  0
  7 12  1  0  0  0  0
  8  2  2  0  0  0  0
  8  1  1  0  0  0  0
  9  5  1  0  0  0  0
 10  3  2  0  0  0  0
 10 16  1  0  0  0  0
 11  1  1  0  0  0  0
 12  2  1  0  0  0  0
 13  4  1  0  0  0  0
 14 13  1  6  0  0  0
 14 10  1  0  0  0  0
 15  7  1  1  0  0  0
 15  3  1  0  0  0  0
 16 11  2  0  0  0  0
 17 23  2  0  0  0  0
 18 17  1  0  0  0  0
 19 22  1  6  0  0  0
 19 21  1  0  0  0  0
 20 22  1  6  0  0  0
 20 19  1  0  0  0  0
 20 18  1  0  0  0  0
 21 14  1  0  0  0  0
 21 17  1  1  0  0  0
 25 24  1  0  0  0  0
 26 25  1  0  0  0  0
 27 26  1  0  0  0  0
 29 27  1  6  0  0  0
 30 29  1  0  0  0  0
 30 28  1  1  0  0  0
 31 32  1  0  0  0  0
 32 33  1  0  0  0  0
 33 29  1  0  0  0  0
 34 31  1  0  0  0  0
 34 30  1  0  0  0  0
M  END
>  <MODEL>
9

>  <REMARK>
 VINA RESULT:      -7.3      4.261      7.716
  Name = 
  6 active torsions:
  status: ('A' for Active; 'I' for Inactive)
    1  A    between atoms: C_3  and  C_13
    2  A    between atoms: C_3  and  N_17
    3  A    between atoms: C_5  and  C_18
    4  A    between atoms: N_17  and  O_29
    5  A    between atoms: C_18  and  O_29
    6  A    between atoms: C_23  and  C_28
                            x       y       z     vdW  Elec       q    Type
                         _______ _______ _______ _____ _____    ______ ____

>  <TORSDO>
F 6

$$$$
