=
 OpenBabel11052412253D

 30 33  0  0  1  0  0  0  0  0999 V2000
  187.7620  177.7240  145.3450 C   0  0  1  0  0  3  0  0  0  0  0  0
  188.2690  177.3000  143.9810 C   0  0  0  0  0  0  0  0  0  0  0  0
  188.8990  178.3460  146.1570 C   0  0  0  0  0  2  0  0  0  0  0  0
  191.6700  175.9180  145.3430 C   0  0  0  0  0  2  0  0  0  0  0  0
  189.8850  176.9430  141.2160 C   0  0  1  0  0  3  0  0  0  0  0  0
  190.4510  176.7270  145.0910 C   0  0  0  0  0  0  0  0  0  0  0  0
  191.0110  177.2480  147.3020 C   0  0  0  0  0  2  0  0  0  0  0  0
  188.7400  177.7700  140.8110 N   0  0  0  0  0  0  0  0  0  0  0  0
  190.1010  177.4470  146.1470 C   0  0  0  0  0  0  0  0  0  0  0  0
  189.6590  176.6970  143.8070 C   0  0  2  0  0  3  0  0  0  0  0  0
  188.8850  178.3160  139.4790 C   0  0  0  0  0  2  0  0  0  0  0  0
  190.9210  177.1300  140.1230 C   0  0  0  0  0  2  0  0  0  0  0  0
  191.9880  174.9850  147.6270 C   0  0  0  0  0  1  0  0  0  0  0  0
  192.0460  176.2460  146.7890 C   0  0  1  0  0  3  0  0  0  0  0  0
  187.7070  177.6710  142.8750 C   0  0  0  0  0  0  0  0  0  0  0  0
  187.5680  177.9580  141.6250 C   0  0  0  0  0  0  0  0  0  0  0  0
  190.1800  177.7330  138.9360 C   0  0  0  0  0  2  0  0  0  0  0  0
  190.7550  178.7850  142.7780 C   0  0  0  0  0  1  0  0  0  0  0  0
  190.4760  177.2920  142.6150 C   0  0  2  0  0  3  0  0  0  0  0  0
  186.3520  178.6660  141.1330 C   0  0  0  0  0  2  0  0  0  0  0  0
  185.9650  179.6330  142.0590 O   0  0  0  0  0  1  0  0  0  0  0  0
  186.7030  178.6480  145.2400 O   0  0  0  0  0  0  0  0  0  0  0  0
  185.9620  178.6540  146.4430 C   0  0  2  0  0  3  0  0  0  0  0  0
  186.4890  177.6720  147.4830 C   0  0  0  0  0  1  0  0  0  0  0  0
  184.4540  178.5310  146.2320 C   0  0  0  0  0  2  0  0  0  0  0  0
  184.0630  179.0470  144.8560 C   0  0  0  0  0  2  0  0  0  0  0  0
  182.6890  178.6780  144.5560 N   0  0  0  0  0  2  0  0  0  0  0  0
  182.4280  179.0670  143.1780 C   0  0  0  0  0  2  0  0  0  0  0  0
  180.1630  178.4480  144.0070 C   0  0  0  0  0  1  0  0  0  0  0  0
  180.9350  179.2290  142.9590 C   0  0  0  0  0  2  0  0  0  0  0  0
  1 22  1  6  0  0  0
  1  3  1  0  0  0  0
  2  1  1  0  0  0  0
  4 14  1  0  0  0  0
  5 12  1  6  0  0  0
  5 19  1  0  0  0  0
  6  4  1  0  0  0  0
  6  9  2  0  0  0  0
  8  5  1  0  0  0  0
  8 16  1  0  0  0  0
  9  3  1  0  0  0  0
  9  7  1  0  0  0  0
 10  2  1  1  0  0  0
 10  6  1  0  0  0  0
 11  8  1  0  0  0  0
 14  7  1  0  0  0  0
 14 13  1  1  0  0  0
 15  2  2  0  0  0  0
 16 15  2  0  0  0  0
 17 11  1  0  0  0  0
 17 12  1  0  0  0  0
 19 18  1  1  0  0  0
 19 10  1  0  0  0  0
 20 16  1  0  0  0  0
 20 21  1  0  0  0  0
 22 23  1  0  0  0  0
 23 24  1  1  0  0  0
 25 23  1  0  0  0  0
 26 25  1  0  0  0  0
 27 26  1  0  0  0  0
 28 27  1  0  0  0  0
 30 28  1  0  0  0  0
 30 29  1  0  0  0  0
M  END
>  <MODEL>
1

>  <REMARK>
 VINA RESULT:      -7.9      0.000      0.000
  Name = 
  8 active torsions:
  status: ('A' for Active; 'I' for Inactive)
    1  A    between atoms: C_1  and  O_22
    2  A    between atoms: C_2  and  C_14
    3  A    between atoms: C_2  and  O_22
    4  A    between atoms: C_11  and  C_25
    5  A    between atoms: C_14  and  C_20
    6  A    between atoms: C_19  and  C_29
    7  A    between atoms: C_20  and  N_28
    8  A    between atoms: N_28  and  C_29
                            x       y       z     vdW  Elec       q    Type
                         _______ _______ _______ _____ _____    ______ ____

>  <TORSDO>
F 8

$$$$
=
 OpenBabel11052412253D

 30 33  0  0  1  0  0  0  0  0999 V2000
  187.9490  177.7240  142.3640 C   0  0  1  0  0  3  0  0  0  0  0  0
  186.8630  178.4710  141.6160 C   0  0  0  0  0  0  0  0  0  0  0  0
  187.3300  176.8500  143.4560 C   0  0  0  0  0  2  0  0  0  0  0  0
  184.7760  179.2630  144.8340 C   0  0  0  0  0  2  0  0  0  0  0  0
  184.1090  179.4710  140.2760 C   0  0  1  0  0  3  0  0  0  0  0  0
  185.6150  178.6150  143.7940 C   0  0  0  0  0  0  0  0  0  0  0  0
  186.2090  177.4940  145.7590 C   0  0  0  0  0  2  0  0  0  0  0  0
  184.8040  178.8420  139.1430 N   0  0  0  0  0  0  0  0  0  0  0  0
  186.3820  177.6570  144.2950 C   0  0  0  0  0  0  0  0  0  0  0  0
  185.6420  179.0270  142.3430 C   0  0  2  0  0  3  0  0  0  0  0  0
  183.9500  178.6650  137.9890 C   0  0  0  0  0  2  0  0  0  0  0  0
  182.6490  179.5300  139.8670 C   0  0  0  0  0  2  0  0  0  0  0  0
  185.7550  179.5340  147.1050 C   0  0  0  0  0  1  0  0  0  0  0  0
  185.1590  178.5420  146.1270 C   0  0  1  0  0  3  0  0  0  0  0  0
  186.7460  178.4380  140.3270 C   0  0  0  0  0  0  0  0  0  0  0  0
  186.2020  178.5030  139.1590 C   0  0  0  0  0  0  0  0  0  0  0  0
  182.6220  179.3050  138.3600 C   0  0  0  0  0  2  0  0  0  0  0  0
  183.9820  177.2370  141.5330 C   0  0  0  0  0  1  0  0  0  0  0  0
  184.2810  178.7310  141.6360 C   0  0  2  0  0  3  0  0  0  0  0  0
  186.9250  178.0150  137.9500 C   0  0  0  0  0  2  0  0  0  0  0  0
  187.4500  179.0990  137.2490 O   0  0  0  0  0  1  0  0  0  0  0  0
  188.7140  176.9170  141.4980 O   0  0  0  0  0  0  0  0  0  0  0  0
  190.0840  177.2280  141.6510 C   0  0  2  0  0  3  0  0  0  0  0  0
  190.8630  177.1870  140.3410 C   0  0  0  0  0  1  0  0  0  0  0  0
  190.7690  176.4400  142.7660 C   0  0  0  0  0  2  0  0  0  0  0  0
  191.3690  177.3840  143.7960 C   0  0  0  0  0  2  0  0  0  0  0  0
  191.1710  176.8530  145.1350 N   0  0  0  0  0  2  0  0  0  0  0  0
  190.0470  177.5670  145.7220 C   0  0  0  0  0  2  0  0  0  0  0  0
  189.1260  177.9470  148.0040 C   0  0  0  0  0  1  0  0  0  0  0  0
  189.6360  176.9060  147.0250 C   0  0  0  0  0  2  0  0  0  0  0  0
  1 22  1  6  0  0  0
  1  3  1  0  0  0  0
  2  1  1  0  0  0  0
  3  9  1  0  0  0  0
  4 14  1  0  0  0  0
  5 12  1  6  0  0  0
  5 19  1  0  0  0  0
  6  9  2  0  0  0  0
  6  4  1  0  0  0  0
  7 14  1  0  0  0  0
  8 16  1  0  0  0  0
  8  5  1  0  0  0  0
  9  7  1  0  0  0  0
 10  2  1  6  0  0  0
 10  6  1  0  0  0  0
 11 17  1  0  0  0  0
 11  8  1  0  0  0  0
 14 13  1  1  0  0  0
 15  2  2  0  0  0  0
 16 15  2  0  0  0  0
 17 12  1  0  0  0  0
 19 18  1  6  0  0  0
 19 10  1  0  0  0  0
 20 16  1  0  0  0  0
 21 20  1  0  0  0  0
 22 23  1  0  0  0  0
 23 24  1  6  0  0  0
 23 25  1  0  0  0  0
 25 26  1  0  0  0  0
 26 27  1  0  0  0  0
 27 28  1  0  0  0  0
 28 30  1  0  0  0  0
 30 29  1  0  0  0  0
M  END
>  <MODEL>
2

>  <REMARK>
 VINA RESULT:      -7.9      2.504      6.443
  Name = 
  8 active torsions:
  status: ('A' for Active; 'I' for Inactive)
    1  A    between atoms: C_1  and  O_22
    2  A    between atoms: C_2  and  C_14
    3  A    between atoms: C_2  and  O_22
    4  A    between atoms: C_11  and  C_25
    5  A    between atoms: C_14  and  C_20
    6  A    between atoms: C_19  and  C_29
    7  A    between atoms: C_20  and  N_28
    8  A    between atoms: N_28  and  C_29
                            x       y       z     vdW  Elec       q    Type
                         _______ _______ _______ _____ _____    ______ ____

>  <TORSDO>
F 8

$$$$
=
 OpenBabel11052412253D

 30 33  0  0  1  0  0  0  0  0999 V2000
  188.9130  177.5990  144.7070 C   0  0  1  0  0  3  0  0  0  0  0  0
  187.4810  177.5050  144.2210 C   0  0  0  0  0  0  0  0  0  0  0  0
  189.7240  178.5060  143.7780 C   0  0  0  0  0  2  0  0  0  0  0  0
  188.4620  177.2920  140.4360 C   0  0  0  0  0  2  0  0  0  0  0  0
  184.6010  177.9910  142.8590 C   0  0  1  0  0  3  0  0  0  0  0  0
  188.3820  177.6390  141.8770 C   0  0  0  0  0  0  0  0  0  0  0  0
  190.6010  178.1230  141.3170 C   0  0  0  0  0  2  0  0  0  0  0  0
  184.3660  178.3940  144.2520 N   0  0  0  0  0  0  0  0  0  0  0  0
  189.5350  178.0920  142.3480 C   0  0  0  0  0  0  0  0  0  0  0  0
  187.1530  177.4490  142.7320 C   0  0  2  0  0  3  0  0  0  0  0  0
  183.1020  179.0740  144.4340 C   0  0  0  0  0  2  0  0  0  0  0  0
  183.4780  178.6280  142.0620 C   0  0  0  0  0  2  0  0  0  0  0  0
  190.5970  176.3290  139.5960 C   0  0  0  0  0  1  0  0  0  0  0  0
  189.9120  177.5990  140.0570 C   0  0  1  0  0  3  0  0  0  0  0  0
  186.4620  177.7530  144.9820 C   0  0  0  0  0  0  0  0  0  0  0  0
  185.2660  178.0850  145.3320 C   0  0  0  0  0  0  0  0  0  0  0  0
  182.4170  179.0360  143.0770 C   0  0  0  0  0  2  0  0  0  0  0  0
  186.3150  179.8720  142.5250 C   0  0  0  0  0  1  0  0  0  0  0  0
  185.9930  178.3970  142.2900 C   0  0  2  0  0  3  0  0  0  0  0  0
  184.9350  178.3610  146.7580 C   0  0  0  0  0  2  0  0  0  0  0  0
  185.6910  179.4390  147.2150 O   0  0  0  0  0  1  0  0  0  0  0  0
  188.9830  178.0970  146.0230 O   0  0  0  0  0  0  0  0  0  0  0  0
  189.2150  177.0300  146.9190 C   0  0  2  0  0  3  0  0  0  0  0  0
  188.1760  176.9370  148.0310 C   0  0  0  0  0  1  0  0  0  0  0  0
  190.6470  176.9760  147.4480 C   0  0  0  0  0  2  0  0  0  0  0  0
  191.6330  176.7970  146.3040 C   0  0  0  0  0  2  0  0  0  0  0  0
  192.3830  175.5640  146.4790 N   0  0  0  0  0  2  0  0  0  0  0  0
  192.1050  174.7200  145.3260 C   0  0  0  0  0  2  0  0  0  0  0  0
  190.6960  175.0100  143.2930 C   0  0  0  0  0  1  0  0  0  0  0  0
  191.8440  175.5820  144.1040 C   0  0  0  0  0  2  0  0  0  0  0  0
  1 22  1  1  0  0  0
  2  1  1  0  0  0  0
  2 15  2  0  0  0  0
  3  1  1  0  0  0  0
  4  6  1  0  0  0  0
  5 12  1  6  0  0  0
  5  8  1  0  0  0  0
  6  9  2  0  0  0  0
  7  9  1  0  0  0  0
  8 11  1  0  0  0  0
  8 16  1  0  0  0  0
  9  3  1  0  0  0  0
 10  6  1  6  0  0  0
 10  2  1  0  0  0  0
 12 17  1  0  0  0  0
 14 13  1  1  0  0  0
 14  4  1  0  0  0  0
 14  7  1  0  0  0  0
 15 16  2  0  0  0  0
 16 20  1  0  0  0  0
 17 11  1  0  0  0  0
 19 18  1  1  0  0  0
 19 10  1  0  0  0  0
 19  5  1  0  0  0  0
 20 21  1  0  0  0  0
 22 23  1  0  0  0  0
 23 25  1  0  0  0  0
 23 24  1  1  0  0  0
 26 27  1  0  0  0  0
 26 25  1  0  0  0  0
 28 27  1  0  0  0  0
 29 30  1  0  0  0  0
 30 28  1  0  0  0  0
M  END
>  <MODEL>
3

>  <REMARK>
 VINA RESULT:      -7.6      1.939      6.434
  Name = 
  8 active torsions:
  status: ('A' for Active; 'I' for Inactive)
    1  A    between atoms: C_1  and  O_22
    2  A    between atoms: C_2  and  C_14
    3  A    between atoms: C_2  and  O_22
    4  A    between atoms: C_11  and  C_25
    5  A    between atoms: C_14  and  C_20
    6  A    between atoms: C_19  and  C_29
    7  A    between atoms: C_20  and  N_28
    8  A    between atoms: N_28  and  C_29
                            x       y       z     vdW  Elec       q    Type
                         _______ _______ _______ _____ _____    ______ ____

>  <TORSDO>
F 8

$$$$
=
 OpenBabel11052412253D

 30 33  0  0  1  0  0  0  0  0999 V2000
  186.1320  177.9990  143.9160 C   0  0  1  0  0  3  0  0  0  0  0  0
  187.4290  177.4260  143.3810 C   0  0  0  0  0  0  0  0  0  0  0  0
  186.4160  178.9200  145.1050 C   0  0  0  0  0  2  0  0  0  0  0  0
  188.9820  176.8380  146.9270 C   0  0  0  0  0  2  0  0  0  0  0  0
  190.4930  176.8440  142.5700 C   0  0  1  0  0  3  0  0  0  0  0  0
  188.2670  177.3950  145.7520 C   0  0  0  0  0  0  0  0  0  0  0  0
  187.1750  178.3730  147.5750 C   0  0  0  0  0  2  0  0  0  0  0  0
  189.9360  177.4020  141.3300 N   0  0  0  0  0  0  0  0  0  0  0  0
  187.2960  178.2260  146.1040 C   0  0  0  0  0  0  0  0  0  0  0  0
  188.5610  177.0220  144.3190 C   0  0  2  0  0  3  0  0  0  0  0  0
  190.9540  177.7240  140.3530 C   0  0  0  0  0  2  0  0  0  0  0  0
  191.9970  176.9930  142.4380 C   0  0  0  0  0  2  0  0  0  0  0  0
  187.6520  176.3770  148.9790 C   0  0  0  0  0  1  0  0  0  0  0  0
  188.2740  177.4660  148.1290 C   0  0  1  0  0  3  0  0  0  0  0  0
  187.7740  177.5090  142.1350 C   0  0  0  0  0  0  0  0  0  0  0  0
  188.5250  177.5490  141.0880 C   0  0  0  0  0  0  0  0  0  0  0  0
  192.2670  177.2590  140.9620 C   0  0  0  0  0  2  0  0  0  0  0  0
  190.0800  179.0400  143.8330 C   0  0  0  0  0  1  0  0  0  0  0  0
  189.9750  177.5170  143.8760 C   0  0  2  0  0  3  0  0  0  0  0  0
  187.9760  177.9670  139.7670 C   0  0  0  0  0  2  0  0  0  0  0  0
  186.7780  178.6550  139.9540 O   0  0  0  0  0  1  0  0  0  0  0  0
  185.4350  178.7180  142.9250 O   0  0  0  0  0  0  0  0  0  0  0  0
  184.1060  178.2440  142.8450 C   0  0  2  0  0  3  0  0  0  0  0  0
  183.5700  178.1850  141.4200 C   0  0  0  0  0  1  0  0  0  0  0  0
  183.1470  178.9470  143.8050 C   0  0  0  0  0  2  0  0  0  0  0  0
  181.7920  179.1550  143.1480 C   0  0  0  0  0  2  0  0  0  0  0  0
  180.7450  178.5660  143.9670 N   0  0  0  0  0  2  0  0  0  0  0  0
  179.5410  178.5050  143.1510 C   0  0  0  0  0  2  0  0  0  0  0  0
  179.4680  177.1310  141.0760 C   0  0  0  0  0  1  0  0  0  0  0  0
  179.9120  178.4500  141.6810 C   0  0  0  0  0  2  0  0  0  0  0  0
  1 22  1  6  0  0  0
  1  3  1  0  0  0  0
  2  1  1  0  0  0  0
  3  9  1  0  0  0  0
  4 14  1  0  0  0  0
  5 12  1  6  0  0  0
  5 19  1  0  0  0  0
  6  9  2  0  0  0  0
  6  4  1  0  0  0  0
  7 14  1  0  0  0  0
  8  5  1  0  0  0  0
  9  7  1  0  0  0  0
 10  2  1  6  0  0  0
 10  6  1  0  0  0  0
 11 17  1  0  0  0  0
 11  8  1  0  0  0  0
 14 13  1  1  0  0  0
 15  2  2  0  0  0  0
 16  8  1  0  0  0  0
 16 15  2  0  0  0  0
 17 12  1  0  0  0  0
 19 18  1  6  0  0  0
 19 10  1  0  0  0  0
 20 21  1  0  0  0  0
 20 16  1  0  0  0  0
 23 24  1  6  0  0  0
 23 22  1  0  0  0  0
 23 25  1  0  0  0  0
 26 25  1  0  0  0  0
 26 27  1  0  0  0  0
 28 27  1  0  0  0  0
 29 30  1  0  0  0  0
 30 28  1  0  0  0  0
M  END
>  <MODEL>
4

>  <REMARK>
 VINA RESULT:      -7.6      1.664      2.880
  Name = 
  8 active torsions:
  status: ('A' for Active; 'I' for Inactive)
    1  A    between atoms: C_1  and  O_22
    2  A    between atoms: C_2  and  C_14
    3  A    between atoms: C_2  and  O_22
    4  A    between atoms: C_11  and  C_25
    5  A    between atoms: C_14  and  C_20
    6  A    between atoms: C_19  and  C_29
    7  A    between atoms: C_20  and  N_28
    8  A    between atoms: N_28  and  C_29
                            x       y       z     vdW  Elec       q    Type
                         _______ _______ _______ _____ _____    ______ ____

>  <TORSDO>
F 8

$$$$
=
 OpenBabel11052412253D

 30 33  0  0  1  0  0  0  0  0999 V2000
  188.4230  178.1490  140.4110 C   0  0  1  0  0  3  0  0  0  0  0  0
  187.4250  178.6950  141.4120 C   0  0  0  0  0  0  0  0  0  0  0  0
  189.1640  176.9500  141.0080 C   0  0  0  0  0  2  0  0  0  0  0  0
  189.8200  178.2710  144.4810 C   0  0  0  0  0  2  0  0  0  0  0  0
  185.3380  179.1340  143.8270 C   0  0  1  0  0  3  0  0  0  0  0  0
  189.0660  178.0820  143.2160 C   0  0  0  0  0  0  0  0  0  0  0  0
  191.0090  176.8210  142.8920 C   0  0  0  0  0  2  0  0  0  0  0  0
  184.4510  178.9420  142.6710 N   0  0  0  0  0  0  0  0  0  0  0  0
  189.7070  177.2960  142.3630 C   0  0  0  0  0  0  0  0  0  0  0  0
  187.7490  178.7490  142.9010 C   0  0  2  0  0  3  0  0  0  0  0  0
  183.0670  178.7570  143.0490 C   0  0  0  0  0  2  0  0  0  0  0  0
  184.4720  178.8660  145.0450 C   0  0  0  0  0  2  0  0  0  0  0  0
  192.3020  178.3710  144.3440 C   0  0  0  0  0  1  0  0  0  0  0  0
  191.0980  177.4540  144.2810 C   0  0  1  0  0  3  0  0  0  0  0  0
  186.1730  178.8720  141.1320 C   0  0  0  0  0  0  0  0  0  0  0  0
  184.9020  179.0020  141.3050 C   0  0  0  0  0  0  0  0  0  0  0  0
  183.0290  178.9280  144.5590 C   0  0  0  0  0  2  0  0  0  0  0  0
  186.2780  176.7560  143.5930 C   0  0  0  0  0  1  0  0  0  0  0  0
  186.6060  178.2300  143.8300 C   0  0  2  0  0  3  0  0  0  0  0  0
  183.9640  178.9650  140.1470 C   0  0  0  0  0  2  0  0  0  0  0  0
  184.2050  180.0560  139.3130 O   0  0  0  0  0  1  0  0  0  0  0  0
  187.7930  177.7580  139.2120 O   0  0  0  0  0  0  0  0  0  0  0  0
  188.7740  177.4360  138.2470 C   0  0  2  0  0  3  0  0  0  0  0  0
  189.1200  178.6000  137.3250 C   0  0  0  0  0  1  0  0  0  0  0  0
  188.4790  176.1480  137.4810 C   0  0  0  0  0  2  0  0  0  0  0  0
  189.7730  175.4530  137.0860 C   0  0  0  0  0  2  0  0  0  0  0  0
  190.6190  175.2720  138.2540 N   0  0  0  0  0  2  0  0  0  0  0  0
  191.9830  175.0950  137.7770 C   0  0  0  0  0  2  0  0  0  0  0  0
  192.4570  176.9900  139.3200 C   0  0  0  0  0  1  0  0  0  0  0  0
  192.7700  176.3780  137.9670 C   0  0  0  0  0  2  0  0  0  0  0  0
  1 22  1  6  0  0  0
  1  3  1  0  0  0  0
  1  2  1  0  0  0  0
  3  9  1  0  0  0  0
  5 19  1  0  0  0  0
  5 12  1  1  0  0  0
  6  4  1  0  0  0  0
  7 14  1  0  0  0  0
  8 11  1  0  0  0  0
  8  5  1  0  0  0  0
  9  7  1  0  0  0  0
  9  6  2  0  0  0  0
 10  2  1  6  0  0  0
 10  6  1  0  0  0  0
 10 19  1  0  0  0  0
 11 17  1  0  0  0  0
 14 13  1  6  0  0  0
 14  4  1  0  0  0  0
 15 16  2  0  0  0  0
 15  2  2  0  0  0  0
 16  8  1  0  0  0  0
 17 12  1  0  0  0  0
 19 18  1  6  0  0  0
 20 16  1  0  0  0  0
 21 20  1  0  0  0  0
 23 24  1  6  0  0  0
 23 22  1  0  0  0  0
 25 23  1  0  0  0  0
 26 25  1  0  0  0  0
 26 27  1  0  0  0  0
 28 30  1  0  0  0  0
 28 27  1  0  0  0  0
 30 29  1  0  0  0  0
M  END
>  <MODEL>
5

>  <REMARK>
 VINA RESULT:      -7.2      2.405      7.101
  Name = 
  8 active torsions:
  status: ('A' for Active; 'I' for Inactive)
    1  A    between atoms: C_1  and  O_22
    2  A    between atoms: C_2  and  C_14
    3  A    between atoms: C_2  and  O_22
    4  A    between atoms: C_11  and  C_25
    5  A    between atoms: C_14  and  C_20
    6  A    between atoms: C_19  and  C_29
    7  A    between atoms: C_20  and  N_28
    8  A    between atoms: N_28  and  C_29
                            x       y       z     vdW  Elec       q    Type
                         _______ _______ _______ _____ _____    ______ ____

>  <TORSDO>
F 8

$$$$
=
 OpenBabel11052412253D

 30 33  0  0  1  0  0  0  0  0999 V2000
  188.0090  177.6370  143.5420 C   0  0  1  0  0  3  0  0  0  0  0  0
  188.6530  177.0500  142.3020 C   0  0  0  0  0  0  0  0  0  0  0  0
  189.0760  178.2640  144.4410 C   0  0  0  0  0  2  0  0  0  0  0  0
  191.7390  175.6000  144.2260 C   0  0  0  0  0  2  0  0  0  0  0  0
  190.5780  176.3240  139.8220 C   0  0  1  0  0  3  0  0  0  0  0  0
  190.6260  176.4540  143.7420 C   0  0  0  0  0  0  0  0  0  0  0  0
  190.9360  177.1540  145.9520 C   0  0  0  0  0  2  0  0  0  0  0  0
  189.5590  177.1760  139.1940 N   0  0  0  0  0  0  0  0  0  0  0  0
  190.1980  177.2950  144.6730 C   0  0  0  0  0  0  0  0  0  0  0  0
  190.0050  176.3480  142.3700 C   0  0  2  0  0  3  0  0  0  0  0  0
  189.9140  177.5790  137.8510 C   0  0  0  0  0  2  0  0  0  0  0  0
  191.7570  176.3370  138.8660 C   0  0  0  0  0  2  0  0  0  0  0  0
  191.6910  174.8780  146.6070 C   0  0  0  0  0  1  0  0  0  0  0  0
  191.9500  176.0440  145.6750 C   0  0  1  0  0  3  0  0  0  0  0  0
  188.2660  177.3460  141.1010 C   0  0  0  0  0  0  0  0  0  0  0  0
  188.3110  177.5170  139.8240 C   0  0  0  0  0  0  0  0  0  0  0  0
  191.2200  176.8650  137.5420 C   0  0  0  0  0  2  0  0  0  0  0  0
  191.3770  178.2520  141.3170 C   0  0  0  0  0  1  0  0  0  0  0  0
  191.0090  176.7710  141.2510 C   0  0  2  0  0  3  0  0  0  0  0  0
  187.2240  178.2470  139.1120 C   0  0  0  0  0  2  0  0  0  0  0  0
  186.2860  178.7080  140.0340 O   0  0  0  0  0  1  0  0  0  0  0  0
  187.0440  178.6110  143.2140 O   0  0  0  0  0  0  0  0  0  0  0  0
  185.8130  178.2790  143.8220 C   0  0  2  0  0  3  0  0  0  0  0  0
  184.7250  177.9070  142.8220 C   0  0  0  0  0  1  0  0  0  0  0  0
  185.3410  179.3070  144.8480 C   0  0  0  0  0  2  0  0  0  0  0  0
  184.8680  178.6170  146.1180 C   0  0  0  0  0  2  0  0  0  0  0  0
  185.8730  177.6720  146.5760 N   0  0  0  0  0  2  0  0  0  0  0  0
  186.8050  178.4060  147.4180 C   0  0  0  0  0  2  0  0  0  0  0  0
  188.9110  178.2530  148.7390 C   0  0  0  0  0  1  0  0  0  0  0  0
  187.9300  177.4910  147.8660 C   0  0  0  0  0  2  0  0  0  0  0  0
  1 22  1  6  0  0  0
  1  3  1  0  0  0  0
  2  1  1  0  0  0  0
  3  9  1  0  0  0  0
  4 14  1  0  0  0  0
  5 12  1  6  0  0  0
  5 19  1  0  0  0  0
  6  4  1  0  0  0  0
  6  9  2  0  0  0  0
  8  5  1  0  0  0  0
  8 16  1  0  0  0  0
  9  7  1  0  0  0  0
 10  2  1  1  0  0  0
 10  6  1  0  0  0  0
 11  8  1  0  0  0  0
 14  7  1  0  0  0  0
 14 13  1  1  0  0  0
 15  2  2  0  0  0  0
 16 15  2  0  0  0  0
 17 11  1  0  0  0  0
 17 12  1  0  0  0  0
 19 18  1  6  0  0  0
 19 10  1  0  0  0  0
 20 16  1  0  0  0  0
 20 21  1  0  0  0  0
 22 23  1  0  0  0  0
 23 24  1  6  0  0  0
 23 25  1  0  0  0  0
 25 26  1  0  0  0  0
 26 27  1  0  0  0  0
 27 28  1  0  0  0  0
 28 30  1  0  0  0  0
 30 29  1  0  0  0  0
M  END
>  <MODEL>
6

>  <REMARK>
 VINA RESULT:      -7.2      1.863      3.323
  Name = 
  8 active torsions:
  status: ('A' for Active; 'I' for Inactive)
    1  A    between atoms: C_1  and  O_22
    2  A    between atoms: C_2  and  C_14
    3  A    between atoms: C_2  and  O_22
    4  A    between atoms: C_11  and  C_25
    5  A    between atoms: C_14  and  C_20
    6  A    between atoms: C_19  and  C_29
    7  A    between atoms: C_20  and  N_28
    8  A    between atoms: N_28  and  C_29
                            x       y       z     vdW  Elec       q    Type
                         _______ _______ _______ _____ _____    ______ ____

>  <TORSDO>
F 8

$$$$
=
 OpenBabel11052412253D

 30 33  0  0  1  0  0  0  0  0999 V2000
  191.1660  177.1200  141.1850 C   0  0  1  0  0  3  0  0  0  0  0  0
  189.8690  176.9470  140.4210 C   0  0  0  0  0  0  0  0  0  0  0  0
  192.2710  177.6000  140.2420 C   0  0  0  0  0  2  0  0  0  0  0  0
  191.5850  175.3810  137.2680 C   0  0  0  0  0  2  0  0  0  0  0  0
  187.4360  177.1000  138.3140 C   0  0  1  0  0  3  0  0  0  0  0  0
  191.2520  176.2090  138.4550 C   0  0  0  0  0  0  0  0  0  0  0  0
  193.5850  176.3380  138.3300 C   0  0  0  0  0  2  0  0  0  0  0  0
  186.9710  177.9730  139.4000 N   0  0  0  0  0  0  0  0  0  0  0  0
  192.3320  176.7290  139.0220 C   0  0  0  0  0  0  0  0  0  0  0  0
  189.8570  176.3990  138.9970 C   0  0  2  0  0  3  0  0  0  0  0  0
  185.8030  178.7470  139.0380 C   0  0  0  0  0  2  0  0  0  0  0  0
  186.6040  177.4860  137.1040 C   0  0  0  0  0  2  0  0  0  0  0  0
  193.6950  174.0630  137.3330 C   0  0  0  0  0  1  0  0  0  0  0  0
  193.1100  175.4530  137.1770 C   0  0  1  0  0  3  0  0  0  0  0  0
  188.7570  177.5020  140.7870 C   0  0  0  0  0  0  0  0  0  0  0  0
  187.5720  178.0040  140.7070 C   0  0  0  0  0  0  0  0  0  0  0  0
  185.4210  178.2820  137.6420 C   0  0  0  0  0  2  0  0  0  0  0  0
  189.4250  178.6460  137.8220 C   0  0  0  0  0  1  0  0  0  0  0  0
  188.9590  177.2020  138.0030 C   0  0  2  0  0  3  0  0  0  0  0  0
  186.9900  178.7750  141.8420 C   0  0  0  0  0  2  0  0  0  0  0  0
  186.2590  177.9200  142.6650 O   0  0  0  0  0  1  0  0  0  0  0  0
  191.0250  178.0370  142.2450 O   0  0  0  0  0  0  0  0  0  0  0  0
  191.5460  177.4710  143.4310 C   0  0  2  0  0  3  0  0  0  0  0  0
  191.5710  175.9470  143.4130 C   0  0  0  0  0  1  0  0  0  0  0  0
  190.9150  178.0320  144.7040 C   0  0  0  0  0  2  0  0  0  0  0  0
  189.4150  178.2080  144.5250 C   0  0  0  0  0  2  0  0  0  0  0  0
  188.7080  177.0750  145.1000 N   0  0  0  0  0  2  0  0  0  0  0  0
  187.9710  177.5660  146.2550 C   0  0  0  0  0  2  0  0  0  0  0  0
  188.8710  178.2050  148.4860 C   0  0  0  0  0  1  0  0  0  0  0  0
  188.6080  177.0540  147.5330 C   0  0  0  0  0  2  0  0  0  0  0  0
  1 22  1  1  0  0  0
  2 15  2  0  0  0  0
  2  1  1  0  0  0  0
  3  1  1  0  0  0  0
  4  6  1  0  0  0  0
  5 12  1  6  0  0  0
  5  8  1  0  0  0  0
  6  9  2  0  0  0  0
  7  9  1  0  0  0  0
  8 16  1  0  0  0  0
  9  3  1  0  0  0  0
 10  6  1  6  0  0  0
 10  2  1  0  0  0  0
 11  8  1  0  0  0  0
 12 17  1  0  0  0  0
 14  4  1  0  0  0  0
 14 13  1  1  0  0  0
 14  7  1  0  0  0  0
 16 15  2  0  0  0  0
 16 20  1  0  0  0  0
 17 11  1  0  0  0  0
 19 18  1  1  0  0  0
 19  5  1  0  0  0  0
 19 10  1  0  0  0  0
 20 21  1  0  0  0  0
 22 23  1  0  0  0  0
 23 24  1  6  0  0  0
 23 25  1  0  0  0  0
 26 25  1  0  0  0  0
 26 27  1  0  0  0  0
 27 28  1  0  0  0  0
 28 30  1  0  0  0  0
 30 29  1  0  0  0  0
M  END
>  <MODEL>
7

>  <REMARK>
 VINA RESULT:      -7.1      2.997      6.236
  Name = 
  8 active torsions:
  status: ('A' for Active; 'I' for Inactive)
    1  A    between atoms: C_1  and  O_22
    2  A    between atoms: C_2  and  C_14
    3  A    between atoms: C_2  and  O_22
    4  A    between atoms: C_11  and  C_25
    5  A    between atoms: C_14  and  C_20
    6  A    between atoms: C_19  and  C_29
    7  A    between atoms: C_20  and  N_28
    8  A    between atoms: N_28  and  C_29
                            x       y       z     vdW  Elec       q    Type
                         _______ _______ _______ _____ _____    ______ ____

>  <TORSDO>
F 8

$$$$
=
 OpenBabel11052412253D

 30 33  0  0  1  0  0  0  0  0999 V2000
  184.4710  178.6670  141.8190 C   0  0  1  0  0  3  0  0  0  0  0  0
  185.3400  178.9520  140.6110 C   0  0  0  0  0  0  0  0  0  0  0  0
  183.1840  177.9630  141.3860 C   0  0  0  0  0  2  0  0  0  0  0  0
  182.3390  180.0010  138.3250 C   0  0  0  0  0  2  0  0  0  0  0  0
  186.7930  178.9610  137.7350 C   0  0  1  0  0  3  0  0  0  0  0  0
  183.2210  179.3270  139.3120 C   0  0  0  0  0  0  0  0  0  0  0  0
  181.0650  178.8690  140.0970 C   0  0  0  0  0  2  0  0  0  0  0  0
  187.7650  178.2530  138.5800 N   0  0  0  0  0  0  0  0  0  0  0  0
  182.5310  178.7130  140.2620 C   0  0  0  0  0  0  0  0  0  0  0  0
  184.7290  179.3770  139.2800 C   0  0  2  0  0  3  0  0  0  0  0  0
  188.8170  177.6200  137.8140 C   0  0  0  0  0  2  0  0  0  0  0  0
  187.1580  178.5940  136.3080 C   0  0  0  0  0  2  0  0  0  0  0  0
  180.2290  181.0170  139.1640 C   0  0  0  0  0  1  0  0  0  0  0  0
  180.9240  179.7130  138.8290 C   0  0  1  0  0  3  0  0  0  0  0  0
  186.5810  178.5870  140.5350 C   0  0  0  0  0  0  0  0  0  0  0  0
  187.7130  178.2480  140.0180 C   0  0  0  0  0  0  0  0  0  0  0  0
  188.5670  178.0160  136.3690 C   0  0  0  0  0  2  0  0  0  0  0  0
  185.0370  177.1210  138.0830 C   0  0  0  0  0  1  0  0  0  0  0  0
  185.3020  178.6250  138.0370 C   0  0  2  0  0  3  0  0  0  0  0  0
  188.7930  177.6610  140.8600 C   0  0  0  0  0  2  0  0  0  0  0  0
  188.2670  177.2610  142.0870 O   0  0  0  0  0  1  0  0  0  0  0  0
  185.1440  177.8690  142.7660 O   0  0  0  0  0  0  0  0  0  0  0  0
  184.8830  178.3570  144.0660 C   0  0  2  0  0  3  0  0  0  0  0  0
  184.5630  179.8470  144.0990 C   0  0  0  0  0  1  0  0  0  0  0  0
  185.9440  177.9620  145.0920 C   0  0  0  0  0  2  0  0  0  0  0  0
  185.6660  178.6280  146.4300 C   0  0  0  0  0  2  0  0  0  0  0  0
  186.7780  178.4040  147.3400 N   0  0  0  0  0  2  0  0  0  0  0  0
  187.7070  177.5030  146.6730 C   0  0  0  0  0  2  0  0  0  0  0  0
  189.0540  178.2530  148.6280 C   0  0  0  0  0  1  0  0  0  0  0  0
  188.8460  177.1470  147.6100 C   0  0  0  0  0  2  0  0  0  0  0  0
  1 22  1  1  0  0  0
  2  1  1  0  0  0  0
  3  1  1  0  0  0  0
  4 14  1  0  0  0  0
  4  6  1  0  0  0  0
  5 12  1  6  0  0  0
  5 19  1  0  0  0  0
  5  8  1  0  0  0  0
  6  9  2  0  0  0  0
  7  9  1  0  0  0  0
  8 16  1  0  0  0  0
  9  3  1  0  0  0  0
 10  6  1  1  0  0  0
 10  2  1  0  0  0  0
 11  8  1  0  0  0  0
 12 17  1  0  0  0  0
 14 13  1  1  0  0  0
 14  7  1  0  0  0  0
 15  2  2  0  0  0  0
 16 15  2  0  0  0  0
 16 20  1  0  0  0  0
 17 11  1  0  0  0  0
 19 18  1  1  0  0  0
 19 10  1  0  0  0  0
 20 21  1  0  0  0  0
 22 23  1  0  0  0  0
 23 24  1  6  0  0  0
 23 25  1  0  0  0  0
 25 26  1  0  0  0  0
 26 27  1  0  0  0  0
 28 27  1  0  0  0  0
 28 30  1  0  0  0  0
 30 29  1  0  0  0  0
M  END
>  <MODEL>
8

>  <REMARK>
 VINA RESULT:      -7.0      2.777      7.312
  Name = 
  8 active torsions:
  status: ('A' for Active; 'I' for Inactive)
    1  A    between atoms: C_1  and  O_22
    2  A    between atoms: C_2  and  C_14
    3  A    between atoms: C_2  and  O_22
    4  A    between atoms: C_11  and  C_25
    5  A    between atoms: C_14  and  C_20
    6  A    between atoms: C_19  and  C_29
    7  A    between atoms: C_20  and  N_28
    8  A    between atoms: N_28  and  C_29
                            x       y       z     vdW  Elec       q    Type
                         _______ _______ _______ _____ _____    ______ ____

>  <TORSDO>
F 8

$$$$
=
 OpenBabel11052412253D

 30 33  0  0  1  0  0  0  0  0999 V2000
  187.6700  177.9100  141.4480 C   0  0  1  0  0  3  0  0  0  0  0  0
  187.1130  177.6380  142.8310 C   0  0  0  0  0  0  0  0  0  0  0  0
  186.8890  179.0450  140.7820 C   0  0  0  0  0  2  0  0  0  0  0  0
  183.3760  178.0500  141.7360 C   0  0  0  0  0  2  0  0  0  0  0  0
  185.6890  177.7970  145.7170 C   0  0  1  0  0  3  0  0  0  0  0  0
  184.8430  178.2020  141.9090 C   0  0  0  0  0  0  0  0  0  0  0  0
  184.4410  179.1130  139.7920 C   0  0  0  0  0  2  0  0  0  0  0  0
  187.1080  177.9850  146.0520 N   0  0  0  0  0  0  0  0  0  0  0  0
  185.4130  178.7800  140.8620 C   0  0  0  0  0  0  0  0  0  0  0  0
  185.6150  177.7080  143.1080 C   0  0  2  0  0  3  0  0  0  0  0  0
  187.3100  178.4180  147.4180 C   0  0  0  0  0  2  0  0  0  0  0  0
  184.9210  178.3290  146.9130 C   0  0  0  0  0  2  0  0  0  0  0  0
  182.5270  177.5640  139.4480 C   0  0  0  0  0  1  0  0  0  0  0  0
  183.1000  178.6380  140.3510 C   0  0  1  0  0  3  0  0  0  0  0  0
  187.8510  177.6190  143.8960 C   0  0  0  0  0  0  0  0  0  0  0  0
  188.1840  177.7020  145.1390 C   0  0  0  0  0  0  0  0  0  0  0  0
  185.9290  178.4290  148.0520 C   0  0  0  0  0  2  0  0  0  0  0  0
  185.6500  179.9640  144.3420 C   0  0  0  0  0  1  0  0  0  0  0  0
  185.2340  178.4960  144.4020 C   0  0  2  0  0  3  0  0  0  0  0  0
  189.6170  177.7450  145.5470 C   0  0  0  0  0  2  0  0  0  0  0  0
  190.3390  178.5190  144.6400 O   0  0  0  0  0  1  0  0  0  0  0  0
  189.0370  178.2500  141.4970 O   0  0  0  0  0  0  0  0  0  0  0  0
  189.8030  177.2020  140.9390 C   0  0  2  0  0  3  0  0  0  0  0  0
  191.3030  177.3740  141.1470 C   0  0  0  0  0  1  0  0  0  0  0  0
  189.4440  176.8880  139.4880 C   0  0  0  0  0  2  0  0  0  0  0  0
  190.0700  177.9080  138.5500 C   0  0  0  0  0  2  0  0  0  0  0  0
  189.0480  178.4970  137.7000 N   0  0  0  0  0  2  0  0  0  0  0  0
  188.0880  177.4480  137.3870 C   0  0  0  0  0  2  0  0  0  0  0  0
  185.6590  176.9640  137.1320 C   0  0  0  0  0  1  0  0  0  0  0  0
  186.7160  178.0530  137.1560 C   0  0  0  0  0  2  0  0  0  0  0  0
  1 22  1  1  0  0  0
  1  2  1  0  0  0  0
  2 10  1  0  0  0  0
  2 15  2  0  0  0  0
  3  9  1  0  0  0  0
  3  1  1  0  0  0  0
  4  6  1  0  0  0  0
  5  8  1  0  0  0  0
  5 12  1  1  0  0  0
  7 14  1  0  0  0  0
  7  9  1  0  0  0  0
  8 11  1  0  0  0  0
  9  6  2  0  0  0  0
 10  6  1  6  0  0  0
 10 19  1  0  0  0  0
 11 17  1  0  0  0  0
 12 17  1  0  0  0  0
 14 13  1  6  0  0  0
 14  4  1  0  0  0  0
 15 16  2  0  0  0  0
 16 20  1  0  0  0  0
 16  8  1  0  0  0  0
 19 18  1  6  0  0  0
 19  5  1  0  0  0  0
 21 20  1  0  0  0  0
 23 24  1  6  0  0  0
 23 22  1  0  0  0  0
 25 23  1  0  0  0  0
 26 25  1  0  0  0  0
 27 26  1  0  0  0  0
 28 27  1  0  0  0  0
 29 30  1  0  0  0  0
 30 28  1  0  0  0  0
M  END
>  <MODEL>
9

>  <REMARK>
 VINA RESULT:      -7.0      2.257      7.488
  Name = 
  8 active torsions:
  status: ('A' for Active; 'I' for Inactive)
    1  A    between atoms: C_1  and  O_22
    2  A    between atoms: C_2  and  C_14
    3  A    between atoms: C_2  and  O_22
    4  A    between atoms: C_11  and  C_25
    5  A    between atoms: C_14  and  C_20
    6  A    between atoms: C_19  and  C_29
    7  A    between atoms: C_20  and  N_28
    8  A    between atoms: N_28  and  C_29
                            x       y       z     vdW  Elec       q    Type
                         _______ _______ _______ _____ _____    ______ ____

>  <TORSDO>
F 8

$$$$
