=
 OpenBabel11052413283D

 28 31  0  0  1  0  0  0  0  0999 V2000
  190.9140  176.7160  145.0280 C   0  0  1  0  0  3  0  0  0  0  0  0
  186.2000  177.9530  143.0520 C   0  0  0  0  0  3  0  0  0  0  0  0
  188.7420  179.0380  147.9750 F   0  0  0  0  0  0  0  0  0  0  0  0
  184.8830  178.5020  145.0190 C   0  0  0  0  0  0  0  0  0  0  0  0
  187.2230  177.8400  145.2800 C   0  0  0  0  0  0  0  0  0  0  0  0
  183.8830  178.6140  142.8160 C   0  0  0  0  0  0  0  0  0  0  0  0
  186.1130  178.0950  144.4460 C   0  0  0  0  0  0  0  0  0  0  0  0
  185.8610  178.3870  147.2240 C   0  0  0  0  0  3  0  0  0  0  0  0
  183.7790  178.7590  144.2020 C   0  0  0  0  0  3  0  0  0  0  0  0
  189.3570  176.9410  147.0030 C   0  0  2  0  0  3  0  0  0  0  0  0
  188.5070  177.3120  144.6840 C   0  0  0  0  0  2  0  0  0  0  0  0
  184.7670  178.6450  146.4010 C   0  0  0  0  0  3  0  0  0  0  0  0
  191.3590  175.9710  147.3620 C   0  0  0  0  0  2  0  0  0  0  0  0
  188.2470  177.7950  147.6160 C   0  0  2  0  0  3  0  0  0  0  0  0
  190.4830  176.9540  147.8470 O   0  0  0  0  0  0  0  0  0  0  0  0
  182.7830  178.8710  142.0090 O   0  0  0  0  0  1  0  0  0  0  0  0
  185.0900  178.2110  142.2420 C   0  0  0  0  0  3  0  0  0  0  0  0
  187.0830  177.9750  146.6820 C   0  0  0  0  0  0  0  0  0  0  0  0
  192.0040  176.4580  146.0700 C   0  0  0  0  0  2  0  0  0  0  0  0
  189.7130  177.4810  145.6060 C   0  0  2  0  0  3  0  0  0  0  0  0
  191.4600  177.3530  143.7400 C   0  0  2  0  0  3  0  0  0  0  0  0
  191.2750  178.7380  143.7220 O   0  0  0  0  0  1  0  0  0  0  0  0
  191.0540  176.6960  142.4070 C   0  0  0  0  0  2  0  0  0  0  0  0
  192.3950  177.4420  140.5320 O   0  0  0  0  0  1  0  0  0  0  0  0
  191.1430  177.5580  141.1400 C   0  0  1  0  0  3  0  0  0  0  0  0
  190.0130  177.3400  140.1700 C   0  0  0  0  0  0  0  0  0  0  0  0
  188.7960  177.7870  140.4690 C   0  0  0  0  0  2  0  0  0  0  0  0
  190.2530  176.7660  138.8120 C   0  0  0  0  0  1  0  0  0  0  0  0
  1 21  1  6  0  0  0
  1 20  1  0  0  0  0
  1 19  1  0  0  0  0
  2  7  1  0  0  0  0
  4 12  1  0  0  0  0
  5 18  2  0  0  0  0
  6  9  2  0  0  0  0
  7  4  2  0  0  0  0
  7  5  1  0  0  0  0
  9  4  1  0  0  0  0
 10 14  1  0  0  0  0
 10 15  1  1  0  0  0
 11  5  1  0  0  0  0
 12  8  2  0  0  0  0
 13 15  1  0  0  0  0
 14  3  1  6  0  0  0
 16  6  1  0  0  0  0
 17  6  1  0  0  0  0
 17  2  2  0  0  0  0
 18  8  1  0  0  0  0
 18 14  1  0  0  0  0
 19 13  1  0  0  0  0
 20 11  1  6  0  0  0
 20 10  1  0  0  0  0
 21 22  1  6  0  0  0
 23 21  1  0  0  0  0
 25 24  1  6  0  0  0
 25 23  1  0  0  0  0
 26 27  2  0  0  0  0
 26 25  1  0  0  0  0
 28 26  1  0  0  0  0
M  END
>  <MODEL>
1

>  <REMARK>
 VINA RESULT:     -11.2      0.000      0.000
  Name = 
  4 active torsions:
  status: ('A' for Active; 'I' for Inactive)
    1  A    between atoms: C_1  and  C_2
    2  A    between atoms: C_2  and  C_3
    3  A    between atoms: C_3  and  C_11
    4  A    between atoms: C_6  and  C_11
                            x       y       z     vdW  Elec       q    Type
                         _______ _______ _______ _____ _____    ______ ____

>  <TORSDO>
F 4

$$$$
=
 OpenBabel11052413283D

 28 31  0  0  1  0  0  0  0  0999 V2000
  189.3890  177.3880  145.1950 C   0  0  1  0  0  3  0  0  0  0  0  0
  185.4750  178.2680  141.7960 C   0  0  0  0  0  3  0  0  0  0  0  0
  186.2540  179.5860  147.2300 F   0  0  0  0  0  0  0  0  0  0  0  0
  183.5710  178.7460  143.2290 C   0  0  0  0  0  0  0  0  0  0  0  0
  185.7450  178.2520  144.2350 C   0  0  0  0  0  0  0  0  0  0  0  0
  183.3140  178.7610  140.8200 C   0  0  0  0  0  0  0  0  0  0  0  0
  184.9420  178.4200  143.0860 C   0  0  0  0  0  0  0  0  0  0  0  0
  183.8070  178.7240  145.6330 C   0  0  0  0  0  3  0  0  0  0  0  0
  182.7680  178.9150  142.0980 C   0  0  0  0  0  3  0  0  0  0  0  0
  187.2770  177.5260  146.5710 C   0  0  2  0  0  3  0  0  0  0  0  0
  187.1830  177.8100  144.0920 C   0  0  0  0  0  2  0  0  0  0  0  0
  183.0150  178.8950  144.4980 C   0  0  0  0  0  3  0  0  0  0  0  0
  189.1200  176.7030  147.5740 C   0  0  0  0  0  2  0  0  0  0  0  0
  185.9780  178.3060  146.7750 C   0  0  2  0  0  3  0  0  0  0  0  0
  188.0740  177.6280  147.7250 O   0  0  0  0  0  0  0  0  0  0  0  0
  182.5130  178.9320  139.7000 O   0  0  0  0  0  1  0  0  0  0  0  0
  184.6640  178.4380  140.6700 C   0  0  0  0  0  3  0  0  0  0  0  0
  185.1610  178.3940  145.5160 C   0  0  0  0  0  0  0  0  0  0  0  0
  190.1080  177.2200  146.5360 C   0  0  0  0  0  2  0  0  0  0  0  0
  188.0210  178.0740  145.3400 C   0  0  2  0  0  3  0  0  0  0  0  0
  190.2740  178.0480  144.1240 C   0  0  2  0  0  3  0  0  0  0  0  0
  190.6770  179.3320  144.4980 O   0  0  0  0  0  1  0  0  0  0  0  0
  189.7670  177.9990  142.6710 C   0  0  0  0  0  2  0  0  0  0  0  0
  190.2880  175.6740  142.2280 O   0  0  0  0  0  1  0  0  0  0  0  0
  190.4160  176.9730  141.7320 C   0  0  1  0  0  3  0  0  0  0  0  0
  189.9690  177.0840  140.2980 C   0  0  0  0  0  0  0  0  0  0  0  0
  190.7100  176.5420  139.3350 C   0  0  0  0  0  2  0  0  0  0  0  0
  188.6370  177.6600  139.9410 C   0  0  0  0  0  1  0  0  0  0  0  0
  1 21  1  6  0  0  0
  1 20  1  0  0  0  0
  1 19  1  0  0  0  0
  2  7  1  0  0  0  0
  4 12  1  0  0  0  0
  5 18  2  0  0  0  0
  6  9  2  0  0  0  0
  7  4  2  0  0  0  0
  7  5  1  0  0  0  0
  9  4  1  0  0  0  0
 10 14  1  0  0  0  0
 10 15  1  1  0  0  0
 11  5  1  0  0  0  0
 12  8  2  0  0  0  0
 13 15  1  0  0  0  0
 14  3  1  6  0  0  0
 16  6  1  0  0  0  0
 17  6  1  0  0  0  0
 17  2  2  0  0  0  0
 18  8  1  0  0  0  0
 18 14  1  0  0  0  0
 19 13  1  0  0  0  0
 20 11  1  6  0  0  0
 20 10  1  0  0  0  0
 21 22  1  1  0  0  0
 23 21  1  0  0  0  0
 25 24  1  1  0  0  0
 25 23  1  0  0  0  0
 26 25  1  0  0  0  0
 27 26  2  0  0  0  0
 28 26  1  0  0  0  0
M  END
>  <MODEL>
2

>  <REMARK>
 VINA RESULT:     -10.0      1.415      2.097
  Name = 
  4 active torsions:
  status: ('A' for Active; 'I' for Inactive)
    1  A    between atoms: C_1  and  C_2
    2  A    between atoms: C_2  and  C_3
    3  A    between atoms: C_3  and  C_11
    4  A    between atoms: C_6  and  C_11
                            x       y       z     vdW  Elec       q    Type
                         _______ _______ _______ _____ _____    ______ ____

>  <TORSDO>
F 4

$$$$
=
 OpenBabel11052413283D

 28 31  0  0  1  0  0  0  0  0999 V2000
  189.8280  176.7670  142.0380 C   0  0  1  0  0  3  0  0  0  0  0  0
  184.8310  178.2650  142.6960 C   0  0  0  0  0  3  0  0  0  0  0  0
  189.4660  178.7340  145.8850 F   0  0  0  0  0  0  0  0  0  0  0  0
  184.6420  178.5830  145.0970 C   0  0  0  0  0  0  0  0  0  0  0  0
  186.7780  177.8780  144.1380 C   0  0  0  0  0  0  0  0  0  0  0  0
  182.7260  178.9650  143.6660 C   0  0  0  0  0  0  0  0  0  0  0  0
  185.4240  178.2390  143.9680 C   0  0  0  0  0  0  0  0  0  0  0  0
  186.5390  178.1970  146.5420 C   0  0  0  0  0  3  0  0  0  0  0  0
  183.3010  178.9440  144.9400 C   0  0  0  0  0  3  0  0  0  0  0  0
  189.4120  176.7650  144.5280 C   0  0  2  0  0  3  0  0  0  0  0  0
  187.5900  177.4170  142.9500 C   0  0  0  0  0  2  0  0  0  0  0  0
  185.2040  178.5590  146.3730 C   0  0  0  0  0  3  0  0  0  0  0  0
  191.2800  175.7450  143.7850 C   0  0  0  0  0  2  0  0  0  0  0  0
  188.7830  177.5460  145.6820 C   0  0  2  0  0  3  0  0  0  0  0  0
  190.8020  176.6690  144.7270 O   0  0  0  0  0  0  0  0  0  0  0  0
  181.3940  179.3250  143.5140 O   0  0  0  0  0  1  0  0  0  0  0  0
  183.4890  178.6260  142.5470 C   0  0  0  0  0  3  0  0  0  0  0  0
  187.3280  177.8450  145.4420 C   0  0  0  0  0  0  0  0  0  0  0  0
  191.2640  176.3790  142.4000 C   0  0  0  0  0  2  0  0  0  0  0  0
  189.0970  177.4660  143.1960 C   0  0  2  0  0  3  0  0  0  0  0  0
  189.7380  177.5510  140.7180 C   0  0  2  0  0  3  0  0  0  0  0  0
  188.5270  177.3260  140.0580 O   0  0  0  0  0  1  0  0  0  0  0  0
  190.9450  177.4590  139.7660 C   0  0  0  0  0  2  0  0  0  0  0  0
  190.2360  177.5160  137.4490 O   0  0  0  0  0  1  0  0  0  0  0  0
  190.7480  176.6900  138.4520 C   0  0  1  0  0  3  0  0  0  0  0  0
  191.9650  175.9290  137.9990 C   0  0  0  0  0  0  0  0  0  0  0  0
  193.1670  176.4900  138.1050 C   0  0  0  0  0  2  0  0  0  0  0  0
  191.8750  174.5000  137.5710 C   0  0  0  0  0  1  0  0  0  0  0  0
  1 21  1  6  0  0  0
  1 19  1  0  0  0  0
  1 20  1  0  0  0  0
  2  7  1  0  0  0  0
  4 12  1  0  0  0  0
  5 18  2  0  0  0  0
  6  9  2  0  0  0  0
  7  5  1  0  0  0  0
  7  4  2  0  0  0  0
  9  4  1  0  0  0  0
 10 15  1  1  0  0  0
 10 14  1  0  0  0  0
 11  5  1  0  0  0  0
 12  8  2  0  0  0  0
 13 15  1  0  0  0  0
 14  3  1  6  0  0  0
 16  6  1  0  0  0  0
 17  2  2  0  0  0  0
 17  6  1  0  0  0  0
 18 14  1  0  0  0  0
 18  8  1  0  0  0  0
 19 13  1  0  0  0  0
 20 11  1  6  0  0  0
 20 10  1  0  0  0  0
 21 22  1  6  0  0  0
 23 21  1  0  0  0  0
 25 24  1  6  0  0  0
 25 23  1  0  0  0  0
 26 27  2  0  0  0  0
 26 25  1  0  0  0  0
 28 26  1  0  0  0  0
M  END
>  <MODEL>
3

>  <REMARK>
 VINA RESULT:      -9.7      1.740      2.678
  Name = 
  4 active torsions:
  status: ('A' for Active; 'I' for Inactive)
    1  A    between atoms: C_1  and  C_2
    2  A    between atoms: C_2  and  C_3
    3  A    between atoms: C_3  and  C_11
    4  A    between atoms: C_6  and  C_11
                            x       y       z     vdW  Elec       q    Type
                         _______ _______ _______ _____ _____    ______ ____

>  <TORSDO>
F 4

$$$$
=
 OpenBabel11052413283D

 28 31  0  0  1  0  0  0  0  0999 V2000
  189.5900  176.9430  141.8890 C   0  0  1  0  0  3  0  0  0  0  0  0
  184.5890  178.3790  142.6470 C   0  0  0  0  0  3  0  0  0  0  0  0
  189.2190  178.6280  145.8670 F   0  0  0  0  0  0  0  0  0  0  0  0
  184.3960  178.5230  145.0650 C   0  0  0  0  0  0  0  0  0  0  0  0
  186.5350  177.8940  144.0590 C   0  0  0  0  0  0  0  0  0  0  0  0
  182.4810  179.0030  143.6620 C   0  0  0  0  0  0  0  0  0  0  0  0
  185.1810  178.2630  143.9140 C   0  0  0  0  0  0  0  0  0  0  0  0
  186.2930  178.0390  146.4800 C   0  0  0  0  0  3  0  0  0  0  0  0
  183.0550  178.8910  144.9320 C   0  0  0  0  0  3  0  0  0  0  0  0
  189.1710  176.7610  144.3720 C   0  0  2  0  0  3  0  0  0  0  0  0
  187.3490  177.5200  142.8430 C   0  0  0  0  0  2  0  0  0  0  0  0
  184.9570  178.4090  146.3360 C   0  0  0  0  0  3  0  0  0  0  0  0
  191.0420  175.8010  143.5590 C   0  0  0  0  0  2  0  0  0  0  0  0
  188.5390  177.4560  145.5780 C   0  0  2  0  0  3  0  0  0  0  0  0
  190.5610  176.6540  144.5650 O   0  0  0  0  0  0  0  0  0  0  0  0
  181.1480  179.3700  143.5350 O   0  0  0  0  0  1  0  0  0  0  0  0
  183.2460  178.7470  142.5230 C   0  0  0  0  0  3  0  0  0  0  0  0
  187.0840  177.7690  145.3580 C   0  0  0  0  0  0  0  0  0  0  0  0
  191.0260  176.5330  142.2230 C   0  0  0  0  0  2  0  0  0  0  0  0
  188.8560  177.5550  143.0930 C   0  0  2  0  0  3  0  0  0  0  0  0
  189.4990  177.8200  140.6290 C   0  0  2  0  0  3  0  0  0  0  0  0
  188.7760  178.9930  140.8590 O   0  0  0  0  0  1  0  0  0  0  0  0
  189.0750  177.1240  139.3220 C   0  0  0  0  0  2  0  0  0  0  0  0
  189.4300  178.2120  137.1860 O   0  0  0  0  0  1  0  0  0  0  0  0
  188.5000  178.0080  138.2070 C   0  0  1  0  0  3  0  0  0  0  0  0
  187.1680  177.5430  137.6820 C   0  0  0  0  0  0  0  0  0  0  0  0
  187.0930  176.4020  136.9990 C   0  0  0  0  0  2  0  0  0  0  0  0
  185.9010  178.2530  138.0330 C   0  0  0  0  0  1  0  0  0  0  0  0
  1 21  1  6  0  0  0
  1 19  1  0  0  0  0
  1 20  1  0  0  0  0
  2  7  1  0  0  0  0
  4 12  1  0  0  0  0
  5 18  2  0  0  0  0
  6  9  2  0  0  0  0
  7  5  1  0  0  0  0
  7  4  2  0  0  0  0
  9  4  1  0  0  0  0
 10 15  1  1  0  0  0
 10 14  1  0  0  0  0
 11  5  1  0  0  0  0
 12  8  2  0  0  0  0
 13 15  1  0  0  0  0
 14  3  1  6  0  0  0
 16  6  1  0  0  0  0
 17  2  2  0  0  0  0
 17  6  1  0  0  0  0
 18 14  1  0  0  0  0
 18  8  1  0  0  0  0
 19 13  1  0  0  0  0
 20 11  1  6  0  0  0
 20 10  1  0  0  0  0
 21 22  1  1  0  0  0
 23 21  1  0  0  0  0
 25 24  1  6  0  0  0
 25 23  1  0  0  0  0
 26 28  1  0  0  0  0
 26 25  1  0  0  0  0
 27 26  2  0  0  0  0
M  END
>  <MODEL>
4

>  <REMARK>
 VINA RESULT:      -9.3      2.014      2.891
  Name = 
  4 active torsions:
  status: ('A' for Active; 'I' for Inactive)
    1  A    between atoms: C_1  and  C_2
    2  A    between atoms: C_2  and  C_3
    3  A    between atoms: C_3  and  C_11
    4  A    between atoms: C_6  and  C_11
                            x       y       z     vdW  Elec       q    Type
                         _______ _______ _______ _____ _____    ______ ____

>  <TORSDO>
F 4

$$$$
=
 OpenBabel11052413283D

 28 31  0  0  1  0  0  0  0  0999 V2000
  189.0030  177.4240  139.2700 C   0  0  1  0  0  3  0  0  0  0  0  0
  186.2060  178.0580  143.6780 C   0  0  0  0  0  3  0  0  0  0  0  0
  191.7100  178.4760  142.4900 F   0  0  0  0  0  0  0  0  0  0  0  0
  187.8630  177.8390  145.4420 C   0  0  0  0  0  0  0  0  0  0  0  0
  188.5560  177.6470  143.1040 C   0  0  0  0  0  0  0  0  0  0  0  0
  185.5420  178.2470  145.9990 C   0  0  0  0  0  0  0  0  0  0  0  0
  187.5400  177.8480  144.0620 C   0  0  0  0  0  0  0  0  0  0  0  0
  190.1810  177.4210  144.9050 C   0  0  0  0  0  3  0  0  0  0  0  0
  186.8650  178.0390  146.3980 C   0  0  0  0  0  3  0  0  0  0  0  0
  190.5510  176.8450  141.1790 C   0  0  2  0  0  3  0  0  0  0  0  0
  188.2030  177.5590  141.6380 C   0  0  0  0  0  2  0  0  0  0  0  0
  189.1790  177.6260  145.8510 C   0  0  0  0  0  3  0  0  0  0  0  0
  191.2020  176.2660  139.0990 C   0  0  0  0  0  2  0  0  0  0  0  0
  191.0240  177.2750  142.5680 C   0  0  2  0  0  3  0  0  0  0  0  0
  191.6300  176.8990  140.2770 O   0  0  0  0  0  0  0  0  0  0  0  0
  184.5540  178.4470  146.9520 O   0  0  0  0  0  1  0  0  0  0  0  0
  185.2140  178.2570  144.6420 C   0  0  0  0  0  3  0  0  0  0  0  0
  189.8840  177.4180  143.5390 C   0  0  0  0  0  0  0  0  0  0  0  0
  190.2140  177.1680  138.3700 C   0  0  0  0  0  2  0  0  0  0  0  0
  189.4040  177.7600  140.7160 C   0  0  2  0  0  3  0  0  0  0  0  0
  188.0230  178.4470  138.6730 C   0  0  2  0  0  3  0  0  0  0  0  0
  186.7190  178.2540  139.1370 O   0  0  0  0  0  1  0  0  0  0  0  0
  188.0710  178.6540  137.1470 C   0  0  0  0  0  2  0  0  0  0  0  0
  186.8050  178.5110  135.0850 O   0  0  0  0  0  1  0  0  0  0  0  0
  187.0640  177.8670  136.2970 C   0  0  1  0  0  3  0  0  0  0  0  0
  187.4210  176.4170  136.1090 C   0  0  0  0  0  0  0  0  0  0  0  0
  188.3770  176.0830  135.2440 C   0  0  0  0  0  2  0  0  0  0  0  0
  186.8340  175.3510  136.9760 C   0  0  0  0  0  1  0  0  0  0  0  0
  1 21  1  6  0  0  0
  1 20  1  0  0  0  0
  2  7  2  0  0  0  0
  2 17  1  0  0  0  0
  4 12  1  0  0  0  0
  4  9  2  0  0  0  0
  5 18  2  0  0  0  0
  5  7  1  0  0  0  0
  6  9  1  0  0  0  0
  6 16  1  0  0  0  0
  7  4  1  0  0  0  0
  8 12  2  0  0  0  0
 10 15  1  6  0  0  0
 10 14  1  0  0  0  0
 11  5  1  0  0  0  0
 13 15  1  0  0  0  0
 14  3  1  6  0  0  0
 14 18  1  0  0  0  0
 17  6  2  0  0  0  0
 18  8  1  0  0  0  0
 19 13  1  0  0  0  0
 19  1  1  0  0  0  0
 20 10  1  0  0  0  0
 20 11  1  1  0  0  0
 21 22  1  6  0  0  0
 23 21  1  0  0  0  0
 25 24  1  6  0  0  0
 25 23  1  0  0  0  0
 26 25  1  0  0  0  0
 26 28  1  0  0  0  0
 27 26  2  0  0  0  0
M  END
>  <MODEL>
5

>  <REMARK>
 VINA RESULT:      -8.9      3.006      5.371
  Name = 
  4 active torsions:
  status: ('A' for Active; 'I' for Inactive)
    1  A    between atoms: C_1  and  C_2
    2  A    between atoms: C_2  and  C_3
    3  A    between atoms: C_3  and  C_11
    4  A    between atoms: C_6  and  C_11
                            x       y       z     vdW  Elec       q    Type
                         _______ _______ _______ _____ _____    ______ ____

>  <TORSDO>
F 4

$$$$
=
 OpenBabel11052413283D

 28 31  0  0  1  0  0  0  0  0999 V2000
  182.5200  178.4970  140.0120 C   0  0  1  0  0  3  0  0  0  0  0  0
  186.7740  177.6160  142.9750 C   0  0  0  0  0  3  0  0  0  0  0  0
  181.2590  177.9820  144.1280 F   0  0  0  0  0  0  0  0  0  0  0  0
  186.0220  178.1450  145.2250 C   0  0  0  0  0  0  0  0  0  0  0  0
  184.4640  178.3520  143.3510 C   0  0  0  0  0  0  0  0  0  0  0  0
  188.3000  177.4150  144.8450 C   0  0  0  0  0  0  0  0  0  0  0  0
  185.7500  178.0370  143.8390 C   0  0  0  0  0  0  0  0  0  0  0  0
  183.7570  178.8850  145.6210 C   0  0  0  0  0  3  0  0  0  0  0  0
  187.2920  177.8340  145.7180 C   0  0  0  0  0  3  0  0  0  0  0  0
  181.9700  179.3720  142.3160 C   0  0  2  0  0  3  0  0  0  0  0  0
  184.1950  178.3320  141.8640 C   0  0  0  0  0  2  0  0  0  0  0  0
  185.0260  178.5680  146.1030 C   0  0  0  0  0  3  0  0  0  0  0  0
  180.6030  179.9640  140.6240 C   0  0  0  0  0  2  0  0  0  0  0  0
  182.0580  179.0690  143.8110 C   0  0  2  0  0  3  0  0  0  0  0  0
  180.6190  179.4460  141.9290 O   0  0  0  0  0  0  0  0  0  0  0  0
  189.5590  177.1060  145.3390 O   0  0  0  0  0  1  0  0  0  0  0  0
  188.0420  177.3070  143.4770 C   0  0  0  0  0  3  0  0  0  0  0  0
  183.4680  178.7930  144.2560 C   0  0  0  0  0  0  0  0  0  0  0  0
  181.0890  178.8980  139.6500 C   0  0  0  0  0  2  0  0  0  0  0  0
  182.7080  178.2790  141.5220 C   0  0  2  0  0  3  0  0  0  0  0  0
  183.0390  177.3180  139.1720 C   0  0  2  0  0  3  0  0  0  0  0  0
  182.9790  177.5850  137.8020 O   0  0  0  0  0  1  0  0  0  0  0  0
  182.4920  175.9200  139.5160 C   0  0  0  0  0  2  0  0  0  0  0  0
  181.7750  174.4100  137.7620 O   0  0  0  0  0  1  0  0  0  0  0  0
  181.3360  175.3850  138.6590 C   0  0  1  0  0  3  0  0  0  0  0  0
  180.1410  174.9330  139.4550 C   0  0  0  0  0  0  0  0  0  0  0  0
  179.5800  173.7570  139.1860 C   0  0  0  0  0  2  0  0  0  0  0  0
  179.6570  175.7050  140.6390 C   0  0  0  0  0  1  0  0  0  0  0  0
  1 21  1  6  0  0  0
  1 20  1  0  0  0  0
  2 17  2  0  0  0  0
  2  7  1  0  0  0  0
  4  9  1  0  0  0  0
  4 12  1  0  0  0  0
  5  7  1  0  0  0  0
  5 18  2  0  0  0  0
  6 16  1  0  0  0  0
  6  9  2  0  0  0  0
  7  4  2  0  0  0  0
  8 12  2  0  0  0  0
 10 15  1  6  0  0  0
 10 14  1  0  0  0  0
 11  5  1  0  0  0  0
 13 15  1  0  0  0  0
 14  3  1  6  0  0  0
 14 18  1  0  0  0  0
 17  6  1  0  0  0  0
 18  8  1  0  0  0  0
 19  1  1  0  0  0  0
 19 13  1  0  0  0  0
 20 11  1  6  0  0  0
 20 10  1  0  0  0  0
 21 22  1  6  0  0  0
 21 23  1  0  0  0  0
 25 24  1  1  0  0  0
 25 26  1  0  0  0  0
 25 23  1  0  0  0  0
 26 28  1  0  0  0  0
 27 26  2  0  0  0  0
M  END
>  <MODEL>
6

>  <REMARK>
 VINA RESULT:      -8.8      3.773      8.184
  Name = 
  4 active torsions:
  status: ('A' for Active; 'I' for Inactive)
    1  A    between atoms: C_1  and  C_2
    2  A    between atoms: C_2  and  C_3
    3  A    between atoms: C_3  and  C_11
    4  A    between atoms: C_6  and  C_11
                            x       y       z     vdW  Elec       q    Type
                         _______ _______ _______ _____ _____    ______ ____

>  <TORSDO>
F 4

$$$$
=
 OpenBabel11052413283D

 28 31  0  0  1  0  0  0  0  0999 V2000
  187.5740  178.2480  146.8540 C   0  0  1  0  0  3  0  0  0  0  0  0
  188.0840  178.3010  141.6210 C   0  0  0  0  0  3  0  0  0  0  0  0
  190.8670  175.6500  145.7560 F   0  0  0  0  0  0  0  0  0  0  0  0
  190.3500  177.5030  141.2600 C   0  0  0  0  0  0  0  0  0  0  0  0
  189.4890  177.7000  143.5400 C   0  0  0  0  0  0  0  0  0  0  0  0
  188.9550  178.0970  139.3710 C   0  0  0  0  0  0  0  0  0  0  0  0
  189.2990  177.8370  142.1480 C   0  0  0  0  0  0  0  0  0  0  0  0
  191.7590  176.9170  143.1320 C   0  0  0  0  0  3  0  0  0  0  0  0
  190.1720  177.6340  139.8800 C   0  0  0  0  0  3  0  0  0  0  0  0
  190.0120  177.7960  146.3770 C   0  0  2  0  0  3  0  0  0  0  0  0
  188.4070  178.1460  144.4960 C   0  0  0  0  0  2  0  0  0  0  0  0
  191.5700  177.0470  141.7570 C   0  0  0  0  0  3  0  0  0  0  0  0
  189.4460  178.3170  148.4960 C   0  0  0  0  0  2  0  0  0  0  0  0
  190.9770  177.0060  145.4930 C   0  0  2  0  0  3  0  0  0  0  0  0
  190.1660  177.3970  147.7170 O   0  0  0  0  0  0  0  0  0  0  0  0
  188.7820  178.2240  137.9990 O   0  0  0  0  0  1  0  0  0  0  0  0
  187.9140  178.4300  140.2390 C   0  0  0  0  0  3  0  0  0  0  0  0
  190.7380  177.2480  144.0280 C   0  0  0  0  0  0  0  0  0  0  0  0
  187.9530  178.0650  148.3250 C   0  0  0  0  0  2  0  0  0  0  0  0
  188.5670  177.5660  145.9000 C   0  0  2  0  0  3  0  0  0  0  0  0
  186.1130  177.8670  146.5630 C   0  0  2  0  0  3  0  0  0  0  0  0
  186.0190  176.6970  145.8060 O   0  0  0  0  0  1  0  0  0  0  0  0
  185.1930  178.9810  146.0280 C   0  0  0  0  0  2  0  0  0  0  0  0
  182.9030  179.0030  145.2360 O   0  0  0  0  0  1  0  0  0  0  0  0
  184.2030  178.6040  144.9180 C   0  0  1  0  0  3  0  0  0  0  0  0
  184.6190  179.0580  143.5440 C   0  0  0  0  0  0  0  0  0  0  0  0
  185.4020  180.1280  143.4160 C   0  0  0  0  0  2  0  0  0  0  0  0
  184.2990  178.2530  142.3270 C   0  0  0  0  0  1  0  0  0  0  0  0
  1 21  1  1  0  0  0
  1 19  1  0  0  0  0
  2  7  1  0  0  0  0
  4 12  2  0  0  0  0
  4  7  1  0  0  0  0
  5 18  1  0  0  0  0
  5 11  1  0  0  0  0
  6  9  2  0  0  0  0
  6 17  1  0  0  0  0
  7  5  2  0  0  0  0
  8 18  2  0  0  0  0
  9  4  1  0  0  0  0
 10 15  1  1  0  0  0
 12  8  1  0  0  0  0
 14  3  1  6  0  0  0
 14 10  1  0  0  0  0
 15 13  1  0  0  0  0
 16  6  1  0  0  0  0
 17  2  2  0  0  0  0
 18 14  1  0  0  0  0
 19 13  1  0  0  0  0
 20 11  1  6  0  0  0
 20 10  1  0  0  0  0
 20  1  1  0  0  0  0
 21 22  1  6  0  0  0
 23 21  1  0  0  0  0
 25 24  1  1  0  0  0
 25 23  1  0  0  0  0
 26 25  1  0  0  0  0
 27 26  2  0  0  0  0
 28 26  1  0  0  0  0
M  END
>  <MODEL>
7

>  <REMARK>
 VINA RESULT:      -8.7      1.929      5.652
  Name = 
  4 active torsions:
  status: ('A' for Active; 'I' for Inactive)
    1  A    between atoms: C_1  and  C_2
    2  A    between atoms: C_2  and  C_3
    3  A    between atoms: C_3  and  C_11
    4  A    between atoms: C_6  and  C_11
                            x       y       z     vdW  Elec       q    Type
                         _______ _______ _______ _____ _____    ______ ____

>  <TORSDO>
F 4

$$$$
=
 OpenBabel11052413283D

 28 31  0  0  1  0  0  0  0  0999 V2000
  183.3290  178.7810  143.1150 C   0  0  1  0  0  3  0  0  0  0  0  0
  188.3230  177.9330  141.7060 C   0  0  0  0  0  3  0  0  0  0  0  0
  183.8870  180.2140  139.0610 F   0  0  0  0  0  0  0  0  0  0  0  0
  188.2550  178.0250  139.2790 C   0  0  0  0  0  0  0  0  0  0  0  0
  186.1980  178.3610  140.5580 C   0  0  0  0  0  0  0  0  0  0  0  0
  190.3490  177.6060  140.4210 C   0  0  0  0  0  0  0  0  0  0  0  0
  187.5860  178.1080  140.5240 C   0  0  0  0  0  0  0  0  0  0  0  0
  186.1740  178.4310  138.1220 C   0  0  0  0  0  3  0  0  0  0  0  0
  189.6290  177.7760  139.2350 C   0  0  0  0  0  3  0  0  0  0  0  0
  183.3140  178.4810  140.6080 C   0  0  2  0  0  3  0  0  0  0  0  0
  185.4610  178.3530  141.8770 C   0  0  0  0  0  2  0  0  0  0  0  0
  187.5450  178.1870  138.0900 C   0  0  0  0  0  3  0  0  0  0  0  0
  181.3310  178.4070  141.6760 C   0  0  0  0  0  2  0  0  0  0  0  0
  184.0280  178.8580  139.3100 C   0  0  2  0  0  3  0  0  0  0  0  0
  182.0020  178.9880  140.5880 O   0  0  0  0  0  0  0  0  0  0  0  0
  191.7150  177.3600  140.3730 O   0  0  0  0  0  1  0  0  0  0  0  0
  189.6980  177.6840  141.6530 C   0  0  0  0  0  3  0  0  0  0  0  0
  185.4900  178.5090  139.3400 C   0  0  0  0  0  0  0  0  0  0  0  0
  181.8270  179.0370  142.9720 C   0  0  0  0  0  2  0  0  0  0  0  0
  184.0980  179.0390  141.8090 C   0  0  2  0  0  3  0  0  0  0  0  0
  183.9440  179.5100  144.3210 C   0  0  2  0  0  3  0  0  0  0  0  0
  184.8860  180.4650  143.9300 O   0  0  0  0  0  1  0  0  0  0  0  0
  184.4530  178.6350  145.4820 C   0  0  0  0  0  2  0  0  0  0  0  0
  185.7010  179.5320  147.3550 O   0  0  0  0  0  1  0  0  0  0  0  0
  185.8240  178.9810  146.0780 C   0  0  1  0  0  3  0  0  0  0  0  0
  186.8150  177.8480  146.0370 C   0  0  0  0  0  0  0  0  0  0  0  0
  186.8850  177.0770  144.9550 C   0  0  0  0  0  2  0  0  0  0  0  0
  187.8240  177.6570  147.1220 C   0  0  0  0  0  1  0  0  0  0  0  0
  1 21  1  1  0  0  0
  4  7  1  0  0  0  0
  5 11  1  0  0  0  0
  6 17  2  0  0  0  0
  7  5  1  0  0  0  0
  7  2  2  0  0  0  0
  8 18  1  0  0  0  0
  9  4  2  0  0  0  0
  9  6  1  0  0  0  0
 10 15  1  6  0  0  0
 10 20  1  0  0  0  0
 12  8  2  0  0  0  0
 12  4  1  0  0  0  0
 13 19  1  0  0  0  0
 14  3  1  1  0  0  0
 14 18  1  0  0  0  0
 14 10  1  0  0  0  0
 15 13  1  0  0  0  0
 16  6  1  0  0  0  0
 17  2  1  0  0  0  0
 18  5  2  0  0  0  0
 19  1  1  0  0  0  0
 20 11  1  1  0  0  0
 20  1  1  0  0  0  0
 21 22  1  6  0  0  0
 21 23  1  0  0  0  0
 23 25  1  0  0  0  0
 25 24  1  1  0  0  0
 26 25  1  0  0  0  0
 26 28  1  0  0  0  0
 27 26  2  0  0  0  0
M  END
>  <MODEL>
8

>  <REMARK>
 VINA RESULT:      -8.6      2.909      7.957
  Name = 
  4 active torsions:
  status: ('A' for Active; 'I' for Inactive)
    1  A    between atoms: C_1  and  C_2
    2  A    between atoms: C_2  and  C_3
    3  A    between atoms: C_3  and  C_11
    4  A    between atoms: C_6  and  C_11
                            x       y       z     vdW  Elec       q    Type
                         _______ _______ _______ _____ _____    ______ ____

>  <TORSDO>
F 4

$$$$
=
 OpenBabel11052413283D

 28 31  0  0  1  0  0  0  0  0999 V2000
  188.9180  177.2270  139.1220 C   0  0  1  0  0  3  0  0  0  0  0  0
  186.3250  178.0130  143.6290 C   0  0  0  0  0  3  0  0  0  0  0  0
  191.7750  178.3320  142.1900 F   0  0  0  0  0  0  0  0  0  0  0  0
  188.0560  177.8210  145.3240 C   0  0  0  0  0  0  0  0  0  0  0  0
  188.6430  177.5580  142.9650 C   0  0  0  0  0  0  0  0  0  0  0  0
  185.7660  178.2730  145.9710 C   0  0  0  0  0  0  0  0  0  0  0  0
  187.6730  177.7970  143.9610 C   0  0  0  0  0  0  0  0  0  0  0  0
  190.3440  177.3610  144.6990 C   0  0  0  0  0  3  0  0  0  0  0  0
  187.1030  178.0590  146.3180 C   0  0  0  0  0  3  0  0  0  0  0  0
  190.5420  176.6800  140.9760 C   0  0  2  0  0  3  0  0  0  0  0  0
  188.2240  177.4340  141.5180 C   0  0  0  0  0  2  0  0  0  0  0  0
  189.3860  177.6030  145.6820 C   0  0  0  0  0  3  0  0  0  0  0  0
  191.0930  176.0380  138.8870 C   0  0  0  0  0  2  0  0  0  0  0  0
  191.0800  177.1420  142.3310 C   0  0  2  0  0  3  0  0  0  0  0  0
  191.5800  176.6970  140.0270 O   0  0  0  0  0  0  0  0  0  0  0  0
  184.8230  178.5100  146.9620 O   0  0  0  0  0  1  0  0  0  0  0  0
  185.3780  178.2500  144.6300 C   0  0  0  0  0  3  0  0  0  0  0  0
  189.9860  177.3240  143.3470 C   0  0  0  0  0  0  0  0  0  0  0  0
  190.0840  176.9320  138.1770 C   0  0  0  0  0  2  0  0  0  0  0  0
  189.3860  177.5960  140.5390 C   0  0  2  0  0  3  0  0  0  0  0  0
  187.9230  178.2450  138.5410 C   0  0  2  0  0  3  0  0  0  0  0  0
  188.5650  179.3930  138.0700 O   0  0  0  0  0  1  0  0  0  0  0  0
  186.6860  178.5800  139.3950 C   0  0  0  0  0  2  0  0  0  0  0  0
  185.0910  177.5500  137.8890 O   0  0  0  0  0  1  0  0  0  0  0  0
  185.3360  178.6800  138.6710 C   0  0  1  0  0  3  0  0  0  0  0  0
  184.1780  179.0100  139.5760 C   0  0  0  0  0  0  0  0  0  0  0  0
  183.1810  179.7630  139.1170 C   0  0  0  0  0  2  0  0  0  0  0  0
  184.0480  178.3930  140.9300 C   0  0  0  0  0  1  0  0  0  0  0  0
  1 21  1  6  0  0  0
  1 20  1  0  0  0  0
  2  7  2  0  0  0  0
  2 17  1  0  0  0  0
  4 12  1  0  0  0  0
  4  9  2  0  0  0  0
  5 18  2  0  0  0  0
  5  7  1  0  0  0  0
  6  9  1  0  0  0  0
  6 16  1  0  0  0  0
  7  4  1  0  0  0  0
  8 12  2  0  0  0  0
 10 15  1  6  0  0  0
 10 14  1  0  0  0  0
 11  5  1  0  0  0  0
 13 15  1  0  0  0  0
 14  3  1  6  0  0  0
 14 18  1  0  0  0  0
 17  6  2  0  0  0  0
 18  8  1  0  0  0  0
 19 13  1  0  0  0  0
 19  1  1  0  0  0  0
 20 10  1  0  0  0  0
 20 11  1  1  0  0  0
 21 22  1  1  0  0  0
 21 23  1  0  0  0  0
 25 24  1  1  0  0  0
 25 23  1  0  0  0  0
 25 26  1  0  0  0  0
 26 28  1  0  0  0  0
 27 26  2  0  0  0  0
M  END
>  <MODEL>
9

>  <REMARK>
 VINA RESULT:      -8.6      2.610      5.613
  Name = 
  4 active torsions:
  status: ('A' for Active; 'I' for Inactive)
    1  A    between atoms: C_1  and  C_2
    2  A    between atoms: C_2  and  C_3
    3  A    between atoms: C_3  and  C_11
    4  A    between atoms: C_6  and  C_11
                            x       y       z     vdW  Elec       q    Type
                         _______ _______ _______ _____ _____    ______ ____

>  <TORSDO>
F 4

$$$$
