=
 OpenBabel11052415463D

 34 39  0  0  1  0  0  0  0  0999 V2000
  190.6950  177.4340  139.8820 C   0  0  0  0  0  0  0  0  0  0  0  0
  188.2640  176.9040  139.6640 C   0  0  0  0  0  2  0  0  0  0  0  0
  189.8670  177.6400  142.6370 C   0  0  2  0  0  0  0  0  0  0  0  0
  191.3410  177.8100  142.2540 C   0  0  0  0  0  2  0  0  0  0  0  0
  191.6150  177.3440  140.8510 C   0  0  0  0  0  3  0  0  0  0  0  0
  189.0050  178.3590  141.5910 C   0  0  0  0  0  2  0  0  0  0  0  0
  189.2890  177.9270  140.1430 C   0  0  1  0  0  3  0  0  0  0  0  0
  189.6520  178.3210  143.9740 C   0  0  0  0  0  1  0  0  0  0  0  0
  188.6040  176.2620  138.3050 C   0  0  0  0  0  2  0  0  0  0  0  0
  191.0340  176.9050  138.5180 C   0  0  0  0  0  2  0  0  0  0  0  0
  189.8320  176.8400  137.5480 C   0  0  1  0  0  0  0  0  0  0  0  0
  189.1540  175.9750  135.1950 C   0  0  0  0  0  2  0  0  0  0  0  0
  191.7960  174.1590  137.2880 C   0  0  0  0  0  2  0  0  0  0  0  0
  194.1240  175.0440  137.0060 C   0  0  0  0  0  2  0  0  0  0  0  0
  189.2670  173.7170  137.1920 C   0  0  0  0  0  2  0  0  0  0  0  0
  186.8230  175.2390  134.6780 C   0  0  0  0  0  3  0  0  0  0  0  0
  185.8080  173.2990  135.7110 C   0  0  0  0  0  3  0  0  0  0  0  0
  193.8540  176.2260  135.0200 N   0  0  0  0  0  2  0  0  0  0  0  0
  185.7360  174.3730  134.8210 C   0  0  0  0  0  3  0  0  0  0  0  0
  188.0670  173.9390  136.3150 C   0  0  0  0  0  0  0  0  0  0  0  0
  187.9870  175.0410  135.4270 C   0  0  0  0  0  0  0  0  0  0  0  0
  186.9680  173.0870  136.4590 C   0  0  0  0  0  3  0  0  0  0  0  0
  192.9250  174.4740  136.3040 C   0  0  2  0  0  3  0  0  0  0  0  0
  194.5860  176.1880  136.2260 N   0  0  0  0  0  2  0  0  0  0  0  0
  191.5310  176.5370  135.6860 C   0  0  0  0  0  2  0  0  0  0  0  0
  192.6040  175.5220  135.2510 C   0  0  1  0  0  3  0  0  0  0  0  0
  190.4680  174.4450  136.6160 C   0  0  1  0  0  3  0  0  0  0  0  0
  190.2340  175.9450  136.2960 C   0  0  1  0  0  0  0  0  0  0  0  0
  189.4830  176.1870  142.7760 C   0  0  0  0  0  0  0  0  0  0  0  0
  188.2750  175.8620  142.9320 O   0  0  0  0  0  1  0  0  0  0  0  0
  190.4610  175.1980  142.8120 O   0  0  0  0  0  0  0  0  0  0  0  0
  189.5320  178.3020  137.1230 C   0  0  0  0  0  2  0  0  0  0  0  0
  187.6820  178.6050  135.6610 F   0  0  0  0  0  0  0  0  0  0  0  0
  188.0540  178.6430  136.9910 C   0  0  0  0  0  2  0  0  0  0  0  0
  1  7  1  0  0  0  0
  1  5  2  0  0  0  0
  3 29  1  0  0  0  0
  3  8  1  1  0  0  0
  4  3  1  0  0  0  0
  5  4  1  0  0  0  0
  6  3  1  0  0  0  0
  7  2  1  1  0  0  0
  7  6  1  0  0  0  0
  9  2  1  0  0  0  0
 10  1  1  0  0  0  0
 11 32  1  6  0  0  0
 11  9  1  0  0  0  0
 11 10  1  0  0  0  0
 12 21  1  0  0  0  0
 16 19  2  0  0  0  0
 16 21  1  0  0  0  0
 17 22  2  0  0  0  0
 18 26  1  0  0  0  0
 18 24  1  0  0  0  0
 19 17  1  0  0  0  0
 20 22  1  0  0  0  0
 20 15  1  0  0  0  0
 21 20  2  0  0  0  0
 23 14  1  1  0  0  0
 23 13  1  0  0  0  0
 24 14  1  0  0  0  0
 25 28  1  0  0  0  0
 26 25  1  1  0  0  0
 26 23  1  0  0  0  0
 27 15  1  1  0  0  0
 27 13  1  0  0  0  0
 28 12  1  6  0  0  0
 28 27  1  0  0  0  0
 28 11  1  0  0  0  0
 29 31  2  0  0  0  0
 29 30  1  0  0  0  0
 33 34  1  0  0  0  0
 34 32  1  0  0  0  0
M  END
>  <MODEL>
1

>  <REMARK>
 VINA RESULT:      -6.5      0.000      0.000
  Name = 
  4 active torsions:
  status: ('A' for Active; 'I' for Inactive)
    1  A    between atoms: C_7  and  C_11
    2  A    between atoms: C_9  and  C_18
    3  A    between atoms: C_9  and  C_33
    4  A    between atoms: C_33  and  C_34
                            x       y       z     vdW  Elec       q    Type
                         _______ _______ _______ _____ _____    ______ ____

>  <TORSDO>
F 4

$$$$
=
 OpenBabel11052415463D

 34 39  0  0  1  0  0  0  0  0999 V2000
  182.7890  175.3650  138.3400 C   0  0  0  0  0  0  0  0  0  0  0  0
  180.5530  176.0250  137.4450 C   0  0  0  0  0  2  0  0  0  0  0  0
  182.3300  173.2300  136.4550 C   0  0  2  0  0  0  0  0  0  0  0  0
  183.6500  173.3140  137.2290 C   0  0  0  0  0  2  0  0  0  0  0  0
  183.8290  174.6500  137.8930 C   0  0  0  0  0  3  0  0  0  0  0  0
  181.1820  173.5800  137.4120 C   0  0  0  0  0  2  0  0  0  0  0  0
  181.3560  174.9260  138.1330 C   0  0  1  0  0  3  0  0  0  0  0  0
  182.1450  171.7960  136.0020 C   0  0  0  0  0  1  0  0  0  0  0  0
  180.8440  177.4430  137.9750 C   0  0  0  0  0  2  0  0  0  0  0  0
  183.0510  176.7110  138.9530 C   0  0  0  0  0  2  0  0  0  0  0  0
  181.7770  177.5460  139.2130 C   0  0  1  0  0  0  0  0  0  0  0  0
  183.7080  179.1720  139.8250 C   0  0  0  0  0  2  0  0  0  0  0  0
  180.0480  180.1370  140.4010 C   0  0  0  0  0  2  0  0  0  0  0  0
  178.9310  181.1800  138.4150 C   0  0  0  0  0  2  0  0  0  0  0  0
  181.6740  179.0180  142.0460 C   0  0  0  0  0  2  0  0  0  0  0  0
  185.4370  178.5880  141.5320 C   0  0  0  0  0  3  0  0  0  0  0  0
  184.9080  178.2950  143.8760 C   0  0  0  0  0  3  0  0  0  0  0  0
  180.8090  181.7720  137.1760 N   0  0  0  0  0  2  0  0  0  0  0  0
  185.8450  178.3180  142.8410 C   0  0  0  0  0  3  0  0  0  0  0  0
  183.1420  178.8280  142.3030 C   0  0  0  0  0  0  0  0  0  0  0  0
  184.0890  178.8310  141.2480 C   0  0  0  0  0  0  0  0  0  0  0  0
  183.5610  178.5440  143.6060 C   0  0  0  0  0  3  0  0  0  0  0  0
  180.0880  181.2650  139.3680 C   0  0  2  0  0  3  0  0  0  0  0  0
  179.4550  181.3900  137.0680 N   0  0  0  0  0  2  0  0  0  0  0  0
  181.9290  179.8840  138.2340 C   0  0  0  0  0  2  0  0  0  0  0  0
  181.2990  181.2730  138.4500 C   0  0  1  0  0  3  0  0  0  0  0  0
  181.4700  179.7080  140.7100 C   0  0  1  0  0  3  0  0  0  0  0  0
  182.2040  179.0490  139.5120 C   0  0  1  0  0  0  0  0  0  0  0  0
  182.3320  174.1180  135.2350 C   0  0  0  0  0  0  0  0  0  0  0  0
  181.2570  174.3610  134.6240 O   0  0  0  0  0  0  0  0  0  0  0  0
  183.5270  174.6150  134.7260 O   0  0  0  0  0  1  0  0  0  0  0  0
  181.0760  176.9050  140.4400 C   0  0  0  0  0  2  0  0  0  0  0  0
  179.1840  175.4930  140.7190 F   0  0  0  0  0  0  0  0  0  0  0  0
  179.5650  176.7570  140.3130 C   0  0  0  0  0  2  0  0  0  0  0  0
  1 10  1  0  0  0  0
  2  9  1  0  0  0  0
  2  7  1  0  0  0  0
  3  8  1  6  0  0  0
  3  4  1  0  0  0  0
  3  6  1  0  0  0  0
  4  5  1  0  0  0  0
  5  1  2  0  0  0  0
  7  6  1  6  0  0  0
  7  1  1  0  0  0  0
  9 11  1  0  0  0  0
 10 11  1  0  0  0  0
 11 28  1  0  0  0  0
 11 32  1  1  0  0  0
 12 21  1  0  0  0  0
 15 20  1  0  0  0  0
 16 19  1  0  0  0  0
 18 26  1  0  0  0  0
 19 17  2  0  0  0  0
 20 22  2  0  0  0  0
 21 16  2  0  0  0  0
 21 20  1  0  0  0  0
 22 17  1  0  0  0  0
 23 14  1  6  0  0  0
 23 13  1  0  0  0  0
 24 18  1  0  0  0  0
 24 14  1  0  0  0  0
 26 25  1  6  0  0  0
 26 23  1  0  0  0  0
 27 13  1  6  0  0  0
 27 15  1  0  0  0  0
 28 25  1  6  0  0  0
 28 12  1  0  0  0  0
 28 27  1  0  0  0  0
 29  3  1  0  0  0  0
 30 29  2  0  0  0  0
 31 29  1  0  0  0  0
 34 32  1  0  0  0  0
 34 33  1  0  0  0  0
M  END
>  <MODEL>
2

>  <REMARK>
 VINA RESULT:      -6.1      7.324     10.654
  Name = 
  4 active torsions:
  status: ('A' for Active; 'I' for Inactive)
    1  A    between atoms: C_7  and  C_11
    2  A    between atoms: C_9  and  C_18
    3  A    between atoms: C_9  and  C_33
    4  A    between atoms: C_33  and  C_34
                            x       y       z     vdW  Elec       q    Type
                         _______ _______ _______ _____ _____    ______ ____

>  <TORSDO>
F 4

$$$$
=
 OpenBabel11052415463D

 34 39  0  0  1  0  0  0  0  0999 V2000
  182.0060  176.2410  136.7640 C   0  0  0  0  0  0  0  0  0  0  0  0
  182.1980  175.1040  138.9800 C   0  0  0  0  0  2  0  0  0  0  0  0
  180.6390  173.7640  136.2000 C   0  0  2  0  0  0  0  0  0  0  0  0
  180.7220  174.8650  135.1380 C   0  0  0  0  0  2  0  0  0  0  0  0
  181.1690  176.1760  135.7210 C   0  0  0  0  0  3  0  0  0  0  0  0
  181.9960  173.6700  136.9110 C   0  0  0  0  0  2  0  0  0  0  0  0
  182.4950  175.0050  137.4870 C   0  0  1  0  0  3  0  0  0  0  0  0
  180.3870  172.4490  135.4900 C   0  0  0  0  0  1  0  0  0  0  0  0
  182.4700  176.4960  139.5840 C   0  0  0  0  0  2  0  0  0  0  0  0
  182.3680  177.5910  137.3140 C   0  0  0  0  0  2  0  0  0  0  0  0
  183.1410  177.5420  138.6520 C   0  0  1  0  0  0  0  0  0  0  0  0
  184.5610  179.4540  139.6880 C   0  0  0  0  0  2  0  0  0  0  0  0
  180.7910  179.2230  140.3150 C   0  0  0  0  0  2  0  0  0  0  0  0
  179.3830  180.3380  138.5670 C   0  0  0  0  0  2  0  0  0  0  0  0
  182.7000  178.2520  141.7350 C   0  0  0  0  0  2  0  0  0  0  0  0
  186.4220  178.9980  141.2910 C   0  0  0  0  0  3  0  0  0  0  0  0
  186.0500  178.0520  143.4870 C   0  0  0  0  0  3  0  0  0  0  0  0
  180.9960  181.6850  137.5690 N   0  0  0  0  0  2  0  0  0  0  0  0
  186.9190  178.5630  142.5220 C   0  0  0  0  0  3  0  0  0  0  0  0
  184.1690  178.4200  142.0020 C   0  0  0  0  0  0  0  0  0  0  0  0
  185.0540  178.9190  141.0140 C   0  0  0  0  0  0  0  0  0  0  0  0
  184.6800  177.9750  143.2260 C   0  0  0  0  0  3  0  0  0  0  0  0
  180.4940  180.5210  139.5610 C   0  0  2  0  0  3  0  0  0  0  0  0
  179.7980  180.9810  137.3240 N   0  0  0  0  0  2  0  0  0  0  0  0
  182.6180  179.9890  138.2240 C   0  0  0  0  0  2  0  0  0  0  0  0
  181.6340  181.0660  138.7180 C   0  0  1  0  0  3  0  0  0  0  0  0
  182.2820  179.1420  140.5790 C   0  0  1  0  0  3  0  0  0  0  0  0
  183.1420  178.9970  139.2950 C   0  0  1  0  0  0  0  0  0  0  0  0
  179.5120  174.0020  137.1750 C   0  0  0  0  0  0  0  0  0  0  0  0
  178.9310  175.1200  137.2120 O   0  0  0  0  0  0  0  0  0  0  0  0
  179.1520  173.0220  138.0930 O   0  0  0  0  0  1  0  0  0  0  0  0
  184.5810  177.0760  138.3100 C   0  0  0  0  0  2  0  0  0  0  0  0
  186.1140  178.4190  137.0850 F   0  0  0  0  0  0  0  0  0  0  0  0
  185.0880  177.5050  136.9390 C   0  0  0  0  0  2  0  0  0  0  0  0
  1 10  1  0  0  0  0
  1  7  1  0  0  0  0
  2  9  1  0  0  0  0
  3  8  1  6  0  0  0
  3  6  1  0  0  0  0
  3 29  1  0  0  0  0
  4  5  1  0  0  0  0
  4  3  1  0  0  0  0
  5  1  2  0  0  0  0
  7  6  1  6  0  0  0
  7  2  1  0  0  0  0
 10 11  1  0  0  0  0
 11 32  1  6  0  0  0
 11 28  1  0  0  0  0
 11  9  1  0  0  0  0
 12 21  1  0  0  0  0
 15 20  1  0  0  0  0
 16 19  1  0  0  0  0
 18 26  1  0  0  0  0
 19 17  2  0  0  0  0
 20 22  2  0  0  0  0
 21 16  2  0  0  0  0
 21 20  1  0  0  0  0
 22 17  1  0  0  0  0
 23 14  1  6  0  0  0
 23 13  1  0  0  0  0
 24 18  1  0  0  0  0
 24 14  1  0  0  0  0
 26 25  1  6  0  0  0
 26 23  1  0  0  0  0
 27 13  1  6  0  0  0
 27 15  1  0  0  0  0
 28 25  1  6  0  0  0
 28 12  1  0  0  0  0
 28 27  1  0  0  0  0
 29 30  2  0  0  0  0
 29 31  1  0  0  0  0
 34 33  1  0  0  0  0
 34 32  1  0  0  0  0
M  END
>  <MODEL>
3

>  <REMARK>
 VINA RESULT:      -5.7      6.686     10.260
  Name = 
  4 active torsions:
  status: ('A' for Active; 'I' for Inactive)
    1  A    between atoms: C_7  and  C_11
    2  A    between atoms: C_9  and  C_18
    3  A    between atoms: C_9  and  C_33
    4  A    between atoms: C_33  and  C_34
                            x       y       z     vdW  Elec       q    Type
                         _______ _______ _______ _____ _____    ______ ____

>  <TORSDO>
F 4

$$$$
=
 OpenBabel11052415463D

 34 39  0  0  1  0  0  0  0  0999 V2000
  190.1290  176.8570  140.2330 C   0  0  0  0  0  0  0  0  0  0  0  0
  187.8690  177.8350  139.8170 C   0  0  0  0  0  2  0  0  0  0  0  0
  189.4990  177.8500  142.8660 C   0  0  2  0  0  0  0  0  0  0  0  0
  190.7950  177.0720  142.6190 C   0  0  0  0  0  2  0  0  0  0  0  0
  190.7830  176.3650  141.2930 C   0  0  0  0  0  3  0  0  0  0  0  0
  189.2690  178.8010  141.6850 C   0  0  0  0  0  2  0  0  0  0  0  0
  189.2860  178.1100  140.3120 C   0  0  1  0  0  3  0  0  0  0  0  0
  189.6890  178.6870  144.1150 C   0  0  0  0  0  1  0  0  0  0  0  0
  187.8030  176.9540  138.5550 C   0  0  0  0  0  2  0  0  0  0  0  0
  190.1300  176.0650  138.9560 C   0  0  0  0  0  2  0  0  0  0  0  0
  189.1570  176.6000  137.8800 C   0  0  1  0  0  0  0  0  0  0  0  0
  189.9700  174.3200  136.9370 C   0  0  0  0  0  2  0  0  0  0  0  0
  188.0460  176.8000  134.7440 C   0  0  0  0  0  2  0  0  0  0  0  0
  185.5530  176.5870  134.8890 C   0  0  0  0  0  2  0  0  0  0  0  0
  190.5900  176.5700  135.0260 C   0  0  0  0  0  2  0  0  0  0  0  0
  192.3940  173.7240  136.8280 C   0  0  0  0  0  3  0  0  0  0  0  0
  193.9640  174.8990  135.4090 C   0  0  0  0  0  3  0  0  0  0  0  0
  185.3960  174.4620  135.8240 N   0  0  0  0  0  2  0  0  0  0  0  0
  193.6900  173.8870  136.3320 C   0  0  0  0  0  3  0  0  0  0  0  0
  191.6400  175.5880  135.4590 C   0  0  0  0  0  0  0  0  0  0  0  0
  191.3650  174.5740  136.4110 C   0  0  0  0  0  0  0  0  0  0  0  0
  192.9440  175.7500  134.9790 C   0  0  0  0  0  3  0  0  0  0  0  0
  186.8390  175.8700  134.5940 C   0  0  2  0  0  3  0  0  0  0  0  0
  184.7510  175.7150  135.7420 N   0  0  0  0  0  2  0  0  0  0  0  0
  187.5520  174.9150  136.8650 C   0  0  0  0  0  2  0  0  0  0  0  0
  186.8040  174.6820  135.5390 C   0  0  1  0  0  3  0  0  0  0  0  0
  189.2090  176.0030  135.3010 C   0  0  1  0  0  3  0  0  0  0  0  0
  188.9870  175.4930  136.7500 C   0  0  1  0  0  0  0  0  0  0  0  0
  188.3210  176.9310  143.0840 C   0  0  0  0  0  0  0  0  0  0  0  0
  188.4960  175.6870  143.1780 O   0  0  0  0  0  1  0  0  0  0  0  0
  187.0260  177.4370  143.1040 O   0  0  0  0  0  0  0  0  0  0  0  0
  189.8000  177.8920  137.3110 C   0  0  0  0  0  2  0  0  0  0  0  0
  189.1550  180.1520  137.6690 F   0  0  0  0  0  0  0  0  0  0  0  0
  188.8180  179.0060  136.9740 C   0  0  0  0  0  2  0  0  0  0  0  0
  1  7  1  0  0  0  0
  1  5  2  0  0  0  0
  3 29  1  0  0  0  0
  3  8  1  1  0  0  0
  4  3  1  0  0  0  0
  5  4  1  0  0  0  0
  6  3  1  0  0  0  0
  7  2  1  1  0  0  0
  7  6  1  0  0  0  0
  9  2  1  0  0  0  0
 10  1  1  0  0  0  0
 11 32  1  6  0  0  0
 11  9  1  0  0  0  0
 11 10  1  0  0  0  0
 14 24  1  0  0  0  0
 15 27  1  0  0  0  0
 15 20  1  0  0  0  0
 17 19  1  0  0  0  0
 19 16  2  0  0  0  0
 20 21  2  0  0  0  0
 21 16  1  0  0  0  0
 21 12  1  0  0  0  0
 22 17  2  0  0  0  0
 22 20  1  0  0  0  0
 23 13  1  1  0  0  0
 23 14  1  0  0  0  0
 23 26  1  0  0  0  0
 24 18  1  0  0  0  0
 26 18  1  0  0  0  0
 26 25  1  1  0  0  0
 27 13  1  1  0  0  0
 27 28  1  0  0  0  0
 28 25  1  1  0  0  0
 28 12  1  0  0  0  0
 28 11  1  0  0  0  0
 29 31  2  0  0  0  0
 29 30  1  0  0  0  0
 34 32  1  0  0  0  0
 34 33  1  0  0  0  0
M  END
>  <MODEL>
4

>  <REMARK>
 VINA RESULT:      -5.6      2.467      4.503
  Name = 
  4 active torsions:
  status: ('A' for Active; 'I' for Inactive)
    1  A    between atoms: C_7  and  C_11
    2  A    between atoms: C_9  and  C_18
    3  A    between atoms: C_9  and  C_33
    4  A    between atoms: C_33  and  C_34
                            x       y       z     vdW  Elec       q    Type
                         _______ _______ _______ _____ _____    ______ ____

>  <TORSDO>
F 4

$$$$
=
 OpenBabel11052415463D

 34 39  0  0  1  0  0  0  0  0999 V2000
  188.7450  177.2050  139.2100 C   0  0  0  0  0  0  0  0  0  0  0  0
  186.4960  178.1250  139.7850 C   0  0  0  0  0  2  0  0  0  0  0  0
  189.1620  177.9120  141.9760 C   0  0  2  0  0  0  0  0  0  0  0  0
  190.2680  177.2160  141.1760 C   0  0  0  0  0  2  0  0  0  0  0  0
  189.7530  176.6400  139.8870 C   0  0  0  0  0  3  0  0  0  0  0  0
  188.4980  178.9630  141.0760 C   0  0  0  0  0  2  0  0  0  0  0  0
  187.9930  178.4090  139.7340 C   0  0  1  0  0  3  0  0  0  0  0  0
  189.8110  178.6310  143.1410 C   0  0  0  0  0  1  0  0  0  0  0  0
  185.9560  177.3680  138.5560 C   0  0  0  0  0  2  0  0  0  0  0  0
  188.2620  176.5420  137.9530 C   0  0  0  0  0  2  0  0  0  0  0  0
  186.9530  177.1370  137.3870 C   0  0  1  0  0  0  0  0  0  0  0  0
  185.4090  176.8490  135.3180 C   0  0  0  0  0  2  0  0  0  0  0  0
  186.4370  173.8440  137.4560 C   0  0  0  0  0  2  0  0  0  0  0  0
  188.6160  172.7990  136.7880 C   0  0  0  0  0  2  0  0  0  0  0  0
  184.3450  175.3170  137.6880 C   0  0  0  0  0  2  0  0  0  0  0  0
  183.1690  177.9470  135.1770 C   0  0  0  0  0  3  0  0  0  0  0  0
  181.3390  177.3720  136.6530 C   0  0  0  0  0  3  0  0  0  0  0  0
  188.8340  173.6870  134.6490 N   0  0  0  0  0  2  0  0  0  0  0  0
  181.8440  178.1180  135.5860 C   0  0  0  0  0  3  0  0  0  0  0  0
  183.4800  176.2630  136.9040 C   0  0  0  0  0  0  0  0  0  0  0  0
  184.0000  177.0350  135.8350 C   0  0  0  0  0  0  0  0  0  0  0  0
  182.1560  176.4520  137.3130 C   0  0  0  0  0  3  0  0  0  0  0  0
  187.2440  173.2000  136.3260 C   0  0  2  0  0  3  0  0  0  0  0  0
  189.5650  173.2240  135.7640 N   0  0  0  0  0  2  0  0  0  0  0  0
  187.5570  175.5960  135.4620 C   0  0  0  0  0  2  0  0  0  0  0  0
  187.5240  174.0920  135.1280 C   0  0  1  0  0  3  0  0  0  0  0  0
  185.5670  174.9400  136.8720 C   0  0  1  0  0  3  0  0  0  0  0  0
  186.3670  176.1390  136.2950 C   0  0  1  0  0  0  0  0  0  0  0  0
  188.1560  176.9280  142.5240 C   0  0  0  0  0  0  0  0  0  0  0  0
  186.9840  177.3040  142.7950 O   0  0  0  0  0  0  0  0  0  0  0  0
  188.5310  175.6200  142.8090 O   0  0  0  0  0  1  0  0  0  0  0  0
  187.3290  178.5040  136.7560 C   0  0  0  0  0  2  0  0  0  0  0  0
  189.4130  179.6190  137.0100 F   0  0  0  0  0  0  0  0  0  0  0  0
  188.7760  178.6230  136.2940 C   0  0  0  0  0  2  0  0  0  0  0  0
  1  7  1  0  0  0  0
  1  5  2  0  0  0  0
  3 29  1  0  0  0  0
  3  8  1  1  0  0  0
  4  3  1  0  0  0  0
  5  4  1  0  0  0  0
  6  3  1  0  0  0  0
  7  2  1  1  0  0  0
  7  6  1  0  0  0  0
  9  2  1  0  0  0  0
 10  1  1  0  0  0  0
 11 32  1  6  0  0  0
 11 10  1  0  0  0  0
 11  9  1  0  0  0  0
 12 21  1  0  0  0  0
 16 19  2  0  0  0  0
 16 21  1  0  0  0  0
 17 22  2  0  0  0  0
 18 26  1  0  0  0  0
 18 24  1  0  0  0  0
 19 17  1  0  0  0  0
 20 22  1  0  0  0  0
 20 15  1  0  0  0  0
 21 20  2  0  0  0  0
 23 14  1  1  0  0  0
 23 13  1  0  0  0  0
 24 14  1  0  0  0  0
 25 28  1  0  0  0  0
 26 25  1  1  0  0  0
 26 23  1  0  0  0  0
 27 13  1  1  0  0  0
 27 15  1  0  0  0  0
 28 12  1  6  0  0  0
 28 27  1  0  0  0  0
 28 11  1  0  0  0  0
 29 30  2  0  0  0  0
 29 31  1  0  0  0  0
 34 32  1  0  0  0  0
 34 33  1  0  0  0  0
M  END
>  <MODEL>
5

>  <REMARK>
 VINA RESULT:      -5.2      2.729      3.941
  Name = 
  4 active torsions:
  status: ('A' for Active; 'I' for Inactive)
    1  A    between atoms: C_7  and  C_11
    2  A    between atoms: C_9  and  C_18
    3  A    between atoms: C_9  and  C_33
    4  A    between atoms: C_33  and  C_34
                            x       y       z     vdW  Elec       q    Type
                         _______ _______ _______ _____ _____    ______ ____

>  <TORSDO>
F 4

$$$$
=
 OpenBabel11052415463D

 34 39  0  0  1  0  0  0  0  0999 V2000
  183.5430  176.6020  136.8240 C   0  0  0  0  0  0  0  0  0  0  0  0
  182.5330  175.1950  138.6240 C   0  0  0  0  0  2  0  0  0  0  0  0
  184.0610  173.9650  135.7770 C   0  0  2  0  0  0  0  0  0  0  0  0
  184.4380  175.2100  134.9690 C   0  0  0  0  0  2  0  0  0  0  0  0
  183.7970  176.4530  135.5180 C   0  0  0  0  0  3  0  0  0  0  0  0
  184.4120  174.2160  137.2500 C   0  0  0  0  0  2  0  0  0  0  0  0
  183.7990  175.5000  137.8290 C   0  0  1  0  0  3  0  0  0  0  0  0
  184.9100  172.8120  135.2800 C   0  0  0  0  0  1  0  0  0  0  0  0
  181.7420  176.4460  139.0530 C   0  0  0  0  0  2  0  0  0  0  0  0
  182.8600  177.8570  137.2860 C   0  0  0  0  0  2  0  0  0  0  0  0
  182.4020  177.8220  138.7620 C   0  0  1  0  0  0  0  0  0  0  0  0
  181.6730  179.7410  140.3540 C   0  0  0  0  0  2  0  0  0  0  0  0
  179.2950  178.3700  137.6850 C   0  0  0  0  0  2  0  0  0  0  0  0
  179.5330  179.4510  135.4360 C   0  0  0  0  0  2  0  0  0  0  0  0
  179.5250  177.6350  140.1370 C   0  0  0  0  0  2  0  0  0  0  0  0
  181.5560  179.4310  142.8300 C   0  0  0  0  0  3  0  0  0  0  0  0
  179.9800  177.9260  143.8830 C   0  0  0  0  0  3  0  0  0  0  0  0
  180.6850  181.3770  136.0500 N   0  0  0  0  0  2  0  0  0  0  0  0
  181.0080  178.8650  143.9840 C   0  0  0  0  0  3  0  0  0  0  0  0
  180.0260  178.1200  141.4670 C   0  0  0  0  0  0  0  0  0  0  0  0
  181.0840  179.0580  141.5680 C   0  0  0  0  0  0  0  0  0  0  0  0
  179.4940  177.5510  142.6290 C   0  0  0  0  0  3  0  0  0  0  0  0
  179.2760  179.6820  136.8980 C   0  0  2  0  0  3  0  0  0  0  0  0
  180.4940  180.4580  134.9960 N   0  0  0  0  0  2  0  0  0  0  0  0
  181.6110  180.0700  137.8860 C   0  0  0  0  0  2  0  0  0  0  0  0
  180.3380  180.6960  137.2850 C   0  0  1  0  0  3  0  0  0  0  0  0
  179.8970  178.6290  139.0520 C   0  0  1  0  0  3  0  0  0  0  0  0
  181.3960  179.0290  139.0150 C   0  0  1  0  0  0  0  0  0  0  0  0
  182.6080  173.5960  135.6030 C   0  0  0  0  0  0  0  0  0  0  0  0
  182.0890  172.7040  136.3270 O   0  0  0  0  0  1  0  0  0  0  0  0
  181.8480  174.1770  134.5940 O   0  0  0  0  0  0  0  0  0  0  0  0
  183.6850  177.9680  139.6220 C   0  0  0  0  0  2  0  0  0  0  0  0
  185.8340  178.2040  138.6340 F   0  0  0  0  0  0  0  0  0  0  0  0
  184.7320  178.9210  139.0600 C   0  0  0  0  0  2  0  0  0  0  0  0
  1 10  1  0  0  0  0
  1  7  1  0  0  0  0
  2  9  1  0  0  0  0
  3  8  1  6  0  0  0
  3  6  1  0  0  0  0
  4  5  1  0  0  0  0
  4  3  1  0  0  0  0
  5  1  2  0  0  0  0
  7  6  1  6  0  0  0
  7  2  1  0  0  0  0
 10 11  1  0  0  0  0
 11 28  1  0  0  0  0
 11  9  1  0  0  0  0
 11 32  1  1  0  0  0
 12 21  1  0  0  0  0
 15 20  1  0  0  0  0
 16 19  1  0  0  0  0
 17 19  2  0  0  0  0
 18 26  1  0  0  0  0
 20 21  1  0  0  0  0
 20 22  2  0  0  0  0
 21 16  2  0  0  0  0
 22 17  1  0  0  0  0
 23 14  1  6  0  0  0
 23 26  1  0  0  0  0
 23 13  1  0  0  0  0
 24 14  1  0  0  0  0
 24 18  1  0  0  0  0
 26 25  1  6  0  0  0
 27 13  1  6  0  0  0
 27 15  1  0  0  0  0
 28 25  1  6  0  0  0
 28 27  1  0  0  0  0
 28 12  1  0  0  0  0
 29  3  1  0  0  0  0
 29 30  1  0  0  0  0
 31 29  2  0  0  0  0
 33 34  1  0  0  0  0
 34 32  1  0  0  0  0
M  END
>  <MODEL>
6

>  <REMARK>
 VINA RESULT:      -5.1      7.332     10.389
  Name = 
  4 active torsions:
  status: ('A' for Active; 'I' for Inactive)
    1  A    between atoms: C_7  and  C_11
    2  A    between atoms: C_9  and  C_18
    3  A    between atoms: C_9  and  C_33
    4  A    between atoms: C_33  and  C_34
                            x       y       z     vdW  Elec       q    Type
                         _______ _______ _______ _____ _____    ______ ____

>  <TORSDO>
F 4

$$$$
=
 OpenBabel11052415463D

 34 39  0  0  1  0  0  0  0  0999 V2000
  182.2220  177.9120  137.8610 C   0  0  0  0  0  0  0  0  0  0  0  0
  182.3530  175.9470  139.3960 C   0  0  0  0  0  2  0  0  0  0  0  0
  181.4030  179.1330  140.3430 C   0  0  2  0  0  0  0  0  0  0  0  0
  181.5590  179.9790  139.0750 C   0  0  0  0  0  2  0  0  0  0  0  0
  182.3000  179.2420  137.9950 C   0  0  0  0  0  3  0  0  0  0  0  0
  180.7370  177.8030  139.9620 C   0  0  0  0  0  2  0  0  0  0  0  0
  181.4550  177.0450  138.8350 C   0  0  1  0  0  3  0  0  0  0  0  0
  180.4740  179.8730  141.2840 C   0  0  0  0  0  1  0  0  0  0  0  0
  183.2690  175.2860  138.3480 C   0  0  0  0  0  2  0  0  0  0  0  0
  183.0290  177.2490  136.7820 C   0  0  0  0  0  2  0  0  0  0  0  0
  183.0520  175.7050  136.8680 C   0  0  1  0  0  0  0  0  0  0  0  0
  183.6660  174.1720  134.8640 C   0  0  0  0  0  2  0  0  0  0  0  0
  186.3250  175.3160  137.3700 C   0  0  0  0  0  2  0  0  0  0  0  0
  187.3650  177.5320  136.8320 C   0  0  0  0  0  2  0  0  0  0  0  0
  184.9140  173.1690  137.4200 C   0  0  0  0  0  2  0  0  0  0  0  0
  182.6810  171.8920  134.5940 C   0  0  0  0  0  3  0  0  0  0  0  0
  183.1280  170.0860  136.1420 C   0  0  0  0  0  3  0  0  0  0  0  0
  186.7570  177.7150  134.5940 N   0  0  0  0  0  2  0  0  0  0  0  0
  182.5090  170.5620  134.9850 C   0  0  0  0  0  3  0  0  0  0  0  0
  184.1120  172.2690  136.5240 C   0  0  0  0  0  0  0  0  0  0  0  0
  183.4680  172.7580  135.3600 C   0  0  0  0  0  0  0  0  0  0  0  0
  183.9220  170.9390  136.9120 C   0  0  0  0  0  3  0  0  0  0  0  0
  187.0800  176.1460  136.3290 C   0  0  2  0  0  3  0  0  0  0  0  0
  187.0430  178.4640  135.7550 N   0  0  0  0  0  2  0  0  0  0  0  0
  184.8080  176.3660  135.1580 C   0  0  0  0  0  2  0  0  0  0  0  0
  186.3420  176.3910  135.0240 C   0  0  1  0  0  3  0  0  0  0  0  0
  185.3480  174.4050  136.6530 C   0  0  1  0  0  3  0  0  0  0  0  0
  184.2060  175.1570  135.9200 C   0  0  1  0  0  0  0  0  0  0  0  0
  182.7210  178.9190  141.0450 C   0  0  0  0  0  0  0  0  0  0  0  0
  182.7630  178.2940  142.1390 O   0  0  0  0  0  1  0  0  0  0  0  0
  183.8910  179.4730  140.5370 O   0  0  0  0  0  0  0  0  0  0  0  0
  181.6570  175.2190  136.3960 C   0  0  0  0  0  2  0  0  0  0  0  0
  179.7470  176.4620  135.7160 F   0  0  0  0  0  0  0  0  0  0  0  0
  181.0100  176.0730  135.3120 C   0  0  0  0  0  2  0  0  0  0  0  0
  1  5  2  0  0  0  0
  1  7  1  0  0  0  0
  3 29  1  0  0  0  0
  3  8  1  1  0  0  0
  4  3  1  0  0  0  0
  5  4  1  0  0  0  0
  6  3  1  0  0  0  0
  7  2  1  1  0  0  0
  7  6  1  0  0  0  0
  9  2  1  0  0  0  0
 10 11  1  0  0  0  0
 10  1  1  0  0  0  0
 11 32  1  6  0  0  0
 11  9  1  0  0  0  0
 12 21  1  0  0  0  0
 16 19  2  0  0  0  0
 16 21  1  0  0  0  0
 17 22  2  0  0  0  0
 18 26  1  0  0  0  0
 18 24  1  0  0  0  0
 19 17  1  0  0  0  0
 20 22  1  0  0  0  0
 20 15  1  0  0  0  0
 21 20  2  0  0  0  0
 23 14  1  1  0  0  0
 23 13  1  0  0  0  0
 24 14  1  0  0  0  0
 25 28  1  0  0  0  0
 26 25  1  1  0  0  0
 26 23  1  0  0  0  0
 27 13  1  1  0  0  0
 27 15  1  0  0  0  0
 28 12  1  6  0  0  0
 28 27  1  0  0  0  0
 28 11  1  0  0  0  0
 29 30  1  0  0  0  0
 31 29  2  0  0  0  0
 34 33  1  0  0  0  0
 34 32  1  0  0  0  0
M  END
>  <MODEL>
7

>  <REMARK>
 VINA RESULT:      -5.1      5.014      7.067
  Name = 
  4 active torsions:
  status: ('A' for Active; 'I' for Inactive)
    1  A    between atoms: C_7  and  C_11
    2  A    between atoms: C_9  and  C_18
    3  A    between atoms: C_9  and  C_33
    4  A    between atoms: C_33  and  C_34
                            x       y       z     vdW  Elec       q    Type
                         _______ _______ _______ _____ _____    ______ ____

>  <TORSDO>
F 4

$$$$
=
 OpenBabel11052415463D

 34 39  0  0  1  0  0  0  0  0999 V2000
  183.3970  176.9120  138.4770 C   0  0  0  0  0  0  0  0  0  0  0  0
  182.2200  177.4140  136.3320 C   0  0  0  0  0  2  0  0  0  0  0  0
  181.0130  178.1900  139.4780 C   0  0  2  0  0  0  0  0  0  0  0  0
  182.0510  177.6140  140.4460 C   0  0  0  0  0  2  0  0  0  0  0  0
  183.0310  176.7130  139.7500 C   0  0  0  0  0  3  0  0  0  0  0  0
  181.7540  178.8880  138.3290 C   0  0  0  0  0  2  0  0  0  0  0  0
  182.7890  178.0000  137.6210 C   0  0  1  0  0  3  0  0  0  0  0  0
  180.2080  179.2350  140.2240 C   0  0  0  0  0  1  0  0  0  0  0  0
  183.1170  176.3450  135.6790 C   0  0  0  0  0  2  0  0  0  0  0  0
  184.3490  175.9390  137.8420 C   0  0  0  0  0  2  0  0  0  0  0  0
  184.5160  176.1230  136.3160 C   0  0  1  0  0  0  0  0  0  0  0  0
  184.3430  174.0720  134.7310 C   0  0  0  0  0  2  0  0  0  0  0  0
  186.9330  174.1850  137.5490 C   0  0  0  0  0  2  0  0  0  0  0  0
  189.0880  175.3040  136.9270 C   0  0  0  0  0  2  0  0  0  0  0  0
  184.5590  173.2030  137.6120 C   0  0  0  0  0  2  0  0  0  0  0  0
  182.2740  172.6790  134.5940 C   0  0  0  0  0  3  0  0  0  0  0  0
  181.4740  171.3440  136.4470 C   0  0  0  0  0  3  0  0  0  0  0  0
  188.9030  175.2420  134.6080 N   0  0  0  0  0  2  0  0  0  0  0  0
  181.3450  171.7830  135.1280 C   0  0  0  0  0  3  0  0  0  0  0  0
  183.4780  172.6840  136.7070 C   0  0  0  0  0  0  0  0  0  0  0  0
  183.3350  173.1470  135.3750 C   0  0  0  0  0  0  0  0  0  0  0  0
  182.5340  171.7980  137.2350 C   0  0  0  0  0  3  0  0  0  0  0  0
  188.1190  174.2100  136.5820 C   0  0  2  0  0  3  0  0  0  0  0  0
  189.4500  175.9760  135.6830 N   0  0  0  0  0  2  0  0  0  0  0  0
  186.4900  175.3180  134.9380 C   0  0  0  0  0  2  0  0  0  0  0  0
  187.7750  174.4900  135.1290 C   0  0  1  0  0  3  0  0  0  0  0  0
  185.6850  173.7930  136.7820 C   0  0  1  0  0  3  0  0  0  0  0  0
  185.2420  174.8380  135.7230 C   0  0  1  0  0  0  0  0  0  0  0  0
  180.0640  177.1320  138.9700 C   0  0  0  0  0  0  0  0  0  0  0  0
  179.4890  177.2760  137.8580 O   0  0  0  0  0  0  0  0  0  0  0  0
  179.7530  176.0270  139.7550 O   0  0  0  0  0  1  0  0  0  0  0  0
  185.3780  177.3980  136.1200 C   0  0  0  0  0  2  0  0  0  0  0  0
  185.9570  178.8480  137.9130 F   0  0  0  0  0  0  0  0  0  0  0  0
  186.3500  177.6990  137.2540 C   0  0  0  0  0  2  0  0  0  0  0  0
  1  5  2  0  0  0  0
  3  8  1  1  0  0  0
  3  4  1  0  0  0  0
  5  4  1  0  0  0  0
  6  3  1  0  0  0  0
  7  2  1  6  0  0  0
  7  6  1  0  0  0  0
  7  1  1  0  0  0  0
  9 11  1  0  0  0  0
  9  2  1  0  0  0  0
 10  1  1  0  0  0  0
 11 32  1  6  0  0  0
 11 10  1  0  0  0  0
 12 21  1  0  0  0  0
 16 19  2  0  0  0  0
 16 21  1  0  0  0  0
 17 22  2  0  0  0  0
 18 26  1  0  0  0  0
 18 24  1  0  0  0  0
 19 17  1  0  0  0  0
 20 22  1  0  0  0  0
 20 15  1  0  0  0  0
 21 20  2  0  0  0  0
 23 14  1  1  0  0  0
 23 13  1  0  0  0  0
 24 14  1  0  0  0  0
 25 28  1  0  0  0  0
 26 25  1  1  0  0  0
 26 23  1  0  0  0  0
 27 13  1  1  0  0  0
 27 15  1  0  0  0  0
 28 12  1  6  0  0  0
 28 11  1  0  0  0  0
 28 27  1  0  0  0  0
 29  3  1  0  0  0  0
 29 31  1  0  0  0  0
 30 29  2  0  0  0  0
 32 34  1  0  0  0  0
 34 33  1  0  0  0  0
M  END
>  <MODEL>
8

>  <REMARK>
 VINA RESULT:      -4.9      4.720      6.584
  Name = 
  4 active torsions:
  status: ('A' for Active; 'I' for Inactive)
    1  A    between atoms: C_7  and  C_11
    2  A    between atoms: C_9  and  C_18
    3  A    between atoms: C_9  and  C_33
    4  A    between atoms: C_33  and  C_34
                            x       y       z     vdW  Elec       q    Type
                         _______ _______ _______ _____ _____    ______ ____

>  <TORSDO>
F 4

$$$$
=
 OpenBabel11052415463D

 34 39  0  0  1  0  0  0  0  0999 V2000
  184.8820  177.9910  138.6640 C   0  0  0  0  0  0  0  0  0  0  0  0
  183.9710  177.2970  136.4440 C   0  0  0  0  0  2  0  0  0  0  0  0
  187.3240  177.3130  137.2860 C   0  0  2  0  0  0  0  0  0  0  0  0
  187.3650  177.8850  138.7070 C   0  0  0  0  0  2  0  0  0  0  0  0
  186.0460  178.4760  139.1150 C   0  0  0  0  0  3  0  0  0  0  0  0
  186.1680  176.3070  137.2000 C   0  0  0  0  0  2  0  0  0  0  0  0
  184.8100  176.8740  137.6460 C   0  0  1  0  0  3  0  0  0  0  0  0
  188.6190  176.5640  137.0470 C   0  0  0  0  0  1  0  0  0  0  0  0
  182.6910  178.0720  136.8130 C   0  0  0  0  0  2  0  0  0  0  0  0
  183.6090  178.6670  139.0860 C   0  0  0  0  0  2  0  0  0  0  0  0
  182.3530  178.1830  138.3250 C   0  0  1  0  0  0  0  0  0  0  0  0
  181.3410  179.9550  139.9310 C   0  0  0  0  0  2  0  0  0  0  0  0
  179.1810  178.2030  137.3000 C   0  0  0  0  0  2  0  0  0  0  0  0
  179.1990  179.3060  135.0490 C   0  0  0  0  0  2  0  0  0  0  0  0
  179.5710  177.5200  139.7470 C   0  0  0  0  0  2  0  0  0  0  0  0
  181.3180  179.6330  142.4090 C   0  0  0  0  0  3  0  0  0  0  0  0
  180.0320  177.8880  143.4860 C   0  0  0  0  0  3  0  0  0  0  0  0
  180.0230  181.3980  135.6470 N   0  0  0  0  0  2  0  0  0  0  0  0
  180.8910  178.9860  143.5710 C   0  0  0  0  0  3  0  0  0  0  0  0
  180.0050  178.0850  141.0700 C   0  0  0  0  0  0  0  0  0  0  0  0
  180.8940  179.1860  141.1540 C   0  0  0  0  0  0  0  0  0  0  0  0
  179.5950  177.4360  142.2390 C   0  0  0  0  0  3  0  0  0  0  0  0
  178.9310  179.4930  136.5150 C   0  0  2  0  0  3  0  0  0  0  0  0
  179.9710  180.4580  134.5940 N   0  0  0  0  0  2  0  0  0  0  0  0
  181.1850  180.2660  137.4650 C   0  0  0  0  0  2  0  0  0  0  0  0
  179.8160  180.6700  136.8860 C   0  0  1  0  0  3  0  0  0  0  0  0
  179.7540  178.5620  138.6580 C   0  0  1  0  0  3  0  0  0  0  0  0
  181.1650  179.2050  138.5960 C   0  0  1  0  0  0  0  0  0  0  0  0
  187.2010  178.3980  136.2430 C   0  0  0  0  0  0  0  0  0  0  0  0
  186.8930  178.1050  135.0570 O   0  0  0  0  0  0  0  0  0  0  0  0
  187.5020  179.7180  136.5590 O   0  0  0  0  0  1  0  0  0  0  0  0
  182.0210  176.7730  138.8810 C   0  0  0  0  0  2  0  0  0  0  0  0
  182.4530  174.6180  137.9750 F   0  0  0  0  0  0  0  0  0  0  0  0
  181.6530  175.7350  137.8280 C   0  0  0  0  0  2  0  0  0  0  0  0
  1 10  1  0  0  0  0
  1  5  2  0  0  0  0
  2  9  1  0  0  0  0
  3  8  1  6  0  0  0
  3  4  1  0  0  0  0
  4  5  1  0  0  0  0
  6  3  1  0  0  0  0
  6  7  1  0  0  0  0
  7  2  1  6  0  0  0
  7  1  1  0  0  0  0
  9 11  1  0  0  0  0
 11 28  1  0  0  0  0
 11 32  1  1  0  0  0
 11 10  1  0  0  0  0
 12 21  1  0  0  0  0
 15 20  1  0  0  0  0
 16 19  1  0  0  0  0
 17 19  2  0  0  0  0
 18 26  1  0  0  0  0
 20 21  1  0  0  0  0
 20 22  2  0  0  0  0
 21 16  2  0  0  0  0
 22 17  1  0  0  0  0
 23 14  1  6  0  0  0
 23 26  1  0  0  0  0
 23 13  1  0  0  0  0
 24 14  1  0  0  0  0
 24 18  1  0  0  0  0
 26 25  1  6  0  0  0
 27 13  1  6  0  0  0
 27 15  1  0  0  0  0
 28 25  1  6  0  0  0
 28 27  1  0  0  0  0
 28 12  1  0  0  0  0
 29 31  1  0  0  0  0
 29  3  1  0  0  0  0
 30 29  2  0  0  0  0
 34 33  1  0  0  0  0
 34 32  1  0  0  0  0
M  END
>  <MODEL>
9

>  <REMARK>
 VINA RESULT:      -4.6      7.319      9.851
  Name = 
  4 active torsions:
  status: ('A' for Active; 'I' for Inactive)
    1  A    between atoms: C_7  and  C_11
    2  A    between atoms: C_9  and  C_18
    3  A    between atoms: C_9  and  C_33
    4  A    between atoms: C_33  and  C_34
                            x       y       z     vdW  Elec       q    Type
                         _______ _______ _______ _____ _____    ______ ____

>  <TORSDO>
F 4

$$$$
