=
 OpenBabel11052416393D

 43 48  0  0  1  0  0  0  0  0999 V2000
  188.3280  177.5670  145.4170 C   0  0  0  0  0  0  0  0  0  0  0  0
  190.6410  176.8080  140.8960 C   0  0  2  0  0  3  0  0  0  0  0  0
  189.4520  178.1520  139.3420 C   0  0  1  0  0  3  0  0  0  0  0  0
  189.9410  177.3850  143.6610 C   0  0  0  0  0  0  0  0  0  0  0  0
  187.1890  177.1300  144.5430 C   0  0  0  0  0  2  0  0  0  0  0  0
  188.1090  177.8670  146.6180 O   0  0  0  0  0  0  0  0  0  0  0  0
  188.8580  177.0890  142.6890 C   0  0  0  0  0  0  0  0  0  0  0  0
  189.6690  177.5990  144.9120 N   0  0  0  0  0  0  0  0  0  0  0  0
  187.5920  176.9980  143.1010 C   0  0  0  0  0  3  0  0  0  0  0  0
  188.6320  178.0180  140.4870 O   0  0  0  0  0  0  0  0  0  0  0  0
  189.1600  176.9440  141.2210 C   0  0  1  0  0  3  0  0  0  0  0  0
  191.4940  177.7420  141.7530 C   0  0  0  0  0  2  0  0  0  0  0  0
  190.6930  177.2680  139.4710 C   0  0  2  0  0  3  0  0  0  0  0  0
  191.3710  177.3630  143.2220 C   0  0  0  0  0  2  0  0  0  0  0  0
  188.7380  177.9460  138.0700 N   0  0  0  0  0  0  0  0  0  0  0  0
  189.0110  179.1100  137.2470 C   0  0  0  0  0  1  0  0  0  0  0  0
  187.2870  177.8810  138.2520 C   0  0  0  0  0  2  0  0  0  0  0  0
  186.7000  176.6220  137.6180 C   0  0  1  0  0  3  0  0  0  0  0  0
  185.4090  176.8690  137.1500 O   0  0  0  0  0  1  0  0  0  0  0  0
  187.5550  176.0970  136.5010 C   0  0  0  0  0  3  0  0  0  0  0  0
  187.7290  174.7950  136.2380 C   0  0  0  0  0  0  0  0  0  0  0  0
  188.4410  172.0120  135.8100 C   0  0  0  0  0  2  0  0  0  0  0  0
  187.0090  173.7230  137.0240 C   0  0  2  0  0  3  0  0  0  0  0  0
  188.5120  174.4180  135.0130 C   0  0  0  0  0  2  0  0  0  0  0  0
  189.2990  173.1170  135.1950 C   0  0  1  0  0  3  0  0  0  0  0  0
  187.8440  172.4460  137.1500 C   0  0  0  0  0  2  0  0  0  0  0  0
  190.5670  173.3480  135.9960 C   0  0  0  0  0  1  0  0  0  0  0  0
  185.6290  173.4530  136.4950 C   0  0  0  0  0  0  0  0  0  0  0  0
  182.8520  173.4800  135.7960 C   0  0  0  0  0  2  0  0  0  0  0  0
  183.8680  173.4510  134.6630 C   0  0  0  0  0  2  0  0  0  0  0  0
  183.3310  172.5510  136.9040 C   0  0  0  0  0  2  0  0  0  0  0  0
  185.2050  174.0100  135.1500 C   0  0  0  0  0  2  0  0  0  0  0  0
  184.7440  172.8670  137.3180 C   0  0  0  0  0  3  0  0  0  0  0  0
  190.6190  176.1540  138.6270 O   0  0  0  0  0  0  0  0  0  0  0  0
  191.5610  176.3990  137.6270 C   0  0  0  0  0  2  0  0  0  0  0  0
  192.9420  176.5180  138.2420 C   0  0  0  0  0  2  0  0  0  0  0  0
  193.9290  175.9090  137.3700 N   0  0  0  0  0  2  0  0  0  0  0  0
  194.3990  174.7170  138.0500 C   0  0  0  0  0  2  0  0  0  0  0  0
  195.7730  174.3200  137.5230 C   0  0  1  0  0  3  0  0  0  0  0  0
  196.8740  174.3910  138.5870 C   0  0  2  0  0  3  0  0  0  0  0  0
  196.2600  173.0570  138.2050 C   0  0  0  0  0  2  0  0  0  0  0  0
  197.5010  175.2720  140.5150 C   0  0  0  0  0  1  0  0  0  0  0  0
  196.3850  174.7830  139.8360 O   0  0  0  0  0  0  0  0  0  0  0  0
  1  6  2  0  0  0  0
  2 11  1  0  0  0  0
  2 12  1  1  0  0  0
  3 15  1  6  0  0  0
  3 13  1  0  0  0  0
  3 10  1  0  0  0  0
  4  8  2  0  0  0  0
  5  1  1  0  0  0  0
  7  9  2  0  0  0  0
  7  4  1  0  0  0  0
  8  1  1  0  0  0  0
  9  5  1  0  0  0  0
 11 10  1  6  0  0  0
 11  7  1  0  0  0  0
 12 14  1  0  0  0  0
 13 34  1  6  0  0  0
 13  2  1  0  0  0  0
 14  4  1  0  0  0  0
 15 17  1  0  0  0  0
 16 15  1  0  0  0  0
 18 19  1  6  0  0  0
 18 17  1  0  0  0  0
 20 18  1  0  0  0  0
 21 20  2  0  0  0  0
 21 23  1  0  0  0  0
 22 26  1  0  0  0  0
 23 28  1  6  0  0  0
 23 26  1  0  0  0  0
 24 25  1  0  0  0  0
 24 21  1  0  0  0  0
 25 22  1  0  0  0  0
 25 27  1  1  0  0  0
 28 33  2  0  0  0  0
 29 31  1  0  0  0  0
 30 32  1  0  0  0  0
 30 29  1  0  0  0  0
 31 33  1  0  0  0  0
 32 28  1  0  0  0  0
 35 36  1  0  0  0  0
 35 34  1  0  0  0  0
 37 38  1  0  0  0  0
 37 36  1  0  0  0  0
 39 38  1  1  0  0  0
 39 41  1  0  0  0  0
 39 40  1  0  0  0  0
 40 43  1  1  0  0  0
 41 40  1  0  0  0  0
 43 42  1  0  0  0  0
M  END
>  <MODEL>
1

>  <REMARK>
 VINA RESULT:      -7.7      0.000      0.000
  Name = 
  12 active torsions:
  status: ('A' for Active; 'I' for Inactive)
    1  A    between atoms: C_1  and  C_35
    2  A    between atoms: C_1  and  O_38
    3  A    between atoms: N_2  and  C_6
    4  A    between atoms: N_2  and  C_13
    5  A    between atoms: C_3  and  C_12
    6  A    between atoms: C_6  and  C_12
    7  A    between atoms: C_9  and  C_19
    8  A    between atoms: C_9  and  N_32
    9  A    between atoms: C_11  and  C_14
   10  A    between atoms: C_25  and  O_39
   11  A    between atoms: N_32  and  C_35
   12  A    between atoms: C_34  and  O_38
                            x       y       z     vdW  Elec       q    Type
                         _______ _______ _______ _____ _____    ______ ____

>  <TORSDO>
F 12

$$$$
=
 OpenBabel11052416393D

 43 48  0  0  1  0  0  0  0  0999 V2000
  180.5410  179.2510  141.8570 C   0  0  0  0  0  0  0  0  0  0  0  0
  185.4400  178.0690  142.8380 C   0  0  2  0  0  3  0  0  0  0  0  0
  186.6510  178.7300  140.9070 C   0  0  1  0  0  3  0  0  0  0  0  0
  182.7050  179.0630  142.8550 C   0  0  0  0  0  0  0  0  0  0  0  0
  180.9030  178.3840  140.6870 C   0  0  0  0  0  2  0  0  0  0  0  0
  179.3880  179.7500  141.9280 O   0  0  0  0  0  0  0  0  0  0  0  0
  183.1960  178.3210  141.6670 C   0  0  0  0  0  0  0  0  0  0  0  0
  181.4770  179.4790  142.9180 N   0  0  0  0  0  0  0  0  0  0  0  0
  182.3640  178.0350  140.6630 C   0  0  0  0  0  3  0  0  0  0  0  0
  185.2870  178.6650  140.5380 O   0  0  0  0  0  0  0  0  0  0  0  0
  184.6450  177.9300  141.5470 C   0  0  1  0  0  3  0  0  0  0  0  0
  185.0610  179.3380  143.5990 C   0  0  0  0  0  2  0  0  0  0  0  0
  186.8430  178.2040  142.3300 C   0  0  2  0  0  3  0  0  0  0  0  0
  183.6040  179.2740  144.0330 C   0  0  0  0  0  2  0  0  0  0  0  0
  187.5600  178.0910  139.9390 N   0  0  0  0  0  0  0  0  0  0  0  0
  188.8500  178.7370  140.0910 C   0  0  0  0  0  1  0  0  0  0  0  0
  187.1350  178.3050  138.5540 C   0  0  0  0  0  2  0  0  0  0  0  0
  186.7800  176.9880  137.8690 C   0  0  1  0  0  3  0  0  0  0  0  0
  185.4070  176.9200  137.6260 O   0  0  0  0  0  1  0  0  0  0  0  0
  187.5330  176.7940  136.5840 C   0  0  0  0  0  3  0  0  0  0  0  0
  187.9970  175.6120  136.1590 C   0  0  0  0  0  0  0  0  0  0  0  0
  189.3360  173.1710  135.3290 C   0  0  0  0  0  2  0  0  0  0  0  0
  187.7380  174.3340  136.9240 C   0  0  2  0  0  3  0  0  0  0  0  0
  188.6250  175.5460  134.7950 C   0  0  0  0  0  2  0  0  0  0  0  0
  189.7480  174.5080  134.7140 C   0  0  1  0  0  3  0  0  0  0  0  0
  188.8900  173.3360  136.7830 C   0  0  0  0  0  2  0  0  0  0  0  0
  191.0300  175.0340  135.3340 C   0  0  0  0  0  1  0  0  0  0  0  0
  186.4080  173.7220  136.5840 C   0  0  0  0  0  0  0  0  0  0  0  0
  183.6410  173.0770  136.2280 C   0  0  0  0  0  2  0  0  0  0  0  0
  184.5120  173.1740  134.9840 C   0  0  0  0  0  2  0  0  0  0  0  0
  184.4330  172.3750  137.3240 C   0  0  0  0  0  2  0  0  0  0  0  0
  185.7290  174.0540  135.2700 C   0  0  0  0  0  2  0  0  0  0  0  0
  185.7720  173.0290  137.5430 C   0  0  0  0  0  3  0  0  0  0  0  0
  187.4540  176.9450  142.3330 O   0  0  0  0  0  0  0  0  0  0  0  0
  188.1050  176.8660  143.5660 C   0  0  0  0  0  2  0  0  0  0  0  0
  189.0620  178.0330  143.7160 C   0  0  0  0  0  2  0  0  0  0  0  0
  189.8540  177.8740  144.9220 N   0  0  0  0  0  2  0  0  0  0  0  0
  189.0420  177.1080  145.8490 C   0  0  0  0  0  2  0  0  0  0  0  0
  189.0090  177.7960  147.2080 C   0  0  1  0  0  3  0  0  0  0  0  0
  187.6120  178.2870  147.6040 C   0  0  2  0  0  3  0  0  0  0  0  0
  188.1670  177.0010  148.1860 C   0  0  0  0  0  2  0  0  0  0  0  0
  185.4740  178.5710  147.1170 C   0  0  0  0  0  1  0  0  0  0  0  0
  186.6450  177.9790  146.6430 O   0  0  0  0  0  0  0  0  0  0  0  0
  1  6  2  0  0  0  0
  1  8  1  0  0  0  0
  2 12  1  6  0  0  0
  3 15  1  6  0  0  0
  3 13  1  0  0  0  0
  4  8  2  0  0  0  0
  4 14  1  0  0  0  0
  5  1  1  0  0  0  0
  7  4  1  0  0  0  0
  9  5  1  0  0  0  0
  9  7  2  0  0  0  0
 10  3  1  0  0  0  0
 11 10  1  6  0  0  0
 11  7  1  0  0  0  0
 11  2  1  0  0  0  0
 12 14  1  0  0  0  0
 13 34  1  6  0  0  0
 13  2  1  0  0  0  0
 15 16  1  0  0  0  0
 17 15  1  0  0  0  0
 18 19  1  6  0  0  0
 18 17  1  0  0  0  0
 20 18  1  0  0  0  0
 21 20  2  0  0  0  0
 21 23  1  0  0  0  0
 22 26  1  0  0  0  0
 23 28  1  6  0  0  0
 24 21  1  0  0  0  0
 25 24  1  0  0  0  0
 25 22  1  0  0  0  0
 25 27  1  1  0  0  0
 26 23  1  0  0  0  0
 28 33  2  0  0  0  0
 29 31  1  0  0  0  0
 30 32  1  0  0  0  0
 30 29  1  0  0  0  0
 31 33  1  0  0  0  0
 32 28  1  0  0  0  0
 34 35  1  0  0  0  0
 35 36  1  0  0  0  0
 36 37  1  0  0  0  0
 37 38  1  0  0  0  0
 39 38  1  6  0  0  0
 39 40  1  0  0  0  0
 39 41  1  0  0  0  0
 40 43  1  6  0  0  0
 40 41  1  0  0  0  0
 43 42  1  0  0  0  0
M  END
>  <MODEL>
2

>  <REMARK>
 VINA RESULT:      -7.3      3.280      6.532
  Name = 
  12 active torsions:
  status: ('A' for Active; 'I' for Inactive)
    1  A    between atoms: C_1  and  C_35
    2  A    between atoms: C_1  and  O_38
    3  A    between atoms: N_2  and  C_6
    4  A    between atoms: N_2  and  C_13
    5  A    between atoms: C_3  and  C_12
    6  A    between atoms: C_6  and  C_12
    7  A    between atoms: C_9  and  C_19
    8  A    between atoms: C_9  and  N_32
    9  A    between atoms: C_11  and  C_14
   10  A    between atoms: C_25  and  O_39
   11  A    between atoms: N_32  and  C_35
   12  A    between atoms: C_34  and  O_38
                            x       y       z     vdW  Elec       q    Type
                         _______ _______ _______ _____ _____    ______ ____

>  <TORSDO>
F 12

$$$$
=
 OpenBabel11052416393D

 43 48  0  0  1  0  0  0  0  0999 V2000
  184.4110  172.1440  135.3880 C   0  0  0  0  0  0  0  0  0  0  0  0
  184.8140  177.0400  136.8810 C   0  0  2  0  0  3  0  0  0  0  0  0
  187.1410  177.5090  136.8960 C   0  0  1  0  0  3  0  0  0  0  0  0
  184.1760  174.5150  135.5820 C   0  0  0  0  0  0  0  0  0  0  0  0
  185.3360  172.0460  136.5660 C   0  0  0  0  0  2  0  0  0  0  0  0
  184.1070  171.1040  134.7490 O   0  0  0  0  0  0  0  0  0  0  0  0
  185.1960  174.5350  136.6610 C   0  0  0  0  0  0  0  0  0  0  0  0
  183.8320  173.4000  135.0140 N   0  0  0  0  0  0  0  0  0  0  0  0
  185.7420  173.3940  137.0890 C   0  0  0  0  0  3  0  0  0  0  0  0
  187.0020  176.1010  136.8820 O   0  0  0  0  0  0  0  0  0  0  0  0
  185.6720  175.8370  137.2470 C   0  0  1  0  0  3  0  0  0  0  0  0
  184.3660  176.9880  135.4210 C   0  0  0  0  0  2  0  0  0  0  0  0
  185.7750  178.1760  137.0570 C   0  0  2  0  0  3  0  0  0  0  0  0
  183.4740  175.7780  135.1890 C   0  0  0  0  0  2  0  0  0  0  0  0
  188.1300  178.0000  137.8710 N   0  0  0  0  0  0  0  0  0  0  0  0
  189.1480  178.7030  137.1120 C   0  0  0  0  0  1  0  0  0  0  0  0
  188.8020  176.9070  138.5770 C   0  0  0  0  0  2  0  0  0  0  0  0
  189.0020  177.2380  140.0550 C   0  0  1  0  0  3  0  0  0  0  0  0
  190.2880  177.7330  140.2730 O   0  0  0  0  0  1  0  0  0  0  0  0
  187.9860  178.2210  140.5600 C   0  0  0  0  0  3  0  0  0  0  0  0
  187.4590  178.1890  141.7900 C   0  0  0  0  0  0  0  0  0  0  0  0
  186.0090  177.9940  144.3000 C   0  0  0  0  0  2  0  0  0  0  0  0
  187.9020  177.1740  142.8190 C   0  0  2  0  0  3  0  0  0  0  0  0
  186.5450  179.3100  142.2000 C   0  0  0  0  0  2  0  0  0  0  0  0
  185.4490  178.8520  143.1660 C   0  0  1  0  0  3  0  0  0  0  0  0
  186.7640  176.7770  143.7620 C   0  0  0  0  0  2  0  0  0  0  0  0
  184.3290  178.1400  142.4320 C   0  0  0  0  0  1  0  0  0  0  0  0
  189.1340  177.6100  143.5620 C   0  0  0  0  0  0  0  0  0  0  0  0
  191.7770  178.0420  144.5740 C   0  0  0  0  0  2  0  0  0  0  0  0
  191.0010  179.2540  144.0780 C   0  0  0  0  0  2  0  0  0  0  0  0
  190.8250  177.1350  145.3430 C   0  0  0  0  0  2  0  0  0  0  0  0
  189.9260  178.8110  143.0850 C   0  0  0  0  0  2  0  0  0  0  0  0
  189.5980  176.8080  144.5340 C   0  0  0  0  0  3  0  0  0  0  0  0
  185.6150  178.7160  138.3390 O   0  0  0  0  0  0  0  0  0  0  0  0
  184.2760  178.4870  138.6600 C   0  0  0  0  0  2  0  0  0  0  0  0
  183.6340  179.7780  139.1280 C   0  0  0  0  0  2  0  0  0  0  0  0
  182.4300  180.0420  138.3610 N   0  0  0  0  0  2  0  0  0  0  0  0
  182.0860  181.4300  138.6020 C   0  0  0  0  0  2  0  0  0  0  0  0
  180.6170  181.6700  138.2730 C   0  0  1  0  0  3  0  0  0  0  0  0
  180.3610  183.0210  137.5950 C   0  0  2  0  0  3  0  0  0  0  0  0
  180.4130  181.7470  136.7740 C   0  0  0  0  0  2  0  0  0  0  0  0
  181.1510  184.8330  136.6050 C   0  0  0  0  0  1  0  0  0  0  0  0
  181.5370  183.7490  137.3920 O   0  0  0  0  0  0  0  0  0  0  0  0
  1  5  1  0  0  0  0
  2 12  1  6  0  0  0
  2 13  1  0  0  0  0
  2 11  1  0  0  0  0
  3 13  1  0  0  0  0
  3 15  1  1  0  0  0
  4  7  1  0  0  0  0
  5  9  1  0  0  0  0
  6  1  2  0  0  0  0
  7  9  2  0  0  0  0
  8  1  1  0  0  0  0
  8  4  2  0  0  0  0
 10  3  1  0  0  0  0
 10 11  1  0  0  0  0
 11  7  1  6  0  0  0
 13 34  1  1  0  0  0
 14 12  1  0  0  0  0
 14  4  1  0  0  0  0
 15 17  1  0  0  0  0
 16 15  1  0  0  0  0
 17 18  1  0  0  0  0
 18 19  1  6  0  0  0
 18 20  1  0  0  0  0
 20 21  2  0  0  0  0
 21 24  1  0  0  0  0
 21 23  1  0  0  0  0
 23 28  1  1  0  0  0
 23 26  1  0  0  0  0
 24 25  1  0  0  0  0
 25 27  1  6  0  0  0
 25 22  1  0  0  0  0
 26 22  1  0  0  0  0
 28 33  2  0  0  0  0
 29 31  1  0  0  0  0
 30 29  1  0  0  0  0
 32 28  1  0  0  0  0
 32 30  1  0  0  0  0
 33 31  1  0  0  0  0
 34 35  1  0  0  0  0
 35 36  1  0  0  0  0
 37 38  1  0  0  0  0
 37 36  1  0  0  0  0
 39 38  1  6  0  0  0
 40 43  1  6  0  0  0
 40 39  1  0  0  0  0
 41 40  1  0  0  0  0
 41 39  1  0  0  0  0
 42 43  1  0  0  0  0
M  END
>  <MODEL>
3

>  <REMARK>
 VINA RESULT:      -7.2      3.909     10.516
  Name = 
  12 active torsions:
  status: ('A' for Active; 'I' for Inactive)
    1  A    between atoms: C_1  and  C_35
    2  A    between atoms: C_1  and  O_38
    3  A    between atoms: N_2  and  C_6
    4  A    between atoms: N_2  and  C_13
    5  A    between atoms: C_3  and  C_12
    6  A    between atoms: C_6  and  C_12
    7  A    between atoms: C_9  and  C_19
    8  A    between atoms: C_9  and  N_32
    9  A    between atoms: C_11  and  C_14
   10  A    between atoms: C_25  and  O_39
   11  A    between atoms: N_32  and  C_35
   12  A    between atoms: C_34  and  O_38
                            x       y       z     vdW  Elec       q    Type
                         _______ _______ _______ _____ _____    ______ ____

>  <TORSDO>
F 12

$$$$
=
 OpenBabel11052416393D

 43 48  0  0  1  0  0  0  0  0999 V2000
  184.2550  172.2170  135.3320 C   0  0  0  0  0  0  0  0  0  0  0  0
  184.3420  176.9450  137.3330 C   0  0  2  0  0  3  0  0  0  0  0  0
  186.5850  177.6870  137.1100 C   0  0  1  0  0  3  0  0  0  0  0  0
  183.8000  174.5100  135.8340 C   0  0  0  0  0  0  0  0  0  0  0  0
  185.3400  172.1090  136.3630 C   0  0  0  0  0  2  0  0  0  0  0  0
  183.9780  171.2210  134.6160 O   0  0  0  0  0  0  0  0  0  0  0  0
  184.9520  174.5400  136.7700 C   0  0  0  0  0  0  0  0  0  0  0  0
  183.5000  173.4260  135.1850 N   0  0  0  0  0  0  0  0  0  0  0  0
  185.6700  173.4360  136.9880 C   0  0  0  0  0  3  0  0  0  0  0  0
  186.5950  176.2820  136.9470 O   0  0  0  0  0  0  0  0  0  0  0  0
  185.3650  175.8220  137.4420 C   0  0  1  0  0  3  0  0  0  0  0  0
  183.7030  176.9910  135.9460 C   0  0  0  0  0  2  0  0  0  0  0  0
  185.1920  178.1640  137.5210 C   0  0  2  0  0  3  0  0  0  0  0  0
  182.9210  175.7120  135.6860 C   0  0  0  0  0  2  0  0  0  0  0  0
  187.6430  178.1890  138.0040 N   0  0  0  0  0  0  0  0  0  0  0  0
  188.5650  178.9430  137.1740 C   0  0  0  0  0  1  0  0  0  0  0  0
  188.4100  177.1060  138.6200 C   0  0  0  0  0  2  0  0  0  0  0  0
  188.7240  177.4060  140.0840 C   0  0  1  0  0  3  0  0  0  0  0  0
  190.0200  177.9090  140.2110 O   0  0  0  0  0  1  0  0  0  0  0  0
  187.7440  178.3690  140.6900 C   0  0  0  0  0  3  0  0  0  0  0  0
  187.2880  178.2830  141.9460 C   0  0  0  0  0  0  0  0  0  0  0  0
  185.9860  177.9820  144.5250 C   0  0  0  0  0  2  0  0  0  0  0  0
  187.7860  177.2240  142.9020 C   0  0  2  0  0  3  0  0  0  0  0  0
  186.4050  179.3880  142.4570 C   0  0  0  0  0  2  0  0  0  0  0  0
  185.3650  178.8910  143.4640 C   0  0  1  0  0  3  0  0  0  0  0  0
  186.7020  176.7880  143.8910 C   0  0  0  0  0  2  0  0  0  0  0  0
  184.2000  178.2140  142.7650 C   0  0  0  0  0  1  0  0  0  0  0  0
  189.0600  177.6240  143.5900 C   0  0  0  0  0  0  0  0  0  0  0  0
  191.7550  177.9750  144.4910 C   0  0  0  0  0  2  0  0  0  0  0  0
  191.0010  179.2080  144.0150 C   0  0  0  0  0  2  0  0  0  0  0  0
  190.8060  177.1070  145.3070 C   0  0  0  0  0  2  0  0  0  0  0  0
  189.8730  178.7930  143.0700 C   0  0  0  0  0  2  0  0  0  0  0  0
  189.5360  176.8150  144.5510 C   0  0  0  0  0  3  0  0  0  0  0  0
  185.1550  178.5440  138.8670 O   0  0  0  0  0  0  0  0  0  0  0  0
  184.2640  179.6170  138.9130 C   0  0  0  0  0  2  0  0  0  0  0  0
  182.9450  179.1630  139.5070 C   0  0  0  0  0  2  0  0  0  0  0  0
  181.8790  179.3250  138.5350 N   0  0  0  0  0  2  0  0  0  0  0  0
  181.0650  178.1270  138.6150 C   0  0  0  0  0  2  0  0  0  0  0  0
  181.4290  177.3290  139.8620 C   0  0  1  0  0  3  0  0  0  0  0  0
  180.4350  176.2040  140.1710 C   0  0  2  0  0  3  0  0  0  0  0  0
  181.7590  175.8960  139.4990 C   0  0  0  0  0  2  0  0  0  0  0  0
  179.1280  174.7610  139.1240 C   0  0  0  0  0  1  0  0  0  0  0  0
  179.4070  176.1240  139.2270 O   0  0  0  0  0  0  0  0  0  0  0  0
  1  5  1  0  0  0  0
  2 12  1  6  0  0  0
  2 11  1  0  0  0  0
  2 13  1  0  0  0  0
  3 13  1  0  0  0  0
  3 15  1  1  0  0  0
  4  7  1  0  0  0  0
  5  9  1  0  0  0  0
  6  1  2  0  0  0  0
  7  9  2  0  0  0  0
  8  1  1  0  0  0  0
  8  4  2  0  0  0  0
 10  3  1  0  0  0  0
 10 11  1  0  0  0  0
 11  7  1  6  0  0  0
 13 34  1  1  0  0  0
 14  4  1  0  0  0  0
 14 12  1  0  0  0  0
 15 17  1  0  0  0  0
 16 15  1  0  0  0  0
 17 18  1  0  0  0  0
 18 19  1  6  0  0  0
 18 20  1  0  0  0  0
 20 21  2  0  0  0  0
 21 24  1  0  0  0  0
 21 23  1  0  0  0  0
 23 28  1  1  0  0  0
 23 26  1  0  0  0  0
 24 25  1  0  0  0  0
 25 27  1  6  0  0  0
 25 22  1  0  0  0  0
 26 22  1  0  0  0  0
 28 33  2  0  0  0  0
 29 31  1  0  0  0  0
 30 29  1  0  0  0  0
 32 28  1  0  0  0  0
 32 30  1  0  0  0  0
 33 31  1  0  0  0  0
 34 35  1  0  0  0  0
 35 36  1  0  0  0  0
 37 38  1  0  0  0  0
 37 36  1  0  0  0  0
 39 38  1  6  0  0  0
 39 40  1  0  0  0  0
 40 43  1  6  0  0  0
 41 39  1  0  0  0  0
 41 40  1  0  0  0  0
 42 43  1  0  0  0  0
M  END
>  <MODEL>
4

>  <REMARK>
 VINA RESULT:      -7.0      3.954     10.256
  Name = 
  12 active torsions:
  status: ('A' for Active; 'I' for Inactive)
    1  A    between atoms: C_1  and  C_35
    2  A    between atoms: C_1  and  O_38
    3  A    between atoms: N_2  and  C_6
    4  A    between atoms: N_2  and  C_13
    5  A    between atoms: C_3  and  C_12
    6  A    between atoms: C_6  and  C_12
    7  A    between atoms: C_9  and  C_19
    8  A    between atoms: C_9  and  N_32
    9  A    between atoms: C_11  and  C_14
   10  A    between atoms: C_25  and  O_39
   11  A    between atoms: N_32  and  C_35
   12  A    between atoms: C_34  and  O_38
                            x       y       z     vdW  Elec       q    Type
                         _______ _______ _______ _____ _____    ______ ____

>  <TORSDO>
F 12

$$$$
=
 OpenBabel11052416393D

 43 48  0  0  1  0  0  0  0  0999 V2000
  188.4570  177.5700  145.5090 C   0  0  0  0  0  0  0  0  0  0  0  0
  190.5620  176.7370  140.9010 C   0  0  2  0  0  3  0  0  0  0  0  0
  189.3790  178.1430  139.3990 C   0  0  1  0  0  3  0  0  0  0  0  0
  189.9930  177.3270  143.6930 C   0  0  0  0  0  0  0  0  0  0  0  0
  187.2670  177.1890  144.6760 C   0  0  0  0  0  2  0  0  0  0  0  0
  188.2960  177.8710  146.7190 O   0  0  0  0  0  0  0  0  0  0  0  0
  188.8630  177.0860  142.7610 C   0  0  0  0  0  0  0  0  0  0  0  0
  189.7770  177.5450  144.9550 N   0  0  0  0  0  0  0  0  0  0  0  0
  187.6100  177.0490  143.2200 C   0  0  0  0  0  3  0  0  0  0  0  0
  188.5960  178.0380  140.5730 O   0  0  0  0  0  0  0  0  0  0  0  0
  189.1020  176.9370  141.2820 C   0  0  1  0  0  3  0  0  0  0  0  0
  191.4880  177.6260  141.7300 C   0  0  0  0  0  2  0  0  0  0  0  0
  190.5820  177.2020  139.4770 C   0  0  2  0  0  3  0  0  0  0  0  0
  191.4040  177.2440  143.2000 C   0  0  0  0  0  2  0  0  0  0  0  0
  188.6090  177.9760  138.1540 N   0  0  0  0  0  0  0  0  0  0  0  0
  189.1100  178.9690  137.2210 C   0  0  0  0  0  1  0  0  0  0  0  0
  187.1830  178.2470  138.3420 C   0  0  0  0  0  2  0  0  0  0  0  0
  186.3200  177.3050  137.5060 C   0  0  1  0  0  3  0  0  0  0  0  0
  186.7700  175.9900  137.6350 O   0  0  0  0  0  1  0  0  0  0  0  0
  184.8670  177.3830  137.8790 C   0  0  0  0  0  3  0  0  0  0  0  0
  183.8670  176.9820  137.0840 C   0  0  0  0  0  0  0  0  0  0  0  0
  181.6290  176.4660  135.3050 C   0  0  0  0  0  2  0  0  0  0  0  0
  184.1280  176.3400  135.7400 C   0  0  2  0  0  3  0  0  0  0  0  0
  182.4690  177.0050  137.6360 C   0  0  0  0  0  2  0  0  0  0  0  0
  181.4190  177.3060  136.5640 C   0  0  1  0  0  3  0  0  0  0  0  0
  183.0300  176.6670  134.7250 C   0  0  0  0  0  2  0  0  0  0  0  0
  181.3700  178.7880  136.2420 C   0  0  0  0  0  1  0  0  0  0  0  0
  184.3840  174.8630  135.8490 C   0  0  0  0  0  0  0  0  0  0  0  0
  185.4040  172.2370  136.3600 C   0  0  0  0  0  2  0  0  0  0  0  0
  184.0180  172.5750  136.8900 C   0  0  0  0  0  2  0  0  0  0  0  0
  185.5520  172.8340  134.9660 C   0  0  0  0  0  2  0  0  0  0  0  0
  183.8780  174.0890  137.0500 C   0  0  0  0  0  2  0  0  0  0  0  0
  185.2140  174.3020  134.9550 C   0  0  0  0  0  3  0  0  0  0  0  0
  190.4270  176.0980  138.6320 O   0  0  0  0  0  0  0  0  0  0  0  0
  191.6570  175.9660  137.9850 C   0  0  0  0  0  2  0  0  0  0  0  0
  191.8130  174.5510  137.4650 C   0  0  0  0  0  2  0  0  0  0  0  0
  192.1320  174.5730  136.0490 N   0  0  0  0  0  2  0  0  0  0  0  0
  193.1400  175.6010  135.8720 C   0  0  0  0  0  2  0  0  0  0  0  0
  194.4340  174.9830  135.3550 C   0  0  1  0  0  3  0  0  0  0  0  0
  195.6050  175.9700  135.3210 C   0  0  2  0  0  3  0  0  0  0  0  0
  195.4850  174.9600  136.4460 C   0  0  0  0  0  2  0  0  0  0  0  0
  195.8410  178.1290  134.9040 C   0  0  0  0  0  1  0  0  0  0  0  0
  195.2520  177.2360  135.7980 O   0  0  0  0  0  0  0  0  0  0  0  0
  1  6  2  0  0  0  0
  2 11  1  0  0  0  0
  2 12  1  1  0  0  0
  3 15  1  6  0  0  0
  3 13  1  0  0  0  0
  3 10  1  0  0  0  0
  4  8  2  0  0  0  0
  5  1  1  0  0  0  0
  7  9  2  0  0  0  0
  7  4  1  0  0  0  0
  8  1  1  0  0  0  0
  9  5  1  0  0  0  0
 11 10  1  6  0  0  0
 11  7  1  0  0  0  0
 12 14  1  0  0  0  0
 13 34  1  6  0  0  0
 13  2  1  0  0  0  0
 14  4  1  0  0  0  0
 15 17  1  0  0  0  0
 16 15  1  0  0  0  0
 18 19  1  1  0  0  0
 18 20  1  0  0  0  0
 18 17  1  0  0  0  0
 21 24  1  0  0  0  0
 21 20  2  0  0  0  0
 22 25  1  0  0  0  0
 23 28  1  1  0  0  0
 23 21  1  0  0  0  0
 25 27  1  6  0  0  0
 25 24  1  0  0  0  0
 26 22  1  0  0  0  0
 26 23  1  0  0  0  0
 28 32  1  0  0  0  0
 29 30  1  0  0  0  0
 30 32  1  0  0  0  0
 31 29  1  0  0  0  0
 33 31  1  0  0  0  0
 33 28  2  0  0  0  0
 35 34  1  0  0  0  0
 36 35  1  0  0  0  0
 37 36  1  0  0  0  0
 38 37  1  0  0  0  0
 39 38  1  1  0  0  0
 39 41  1  0  0  0  0
 40 39  1  0  0  0  0
 40 43  1  1  0  0  0
 40 41  1  0  0  0  0
 42 43  1  0  0  0  0
M  END
>  <MODEL>
5

>  <REMARK>
 VINA RESULT:      -6.9      2.128      3.629
  Name = 
  12 active torsions:
  status: ('A' for Active; 'I' for Inactive)
    1  A    between atoms: C_1  and  C_35
    2  A    between atoms: C_1  and  O_38
    3  A    between atoms: N_2  and  C_6
    4  A    between atoms: N_2  and  C_13
    5  A    between atoms: C_3  and  C_12
    6  A    between atoms: C_6  and  C_12
    7  A    between atoms: C_9  and  C_19
    8  A    between atoms: C_9  and  N_32
    9  A    between atoms: C_11  and  C_14
   10  A    between atoms: C_25  and  O_39
   11  A    between atoms: N_32  and  C_35
   12  A    between atoms: C_34  and  O_38
                            x       y       z     vdW  Elec       q    Type
                         _______ _______ _______ _____ _____    ______ ____

>  <TORSDO>
F 12

$$$$
=
 OpenBabel11052416393D

 43 48  0  0  1  0  0  0  0  0999 V2000
  188.9790  177.5970  145.5390 C   0  0  0  0  0  0  0  0  0  0  0  0
  190.4940  176.7670  140.7040 C   0  0  2  0  0  3  0  0  0  0  0  0
  189.0330  178.0580  139.3510 C   0  0  1  0  0  3  0  0  0  0  0  0
  190.2690  177.3980  143.5360 C   0  0  0  0  0  0  0  0  0  0  0  0
  187.7150  177.1240  144.8830 C   0  0  0  0  0  2  0  0  0  0  0  0
  188.9640  177.9220  146.7540 O   0  0  0  0  0  0  0  0  0  0  0  0
  189.0420  177.0640  142.7710 C   0  0  0  0  0  0  0  0  0  0  0  0
  190.2120  177.6370  144.8110 N   0  0  0  0  0  0  0  0  0  0  0  0
  187.8660  176.9650  143.3970 C   0  0  0  0  0  3  0  0  0  0  0  0
  188.4240  177.9380  140.6220 O   0  0  0  0  0  0  0  0  0  0  0  0
  189.0890  176.8900  141.2770 C   0  0  1  0  0  3  0  0  0  0  0  0
  191.4650  177.7330  141.3830 C   0  0  0  0  0  2  0  0  0  0  0  0
  190.2930  177.1940  139.2830 C   0  0  2  0  0  3  0  0  0  0  0  0
  191.6030  177.3860  142.8580 C   0  0  0  0  0  2  0  0  0  0  0  0
  188.1150  177.8120  138.2260 N   0  0  0  0  0  0  0  0  0  0  0  0
  188.9070  177.9170  137.0140 C   0  0  0  0  0  1  0  0  0  0  0  0
  187.0610  178.8250  138.1370 C   0  0  0  0  0  2  0  0  0  0  0  0
  185.8810  178.4830  139.0430 C   0  0  1  0  0  3  0  0  0  0  0  0
  185.8980  179.2820  140.1870 O   0  0  0  0  0  1  0  0  0  0  0  0
  184.5630  178.6300  138.3390 C   0  0  0  0  0  3  0  0  0  0  0  0
  183.4340  178.0220  138.7270 C   0  0  0  0  0  0  0  0  0  0  0  0
  181.0340  176.4820  139.2790 C   0  0  0  0  0  2  0  0  0  0  0  0
  183.3780  177.1680  139.9730 C   0  0  2  0  0  3  0  0  0  0  0  0
  182.1620  178.3590  138.0010 C   0  0  0  0  0  2  0  0  0  0  0  0
  181.1960  177.1740  137.9260 C   0  0  1  0  0  3  0  0  0  0  0  0
  182.3800  176.0160  139.8350 C   0  0  0  0  0  2  0  0  0  0  0  0
  181.6110  176.1920  136.8460 C   0  0  0  0  0  1  0  0  0  0  0  0
  183.1450  177.9810  141.2160 C   0  0  0  0  0  0  0  0  0  0  0  0
  182.4270  178.9910  143.7960 C   0  0  0  0  0  2  0  0  0  0  0  0
  183.8960  179.0400  143.4000 C   0  0  0  0  0  2  0  0  0  0  0  0
  181.5820  179.3720  142.5880 C   0  0  0  0  0  2  0  0  0  0  0  0
  184.1780  177.9900  142.3250 C   0  0  0  0  0  2  0  0  0  0  0  0
  181.9360  178.5410  141.3820 C   0  0  0  0  0  3  0  0  0  0  0  0
  190.0950  176.0600  138.4870 O   0  0  0  0  0  0  0  0  0  0  0  0
  191.3760  175.5520  138.2640 C   0  0  0  0  0  2  0  0  0  0  0  0
  192.0520  176.3340  137.1550 C   0  0  0  0  0  2  0  0  0  0  0  0
  193.4050  176.6860  137.5470 N   0  0  0  0  0  2  0  0  0  0  0  0
  193.9210  175.5560  138.2960 C   0  0  0  0  0  2  0  0  0  0  0  0
  194.8490  174.7250  137.4170 C   0  0  1  0  0  3  0  0  0  0  0  0
  195.9680  174.0320  138.2030 C   0  0  2  0  0  3  0  0  0  0  0  0
  194.7400  173.2550  137.7690 C   0  0  0  0  0  2  0  0  0  0  0  0
  197.1140  174.8760  139.8940 C   0  0  0  0  0  1  0  0  0  0  0  0
  195.8920  174.2850  139.5760 O   0  0  0  0  0  0  0  0  0  0  0  0
  1  6  2  0  0  0  0
  2 11  1  0  0  0  0
  2 12  1  1  0  0  0
  3 15  1  6  0  0  0
  3 10  1  0  0  0  0
  4  8  2  0  0  0  0
  5  1  1  0  0  0  0
  7  9  2  0  0  0  0
  7  4  1  0  0  0  0
  8  1  1  0  0  0  0
  9  5  1  0  0  0  0
 11 10  1  6  0  0  0
 11  7  1  0  0  0  0
 12 14  1  0  0  0  0
 13 34  1  6  0  0  0
 13  3  1  0  0  0  0
 13  2  1  0  0  0  0
 14  4  1  0  0  0  0
 16 15  1  0  0  0  0
 17 15  1  0  0  0  0
 17 18  1  0  0  0  0
 18 19  1  1  0  0  0
 20 21  2  0  0  0  0
 20 18  1  0  0  0  0
 21 23  1  0  0  0  0
 22 26  1  0  0  0  0
 23 28  1  1  0  0  0
 24 21  1  0  0  0  0
 25 27  1  6  0  0  0
 25 24  1  0  0  0  0
 25 22  1  0  0  0  0
 26 23  1  0  0  0  0
 28 33  2  0  0  0  0
 28 32  1  0  0  0  0
 30 29  1  0  0  0  0
 31 29  1  0  0  0  0
 32 30  1  0  0  0  0
 33 31  1  0  0  0  0
 35 34  1  0  0  0  0
 36 37  1  0  0  0  0
 36 35  1  0  0  0  0
 37 38  1  0  0  0  0
 39 41  1  0  0  0  0
 39 40  1  0  0  0  0
 39 38  1  1  0  0  0
 40 43  1  1  0  0  0
 41 40  1  0  0  0  0
 43 42  1  0  0  0  0
M  END
>  <MODEL>
6

>  <REMARK>
 VINA RESULT:      -6.8      2.743      4.735
  Name = 
  12 active torsions:
  status: ('A' for Active; 'I' for Inactive)
    1  A    between atoms: C_1  and  C_35
    2  A    between atoms: C_1  and  O_38
    3  A    between atoms: N_2  and  C_6
    4  A    between atoms: N_2  and  C_13
    5  A    between atoms: C_3  and  C_12
    6  A    between atoms: C_6  and  C_12
    7  A    between atoms: C_9  and  C_19
    8  A    between atoms: C_9  and  N_32
    9  A    between atoms: C_11  and  C_14
   10  A    between atoms: C_25  and  O_39
   11  A    between atoms: N_32  and  C_35
   12  A    between atoms: C_34  and  O_38
                            x       y       z     vdW  Elec       q    Type
                         _______ _______ _______ _____ _____    ______ ____

>  <TORSDO>
F 12

$$$$
=
 OpenBabel11052416393D

 43 48  0  0  1  0  0  0  0  0999 V2000
  190.8930  176.7350  145.2710 C   0  0  0  0  0  0  0  0  0  0  0  0
  186.1520  178.6880  145.0010 C   0  0  2  0  0  3  0  0  0  0  0  0
  185.2640  177.9160  142.9400 C   0  0  1  0  0  3  0  0  0  0  0  0
  188.6310  177.3540  145.7380 C   0  0  0  0  0  0  0  0  0  0  0  0
  190.9190  177.4610  143.9570 C   0  0  0  0  0  2  0  0  0  0  0  0
  191.9120  176.1040  145.6520 O   0  0  0  0  0  0  0  0  0  0  0  0
  188.5160  177.9710  144.3930 C   0  0  0  0  0  0  0  0  0  0  0  0
  189.7390  176.7920  146.1180 N   0  0  0  0  0  0  0  0  0  0  0  0
  189.5680  177.9930  143.5710 C   0  0  0  0  0  3  0  0  0  0  0  0
  186.6670  177.7440  142.8780 O   0  0  0  0  0  0  0  0  0  0  0  0
  187.2030  178.5290  143.9110 C   0  0  1  0  0  3  0  0  0  0  0  0
  186.1610  177.5060  145.9690 C   0  0  0  0  0  2  0  0  0  0  0  0
  184.8780  178.6670  144.2150 C   0  0  2  0  0  3  0  0  0  0  0  0
  187.4920  177.4400  146.7040 C   0  0  0  0  0  2  0  0  0  0  0  0
  184.6840  178.5200  141.7280 N   0  0  0  0  0  0  0  0  0  0  0  0
  183.6470  177.6150  141.2690 C   0  0  0  0  0  1  0  0  0  0  0  0
  185.6610  178.6360  140.6440 C   0  0  0  0  0  2  0  0  0  0  0  0
  184.9750  178.7940  139.2890 C   0  0  1  0  0  3  0  0  0  0  0  0
  184.5720  180.1160  139.0980 O   0  0  0  0  0  1  0  0  0  0  0  0
  185.8560  178.3610  138.1520 C   0  0  0  0  0  3  0  0  0  0  0  0
  185.6050  177.3040  137.3700 C   0  0  0  0  0  0  0  0  0  0  0  0
  185.3330  174.8420  135.8530 C   0  0  0  0  0  2  0  0  0  0  0  0
  184.3500  176.4760  137.5290 C   0  0  2  0  0  3  0  0  0  0  0  0
  186.5080  177.0620  136.1930 C   0  0  0  0  0  2  0  0  0  0  0  0
  186.6740  175.5740  135.8740 C   0  0  1  0  0  3  0  0  0  0  0  0
  184.5830  175.0060  137.1760 C   0  0  0  0  0  2  0  0  0  0  0  0
  187.6540  174.9120  136.8260 C   0  0  0  0  0  1  0  0  0  0  0  0
  183.1790  177.0630  136.7920 C   0  0  0  0  0  0  0  0  0  0  0  0
  181.2030  178.7360  135.5710 C   0  0  0  0  0  2  0  0  0  0  0  0
  181.9570  177.7630  134.6770 C   0  0  0  0  0  2  0  0  0  0  0  0
  180.8770  178.0400  136.8860 C   0  0  0  0  0  2  0  0  0  0  0  0
  183.2970  177.4000  135.3190 C   0  0  0  0  0  2  0  0  0  0  0  0
  182.1070  177.4360  137.5110 C   0  0  0  0  0  3  0  0  0  0  0  0
  184.4880  179.9820  143.9380 O   0  0  0  0  0  0  0  0  0  0  0  0
  183.0930  179.9560  143.9610 C   0  0  0  0  0  2  0  0  0  0  0  0
  182.6160  178.6960  144.6560 C   0  0  0  0  0  2  0  0  0  0  0  0
  181.3850  178.2270  144.0460 N   0  0  0  0  0  2  0  0  0  0  0  0
  180.8270  179.3570  143.3270 C   0  0  0  0  0  2  0  0  0  0  0  0
  179.5690  178.9320  142.5780 C   0  0  1  0  0  3  0  0  0  0  0  0
  179.5100  179.4680  141.1440 C   0  0  2  0  0  3  0  0  0  0  0  0
  179.9240  178.0340  141.4100 C   0  0  0  0  0  2  0  0  0  0  0  0
  180.4190  180.6160  139.4870 C   0  0  0  0  0  1  0  0  0  0  0  0
  180.6390  180.2200  140.8060 O   0  0  0  0  0  0  0  0  0  0  0  0
  1  6  2  0  0  0  0
  1  8  1  0  0  0  0
  2 12  1  1  0  0  0
  3 15  1  6  0  0  0
  3 13  1  0  0  0  0
  4  8  2  0  0  0  0
  4 14  1  0  0  0  0
  5  1  1  0  0  0  0
  7  4  1  0  0  0  0
  9  5  1  0  0  0  0
  9  7  2  0  0  0  0
 10  3  1  0  0  0  0
 11 10  1  6  0  0  0
 11  7  1  0  0  0  0
 11  2  1  0  0  0  0
 12 14  1  0  0  0  0
 13 34  1  6  0  0  0
 13  2  1  0  0  0  0
 16 15  1  0  0  0  0
 17 15  1  0  0  0  0
 18 19  1  6  0  0  0
 18 17  1  0  0  0  0
 20 18  1  0  0  0  0
 21 23  1  0  0  0  0
 21 20  2  0  0  0  0
 22 25  1  0  0  0  0
 22 26  1  0  0  0  0
 23 28  1  6  0  0  0
 24 21  1  0  0  0  0
 25 24  1  0  0  0  0
 25 27  1  1  0  0  0
 26 23  1  0  0  0  0
 28 33  2  0  0  0  0
 29 31  1  0  0  0  0
 30 32  1  0  0  0  0
 30 29  1  0  0  0  0
 31 33  1  0  0  0  0
 32 28  1  0  0  0  0
 34 35  1  0  0  0  0
 35 36  1  0  0  0  0
 37 36  1  0  0  0  0
 38 37  1  0  0  0  0
 39 38  1  1  0  0  0
 40 43  1  1  0  0  0
 40 41  1  0  0  0  0
 40 39  1  0  0  0  0
 41 39  1  0  0  0  0
 42 43  1  0  0  0  0
M  END
>  <MODEL>
7

>  <REMARK>
 VINA RESULT:      -6.7      4.285      8.352
  Name = 
  12 active torsions:
  status: ('A' for Active; 'I' for Inactive)
    1  A    between atoms: C_1  and  C_35
    2  A    between atoms: C_1  and  O_38
    3  A    between atoms: N_2  and  C_6
    4  A    between atoms: N_2  and  C_13
    5  A    between atoms: C_3  and  C_12
    6  A    between atoms: C_6  and  C_12
    7  A    between atoms: C_9  and  C_19
    8  A    between atoms: C_9  and  N_32
    9  A    between atoms: C_11  and  C_14
   10  A    between atoms: C_25  and  O_39
   11  A    between atoms: N_32  and  C_35
   12  A    between atoms: C_34  and  O_38
                            x       y       z     vdW  Elec       q    Type
                         _______ _______ _______ _____ _____    ______ ____

>  <TORSDO>
F 12

$$$$
=
 OpenBabel11052416393D

 43 48  0  0  1  0  0  0  0  0999 V2000
  194.0020  173.2210  136.1320 C   0  0  0  0  0  0  0  0  0  0  0  0
  188.9100  173.7610  136.5110 C   0  0  2  0  0  3  0  0  0  0  0  0
  188.5210  176.1020  136.5420 C   0  0  1  0  0  3  0  0  0  0  0  0
  191.6420  173.0760  135.7790 C   0  0  0  0  0  0  0  0  0  0  0  0
  193.8610  174.0890  137.3490 C   0  0  0  0  0  2  0  0  0  0  0  0
  195.1490  172.9030  135.7270 O   0  0  0  0  0  0  0  0  0  0  0  0
  191.4110  174.0480  136.8770 C   0  0  0  0  0  0  0  0  0  0  0  0
  192.8460  172.7110  135.4570 N   0  0  0  0  0  0  0  0  0  0  0  0
  192.4420  174.5270  137.5770 C   0  0  0  0  0  3  0  0  0  0  0  0
  189.8910  175.9060  136.8360 O   0  0  0  0  0  0  0  0  0  0  0  0
  190.0260  174.5520  137.1810 C   0  0  1  0  0  3  0  0  0  0  0  0
  189.2760  173.3750  135.0790 C   0  0  0  0  0  2  0  0  0  0  0  0
  187.7930  174.7590  136.4790 C   0  0  2  0  0  3  0  0  0  0  0  0
  190.4800  172.4450  135.0780 C   0  0  0  0  0  2  0  0  0  0  0  0
  187.8540  177.0680  137.4320 N   0  0  0  0  0  0  0  0  0  0  0  0
  187.1240  177.9850  136.5770 C   0  0  0  0  0  1  0  0  0  0  0  0
  188.8100  177.8670  138.2000 C   0  0  0  0  0  2  0  0  0  0  0  0
  188.7610  177.5210  139.6860 C   0  0  1  0  0  3  0  0  0  0  0  0
  190.0470  177.5230  140.2290 O   0  0  0  0  0  1  0  0  0  0  0  0
  187.8810  178.4590  140.4600 C   0  0  0  0  0  3  0  0  0  0  0  0
  187.5140  178.2640  141.7340 C   0  0  0  0  0  0  0  0  0  0  0  0
  186.3890  177.7550  144.3630 C   0  0  0  0  0  2  0  0  0  0  0  0
  188.0220  177.0880  142.5360 C   0  0  2  0  0  3  0  0  0  0  0  0
  186.7310  179.3480  142.4200 C   0  0  0  0  0  2  0  0  0  0  0  0
  185.7420  178.7960  143.4500 C   0  0  1  0  0  3  0  0  0  0  0  0
  186.9920  176.6020  143.5580 C   0  0  0  0  0  2  0  0  0  0  0  0
  184.4950  178.2510  142.7800 C   0  0  0  0  0  1  0  0  0  0  0  0
  189.3630  177.3550  143.1600 C   0  0  0  0  0  0  0  0  0  0  0  0
  191.5870  177.8430  144.8950 C   0  0  0  0  0  2  0  0  0  0  0  0
  191.6680  176.6460  143.9600 C   0  0  0  0  0  2  0  0  0  0  0  0
  190.9630  179.0100  144.1410 C   0  0  0  0  0  2  0  0  0  0  0  0
  190.2600  176.2010  143.5640 C   0  0  0  0  0  2  0  0  0  0  0  0
  189.6550  178.6200  143.5040 C   0  0  0  0  0  3  0  0  0  0  0  0
  186.9750  174.5660  137.5970 O   0  0  0  0  0  0  0  0  0  0  0  0
  186.0270  173.6250  137.1900 C   0  0  0  0  0  2  0  0  0  0  0  0
  184.6320  174.1570  137.4530 C   0  0  0  0  0  2  0  0  0  0  0  0
  184.5900  175.5870  137.2120 N   0  0  0  0  0  2  0  0  0  0  0  0
  183.5460  176.1180  138.0670 C   0  0  0  0  0  2  0  0  0  0  0  0
  183.4920  177.6360  137.9480 C   0  0  1  0  0  3  0  0  0  0  0  0
  182.8760  178.3180  139.1750 C   0  0  2  0  0  3  0  0  0  0  0  0
  184.3810  178.2840  138.9900 C   0  0  0  0  0  2  0  0  0  0  0  0
  181.2360  177.8030  140.5650 C   0  0  0  0  0  1  0  0  0  0  0  0
  182.5120  177.4050  140.1680 O   0  0  0  0  0  0  0  0  0  0  0  0
  1  5  1  0  0  0  0
  2 12  1  6  0  0  0
  2 11  1  0  0  0  0
  3 10  1  0  0  0  0
  3 15  1  1  0  0  0
  4  7  1  0  0  0  0
  5  9  1  0  0  0  0
  6  1  2  0  0  0  0
  7 11  1  0  0  0  0
  7  9  2  0  0  0  0
  8  4  2  0  0  0  0
  8  1  1  0  0  0  0
 11 10  1  6  0  0  0
 13  2  1  0  0  0  0
 13  3  1  0  0  0  0
 13 34  1  1  0  0  0
 14 12  1  0  0  0  0
 14  4  1  0  0  0  0
 15 17  1  0  0  0  0
 16 15  1  0  0  0  0
 17 18  1  0  0  0  0
 18 19  1  1  0  0  0
 18 20  1  0  0  0  0
 20 21  2  0  0  0  0
 21 24  1  0  0  0  0
 21 23  1  0  0  0  0
 23 28  1  1  0  0  0
 23 26  1  0  0  0  0
 24 25  1  0  0  0  0
 25 27  1  6  0  0  0
 25 22  1  0  0  0  0
 26 22  1  0  0  0  0
 28 33  2  0  0  0  0
 28 32  1  0  0  0  0
 30 29  1  0  0  0  0
 31 29  1  0  0  0  0
 32 30  1  0  0  0  0
 33 31  1  0  0  0  0
 35 36  1  0  0  0  0
 35 34  1  0  0  0  0
 37 36  1  0  0  0  0
 37 38  1  0  0  0  0
 39 38  1  1  0  0  0
 39 41  1  0  0  0  0
 39 40  1  0  0  0  0
 40 43  1  1  0  0  0
 41 40  1  0  0  0  0
 43 42  1  0  0  0  0
M  END
>  <MODEL>
8

>  <REMARK>
 VINA RESULT:      -6.6      2.591      9.351
  Name = 
  12 active torsions:
  status: ('A' for Active; 'I' for Inactive)
    1  A    between atoms: C_1  and  C_35
    2  A    between atoms: C_1  and  O_38
    3  A    between atoms: N_2  and  C_6
    4  A    between atoms: N_2  and  C_13
    5  A    between atoms: C_3  and  C_12
    6  A    between atoms: C_6  and  C_12
    7  A    between atoms: C_9  and  C_19
    8  A    between atoms: C_9  and  N_32
    9  A    between atoms: C_11  and  C_14
   10  A    between atoms: C_25  and  O_39
   11  A    between atoms: N_32  and  C_35
   12  A    between atoms: C_34  and  O_38
                            x       y       z     vdW  Elec       q    Type
                         _______ _______ _______ _____ _____    ______ ____

>  <TORSDO>
F 12

$$$$
=
 OpenBabel11052416393D

 43 48  0  0  1  0  0  0  0  0999 V2000
  185.4500  178.5920  145.2430 C   0  0  0  0  0  0  0  0  0  0  0  0
  188.9420  177.2680  141.7200 C   0  0  2  0  0  3  0  0  0  0  0  0
  188.4950  178.6410  139.8360 C   0  0  1  0  0  3  0  0  0  0  0  0
  187.4920  178.1040  144.1000 C   0  0  0  0  0  0  0  0  0  0  0  0
  184.5950  178.2380  144.0600 C   0  0  0  0  0  2  0  0  0  0  0  0
  184.9060  178.9940  146.3030 O   0  0  0  0  0  0  0  0  0  0  0  0
  186.7410  177.8770  142.8410 C   0  0  0  0  0  0  0  0  0  0  0  0
  186.8720  178.4310  145.1940 N   0  0  0  0  0  0  0  0  0  0  0  0
  185.4090  177.9660  142.8270 C   0  0  0  0  0  3  0  0  0  0  0  0
  187.3450  178.6800  140.6600 O   0  0  0  0  0  0  0  0  0  0  0  0
  187.4660  177.6020  141.5500 C   0  0  1  0  0  3  0  0  0  0  0  0
  189.5990  178.1470  142.7830 C   0  0  0  0  0  2  0  0  0  0  0  0
  189.5010  177.6240  140.3770 C   0  0  2  0  0  3  0  0  0  0  0  0
  188.9720  177.8820  144.1430 C   0  0  0  0  0  2  0  0  0  0  0  0
  188.1960  178.4380  138.4080 N   0  0  0  0  0  0  0  0  0  0  0  0
  189.0540  179.3490  137.6710 C   0  0  0  0  0  1  0  0  0  0  0  0
  186.8140  178.7890  138.0750 C   0  0  0  0  0  2  0  0  0  0  0  0
  186.0240  177.5660  137.6140 C   0  0  1  0  0  3  0  0  0  0  0  0
  186.8430  176.4370  137.5900 O   0  0  0  0  0  1  0  0  0  0  0  0
  184.8240  177.3060  138.4780 C   0  0  0  0  0  3  0  0  0  0  0  0
  183.7090  176.7000  138.0500 C   0  0  0  0  0  0  0  0  0  0  0  0
  181.1350  175.7170  137.1300 C   0  0  0  0  0  2  0  0  0  0  0  0
  183.5890  176.1560  136.6450 C   0  0  2  0  0  3  0  0  0  0  0  0
  182.6360  176.3960  139.0580 C   0  0  0  0  0  2  0  0  0  0  0  0
  181.2290  176.4670  138.4590 C   0  0  1  0  0  3  0  0  0  0  0  0
  182.1540  176.2410  136.1170 C   0  0  0  0  0  2  0  0  0  0  0  0
  180.7610  177.9040  138.3200 C   0  0  0  0  0  1  0  0  0  0  0  0
  184.1660  174.7750  136.5130 C   0  0  0  0  0  0  0  0  0  0  0  0
  184.6520  171.9630  136.2800 C   0  0  0  0  0  2  0  0  0  0  0  0
  185.1880  172.8690  135.1810 C   0  0  0  0  0  2  0  0  0  0  0  0
  184.8680  172.6460  137.6240 C   0  0  0  0  0  2  0  0  0  0  0  0
  184.3850  174.1690  135.1410 C   0  0  0  0  0  2  0  0  0  0  0  0
  184.3080  174.0440  137.6300 C   0  0  0  0  0  3  0  0  0  0  0  0
  189.5470  176.4740  139.5800 O   0  0  0  0  0  0  0  0  0  0  0  0
  190.8810  176.3650  139.1850 C   0  0  0  0  0  2  0  0  0  0  0  0
  190.9540  175.8510  137.7610 C   0  0  0  0  0  2  0  0  0  0  0  0
  191.0770  174.4050  137.7600 N   0  0  0  0  0  2  0  0  0  0  0  0
  192.0290  174.0750  136.7160 C   0  0  0  0  0  2  0  0  0  0  0  0
  193.1310  175.1260  136.6610 C   0  0  1  0  0  3  0  0  0  0  0  0
  194.4870  174.6070  137.1540 C   0  0  2  0  0  3  0  0  0  0  0  0
  194.2020  174.7220  135.6680 C   0  0  0  0  0  2  0  0  0  0  0  0
  195.5710  173.0780  138.3250 C   0  0  0  0  0  1  0  0  0  0  0  0
  194.4400  173.2620  137.5300 O   0  0  0  0  0  0  0  0  0  0  0  0
  1  6  2  0  0  0  0
  2 12  1  1  0  0  0
  3 15  1  6  0  0  0
  3 13  1  0  0  0  0
  3 10  1  0  0  0  0
  4 14  1  0  0  0  0
  4  8  2  0  0  0  0
  5  1  1  0  0  0  0
  7  4  1  0  0  0  0
  8  1  1  0  0  0  0
  9  7  2  0  0  0  0
  9  5  1  0  0  0  0
 11 10  1  6  0  0  0
 11  2  1  0  0  0  0
 11  7  1  0  0  0  0
 12 14  1  0  0  0  0
 13 34  1  6  0  0  0
 13  2  1  0  0  0  0
 16 15  1  0  0  0  0
 17 15  1  0  0  0  0
 18 19  1  1  0  0  0
 18 17  1  0  0  0  0
 18 20  1  0  0  0  0
 21 20  2  0  0  0  0
 21 24  1  0  0  0  0
 22 25  1  0  0  0  0
 23 28  1  1  0  0  0
 23 21  1  0  0  0  0
 25 27  1  6  0  0  0
 25 24  1  0  0  0  0
 26 23  1  0  0  0  0
 26 22  1  0  0  0  0
 28 33  2  0  0  0  0
 29 31  1  0  0  0  0
 30 29  1  0  0  0  0
 31 33  1  0  0  0  0
 32 30  1  0  0  0  0
 32 28  1  0  0  0  0
 35 34  1  0  0  0  0
 36 35  1  0  0  0  0
 37 36  1  0  0  0  0
 38 37  1  0  0  0  0
 39 38  1  6  0  0  0
 39 40  1  0  0  0  0
 40 43  1  6  0  0  0
 41 39  1  0  0  0  0
 41 40  1  0  0  0  0
 43 42  1  0  0  0  0
M  END
>  <MODEL>
9

>  <REMARK>
 VINA RESULT:      -6.5      2.242      3.797
  Name = 
  12 active torsions:
  status: ('A' for Active; 'I' for Inactive)
    1  A    between atoms: C_1  and  C_35
    2  A    between atoms: C_1  and  O_38
    3  A    between atoms: N_2  and  C_6
    4  A    between atoms: N_2  and  C_13
    5  A    between atoms: C_3  and  C_12
    6  A    between atoms: C_6  and  C_12
    7  A    between atoms: C_9  and  C_19
    8  A    between atoms: C_9  and  N_32
    9  A    between atoms: C_11  and  C_14
   10  A    between atoms: C_25  and  O_39
   11  A    between atoms: N_32  and  C_35
   12  A    between atoms: C_34  and  O_38
                            x       y       z     vdW  Elec       q    Type
                         _______ _______ _______ _____ _____    ______ ____

>  <TORSDO>
F 12

$$$$
