=
 OpenBabel11052413083D

 31 35  0  0  1  0  0  0  0  0999 V2000
  187.5690  178.3870  148.1100 C   0  0  1  0  0  3  0  0  0  0  0  0
  187.9590  177.5350  144.4080 C   0  0  0  0  0  0  0  0  0  0  0  0
  189.2980  177.0730  144.2380 C   0  0  0  0  0  0  0  0  0  0  0  0
  183.0390  178.9580  143.1950 O   0  0  0  0  0  0  0  0  0  0  0  0
  183.6280  178.6140  142.1350 C   0  0  0  0  0  0  0  0  0  0  0  0
  191.4350  176.5000  145.1340 C   0  0  0  0  0  0  0  0  0  0  0  0
  187.3970  177.9150  145.6650 C   0  0  0  0  0  0  0  0  0  0  0  0
  186.1470  178.5120  148.0760 O   0  0  0  0  0  0  0  0  0  0  0  0
  190.1580  176.9400  145.2880 N   0  0  0  0  0  0  0  0  0  0  0  0
  185.8140  178.0770  143.3550 C   0  0  0  0  0  0  0  0  0  0  0  0
  187.9430  177.5360  149.1320 F   0  0  0  0  0  0  0  0  0  0  0  0
  188.9350  176.8490  141.8700 N   0  0  0  0  0  0  0  0  0  0  0  0
  192.2460  176.3880  146.2130 F   0  0  0  0  0  0  0  0  0  0  0  0
  185.3080  178.3980  144.5720 N   0  0  0  0  0  0  0  0  0  0  0  0
  187.1400  177.6320  143.2500 C   0  0  0  0  0  0  0  0  0  0  0  0
  184.9940  178.1770  142.1790 N   0  0  0  0  0  2  0  0  0  0  0  0
  188.1150  177.8930  146.8010 C   0  0  0  0  0  3  0  0  0  0  0  0
  191.9110  176.1620  143.8670 C   0  0  0  0  0  3  0  0  0  0  0  0
  186.0410  178.3260  145.7100 C   0  0  0  0  0  0  0  0  0  0  0  0
  185.4430  178.6010  146.8720 C   0  0  0  0  0  3  0  0  0  0  0  0
  187.6580  177.2820  141.9970 C   0  0  0  0  0  3  0  0  0  0  0  0
  189.7550  176.7350  142.9430 C   0  0  0  0  0  0  0  0  0  0  0  0
  191.0630  176.2820  142.7680 C   0  0  0  0  0  3  0  0  0  0  0  0
  181.4920  178.6860  138.4100 C   0  0  0  0  0  0  0  0  0  0  0  0
  181.6540  178.0540  140.7370 C   0  0  0  0  0  3  0  0  0  0  0  0
  184.7110  179.8940  139.7250 O   0  0  0  0  0  1  0  0  0  0  0  0
  180.7890  178.7000  137.2140 O   0  0  0  0  0  1  0  0  0  0  0  0
  180.9450  178.0680  139.5350 C   0  0  0  0  0  3  0  0  0  0  0  0
  183.4650  179.2810  139.6900 C   0  0  0  0  0  0  0  0  0  0  0  0
  182.9180  178.6570  140.8350 C   0  0  0  0  0  0  0  0  0  0  0  0
  182.7480  179.2900  138.4890 C   0  0  0  0  0  3  0  0  0  0  0  0
  1 11  1  1  0  0  0
  2  7  1  0  0  0  0
  3  2  1  0  0  0  0
  3  9  1  0  0  0  0
  5 16  1  0  0  0  0
  5  4  2  0  0  0  0
  6  9  2  0  0  0  0
  6 13  1  0  0  0  0
  7 19  1  0  0  0  0
  7 17  2  0  0  0  0
  8  1  1  0  0  0  0
 10 14  2  0  0  0  0
 12 21  2  0  0  0  0
 12 22  1  0  0  0  0
 14 19  1  0  0  0  0
 15 10  1  0  0  0  0
 15  2  2  0  0  0  0
 16 10  1  0  0  0  0
 17  1  1  0  0  0  0
 18  6  1  0  0  0  0
 19 20  2  0  0  0  0
 20  8  1  0  0  0  0
 21 15  1  0  0  0  0
 22  3  2  0  0  0  0
 23 22  1  0  0  0  0
 23 18  2  0  0  0  0
 24 31  2  0  0  0  0
 24 28  1  0  0  0  0
 25 30  1  0  0  0  0
 27 24  1  0  0  0  0
 28 25  2  0  0  0  0
 29 26  1  0  0  0  0
 29 30  2  0  0  0  0
 30  5  1  0  0  0  0
 31 29  1  0  0  0  0
M  END
>  <MODEL>
1

>  <REMARK>
 VINA RESULT:     -10.9      0.000      0.000
  Name = 
  1 active torsions:
  status: ('A' for Active; 'I' for Inactive)
    1  A    between atoms: C_9  and  C_22
                            x       y       z     vdW  Elec       q    Type
                         _______ _______ _______ _____ _____    ______ ____

>  <TORSDO>
F 1

$$$$
=
 OpenBabel11052413083D

 31 35  0  0  1  0  0  0  0  0999 V2000
  184.6790  179.0030  145.4750 C   0  0  1  0  0  3  0  0  0  0  0  0
  188.0640  177.7240  144.2560 C   0  0  0  0  0  0  0  0  0  0  0  0
  188.8560  177.5020  145.4220 C   0  0  0  0  0  0  0  0  0  0  0  0
  186.7420  178.0110  139.1700 O   0  0  0  0  0  0  0  0  0  0  0  0
  187.9440  177.6360  139.2500 C   0  0  0  0  0  0  0  0  0  0  0  0
  189.1110  177.4740  147.7950 C   0  0  0  0  0  0  0  0  0  0  0  0
  186.7060  178.1660  144.2840 C   0  0  0  0  0  0  0  0  0  0  0  0
  184.0130  178.8530  144.2210 O   0  0  0  0  0  0  0  0  0  0  0  0
  188.3620  177.6840  146.6800 N   0  0  0  0  0  0  0  0  0  0  0  0
  187.9420  177.6980  141.8090 C   0  0  0  0  0  0  0  0  0  0  0  0
  183.9470  178.3910  146.4740 F   0  0  0  0  0  0  0  0  0  0  0  0
  190.7310  176.8800  144.0470 N   0  0  0  0  0  0  0  0  0  0  0  0
  188.5680  177.6700  149.0200 F   0  0  0  0  0  0  0  0  0  0  0  0
  186.6440  178.0880  141.8800 N   0  0  0  0  0  0  0  0  0  0  0  0
  188.6720  177.5000  142.9910 C   0  0  0  0  0  0  0  0  0  0  0  0
  188.5640  177.4750  140.5340 N   0  0  0  0  0  2  0  0  0  0  0  0
  186.0710  178.4410  145.4360 C   0  0  0  0  0  3  0  0  0  0  0  0
  190.4360  177.0550  147.6810 C   0  0  0  0  0  3  0  0  0  0  0  0
  186.0130  178.3170  143.0570 C   0  0  0  0  0  0  0  0  0  0  0  0
  184.7160  178.6360  143.0330 C   0  0  0  0  0  3  0  0  0  0  0  0
  190.0050  177.0800  142.9210 C   0  0  0  0  0  3  0  0  0  0  0  0
  190.1970  177.0760  145.2770 C   0  0  0  0  0  0  0  0  0  0  0  0
  190.9780  176.8570  146.4120 C   0  0  0  0  0  3  0  0  0  0  0  0
  190.2500  176.7500  135.7370 C   0  0  0  0  0  0  0  0  0  0  0  0
  189.5300  176.2090  137.9800 C   0  0  0  0  0  3  0  0  0  0  0  0
  187.9200  179.3630  136.8750 O   0  0  0  0  0  1  0  0  0  0  0  0
  191.0000  176.4480  134.6100 O   0  0  0  0  0  1  0  0  0  0  0  0
  190.2860  175.9050  136.8470 C   0  0  0  0  0  3  0  0  0  0  0  0
  188.6960  178.2100  136.8930 C   0  0  0  0  0  0  0  0  0  0  0  0
  188.7260  177.3600  138.0230 C   0  0  0  0  0  0  0  0  0  0  0  0
  189.4570  177.8980  135.7620 C   0  0  0  0  0  3  0  0  0  0  0  0
  1 11  1  1  0  0  0
  2  7  1  0  0  0  0
  2  3  1  0  0  0  0
  3  9  1  0  0  0  0
  4  5  2  0  0  0  0
  5 16  1  0  0  0  0
  6 13  1  0  0  0  0
  7 17  2  0  0  0  0
  8  1  1  0  0  0  0
  9  6  2  0  0  0  0
 10 14  2  0  0  0  0
 10 15  1  0  0  0  0
 12 22  1  0  0  0  0
 14 19  1  0  0  0  0
 15  2  2  0  0  0  0
 16 10  1  0  0  0  0
 17  1  1  0  0  0  0
 18  6  1  0  0  0  0
 19  7  1  0  0  0  0
 20 19  2  0  0  0  0
 20  8  1  0  0  0  0
 21 15  1  0  0  0  0
 21 12  2  0  0  0  0
 22  3  2  0  0  0  0
 22 23  1  0  0  0  0
 23 18  2  0  0  0  0
 24 31  2  0  0  0  0
 24 28  1  0  0  0  0
 25 30  1  0  0  0  0
 26 29  1  0  0  0  0
 27 24  1  0  0  0  0
 28 25  2  0  0  0  0
 29 30  2  0  0  0  0
 30  5  1  0  0  0  0
 31 29  1  0  0  0  0
M  END
>  <MODEL>
2

>  <REMARK>
 VINA RESULT:     -10.9      3.424      5.103
  Name = 
  1 active torsions:
  status: ('A' for Active; 'I' for Inactive)
    1  A    between atoms: C_9  and  C_22
                            x       y       z     vdW  Elec       q    Type
                         _______ _______ _______ _____ _____    ______ ____

>  <TORSDO>
F 1

$$$$
=
 OpenBabel11052413083D

 31 35  0  0  1  0  0  0  0  0999 V2000
  190.7380  177.1430  141.1640 C   0  0  1  0  0  3  0  0  0  0  0  0
  187.4400  178.0310  142.8720 C   0  0  0  0  0  0  0  0  0  0  0  0
  187.6280  177.7900  144.2650 C   0  0  0  0  0  0  0  0  0  0  0  0
  185.0440  179.3240  138.3670 O   0  0  0  0  0  0  0  0  0  0  0  0
  184.2110  179.4310  139.3080 C   0  0  0  0  0  0  0  0  0  0  0  0
  189.0140  177.1550  146.1030 C   0  0  0  0  0  0  0  0  0  0  0  0
  188.4590  177.8610  141.8850 C   0  0  0  0  0  0  0  0  0  0  0  0
  190.4090  177.7350  139.9080 O   0  0  0  0  0  0  0  0  0  0  0  0
  188.8270  177.3860  144.7760 N   0  0  0  0  0  0  0  0  0  0  0  0
  185.9090  178.7100  141.0840 C   0  0  0  0  0  0  0  0  0  0  0  0
  191.9680  177.6020  141.5940 F   0  0  0  0  0  0  0  0  0  0  0  0
  185.3350  178.3800  144.6920 N   0  0  0  0  0  0  0  0  0  0  0  0
  190.2260  176.7550  146.5540 F   0  0  0  0  0  0  0  0  0  0  0  0
  186.9130  178.5680  140.1830 N   0  0  0  0  0  0  0  0  0  0  0  0
  186.1530  178.4560  142.4420 C   0  0  0  0  0  0  0  0  0  0  0  0
  184.6040  179.1350  140.6560 N   0  0  0  0  0  2  0  0  0  0  0  0
  189.6900  177.4230  142.2020 C   0  0  0  0  0  3  0  0  0  0  0  0
  187.9600  177.3300  147.0000 C   0  0  0  0  0  3  0  0  0  0  0  0
  188.1590  178.1660  140.5340 C   0  0  0  0  0  0  0  0  0  0  0  0
  189.1020  178.1150  139.5910 C   0  0  0  0  0  3  0  0  0  0  0  0
  185.1240  178.6200  143.3760 C   0  0  0  0  0  3  0  0  0  0  0  0
  186.5430  177.9770  145.1530 C   0  0  0  0  0  0  0  0  0  0  0  0
  186.7200  177.7440  146.5180 C   0  0  0  0  0  3  0  0  0  0  0  0
  180.2150  180.7760  138.4910 C   0  0  0  0  0  0  0  0  0  0  0  0
  182.5880  181.1990  138.6730 C   0  0  0  0  0  3  0  0  0  0  0  0
  181.8860  177.6450  139.4700 O   0  0  0  0  0  1  0  0  0  0  0  0
  178.9310  181.2260  138.2230 O   0  0  0  0  0  1  0  0  0  0  0  0
  181.2960  181.6540  138.4030 C   0  0  0  0  0  3  0  0  0  0  0  0
  181.7190  178.9790  139.1180 C   0  0  0  0  0  0  0  0  0  0  0  0
  182.8210  179.8620  139.0330 C   0  0  0  0  0  0  0  0  0  0  0  0
  180.4280  179.4430  138.8480 C   0  0  0  0  0  3  0  0  0  0  0  0
  1 11  1  1  0  0  0
  1 17  1  0  0  0  0
  2  3  1  0  0  0  0
  3  9  2  0  0  0  0
  3 22  1  0  0  0  0
  4  5  2  0  0  0  0
  5 16  1  0  0  0  0
  6 13  1  0  0  0  0
  6 18  2  0  0  0  0
  7 17  2  0  0  0  0
  7  2  1  0  0  0  0
  8  1  1  0  0  0  0
  9  6  1  0  0  0  0
 10 15  1  0  0  0  0
 12 22  1  0  0  0  0
 14 19  1  0  0  0  0
 14 10  2  0  0  0  0
 15  2  2  0  0  0  0
 15 21  1  0  0  0  0
 16 10  1  0  0  0  0
 19  7  1  0  0  0  0
 20  8  1  0  0  0  0
 20 19  2  0  0  0  0
 21 12  2  0  0  0  0
 22 23  2  0  0  0  0
 23 18  1  0  0  0  0
 24 31  1  0  0  0  0
 25 30  2  0  0  0  0
 27 24  1  0  0  0  0
 28 24  2  0  0  0  0
 28 25  1  0  0  0  0
 29 26  1  0  0  0  0
 30 29  1  0  0  0  0
 30  5  1  0  0  0  0
 31 29  2  0  0  0  0
M  END
>  <MODEL>
3

>  <REMARK>
 VINA RESULT:     -10.8      2.491      4.508
  Name = 
  1 active torsions:
  status: ('A' for Active; 'I' for Inactive)
    1  A    between atoms: C_9  and  C_22
                            x       y       z     vdW  Elec       q    Type
                         _______ _______ _______ _____ _____    ______ ____

>  <TORSDO>
F 1

$$$$
=
 OpenBabel11052413083D

 31 35  0  0  1  0  0  0  0  0999 V2000
  189.9750  177.1200  147.4070 C   0  0  1  0  0  3  0  0  0  0  0  0
  187.7270  177.7170  144.3780 C   0  0  0  0  0  0  0  0  0  0  0  0
  186.4360  178.0410  144.8900 C   0  0  0  0  0  0  0  0  0  0  0  0
  191.5430  176.6980  140.8980 O   0  0  0  0  0  0  0  0  0  0  0  0
  190.4750  176.9240  140.2660 C   0  0  0  0  0  0  0  0  0  0  0  0
  184.9640  178.4590  146.7230 C   0  0  0  0  0  0  0  0  0  0  0  0
  188.8720  177.4650  145.1950 C   0  0  0  0  0  0  0  0  0  0  0  0
  191.2010  177.1290  146.6760 O   0  0  0  0  0  0  0  0  0  0  0  0
  186.1930  178.1510  146.2280 N   0  0  0  0  0  0  0  0  0  0  0  0
  189.1240  177.3200  142.4050 C   0  0  0  0  0  0  0  0  0  0  0  0
  190.0590  177.9900  148.4780 F   0  0  0  0  0  0  0  0  0  0  0  0
  185.5630  178.1610  142.6510 N   0  0  0  0  0  0  0  0  0  0  0  0
  184.7810  178.5560  148.0610 F   0  0  0  0  0  0  0  0  0  0  0  0
  190.1940  177.1190  143.2140 N   0  0  0  0  0  0  0  0  0  0  0  0
  187.8770  177.6320  142.9670 C   0  0  0  0  0  0  0  0  0  0  0  0
  189.2670  177.2310  140.9780 N   0  0  0  0  0  2  0  0  0  0  0  0
  188.8060  177.4840  146.5370 C   0  0  0  0  0  3  0  0  0  0  0  0
  183.8940  178.6770  145.8560 C   0  0  0  0  0  3  0  0  0  0  0  0
  190.1110  177.1870  144.5660 C   0  0  0  0  0  0  0  0  0  0  0  0
  191.2290  177.0380  145.2810 C   0  0  0  0  0  3  0  0  0  0  0  0
  186.7770  177.8580  142.1330 C   0  0  0  0  0  3  0  0  0  0  0  0
  185.3680  178.2580  143.9880 C   0  0  0  0  0  0  0  0  0  0  0  0
  184.1020  178.5750  144.4820 C   0  0  0  0  0  3  0  0  0  0  0  0
  190.4790  176.6940  135.9780 C   0  0  0  0  0  0  0  0  0  0  0  0
  191.1660  175.8510  138.1360 C   0  0  0  0  0  3  0  0  0  0  0  0
  189.0270  178.8480  138.5860 O   0  0  0  0  0  1  0  0  0  0  0  0
  190.4900  176.6060  134.5940 O   0  0  0  0  0  1  0  0  0  0  0  0
  191.1780  175.7610  136.7440 C   0  0  0  0  0  3  0  0  0  0  0  0
  189.7490  177.8140  138.0010 C   0  0  0  0  0  0  0  0  0  0  0  0
  190.4560  176.8740  138.7860 C   0  0  0  0  0  0  0  0  0  0  0  0
  189.7670  177.7170  136.6070 C   0  0  0  0  0  3  0  0  0  0  0  0
  1 11  1  1  0  0  0
  2  3  1  0  0  0  0
  2  7  1  0  0  0  0
  3  9  1  0  0  0  0
  5  4  2  0  0  0  0
  5 16  1  0  0  0  0
  6 13  1  0  0  0  0
  7 17  2  0  0  0  0
  8  1  1  0  0  0  0
  9  6  2  0  0  0  0
 10 15  1  0  0  0  0
 10 14  2  0  0  0  0
 12 22  1  0  0  0  0
 14 19  1  0  0  0  0
 15  2  2  0  0  0  0
 16 10  1  0  0  0  0
 17  1  1  0  0  0  0
 18  6  1  0  0  0  0
 19  7  1  0  0  0  0
 19 20  2  0  0  0  0
 20  8  1  0  0  0  0
 21 12  2  0  0  0  0
 21 15  1  0  0  0  0
 22 23  1  0  0  0  0
 22  3  2  0  0  0  0
 23 18  2  0  0  0  0
 24 31  2  0  0  0  0
 24 28  1  0  0  0  0
 25 30  1  0  0  0  0
 27 24  1  0  0  0  0
 28 25  2  0  0  0  0
 29 26  1  0  0  0  0
 29 30  2  0  0  0  0
 30  5  1  0  0  0  0
 31 29  1  0  0  0  0
M  END
>  <MODEL>
4

>  <REMARK>
 VINA RESULT:     -10.6      3.619      6.247
  Name = 
  1 active torsions:
  status: ('A' for Active; 'I' for Inactive)
    1  A    between atoms: C_9  and  C_22
                            x       y       z     vdW  Elec       q    Type
                         _______ _______ _______ _____ _____    ______ ____

>  <TORSDO>
F 1

$$$$
=
 OpenBabel11052413083D

 31 35  0  0  1  0  0  0  0  0999 V2000
  184.4460  179.2030  144.3570 C   0  0  1  0  0  3  0  0  0  0  0  0
  187.9630  177.7310  144.1400 C   0  0  0  0  0  0  0  0  0  0  0  0
  188.4290  177.5980  145.4820 C   0  0  0  0  0  0  0  0  0  0  0  0
  187.9610  177.5810  138.8790 O   0  0  0  0  0  0  0  0  0  0  0  0
  189.0860  177.1850  139.2900 C   0  0  0  0  0  0  0  0  0  0  0  0
  188.0840  177.7830  147.8370 C   0  0  0  0  0  0  0  0  0  0  0  0
  186.6630  178.2080  143.7880 C   0  0  0  0  0  0  0  0  0  0  0  0
  184.1060  178.9540  142.9930 O   0  0  0  0  0  0  0  0  0  0  0  0
  187.6470  177.9080  146.5560 N   0  0  0  0  0  0  0  0  0  0  0  0
  188.4510  177.4830  141.7520 C   0  0  0  0  0  0  0  0  0  0  0  0
  183.4600  178.7040  145.1870 F   0  0  0  0  0  0  0  0  0  0  0  0
  190.5550  176.8050  144.6790 N   0  0  0  0  0  0  0  0  0  0  0  0
  187.2640  178.1050  148.8650 F   0  0  0  0  0  0  0  0  0  0  0  0
  187.1970  177.9100  141.4610 N   0  0  0  0  0  0  0  0  0  0  0  0
  188.8540  177.3760  143.0910 C   0  0  0  0  0  0  0  0  0  0  0  0
  189.3590  177.1270  140.6970 N   0  0  0  0  0  2  0  0  0  0  0  0
  185.7750  178.6040  144.7160 C   0  0  0  0  0  3  0  0  0  0  0  0
  189.3750  177.3220  148.0940 C   0  0  0  0  0  3  0  0  0  0  0  0
  186.3040  178.2630  142.4180 C   0  0  0  0  0  0  0  0  0  0  0  0
  185.0710  178.6110  142.0420 C   0  0  0  0  0  3  0  0  0  0  0  0
  190.1420  176.9180  143.3950 C   0  0  0  0  0  3  0  0  0  0  0  0
  189.7420  177.1270  145.7150 C   0  0  0  0  0  0  0  0  0  0  0  0
  190.2050  176.9940  147.0240 C   0  0  0  0  0  3  0  0  0  0  0  0
  192.1980  176.0170  136.5710 C   0  0  0  0  0  0  0  0  0  0  0  0
  191.4720  176.7550  138.7550 C   0  0  0  0  0  3  0  0  0  0  0  0
  188.5380  176.4110  136.5100 O   0  0  0  0  0  1  0  0  0  0  0  0
  193.2150  175.6410  135.7060 O   0  0  0  0  0  1  0  0  0  0  0  0
  192.4960  176.3770  137.8850 C   0  0  0  0  0  3  0  0  0  0  0  0
  189.8420  176.4090  136.9920 C   0  0  0  0  0  0  0  0  0  0  0  0
  190.1350  176.7770  138.3260 C   0  0  0  0  0  0  0  0  0  0  0  0
  190.8740  176.0330  136.1270 C   0  0  0  0  0  3  0  0  0  0  0  0
  1 17  1  0  0  0  0
  1 11  1  1  0  0  0
  2  3  1  0  0  0  0
  3 22  2  0  0  0  0
  3  9  1  0  0  0  0
  4  5  2  0  0  0  0
  5 16  1  0  0  0  0
  6 18  1  0  0  0  0
  6 13  1  0  0  0  0
  7  2  1  0  0  0  0
  7 17  2  0  0  0  0
  8  1  1  0  0  0  0
  9  6  2  0  0  0  0
 10 15  1  0  0  0  0
 12 22  1  0  0  0  0
 14 10  2  0  0  0  0
 14 19  1  0  0  0  0
 15 21  1  0  0  0  0
 15  2  2  0  0  0  0
 16 10  1  0  0  0  0
 19  7  1  0  0  0  0
 20 19  2  0  0  0  0
 20  8  1  0  0  0  0
 21 12  2  0  0  0  0
 22 23  1  0  0  0  0
 23 18  2  0  0  0  0
 24 28  1  0  0  0  0
 26 29  1  0  0  0  0
 27 24  1  0  0  0  0
 28 25  2  0  0  0  0
 29 30  2  0  0  0  0
 30 25  1  0  0  0  0
 30  5  1  0  0  0  0
 31 24  2  0  0  0  0
 31 29  1  0  0  0  0
M  END
>  <MODEL>
5

>  <REMARK>
 VINA RESULT:     -10.4      3.706      6.174
  Name = 
  1 active torsions:
  status: ('A' for Active; 'I' for Inactive)
    1  A    between atoms: C_9  and  C_22
                            x       y       z     vdW  Elec       q    Type
                         _______ _______ _______ _____ _____    ______ ____

>  <TORSDO>
F 1

$$$$
=
 OpenBabel11052413083D

 31 35  0  0  1  0  0  0  0  0999 V2000
  190.9430  176.7130  147.2820 C   0  0  1  0  0  3  0  0  0  0  0  0
  188.2630  177.6160  144.7150 C   0  0  0  0  0  0  0  0  0  0  0  0
  187.0850  177.9350  145.4540 C   0  0  0  0  0  0  0  0  0  0  0  0
  191.4210  176.7660  140.5910 O   0  0  0  0  0  0  0  0  0  0  0  0
  190.2760  177.0730  140.1610 C   0  0  0  0  0  0  0  0  0  0  0  0
  185.9480  178.2490  147.5300 C   0  0  0  0  0  0  0  0  0  0  0  0
  189.5130  177.2650  145.3120 C   0  0  0  0  0  0  0  0  0  0  0  0
  192.0340  176.7440  146.3620 O   0  0  0  0  0  0  0  0  0  0  0  0
  187.0660  177.9450  146.8190 N   0  0  0  0  0  0  0  0  0  0  0  0
  189.3050  177.3370  142.5160 C   0  0  0  0  0  0  0  0  0  0  0  0
  191.2340  177.4910  148.3860 F   0  0  0  0  0  0  0  0  0  0  0  0
  185.8680  178.2590  143.4040 N   0  0  0  0  0  0  0  0  0  0  0  0
  185.9860  178.2430  148.8830 F   0  0  0  0  0  0  0  0  0  0  0  0
  190.4830  177.0410  143.1220 N   0  0  0  0  0  0  0  0  0  0  0  0
  188.1800  177.6390  143.2960 C   0  0  0  0  0  0  0  0  0  0  0  0
  189.2130  177.3580  141.0820 N   0  0  0  0  0  2  0  0  0  0  0  0
  189.6650  177.1790  146.6450 C   0  0  0  0  0  3  0  0  0  0  0  0
  184.7620  178.5660  146.8690 C   0  0  0  0  0  3  0  0  0  0  0  0
  190.6210  177.0030  144.4690 C   0  0  0  0  0  0  0  0  0  0  0  0
  191.8320  176.7640  144.9790 C   0  0  0  0  0  3  0  0  0  0  0  0
  186.9690  177.9630  142.6730 C   0  0  0  0  0  3  0  0  0  0  0  0
  185.8960  178.2550  144.7590 C   0  0  0  0  0  0  0  0  0  0  0  0
  184.7400  178.5680  145.4750 C   0  0  0  0  0  3  0  0  0  0  0  0
  189.4810  177.3670  135.9510 C   0  0  0  0  0  0  0  0  0  0  0  0
  189.4110  178.2960  138.1810 C   0  0  0  0  0  3  0  0  0  0  0  0
  190.9540  174.9240  138.2780 O   0  0  0  0  0  1  0  0  0  0  0  0
  189.2180  177.4780  134.5940 O   0  0  0  0  0  1  0  0  0  0  0  0
  189.1450  178.4090  136.8160 C   0  0  0  0  0  3  0  0  0  0  0  0
  190.3530  176.0910  137.8200 C   0  0  0  0  0  0  0  0  0  0  0  0
  190.0160  177.1420  138.7040 C   0  0  0  0  0  0  0  0  0  0  0  0
  190.0830  176.2120  136.4530 C   0  0  0  0  0  3  0  0  0  0  0  0
  1 11  1  1  0  0  0
  2  7  1  0  0  0  0
  2  3  1  0  0  0  0
  3  9  1  0  0  0  0
  5  4  2  0  0  0  0
  5 16  1  0  0  0  0
  6 13  1  0  0  0  0
  7 17  2  0  0  0  0
  8  1  1  0  0  0  0
  9  6  2  0  0  0  0
 10 14  2  0  0  0  0
 10 15  1  0  0  0  0
 12 22  1  0  0  0  0
 14 19  1  0  0  0  0
 15  2  2  0  0  0  0
 16 10  1  0  0  0  0
 17  1  1  0  0  0  0
 18  6  1  0  0  0  0
 19 20  2  0  0  0  0
 19  7  1  0  0  0  0
 20  8  1  0  0  0  0
 21 15  1  0  0  0  0
 21 12  2  0  0  0  0
 22  3  2  0  0  0  0
 22 23  1  0  0  0  0
 23 18  2  0  0  0  0
 24 31  2  0  0  0  0
 24 28  1  0  0  0  0
 25 30  1  0  0  0  0
 27 24  1  0  0  0  0
 28 25  2  0  0  0  0
 29 26  1  0  0  0  0
 29 30  2  0  0  0  0
 30  5  1  0  0  0  0
 31 29  1  0  0  0  0
M  END
>  <MODEL>
6

>  <REMARK>
 VINA RESULT:     -10.3      4.069      6.094
  Name = 
  1 active torsions:
  status: ('A' for Active; 'I' for Inactive)
    1  A    between atoms: C_9  and  C_22
                            x       y       z     vdW  Elec       q    Type
                         _______ _______ _______ _____ _____    ______ ____

>  <TORSDO>
F 1

$$$$
=
 OpenBabel11052413083D

 31 35  0  0  1  0  0  0  0  0999 V2000
  183.6780  179.0470  139.4700 C   0  0  1  0  0  3  0  0  0  0  0  0
  187.3890  178.1860  139.7450 C   0  0  0  0  0  0  0  0  0  0  0  0
  187.8880  178.1140  138.4110 C   0  0  0  0  0  0  0  0  0  0  0  0
  187.3100  177.9540  145.0030 O   0  0  0  0  0  0  0  0  0  0  0  0
  188.4680  177.6500  144.6060 C   0  0  0  0  0  0  0  0  0  0  0  0
  187.5730  178.3240  136.0530 C   0  0  0  0  0  0  0  0  0  0  0  0
  186.0430  178.5290  140.0790 C   0  0  0  0  0  0  0  0  0  0  0  0
  183.5030  179.3540  140.8530 O   0  0  0  0  0  0  0  0  0  0  0  0
  187.1040  178.3900  137.3280 N   0  0  0  0  0  0  0  0  0  0  0  0
  187.8550  177.9420  142.1380 C   0  0  0  0  0  0  0  0  0  0  0  0
  183.1900  180.0790  138.6920 F   0  0  0  0  0  0  0  0  0  0  0  0
  190.0530  177.4710  139.2390 N   0  0  0  0  0  0  0  0  0  0  0  0
  186.7510  178.6070  135.0160 F   0  0  0  0  0  0  0  0  0  0  0  0
  186.5770  178.3040  142.4140 N   0  0  0  0  0  0  0  0  0  0  0  0
  188.2880  177.8860  140.8040 C   0  0  0  0  0  0  0  0  0  0  0  0
  188.7680  177.6330  143.2030 N   0  0  0  0  0  2  0  0  0  0  0  0
  185.1190  178.7860  139.1370 C   0  0  0  0  0  3  0  0  0  0  0  0
  188.8990  177.9660  135.8120 C   0  0  0  0  0  3  0  0  0  0  0  0
  185.6760  178.6000  141.4460 C   0  0  0  0  0  0  0  0  0  0  0  0
  184.4580  179.0080  141.8120 C   0  0  0  0  0  3  0  0  0  0  0  0
  189.6110  177.5320  140.5180 C   0  0  0  0  0  3  0  0  0  0  0  0
  189.2370  177.7500  138.1940 C   0  0  0  0  0  0  0  0  0  0  0  0
  189.7320  177.6780  136.8920 C   0  0  0  0  0  3  0  0  0  0  0  0
  191.6020  176.6250  147.3580 C   0  0  0  0  0  0  0  0  0  0  0  0
  190.7350  176.7710  145.1060 C   0  0  0  0  0  3  0  0  0  0  0  0
  188.2020  178.0270  147.5070 O   0  0  0  0  0  1  0  0  0  0  0  0
  192.6250  176.2890  148.2330 O   0  0  0  0  0  1  0  0  0  0  0  0
  191.7650  176.4330  145.9850 C   0  0  0  0  0  3  0  0  0  0  0  0
  189.3730  177.5000  146.9750 C   0  0  0  0  0  0  0  0  0  0  0  0
  189.5280  177.3080  145.5820 C   0  0  0  0  0  0  0  0  0  0  0  0
  190.4090  177.1580  147.8490 C   0  0  0  0  0  3  0  0  0  0  0  0
  1 11  1  6  0  0  0
  1  8  1  0  0  0  0
  2  7  1  0  0  0  0
  2 15  1  0  0  0  0
  3  2  2  0  0  0  0
  5  4  2  0  0  0  0
  5 30  1  0  0  0  0
  6  9  2  0  0  0  0
  7 19  1  0  0  0  0
  8 20  1  0  0  0  0
  9  3  1  0  0  0  0
 10 14  2  0  0  0  0
 10 16  1  0  0  0  0
 12 21  1  0  0  0  0
 13  6  1  0  0  0  0
 15 10  1  0  0  0  0
 16  5  1  0  0  0  0
 17  1  1  0  0  0  0
 17  7  2  0  0  0  0
 18  6  1  0  0  0  0
 18 23  2  0  0  0  0
 19 20  2  0  0  0  0
 19 14  1  0  0  0  0
 21 15  2  0  0  0  0
 22  3  1  0  0  0  0
 22 12  2  0  0  0  0
 23 22  1  0  0  0  0
 24 31  1  0  0  0  0
 24 27  1  0  0  0  0
 25 30  2  0  0  0  0
 25 28  1  0  0  0  0
 28 24  2  0  0  0  0
 29 26  1  0  0  0  0
 29 31  2  0  0  0  0
 30 29  1  0  0  0  0
M  END
>  <MODEL>
7

>  <REMARK>
 VINA RESULT:     -10.1      4.339      8.380
  Name = 
  1 active torsions:
  status: ('A' for Active; 'I' for Inactive)
    1  A    between atoms: C_9  and  C_22
                            x       y       z     vdW  Elec       q    Type
                         _______ _______ _______ _____ _____    ______ ____

>  <TORSDO>
F 1

$$$$
=
 OpenBabel11052413083D

 31 35  0  0  1  0  0  0  0  0999 V2000
  191.4630  177.1280  141.0670 C   0  0  1  0  0  3  0  0  0  0  0  0
  188.6510  177.5530  143.6160 C   0  0  0  0  0  0  0  0  0  0  0  0
  189.2190  177.2770  144.8950 C   0  0  0  0  0  0  0  0  0  0  0  0
  185.0470  178.7490  139.9720 O   0  0  0  0  0  0  0  0  0  0  0  0
  184.4810  178.7190  141.0980 C   0  0  0  0  0  0  0  0  0  0  0  0
  191.0930  176.7300  146.2700 C   0  0  0  0  0  0  0  0  0  0  0  0
  189.3900  177.5450  142.3930 C   0  0  0  0  0  0  0  0  0  0  0  0
  190.7600  177.7310  139.9810 O   0  0  0  0  0  0  0  0  0  0  0  0
  190.5450  176.9940  145.0540 N   0  0  0  0  0  0  0  0  0  0  0  0
  186.6470  178.1260  142.3290 C   0  0  0  0  0  0  0  0  0  0  0  0
  192.7100  177.7080  141.2020 F   0  0  0  0  0  0  0  0  0  0  0  0
  187.0690  177.5790  145.9310 N   0  0  0  0  0  0  0  0  0  0  0  0
  192.4150  176.4540  146.3690 F   0  0  0  0  0  0  0  0  0  0  0  0
  187.3910  178.1400  141.1940 N   0  0  0  0  0  0  0  0  0  0  0  0
  187.2610  177.8440  143.5580 C   0  0  0  0  0  0  0  0  0  0  0  0
  185.2400  178.4140  142.2780 N   0  0  0  0  0  2  0  0  0  0  0  0
  190.6990  177.2400  142.3550 C   0  0  0  0  0  3  0  0  0  0  0  0
  190.2970  176.7440  147.4150 C   0  0  0  0  0  3  0  0  0  0  0  0
  188.7190  177.8700  141.1880 C   0  0  0  0  0  0  0  0  0  0  0  0
  189.3840  177.9690  140.0340 C   0  0  0  0  0  3  0  0  0  0  0  0
  186.4990  177.8470  144.7320 C   0  0  0  0  0  3  0  0  0  0  0  0
  188.3900  177.2990  146.0400 C   0  0  0  0  0  0  0  0  0  0  0  0
  188.9390  177.0300  147.2950 C   0  0  0  0  0  3  0  0  0  0  0  0
  180.2840  179.5130  141.5450 C   0  0  0  0  0  0  0  0  0  0  0  0
  182.4440  178.9850  142.4920 C   0  0  0  0  0  3  0  0  0  0  0  0
  182.7380  179.3010  138.8080 O   0  0  0  0  0  1  0  0  0  0  0  0
  178.9310  179.7680  141.7070 O   0  0  0  0  0  1  0  0  0  0  0  0
  181.0820  179.2410  142.6570 C   0  0  0  0  0  3  0  0  0  0  0  0
  182.2150  179.2740  140.0960 C   0  0  0  0  0  0  0  0  0  0  0  0
  183.0310  178.9970  141.2170 C   0  0  0  0  0  0  0  0  0  0  0  0
  180.8510  179.5290  140.2690 C   0  0  0  0  0  3  0  0  0  0  0  0
  1 11  1  1  0  0  0
  1 17  1  0  0  0  0
  2  3  1  0  0  0  0
  3  9  2  0  0  0  0
  3 22  1  0  0  0  0
  4  5  2  0  0  0  0
  5 30  1  0  0  0  0
  5 16  1  0  0  0  0
  6 13  1  0  0  0  0
  6 18  2  0  0  0  0
  7  2  1  0  0  0  0
  8 20  1  0  0  0  0
  8  1  1  0  0  0  0
  9  6  1  0  0  0  0
 10 15  1  0  0  0  0
 12 22  1  0  0  0  0
 14 10  2  0  0  0  0
 15  2  2  0  0  0  0
 15 21  1  0  0  0  0
 16 10  1  0  0  0  0
 17  7  2  0  0  0  0
 19 14  1  0  0  0  0
 19  7  1  0  0  0  0
 20 19  2  0  0  0  0
 21 12  2  0  0  0  0
 22 23  2  0  0  0  0
 23 18  1  0  0  0  0
 24 27  1  0  0  0  0
 24 28  1  0  0  0  0
 25 28  2  0  0  0  0
 26 29  1  0  0  0  0
 29 31  1  0  0  0  0
 29 30  2  0  0  0  0
 30 25  1  0  0  0  0
 31 24  2  0  0  0  0
M  END
>  <MODEL>
8

>  <REMARK>
 VINA RESULT:     -10.1      2.355      4.242
  Name = 
  1 active torsions:
  status: ('A' for Active; 'I' for Inactive)
    1  A    between atoms: C_9  and  C_22
                            x       y       z     vdW  Elec       q    Type
                         _______ _______ _______ _____ _____    ______ ____

>  <TORSDO>
F 1

$$$$
=
 OpenBabel11052413083D

 31 35  0  0  1  0  0  0  0  0999 V2000
  188.3630  177.5630  147.3490 C   0  0  1  0  0  3  0  0  0  0  0  0
  187.1840  177.9460  143.7370 C   0  0  0  0  0  0  0  0  0  0  0  0
  185.8090  178.3220  143.7970 C   0  0  0  0  0  0  0  0  0  0  0  0
  191.8510  176.6180  141.6980 O   0  0  0  0  0  0  0  0  0  0  0  0
  191.0400  176.8060  140.7510 C   0  0  0  0  0  0  0  0  0  0  0  0
  183.8580  178.8980  145.0480 C   0  0  0  0  0  0  0  0  0  0  0  0
  188.0110  177.7460  144.8850 C   0  0  0  0  0  0  0  0  0  0  0  0
  189.7540  177.5010  147.0370 O   0  0  0  0  0  0  0  0  0  0  0  0
  185.1680  178.5390  144.9820 N   0  0  0  0  0  0  0  0  0  0  0  0
  189.1090  177.3820  142.3300 C   0  0  0  0  0  0  0  0  0  0  0  0
  188.1410  178.5120  148.3290 F   0  0  0  0  0  0  0  0  0  0  0  0
  185.6760  178.2770  141.3960 N   0  0  0  0  0  0  0  0  0  0  0  0
  183.2730  179.1000  146.2520 F   0  0  0  0  0  0  0  0  0  0  0  0
  189.8680  177.2330  143.4440 N   0  0  0  0  0  0  0  0  0  0  0  0
  187.7600  177.7490  142.4520 C   0  0  0  0  0  0  0  0  0  0  0  0
  189.6830  177.1800  141.0280 N   0  0  0  0  0  2  0  0  0  0  0  0
  187.5330  177.8700  146.1350 C   0  0  0  0  0  3  0  0  0  0  0  0
  183.1170  179.0580  143.8770 C   0  0  0  0  0  3  0  0  0  0  0  0
  189.3730  177.4070  144.6940 C   0  0  0  0  0  0  0  0  0  0  0  0
  190.2090  177.3020  145.7300 C   0  0  0  0  0  3  0  0  0  0  0  0
  186.9800  177.9220  141.3040 C   0  0  0  0  0  3  0  0  0  0  0  0
  185.0810  178.4800  142.5960 C   0  0  0  0  0  0  0  0  0  0  0  0
  183.7360  178.8470  142.6470 C   0  0  0  0  0  3  0  0  0  0  0  0
  192.2120  176.3030  136.6500 C   0  0  0  0  0  0  0  0  0  0  0  0
  190.5250  176.2780  138.3800 C   0  0  0  0  0  3  0  0  0  0  0  0
  193.8070  177.1940  139.8460 O   0  0  0  0  0  1  0  0  0  0  0  0
  192.5730  176.1370  135.3210 O   0  0  0  0  0  1  0  0  0  0  0  0
  190.8870  176.1100  137.0430 C   0  0  0  0  0  3  0  0  0  0  0  0
  192.8180  176.8340  138.9370 C   0  0  0  0  0  0  0  0  0  0  0  0
  191.4780  176.6400  139.3450 C   0  0  0  0  0  0  0  0  0  0  0  0
  193.1730  176.6640  137.5960 C   0  0  0  0  0  3  0  0  0  0  0  0
  1 11  1  1  0  0  0
  2  3  1  0  0  0  0
  2  7  1  0  0  0  0
  3  9  1  0  0  0  0
  5 16  1  0  0  0  0
  5  4  2  0  0  0  0
  6 13  1  0  0  0  0
  7 17  2  0  0  0  0
  8  1  1  0  0  0  0
  9  6  2  0  0  0  0
 10 15  1  0  0  0  0
 10 14  2  0  0  0  0
 12 22  1  0  0  0  0
 14 19  1  0  0  0  0
 15  2  2  0  0  0  0
 16 10  1  0  0  0  0
 17  1  1  0  0  0  0
 18  6  1  0  0  0  0
 19  7  1  0  0  0  0
 19 20  2  0  0  0  0
 20  8  1  0  0  0  0
 21 12  2  0  0  0  0
 21 15  1  0  0  0  0
 22 23  1  0  0  0  0
 22  3  2  0  0  0  0
 23 18  2  0  0  0  0
 24 28  2  0  0  0  0
 24 31  1  0  0  0  0
 25 30  2  0  0  0  0
 27 24  1  0  0  0  0
 28 25  1  0  0  0  0
 29 30  1  0  0  0  0
 29 26  1  0  0  0  0
 30  5  1  0  0  0  0
 31 29  2  0  0  0  0
M  END
>  <MODEL>
9

>  <REMARK>
 VINA RESULT:      -9.9      3.941      6.941
  Name = 
  1 active torsions:
  status: ('A' for Active; 'I' for Inactive)
    1  A    between atoms: C_9  and  C_22
                            x       y       z     vdW  Elec       q    Type
                         _______ _______ _______ _____ _____    ______ ____

>  <TORSDO>
F 1

$$$$
