=
 OpenBabel11052416283D

 43 47  0  0  1  0  0  0  0  0999 V2000
  186.5940  178.3740  138.7410 N   0  0  0  0  0  2  0  0  0  0  0  0
  187.8870  177.4190  146.5310 C   0  0  0  0  0  0  0  0  0  0  0  0
  184.4810  179.3600  138.7410 O   0  0  0  0  0  0  0  0  0  0  0  0
  184.5400  178.7330  142.9820 C   0  0  0  0  0  0  0  0  0  0  0  0
  185.4060  178.8120  139.4000 C   0  0  0  0  0  0  0  0  0  0  0  0
  185.9380  178.4490  145.3700 C   0  0  0  0  0  0  0  0  0  0  0  0
  188.5210  177.2620  145.3590 C   0  0  0  0  0  3  0  0  0  0  0  0
  188.3830  176.6930  147.7320 C   0  0  0  0  0  1  0  0  0  0  0  0
  186.6140  178.2790  144.1410 C   0  0  0  0  0  0  0  0  0  0  0  0
  186.6950  178.3350  146.6630 C   0  0  0  0  0  2  0  0  0  0  0  0
  188.0900  178.0060  144.1200 C   0  0  0  0  0  2  0  0  0  0  0  0
  186.3660  178.3480  141.6390 N   0  0  0  0  0  2  0  0  0  0  0  0
  185.8820  178.4330  142.9630 C   0  0  0  0  0  0  0  0  0  0  0  0
  183.8520  178.9100  144.1830 C   0  0  0  0  0  3  0  0  0  0  0  0
  184.0330  178.8350  141.5810 C   0  0  1  0  0  3  0  0  0  0  0  0
  185.2660  178.6140  140.8100 N   0  0  0  0  0  0  0  0  0  0  0  0
  184.5670  178.7680  145.3860 C   0  0  0  0  0  3  0  0  0  0  0  0
  183.0510  177.6970  141.3320 C   0  0  0  0  0  2  0  0  0  0  0  0
  181.9310  178.1460  140.4100 C   0  0  0  0  0  2  0  0  0  0  0  0
  180.8400  176.5860  137.1920 O   0  0  0  0  0  0  0  0  0  0  0  0
  182.5200  175.1330  138.1140 C   0  0  0  0  0  2  0  0  0  0  0  0
  182.0320  175.9030  136.8870 C   0  0  1  0  0  3  0  0  0  0  0  0
  181.1800  177.6240  138.0780 C   0  0  0  0  0  2  0  0  0  0  0  0
  181.5710  177.0380  139.4380 C   0  0  1  0  0  3  0  0  0  0  0  0
  181.7830  174.9340  135.7500 C   0  0  0  0  0  1  0  0  0  0  0  0
  182.7760  176.1200  139.2510 C   0  0  0  0  0  2  0  0  0  0  0  0
  186.7640  178.4930  137.3030 C   0  0  0  0  0  2  0  0  0  0  0  0
  187.7960  177.4720  136.8040 C   0  0  2  0  0  3  0  0  0  0  0  0
  187.8180  177.3370  135.3990 O   0  0  0  0  0  0  0  0  0  0  0  0
  186.7410  178.0550  134.8540 C   0  0  0  0  0  1  0  0  0  0  0  0
  187.8340  176.1190  137.5470 C   0  0  1  0  0  3  0  0  0  0  0  0
  187.4590  174.9760  136.6070 C   0  0  0  0  0  2  0  0  0  0  0  0
  185.8370  173.3200  137.5220 C   0  0  0  0  0  1  0  0  0  0  0  0
  185.9900  174.6110  136.7420 C   0  0  0  0  0  2  0  0  0  0  0  0
  189.1950  175.8510  138.1870 C   0  0  0  0  0  2  0  0  0  0  0  0
  190.1240  177.0460  138.0340 C   0  0  2  0  0  3  0  0  0  0  0  0
  191.2360  176.6680  137.2790 O   0  0  0  0  0  1  0  0  0  0  0  0
  190.5690  177.5360  139.4080 C   0  0  2  0  0  3  0  0  0  0  0  0
  190.1530  176.4410  141.5490 O   0  0  0  0  0  0  0  0  0  0  0  0
  192.2240  177.5640  140.9650 C   0  0  0  0  0  2  0  0  0  0  0  0
  191.1840  177.2570  142.0570 C   0  0  0  0  0  2  0  0  0  0  0  0
  191.8370  177.0070  139.7280 O   0  0  0  0  0  0  0  0  0  0  0  0
  189.5390  177.1390  140.4870 C   0  0  0  0  0  2  0  0  0  0  0  0
  1  5  1  0  0  0  0
  2 10  1  0  0  0  0
  2  8  1  0  0  0  0
  3  5  2  0  0  0  0
  4 14  1  0  0  0  0
  5 16  1  0  0  0  0
  6 17  1  0  0  0  0
  6 10  1  0  0  0  0
  7  2  2  0  0  0  0
  9  6  2  0  0  0  0
 11  9  1  0  0  0  0
 11  7  1  0  0  0  0
 12 13  1  0  0  0  0
 13  4  2  0  0  0  0
 13  9  1  0  0  0  0
 14 17  2  0  0  0  0
 15 18  1  6  0  0  0
 15  4  1  0  0  0  0
 16 15  1  0  0  0  0
 16 12  1  0  0  0  0
 19 18  1  0  0  0  0
 20 23  1  0  0  0  0
 21 26  1  0  0  0  0
 22 25  1  6  0  0  0
 22 20  1  0  0  0  0
 22 21  1  0  0  0  0
 23 24  1  0  0  0  0
 24 19  1  1  0  0  0
 26 24  1  0  0  0  0
 27  1  1  0  0  0  0
 28 27  1  6  0  0  0
 28 31  1  0  0  0  0
 29 28  1  0  0  0  0
 30 29  1  0  0  0  0
 31 32  1  6  0  0  0
 31 35  1  0  0  0  0
 32 34  1  0  0  0  0
 34 33  1  0  0  0  0
 36 37  1  6  0  0  0
 36 35  1  0  0  0  0
 38 36  1  6  0  0  0
 38 42  1  0  0  0  0
 38 43  1  0  0  0  0
 39 41  1  0  0  0  0
 40 41  1  0  0  0  0
 42 40  1  0  0  0  0
 43 39  1  0  0  0  0
M  END
>  <MODEL>
1

>  <REMARK>
 VINA RESULT:      -8.2      0.000      0.000
  Name = 
  12 active torsions:
  status: ('A' for Active; 'I' for Inactive)
    1  A    between atoms: C_1  and  C_28
    2  A    between atoms: C_1  and  C_34
    3  A    between atoms: N_2  and  C_6
    4  A    between atoms: C_3  and  C_4
    5  A    between atoms: C_3  and  C_6
    6  A    between atoms: C_3  and  O_12
    7  A    between atoms: C_4  and  C_15
    8  A    between atoms: C_4  and  C_22
    9  A    between atoms: C_11  and  C_14
   10  A    between atoms: C_14  and  C_22
   11  A    between atoms: C_15  and  C_42
   12  A    between atoms: C_28  and  C_35
                            x       y       z     vdW  Elec       q    Type
                         _______ _______ _______ _____ _____    ______ ____

>  <TORSDO>
F 12

$$$$
=
 OpenBabel11052416283D

 43 47  0  0  1  0  0  0  0  0999 V2000
  184.6120  179.5110  140.0780 N   0  0  0  0  0  2  0  0  0  0  0  0
  187.7930  177.8880  147.1850 C   0  0  0  0  0  0  0  0  0  0  0  0
  186.0290  178.3260  138.6560 O   0  0  0  0  0  0  0  0  0  0  0  0
  188.3150  177.4600  142.1780 C   0  0  0  0  0  0  0  0  0  0  0  0
  185.7770  178.7270  139.8240 C   0  0  0  0  0  0  0  0  0  0  0  0
  188.4760  177.0810  144.9300 C   0  0  0  0  0  0  0  0  0  0  0  0
  186.7320  178.5170  146.6550 C   0  0  0  0  0  3  0  0  0  0  0  0
  188.2150  178.2140  148.5750 C   0  0  0  0  0  1  0  0  0  0  0  0
  187.3580  177.7470  144.3810 C   0  0  0  0  0  0  0  0  0  0  0  0
  188.5520  176.8390  146.4100 C   0  0  0  0  0  2  0  0  0  0  0  0
  186.2330  178.1960  145.2690 C   0  0  0  0  0  2  0  0  0  0  0  0
  186.2720  178.5100  142.2450 N   0  0  0  0  0  2  0  0  0  0  0  0
  187.3090  177.9160  142.9970 C   0  0  0  0  0  0  0  0  0  0  0  0
  189.4270  176.7950  142.6960 C   0  0  0  0  0  3  0  0  0  0  0  0
  187.9860  177.7820  140.7580 C   0  0  1  0  0  3  0  0  0  0  0  0
  186.6630  178.4080  140.9010 N   0  0  0  0  0  0  0  0  0  0  0  0
  189.5000  176.6040  144.0870 C   0  0  0  0  0  3  0  0  0  0  0  0
  188.9920  178.8010  140.2410 C   0  0  0  0  0  2  0  0  0  0  0  0
  189.3840  178.4910  138.8070 C   0  0  0  0  0  2  0  0  0  0  0  0
  189.0920  175.0970  137.2670 O   0  0  0  0  0  0  0  0  0  0  0  0
  191.3590  175.2940  138.0460 C   0  0  0  0  0  2  0  0  0  0  0  0
  190.4360  174.9360  136.8810 C   0  0  1  0  0  3  0  0  0  0  0  0
  188.8700  176.4780  137.4070 C   0  0  0  0  0  2  0  0  0  0  0  0
  189.6210  177.0020  138.6350 C   0  0  1  0  0  3  0  0  0  0  0  0
  190.6760  173.4980  136.4710 C   0  0  0  0  0  1  0  0  0  0  0  0
  191.1140  176.7480  138.4450 C   0  0  0  0  0  2  0  0  0  0  0  0
  183.7110  179.9160  139.0120 C   0  0  0  0  0  2  0  0  0  0  0  0
  182.4890  178.9880  138.9680 C   0  0  2  0  0  3  0  0  0  0  0  0
  182.5930  177.9690  137.9970 O   0  0  0  0  0  0  0  0  0  0  0  0
  182.8220  176.7440  138.6430 C   0  0  0  0  0  1  0  0  0  0  0  0
  181.1070  179.6770  138.9850 C   0  0  1  0  0  3  0  0  0  0  0  0
  180.5560  179.7430  140.4080 C   0  0  0  0  0  2  0  0  0  0  0  0
  181.4150  178.9720  142.6170 C   0  0  0  0  0  1  0  0  0  0  0  0
  180.9960  178.5400  141.2260 C   0  0  0  0  0  2  0  0  0  0  0  0
  181.1500  181.0740  138.3700 C   0  0  0  0  0  2  0  0  0  0  0  0
  180.3140  181.1450  137.1000 C   0  0  2  0  0  3  0  0  0  0  0  0
  180.9540  180.4220  136.0910 O   0  0  0  0  0  1  0  0  0  0  0  0
  180.1430  182.5990  136.6730 C   0  0  2  0  0  3  0  0  0  0  0  0
  181.7670  184.3990  136.9560 O   0  0  0  0  0  0  0  0  0  0  0  0
  180.3600  184.1190  134.9980 C   0  0  0  0  0  2  0  0  0  0  0  0
  181.0160  185.0980  135.9890 C   0  0  0  0  0  2  0  0  0  0  0  0
  180.6240  182.7820  135.3590 O   0  0  0  0  0  0  0  0  0  0  0  0
  180.8830  183.5420  137.6460 C   0  0  0  0  0  2  0  0  0  0  0  0
  2  8  1  0  0  0  0
  3  5  2  0  0  0  0
  4 14  2  0  0  0  0
  4 13  1  0  0  0  0
  5  1  1  0  0  0  0
  5 16  1  0  0  0  0
  6 10  1  0  0  0  0
  7  2  2  0  0  0  0
  9  6  1  0  0  0  0
  9 11  1  0  0  0  0
 10  2  1  0  0  0  0
 11  7  1  0  0  0  0
 12 13  1  0  0  0  0
 13  9  2  0  0  0  0
 14 17  1  0  0  0  0
 15 18  1  1  0  0  0
 15 16  1  0  0  0  0
 15  4  1  0  0  0  0
 16 12  1  0  0  0  0
 17  6  2  0  0  0  0
 19 18  1  0  0  0  0
 20 23  1  0  0  0  0
 21 26  1  0  0  0  0
 22 25  1  1  0  0  0
 22 20  1  0  0  0  0
 22 21  1  0  0  0  0
 23 24  1  0  0  0  0
 24 19  1  6  0  0  0
 26 24  1  0  0  0  0
 27  1  1  0  0  0  0
 28 31  1  0  0  0  0
 28 27  1  6  0  0  0
 29 30  1  0  0  0  0
 29 28  1  0  0  0  0
 31 35  1  1  0  0  0
 31 32  1  0  0  0  0
 32 34  1  0  0  0  0
 34 33  1  0  0  0  0
 36 37  1  6  0  0  0
 36 35  1  0  0  0  0
 38 36  1  1  0  0  0
 38 43  1  0  0  0  0
 39 43  1  0  0  0  0
 40 42  1  0  0  0  0
 40 41  1  0  0  0  0
 41 39  1  0  0  0  0
 42 38  1  0  0  0  0
M  END
>  <MODEL>
2

>  <REMARK>
 VINA RESULT:      -8.1      2.994      7.606
  Name = 
  12 active torsions:
  status: ('A' for Active; 'I' for Inactive)
    1  A    between atoms: C_1  and  C_28
    2  A    between atoms: C_1  and  C_34
    3  A    between atoms: N_2  and  C_6
    4  A    between atoms: C_3  and  C_4
    5  A    between atoms: C_3  and  C_6
    6  A    between atoms: C_3  and  O_12
    7  A    between atoms: C_4  and  C_15
    8  A    between atoms: C_4  and  C_22
    9  A    between atoms: C_11  and  C_14
   10  A    between atoms: C_14  and  C_22
   11  A    between atoms: C_15  and  C_42
   12  A    between atoms: C_28  and  C_35
                            x       y       z     vdW  Elec       q    Type
                         _______ _______ _______ _____ _____    ______ ____

>  <TORSDO>
F 12

$$$$
=
 OpenBabel11052416283D

 43 47  0  0  1  0  0  0  0  0999 V2000
  184.4220  179.4650  140.1080 N   0  0  0  0  0  2  0  0  0  0  0  0
  187.7180  177.9000  147.1750 C   0  0  0  0  0  0  0  0  0  0  0  0
  185.8600  178.3310  138.6650 O   0  0  0  0  0  0  0  0  0  0  0  0
  188.2050  177.5150  142.1610 C   0  0  0  0  0  0  0  0  0  0  0  0
  185.6080  178.7180  139.8390 C   0  0  0  0  0  0  0  0  0  0  0  0
  188.4040  177.1260  144.9090 C   0  0  0  0  0  0  0  0  0  0  0  0
  186.6340  178.4990  146.6590 C   0  0  0  0  0  3  0  0  0  0  0  0
  188.1440  178.2300  148.5630 C   0  0  0  0  0  1  0  0  0  0  0  0
  187.2610  177.7620  144.3740 C   0  0  0  0  0  0  0  0  0  0  0  0
  188.5010  176.8780  146.3870 C   0  0  0  0  0  2  0  0  0  0  0  0
  186.1320  178.1710  145.2760 C   0  0  0  0  0  2  0  0  0  0  0  0
  186.1310  178.5030  142.2530 N   0  0  0  0  0  2  0  0  0  0  0  0
  187.1930  177.9360  142.9920 C   0  0  0  0  0  0  0  0  0  0  0  0
  189.3420  176.8810  142.6650 C   0  0  0  0  0  3  0  0  0  0  0  0
  187.8530  177.8350  140.7460 C   0  0  1  0  0  3  0  0  0  0  0  0
  186.5130  178.4200  140.9060 N   0  0  0  0  0  0  0  0  0  0  0  0
  189.4330  176.6850  144.0540 C   0  0  0  0  0  3  0  0  0  0  0  0
  188.8230  178.8880  140.2260 C   0  0  0  0  0  2  0  0  0  0  0  0
  189.2500  178.5690  138.8040 C   0  0  0  0  0  2  0  0  0  0  0  0
  188.9300  175.1860  137.2440 O   0  0  0  0  0  0  0  0  0  0  0  0
  191.1710  175.3260  138.1060 C   0  0  0  0  0  2  0  0  0  0  0  0
  190.2830  174.9930  136.9070 C   0  0  1  0  0  3  0  0  0  0  0  0
  188.7380  176.5730  137.3800 C   0  0  0  0  0  2  0  0  0  0  0  0
  189.4560  177.0750  138.6360 C   0  0  1  0  0  3  0  0  0  0  0  0
  190.5020  173.5500  136.5030 C   0  0  0  0  0  1  0  0  0  0  0  0
  190.9480  176.7840  138.5010 C   0  0  0  0  0  2  0  0  0  0  0  0
  183.4990  179.8490  139.0530 C   0  0  0  0  0  2  0  0  0  0  0  0
  182.0610  179.4770  139.4440 C   0  0  2  0  0  3  0  0  0  0  0  0
  181.2070  180.5940  139.5700 O   0  0  0  0  0  0  0  0  0  0  0  0
  181.3440  181.4050  138.4330 C   0  0  0  0  0  1  0  0  0  0  0  0
  181.9080  178.4570  140.5930 C   0  0  1  0  0  3  0  0  0  0  0  0
  180.7170  178.8190  141.4790 C   0  0  0  0  0  2  0  0  0  0  0  0
  182.6500  178.8760  143.0530 C   0  0  0  0  0  1  0  0  0  0  0  0
  181.1600  179.1160  142.9020 C   0  0  0  0  0  2  0  0  0  0  0  0
  181.7680  177.0260  140.0800 C   0  0  0  0  0  2  0  0  0  0  0  0
  181.1910  176.9960  138.6720 C   0  0  2  0  0  3  0  0  0  0  0  0
  179.9730  176.3130  138.6920 O   0  0  0  0  0  1  0  0  0  0  0  0
  182.1650  176.3010  137.7270 C   0  0  2  0  0  3  0  0  0  0  0  0
  183.7770  177.3810  136.2470 O   0  0  0  0  0  0  0  0  0  0  0  0
  184.2090  175.3390  137.4850 C   0  0  0  0  0  2  0  0  0  0  0  0
  184.4080  176.1230  136.1760 C   0  0  0  0  0  2  0  0  0  0  0  0
  183.3900  176.0540  138.3830 O   0  0  0  0  0  0  0  0  0  0  0  0
  182.4010  177.1570  136.4640 C   0  0  0  0  0  2  0  0  0  0  0  0
  2  8  1  0  0  0  0
  3  5  2  0  0  0  0
  4 14  2  0  0  0  0
  4 13  1  0  0  0  0
  5  1  1  0  0  0  0
  5 16  1  0  0  0  0
  6 10  1  0  0  0  0
  7  2  2  0  0  0  0
  9  6  1  0  0  0  0
  9 11  1  0  0  0  0
 10  2  1  0  0  0  0
 11  7  1  0  0  0  0
 12 13  1  0  0  0  0
 13  9  2  0  0  0  0
 14 17  1  0  0  0  0
 15 18  1  1  0  0  0
 15 16  1  0  0  0  0
 15  4  1  0  0  0  0
 16 12  1  0  0  0  0
 17  6  2  0  0  0  0
 19 18  1  0  0  0  0
 20 23  1  0  0  0  0
 21 26  1  0  0  0  0
 22 25  1  1  0  0  0
 22 20  1  0  0  0  0
 22 21  1  0  0  0  0
 23 24  1  0  0  0  0
 24 19  1  6  0  0  0
 26 24  1  0  0  0  0
 27  1  1  0  0  0  0
 28 27  1  1  0  0  0
 28 29  1  0  0  0  0
 28 31  1  0  0  0  0
 30 29  1  0  0  0  0
 31 35  1  6  0  0  0
 31 32  1  0  0  0  0
 32 34  1  0  0  0  0
 34 33  1  0  0  0  0
 36 37  1  1  0  0  0
 36 35  1  0  0  0  0
 38 42  1  0  0  0  0
 38 36  1  1  0  0  0
 39 43  1  0  0  0  0
 40 42  1  0  0  0  0
 41 39  1  0  0  0  0
 41 40  1  0  0  0  0
 43 38  1  0  0  0  0
M  END
>  <MODEL>
3

>  <REMARK>
 VINA RESULT:      -8.0      1.931      6.654
  Name = 
  12 active torsions:
  status: ('A' for Active; 'I' for Inactive)
    1  A    between atoms: C_1  and  C_28
    2  A    between atoms: C_1  and  C_34
    3  A    between atoms: N_2  and  C_6
    4  A    between atoms: C_3  and  C_4
    5  A    between atoms: C_3  and  C_6
    6  A    between atoms: C_3  and  O_12
    7  A    between atoms: C_4  and  C_15
    8  A    between atoms: C_4  and  C_22
    9  A    between atoms: C_11  and  C_14
   10  A    between atoms: C_14  and  C_22
   11  A    between atoms: C_15  and  C_42
   12  A    between atoms: C_28  and  C_35
                            x       y       z     vdW  Elec       q    Type
                         _______ _______ _______ _____ _____    ______ ____

>  <TORSDO>
F 12

$$$$
=
 OpenBabel11052416283D

 43 47  0  0  1  0  0  0  0  0999 V2000
  185.0140  178.9200  139.4940 N   0  0  0  0  0  2  0  0  0  0  0  0
  192.4460  176.3860  138.2280 C   0  0  0  0  0  0  0  0  0  0  0  0
  185.1150  179.5440  141.7390 O   0  0  0  0  0  0  0  0  0  0  0  0
  189.0990  177.9630  141.6680 C   0  0  0  0  0  0  0  0  0  0  0  0
  185.6850  179.0060  140.7510 C   0  0  0  0  0  0  0  0  0  0  0  0
  191.4380  177.3480  140.2930 C   0  0  0  0  0  0  0  0  0  0  0  0
  191.3080  176.6060  137.5520 C   0  0  0  0  0  3  0  0  0  0  0  0
  193.4790  175.4850  137.6460 C   0  0  0  0  0  1  0  0  0  0  0  0
  190.2440  177.5740  139.5730 C   0  0  0  0  0  0  0  0  0  0  0  0
  192.7130  177.0530  139.5560 C   0  0  0  0  0  2  0  0  0  0  0  0
  190.2470  177.5430  138.0720 C   0  0  0  0  0  2  0  0  0  0  0  0
  187.8130  178.1860  139.7760 N   0  0  0  0  0  2  0  0  0  0  0  0
  189.0910  177.8840  140.2960 C   0  0  0  0  0  0  0  0  0  0  0  0
  190.2670  177.7480  142.4010 C   0  0  0  0  0  3  0  0  0  0  0  0
  187.7310  178.3090  142.1550 C   0  0  1  0  0  3  0  0  0  0  0  0
  187.0030  178.4660  140.8870 N   0  0  0  0  0  0  0  0  0  0  0  0
  191.4460  177.4410  141.6990 C   0  0  0  0  0  3  0  0  0  0  0  0
  187.1740  177.1250  142.9340 C   0  0  0  0  0  2  0  0  0  0  0  0
  186.2260  177.5950  144.0230 C   0  0  0  0  0  2  0  0  0  0  0  0
  186.8680  178.7220  147.5300 O   0  0  0  0  0  0  0  0  0  0  0  0
  188.8950  177.6720  146.7740 C   0  0  0  0  0  2  0  0  0  0  0  0
  187.8380  177.7620  147.8740 C   0  0  1  0  0  3  0  0  0  0  0  0
  186.1340  178.1930  146.4540 C   0  0  0  0  0  2  0  0  0  0  0  0
  187.0070  178.1550  145.1970 C   0  0  1  0  0  3  0  0  0  0  0  0
  188.4990  178.1560  149.1780 C   0  0  0  0  0  1  0  0  0  0  0  0
  188.2190  177.2670  145.4660 C   0  0  0  0  0  2  0  0  0  0  0  0
  183.6530  179.3960  139.3150 C   0  0  0  0  0  2  0  0  0  0  0  0
  182.7980  178.3160  138.6380 C   0  0  2  0  0  3  0  0  0  0  0  0
  181.5630  178.8000  138.1540 O   0  0  0  0  0  0  0  0  0  0  0  0
  181.5010  180.1860  138.3640 C   0  0  0  0  0  1  0  0  0  0  0  0
  182.6760  176.9710  139.3860 C   0  0  1  0  0  3  0  0  0  0  0  0
  181.2650  176.7890  139.9400 C   0  0  0  0  0  2  0  0  0  0  0  0
  179.8000  174.8250  140.4030 C   0  0  0  0  0  1  0  0  0  0  0  0
  180.5910  175.5650  139.3410 C   0  0  0  0  0  2  0  0  0  0  0  0
  183.0530  175.7830  138.5030 C   0  0  0  0  0  2  0  0  0  0  0  0
  183.4700  176.2380  137.1120 C   0  0  2  0  0  3  0  0  0  0  0  0
  182.4500  175.9360  136.2070 O   0  0  0  0  0  1  0  0  0  0  0  0
  184.7580  175.5330  136.7000 C   0  0  2  0  0  3  0  0  0  0  0  0
  187.0220  176.1070  137.4120 O   0  0  0  0  0  0  0  0  0  0  0  0
  186.2090  173.8380  137.1270 C   0  0  0  0  0  2  0  0  0  0  0  0
  187.3840  174.8200  136.9660 C   0  0  0  0  0  2  0  0  0  0  0  0
  185.0610  174.4980  137.6100 O   0  0  0  0  0  0  0  0  0  0  0  0
  185.9290  176.5380  136.6300 C   0  0  0  0  0  2  0  0  0  0  0  0
  1  5  1  0  0  0  0
  2 10  1  0  0  0  0
  4 15  1  0  0  0  0
  4 14  1  0  0  0  0
  5 16  1  0  0  0  0
  5  3  2  0  0  0  0
  6 17  1  0  0  0  0
  7 11  1  0  0  0  0
  7  2  2  0  0  0  0
  8  2  1  0  0  0  0
  9  6  2  0  0  0  0
  9 13  1  0  0  0  0
 10  6  1  0  0  0  0
 11  9  1  0  0  0  0
 12 13  1  0  0  0  0
 12 16  1  0  0  0  0
 13  4  2  0  0  0  0
 15 18  1  1  0  0  0
 16 15  1  0  0  0  0
 17 14  2  0  0  0  0
 18 19  1  0  0  0  0
 20 22  1  0  0  0  0
 21 22  1  0  0  0  0
 22 25  1  1  0  0  0
 23 20  1  0  0  0  0
 24 19  1  6  0  0  0
 24 26  1  0  0  0  0
 24 23  1  0  0  0  0
 26 21  1  0  0  0  0
 27  1  1  0  0  0  0
 28 27  1  1  0  0  0
 28 31  1  0  0  0  0
 29 30  1  0  0  0  0
 29 28  1  0  0  0  0
 31 35  1  6  0  0  0
 31 32  1  0  0  0  0
 34 32  1  0  0  0  0
 34 33  1  0  0  0  0
 36 37  1  6  0  0  0
 36 35  1  0  0  0  0
 38 36  1  1  0  0  0
 38 42  1  0  0  0  0
 40 42  1  0  0  0  0
 41 40  1  0  0  0  0
 41 39  1  0  0  0  0
 43 38  1  0  0  0  0
 43 39  1  0  0  0  0
M  END
>  <MODEL>
4

>  <REMARK>
 VINA RESULT:      -7.9      2.095      7.433
  Name = 
  12 active torsions:
  status: ('A' for Active; 'I' for Inactive)
    1  A    between atoms: C_1  and  C_28
    2  A    between atoms: C_1  and  C_34
    3  A    between atoms: N_2  and  C_6
    4  A    between atoms: C_3  and  C_4
    5  A    between atoms: C_3  and  C_6
    6  A    between atoms: C_3  and  O_12
    7  A    between atoms: C_4  and  C_15
    8  A    between atoms: C_4  and  C_22
    9  A    between atoms: C_11  and  C_14
   10  A    between atoms: C_14  and  C_22
   11  A    between atoms: C_15  and  C_42
   12  A    between atoms: C_28  and  C_35
                            x       y       z     vdW  Elec       q    Type
                         _______ _______ _______ _____ _____    ______ ____

>  <TORSDO>
F 12

$$$$
=
 OpenBabel11052416283D

 43 47  0  0  1  0  0  0  0  0999 V2000
  185.0720  178.9220  139.5060 N   0  0  0  0  0  2  0  0  0  0  0  0
  192.3390  176.0850  137.9560 C   0  0  0  0  0  0  0  0  0  0  0  0
  185.3040  179.6010  141.7240 O   0  0  0  0  0  0  0  0  0  0  0  0
  189.2220  177.8740  141.5070 C   0  0  0  0  0  0  0  0  0  0  0  0
  185.8060  179.0160  140.7260 C   0  0  0  0  0  0  0  0  0  0  0  0
  191.4670  177.1370  140.0390 C   0  0  0  0  0  0  0  0  0  0  0  0
  191.1770  176.3280  137.3290 C   0  0  0  0  0  3  0  0  0  0  0  0
  193.3090  175.1320  137.3510 C   0  0  0  0  0  1  0  0  0  0  0  0
  190.2480  177.3880  139.3710 C   0  0  0  0  0  0  0  0  0  0  0  0
  192.6930  176.7770  139.2490 C   0  0  0  0  0  2  0  0  0  0  0  0
  190.1770  177.3170  137.8730 C   0  0  0  0  0  2  0  0  0  0  0  0
  187.8530  178.0940  139.6730 N   0  0  0  0  0  2  0  0  0  0  0  0
  189.1440  177.7590  140.1390 C   0  0  0  0  0  0  0  0  0  0  0  0
  190.4160  177.6360  142.1880 C   0  0  0  0  0  3  0  0  0  0  0  0
  187.8930  178.2830  142.0490 C   0  0  1  0  0  3  0  0  0  0  0  0
  187.1090  178.4330  140.8130 N   0  0  0  0  0  0  0  0  0  0  0  0
  191.5470  177.2680  141.4390 C   0  0  0  0  0  3  0  0  0  0  0  0
  187.3320  177.1410  142.8870 C   0  0  0  0  0  2  0  0  0  0  0  0
  186.3680  177.6660  143.9350 C   0  0  0  0  0  2  0  0  0  0  0  0
  188.8880  177.1880  146.6560 O   0  0  0  0  0  0  0  0  0  0  0  0
  186.9870  178.2540  147.6730 C   0  0  0  0  0  2  0  0  0  0  0  0
  188.5030  178.2650  147.4760 C   0  0  1  0  0  3  0  0  0  0  0  0
  188.4180  177.4730  145.3610 C   0  0  0  0  0  2  0  0  0  0  0  0
  186.8910  177.3710  145.3290 C   0  0  1  0  0  3  0  0  0  0  0  0
  189.1870  178.1450  148.8220 C   0  0  0  0  0  1  0  0  0  0  0  0
  186.3080  178.3840  146.3110 C   0  0  0  0  0  2  0  0  0  0  0  0
  183.7200  179.4420  139.3790 C   0  0  0  0  0  2  0  0  0  0  0  0
  182.8480  178.4660  138.5770 C   0  0  2  0  0  3  0  0  0  0  0  0
  183.5050  177.9230  137.4510 O   0  0  0  0  0  0  0  0  0  0  0  0
  182.5890  177.1550  136.7150 C   0  0  0  0  0  1  0  0  0  0  0  0
  181.4040  178.9250  138.2790 C   0  0  1  0  0  3  0  0  0  0  0  0
  180.4650  178.5140  139.4100 C   0  0  0  0  0  2  0  0  0  0  0  0
  180.5260  179.3860  141.7450 C   0  0  0  0  0  1  0  0  0  0  0  0
  180.1380  179.6930  140.3120 C   0  0  0  0  0  2  0  0  0  0  0  0
  181.3150  180.4310  138.0400 C   0  0  0  0  0  2  0  0  0  0  0  0
  180.5080  180.7460  136.7890 C   0  0  2  0  0  3  0  0  0  0  0  0
  181.1790  180.2400  135.6730 O   0  0  0  0  0  1  0  0  0  0  0  0
  180.3300  182.2540  136.6520 C   0  0  2  0  0  3  0  0  0  0  0  0
  181.8600  183.9780  137.4540 O   0  0  0  0  0  0  0  0  0  0  0  0
  180.6520  184.0890  135.3520 C   0  0  0  0  0  2  0  0  0  0  0  0
  181.1800  184.8510  136.5810 C   0  0  0  0  0  2  0  0  0  0  0  0
  180.9250  182.7100  135.4570 O   0  0  0  0  0  0  0  0  0  0  0  0
  180.9440  182.9860  137.8650 C   0  0  0  0  0  2  0  0  0  0  0  0
  1  5  1  0  0  0  0
  2 10  1  0  0  0  0
  4 15  1  0  0  0  0
  4 14  1  0  0  0  0
  5 16  1  0  0  0  0
  5  3  2  0  0  0  0
  6 17  1  0  0  0  0
  7 11  1  0  0  0  0
  7  2  2  0  0  0  0
  8  2  1  0  0  0  0
  9  6  2  0  0  0  0
  9 13  1  0  0  0  0
 10  6  1  0  0  0  0
 11  9  1  0  0  0  0
 12 13  1  0  0  0  0
 12 16  1  0  0  0  0
 13  4  2  0  0  0  0
 15 18  1  1  0  0  0
 16 15  1  0  0  0  0
 17 14  2  0  0  0  0
 18 19  1  0  0  0  0
 20 22  1  0  0  0  0
 22 21  1  0  0  0  0
 22 25  1  1  0  0  0
 23 20  1  0  0  0  0
 24 19  1  6  0  0  0
 24 23  1  0  0  0  0
 24 26  1  0  0  0  0
 26 21  1  0  0  0  0
 27  1  1  0  0  0  0
 28 27  1  6  0  0  0
 29 28  1  0  0  0  0
 30 29  1  0  0  0  0
 31 35  1  1  0  0  0
 31 28  1  0  0  0  0
 31 32  1  0  0  0  0
 32 34  1  0  0  0  0
 34 33  1  0  0  0  0
 36 37  1  6  0  0  0
 36 35  1  0  0  0  0
 38 36  1  1  0  0  0
 38 43  1  0  0  0  0
 39 43  1  0  0  0  0
 40 42  1  0  0  0  0
 40 41  1  0  0  0  0
 41 39  1  0  0  0  0
 42 38  1  0  0  0  0
M  END
>  <MODEL>
5

>  <REMARK>
 VINA RESULT:      -7.8      2.974      8.792
  Name = 
  12 active torsions:
  status: ('A' for Active; 'I' for Inactive)
    1  A    between atoms: C_1  and  C_28
    2  A    between atoms: C_1  and  C_34
    3  A    between atoms: N_2  and  C_6
    4  A    between atoms: C_3  and  C_4
    5  A    between atoms: C_3  and  C_6
    6  A    between atoms: C_3  and  O_12
    7  A    between atoms: C_4  and  C_15
    8  A    between atoms: C_4  and  C_22
    9  A    between atoms: C_11  and  C_14
   10  A    between atoms: C_14  and  C_22
   11  A    between atoms: C_15  and  C_42
   12  A    between atoms: C_28  and  C_35
                            x       y       z     vdW  Elec       q    Type
                         _______ _______ _______ _____ _____    ______ ____

>  <TORSDO>
F 12

$$$$
=
 OpenBabel11052416283D

 43 47  0  0  1  0  0  0  0  0999 V2000
  186.9470  178.2500  138.9850 N   0  0  0  0  0  2  0  0  0  0  0  0
  187.8970  177.4100  146.8370 C   0  0  0  0  0  0  0  0  0  0  0  0
  184.8970  179.3550  138.8830 O   0  0  0  0  0  0  0  0  0  0  0  0
  184.7640  178.8270  143.1360 C   0  0  0  0  0  0  0  0  0  0  0  0
  185.7630  178.7710  139.5880 C   0  0  0  0  0  0  0  0  0  0  0  0
  186.0550  178.5210  145.5810 C   0  0  0  0  0  0  0  0  0  0  0  0
  188.5640  177.1890  145.6930 C   0  0  0  0  0  3  0  0  0  0  0  0
  188.3060  176.6860  148.0720 C   0  0  0  0  0  1  0  0  0  0  0  0
  186.7640  178.2840  144.3820 C   0  0  0  0  0  0  0  0  0  0  0  0
  186.7560  178.3960  146.9030 C   0  0  0  0  0  2  0  0  0  0  0  0
  188.2220  177.9270  144.4230 C   0  0  0  0  0  2  0  0  0  0  0  0
  186.6120  178.3070  141.8720 N   0  0  0  0  0  2  0  0  0  0  0  0
  186.0860  178.4510  143.1740 C   0  0  0  0  0  0  0  0  0  0  0  0
  184.0440  179.0720  144.3060 C   0  0  0  0  0  3  0  0  0  0  0  0
  184.3150  178.9250  141.7150 C   0  0  1  0  0  3  0  0  0  0  0  0
  185.5610  178.6160  140.9960 N   0  0  0  0  0  0  0  0  0  0  0  0
  184.7040  178.9190  145.5370 C   0  0  0  0  0  3  0  0  0  0  0  0
  183.2790  177.8390  141.4530 C   0  0  0  0  0  2  0  0  0  0  0  0
  181.8930  178.4420  141.3080 C   0  0  0  0  0  2  0  0  0  0  0  0
  180.9900  179.2380  137.7680 O   0  0  0  0  0  0  0  0  0  0  0  0
  181.7890  176.9700  137.7700 C   0  0  0  0  0  2  0  0  0  0  0  0
  181.8820  178.3560  137.1310 C   0  0  1  0  0  3  0  0  0  0  0  0
  181.4990  179.4710  139.0580 C   0  0  0  0  0  2  0  0  0  0  0  0
  181.3580  178.2050  139.9080 C   0  0  1  0  0  3  0  0  0  0  0  0
  181.5330  178.2570  135.6610 C   0  0  0  0  0  1  0  0  0  0  0  0
  182.1510  177.0790  139.2490 C   0  0  0  0  0  2  0  0  0  0  0  0
  187.1770  178.3250  137.5520 C   0  0  0  0  0  2  0  0  0  0  0  0
  187.2350  176.9140  136.9490 C   0  0  2  0  0  3  0  0  0  0  0  0
  186.1930  176.0720  137.3910 O   0  0  0  0  0  0  0  0  0  0  0  0
  185.1340  176.1340  136.4730 C   0  0  0  0  0  1  0  0  0  0  0  0
  188.6190  176.2270  136.9500 C   0  0  1  0  0  3  0  0  0  0  0  0
  188.9730  175.7280  135.5510 C   0  0  0  0  0  2  0  0  0  0  0  0
  188.7820  173.6060  136.8460 C   0  0  0  0  0  1  0  0  0  0  0  0
  188.8520  174.2160  135.4590 C   0  0  0  0  0  2  0  0  0  0  0  0
  189.7190  177.1450  137.4770 C   0  0  0  0  0  2  0  0  0  0  0  0
  190.6340  176.4120  138.4480 C   0  0  2  0  0  3  0  0  0  0  0  0
  191.0300  177.2930  139.4570 O   0  0  0  0  0  1  0  0  0  0  0  0
  191.8570  175.8820  137.7070 C   0  0  2  0  0  3  0  0  0  0  0  0
  194.1420  175.7780  138.5590 O   0  0  0  0  0  0  0  0  0  0  0  0
  193.1130  174.0620  137.1850 C   0  0  0  0  0  2  0  0  0  0  0  0
  194.3860  174.8620  137.5160 C   0  0  0  0  0  2  0  0  0  0  0  0
  192.0220  174.5040  137.9620 O   0  0  0  0  0  0  0  0  0  0  0  0
  193.1250  176.6560  138.1270 C   0  0  0  0  0  2  0  0  0  0  0  0
  1  5  1  0  0  0  0
  2 10  1  0  0  0  0
  2  8  1  0  0  0  0
  3  5  2  0  0  0  0
  4 13  2  0  0  0  0
  4 14  1  0  0  0  0
  5 16  1  0  0  0  0
  6 10  1  0  0  0  0
  7  2  2  0  0  0  0
  9 11  1  0  0  0  0
  9  6  2  0  0  0  0
 11  7  1  0  0  0  0
 12 13  1  0  0  0  0
 13  9  1  0  0  0  0
 14 17  2  0  0  0  0
 15 18  1  1  0  0  0
 15  4  1  0  0  0  0
 16 15  1  0  0  0  0
 16 12  1  0  0  0  0
 17  6  1  0  0  0  0
 19 18  1  0  0  0  0
 20 23  1  0  0  0  0
 21 26  1  0  0  0  0
 22 25  1  6  0  0  0
 22 20  1  0  0  0  0
 22 21  1  0  0  0  0
 23 24  1  0  0  0  0
 24 19  1  1  0  0  0
 26 24  1  0  0  0  0
 27  1  1  0  0  0  0
 28 31  1  0  0  0  0
 28 29  1  0  0  0  0
 28 27  1  1  0  0  0
 30 29  1  0  0  0  0
 31 32  1  6  0  0  0
 31 35  1  0  0  0  0
 34 32  1  0  0  0  0
 34 33  1  0  0  0  0
 35 36  1  0  0  0  0
 36 37  1  1  0  0  0
 38 42  1  0  0  0  0
 38 43  1  0  0  0  0
 38 36  1  1  0  0  0
 40 41  1  0  0  0  0
 40 42  1  0  0  0  0
 41 39  1  0  0  0  0
 43 39  1  0  0  0  0
M  END
>  <MODEL>
6

>  <REMARK>
 VINA RESULT:      -7.7      1.672      2.232
  Name = 
  12 active torsions:
  status: ('A' for Active; 'I' for Inactive)
    1  A    between atoms: C_1  and  C_28
    2  A    between atoms: C_1  and  C_34
    3  A    between atoms: N_2  and  C_6
    4  A    between atoms: C_3  and  C_4
    5  A    between atoms: C_3  and  C_6
    6  A    between atoms: C_3  and  O_12
    7  A    between atoms: C_4  and  C_15
    8  A    between atoms: C_4  and  C_22
    9  A    between atoms: C_11  and  C_14
   10  A    between atoms: C_14  and  C_22
   11  A    between atoms: C_15  and  C_42
   12  A    between atoms: C_28  and  C_35
                            x       y       z     vdW  Elec       q    Type
                         _______ _______ _______ _____ _____    ______ ____

>  <TORSDO>
F 12

$$$$
=
 OpenBabel11052416283D

 43 47  0  0  1  0  0  0  0  0999 V2000
  185.0840  178.7670  139.9180 N   0  0  0  0  0  2  0  0  0  0  0  0
  192.0660  176.0030  137.2960 C   0  0  0  0  0  0  0  0  0  0  0  0
  185.6480  179.4840  142.0640 O   0  0  0  0  0  0  0  0  0  0  0  0
  189.5110  177.8060  141.2630 C   0  0  0  0  0  0  0  0  0  0  0  0
  185.9970  178.8900  141.0080 C   0  0  0  0  0  0  0  0  0  0  0  0
  191.5120  177.0760  139.4740 C   0  0  0  0  0  0  0  0  0  0  0  0
  190.8170  176.2200  136.8540 C   0  0  0  0  0  3  0  0  0  0  0  0
  192.9450  175.0530  136.5600 C   0  0  0  0  0  1  0  0  0  0  0  0
  190.2000  177.3000  139.0010 C   0  0  0  0  0  0  0  0  0  0  0  0
  192.6060  176.7190  138.5090 C   0  0  0  0  0  2  0  0  0  0  0  0
  189.8980  177.2040  137.5330 C   0  0  0  0  0  2  0  0  0  0  0  0
  187.8700  177.9780  139.6630 N   0  0  0  0  0  2  0  0  0  0  0  0
  189.2230  177.6680  139.9260 C   0  0  0  0  0  0  0  0  0  0  0  0
  190.8000  177.5950  141.7540 C   0  0  0  0  0  3  0  0  0  0  0  0
  188.2760  178.2060  142.0000 C   0  0  1  0  0  3  0  0  0  0  0  0
  187.3070  178.3260  140.9000 N   0  0  0  0  0  0  0  0  0  0  0  0
  191.8070  177.2300  140.8430 C   0  0  0  0  0  3  0  0  0  0  0  0
  187.8700  177.0700  142.9300 C   0  0  0  0  0  2  0  0  0  0  0  0
  187.5710  177.5950  144.3230 C   0  0  0  0  0  2  0  0  0  0  0  0
  189.7880  177.6520  147.3330 O   0  0  0  0  0  0  0  0  0  0  0  0
  191.0870  176.6900  145.5530 C   0  0  0  0  0  2  0  0  0  0  0  0
  190.6070  176.5580  146.9990 C   0  0  1  0  0  3  0  0  0  0  0  0
  188.5920  177.5030  146.6090 C   0  0  0  0  0  2  0  0  0  0  0  0
  188.8540  177.7430  145.1190 C   0  0  1  0  0  3  0  0  0  0  0  0
  191.8040  176.5200  147.9260 C   0  0  0  0  0  1  0  0  0  0  0  0
  189.8730  176.7190  144.6270 C   0  0  0  0  0  2  0  0  0  0  0  0
  183.7220  179.2670  139.9960 C   0  0  0  0  0  2  0  0  0  0  0  0
  182.7450  178.1100  140.2460 C   0  0  2  0  0  3  0  0  0  0  0  0
  182.2620  177.5170  139.0600 O   0  0  0  0  0  0  0  0  0  0  0  0
  182.6270  176.1620  139.0440 C   0  0  0  0  0  1  0  0  0  0  0  0
  181.6410  178.3620  141.2960 C   0  0  1  0  0  3  0  0  0  0  0  0
  182.1110  179.3720  142.3400 C   0  0  0  0  0  2  0  0  0  0  0  0
  183.2070  178.8070  144.5060 C   0  0  0  0  0  1  0  0  0  0  0  0
  181.8930  178.8490  143.7500 C   0  0  0  0  0  2  0  0  0  0  0  0
  180.3340  178.8300  140.6590 C   0  0  0  0  0  2  0  0  0  0  0  0
  180.1950  180.3430  140.7300 C   0  0  2  0  0  3  0  0  0  0  0  0
  179.1340  180.6650  141.5810 O   0  0  0  0  0  1  0  0  0  0  0  0
  179.9360  180.9070  139.3370 C   0  0  2  0  0  3  0  0  0  0  0  0
  179.5190  183.2430  138.7660 O   0  0  0  0  0  0  0  0  0  0  0  0
  180.8520  181.7220  137.4240 C   0  0  0  0  0  2  0  0  0  0  0  0
  179.8310  182.8740  137.4420 C   0  0  0  0  0  2  0  0  0  0  0  0
  181.1520  181.2920  138.7330 O   0  0  0  0  0  0  0  0  0  0  0  0
  178.9720  182.1100  139.4070 C   0  0  0  0  0  2  0  0  0  0  0  0
  1 27  1  0  0  0  0
  1  5  1  0  0  0  0
  2 10  1  0  0  0  0
  4 14  1  0  0  0  0
  4 15  1  0  0  0  0
  5  3  2  0  0  0  0
  6 17  1  0  0  0  0
  7  2  2  0  0  0  0
  7 11  1  0  0  0  0
  8  2  1  0  0  0  0
  9  6  2  0  0  0  0
  9 13  1  0  0  0  0
 10  6  1  0  0  0  0
 11  9  1  0  0  0  0
 12 13  1  0  0  0  0
 12 16  1  0  0  0  0
 13  4  2  0  0  0  0
 15 18  1  1  0  0  0
 16  5  1  0  0  0  0
 16 15  1  0  0  0  0
 17 14  2  0  0  0  0
 18 19  1  0  0  0  0
 21 22  1  0  0  0  0
 22 20  1  0  0  0  0
 22 25  1  1  0  0  0
 23 20  1  0  0  0  0
 24 19  1  6  0  0  0
 24 23  1  0  0  0  0
 26 24  1  0  0  0  0
 26 21  1  0  0  0  0
 28 27  1  6  0  0  0
 28 31  1  0  0  0  0
 29 28  1  0  0  0  0
 30 29  1  0  0  0  0
 31 35  1  6  0  0  0
 31 32  1  0  0  0  0
 32 34  1  0  0  0  0
 34 33  1  0  0  0  0
 35 36  1  0  0  0  0
 36 37  1  1  0  0  0
 38 43  1  0  0  0  0
 38 36  1  1  0  0  0
 39 43  1  0  0  0  0
 40 41  1  0  0  0  0
 40 42  1  0  0  0  0
 41 39  1  0  0  0  0
 42 38  1  0  0  0  0
M  END
>  <MODEL>
7

>  <REMARK>
 VINA RESULT:      -7.7      2.902      9.238
  Name = 
  12 active torsions:
  status: ('A' for Active; 'I' for Inactive)
    1  A    between atoms: C_1  and  C_28
    2  A    between atoms: C_1  and  C_34
    3  A    between atoms: N_2  and  C_6
    4  A    between atoms: C_3  and  C_4
    5  A    between atoms: C_3  and  C_6
    6  A    between atoms: C_3  and  O_12
    7  A    between atoms: C_4  and  C_15
    8  A    between atoms: C_4  and  C_22
    9  A    between atoms: C_11  and  C_14
   10  A    between atoms: C_14  and  C_22
   11  A    between atoms: C_15  and  C_42
   12  A    between atoms: C_28  and  C_35
                            x       y       z     vdW  Elec       q    Type
                         _______ _______ _______ _____ _____    ______ ____

>  <TORSDO>
F 12

$$$$
=
 OpenBabel11052416283D

 43 47  0  0  1  0  0  0  0  0999 V2000
  190.0190  177.8250  141.4850 N   0  0  0  0  0  2  0  0  0  0  0  0
  194.7860  174.8800  135.8400 C   0  0  0  0  0  0  0  0  0  0  0  0
  187.9710  177.8920  140.3720 O   0  0  0  0  0  0  0  0  0  0  0  0
  190.1740  176.6400  136.9130 C   0  0  0  0  0  0  0  0  0  0  0  0
  189.2140  177.6880  140.3140 C   0  0  0  0  0  0  0  0  0  0  0  0
  192.3350  175.3180  135.7640 C   0  0  0  0  0  0  0  0  0  0  0  0
  194.8230  175.2260  137.1360 C   0  0  0  0  0  3  0  0  0  0  0  0
  196.0590  174.7740  135.0760 C   0  0  0  0  0  1  0  0  0  0  0  0
  192.3840  175.6820  137.1280 C   0  0  0  0  0  0  0  0  0  0  0  0
  193.4820  174.5700  135.1470 C   0  0  0  0  0  2  0  0  0  0  0  0
  193.5690  175.3060  137.9700 C   0  0  0  0  0  2  0  0  0  0  0  0
  191.1050  176.7530  139.0110 N   0  0  0  0  0  2  0  0  0  0  0  0
  191.2800  176.3410  137.6720 C   0  0  0  0  0  0  0  0  0  0  0  0
  190.1000  176.2870  135.5650 C   0  0  0  0  0  3  0  0  0  0  0  0
  189.1630  177.3400  137.7610 C   0  0  1  0  0  3  0  0  0  0  0  0
  189.8280  177.3280  139.0730 N   0  0  0  0  0  0  0  0  0  0  0  0
  191.1940  175.6150  134.9930 C   0  0  0  0  0  3  0  0  0  0  0  0
  189.0140  178.7720  137.2640 C   0  0  0  0  0  2  0  0  0  0  0  0
  187.6260  179.0020  136.6940 C   0  0  0  0  0  2  0  0  0  0  0  0
  184.6740  177.4410  138.3780 O   0  0  0  0  0  0  0  0  0  0  0  0
  184.9870  176.2470  136.3140 C   0  0  0  0  0  2  0  0  0  0  0  0
  184.0070  176.9840  137.2270 C   0  0  1  0  0  3  0  0  0  0  0  0
  185.5330  178.4760  137.9670 C   0  0  0  0  0  2  0  0  0  0  0  0
  186.6830  177.8980  137.1380 C   0  0  1  0  0  3  0  0  0  0  0  0
  182.8900  176.0440  137.6300 C   0  0  0  0  0  1  0  0  0  0  0  0
  186.1040  177.2060  135.9070 C   0  0  0  0  0  2  0  0  0  0  0  0
  189.4590  178.2480  142.7580 C   0  0  0  0  0  2  0  0  0  0  0  0
  189.8010  177.2290  143.8530 C   0  0  2  0  0  3  0  0  0  0  0  0
  190.3700  176.0380  143.3530 O   0  0  0  0  0  0  0  0  0  0  0  0
  191.6350  175.8570  143.9340 C   0  0  0  0  0  1  0  0  0  0  0  0
  188.7150  176.9840  144.9230 C   0  0  1  0  0  3  0  0  0  0  0  0
  188.9140  177.9170  146.1160 C   0  0  0  0  0  2  0  0  0  0  0  0
  188.6270  177.8840  148.5920 C   0  0  0  0  0  1  0  0  0  0  0  0
  189.1700  177.1320  147.3920 C   0  0  0  0  0  2  0  0  0  0  0  0
  187.3040  177.1420  144.3600 C   0  0  0  0  0  2  0  0  0  0  0  0
  186.4820  178.1180  145.1900 C   0  0  2  0  0  3  0  0  0  0  0  0
  185.8270  177.4160  146.2050 O   0  0  0  0  0  1  0  0  0  0  0  0
  185.4640  178.8240  144.3020 C   0  0  2  0  0  3  0  0  0  0  0  0
  184.3210  177.8800  142.3640 O   0  0  0  0  0  0  0  0  0  0  0  0
  183.2790  179.3590  143.9810 C   0  0  0  0  0  2  0  0  0  0  0  0
  183.4080  178.9440  142.5050 C   0  0  0  0  0  2  0  0  0  0  0  0
  184.1580  178.6130  144.7940 O   0  0  0  0  0  0  0  0  0  0  0  0
  185.5710  178.3220  142.8460 C   0  0  0  0  0  2  0  0  0  0  0  0
  1 27  1  0  0  0  0
  2  7  2  0  0  0  0
  4 13  1  0  0  0  0
  4 15  1  0  0  0  0
  5  3  2  0  0  0  0
  5  1  1  0  0  0  0
  6  9  1  0  0  0  0
  7 11  1  0  0  0  0
  8  2  1  0  0  0  0
  9 13  2  0  0  0  0
  9 11  1  0  0  0  0
 10  6  1  0  0  0  0
 10  2  1  0  0  0  0
 12 16  1  0  0  0  0
 13 12  1  0  0  0  0
 14  4  2  0  0  0  0
 15 18  1  6  0  0  0
 15 16  1  0  0  0  0
 16  5  1  0  0  0  0
 17 14  1  0  0  0  0
 17  6  2  0  0  0  0
 19 18  1  0  0  0  0
 21 22  1  0  0  0  0
 22 25  1  1  0  0  0
 22 20  1  0  0  0  0
 23 20  1  0  0  0  0
 24 19  1  6  0  0  0
 24 23  1  0  0  0  0
 26 21  1  0  0  0  0
 26 24  1  0  0  0  0
 28 27  1  6  0  0  0
 28 31  1  0  0  0  0
 29 28  1  0  0  0  0
 29 30  1  0  0  0  0
 31 35  1  6  0  0  0
 31 32  1  0  0  0  0
 32 34  1  0  0  0  0
 34 33  1  0  0  0  0
 35 36  1  0  0  0  0
 36 37  1  1  0  0  0
 38 42  1  0  0  0  0
 38 36  1  1  0  0  0
 39 41  1  0  0  0  0
 39 43  1  0  0  0  0
 40 42  1  0  0  0  0
 41 40  1  0  0  0  0
 43 38  1  0  0  0  0
M  END
>  <MODEL>
8

>  <REMARK>
 VINA RESULT:      -7.6      3.022      8.452
  Name = 
  12 active torsions:
  status: ('A' for Active; 'I' for Inactive)
    1  A    between atoms: C_1  and  C_28
    2  A    between atoms: C_1  and  C_34
    3  A    between atoms: N_2  and  C_6
    4  A    between atoms: C_3  and  C_4
    5  A    between atoms: C_3  and  C_6
    6  A    between atoms: C_3  and  O_12
    7  A    between atoms: C_4  and  C_15
    8  A    between atoms: C_4  and  C_22
    9  A    between atoms: C_11  and  C_14
   10  A    between atoms: C_14  and  C_22
   11  A    between atoms: C_15  and  C_42
   12  A    between atoms: C_28  and  C_35
                            x       y       z     vdW  Elec       q    Type
                         _______ _______ _______ _____ _____    ______ ____

>  <TORSDO>
F 12

$$$$
=
 OpenBabel11052416283D

 43 47  0  0  1  0  0  0  0  0999 V2000
  187.7910  178.8390  140.3120 N   0  0  0  0  0  2  0  0  0  0  0  0
  180.2890  180.6060  138.3480 C   0  0  0  0  0  0  0  0  0  0  0  0
  187.4810  177.6300  142.2810 O   0  0  0  0  0  0  0  0  0  0  0  0
  183.3320  178.6270  141.8610 C   0  0  0  0  0  0  0  0  0  0  0  0
  186.9730  178.3320  141.3650 C   0  0  0  0  0  0  0  0  0  0  0  0
  181.1440  179.2700  140.2680 C   0  0  0  0  0  0  0  0  0  0  0  0
  181.5340  180.7290  137.8600 C   0  0  0  0  0  3  0  0  0  0  0  0
  179.2090  181.4840  137.8200 C   0  0  0  0  0  1  0  0  0  0  0  0
  182.4500  179.4060  139.7480 C   0  0  0  0  0  0  0  0  0  0  0  0
  179.9570  179.5790  139.4020 C   0  0  0  0  0  2  0  0  0  0  0  0
  182.6570  179.8370  138.3250 C   0  0  0  0  0  2  0  0  0  0  0  0
  184.8960  179.0920  140.2420 N   0  0  0  0  0  2  0  0  0  0  0  0
  183.5240  179.0700  140.5740 C   0  0  0  0  0  0  0  0  0  0  0  0
  182.0520  178.4800  142.3960 C   0  0  0  0  0  3  0  0  0  0  0  0
  184.6560  178.3480  142.4940 C   0  0  1  0  0  3  0  0  0  0  0  0
  185.5750  178.6350  141.3820 N   0  0  0  0  0  0  0  0  0  0  0  0
  180.9510  178.8040  141.5830 C   0  0  0  0  0  3  0  0  0  0  0  0
  184.8780  179.3440  143.6240 C   0  0  0  0  0  2  0  0  0  0  0  0
  184.7740  178.6570  144.9740 C   0  0  0  0  0  2  0  0  0  0  0  0
  187.0260  179.1340  147.9210 O   0  0  0  0  0  0  0  0  0  0  0  0
  188.1100  177.5330  146.4920 C   0  0  0  0  0  2  0  0  0  0  0  0
  187.6420  177.8700  147.9080 C   0  0  1  0  0  3  0  0  0  0  0  0
  185.8080  179.0020  147.2300 C   0  0  0  0  0  2  0  0  0  0  0  0
  186.0790  178.7930  145.7370 C   0  0  1  0  0  3  0  0  0  0  0  0
  188.8330  177.8780  148.8440 C   0  0  0  0  0  1  0  0  0  0  0  0
  186.9020  177.5190  145.5590 C   0  0  0  0  0  2  0  0  0  0  0  0
  189.2270  178.6150  140.2770 C   0  0  0  0  0  2  0  0  0  0  0  0
  189.5320  177.2020  139.7600 C   0  0  2  0  0  3  0  0  0  0  0  0
  190.1440  176.3720  140.7240 O   0  0  0  0  0  0  0  0  0  0  0  0
  190.9300  177.1630  141.5760 C   0  0  0  0  0  1  0  0  0  0  0  0
  190.1930  177.1120  138.3670 C   0  0  1  0  0  3  0  0  0  0  0  0
  190.3520  175.6550  137.9400 C   0  0  0  0  0  2  0  0  0  0  0  0
  192.7030  176.4600  138.1380 C   0  0  0  0  0  1  0  0  0  0  0  0
  191.8180  175.2620  137.8540 C   0  0  0  0  0  2  0  0  0  0  0  0
  189.4170  177.8910  137.3080 C   0  0  0  0  0  2  0  0  0  0  0  0
  188.9670  176.9840  136.1720 C   0  0  2  0  0  3  0  0  0  0  0  0
  189.4320  177.5020  134.9610 O   0  0  0  0  0  1  0  0  0  0  0  0
  187.4450  176.8940  136.1520 C   0  0  2  0  0  3  0  0  0  0  0  0
  186.0770  175.1440  137.1640 O   0  0  0  0  0  0  0  0  0  0  0  0
  185.4980  177.5010  137.1550 C   0  0  0  0  0  2  0  0  0  0  0  0
  185.0030  176.0480  137.0430 C   0  0  0  0  0  2  0  0  0  0  0  0
  186.9020  177.5480  137.2790 O   0  0  0  0  0  0  0  0  0  0  0  0
  186.9870  175.4200  136.1210 C   0  0  0  0  0  2  0  0  0  0  0  0
  1  5  1  0  0  0  0
  2 10  1  0  0  0  0
  4 14  1  0  0  0  0
  4 15  1  0  0  0  0
  5 16  1  0  0  0  0
  5  3  2  0  0  0  0
  6 17  1  0  0  0  0
  7 11  1  0  0  0  0
  7  2  2  0  0  0  0
  8  2  1  0  0  0  0
  9  6  2  0  0  0  0
  9 13  1  0  0  0  0
 10  6  1  0  0  0  0
 11  9  1  0  0  0  0
 12 13  1  0  0  0  0
 12 16  1  0  0  0  0
 13  4  2  0  0  0  0
 15 18  1  1  0  0  0
 16 15  1  0  0  0  0
 17 14  2  0  0  0  0
 18 19  1  0  0  0  0
 21 22  1  0  0  0  0
 22 20  1  0  0  0  0
 22 25  1  1  0  0  0
 23 20  1  0  0  0  0
 24 19  1  6  0  0  0
 24 23  1  0  0  0  0
 26 24  1  0  0  0  0
 26 21  1  0  0  0  0
 27  1  1  0  0  0  0
 28 27  1  1  0  0  0
 28 29  1  0  0  0  0
 29 30  1  0  0  0  0
 31 35  1  6  0  0  0
 31 28  1  0  0  0  0
 32 31  1  0  0  0  0
 34 32  1  0  0  0  0
 34 33  1  0  0  0  0
 36 37  1  6  0  0  0
 36 35  1  0  0  0  0
 38 36  1  1  0  0  0
 38 42  1  0  0  0  0
 40 42  1  0  0  0  0
 41 40  1  0  0  0  0
 41 39  1  0  0  0  0
 43 38  1  0  0  0  0
 43 39  1  0  0  0  0
M  END
>  <MODEL>
9

>  <REMARK>
 VINA RESULT:      -7.6      2.144      7.187
  Name = 
  12 active torsions:
  status: ('A' for Active; 'I' for Inactive)
    1  A    between atoms: C_1  and  C_28
    2  A    between atoms: C_1  and  C_34
    3  A    between atoms: N_2  and  C_6
    4  A    between atoms: C_3  and  C_4
    5  A    between atoms: C_3  and  C_6
    6  A    between atoms: C_3  and  O_12
    7  A    between atoms: C_4  and  C_15
    8  A    between atoms: C_4  and  C_22
    9  A    between atoms: C_11  and  C_14
   10  A    between atoms: C_14  and  C_22
   11  A    between atoms: C_15  and  C_42
   12  A    between atoms: C_28  and  C_35
                            x       y       z     vdW  Elec       q    Type
                         _______ _______ _______ _____ _____    ______ ____

>  <TORSDO>
F 12

$$$$
