=
 OpenBabel11052414333D

 32 36  0  0  1  0  0  0  0  0999 V2000
  188.4900  178.8450  140.0010 C   0  0  1  0  0  3  0  0  0  0  0  0
  187.9110  177.3210  141.7470 C   0  0  1  0  0  3  0  0  0  0  0  0
  190.5180  175.0860  137.9930 C   0  0  2  0  0  3  0  0  0  0  0  0
  187.8940  178.3470  138.6690 C   0  0  0  0  0  2  0  0  0  0  0  0
  187.5530  178.6780  141.1980 C   0  0  2  0  0  3  0  0  0  0  0  0
  186.5650  178.0370  143.8400 C   0  0  0  0  0  2  0  0  0  0  0  0
  191.5900  174.2240  137.7550 O   0  0  0  0  0  1  0  0  0  0  0  0
  189.3830  177.1240  141.3660 C   0  0  1  0  0  3  0  0  0  0  0  0
  185.2310  177.9900  143.1110 C   0  0  1  0  0  3  0  0  0  0  0  0
  190.0710  175.7810  136.6870 C   0  0  2  0  0  3  0  0  0  0  0  0
  188.6650  177.0900  138.3680 C   0  0  1  0  0  3  0  0  0  0  0  0
  187.5890  177.0810  143.2340 C   0  0  0  0  0  2  0  0  0  0  0  0
  186.0690  178.7480  140.8380 C   0  0  0  0  0  2  0  0  0  0  0  0
  189.1090  177.9090  136.1370 O   0  0  0  0  0  1  0  0  0  0  0  0
  188.8820  176.7520  136.8870 C   0  0  1  0  0  3  0  0  0  0  0  0
  190.8530  176.0870  139.1280 C   0  0  1  0  0  3  0  0  0  0  0  0
  192.1970  176.4600  139.0780 O   0  0  0  0  0  1  0  0  0  0  0  0
  189.7120  178.0650  140.2800 N   0  0  1  0  0  0  0  0  0  0  0  0
  184.1380  178.1950  144.1460 C   0  0  0  0  0  1  0  0  0  0  0  0
  189.9810  177.3490  139.0320 C   0  0  2  0  0  3  0  0  0  0  0  0
  185.1890  179.0900  142.0370 C   0  0  1  0  0  3  0  0  0  0  0  0
  191.5860  176.1740  144.2900 C   0  0  0  0  0  3  0  0  0  0  0  0
  191.6240  177.4780  145.0390 C   0  0  0  0  0  2  0  0  0  0  0  0
  190.6680  178.5070  142.9760 C   0  0  0  0  0  3  0  0  0  0  0  0
  190.3590  177.2930  142.4980 C   0  0  0  0  0  0  0  0  0  0  0  0
  191.6950  178.6590  144.0660 C   0  0  0  0  0  2  0  0  0  0  0  0
  190.9530  176.0890  143.1150 C   0  0  0  0  0  3  0  0  0  0  0  0
  188.4820  174.3480  136.1170 C   0  0  0  0  0  1  0  0  0  0  0  0
  189.7340  174.8270  135.7240 O   0  0  0  0  0  0  0  0  0  0  0  0
  183.8310  179.2880  141.5560 N   0  0  0  0  0  2  0  0  0  0  0  0
  183.2070  178.3010  140.7830 C   0  0  0  0  0  0  0  0  0  0  0  0
  182.6690  177.4520  140.1170 C   0  0  0  0  0  3  0  0  0  0  0  0
  1  4  1  6  0  0  0
  1 18  1  0  0  0  0
  1  5  1  0  0  0  0
  2 12  1  1  0  0  0
  3  7  1  6  0  0  0
  3 16  1  0  0  0  0
  5 13  1  6  0  0  0
  5  2  1  0  0  0  0
  8  2  1  0  0  0  0
  8 25  1  1  0  0  0
  9  6  1  0  0  0  0
  9 19  1  1  0  0  0
 10 29  1  6  0  0  0
 10 15  1  0  0  0  0
 10  3  1  0  0  0  0
 11  4  1  6  0  0  0
 11 20  1  0  0  0  0
 12  6  1  0  0  0  0
 13 21  1  0  0  0  0
 15 14  1  6  0  0  0
 15 11  1  0  0  0  0
 16 17  1  6  0  0  0
 18  8  1  0  0  0  0
 20 16  1  0  0  0  0
 20 18  1  0  0  0  0
 21  9  1  0  0  0  0
 22 23  1  0  0  0  0
 24 26  1  0  0  0  0
 25 24  2  0  0  0  0
 25 27  1  0  0  0  0
 26 23  1  0  0  0  0
 27 22  2  0  0  0  0
 29 28  1  0  0  0  0
 30 21  1  0  0  0  0
 31 30  1  0  0  0  0
 32 31  3  0  0  0  0
M  END
>  <MODEL>
1

>  <REMARK>
 VINA RESULT:      -7.9      0.000      0.000
  Name = 
  4 active torsions:
  status: ('A' for Active; 'I' for Inactive)
    1  A    between atoms: C_10  and  C_28
    2  A    between atoms: N_14  and  C_21
    3  A    between atoms: N_14  and  C_29
    4  A    between atoms: C_15  and  O_26
                            x       y       z     vdW  Elec       q    Type
                         _______ _______ _______ _____ _____    ______ ____

>  <TORSDO>
F 4

$$$$
=
 OpenBabel11052414333D

 32 36  0  0  1  0  0  0  0  0999 V2000
  187.3660  179.2700  141.0620 C   0  0  1  0  0  3  0  0  0  0  0  0
  187.2540  177.5280  142.6930 C   0  0  1  0  0  3  0  0  0  0  0  0
  188.5700  175.8080  138.0910 C   0  0  2  0  0  3  0  0  0  0  0  0
  186.3900  178.9560  139.9100 C   0  0  0  0  0  2  0  0  0  0  0  0
  186.8090  178.9480  142.4490 C   0  0  2  0  0  3  0  0  0  0  0  0
  186.6010  177.9630  145.1620 C   0  0  0  0  0  2  0  0  0  0  0  0
  189.4920  174.9830  137.4420 O   0  0  0  0  0  1  0  0  0  0  0  0
  188.5430  177.3810  141.8780 C   0  0  1  0  0  3  0  0  0  0  0  0
  185.1130  178.0160  144.8540 C   0  0  1  0  0  3  0  0  0  0  0  0
  187.7940  176.6720  137.0710 C   0  0  2  0  0  3  0  0  0  0  0  0
  186.9890  177.7490  139.2410 C   0  0  1  0  0  3  0  0  0  0  0  0
  187.3660  177.0940  144.1670 C   0  0  0  0  0  2  0  0  0  0  0  0
  185.2890  179.0690  142.5500 C   0  0  0  0  0  2  0  0  0  0  0  0
  186.8030  178.8570  137.1000 O   0  0  0  0  0  1  0  0  0  0  0  0
  186.7550  177.6100  137.7300 C   0  0  1  0  0  3  0  0  0  0  0  0
  189.2590  176.6480  139.1950 C   0  0  1  0  0  3  0  0  0  0  0  0
  190.5470  177.0210  138.8030 O   0  0  0  0  0  1  0  0  0  0  0  0
  188.5830  178.4570  140.8720 N   0  0  1  0  0  0  0  0  0  0  0  0
  184.3750  178.0840  146.1810 C   0  0  0  0  0  1  0  0  0  0  0  0
  188.4500  177.9140  139.5190 C   0  0  2  0  0  3  0  0  0  0  0  0
  184.8080  179.2490  143.9880 C   0  0  1  0  0  3  0  0  0  0  0  0
  191.5030  176.0380  143.8130 C   0  0  0  0  0  3  0  0  0  0  0  0
  191.7710  177.1940  144.7400 C   0  0  0  0  0  2  0  0  0  0  0  0
  190.2580  178.5210  143.2630 C   0  0  0  0  0  3  0  0  0  0  0  0
  189.8120  177.3950  142.6870 C   0  0  0  0  0  0  0  0  0  0  0  0
  191.5610  178.5270  144.0160 C   0  0  0  0  0  2  0  0  0  0  0  0
  190.5510  176.1300  142.8790 C   0  0  0  0  0  3  0  0  0  0  0  0
  186.0550  175.3250  136.8150 C   0  0  0  0  0  1  0  0  0  0  0  0
  187.1530  175.8550  136.1360 O   0  0  0  0  0  0  0  0  0  0  0  0
  183.3770  179.5130  143.9530 N   0  0  0  0  0  2  0  0  0  0  0  0
  182.6040  179.0650  142.8750 C   0  0  0  0  0  0  0  0  0  0  0  0
  181.9390  178.6800  141.9460 C   0  0  0  0  0  3  0  0  0  0  0  0
  1  4  1  6  0  0  0
  1  5  1  0  0  0  0
  2 12  1  1  0  0  0
  3  7  1  6  0  0  0
  3 16  1  0  0  0  0
  5 13  1  6  0  0  0
  5  2  1  0  0  0  0
  8 25  1  1  0  0  0
  8  2  1  0  0  0  0
  9  6  1  0  0  0  0
  9 19  1  1  0  0  0
 10 29  1  6  0  0  0
 10 15  1  0  0  0  0
 10  3  1  0  0  0  0
 11 20  1  0  0  0  0
 11  4  1  6  0  0  0
 12  6  1  0  0  0  0
 13 21  1  0  0  0  0
 15 14  1  6  0  0  0
 15 11  1  0  0  0  0
 16 17  1  6  0  0  0
 16 20  1  0  0  0  0
 18  1  1  0  0  0  0
 18  8  1  0  0  0  0
 20 18  1  0  0  0  0
 21  9  1  0  0  0  0
 22 23  1  0  0  0  0
 24 26  1  0  0  0  0
 25 27  1  0  0  0  0
 25 24  2  0  0  0  0
 26 23  1  0  0  0  0
 27 22  2  0  0  0  0
 29 28  1  0  0  0  0
 30 21  1  0  0  0  0
 31 30  1  0  0  0  0
 32 31  3  0  0  0  0
M  END
>  <MODEL>
2

>  <REMARK>
 VINA RESULT:      -7.2      1.475      1.815
  Name = 
  4 active torsions:
  status: ('A' for Active; 'I' for Inactive)
    1  A    between atoms: C_10  and  C_28
    2  A    between atoms: N_14  and  C_21
    3  A    between atoms: N_14  and  C_29
    4  A    between atoms: C_15  and  O_26
                            x       y       z     vdW  Elec       q    Type
                         _______ _______ _______ _____ _____    ______ ____

>  <TORSDO>
F 4

$$$$
=
 OpenBabel11052414333D

 32 36  0  0  1  0  0  0  0  0999 V2000
  191.4310  177.7860  139.2340 C   0  0  1  0  0  3  0  0  0  0  0  0
  190.6190  175.7910  138.2010 C   0  0  1  0  0  3  0  0  0  0  0  0
  188.6220  176.5500  142.8180 C   0  0  2  0  0  3  0  0  0  0  0  0
  192.1090  177.4300  140.5720 C   0  0  0  0  0  2  0  0  0  0  0  0
  191.7350  176.7990  138.1050 C   0  0  2  0  0  3  0  0  0  0  0  0
  191.3920  175.0150  135.8540 C   0  0  0  0  0  2  0  0  0  0  0  0
  187.4090  176.5470  143.5100 O   0  0  0  0  0  1  0  0  0  0  0  0
  189.4430  176.5710  138.8000 C   0  0  1  0  0  3  0  0  0  0  0  0
  192.6940  174.4300  136.3760 C   0  0  1  0  0  3  0  0  0  0  0  0
  189.7380  177.2010  143.6670 C   0  0  2  0  0  3  0  0  0  0  0  0
  190.9750  176.9670  141.4450 C   0  0  1  0  0  3  0  0  0  0  0  0
  190.2910  175.0130  136.9120 C   0  0  0  0  0  2  0  0  0  0  0  0
  193.0980  176.1190  138.2280 C   0  0  0  0  0  2  0  0  0  0  0  0
  191.7160  178.4710  143.1880 O   0  0  0  0  0  1  0  0  0  0  0  0
  191.1100  177.2340  142.9510 C   0  0  1  0  0  3  0  0  0  0  0  0
  188.4620  177.2050  141.4230 C   0  0  1  0  0  3  0  0  0  0  0  0
  187.5550  178.2660  141.4750 O   0  0  0  0  0  1  0  0  0  0  0  0
  189.9700  177.7880  139.4410 N   0  0  1  0  0  0  0  0  0  0  0  0
  193.3550  173.6890  135.2260 C   0  0  0  0  0  1  0  0  0  0  0  0
  189.8080  177.7260  140.8940 C   0  0  2  0  0  3  0  0  0  0  0  0
  193.5970  175.5600  136.8980 C   0  0  1  0  0  3  0  0  0  0  0  0
  186.5010  176.1200  136.4650 C   0  0  0  0  0  3  0  0  0  0  0  0
  186.7290  177.2640  135.5140 C   0  0  0  0  0  2  0  0  0  0  0  0
  188.3650  178.1230  137.1920 C   0  0  0  0  0  3  0  0  0  0  0  0
  188.3610  176.9390  137.8210 C   0  0  0  0  0  0  0  0  0  0  0  0
  187.2410  178.4970  136.2640 C   0  0  0  0  0  2  0  0  0  0  0  0
  187.3010  175.9540  137.5240 C   0  0  0  0  0  3  0  0  0  0  0  0
  189.7200  177.5260  145.8570 C   0  0  0  0  0  1  0  0  0  0  0  0
  189.8670  176.5320  144.8870 O   0  0  0  0  0  0  0  0  0  0  0  0
  194.9580  175.0830  137.0930 N   0  0  0  0  0  2  0  0  0  0  0  0
  195.2170  174.0430  137.9950 C   0  0  0  0  0  0  0  0  0  0  0  0
  195.4410  173.1480  138.7710 C   0  0  0  0  0  3  0  0  0  0  0  0
  1 18  1  0  0  0  0
  1  4  1  1  0  0  0
  2 12  1  6  0  0  0
  2  8  1  0  0  0  0
  3  7  1  1  0  0  0
  3 10  1  0  0  0  0
  5  2  1  0  0  0  0
  5 13  1  1  0  0  0
  5  1  1  0  0  0  0
  6  9  1  0  0  0  0
  6 12  1  0  0  0  0
  8 25  1  6  0  0  0
  8 18  1  0  0  0  0
  9 19  1  6  0  0  0
  9 21  1  0  0  0  0
 10 29  1  1  0  0  0
 11  4  1  6  0  0  0
 11 15  1  0  0  0  0
 15 14  1  6  0  0  0
 15 10  1  0  0  0  0
 16 17  1  1  0  0  0
 16  3  1  0  0  0  0
 18 20  1  0  0  0  0
 20 16  1  0  0  0  0
 20 11  1  0  0  0  0
 21 30  1  0  0  0  0
 21 13  1  0  0  0  0
 22 27  2  0  0  0  0
 23 26  1  0  0  0  0
 23 22  1  0  0  0  0
 24 25  2  0  0  0  0
 26 24  1  0  0  0  0
 27 25  1  0  0  0  0
 29 28  1  0  0  0  0
 30 31  1  0  0  0  0
 31 32  3  0  0  0  0
M  END
>  <MODEL>
3

>  <REMARK>
 VINA RESULT:      -6.7      3.343      8.117
  Name = 
  4 active torsions:
  status: ('A' for Active; 'I' for Inactive)
    1  A    between atoms: C_10  and  C_28
    2  A    between atoms: N_14  and  C_21
    3  A    between atoms: N_14  and  C_29
    4  A    between atoms: C_15  and  O_26
                            x       y       z     vdW  Elec       q    Type
                         _______ _______ _______ _____ _____    ______ ____

>  <TORSDO>
F 4

$$$$
=
 OpenBabel11052414333D

 32 36  0  0  1  0  0  0  0  0999 V2000
  188.2880  179.0120  141.1170 C   0  0  1  0  0  3  0  0  0  0  0  0
  189.0170  176.8400  141.7940 C   0  0  1  0  0  3  0  0  0  0  0  0
  185.9260  176.6900  137.7570 C   0  0  2  0  0  3  0  0  0  0  0  0
  186.7480  179.0730  141.1650 C   0  0  0  0  0  2  0  0  0  0  0  0
  188.9140  178.2590  142.2920 C   0  0  2  0  0  3  0  0  0  0  0  0
  190.5850  176.4580  143.8190 C   0  0  0  0  0  2  0  0  0  0  0  0
  185.7940  176.1220  136.4870 O   0  0  0  0  0  1  0  0  0  0  0  0
  189.1520  176.9720  140.2730 C   0  0  1  0  0  3  0  0  0  0  0  0
  189.4600  176.5940  144.8330 C   0  0  1  0  0  3  0  0  0  0  0  0
  184.8990  177.8270  137.9590 C   0  0  2  0  0  3  0  0  0  0  0  0
  186.3100  178.1480  140.0630 C   0  0  1  0  0  3  0  0  0  0  0  0
  190.0870  175.9580  142.4660 C   0  0  0  0  0  2  0  0  0  0  0  0
  188.0930  178.3280  143.5800 C   0  0  0  0  0  2  0  0  0  0  0  0
  184.8590  179.8790  139.2010 O   0  0  0  0  0  1  0  0  0  0  0  0
  184.9950  178.4970  139.3510 C   0  0  1  0  0  3  0  0  0  0  0  0
  187.3860  177.1390  138.0140 C   0  0  1  0  0  3  0  0  0  0  0  0
  187.9670  177.6290  136.8430 O   0  0  0  0  0  1  0  0  0  0  0  0
  188.6850  178.3130  139.8790 N   0  0  1  0  0  0  0  0  0  0  0  0
  190.0260  176.2280  146.1950 C   0  0  0  0  0  1  0  0  0  0  0  0
  187.4510  178.2280  139.0970 C   0  0  2  0  0  3  0  0  0  0  0  0
  188.9280  178.0360  144.8240 C   0  0  1  0  0  3  0  0  0  0  0  0
  192.8660  177.4740  139.7670 C   0  0  0  0  0  3  0  0  0  0  0  0
  193.0320  176.9140  138.3800 C   0  0  0  0  0  2  0  0  0  0  0  0
  190.7460  175.9520  138.6680 C   0  0  0  0  0  3  0  0  0  0  0  0
  190.5370  176.7370  139.7360 C   0  0  0  0  0  0  0  0  0  0  0  0
  192.1450  175.6800  138.1850 C   0  0  0  0  0  2  0  0  0  0  0  0
  191.6780  177.4210  140.3780 C   0  0  0  0  0  3  0  0  0  0  0  0
  183.2650  176.7250  138.9700 C   0  0  0  0  0  1  0  0  0  0  0  0
  183.6020  177.3460  137.7650 O   0  0  0  0  0  0  0  0  0  0  0  0
  188.0960  178.2850  145.9910 N   0  0  0  0  0  2  0  0  0  0  0  0
  186.7000  178.2840  145.8750 C   0  0  0  0  0  0  0  0  0  0  0  0
  185.4980  178.2830  145.7750 C   0  0  0  0  0  3  0  0  0  0  0  0
  1  4  1  1  0  0  0
  1  5  1  0  0  0  0
  2  5  1  0  0  0  0
  2 12  1  1  0  0  0
  3  7  1  6  0  0  0
  3 10  1  0  0  0  0
  3 16  1  0  0  0  0
  5 13  1  1  0  0  0
  6  9  1  0  0  0  0
  8 25  1  1  0  0  0
  8  2  1  0  0  0  0
  9 19  1  1  0  0  0
 10 29  1  1  0  0  0
 10 15  1  0  0  0  0
 11  4  1  1  0  0  0
 12  6  1  0  0  0  0
 13 21  1  0  0  0  0
 15 14  1  6  0  0  0
 15 11  1  0  0  0  0
 16 17  1  6  0  0  0
 16 20  1  0  0  0  0
 18  8  1  0  0  0  0
 18  1  1  0  0  0  0
 20 18  1  0  0  0  0
 20 11  1  0  0  0  0
 21  9  1  0  0  0  0
 21 30  1  0  0  0  0
 22 27  2  0  0  0  0
 23 22  1  0  0  0  0
 24 25  2  0  0  0  0
 25 27  1  0  0  0  0
 26 23  1  0  0  0  0
 26 24  1  0  0  0  0
 29 28  1  0  0  0  0
 31 30  1  0  0  0  0
 32 31  3  0  0  0  0
M  END
>  <MODEL>
4

>  <REMARK>
 VINA RESULT:      -6.3      2.482      4.721
  Name = 
  4 active torsions:
  status: ('A' for Active; 'I' for Inactive)
    1  A    between atoms: C_10  and  C_28
    2  A    between atoms: N_14  and  C_21
    3  A    between atoms: N_14  and  C_29
    4  A    between atoms: C_15  and  O_26
                            x       y       z     vdW  Elec       q    Type
                         _______ _______ _______ _____ _____    ______ ____

>  <TORSDO>
F 4

$$$$
=
 OpenBabel11052414333D

 32 36  0  0  1  0  0  0  0  0999 V2000
  184.9170  179.1600  140.2950 C   0  0  1  0  0  3  0  0  0  0  0  0
  183.2550  177.4470  140.3970 C   0  0  1  0  0  3  0  0  0  0  0  0
  186.3440  177.4110  144.4380 C   0  0  2  0  0  3  0  0  0  0  0  0
  186.3180  178.5180  140.3460 C   0  0  0  0  0  2  0  0  0  0  0  0
  183.9170  178.3940  139.4280 C   0  0  2  0  0  3  0  0  0  0  0  0
  181.4910  177.0960  138.5340 C   0  0  0  0  0  2  0  0  0  0  0  0
  186.3370  177.3390  145.8330 O   0  0  0  0  0  1  0  0  0  0  0  0
  183.3380  178.1590  141.7520 C   0  0  1  0  0  3  0  0  0  0  0  0
  182.4610  176.3520  137.6290 C   0  0  1  0  0  3  0  0  0  0  0  0
  187.7390  177.8250  143.9170 C   0  0  2  0  0  3  0  0  0  0  0  0
  186.4140  177.9570  141.7390 C   0  0  1  0  0  3  0  0  0  0  0  0
  181.8490  176.9500  140.0100 C   0  0  0  0  0  2  0  0  0  0  0  0
  184.5590  177.6310  138.2700 C   0  0  0  0  0  2  0  0  0  0  0  0
  188.5490  179.0560  142.0230 O   0  0  0  0  0  1  0  0  0  0  0  0
  187.8110  177.9220  142.3740 C   0  0  1  0  0  3  0  0  0  0  0  0
  185.2080  178.3300  143.9250 C   0  0  1  0  0  3  0  0  0  0  0  0
  185.0130  179.4080  144.7900 O   0  0  0  0  0  1  0  0  0  0  0  0
  184.3760  179.2010  141.6680 N   0  0  1  0  0  0  0  0  0  0  0  0
  181.6640  175.8130  136.4530 C   0  0  0  0  0  1  0  0  0  0  0  0
  185.5200  178.8690  142.5200 C   0  0  2  0  0  3  0  0  0  0  0  0
  183.5660  177.3110  137.1550 C   0  0  1  0  0  3  0  0  0  0  0  0
  180.3760  178.8140  144.0110 C   0  0  0  0  0  3  0  0  0  0  0  0
  179.3520  179.2540  143.0000 C   0  0  0  0  0  2  0  0  0  0  0  0
  181.2570  179.4640  141.4000 C   0  0  0  0  0  3  0  0  0  0  0  0
  182.0470  178.7660  142.2300 C   0  0  0  0  0  0  0  0  0  0  0  0
  180.0010  180.1160  141.9130 C   0  0  0  0  0  2  0  0  0  0  0  0
  181.6300  178.5490  143.6300 C   0  0  0  0  0  3  0  0  0  0  0  0
  189.6590  177.7250  145.0170 C   0  0  0  0  0  1  0  0  0  0  0  0
  188.7100  176.9290  144.3710 O   0  0  0  0  0  0  0  0  0  0  0  0
  184.3070  176.7330  136.0450 N   0  0  0  0  0  2  0  0  0  0  0  0
  185.5390  177.2760  135.6630 C   0  0  0  0  0  0  0  0  0  0  0  0
  186.6010  177.7430  135.3330 C   0  0  0  0  0  3  0  0  0  0  0  0
  1  4  1  1  0  0  0
  1 18  1  0  0  0  0
  2 12  1  6  0  0  0
  2  8  1  0  0  0  0
  3  7  1  1  0  0  0
  5 13  1  6  0  0  0
  5  1  1  0  0  0  0
  5  2  1  0  0  0  0
  6 12  1  0  0  0  0
  8 25  1  6  0  0  0
  9 19  1  6  0  0  0
  9  6  1  0  0  0  0
 10 29  1  6  0  0  0
 10  3  1  0  0  0  0
 11  4  1  6  0  0  0
 11 15  1  0  0  0  0
 11 20  1  0  0  0  0
 15 14  1  1  0  0  0
 15 10  1  0  0  0  0
 16  3  1  0  0  0  0
 16 17  1  1  0  0  0
 18  8  1  0  0  0  0
 18 20  1  0  0  0  0
 20 16  1  0  0  0  0
 21  9  1  0  0  0  0
 21 13  1  0  0  0  0
 23 22  1  0  0  0  0
 24 26  1  0  0  0  0
 24 25  2  0  0  0  0
 25 27  1  0  0  0  0
 26 23  1  0  0  0  0
 27 22  2  0  0  0  0
 29 28  1  0  0  0  0
 30 21  1  0  0  0  0
 31 30  1  0  0  0  0
 32 31  3  0  0  0  0
M  END
>  <MODEL>
5

>  <REMARK>
 VINA RESULT:      -6.2      3.662      7.604
  Name = 
  4 active torsions:
  status: ('A' for Active; 'I' for Inactive)
    1  A    between atoms: C_10  and  C_28
    2  A    between atoms: N_14  and  C_21
    3  A    between atoms: N_14  and  C_29
    4  A    between atoms: C_15  and  O_26
                            x       y       z     vdW  Elec       q    Type
                         _______ _______ _______ _____ _____    ______ ____

>  <TORSDO>
F 4

$$$$
=
 OpenBabel11052414333D

 32 36  0  0  1  0  0  0  0  0999 V2000
  186.2950  178.8960  139.0290 C   0  0  1  0  0  3  0  0  0  0  0  0
  184.4430  177.4180  138.7280 C   0  0  1  0  0  3  0  0  0  0  0  0
  185.9020  177.7510  143.5890 C   0  0  2  0  0  3  0  0  0  0  0  0
  187.4670  178.1240  139.6670 C   0  0  0  0  0  2  0  0  0  0  0  0
  185.5430  178.1040  137.9590 C   0  0  2  0  0  3  0  0  0  0  0  0
  183.3950  176.9410  136.4070 C   0  0  0  0  0  2  0  0  0  0  0  0
  185.4030  177.9250  144.8820 O   0  0  0  0  0  1  0  0  0  0  0  0
  184.1690  178.3410  139.9200 C   0  0  1  0  0  3  0  0  0  0  0  0
  184.4810  175.9500  136.0190 C   0  0  1  0  0  3  0  0  0  0  0  0
  187.4380  177.9140  143.5670 C   0  0  2  0  0  3  0  0  0  0  0  0
  186.9840  177.8070  141.0560 C   0  0  1  0  0  3  0  0  0  0  0  0
  183.1940  177.0170  137.9190 C   0  0  0  0  0  2  0  0  0  0  0  0
  186.4100  177.0850  137.2180 C   0  0  0  0  0  2  0  0  0  0  0  0
  189.0400  178.7000  141.9630 O   0  0  0  0  0  1  0  0  0  0  0  0
  188.0520  177.7320  142.1570 C   0  0  1  0  0  3  0  0  0  0  0  0
  185.1780  178.6840  142.5860 C   0  0  1  0  0  3  0  0  0  0  0  0
  184.8770  179.9110  143.1800 O   0  0  0  0  0  1  0  0  0  0  0  0
  185.3290  179.2340  140.0930 N   0  0  1  0  0  0  0  0  0  0  0  0
  184.0610  175.3040  134.7100 C   0  0  0  0  0  1  0  0  0  0  0  0
  186.0390  178.9330  141.3370 C   0  0  2  0  0  3  0  0  0  0  0  0
  185.8220  176.6860  135.8670 C   0  0  1  0  0  3  0  0  0  0  0  0
  180.5730  179.3640  140.4930 C   0  0  0  0  0  3  0  0  0  0  0  0
  180.3040  180.1390  139.2320 C   0  0  0  0  0  2  0  0  0  0  0  0
  182.7750  180.1100  138.8780 C   0  0  0  0  0  3  0  0  0  0  0  0
  182.9110  179.1590  139.8140 C   0  0  0  0  0  0  0  0  0  0  0  0
  181.5340  180.9590  138.8280 C   0  0  0  0  0  2  0  0  0  0  0  0
  181.7930  178.8740  140.7360 C   0  0  0  0  0  3  0  0  0  0  0  0
  188.8470  177.7950  145.2710 C   0  0  0  0  0  1  0  0  0  0  0  0
  188.0330  177.0110  144.4510 O   0  0  0  0  0  0  0  0  0  0  0  0
  186.7950  175.8460  135.1850 N   0  0  0  0  0  2  0  0  0  0  0  0
  188.1020  176.3060  134.9800 C   0  0  0  0  0  0  0  0  0  0  0  0
  189.2270  176.7030  134.8040 C   0  0  0  0  0  3  0  0  0  0  0  0
  1  4  1  1  0  0  0
  1 18  1  0  0  0  0
  2 12  1  6  0  0  0
  2  8  1  0  0  0  0
  3  7  1  1  0  0  0
  5 13  1  1  0  0  0
  5  2  1  0  0  0  0
  5  1  1  0  0  0  0
  6 12  1  0  0  0  0
  8 25  1  6  0  0  0
  8 18  1  0  0  0  0
  9 19  1  6  0  0  0
  9  6  1  0  0  0  0
 10  3  1  0  0  0  0
 10 29  1  1  0  0  0
 11  4  1  6  0  0  0
 11 20  1  0  0  0  0
 11 15  1  0  0  0  0
 15 14  1  6  0  0  0
 15 10  1  0  0  0  0
 16 17  1  1  0  0  0
 16  3  1  0  0  0  0
 18 20  1  0  0  0  0
 20 16  1  0  0  0  0
 21  9  1  0  0  0  0
 21 13  1  0  0  0  0
 22 27  2  0  0  0  0
 23 22  1  0  0  0  0
 24 25  2  0  0  0  0
 25 27  1  0  0  0  0
 26 24  1  0  0  0  0
 26 23  1  0  0  0  0
 29 28  1  0  0  0  0
 30 21  1  0  0  0  0
 31 30  1  0  0  0  0
 32 31  3  0  0  0  0
M  END
>  <MODEL>
6

>  <REMARK>
 VINA RESULT:      -5.4      3.652      7.794
  Name = 
  4 active torsions:
  status: ('A' for Active; 'I' for Inactive)
    1  A    between atoms: C_10  and  C_28
    2  A    between atoms: N_14  and  C_21
    3  A    between atoms: N_14  and  C_29
    4  A    between atoms: C_15  and  O_26
                            x       y       z     vdW  Elec       q    Type
                         _______ _______ _______ _____ _____    ______ ____

>  <TORSDO>
F 4

$$$$
=
 OpenBabel11052414333D

 32 36  0  0  1  0  0  0  0  0999 V2000
  188.2240  176.3170  142.8430 C   0  0  1  0  0  3  0  0  0  0  0  0
  190.1460  177.6900  143.1970 C   0  0  1  0  0  3  0  0  0  0  0  0
  186.0580  179.3720  145.7140 C   0  0  2  0  0  3  0  0  0  0  0  0
  187.0900  177.1700  142.2410 C   0  0  0  0  0  2  0  0  0  0  0  0
  189.6060  176.6320  142.2690 C   0  0  2  0  0  3  0  0  0  0  0  0
  192.4360  177.2050  142.0870 C   0  0  0  0  0  2  0  0  0  0  0  0
  185.6440  179.8310  146.9660 O   0  0  0  0  0  1  0  0  0  0  0  0
  189.4640  177.4120  144.5410 C   0  0  1  0  0  3  0  0  0  0  0  0
  192.0230  177.8150  140.7570 C   0  0  1  0  0  3  0  0  0  0  0  0
  184.8420  179.0650  144.8120 C   0  0  2  0  0  3  0  0  0  0  0  0
  186.7060  178.1080  143.3530 C   0  0  1  0  0  3  0  0  0  0  0  0
  191.6800  177.8180  143.2640 C   0  0  0  0  0  2  0  0  0  0  0  0
  189.5780  177.1340  140.8260 C   0  0  0  0  0  2  0  0  0  0  0  0
  184.3850  177.5030  143.0480 O   0  0  0  0  0  1  0  0  0  0  0  0
  185.2370  178.5510  143.4060 C   0  0  1  0  0  3  0  0  0  0  0  0
  187.0260  178.1710  145.8560 C   0  0  1  0  0  3  0  0  0  0  0  0
  186.6590  177.3630  146.9340 O   0  0  0  0  0  1  0  0  0  0  0  0
  188.2760  176.5750  144.2950 N   0  0  1  0  0  0  0  0  0  0  0  0
  193.2580  177.8620  139.8740 C   0  0  0  0  0  1  0  0  0  0  0  0
  187.0460  177.3180  144.5780 C   0  0  2  0  0  3  0  0  0  0  0  0
  190.9180  176.9580  140.1160 C   0  0  1  0  0  3  0  0  0  0  0  0
  191.1000  176.8010  147.8970 C   0  0  0  0  0  3  0  0  0  0  0  0
  192.3750  176.1320  147.4620 C   0  0  0  0  0  2  0  0  0  0  0  0
  191.2940  175.8820  145.2260 C   0  0  0  0  0  3  0  0  0  0  0  0
  190.3400  176.7590  145.5750 C   0  0  0  0  0  0  0  0  0  0  0  0
  192.1170  175.1930  146.2800 C   0  0  0  0  0  2  0  0  0  0  0  0
  190.1680  177.1280  146.9950 C   0  0  0  0  0  3  0  0  0  0  0  0
  182.7750  179.7090  144.3440 C   0  0  0  0  0  1  0  0  0  0  0  0
  184.0380  180.2000  144.6820 O   0  0  0  0  0  0  0  0  0  0  0  0
  190.7360  177.3150  138.7180 N   0  0  0  0  0  2  0  0  0  0  0  0
  189.5960  178.0200  138.3130 C   0  0  0  0  0  0  0  0  0  0  0  0
  188.6150  178.6280  137.9650 C   0  0  0  0  0  3  0  0  0  0  0  0
  1  4  1  6  0  0  0
  1 18  1  0  0  0  0
  2 12  1  1  0  0  0
  2  8  1  0  0  0  0
  3 16  1  0  0  0  0
  3  7  1  1  0  0  0
  5 13  1  6  0  0  0
  5  1  1  0  0  0  0
  5  2  1  0  0  0  0
  6 12  1  0  0  0  0
  8 25  1  1  0  0  0
  9 19  1  6  0  0  0
  9  6  1  0  0  0  0
 10 29  1  6  0  0  0
 10  3  1  0  0  0  0
 11  4  1  6  0  0  0
 11 15  1  0  0  0  0
 11 20  1  0  0  0  0
 15 14  1  1  0  0  0
 15 10  1  0  0  0  0
 16 17  1  1  0  0  0
 18  8  1  0  0  0  0
 18 20  1  0  0  0  0
 20 16  1  0  0  0  0
 21  9  1  0  0  0  0
 21 13  1  0  0  0  0
 23 22  1  0  0  0  0
 24 25  2  0  0  0  0
 24 26  1  0  0  0  0
 25 27  1  0  0  0  0
 26 23  1  0  0  0  0
 27 22  2  0  0  0  0
 28 29  1  0  0  0  0
 30 21  1  0  0  0  0
 31 30  1  0  0  0  0
 32 31  3  0  0  0  0
M  END
>  <MODEL>
7

>  <REMARK>
 VINA RESULT:      -5.4      3.923      6.954
  Name = 
  4 active torsions:
  status: ('A' for Active; 'I' for Inactive)
    1  A    between atoms: C_10  and  C_28
    2  A    between atoms: N_14  and  C_21
    3  A    between atoms: N_14  and  C_29
    4  A    between atoms: C_15  and  O_26
                            x       y       z     vdW  Elec       q    Type
                         _______ _______ _______ _____ _____    ______ ____

>  <TORSDO>
F 4

$$$$
=
 OpenBabel11052414333D

 32 36  0  0  1  0  0  0  0  0999 V2000
  186.8050  175.1830  135.1780 C   0  0  1  0  0  3  0  0  0  0  0  0
  185.1670  174.5990  136.8160 C   0  0  1  0  0  3  0  0  0  0  0  0
  188.6140  177.8900  138.5940 C   0  0  2  0  0  3  0  0  0  0  0  0
  188.2080  174.8150  135.7030 C   0  0  0  0  0  2  0  0  0  0  0  0
  185.7330  174.1400  135.4960 C   0  0  2  0  0  3  0  0  0  0  0  0
  183.2400  172.9360  136.3360 C   0  0  0  0  0  2  0  0  0  0  0  0
  188.7350  179.0830  139.3100 O   0  0  0  0  0  1  0  0  0  0  0  0
  185.3710  176.1180  136.8180 C   0  0  1  0  0  3  0  0  0  0  0  0
  184.1260  171.7140  136.5240 C   0  0  1  0  0  3  0  0  0  0  0  0
  189.9530  177.5160  137.9190 C   0  0  2  0  0  3  0  0  0  0  0  0
  188.4330  175.7680  136.8460 C   0  0  1  0  0  3  0  0  0  0  0  0
  183.7330  174.1370  137.1390 C   0  0  0  0  0  2  0  0  0  0  0  0
  186.2690  172.7120  135.5980 C   0  0  0  0  0  2  0  0  0  0  0  0
  190.5810  176.3660  135.9090 O   0  0  0  0  0  1  0  0  0  0  0  0
  189.8830  176.2000  137.1080 C   0  0  1  0  0  3  0  0  0  0  0  0
  187.4320  177.9600  137.5960 C   0  0  1  0  0  3  0  0  0  0  0  0
  187.3120  179.2430  137.0590 O   0  0  0  0  0  1  0  0  0  0  0  0
  186.3930  176.4520  135.8100 N   0  0  1  0  0  0  0  0  0  0  0  0
  183.2270  170.4890  136.4880 C   0  0  0  0  0  1  0  0  0  0  0  0
  187.6110  176.9540  136.4480 C   0  0  2  0  0  3  0  0  0  0  0  0
  185.1790  171.6610  135.4050 C   0  0  1  0  0  3  0  0  0  0  0  0
  182.2560  178.1230  137.5840 C   0  0  0  0  0  3  0  0  0  0  0  0
  181.4490  177.8610  136.3410 C   0  0  0  0  0  2  0  0  0  0  0  0
  183.5610  176.9730  135.3500 C   0  0  0  0  0  3  0  0  0  0  0  0
  184.1260  176.9250  136.5660 C   0  0  0  0  0  0  0  0  0  0  0  0
  182.3530  177.8360  135.1050 C   0  0  0  0  0  2  0  0  0  0  0  0
  183.4990  177.6430  137.6940 C   0  0  0  0  0  3  0  0  0  0  0  0
  190.5210  176.4390  139.7680 C   0  0  0  0  0  1  0  0  0  0  0  0
  190.9650  177.4170  138.8770 O   0  0  0  0  0  0  0  0  0  0  0  0
  185.8170  170.3540  135.3600 N   0  0  0  0  0  2  0  0  0  0  0  0
  187.1910  170.2500  135.1100 C   0  0  0  0  0  0  0  0  0  0  0  0
  188.3740  170.1610  134.8940 C   0  0  0  0  0  3  0  0  0  0  0  0
  1  5  1  0  0  0  0
  1  4  1  1  0  0  0
  1 18  1  0  0  0  0
  2  8  1  0  0  0  0
  2 12  1  6  0  0  0
  3  7  1  6  0  0  0
  5 13  1  1  0  0  0
  5  2  1  0  0  0  0
  6  9  1  0  0  0  0
  6 12  1  0  0  0  0
  8 25  1  6  0  0  0
  9 19  1  6  0  0  0
 10  3  1  0  0  0  0
 10 29  1  1  0  0  0
 11  4  1  6  0  0  0
 11 15  1  0  0  0  0
 15 14  1  6  0  0  0
 15 10  1  0  0  0  0
 16 17  1  6  0  0  0
 16  3  1  0  0  0  0
 18 20  1  0  0  0  0
 18  8  1  0  0  0  0
 20 11  1  0  0  0  0
 20 16  1  0  0  0  0
 21 13  1  0  0  0  0
 21  9  1  0  0  0  0
 22 27  2  0  0  0  0
 23 22  1  0  0  0  0
 24 25  2  0  0  0  0
 25 27  1  0  0  0  0
 26 24  1  0  0  0  0
 26 23  1  0  0  0  0
 29 28  1  0  0  0  0
 30 21  1  0  0  0  0
 31 30  1  0  0  0  0
 32 31  3  0  0  0  0
M  END
>  <MODEL>
8

>  <REMARK>
 VINA RESULT:      -5.3      3.865      7.942
  Name = 
  4 active torsions:
  status: ('A' for Active; 'I' for Inactive)
    1  A    between atoms: C_10  and  C_28
    2  A    between atoms: N_14  and  C_21
    3  A    between atoms: N_14  and  C_29
    4  A    between atoms: C_15  and  O_26
                            x       y       z     vdW  Elec       q    Type
                         _______ _______ _______ _____ _____    ______ ____

>  <TORSDO>
F 4

$$$$
=
 OpenBabel11052414333D

 32 36  0  0  1  0  0  0  0  0999 V2000
  186.5670  179.4110  142.0400 C   0  0  1  0  0  3  0  0  0  0  0  0
  187.6600  177.4360  141.2570 C   0  0  1  0  0  3  0  0  0  0  0  0
  182.7110  177.5210  140.0870 C   0  0  2  0  0  3  0  0  0  0  0  0
  185.4160  179.0170  142.9880 C   0  0  0  0  0  2  0  0  0  0  0  0
  187.8350  178.5760  142.2280 C   0  0  2  0  0  3  0  0  0  0  0  0
  190.1780  176.9780  141.6550 C   0  0  0  0  0  2  0  0  0  0  0  0
  181.8220  177.3080  139.0310 O   0  0  0  0  0  1  0  0  0  0  0  0
  186.7820  178.0100  140.1400 C   0  0  1  0  0  3  0  0  0  0  0  0
  189.9600  176.5080  143.0850 C   0  0  1  0  0  3  0  0  0  0  0  0
  182.0010  178.2200  141.2690 C   0  0  2  0  0  3  0  0  0  0  0  0
  184.4160  178.3420  142.0890 C   0  0  1  0  0  3  0  0  0  0  0  0
  188.9520  176.7470  140.7770 C   0  0  0  0  0  2  0  0  0  0  0  0
  188.0290  178.0560  143.6520 C   0  0  0  0  0  2  0  0  0  0  0  0
  182.6720  179.7570  142.9840 O   0  0  0  0  0  1  0  0  0  0  0  0
  182.9370  178.4840  142.4730 C   0  0  1  0  0  3  0  0  0  0  0  0
  183.9730  178.2780  139.6040 C   0  0  1  0  0  3  0  0  0  0  0  0
  183.6450  179.2130  138.6200 O   0  0  0  0  0  1  0  0  0  0  0  0
  186.1100  179.2180  140.6500 N   0  0  1  0  0  0  0  0  0  0  0  0
  191.2840  175.9620  143.5920 C   0  0  0  0  0  1  0  0  0  0  0  0
  184.6670  179.0030  140.7690 C   0  0  2  0  0  3  0  0  0  0  0  0
  189.4800  177.6860  143.9490 C   0  0  1  0  0  3  0  0  0  0  0  0
  187.5710  178.0280  136.4410 C   0  0  0  0  0  3  0  0  0  0  0  0
  189.0580  178.2500  136.4790 C   0  0  0  0  0  2  0  0  0  0  0  0
  188.7440  178.8570  138.8800 C   0  0  0  0  0  3  0  0  0  0  0  0
  187.5090  178.3340  138.8630 C   0  0  0  0  0  0  0  0  0  0  0  0
  189.4300  179.2330  137.5940 C   0  0  0  0  0  2  0  0  0  0  0  0
  186.8590  178.0290  137.5730 C   0  0  0  0  0  3  0  0  0  0  0  0
  179.8290  178.3520  141.6790 C   0  0  0  0  0  1  0  0  0  0  0  0
  180.9060  177.4620  141.6900 O   0  0  0  0  0  0  0  0  0  0  0  0
  189.5800  177.3600  145.3640 N   0  0  0  0  0  2  0  0  0  0  0  0
  188.4660  177.5030  146.2000 C   0  0  0  0  0  0  0  0  0  0  0  0
  187.5070  177.6270  146.9200 C   0  0  0  0  0  3  0  0  0  0  0  0
  1  5  1  0  0  0  0
  1  4  1  1  0  0  0
  2 12  1  6  0  0  0
  2  5  1  0  0  0  0
  3  7  1  6  0  0  0
  3 10  1  0  0  0  0
  5 13  1  1  0  0  0
  6  9  1  0  0  0  0
  8 25  1  6  0  0  0
  8 18  1  0  0  0  0
  8  2  1  0  0  0  0
  9 19  1  1  0  0  0
  9 21  1  0  0  0  0
 10 29  1  1  0  0  0
 10 15  1  0  0  0  0
 11 15  1  0  0  0  0
 11  4  1  1  0  0  0
 12  6  1  0  0  0  0
 13 21  1  0  0  0  0
 15 14  1  6  0  0  0
 16 17  1  6  0  0  0
 16  3  1  0  0  0  0
 16 20  1  0  0  0  0
 18 20  1  0  0  0  0
 18  1  1  0  0  0  0
 20 11  1  0  0  0  0
 21 30  1  0  0  0  0
 22 23  1  0  0  0  0
 22 27  2  0  0  0  0
 23 26  1  0  0  0  0
 25 24  2  0  0  0  0
 26 24  1  0  0  0  0
 27 25  1  0  0  0  0
 28 29  1  0  0  0  0
 30 31  1  0  0  0  0
 31 32  3  0  0  0  0
M  END
>  <MODEL>
9

>  <REMARK>
 VINA RESULT:      -5.1      3.492      6.979
  Name = 
  4 active torsions:
  status: ('A' for Active; 'I' for Inactive)
    1  A    between atoms: C_10  and  C_28
    2  A    between atoms: N_14  and  C_21
    3  A    between atoms: N_14  and  C_29
    4  A    between atoms: C_15  and  O_26
                            x       y       z     vdW  Elec       q    Type
                         _______ _______ _______ _____ _____    ______ ____

>  <TORSDO>
F 4

$$$$
