=
 OpenBabel11052412403D

 25 29  0  0  1  0  0  0  0  0999 V2000
  185.8520  178.2020  144.6180 C   0  0  0  0  0  0  0  0  0  0  0  0
  187.1080  177.5060  145.1170 C   0  0  1  0  0  3  0  0  0  0  0  0
  184.9740  178.1490  146.9830 C   0  0  0  0  0  2  0  0  0  0  0  0
  185.5840  178.4470  143.2540 C   0  0  0  0  0  0  0  0  0  0  0  0
  184.3600  179.1840  141.4860 O   0  0  0  0  0  0  0  0  0  0  0  0
  186.3330  178.2330  147.4020 O   0  0  0  0  0  0  0  0  0  0  0  0
  183.4210  179.3980  143.7560 C   0  0  0  0  0  3  0  0  0  0  0  0
  184.4150  179.0340  142.8530 C   0  0  0  0  0  0  0  0  0  0  0  0
  188.6430  177.8090  147.0720 C   0  0  0  0  0  0  0  0  0  0  0  0
  188.8890  178.1480  148.5020 C   0  0  0  0  0  1  0  0  0  0  0  0
  188.3370  177.7570  144.2440 C   0  0  0  0  0  2  0  0  0  0  0  0
  185.5460  178.6690  140.8880 C   0  0  0  0  0  3  0  0  0  0  0  0
  184.8320  178.5340  145.5450 C   0  0  0  0  0  0  0  0  0  0  0  0
  183.6340  179.1300  145.1150 C   0  0  0  0  0  3  0  0  0  0  0  0
  189.8530  177.5770  146.2030 C   0  0  0  0  0  2  0  0  0  0  0  0
  186.4050  178.1330  142.0490 C   0  0  0  0  0  3  0  0  0  0  0  0
  189.5120  176.9970  144.8300 C   0  0  2  0  0  3  0  0  0  0  0  0
  187.3940  177.8600  146.5690 C   0  0  0  0  0  0  0  0  0  0  0  0
  190.7060  177.1100  143.8980 C   0  0  0  0  0  2  0  0  0  0  0  0
  189.4730  176.6500  139.4570 O   0  0  0  0  0  1  0  0  0  0  0  0
  190.7760  176.6550  139.9510 C   0  0  1  0  0  3  0  0  0  0  0  0
  191.0570  177.8590  140.4850 N   0  0  0  0  0  2  0  0  0  0  0  0
  190.5290  176.2340  142.7040 C   0  0  0  0  0  0  0  0  0  0  0  0
  190.7380  176.7620  141.3990 N   0  0  0  0  0  0  0  0  0  0  0  0
  190.2200  175.0240  142.8500 O   0  0  0  0  0  0  0  0  0  0  0  0
  1  2  1  0  0  0  0
  1 13  1  0  0  0  0
  2 11  1  6  0  0  0
  2 18  1  0  0  0  0
  3  6  1  0  0  0  0
  4  1  2  0  0  0  0
  5  8  1  0  0  0  0
  7 14  1  0  0  0  0
  8  4  1  0  0  0  0
  8  7  2  0  0  0  0
  9 10  1  0  0  0  0
 11 17  1  0  0  0  0
 12  5  1  0  0  0  0
 12 16  2  0  0  0  0
 13  3  1  0  0  0  0
 14 13  2  0  0  0  0
 15  9  1  0  0  0  0
 16  4  1  0  0  0  0
 17 19  1  6  0  0  0
 17 15  1  0  0  0  0
 18  9  2  0  0  0  0
 18  6  1  0  0  0  0
 21 20  1  6  0  0  0
 21 22  1  0  0  0  0
 21 24  1  0  0  0  0
 22 24  1  0  0  0  0
 23 25  2  0  0  0  0
 23 19  1  0  0  0  0
 24 23  1  0  0  0  0
M  END
>  <MODEL>
1

>  <REMARK>
 VINA RESULT:     -10.5      0.000      0.000
  Name = 
  2 active torsions:
  status: ('A' for Active; 'I' for Inactive)
    1  A    between atoms: C_6  and  C_15
    2  A    between atoms: C_6  and  C_23
                            x       y       z     vdW  Elec       q    Type
                         _______ _______ _______ _____ _____    ______ ____

>  <TORSDO>
F 2

$$$$
=
 OpenBabel11052412403D

 25 29  0  0  1  0  0  0  0  0999 V2000
  187.2020  177.7180  143.9740 C   0  0  0  0  0  0  0  0  0  0  0  0
  188.5340  177.0570  143.6550 C   0  0  1  0  0  3  0  0  0  0  0  0
  187.4700  176.9350  146.3580 C   0  0  0  0  0  2  0  0  0  0  0  0
  186.3600  178.2880  142.9950 C   0  0  0  0  0  0  0  0  0  0  0  0
  184.4930  179.3320  142.2280 O   0  0  0  0  0  0  0  0  0  0  0  0
  188.8740  177.0540  146.1520 O   0  0  0  0  0  0  0  0  0  0  0  0
  184.6680  178.8230  144.6340 C   0  0  0  0  0  3  0  0  0  0  0  0
  185.1480  178.8280  143.3280 C   0  0  0  0  0  0  0  0  0  0  0  0
  190.7860  176.9920  144.7480 C   0  0  0  0  0  0  0  0  0  0  0  0
  191.6500  176.9610  145.9620 C   0  0  0  0  0  1  0  0  0  0  0  0
  189.2500  177.6680  142.4510 C   0  0  0  0  0  2  0  0  0  0  0  0
  185.2760  179.1310  141.0550 C   0  0  0  0  0  3  0  0  0  0  0  0
  186.7100  177.6740  145.3020 C   0  0  0  0  0  0  0  0  0  0  0  0
  185.4580  178.2260  145.6250 C   0  0  0  0  0  3  0  0  0  0  0  0
  191.4760  177.1380  143.4170 C   0  0  0  0  0  2  0  0  0  0  0  0
  186.5510  178.4020  141.5210 C   0  0  0  0  0  3  0  0  0  0  0  0
  190.5460  176.9140  142.2240 C   0  0  2  0  0  3  0  0  0  0  0  0
  189.4450  177.0380  144.8740 C   0  0  0  0  0  0  0  0  0  0  0  0
  191.2020  177.4030  140.9440 C   0  0  0  0  0  2  0  0  0  0  0  0
  187.4380  177.5200  138.2480 O   0  0  0  0  0  1  0  0  0  0  0  0
  188.6830  178.0680  137.9440 C   0  0  1  0  0  3  0  0  0  0  0  0
  188.9650  179.0630  138.8050 N   0  0  0  0  0  2  0  0  0  0  0  0
  190.4700  176.8980  139.7480 C   0  0  0  0  0  0  0  0  0  0  0  0
  189.6110  177.7690  139.0190 N   0  0  0  0  0  0  0  0  0  0  0  0
  190.6300  175.7100  139.3660 O   0  0  0  0  0  0  0  0  0  0  0  0
  1 13  1  0  0  0  0
  2 11  1  6  0  0  0
  2  1  1  0  0  0  0
  2 18  1  0  0  0  0
  4  8  1  0  0  0  0
  4  1  2  0  0  0  0
  5  8  1  0  0  0  0
  6  3  1  0  0  0  0
  7 14  1  0  0  0  0
  8  7  2  0  0  0  0
  9 18  2  0  0  0  0
  9 10  1  0  0  0  0
 12 16  2  0  0  0  0
 12  5  1  0  0  0  0
 13 14  2  0  0  0  0
 13  3  1  0  0  0  0
 15  9  1  0  0  0  0
 16  4  1  0  0  0  0
 17 19  1  6  0  0  0
 17 11  1  0  0  0  0
 17 15  1  0  0  0  0
 18  6  1  0  0  0  0
 21 20  1  1  0  0  0
 21 22  1  0  0  0  0
 21 24  1  0  0  0  0
 22 24  1  0  0  0  0
 23 19  1  0  0  0  0
 24 23  1  0  0  0  0
 25 23  2  0  0  0  0
M  END
>  <MODEL>
2

>  <REMARK>
 VINA RESULT:      -9.9      1.593      2.524
  Name = 
  2 active torsions:
  status: ('A' for Active; 'I' for Inactive)
    1  A    between atoms: C_6  and  C_15
    2  A    between atoms: C_6  and  C_23
                            x       y       z     vdW  Elec       q    Type
                         _______ _______ _______ _____ _____    ______ ____

>  <TORSDO>
F 2

$$$$
=
 OpenBabel11052412403D

 25 29  0  0  1  0  0  0  0  0999 V2000
  187.0980  177.8290  144.9050 C   0  0  0  0  0  0  0  0  0  0  0  0
  187.8880  177.3480  143.6990 C   0  0  1  0  0  3  0  0  0  0  0  0
  189.0450  177.1500  146.3590 C   0  0  0  0  0  2  0  0  0  0  0  0
  185.7540  178.2540  144.8370 C   0  0  0  0  0  0  0  0  0  0  0  0
  183.7810  179.0150  145.6710 O   0  0  0  0  0  0  0  0  0  0  0  0
  189.8770  177.4540  145.2440 O   0  0  0  0  0  0  0  0  0  0  0  0
  185.6470  178.5950  147.2260 C   0  0  0  0  0  3  0  0  0  0  0  0
  185.0700  178.6320  145.9600 C   0  0  0  0  0  0  0  0  0  0  0  0
  190.2490  177.6180  142.9060 C   0  0  0  0  0  0  0  0  0  0  0  0
  191.7110  177.7350  143.1680 C   0  0  0  0  0  1  0  0  0  0  0  0
  187.4800  178.0210  142.3880 C   0  0  0  0  0  2  0  0  0  0  0  0
  183.5350  178.8930  144.2730 C   0  0  0  0  0  3  0  0  0  0  0  0
  187.6860  177.7510  146.1920 C   0  0  0  0  0  0  0  0  0  0  0  0
  186.9660  178.1360  147.3370 C   0  0  0  0  0  3  0  0  0  0  0  0
  189.7870  177.8230  141.4870 C   0  0  0  0  0  2  0  0  0  0  0  0
  184.8430  178.3570  143.6610 C   0  0  0  0  0  3  0  0  0  0  0  0
  188.3220  177.4450  141.2650 C   0  0  2  0  0  3  0  0  0  0  0  0
  189.3860  177.4840  143.9330 C   0  0  0  0  0  0  0  0  0  0  0  0
  187.8320  177.9880  139.9330 C   0  0  0  0  0  2  0  0  0  0  0  0
  192.0770  176.7970  138.5140 O   0  0  0  0  0  1  0  0  0  0  0  0
  190.8800  176.4900  137.8700 C   0  0  1  0  0  3  0  0  0  0  0  0
  190.1400  175.6760  138.6450 N   0  0  0  0  0  2  0  0  0  0  0  0
  188.9730  178.1960  138.9960 C   0  0  0  0  0  0  0  0  0  0  0  0
  189.7780  177.0920  138.5990 N   0  0  0  0  0  0  0  0  0  0  0  0
  189.2070  179.3430  138.5350 O   0  0  0  0  0  0  0  0  0  0  0  0
  1 13  1  0  0  0  0
  2 11  1  6  0  0  0
  2 18  1  0  0  0  0
  2  1  1  0  0  0  0
  4  1  2  0  0  0  0
  4  8  1  0  0  0  0
  5  8  1  0  0  0  0
  6  3  1  0  0  0  0
  7 14  1  0  0  0  0
  8  7  2  0  0  0  0
  9 10  1  0  0  0  0
  9 18  2  0  0  0  0
 12  5  1  0  0  0  0
 13  3  1  0  0  0  0
 13 14  2  0  0  0  0
 15  9  1  0  0  0  0
 16 12  2  0  0  0  0
 16  4  1  0  0  0  0
 17 19  1  6  0  0  0
 17 15  1  0  0  0  0
 17 11  1  0  0  0  0
 18  6  1  0  0  0  0
 21 20  1  1  0  0  0
 21 24  1  0  0  0  0
 21 22  1  0  0  0  0
 23 19  1  0  0  0  0
 24 22  1  0  0  0  0
 24 23  1  0  0  0  0
 25 23  2  0  0  0  0
M  END
>  <MODEL>
3

>  <REMARK>
 VINA RESULT:      -9.9      1.909      3.778
  Name = 
  2 active torsions:
  status: ('A' for Active; 'I' for Inactive)
    1  A    between atoms: C_6  and  C_15
    2  A    between atoms: C_6  and  C_23
                            x       y       z     vdW  Elec       q    Type
                         _______ _______ _______ _____ _____    ______ ____

>  <TORSDO>
F 2

$$$$
=
 OpenBabel11052412403D

 25 29  0  0  1  0  0  0  0  0999 V2000
  186.3910  178.0990  144.5520 C   0  0  0  0  0  0  0  0  0  0  0  0
  185.3180  178.6640  143.6360 C   0  0  1  0  0  3  0  0  0  0  0  0
  185.0890  179.0050  146.5140 C   0  0  0  0  0  2  0  0  0  0  0  0
  187.5910  177.5200  144.0850 C   0  0  0  0  0  0  0  0  0  0  0  0
  189.6300  176.5370  144.2890 O   0  0  0  0  0  0  0  0  0  0  0  0
  183.9190  178.7960  145.7280 O   0  0  0  0  0  0  0  0  0  0  0  0
  188.4070  177.1770  146.3320 C   0  0  0  0  0  3  0  0  0  0  0  0
  188.5470  177.0690  144.9520 C   0  0  0  0  0  0  0  0  0  0  0  0
  182.8140  178.6680  143.6330 C   0  0  0  0  0  0  0  0  0  0  0  0
  181.5050  178.7230  144.3440 C   0  0  0  0  0  1  0  0  0  0  0  0
  185.2160  177.9440  142.2920 C   0  0  0  0  0  2  0  0  0  0  0  0
  189.4340  176.6240  142.8810 C   0  0  0  0  0  3  0  0  0  0  0  0
  186.2510  178.2490  145.9540 C   0  0  0  0  0  0  0  0  0  0  0  0
  187.2490  177.7870  146.8310 C   0  0  0  0  0  3  0  0  0  0  0  0
  182.7790  178.4060  142.1490 C   0  0  0  0  0  2  0  0  0  0  0  0
  188.0670  177.3070  142.6880 C   0  0  0  0  0  3  0  0  0  0  0  0
  184.1320  178.6100  141.4660 C   0  0  2  0  0  3  0  0  0  0  0  0
  183.9650  178.7050  144.3320 C   0  0  0  0  0  0  0  0  0  0  0  0
  184.1140  178.0090  140.0700 C   0  0  0  0  0  2  0  0  0  0  0  0
  187.9260  178.9950  137.6310 O   0  0  0  0  0  1  0  0  0  0  0  0
  186.7450  178.4540  137.1260 C   0  0  1  0  0  3  0  0  0  0  0  0
  186.5400  177.2320  137.6530 N   0  0  0  0  0  2  0  0  0  0  0  0
  184.8200  178.8990  139.1030 C   0  0  0  0  0  0  0  0  0  0  0  0
  185.7710  178.3510  138.1970 N   0  0  0  0  0  0  0  0  0  0  0  0
  184.5550  180.1280  139.0700 O   0  0  0  0  0  0  0  0  0  0  0  0
  1 13  1  0  0  0  0
  2 11  1  6  0  0  0
  2 18  1  0  0  0  0
  2  1  1  0  0  0  0
  4  1  2  0  0  0  0
  4  8  1  0  0  0  0
  5  8  1  0  0  0  0
  6  3  1  0  0  0  0
  7 14  1  0  0  0  0
  8  7  2  0  0  0  0
  9 18  2  0  0  0  0
  9 10  1  0  0  0  0
 12  5  1  0  0  0  0
 13  3  1  0  0  0  0
 13 14  2  0  0  0  0
 15  9  1  0  0  0  0
 16 12  2  0  0  0  0
 16  4  1  0  0  0  0
 17 19  1  6  0  0  0
 17 15  1  0  0  0  0
 17 11  1  0  0  0  0
 18  6  1  0  0  0  0
 21 20  1  1  0  0  0
 21 22  1  0  0  0  0
 21 24  1  0  0  0  0
 22 24  1  0  0  0  0
 23 19  1  0  0  0  0
 24 23  1  0  0  0  0
 25 23  2  0  0  0  0
M  END
>  <MODEL>
4

>  <REMARK>
 VINA RESULT:      -9.8      2.366      5.377
  Name = 
  2 active torsions:
  status: ('A' for Active; 'I' for Inactive)
    1  A    between atoms: C_6  and  C_15
    2  A    between atoms: C_6  and  C_23
                            x       y       z     vdW  Elec       q    Type
                         _______ _______ _______ _____ _____    ______ ____

>  <TORSDO>
F 2

$$$$
=
 OpenBabel11052412403D

 25 29  0  0  1  0  0  0  0  0999 V2000
  188.9230  177.1820  144.7170 C   0  0  0  0  0  0  0  0  0  0  0  0
  187.7570  177.3270  143.7530 C   0  0  1  0  0  3  0  0  0  0  0  0
  190.2690  176.1980  142.8230 C   0  0  0  0  0  2  0  0  0  0  0  0
  188.8290  177.4410  146.1010 C   0  0  0  0  0  0  0  0  0  0  0  0
  189.5900  177.5650  148.2390 O   0  0  0  0  0  0  0  0  0  0  0  0
  189.4970  177.0230  141.9550 O   0  0  0  0  0  0  0  0  0  0  0  0
  191.1170  176.7650  146.4760 C   0  0  0  0  0  3  0  0  0  0  0  0
  189.8950  177.2480  146.9350 C   0  0  0  0  0  0  0  0  0  0  0  0
  187.4910  178.1650  141.4080 C   0  0  0  0  0  0  0  0  0  0  0  0
  187.9910  178.3330  140.0130 C   0  0  0  0  0  1  0  0  0  0  0  0
  186.7670  178.4240  144.1470 C   0  0  0  0  0  2  0  0  0  0  0  0
  188.2350  177.9950  148.3350 C   0  0  0  0  0  3  0  0  0  0  0  0
  190.1500  176.6550  144.2410 C   0  0  0  0  0  0  0  0  0  0  0  0
  191.2340  176.4550  145.1140 C   0  0  0  0  0  3  0  0  0  0  0  0
  186.2120  178.8760  141.7680 C   0  0  0  0  0  2  0  0  0  0  0  0
  187.6640  177.9080  146.9070 C   0  0  0  0  0  3  0  0  0  0  0  0
  185.6470  178.4550  143.1250 C   0  0  2  0  0  3  0  0  0  0  0  0
  188.2440  177.5270  142.3250 C   0  0  0  0  0  0  0  0  0  0  0  0
  184.5740  179.4330  143.5760 C   0  0  0  0  0  2  0  0  0  0  0  0
  180.7140  179.2870  141.0210 O   0  0  0  0  0  1  0  0  0  0  0  0
  181.7170  178.3200  141.0490 C   0  0  1  0  0  3  0  0  0  0  0  0
  182.8630  178.8370  140.5680 N   0  0  0  0  0  2  0  0  0  0  0  0
  183.2130  178.8680  143.3460 C   0  0  0  0  0  0  0  0  0  0  0  0
  182.7260  178.7070  142.0180 N   0  0  0  0  0  0  0  0  0  0  0  0
  182.5060  178.5110  144.3220 O   0  0  0  0  0  0  0  0  0  0  0  0
  1  4  1  0  0  0  0
  2 11  1  1  0  0  0
  2  1  1  0  0  0  0
  3 13  1  0  0  0  0
  4 16  1  0  0  0  0
  4  8  2  0  0  0  0
  5 12  1  0  0  0  0
  6 18  1  0  0  0  0
  6  3  1  0  0  0  0
  7  8  1  0  0  0  0
  8  5  1  0  0  0  0
  9 15  1  0  0  0  0
  9 18  2  0  0  0  0
 10  9  1  0  0  0  0
 13  1  2  0  0  0  0
 13 14  1  0  0  0  0
 14  7  2  0  0  0  0
 15 17  1  0  0  0  0
 16 12  2  0  0  0  0
 17 19  1  1  0  0  0
 17 11  1  0  0  0  0
 18  2  1  0  0  0  0
 21 20  1  1  0  0  0
 21 24  1  0  0  0  0
 22 21  1  0  0  0  0
 22 24  1  0  0  0  0
 23 19  1  0  0  0  0
 23 25  2  0  0  0  0
 24 23  1  0  0  0  0
M  END
>  <MODEL>
5

>  <REMARK>
 VINA RESULT:      -9.6      2.917      6.864
  Name = 
  2 active torsions:
  status: ('A' for Active; 'I' for Inactive)
    1  A    between atoms: C_6  and  C_15
    2  A    between atoms: C_6  and  C_23
                            x       y       z     vdW  Elec       q    Type
                         _______ _______ _______ _____ _____    ______ ____

>  <TORSDO>
F 2

$$$$
=
 OpenBabel11052412403D

 25 29  0  0  1  0  0  0  0  0999 V2000
  189.4180  177.0530  144.8860 C   0  0  0  0  0  0  0  0  0  0  0  0
  188.6100  177.0650  143.5990 C   0  0  1  0  0  3  0  0  0  0  0  0
  191.3110  175.9880  143.6010 C   0  0  0  0  0  2  0  0  0  0  0  0
  188.8890  177.4170  146.1430 C   0  0  0  0  0  0  0  0  0  0  0  0
  188.9390  177.7470  148.3910 O   0  0  0  0  0  0  0  0  0  0  0  0
  190.8330  176.7030  142.4660 O   0  0  0  0  0  0  0  0  0  0  0  0
  190.9580  176.8840  147.2700 C   0  0  0  0  0  3  0  0  0  0  0  0
  189.6440  177.3420  147.2810 C   0  0  0  0  0  0  0  0  0  0  0  0
  189.0760  177.7000  141.2210 C   0  0  0  0  0  0  0  0  0  0  0  0
  189.9850  177.7800  140.0420 C   0  0  0  0  0  1  0  0  0  0  0  0
  187.5240  178.1400  143.5650 C   0  0  0  0  0  2  0  0  0  0  0  0
  187.6130  178.1180  148.0230 C   0  0  0  0  0  3  0  0  0  0  0  0
  190.7430  176.5500  144.8660 C   0  0  0  0  0  0  0  0  0  0  0  0
  191.5030  176.4740  146.0470 C   0  0  0  0  0  3  0  0  0  0  0  0
  187.7340  178.3740  141.1000 C   0  0  0  0  0  2  0  0  0  0  0  0
  187.5210  177.8900  146.5020 C   0  0  0  0  0  3  0  0  0  0  0  0
  186.7810  178.0360  142.2470 C   0  0  2  0  0  3  0  0  0  0  0  0
  189.5170  177.1740  142.3810 C   0  0  0  0  0  0  0  0  0  0  0  0
  185.6010  178.9930  142.2520 C   0  0  0  0  0  2  0  0  0  0  0  0
  182.3270  179.8690  139.0950 O   0  0  0  0  0  1  0  0  0  0  0  0
  183.5570  179.2610  138.8540 C   0  0  1  0  0  3  0  0  0  0  0  0
  184.5530  180.1320  139.0990 N   0  0  0  0  0  2  0  0  0  0  0  0
  184.5090  178.4920  141.3680 C   0  0  0  0  0  0  0  0  0  0  0  0
  184.2710  179.1140  140.1110 N   0  0  0  0  0  0  0  0  0  0  0  0
  183.8160  177.5040  141.7220 O   0  0  0  0  0  0  0  0  0  0  0  0
  1  4  1  0  0  0  0
  2 11  1  1  0  0  0
  2  1  1  0  0  0  0
  3 13  1  0  0  0  0
  4 16  1  0  0  0  0
  4  8  2  0  0  0  0
  6  3  1  0  0  0  0
  7  8  1  0  0  0  0
  8  5  1  0  0  0  0
  9 18  2  0  0  0  0
 10  9  1  0  0  0  0
 12  5  1  0  0  0  0
 13  1  2  0  0  0  0
 13 14  1  0  0  0  0
 14  7  2  0  0  0  0
 15  9  1  0  0  0  0
 15 17  1  0  0  0  0
 16 12  2  0  0  0  0
 17 19  1  1  0  0  0
 17 11  1  0  0  0  0
 18  6  1  0  0  0  0
 18  2  1  0  0  0  0
 21 20  1  1  0  0  0
 21 22  1  0  0  0  0
 21 24  1  0  0  0  0
 22 24  1  0  0  0  0
 23 25  2  0  0  0  0
 23 19  1  0  0  0  0
 24 23  1  0  0  0  0
M  END
>  <MODEL>
6

>  <REMARK>
 VINA RESULT:      -9.6      2.661      6.467
  Name = 
  2 active torsions:
  status: ('A' for Active; 'I' for Inactive)
    1  A    between atoms: C_6  and  C_15
    2  A    between atoms: C_6  and  C_23
                            x       y       z     vdW  Elec       q    Type
                         _______ _______ _______ _____ _____    ______ ____

>  <TORSDO>
F 2

$$$$
=
 OpenBabel11052412403D

 25 29  0  0  1  0  0  0  0  0999 V2000
  189.4090  177.9430  142.6570 C   0  0  0  0  0  0  0  0  0  0  0  0
  189.3680  178.0810  144.1710 C   0  0  1  0  0  3  0  0  0  0  0  0
  191.9080  177.6440  142.8260 C   0  0  0  0  0  2  0  0  0  0  0  0
  188.2880  178.1500  141.8240 C   0  0  0  0  0  0  0  0  0  0  0  0
  187.1800  178.2920  139.8450 O   0  0  0  0  0  0  0  0  0  0  0  0
  191.6680  177.0540  144.1000 O   0  0  0  0  0  0  0  0  0  0  0  0
  189.5940  177.7910  139.8250 C   0  0  0  0  0  3  0  0  0  0  0  0
  188.3880  178.0620  140.4630 C   0  0  0  0  0  0  0  0  0  0  0  0
  190.3940  176.8420  146.0900 C   0  0  0  0  0  0  0  0  0  0  0  0
  191.5210  176.0870  146.7070 C   0  0  0  0  0  1  0  0  0  0  0  0
  188.0190  177.7090  144.7850 C   0  0  0  0  0  2  0  0  0  0  0  0
  186.1750  178.5670  140.8170 C   0  0  0  0  0  3  0  0  0  0  0  0
  190.6510  177.7030  142.0190 C   0  0  0  0  0  0  0  0  0  0  0  0
  190.7370  177.6230  140.6180 C   0  0  0  0  0  3  0  0  0  0  0  0
  189.1090  176.9180  146.8730 C   0  0  0  0  0  2  0  0  0  0  0  0
  186.8840  178.5040  142.1840 C   0  0  0  0  0  3  0  0  0  0  0  0
  188.1000  177.9060  146.2870 C   0  0  2  0  0  3  0  0  0  0  0  0
  190.4950  177.2960  144.8250 C   0  0  0  0  0  0  0  0  0  0  0  0
  186.7280  177.6870  146.9030 C   0  0  0  0  0  2  0  0  0  0  0  0
  184.3960  180.2790  143.8530 O   0  0  0  0  0  1  0  0  0  0  0  0
  183.8440  179.3500  144.7340 C   0  0  1  0  0  3  0  0  0  0  0  0
  184.2770  178.1140  144.4240 N   0  0  0  0  0  2  0  0  0  0  0  0
  185.8350  178.8500  146.6310 C   0  0  0  0  0  0  0  0  0  0  0  0
  184.8980  178.7920  145.5620 N   0  0  0  0  0  0  0  0  0  0  0  0
  185.8910  179.8720  147.3620 O   0  0  0  0  0  0  0  0  0  0  0  0
  1  2  1  0  0  0  0
  2 11  1  1  0  0  0
  2 18  1  0  0  0  0
  3  6  1  0  0  0  0
  4 16  1  0  0  0  0
  4  1  2  0  0  0  0
  5  8  1  0  0  0  0
  5 12  1  0  0  0  0
  6 18  1  0  0  0  0
  7  8  2  0  0  0  0
  7 14  1  0  0  0  0
  8  4  1  0  0  0  0
  9 10  1  0  0  0  0
  9 15  1  0  0  0  0
 11 17  1  0  0  0  0
 12 16  2  0  0  0  0
 13  1  1  0  0  0  0
 13  3  1  0  0  0  0
 14 13  2  0  0  0  0
 17 15  1  0  0  0  0
 17 19  1  1  0  0  0
 18  9  2  0  0  0  0
 21 20  1  6  0  0  0
 21 24  1  0  0  0  0
 22 21  1  0  0  0  0
 22 24  1  0  0  0  0
 23 19  1  0  0  0  0
 23 25  2  0  0  0  0
 24 23  1  0  0  0  0
M  END
>  <MODEL>
7

>  <REMARK>
 VINA RESULT:      -9.6      2.615      5.565
  Name = 
  2 active torsions:
  status: ('A' for Active; 'I' for Inactive)
    1  A    between atoms: C_6  and  C_15
    2  A    between atoms: C_6  and  C_23
                            x       y       z     vdW  Elec       q    Type
                         _______ _______ _______ _____ _____    ______ ____

>  <TORSDO>
F 2

$$$$
=
 OpenBabel11052412403D

 25 29  0  0  1  0  0  0  0  0999 V2000
  186.5780  177.8990  144.4040 C   0  0  0  0  0  0  0  0  0  0  0  0
  187.7670  177.4040  143.5960 C   0  0  1  0  0  3  0  0  0  0  0  0
  187.8800  177.3750  146.5010 C   0  0  0  0  0  2  0  0  0  0  0  0
  185.3390  178.2570  143.8310 C   0  0  0  0  0  0  0  0  0  0  0  0
  183.1780  178.9600  143.8480 O   0  0  0  0  0  0  0  0  0  0  0  0
  189.0530  177.6700  145.7470 O   0  0  0  0  0  0  0  0  0  0  0  0
  184.3610  178.6960  145.9950 C   0  0  0  0  0  3  0  0  0  0  0  0
  184.2840  178.6510  144.6060 C   0  0  0  0  0  0  0  0  0  0  0  0
  190.2450  177.7500  143.6980 C   0  0  0  0  0  0  0  0  0  0  0  0
  191.5080  177.9470  144.4640 C   0  0  0  0  0  1  0  0  0  0  0  0
  187.8450  178.0000  142.1910 C   0  0  0  0  0  2  0  0  0  0  0  0
  183.4610  178.7670  142.4650 C   0  0  0  0  0  3  0  0  0  0  0  0
  186.6590  177.9050  145.8190 C   0  0  0  0  0  0  0  0  0  0  0  0
  185.5610  178.3040  146.6020 C   0  0  0  0  0  3  0  0  0  0  0  0
  190.3260  177.8720  142.1980 C   0  0  0  0  0  2  0  0  0  0  0  0
  184.9170  178.2660  142.4000 C   0  0  0  0  0  3  0  0  0  0  0  0
  189.0530  177.4160  141.4840 C   0  0  2  0  0  3  0  0  0  0  0  0
  189.0720  177.6200  144.3480 C   0  0  0  0  0  0  0  0  0  0  0  0
  189.0670  177.8770  140.0360 C   0  0  0  0  0  2  0  0  0  0  0  0
  187.6170  174.4990  137.2180 O   0  0  0  0  0  1  0  0  0  0  0  0
  188.1860  175.7090  136.8240 C   0  0  1  0  0  3  0  0  0  0  0  0
  187.3800  176.7270  137.1780 N   0  0  0  0  0  2  0  0  0  0  0  0
  189.3940  176.7440  139.1230 C   0  0  0  0  0  0  0  0  0  0  0  0
  188.5580  176.4670  138.0050 N   0  0  0  0  0  0  0  0  0  0  0  0
  190.4220  176.0480  139.3260 O   0  0  0  0  0  0  0  0  0  0  0  0
  1 13  1  0  0  0  0
  2 11  1  6  0  0  0
  2 18  1  0  0  0  0
  2  1  1  0  0  0  0
  4  1  2  0  0  0  0
  4  8  1  0  0  0  0
  5  8  1  0  0  0  0
  6  3  1  0  0  0  0
  7 14  1  0  0  0  0
  8  7  2  0  0  0  0
  9 18  2  0  0  0  0
  9 10  1  0  0  0  0
 12  5  1  0  0  0  0
 13  3  1  0  0  0  0
 13 14  2  0  0  0  0
 15  9  1  0  0  0  0
 16 12  2  0  0  0  0
 16  4  1  0  0  0  0
 17 19  1  6  0  0  0
 17 11  1  0  0  0  0
 17 15  1  0  0  0  0
 18  6  1  0  0  0  0
 21 22  1  0  0  0  0
 21 20  1  1  0  0  0
 21 24  1  0  0  0  0
 22 24  1  0  0  0  0
 23 25  2  0  0  0  0
 23 19  1  0  0  0  0
 24 23  1  0  0  0  0
M  END
>  <MODEL>
8

>  <REMARK>
 VINA RESULT:      -9.6      2.161      3.199
  Name = 
  2 active torsions:
  status: ('A' for Active; 'I' for Inactive)
    1  A    between atoms: C_6  and  C_15
    2  A    between atoms: C_6  and  C_23
                            x       y       z     vdW  Elec       q    Type
                         _______ _______ _______ _____ _____    ______ ____

>  <TORSDO>
F 2

$$$$
=
 OpenBabel11052412403D

 25 29  0  0  1  0  0  0  0  0999 V2000
  187.1820  178.1540  145.3450 C   0  0  0  0  0  0  0  0  0  0  0  0
  186.2540  178.7750  144.3130 C   0  0  1  0  0  3  0  0  0  0  0  0
  185.5180  178.8050  147.1260 C   0  0  0  0  0  2  0  0  0  0  0  0
  188.4720  177.6690  145.0410 C   0  0  0  0  0  0  0  0  0  0  0  0
  190.4950  176.7410  145.5030 O   0  0  0  0  0  0  0  0  0  0  0  0
  184.5130  178.6390  146.1310 O   0  0  0  0  0  0  0  0  0  0  0  0
  188.9090  177.1220  147.3530 C   0  0  0  0  0  3  0  0  0  0  0  0
  189.2890  177.1630  146.0140 C   0  0  0  0  0  0  0  0  0  0  0  0
  183.7900  178.6930  143.8720 C   0  0  0  0  0  0  0  0  0  0  0  0
  182.3780  178.6280  144.3440 C   0  0  0  0  0  1  0  0  0  0  0  0
  186.4210  178.1960  142.9090 C   0  0  0  0  0  2  0  0  0  0  0  0
  190.5390  176.9680  144.0980 C   0  0  0  0  0  3  0  0  0  0  0  0
  186.7970  178.1520  146.7080 C   0  0  0  0  0  0  0  0  0  0  0  0
  187.6520  177.6350  147.6970 C   0  0  0  0  0  3  0  0  0  0  0  0
  184.0230  178.5860  142.3870 C   0  0  0  0  0  2  0  0  0  0  0  0
  189.1910  177.6200  143.7350 C   0  0  0  0  0  3  0  0  0  0  0  0
  185.4600  178.9070  141.9740 C   0  0  2  0  0  3  0  0  0  0  0  0
  184.8020  178.6960  144.7620 C   0  0  0  0  0  0  0  0  0  0  0  0
  185.7130  178.4550  140.5460 C   0  0  0  0  0  2  0  0  0  0  0  0
  182.7680  177.5570  137.0860 O   0  0  0  0  0  1  0  0  0  0  0  0
  182.4430  177.6440  138.4380 C   0  0  1  0  0  3  0  0  0  0  0  0
  183.0550  176.6570  139.1180 N   0  0  0  0  0  2  0  0  0  0  0  0
  184.6200  178.9190  139.6430 C   0  0  0  0  0  0  0  0  0  0  0  0
  183.6320  177.9990  139.1920 N   0  0  0  0  0  0  0  0  0  0  0  0
  184.5550  180.1280  139.3020 O   0  0  0  0  0  0  0  0  0  0  0  0
  1 13  1  0  0  0  0
  2 11  1  6  0  0  0
  2 18  1  0  0  0  0
  2  1  1  0  0  0  0
  4  1  2  0  0  0  0
  4  8  1  0  0  0  0
  5  8  1  0  0  0  0
  6  3  1  0  0  0  0
  7 14  1  0  0  0  0
  8  7  2  0  0  0  0
  9 10  1  0  0  0  0
  9 18  2  0  0  0  0
 12  5  1  0  0  0  0
 13  3  1  0  0  0  0
 13 14  2  0  0  0  0
 15  9  1  0  0  0  0
 16 12  2  0  0  0  0
 16  4  1  0  0  0  0
 17 19  1  6  0  0  0
 17 15  1  0  0  0  0
 17 11  1  0  0  0  0
 18  6  1  0  0  0  0
 21 20  1  6  0  0  0
 21 22  1  0  0  0  0
 21 24  1  0  0  0  0
 22 24  1  0  0  0  0
 23 19  1  0  0  0  0
 24 23  1  0  0  0  0
 25 23  2  0  0  0  0
M  END
>  <MODEL>
9

>  <REMARK>
 VINA RESULT:      -9.5      2.857      5.814
  Name = 
  2 active torsions:
  status: ('A' for Active; 'I' for Inactive)
    1  A    between atoms: C_6  and  C_15
    2  A    between atoms: C_6  and  C_23
                            x       y       z     vdW  Elec       q    Type
                         _______ _______ _______ _____ _____    ______ ____

>  <TORSDO>
F 2

$$$$
