=
 OpenBabel11052412513D

 25 28  0  0  1  0  0  0  0  0999 V2000
  186.8590  177.7800  145.5170 N   0  0  0  0  0  0  0  0  0  0  0  0
  188.2480  177.5350  145.1510 C   0  0  2  0  0  3  0  0  0  0  0  0
  187.5360  177.9520  147.8520 C   0  0  0  0  0  2  0  0  0  0  0  0
  185.8010  178.1610  144.7890 C   0  0  0  0  0  0  0  0  0  0  0  0
  189.8700  176.4140  143.5400 C   0  0  2  0  0  3  0  0  0  0  0  0
  183.4160  179.1300  143.7830 C   0  0  0  0  0  3  0  0  0  0  0  0
  188.3600  176.8320  147.5940 O   0  0  0  0  0  0  0  0  0  0  0  0
  184.8280  178.6060  145.6430 C   0  0  0  0  0  0  0  0  0  0  0  0
  183.6140  179.1040  145.1770 C   0  0  0  0  0  3  0  0  0  0  0  0
  190.4380  177.5720  146.4350 C   0  0  1  0  0  3  0  0  0  0  0  0
  191.1300  177.1850  147.7310 C   0  0  0  0  0  1  0  0  0  0  0  0
  188.3980  176.6830  143.8920 C   0  0  0  0  0  2  0  0  0  0  0  0
  184.4280  178.6820  142.9030 C   0  0  0  0  0  3  0  0  0  0  0  0
  186.5090  178.0510  146.7820 C   0  0  0  0  0  0  0  0  0  0  0  0
  185.2590  178.5650  146.9210 N   0  0  0  0  0  0  0  0  0  0  0  0
  191.3170  177.1070  145.2690 C   0  0  0  0  0  2  0  0  0  0  0  0
  185.6490  178.1950  143.4040 C   0  0  0  0  0  3  0  0  0  0  0  0
  190.7550  177.4940  143.9770 N   0  0  0  0  0  2  0  0  0  0  0  0
  189.0460  176.9380  146.3410 C   0  0  2  0  0  3  0  0  0  0  0  0
  190.0430  176.1280  142.0500 C   0  0  0  0  0  2  0  0  0  0  0  0
  188.8790  177.7060  140.5160 C   0  0  0  0  0  1  0  0  0  0  0  0
  190.1920  177.3940  141.2060 C   0  0  2  0  0  3  0  0  0  0  0  0
  191.2920  177.2650  140.1970 C   0  0  0  0  0  0  0  0  0  0  0  0
  192.4280  177.5890  140.5020 O   0  0  0  0  0  0  0  0  0  0  0  0
  191.0220  176.7520  138.8190 C   0  0  0  0  0  1  0  0  0  0  0  0
  1 14  1  0  0  0  0
  2 12  1  6  0  0  0
  2  1  1  0  0  0  0
  2 19  1  0  0  0  0
  4  1  1  0  0  0  0
  4  8  1  0  0  0  0
  5 20  1  6  0  0  0
  5 12  1  0  0  0  0
  5 18  1  0  0  0  0
  6  9  1  0  0  0  0
  7  3  1  0  0  0  0
  8 15  1  0  0  0  0
  9  8  2  0  0  0  0
 10 11  1  1  0  0  0
 13 17  1  0  0  0  0
 13  6  2  0  0  0  0
 14 15  2  0  0  0  0
 14  3  1  0  0  0  0
 16 10  1  0  0  0  0
 17  4  2  0  0  0  0
 18 16  1  0  0  0  0
 19 10  1  0  0  0  0
 19  7  1  1  0  0  0
 22 21  1  6  0  0  0
 22 20  1  0  0  0  0
 23 24  2  0  0  0  0
 23 22  1  0  0  0  0
 25 23  1  0  0  0  0
M  END
>  <MODEL>
1

>  <REMARK>
 VINA RESULT:      -9.7      0.000      0.000
  Name = 
  3 active torsions:
  status: ('A' for Active; 'I' for Inactive)
    1  A    between atoms: C_2  and  C_25
    2  A    between atoms: C_6  and  C_15
    3  A    between atoms: C_15  and  C_25
                            x       y       z     vdW  Elec       q    Type
                         _______ _______ _______ _____ _____    ______ ____

>  <TORSDO>
F 3

$$$$
=
 OpenBabel11052412513D

 25 28  0  0  1  0  0  0  0  0999 V2000
  185.7940  178.0420  144.8070 N   0  0  0  0  0  0  0  0  0  0  0  0
  187.2350  177.8430  144.7340 C   0  0  2  0  0  3  0  0  0  0  0  0
  186.0060  178.4900  147.1930 C   0  0  0  0  0  2  0  0  0  0  0  0
  184.8800  178.2850  143.8580 C   0  0  0  0  0  0  0  0  0  0  0  0
  189.1760  176.6620  143.5860 C   0  0  2  0  0  3  0  0  0  0  0  0
  182.6940  179.0050  142.3280 C   0  0  0  0  0  3  0  0  0  0  0  0
  186.9070  177.3990  147.2180 O   0  0  0  0  0  0  0  0  0  0  0  0
  183.7450  178.7560  144.4630 C   0  0  0  0  0  0  0  0  0  0  0  0
  182.6240  179.1320  143.7280 C   0  0  0  0  0  3  0  0  0  0  0  0
  189.1380  178.1390  146.3900 C   0  0  1  0  0  3  0  0  0  0  0  0
  189.5850  177.9270  147.8260 C   0  0  0  0  0  1  0  0  0  0  0  0
  187.6550  176.8780  143.6270 C   0  0  0  0  0  2  0  0  0  0  0  0
  183.8720  178.5300  141.7050 C   0  0  0  0  0  3  0  0  0  0  0  0
  185.1980  178.4190  145.9480 C   0  0  0  0  0  0  0  0  0  0  0  0
  183.9270  178.8710  145.7950 N   0  0  0  0  0  0  0  0  0  0  0  0
  190.2390  177.6100  145.4650 C   0  0  0  0  0  2  0  0  0  0  0  0
  184.9930  178.1690  142.4740 C   0  0  0  0  0  3  0  0  0  0  0  0
  189.9200  177.8310  144.0570 N   0  0  0  0  0  2  0  0  0  0  0  0
  187.8140  177.4180  146.1100 C   0  0  2  0  0  3  0  0  0  0  0  0
  189.6400  176.2360  142.1940 C   0  0  0  0  0  2  0  0  0  0  0  0
  188.6560  177.7020  140.4390 C   0  0  0  0  0  1  0  0  0  0  0  0
  189.8990  177.4170  141.2580 C   0  0  2  0  0  3  0  0  0  0  0  0
  191.0700  177.1670  140.3560 C   0  0  0  0  0  0  0  0  0  0  0  0
  192.1710  177.5860  140.6730 O   0  0  0  0  0  0  0  0  0  0  0  0
  190.9120  176.4190  139.0730 C   0  0  0  0  0  1  0  0  0  0  0  0
  1 14  1  0  0  0  0
  2 12  1  6  0  0  0
  2  1  1  0  0  0  0
  2 19  1  0  0  0  0
  3  7  1  0  0  0  0
  4  8  1  0  0  0  0
  4  1  1  0  0  0  0
  5 20  1  6  0  0  0
  5 12  1  0  0  0  0
  5 18  1  0  0  0  0
  6  9  1  0  0  0  0
  8 15  1  0  0  0  0
  9  8  2  0  0  0  0
 10 11  1  1  0  0  0
 13  6  2  0  0  0  0
 13 17  1  0  0  0  0
 14  3  1  0  0  0  0
 15 14  2  0  0  0  0
 16 10  1  0  0  0  0
 17  4  2  0  0  0  0
 18 16  1  0  0  0  0
 19 10  1  0  0  0  0
 19  7  1  1  0  0  0
 22 21  1  6  0  0  0
 22 20  1  0  0  0  0
 23 24  2  0  0  0  0
 23 22  1  0  0  0  0
 25 23  1  0  0  0  0
M  END
>  <MODEL>
2

>  <REMARK>
 VINA RESULT:      -9.2      1.032      1.239
  Name = 
  3 active torsions:
  status: ('A' for Active; 'I' for Inactive)
    1  A    between atoms: C_2  and  C_25
    2  A    between atoms: C_6  and  C_15
    3  A    between atoms: C_15  and  C_25
                            x       y       z     vdW  Elec       q    Type
                         _______ _______ _______ _____ _____    ______ ____

>  <TORSDO>
F 3

$$$$
=
 OpenBabel11052412513D

 25 28  0  0  1  0  0  0  0  0999 V2000
  188.8260  177.2390  144.5260 N   0  0  0  0  0  0  0  0  0  0  0  0
  188.4890  177.7300  143.1970 C   0  0  2  0  0  3  0  0  0  0  0  0
  190.8930  176.3120  143.6270 C   0  0  0  0  0  2  0  0  0  0  0  0
  188.3650  177.5680  145.7400 C   0  0  0  0  0  0  0  0  0  0  0  0
  186.6520  178.3240  141.5370 C   0  0  2  0  0  3  0  0  0  0  0  0
  187.9090  178.0430  148.4240 C   0  0  0  0  0  3  0  0  0  0  0  0
  190.1100  175.8850  142.5300 O   0  0  0  0  0  0  0  0  0  0  0  0
  189.2470  177.1010  146.6780 C   0  0  0  0  0  0  0  0  0  0  0  0
  189.0550  177.3210  148.0390 C   0  0  0  0  0  3  0  0  0  0  0  0
  189.7280  177.8000  140.9810 C   0  0  1  0  0  3  0  0  0  0  0  0
  190.6250  177.0270  140.0300 C   0  0  0  0  0  1  0  0  0  0  0  0
  186.9850  177.8290  142.9550 C   0  0  0  0  0  2  0  0  0  0  0  0
  187.0070  178.5350  147.4530 C   0  0  0  0  0  3  0  0  0  0  0  0
  189.9940  176.6260  144.7680 C   0  0  0  0  0  0  0  0  0  0  0  0
  190.3060  176.5120  146.0850 N   0  0  0  0  0  0  0  0  0  0  0  0
  188.5710  178.3910  140.1680 C   0  0  0  0  0  2  0  0  0  0  0  0
  187.2330  178.3070  146.0830 C   0  0  0  0  0  3  0  0  0  0  0  0
  187.6860  179.2070  140.9960 N   0  0  0  0  0  2  0  0  0  0  0  0
  189.1900  176.8920  142.0940 C   0  0  2  0  0  3  0  0  0  0  0  0
  185.2770  178.9880  141.4880 C   0  0  0  0  0  2  0  0  0  0  0  0
  183.2940  177.6710  140.7590 C   0  0  0  0  0  1  0  0  0  0  0  0
  184.1460  178.0680  141.9490 C   0  0  2  0  0  3  0  0  0  0  0  0
  183.2990  178.7120  143.0040 C   0  0  0  0  0  0  0  0  0  0  0  0
  182.1500  179.0250  142.7420 O   0  0  0  0  0  0  0  0  0  0  0  0
  183.8390  178.9840  144.3710 C   0  0  0  0  0  1  0  0  0  0  0  0
  1 14  1  0  0  0  0
  1  4  1  0  0  0  0
  2 12  1  6  0  0  0
  2  1  1  0  0  0  0
  3 14  1  0  0  0  0
  4 17  2  0  0  0  0
  4  8  1  0  0  0  0
  5 20  1  1  0  0  0
  5 12  1  0  0  0  0
  7  3  1  0  0  0  0
  8  9  2  0  0  0  0
  9  6  1  0  0  0  0
 10 11  1  6  0  0  0
 10 19  1  0  0  0  0
 13  6  2  0  0  0  0
 14 15  2  0  0  0  0
 15  8  1  0  0  0  0
 16 10  1  0  0  0  0
 16 18  1  0  0  0  0
 17 13  1  0  0  0  0
 18  5  1  0  0  0  0
 19  7  1  1  0  0  0
 19  2  1  0  0  0  0
 20 22  1  0  0  0  0
 22 21  1  6  0  0  0
 22 23  1  0  0  0  0
 23 25  1  0  0  0  0
 24 23  2  0  0  0  0
M  END
>  <MODEL>
3

>  <REMARK>
 VINA RESULT:      -9.0      2.384      5.767
  Name = 
  3 active torsions:
  status: ('A' for Active; 'I' for Inactive)
    1  A    between atoms: C_2  and  C_25
    2  A    between atoms: C_6  and  C_15
    3  A    between atoms: C_15  and  C_25
                            x       y       z     vdW  Elec       q    Type
                         _______ _______ _______ _____ _____    ______ ____

>  <TORSDO>
F 3

$$$$
=
 OpenBabel11052412513D

 25 28  0  0  1  0  0  0  0  0999 V2000
  187.0180  177.8030  144.9510 N   0  0  0  0  0  0  0  0  0  0  0  0
  188.2960  177.6750  144.2650 C   0  0  2  0  0  3  0  0  0  0  0  0
  188.1870  177.6960  147.0870 C   0  0  0  0  0  2  0  0  0  0  0  0
  185.8190  178.2260  144.5290 C   0  0  0  0  0  0  0  0  0  0  0  0
  189.5460  176.8580  142.2030 C   0  0  2  0  0  3  0  0  0  0  0  0
  183.2550  179.2040  144.2040 C   0  0  0  0  0  3  0  0  0  0  0  0
  188.9540  176.6600  146.5040 O   0  0  0  0  0  0  0  0  0  0  0  0
  185.0490  178.5070  145.6260 C   0  0  0  0  0  0  0  0  0  0  0  0
  183.7540  179.0030  145.5050 C   0  0  0  0  0  3  0  0  0  0  0  0
  190.7140  177.6470  145.0420 C   0  0  1  0  0  3  0  0  0  0  0  0
  191.6810  177.1250  146.0910 C   0  0  0  0  0  1  0  0  0  0  0  0
  188.1820  177.0070  142.8970 C   0  0  0  0  0  2  0  0  0  0  0  0
  184.0570  178.9270  143.0730 C   0  0  0  0  0  3  0  0  0  0  0  0
  186.9480  177.8870  146.2880 C   0  0  0  0  0  0  0  0  0  0  0  0
  185.7510  178.3170  146.7620 N   0  0  0  0  0  0  0  0  0  0  0  0
  191.3240  177.3830  143.6610 C   0  0  0  0  0  2  0  0  0  0  0  0
  185.3670  178.4360  143.2270 C   0  0  0  0  0  3  0  0  0  0  0  0
  190.4860  177.9120  142.5870 N   0  0  0  0  0  2  0  0  0  0  0  0
  189.3460  176.9650  145.1610 C   0  0  2  0  0  3  0  0  0  0  0  0
  189.3920  176.7810  140.6850 C   0  0  0  0  0  2  0  0  0  0  0  0
  187.4590  178.2530  140.1420 C   0  0  0  0  0  1  0  0  0  0  0  0
  188.9660  178.1070  140.0550 C   0  0  2  0  0  3  0  0  0  0  0  0
  189.4170  178.2160  138.6290 C   0  0  0  0  0  0  0  0  0  0  0  0
  189.0550  179.1670  137.9560 O   0  0  0  0  0  0  0  0  0  0  0  0
  190.2970  177.1760  138.0140 C   0  0  0  0  0  1  0  0  0  0  0  0
  1 14  1  0  0  0  0
  2 12  1  6  0  0  0
  2  1  1  0  0  0  0
  2 19  1  0  0  0  0
  4  1  1  0  0  0  0
  4  8  1  0  0  0  0
  5 20  1  6  0  0  0
  5 18  1  0  0  0  0
  5 12  1  0  0  0  0
  6  9  1  0  0  0  0
  7  3  1  0  0  0  0
  8 15  1  0  0  0  0
  9  8  2  0  0  0  0
 10 19  1  0  0  0  0
 10 11  1  1  0  0  0
 13 17  1  0  0  0  0
 13  6  2  0  0  0  0
 14 15  2  0  0  0  0
 14  3  1  0  0  0  0
 16 10  1  0  0  0  0
 17  4  2  0  0  0  0
 18 16  1  0  0  0  0
 19  7  1  1  0  0  0
 22 21  1  6  0  0  0
 22 20  1  0  0  0  0
 23 22  1  0  0  0  0
 24 23  2  0  0  0  0
 25 23  1  0  0  0  0
M  END
>  <MODEL>
4

>  <REMARK>
 VINA RESULT:      -8.9      1.359      1.512
  Name = 
  3 active torsions:
  status: ('A' for Active; 'I' for Inactive)
    1  A    between atoms: C_2  and  C_25
    2  A    between atoms: C_6  and  C_15
    3  A    between atoms: C_15  and  C_25
                            x       y       z     vdW  Elec       q    Type
                         _______ _______ _______ _____ _____    ______ ____

>  <TORSDO>
F 3

$$$$
=
 OpenBabel11052412513D

 25 28  0  0  1  0  0  0  0  0999 V2000
  187.0500  177.7430  144.9000 N   0  0  0  0  0  0  0  0  0  0  0  0
  188.3430  177.5540  144.2550 C   0  0  2  0  0  3  0  0  0  0  0  0
  188.1710  177.7910  147.0640 C   0  0  0  0  0  2  0  0  0  0  0  0
  185.8650  178.1420  144.4190 C   0  0  0  0  0  0  0  0  0  0  0  0
  189.6300  176.5730  142.2900 C   0  0  2  0  0  3  0  0  0  0  0  0
  183.3180  179.1110  143.9630 C   0  0  0  0  0  3  0  0  0  0  0  0
  188.9420  176.7080  146.5790 O   0  0  0  0  0  0  0  0  0  0  0  0
  185.0740  178.5110  145.4740 C   0  0  0  0  0  0  0  0  0  0  0  0
  183.7860  179.0060  145.2870 C   0  0  0  0  0  3  0  0  0  0  0  0
  190.7430  177.5670  145.0860 C   0  0  1  0  0  3  0  0  0  0  0  0
  191.6800  177.1200  146.1940 C   0  0  0  0  0  1  0  0  0  0  0  0
  188.2530  176.7840  142.9400 C   0  0  0  0  0  2  0  0  0  0  0  0
  184.1420  178.7420  142.8750 C   0  0  0  0  0  3  0  0  0  0  0  0
  186.9520  177.9290  146.2240 C   0  0  0  0  0  0  0  0  0  0  0  0
  185.7490  178.4030  146.6380 N   0  0  0  0  0  0  0  0  0  0  0  0
  191.3800  177.1950  143.7440 C   0  0  0  0  0  2  0  0  0  0  0  0
  185.4440  178.2560  143.0950 C   0  0  0  0  0  3  0  0  0  0  0  0
  190.5710  177.6460  142.6140 N   0  0  0  0  0  2  0  0  0  0  0  0
  189.3660  176.9060  145.2260 C   0  0  2  0  0  3  0  0  0  0  0  0
  189.5100  176.3810  140.7790 C   0  0  0  0  0  2  0  0  0  0  0  0
  189.2250  178.3460  139.2770 C   0  0  0  0  0  1  0  0  0  0  0  0
  190.2370  177.4590  139.9760 C   0  0  2  0  0  3  0  0  0  0  0  0
  191.1850  176.8650  138.9780 C   0  0  0  0  0  0  0  0  0  0  0  0
  192.3810  176.8510  139.2200 O   0  0  0  0  0  0  0  0  0  0  0  0
  190.6930  176.2950  137.6870 C   0  0  0  0  0  1  0  0  0  0  0  0
  1 14  1  0  0  0  0
  2 12  1  6  0  0  0
  2  1  1  0  0  0  0
  2 19  1  0  0  0  0
  4  1  1  0  0  0  0
  4  8  1  0  0  0  0
  5 20  1  6  0  0  0
  5 18  1  0  0  0  0
  5 12  1  0  0  0  0
  6  9  1  0  0  0  0
  7  3  1  0  0  0  0
  8 15  1  0  0  0  0
  9  8  2  0  0  0  0
 10 19  1  0  0  0  0
 10 11  1  1  0  0  0
 13 17  1  0  0  0  0
 13  6  2  0  0  0  0
 14 15  2  0  0  0  0
 14  3  1  0  0  0  0
 16 10  1  0  0  0  0
 17  4  2  0  0  0  0
 18 16  1  0  0  0  0
 19  7  1  1  0  0  0
 22 21  1  6  0  0  0
 22 20  1  0  0  0  0
 23 24  2  0  0  0  0
 23 22  1  0  0  0  0
 25 23  1  0  0  0  0
M  END
>  <MODEL>
5

>  <REMARK>
 VINA RESULT:      -8.8      0.968      1.074
  Name = 
  3 active torsions:
  status: ('A' for Active; 'I' for Inactive)
    1  A    between atoms: C_2  and  C_25
    2  A    between atoms: C_6  and  C_15
    3  A    between atoms: C_15  and  C_25
                            x       y       z     vdW  Elec       q    Type
                         _______ _______ _______ _____ _____    ______ ____

>  <TORSDO>
F 3

$$$$
=
 OpenBabel11052412513D

 25 28  0  0  1  0  0  0  0  0999 V2000
  186.6310  178.4190  141.3210 N   0  0  0  0  0  0  0  0  0  0  0  0
  187.9390  177.8490  141.0250 C   0  0  2  0  0  3  0  0  0  0  0  0
  186.1220  178.4120  138.9370 C   0  0  0  0  0  2  0  0  0  0  0  0
  185.9250  178.4840  142.4570 C   0  0  0  0  0  0  0  0  0  0  0  0
  190.3850  177.6400  141.7020 C   0  0  2  0  0  3  0  0  0  0  0  0
  184.0240  178.6670  144.4550 C   0  0  0  0  0  3  0  0  0  0  0  0
  187.4440  178.8840  138.7530 O   0  0  0  0  0  0  0  0  0  0  0  0
  184.6250  178.7760  142.1410 C   0  0  0  0  0  0  0  0  0  0  0  0
  183.6380  178.8750  143.1170 C   0  0  0  0  0  3  0  0  0  0  0  0
  189.0400  176.9770  138.9090 C   0  0  1  0  0  3  0  0  0  0  0  0
  189.2550  177.2180  137.4250 C   0  0  0  0  0  1  0  0  0  0  0  0
  189.0070  178.2290  142.0480 C   0  0  0  0  0  2  0  0  0  0  0  0
  185.3640  178.3520  144.7770 C   0  0  0  0  0  3  0  0  0  0  0  0
  185.7270  178.6280  140.3540 C   0  0  0  0  0  0  0  0  0  0  0  0
  184.4660  178.8550  140.8030 N   0  0  0  0  0  0  0  0  0  0  0  0
  190.4030  176.6840  139.5460 C   0  0  0  0  0  2  0  0  0  0  0  0
  186.3390  178.2470  143.7670 C   0  0  0  0  0  3  0  0  0  0  0  0
  190.2840  176.3780  140.9690 N   0  0  0  0  0  2  0  0  0  0  0  0
  188.3870  178.1920  139.5790 C   0  0  2  0  0  3  0  0  0  0  0  0
  191.2540  177.4880  142.9490 C   0  0  0  0  0  2  0  0  0  0  0  0
  191.6810  179.5040  144.3450 C   0  0  0  0  0  1  0  0  0  0  0  0
  190.7600  178.3190  144.1330 C   0  0  2  0  0  3  0  0  0  0  0  0
  190.6660  177.5020  145.3860 C   0  0  0  0  0  0  0  0  0  0  0  0
  191.6880  177.1290  145.9370 O   0  0  0  0  0  0  0  0  0  0  0  0
  189.3420  177.1290  145.9690 C   0  0  0  0  0  1  0  0  0  0  0  0
  1  4  1  0  0  0  0
  2  1  1  0  0  0  0
  2 12  1  1  0  0  0
  3 14  1  0  0  0  0
  4 17  1  0  0  0  0
  5 12  1  0  0  0  0
  5 20  1  1  0  0  0
  6 13  1  0  0  0  0
  7  3  1  0  0  0  0
  8  4  2  0  0  0  0
  8  9  1  0  0  0  0
  9  6  2  0  0  0  0
 10 11  1  6  0  0  0
 10 16  1  0  0  0  0
 10 19  1  0  0  0  0
 14 15  2  0  0  0  0
 14  1  1  0  0  0  0
 15  8  1  0  0  0  0
 16 18  1  0  0  0  0
 17 13  2  0  0  0  0
 18  5  1  0  0  0  0
 19  7  1  6  0  0  0
 19  2  1  0  0  0  0
 20 22  1  0  0  0  0
 22 21  1  1  0  0  0
 22 23  1  0  0  0  0
 23 24  2  0  0  0  0
 23 25  1  0  0  0  0
M  END
>  <MODEL>
6

>  <REMARK>
 VINA RESULT:      -8.6      2.472      5.412
  Name = 
  3 active torsions:
  status: ('A' for Active; 'I' for Inactive)
    1  A    between atoms: C_2  and  C_25
    2  A    between atoms: C_6  and  C_15
    3  A    between atoms: C_15  and  C_25
                            x       y       z     vdW  Elec       q    Type
                         _______ _______ _______ _____ _____    ______ ____

>  <TORSDO>
F 3

$$$$
=
 OpenBabel11052412513D

 25 28  0  0  1  0  0  0  0  0999 V2000
  186.9290  178.4090  142.7960 N   0  0  0  0  0  0  0  0  0  0  0  0
  188.2810  177.8750  142.6920 C   0  0  2  0  0  3  0  0  0  0  0  0
  186.7370  178.3140  140.3680 C   0  0  0  0  0  2  0  0  0  0  0  0
  186.0790  178.4830  143.8280 C   0  0  0  0  0  0  0  0  0  0  0  0
  190.6220  177.7700  143.6860 C   0  0  2  0  0  3  0  0  0  0  0  0
  183.9290  178.6610  145.5550 C   0  0  0  0  0  3  0  0  0  0  0  0
  188.0560  178.8240  140.3410 O   0  0  0  0  0  0  0  0  0  0  0  0
  184.8240  178.7220  143.3360 C   0  0  0  0  0  0  0  0  0  0  0  0
  183.7140  178.8160  144.1720 C   0  0  0  0  0  3  0  0  0  0  0  0
  189.6750  176.9780  140.7670 C   0  0  1  0  0  3  0  0  0  0  0  0
  190.0740  177.1830  139.3160 C   0  0  0  0  0  1  0  0  0  0  0  0
  189.1940  178.3220  143.8310 C   0  0  0  0  0  2  0  0  0  0  0  0
  185.2240  178.4010  146.0590 C   0  0  0  0  0  3  0  0  0  0  0  0
  186.1530  178.5580  141.7130 C   0  0  0  0  0  0  0  0  0  0  0  0
  184.8380  178.7560  141.9870 N   0  0  0  0  0  0  0  0  0  0  0  0
  190.9510  176.7520  141.5850 C   0  0  0  0  0  2  0  0  0  0  0  0
  186.3250  178.3000  145.1880 C   0  0  0  0  0  3  0  0  0  0  0  0
  190.6560  176.4830  142.9900 N   0  0  0  0  0  2  0  0  0  0  0  0
  188.9040  178.1900  141.3050 C   0  0  2  0  0  3  0  0  0  0  0  0
  191.3250  177.6840  145.0400 C   0  0  0  0  0  2  0  0  0  0  0  0
  189.9920  177.1220  147.0660 C   0  0  0  0  0  1  0  0  0  0  0  0
  190.8020  176.5480  145.9200 C   0  0  2  0  0  3  0  0  0  0  0  0
  191.9150  175.6930  146.4460 C   0  0  0  0  0  0  0  0  0  0  0  0
  192.4230  174.8560  145.7190 O   0  0  0  0  0  0  0  0  0  0  0  0
  192.4090  175.8430  147.8480 C   0  0  0  0  0  1  0  0  0  0  0  0
  1  4  1  0  0  0  0
  2  1  1  0  0  0  0
  2 12  1  1  0  0  0
  3 14  1  0  0  0  0
  4 17  1  0  0  0  0
  5 12  1  0  0  0  0
  5 20  1  1  0  0  0
  6 13  1  0  0  0  0
  7  3  1  0  0  0  0
  8  4  2  0  0  0  0
  8  9  1  0  0  0  0
  9  6  2  0  0  0  0
 10 11  1  6  0  0  0
 10 19  1  0  0  0  0
 10 16  1  0  0  0  0
 14 15  2  0  0  0  0
 14  1  1  0  0  0  0
 15  8  1  0  0  0  0
 16 18  1  0  0  0  0
 17 13  2  0  0  0  0
 18  5  1  0  0  0  0
 19  7  1  6  0  0  0
 19  2  1  0  0  0  0
 20 22  1  0  0  0  0
 22 23  1  0  0  0  0
 22 21  1  1  0  0  0
 23 25  1  0  0  0  0
 24 23  2  0  0  0  0
M  END
>  <MODEL>
7

>  <REMARK>
 VINA RESULT:      -8.6      2.056      4.894
  Name = 
  3 active torsions:
  status: ('A' for Active; 'I' for Inactive)
    1  A    between atoms: C_2  and  C_25
    2  A    between atoms: C_6  and  C_15
    3  A    between atoms: C_15  and  C_25
                            x       y       z     vdW  Elec       q    Type
                         _______ _______ _______ _____ _____    ______ ____

>  <TORSDO>
F 3

$$$$
=
 OpenBabel11052412513D

 25 28  0  0  1  0  0  0  0  0999 V2000
  186.8330  178.1000  141.3700 N   0  0  0  0  0  0  0  0  0  0  0  0
  186.4630  178.2400  142.7720 C   0  0  2  0  0  3  0  0  0  0  0  0
  184.6780  179.0490  140.7380 C   0  0  0  0  0  2  0  0  0  0  0  0
  188.0200  177.9250  140.7760 C   0  0  0  0  0  0  0  0  0  0  0  0
  186.7020  177.3530  145.1470 C   0  0  2  0  0  3  0  0  0  0  0  0
  190.2120  177.7870  139.0980 C   0  0  0  0  0  3  0  0  0  0  0  0
  184.1300  178.2310  141.7550 O   0  0  0  0  0  0  0  0  0  0  0  0
  187.8850  178.2230  139.4460 C   0  0  0  0  0  0  0  0  0  0  0  0
  188.9650  178.1680  138.5690 C   0  0  0  0  0  3  0  0  0  0  0  0
  184.4950  179.3030  143.9750 C   0  0  1  0  0  3  0  0  0  0  0  0
  182.9880  179.4910  143.9740 C   0  0  0  0  0  1  0  0  0  0  0  0
  187.1270  177.2040  143.6760 C   0  0  0  0  0  2  0  0  0  0  0  0
  190.3520  177.4930  140.4750 C   0  0  0  0  0  3  0  0  0  0  0  0
  186.0320  178.5430  140.3900 C   0  0  0  0  0  0  0  0  0  0  0  0
  186.6300  178.6380  139.1750 N   0  0  0  0  0  0  0  0  0  0  0  0
  184.9200  178.8800  145.3850 C   0  0  0  0  0  2  0  0  0  0  0  0
  189.2450  177.5690  141.3390 C   0  0  0  0  0  3  0  0  0  0  0  0
  186.3700  178.7350  145.4950 N   0  0  0  0  0  2  0  0  0  0  0  0
  184.9210  178.2460  142.9490 C   0  0  2  0  0  3  0  0  0  0  0  0
  187.7590  176.7840  146.0920 C   0  0  0  0  0  2  0  0  0  0  0  0
  190.1090  177.3260  145.4770 C   0  0  0  0  0  1  0  0  0  0  0  0
  188.9280  177.7390  146.3330 C   0  0  2  0  0  3  0  0  0  0  0  0
  189.3230  177.7810  147.7790 C   0  0  0  0  0  0  0  0  0  0  0  0
  190.4640  177.4920  148.0980 O   0  0  0  0  0  0  0  0  0  0  0  0
  188.3420  178.1660  148.8380 C   0  0  0  0  0  1  0  0  0  0  0  0
  1  2  1  0  0  0  0
  2 19  1  0  0  0  0
  2 12  1  1  0  0  0
  3  7  1  0  0  0  0
  4 17  1  0  0  0  0
  4  1  1  0  0  0  0
  5 18  1  0  0  0  0
  5 20  1  1  0  0  0
  6 13  1  0  0  0  0
  8  4  2  0  0  0  0
  9  6  2  0  0  0  0
  9  8  1  0  0  0  0
 10 11  1  1  0  0  0
 10 16  1  0  0  0  0
 12  5  1  0  0  0  0
 13 17  2  0  0  0  0
 14  3  1  0  0  0  0
 14  1  1  0  0  0  0
 15  8  1  0  0  0  0
 15 14  2  0  0  0  0
 16 18  1  0  0  0  0
 19  7  1  6  0  0  0
 19 10  1  0  0  0  0
 20 22  1  0  0  0  0
 22 21  1  6  0  0  0
 22 23  1  0  0  0  0
 23 24  2  0  0  0  0
 23 25  1  0  0  0  0
M  END
>  <MODEL>
8

>  <REMARK>
 VINA RESULT:      -8.5      2.509      6.535
  Name = 
  3 active torsions:
  status: ('A' for Active; 'I' for Inactive)
    1  A    between atoms: C_2  and  C_25
    2  A    between atoms: C_6  and  C_15
    3  A    between atoms: C_15  and  C_25
                            x       y       z     vdW  Elec       q    Type
                         _______ _______ _______ _____ _____    ______ ____

>  <TORSDO>
F 3

$$$$
=
 OpenBabel11052412513D

 25 28  0  0  1  0  0  0  0  0999 V2000
  189.6980  177.0950  143.7430 N   0  0  0  0  0  0  0  0  0  0  0  0
  188.6180  177.6180  142.9180 C   0  0  2  0  0  3  0  0  0  0  0  0
  191.1560  177.1060  141.7910 C   0  0  0  0  0  2  0  0  0  0  0  0
  189.8660  177.0600  145.0720 C   0  0  0  0  0  0  0  0  0  0  0  0
  186.1080  177.7470  142.5070 C   0  0  2  0  0  3  0  0  0  0  0  0
  190.7620  176.9510  147.6840 C   0  0  0  0  0  3  0  0  0  0  0  0
  190.0470  176.5900  141.0810 O   0  0  0  0  0  0  0  0  0  0  0  0
  191.1870  176.8100  145.3330 C   0  0  0  0  0  0  0  0  0  0  0  0
  191.6780  176.7490  146.6340 C   0  0  0  0  0  3  0  0  0  0  0  0
  188.4770  178.4420  140.5190 C   0  0  1  0  0  3  0  0  0  0  0  0
  188.9100  178.1860  139.0860 C   0  0  0  0  0  1  0  0  0  0  0  0
  187.2310  177.2070  143.4080 C   0  0  0  0  0  2  0  0  0  0  0  0
  189.4010  177.2220  147.4110 C   0  0  0  0  0  3  0  0  0  0  0  0
  190.9300  176.9120  143.2470 C   0  0  0  0  0  0  0  0  0  0  0  0
  191.8930  176.7290  144.1860 N   0  0  0  0  0  0  0  0  0  0  0  0
  186.9660  178.6910  140.5230 C   0  0  0  0  0  2  0  0  0  0  0  0
  188.9360  177.2880  146.0850 C   0  0  0  0  0  3  0  0  0  0  0  0
  186.4700  179.0090  141.8600 N   0  0  0  0  0  2  0  0  0  0  0  0
  188.8250  177.2530  141.4230 C   0  0  2  0  0  3  0  0  0  0  0  0
  184.7930  177.8770  143.2740 C   0  0  0  0  0  2  0  0  0  0  0  0
  183.3590  179.7700  144.0190 C   0  0  0  0  0  1  0  0  0  0  0  0
  183.9410  179.0600  142.8130 C   0  0  2  0  0  3  0  0  0  0  0  0
  182.8460  178.6290  141.8840 C   0  0  0  0  0  0  0  0  0  0  0  0
  181.6920  178.6290  142.2770 O   0  0  0  0  0  0  0  0  0  0  0  0
  183.1440  178.1930  140.4870 C   0  0  0  0  0  1  0  0  0  0  0  0
  1  4  1  0  0  0  0
  2 12  1  1  0  0  0
  2  1  1  0  0  0  0
  3 14  1  0  0  0  0
  4  8  2  0  0  0  0
  4 17  1  0  0  0  0
  5 20  1  1  0  0  0
  5 12  1  0  0  0  0
  7  3  1  0  0  0  0
  8  9  1  0  0  0  0
  9  6  2  0  0  0  0
 10 11  1  6  0  0  0
 10 16  1  0  0  0  0
 10 19  1  0  0  0  0
 13  6  1  0  0  0  0
 14  1  1  0  0  0  0
 14 15  2  0  0  0  0
 15  8  1  0  0  0  0
 16 18  1  0  0  0  0
 17 13  2  0  0  0  0
 18  5  1  0  0  0  0
 19  7  1  1  0  0  0
 19  2  1  0  0  0  0
 22 20  1  0  0  0  0
 22 21  1  1  0  0  0
 23 24  2  0  0  0  0
 23 22  1  0  0  0  0
 25 23  1  0  0  0  0
M  END
>  <MODEL>
9

>  <REMARK>
 VINA RESULT:      -8.0      2.347      6.614
  Name = 
  3 active torsions:
  status: ('A' for Active; 'I' for Inactive)
    1  A    between atoms: C_2  and  C_25
    2  A    between atoms: C_6  and  C_15
    3  A    between atoms: C_15  and  C_25
                            x       y       z     vdW  Elec       q    Type
                         _______ _______ _______ _____ _____    ______ ____

>  <TORSDO>
F 3

$$$$
