=
 OpenBabel11052413453D

 27 30  0  0  1  0  0  0  0  0999 V2000
  187.0260  177.2660  144.3390 C   0  0  0  0  0  2  0  0  0  0  0  0
  186.4190  178.2960  142.1020 C   0  0  0  0  0  0  0  0  0  0  0  0
  188.9100  178.5030  142.0410 N   0  0  0  0  0  2  0  0  0  0  0  0
  186.2580  178.3230  137.9450 C   0  0  0  0  0  3  0  0  0  0  0  0
  187.3450  178.4030  135.6980 C   0  0  0  0  0  1  0  0  0  0  0  0
  185.2450  178.2450  141.4150 N   0  0  0  0  0  0  0  0  0  0  0  0
  188.7510  178.4720  139.2090 C   0  0  0  0  0  3  0  0  0  0  0  0
  191.5760  177.8050  143.2180 C   0  0  0  0  0  2  0  0  0  0  0  0
  188.6720  178.4740  137.8130 C   0  0  0  0  0  3  0  0  0  0  0  0
  191.4790  176.1040  143.8520 S   0  0  0  0  0  0  0  0  0  0  0  0
  187.5850  178.3930  139.9840 C   0  0  0  0  0  0  0  0  0  0  0  0
  186.3850  178.3120  143.5380 N   0  0  0  0  0  0  0  0  0  0  0  0
  187.4260  178.3990  137.1830 C   0  0  0  0  0  0  0  0  0  0  0  0
  186.3340  178.3200  139.3400 C   0  0  0  0  0  0  0  0  0  0  0  0
  188.5260  177.1390  144.0810 C   0  0  1  0  0  3  0  0  0  0  0  0
  187.6360  178.3890  141.3850 C   0  0  0  0  0  0  0  0  0  0  0  0
  190.5510  178.7050  143.8970 C   0  0  0  0  0  2  0  0  0  0  0  0
  185.2020  178.2510  140.0830 N   0  0  0  0  0  0  0  0  0  0  0  0
  190.1650  175.7130  142.6640 C   0  0  0  0  0  2  0  0  0  0  0  0
  188.7750  175.8520  143.2780 C   0  0  0  0  0  2  0  0  0  0  0  0
  189.1030  178.4320  143.4840 C   0  0  1  0  0  3  0  0  0  0  0  0
  185.5280  179.2690  144.2210 C   0  0  0  0  0  2  0  0  0  0  0  0
  184.8660  178.5130  146.5010 C   0  0  0  0  0  3  0  0  0  0  0  0
  184.6240  178.5630  145.1860 C   0  0  0  0  0  3  0  0  0  0  0  0
  186.0610  179.1470  147.1460 C   0  0  0  0  0  2  0  0  0  0  0  0
  187.0370  178.0820  147.6100 C   0  0  0  0  0  2  0  0  0  0  0  0
  187.9500  178.6440  148.5000 O   0  0  0  0  0  1  0  0  0  0  0  0
  2 12  1  0  0  0  0
  3 21  1  0  0  0  0
  4 14  1  0  0  0  0
  5 13  1  0  0  0  0
  6  2  1  0  0  0  0
  7 11  1  0  0  0  0
  8 10  1  0  0  0  0
  8 17  1  0  0  0  0
  9  7  2  0  0  0  0
 11 16  1  0  0  0  0
 12 22  1  0  0  0  0
 12  1  1  0  0  0  0
 13  9  1  0  0  0  0
 13  4  2  0  0  0  0
 14 11  2  0  0  0  0
 14 18  1  0  0  0  0
 15 20  1  6  0  0  0
 15  1  1  0  0  0  0
 16  3  1  0  0  0  0
 16  2  2  0  0  0  0
 18  6  2  0  0  0  0
 19 20  1  0  0  0  0
 19 10  1  0  0  0  0
 21 17  1  6  0  0  0
 21 15  1  0  0  0  0
 22 24  1  0  0  0  0
 23 25  1  0  0  0  0
 24 23  2  0  0  0  0
 25 26  1  0  0  0  0
 26 27  1  0  0  0  0
M  END
>  <MODEL>
1

>  <REMARK>
 VINA RESULT:      -7.8      0.000      0.000
  Name = 
  4 active torsions:
  status: ('A' for Active; 'I' for Inactive)
    1  A    between atoms: C_7  and  C_11
    2  A    between atoms: C_7  and  C_25
    3  A    between atoms: C_9  and  N_15
    4  A    between atoms: C_9  and  C_27
                            x       y       z     vdW  Elec       q    Type
                         _______ _______ _______ _____ _____    ______ ____

>  <TORSDO>
F 4

$$$$
=
 OpenBabel11052413453D

 27 30  0  0  1  0  0  0  0  0999 V2000
  186.8790  177.5300  144.0880 C   0  0  0  0  0  2  0  0  0  0  0  0
  186.4820  178.4330  141.7520 C   0  0  0  0  0  0  0  0  0  0  0  0
  188.9770  178.5450  141.8670 N   0  0  0  0  0  2  0  0  0  0  0  0
  186.6270  178.1960  137.6010 C   0  0  0  0  0  3  0  0  0  0  0  0
  187.8790  178.0900  135.4430 C   0  0  0  0  0  1  0  0  0  0  0  0
  185.3600  178.3810  140.9820 N   0  0  0  0  0  0  0  0  0  0  0  0
  189.0250  178.3350  139.0390 C   0  0  0  0  0  3  0  0  0  0  0  0
  191.5170  177.8280  143.2850 C   0  0  0  0  0  2  0  0  0  0  0  0
  189.0480  178.2500  137.6440 C   0  0  0  0  0  3  0  0  0  0  0  0
  191.3040  176.1770  144.0140 S   0  0  0  0  0  0  0  0  0  0  0  0
  187.8030  178.3510  139.7260 C   0  0  0  0  0  0  0  0  0  0  0  0
  186.3430  178.5440  143.1770 N   0  0  0  0  0  0  0  0  0  0  0  0
  187.8510  178.1800  136.9260 C   0  0  0  0  0  0  0  0  0  0  0  0
  186.6000  178.2810  138.9960 C   0  0  0  0  0  0  0  0  0  0  0  0
  188.3870  177.3320  143.9530 C   0  0  1  0  0  3  0  0  0  0  0  0
  187.7500  178.4350  141.1250 C   0  0  0  0  0  0  0  0  0  0  0  0
  190.4840  178.8070  143.8260 C   0  0  0  0  0  2  0  0  0  0  0  0
  185.4150  178.3030  139.6530 N   0  0  0  0  0  0  0  0  0  0  0  0
  190.0660  175.7580  142.7560 C   0  0  0  0  0  2  0  0  0  0  0  0
  188.6420  175.9870  143.2530 C   0  0  0  0  0  2  0  0  0  0  0  0
  189.0600  178.5610  143.3230 C   0  0  1  0  0  3  0  0  0  0  0  0
  185.4780  179.5750  143.7330 C   0  0  0  0  0  2  0  0  0  0  0  0
  183.2900  178.7480  144.5920 C   0  0  0  0  0  3  0  0  0  0  0  0
  184.5900  178.9950  144.7910 C   0  0  0  0  0  3  0  0  0  0  0  0
  182.5850  179.0300  143.3000 C   0  0  0  0  0  2  0  0  0  0  0  0
  181.0820  179.0410  143.5110 C   0  0  0  0  0  2  0  0  0  0  0  0
  180.5410  180.1880  142.9340 O   0  0  0  0  0  1  0  0  0  0  0  0
  2 12  1  0  0  0  0
  3 21  1  0  0  0  0
  4 14  1  0  0  0  0
  5 13  1  0  0  0  0
  6  2  2  0  0  0  0
  7 11  1  0  0  0  0
  8 17  1  0  0  0  0
  8 10  1  0  0  0  0
  9  7  2  0  0  0  0
 11 16  2  0  0  0  0
 12 22  1  0  0  0  0
 12  1  1  0  0  0  0
 13  4  2  0  0  0  0
 13  9  1  0  0  0  0
 14 18  2  0  0  0  0
 14 11  1  0  0  0  0
 15 20  1  6  0  0  0
 15  1  1  0  0  0  0
 16  2  1  0  0  0  0
 16  3  1  0  0  0  0
 18  6  1  0  0  0  0
 19 20  1  0  0  0  0
 19 10  1  0  0  0  0
 21 17  1  6  0  0  0
 21 15  1  0  0  0  0
 22 24  1  0  0  0  0
 23 24  2  0  0  0  0
 25 26  1  0  0  0  0
 25 23  1  0  0  0  0
 27 26  1  0  0  0  0
M  END
>  <MODEL>
2

>  <REMARK>
 VINA RESULT:      -7.8      2.087      2.569
  Name = 
  4 active torsions:
  status: ('A' for Active; 'I' for Inactive)
    1  A    between atoms: C_7  and  C_11
    2  A    between atoms: C_7  and  C_25
    3  A    between atoms: C_9  and  N_15
    4  A    between atoms: C_9  and  C_27
                            x       y       z     vdW  Elec       q    Type
                         _______ _______ _______ _____ _____    ______ ____

>  <TORSDO>
F 4

$$$$
=
 OpenBabel11052413453D

 27 30  0  0  1  0  0  0  0  0999 V2000
  190.2510  176.5940  139.9380 C   0  0  0  0  0  2  0  0  0  0  0  0
  188.6600  177.6140  141.6290 C   0  0  0  0  0  0  0  0  0  0  0  0
  187.8750  178.7280  139.5330 N   0  0  0  0  0  2  0  0  0  0  0  0
  184.9170  178.1280  143.3710 C   0  0  0  0  0  3  0  0  0  0  0  0
  182.5420  178.8970  143.3030 C   0  0  0  0  0  1  0  0  0  0  0  0
  188.3870  177.2270  142.9060 N   0  0  0  0  0  0  0  0  0  0  0  0
  185.3280  179.0140  140.7480 C   0  0  0  0  0  3  0  0  0  0  0  0
  187.9360  178.9080  136.5420 C   0  0  0  0  0  2  0  0  0  0  0  0
  184.0770  179.1710  141.3530 C   0  0  0  0  0  3  0  0  0  0  0  0
  188.1100  177.2240  135.8840 S   0  0  0  0  0  0  0  0  0  0  0  0
  186.3820  178.4120  141.4490 C   0  0  0  0  0  0  0  0  0  0  0  0
  189.9870  177.4270  141.1140 N   0  0  0  0  0  0  0  0  0  0  0  0
  183.8720  178.7280  142.6630 C   0  0  0  0  0  0  0  0  0  0  0  0
  186.1680  177.9690  142.7690 C   0  0  0  0  0  0  0  0  0  0  0  0
  189.5110  177.0620  138.6860 C   0  0  1  0  0  3  0  0  0  0  0  0
  187.6460  178.2410  140.8670 C   0  0  0  0  0  0  0  0  0  0  0  0
  189.1080  179.2720  137.4440 C   0  0  0  0  0  2  0  0  0  0  0  0
  187.1850  177.3920  143.4560 N   0  0  0  0  0  0  0  0  0  0  0  0
  187.3360  176.5380  137.3740 C   0  0  0  0  0  2  0  0  0  0  0  0
  188.3690  176.0740  138.3970 C   0  0  0  0  0  2  0  0  0  0  0  0
  189.1150  178.5430  138.7900 C   0  0  1  0  0  3  0  0  0  0  0  0
  191.1260  177.9040  141.8850 C   0  0  0  0  0  2  0  0  0  0  0  0
  191.7320  176.7100  143.9860 C   0  0  0  0  0  3  0  0  0  0  0  0
  191.7460  176.7740  142.6490 C   0  0  0  0  0  3  0  0  0  0  0  0
  191.1040  177.7550  144.8560 C   0  0  0  0  0  2  0  0  0  0  0  0
  190.7400  177.1680  146.2070 C   0  0  0  0  0  2  0  0  0  0  0  0
  191.9010  176.7810  146.8730 O   0  0  0  0  0  1  0  0  0  0  0  0
  1 12  1  0  0  0  0
  2  6  1  0  0  0  0
  3 16  1  0  0  0  0
  6 18  2  0  0  0  0
  7  9  2  0  0  0  0
  7 11  1  0  0  0  0
  8 17  1  0  0  0  0
  9 13  1  0  0  0  0
 10  8  1  0  0  0  0
 10 19  1  0  0  0  0
 11 14  2  0  0  0  0
 12  2  1  0  0  0  0
 12 22  1  0  0  0  0
 13  5  1  0  0  0  0
 13  4  2  0  0  0  0
 14  4  1  0  0  0  0
 14 18  1  0  0  0  0
 15 20  1  1  0  0  0
 15 21  1  0  0  0  0
 15  1  1  0  0  0  0
 16 11  1  0  0  0  0
 16  2  2  0  0  0  0
 19 20  1  0  0  0  0
 21 17  1  6  0  0  0
 21  3  1  0  0  0  0
 22 24  1  0  0  0  0
 23 25  1  0  0  0  0
 24 23  2  0  0  0  0
 25 26  1  0  0  0  0
 26 27  1  0  0  0  0
M  END
>  <MODEL>
3

>  <REMARK>
 VINA RESULT:      -7.8      2.774      5.545
  Name = 
  4 active torsions:
  status: ('A' for Active; 'I' for Inactive)
    1  A    between atoms: C_7  and  C_11
    2  A    between atoms: C_7  and  C_25
    3  A    between atoms: C_9  and  N_15
    4  A    between atoms: C_9  and  C_27
                            x       y       z     vdW  Elec       q    Type
                         _______ _______ _______ _____ _____    ______ ____

>  <TORSDO>
F 4

$$$$
=
 OpenBabel11052413453D

 27 30  0  0  1  0  0  0  0  0999 V2000
  187.6570  177.3340  142.9300 C   0  0  0  0  0  2  0  0  0  0  0  0
  188.5150  177.5640  140.5550 C   0  0  0  0  0  0  0  0  0  0  0  0
  190.5970  178.0700  141.8440 N   0  0  0  0  0  2  0  0  0  0  0  0
  190.7720  176.3340  137.2840 C   0  0  0  0  0  3  0  0  0  0  0  0
  192.9540  175.8850  136.1560 C   0  0  0  0  0  1  0  0  0  0  0  0
  187.9480  177.1580  139.3860 N   0  0  0  0  0  0  0  0  0  0  0  0
  192.0900  177.1780  139.6040 C   0  0  0  0  0  3  0  0  0  0  0  0
  192.0490  178.1100  144.4650 C   0  0  0  0  0  2  0  0  0  0  0  0
  192.8270  176.7550  138.4940 C   0  0  0  0  0  3  0  0  0  0  0  0
  191.4930  176.6780  145.4350 S   0  0  0  0  0  0  0  0  0  0  0  0
  190.6890  177.1810  139.5630 C   0  0  0  0  0  0  0  0  0  0  0  0
  187.6640  178.0010  141.6260 N   0  0  0  0  0  0  0  0  0  0  0  0
  192.1680  176.3330  137.3350 C   0  0  0  0  0  0  0  0  0  0  0  0
  190.0320  176.7550  138.3920 C   0  0  0  0  0  0  0  0  0  0  0  0
  189.0210  177.3360  143.6180 C   0  0  1  0  0  3  0  0  0  0  0  0
  189.9260  177.5990  140.6620 C   0  0  0  0  0  0  0  0  0  0  0  0
  190.8840  179.0280  144.1200 C   0  0  0  0  0  2  0  0  0  0  0  0
  188.6770  176.7620  138.3430 N   0  0  0  0  0  0  0  0  0  0  0  0
  191.0760  175.7820  143.9130 C   0  0  0  0  0  2  0  0  0  0  0  0
  189.5990  175.9120  143.5550 C   0  0  0  0  0  2  0  0  0  0  0  0
  189.9210  178.4570  143.0760 C   0  0  1  0  0  3  0  0  0  0  0  0
  186.6360  178.9970  141.3600 C   0  0  0  0  0  2  0  0  0  0  0  0
  184.5020  178.7230  142.6160 C   0  0  0  0  0  3  0  0  0  0  0  0
  185.2740  178.4080  141.5700 C   0  0  0  0  0  3  0  0  0  0  0  0
  184.9150  179.6870  143.6870 C   0  0  0  0  0  2  0  0  0  0  0  0
  185.0340  178.9740  145.0210 C   0  0  0  0  0  2  0  0  0  0  0  0
  183.8040  179.0080  145.6760 O   0  0  0  0  0  1  0  0  0  0  0  0
  2 16  1  0  0  0  0
  2 12  1  0  0  0  0
  3 21  1  0  0  0  0
  4 13  2  0  0  0  0
  4 14  1  0  0  0  0
  5 13  1  0  0  0  0
  6  2  2  0  0  0  0
  8 10  1  0  0  0  0
  9  7  2  0  0  0  0
 11  7  1  0  0  0  0
 11 16  2  0  0  0  0
 12  1  1  0  0  0  0
 13  9  1  0  0  0  0
 14 11  1  0  0  0  0
 15  1  1  6  0  0  0
 16  3  1  0  0  0  0
 17  8  1  0  0  0  0
 18 14  2  0  0  0  0
 18  6  1  0  0  0  0
 19 10  1  0  0  0  0
 20 15  1  0  0  0  0
 20 19  1  0  0  0  0
 21 15  1  0  0  0  0
 21 17  1  1  0  0  0
 22 24  1  0  0  0  0
 22 12  1  0  0  0  0
 23 25  1  0  0  0  0
 24 23  2  0  0  0  0
 25 26  1  0  0  0  0
 26 27  1  0  0  0  0
M  END
>  <MODEL>
4

>  <REMARK>
 VINA RESULT:      -7.5      2.580      3.356
  Name = 
  4 active torsions:
  status: ('A' for Active; 'I' for Inactive)
    1  A    between atoms: C_7  and  C_11
    2  A    between atoms: C_7  and  C_25
    3  A    between atoms: C_9  and  N_15
    4  A    between atoms: C_9  and  C_27
                            x       y       z     vdW  Elec       q    Type
                         _______ _______ _______ _____ _____    ______ ____

>  <TORSDO>
F 4

$$$$
=
 OpenBabel11052413453D

 27 30  0  0  1  0  0  0  0  0999 V2000
  187.7890  177.2160  142.6030 C   0  0  0  0  0  2  0  0  0  0  0  0
  188.7910  177.4530  140.2850 C   0  0  0  0  0  0  0  0  0  0  0  0
  190.7710  178.0260  141.7000 N   0  0  0  0  0  2  0  0  0  0  0  0
  191.2860  176.2640  137.1760 C   0  0  0  0  0  3  0  0  0  0  0  0
  193.5480  175.8690  136.1940 C   0  0  0  0  0  1  0  0  0  0  0  0
  188.3110  177.0220  139.0860 N   0  0  0  0  0  0  0  0  0  0  0  0
  192.4290  177.1610  139.5680 C   0  0  0  0  0  3  0  0  0  0  0  0
  192.0510  178.1250  144.4080 C   0  0  0  0  0  2  0  0  0  0  0  0
  193.2470  176.7510  138.5110 C   0  0  0  0  0  3  0  0  0  0  0  0
  191.4740  176.6840  145.3530 S   0  0  0  0  0  0  0  0  0  0  0  0
  191.0340  177.1240  139.4380 C   0  0  0  0  0  0  0  0  0  0  0  0
  187.8610  177.8740  141.2960 N   0  0  0  0  0  0  0  0  0  0  0  0
  192.6760  176.3030  137.3160 C   0  0  0  0  0  0  0  0  0  0  0  0
  190.4660  176.6720  138.2310 C   0  0  0  0  0  0  0  0  0  0  0  0
  189.1060  177.2600  143.3760 C   0  0  1  0  0  3  0  0  0  0  0  0
  190.1900  177.5290  140.4820 C   0  0  0  0  0  0  0  0  0  0  0  0
  190.8850  179.0080  143.9810 C   0  0  0  0  0  2  0  0  0  0  0  0
  189.1170  176.6410  138.0960 N   0  0  0  0  0  0  0  0  0  0  0  0
  191.1810  175.7670  143.8160 C   0  0  0  0  0  2  0  0  0  0  0  0
  189.7260  175.8530  143.3630 C   0  0  0  0  0  2  0  0  0  0  0  0
  190.0070  178.4020  142.8830 C   0  0  1  0  0  3  0  0  0  0  0  0
  186.8250  178.8380  140.9560 C   0  0  0  0  0  2  0  0  0  0  0  0
  184.4990  178.5960  141.8130 C   0  0  0  0  0  3  0  0  0  0  0  0
  185.7860  178.8860  142.0340 C   0  0  0  0  0  3  0  0  0  0  0  0
  183.9600  178.1990  140.4720 C   0  0  0  0  0  2  0  0  0  0  0  0
  183.2570  179.3740  139.8180 C   0  0  0  0  0  2  0  0  0  0  0  0
  184.1840  180.1300  139.1030 O   0  0  0  0  0  1  0  0  0  0  0  0
  2 16  1  0  0  0  0
  2 12  1  0  0  0  0
  3 21  1  0  0  0  0
  4 13  2  0  0  0  0
  4 14  1  0  0  0  0
  5 13  1  0  0  0  0
  6  2  2  0  0  0  0
  8 10  1  0  0  0  0
  9  7  2  0  0  0  0
 11  7  1  0  0  0  0
 11 16  2  0  0  0  0
 12  1  1  0  0  0  0
 13  9  1  0  0  0  0
 14 11  1  0  0  0  0
 15  1  1  6  0  0  0
 16  3  1  0  0  0  0
 17  8  1  0  0  0  0
 18 14  2  0  0  0  0
 18  6  1  0  0  0  0
 19 10  1  0  0  0  0
 20 15  1  0  0  0  0
 20 19  1  0  0  0  0
 21 15  1  0  0  0  0
 21 17  1  1  0  0  0
 22 12  1  0  0  0  0
 22 24  1  0  0  0  0
 23 24  2  0  0  0  0
 25 23  1  0  0  0  0
 26 25  1  0  0  0  0
 27 26  1  0  0  0  0
M  END
>  <MODEL>
5

>  <REMARK>
 VINA RESULT:      -7.4      3.342      4.470
  Name = 
  4 active torsions:
  status: ('A' for Active; 'I' for Inactive)
    1  A    between atoms: C_7  and  C_11
    2  A    between atoms: C_7  and  C_25
    3  A    between atoms: C_9  and  N_15
    4  A    between atoms: C_9  and  C_27
                            x       y       z     vdW  Elec       q    Type
                         _______ _______ _______ _____ _____    ______ ____

>  <TORSDO>
F 4

$$$$
=
 OpenBabel11052413453D

 27 30  0  0  1  0  0  0  0  0999 V2000
  190.8120  177.8650  140.6540 C   0  0  0  0  0  2  0  0  0  0  0  0
  188.2770  177.8500  140.7280 C   0  0  0  0  0  0  0  0  0  0  0  0
  188.8040  176.8040  142.9360 N   0  0  0  0  0  2  0  0  0  0  0  0
  184.5930  179.1490  142.1590 C   0  0  0  0  0  3  0  0  0  0  0  0
  182.8890  179.3770  143.9700 C   0  0  0  0  0  1  0  0  0  0  0  0
  187.3840  178.5200  139.9480 N   0  0  0  0  0  0  0  0  0  0  0  0
  186.3020  177.7500  143.8780 C   0  0  0  0  0  3  0  0  0  0  0  0
  190.8300  176.1190  145.0360 C   0  0  0  0  0  2  0  0  0  0  0  0
  185.0610  178.2010  144.3380 C   0  0  0  0  0  3  0  0  0  0  0  0
  192.0500  177.4640  145.0960 S   0  0  0  0  0  0  0  0  0  0  0  0
  186.6990  177.9960  142.5560 C   0  0  0  0  0  0  0  0  0  0  0  0
  189.5150  177.4110  140.1470 N   0  0  0  0  0  0  0  0  0  0  0  0
  184.2080  178.9000  143.4790 C   0  0  0  0  0  0  0  0  0  0  0  0
  185.8330  178.7000  141.6970 C   0  0  0  0  0  0  0  0  0  0  0  0
  191.0390  177.5240  142.1260 C   0  0  1  0  0  3  0  0  0  0  0  0
  187.9370  177.5550  142.0690 C   0  0  0  0  0  0  0  0  0  0  0  0
  190.7810  175.4790  143.6550 C   0  0  0  0  0  2  0  0  0  0  0  0
  186.2070  178.9350  140.4150 N   0  0  0  0  0  0  0  0  0  0  0  0
  190.8210  178.6370  144.4590 C   0  0  0  0  0  2  0  0  0  0  0  0
  190.9290  178.8190  142.9480 C   0  0  0  0  0  2  0  0  0  0  0  0
  190.1450  176.3590  142.5760 C   0  0  1  0  0  3  0  0  0  0  0  0
  189.4920  176.6600  138.9000 C   0  0  0  0  0  2  0  0  0  0  0  0
  189.4310  177.6920  136.6340 C   0  0  0  0  0  3  0  0  0  0  0  0
  190.0730  177.4790  137.7880 C   0  0  0  0  0  3  0  0  0  0  0  0
  188.0750  177.1330  136.3270 C   0  0  0  0  0  2  0  0  0  0  0  0
  187.0760  178.2560  136.1170 C   0  0  0  0  0  2  0  0  0  0  0  0
  187.4910  179.3830  136.8240 O   0  0  0  0  0  1  0  0  0  0  0  0
  2 16  1  0  0  0  0
  4 13  2  0  0  0  0
  6 18  1  0  0  0  0
  6  2  2  0  0  0  0
  7  9  2  0  0  0  0
  8 10  1  0  0  0  0
 11  7  1  0  0  0  0
 12  1  1  0  0  0  0
 12  2  1  0  0  0  0
 13  5  1  0  0  0  0
 13  9  1  0  0  0  0
 14  4  1  0  0  0  0
 14 11  1  0  0  0  0
 15  1  1  6  0  0  0
 15 21  1  0  0  0  0
 15 20  1  0  0  0  0
 16 11  2  0  0  0  0
 16  3  1  0  0  0  0
 17  8  1  0  0  0  0
 18 14  2  0  0  0  0
 19 10  1  0  0  0  0
 20 19  1  0  0  0  0
 21  3  1  0  0  0  0
 21 17  1  1  0  0  0
 22 12  1  0  0  0  0
 23 24  2  0  0  0  0
 24 22  1  0  0  0  0
 25 23  1  0  0  0  0
 26 25  1  0  0  0  0
 26 27  1  0  0  0  0
M  END
>  <MODEL>
6

>  <REMARK>
 VINA RESULT:      -7.1      2.872      6.207
  Name = 
  4 active torsions:
  status: ('A' for Active; 'I' for Inactive)
    1  A    between atoms: C_7  and  C_11
    2  A    between atoms: C_7  and  C_25
    3  A    between atoms: C_9  and  N_15
    4  A    between atoms: C_9  and  C_27
                            x       y       z     vdW  Elec       q    Type
                         _______ _______ _______ _____ _____    ______ ____

>  <TORSDO>
F 4

$$$$
=
 OpenBabel11052413453D

 27 30  0  0  1  0  0  0  0  0999 V2000
  190.6020  177.8580  140.5620 C   0  0  0  0  0  2  0  0  0  0  0  0
  188.0730  177.8630  140.7500 C   0  0  0  0  0  0  0  0  0  0  0  0
  188.6920  176.8220  142.9370 N   0  0  0  0  0  2  0  0  0  0  0  0
  184.4670  179.1950  142.3400 C   0  0  0  0  0  3  0  0  0  0  0  0
  182.8490  179.4440  144.2260 C   0  0  0  0  0  1  0  0  0  0  0  0
  187.1510  178.5360  140.0080 N   0  0  0  0  0  0  0  0  0  0  0  0
  186.2420  177.7910  143.9870 C   0  0  0  0  0  3  0  0  0  0  0  0
  190.8050  176.1300  144.9460 C   0  0  0  0  0  2  0  0  0  0  0  0
  185.0270  178.2530  144.5000 C   0  0  0  0  0  3  0  0  0  0  0  0
  192.0370  177.4660  144.9440 S   0  0  0  0  0  0  0  0  0  0  0  0
  186.5800  178.0280  142.6470 C   0  0  0  0  0  0  0  0  0  0  0  0
  189.2800  177.4120  140.1160 N   0  0  0  0  0  0  0  0  0  0  0  0
  184.1410  178.9550  143.6770 C   0  0  0  0  0  0  0  0  0  0  0  0
  185.6810  178.7350  141.8240 C   0  0  0  0  0  0  0  0  0  0  0  0
  190.8930  177.5220  142.0230 C   0  0  1  0  0  3  0  0  0  0  0  0
  187.7920  177.5760  142.1070 C   0  0  0  0  0  0  0  0  0  0  0  0
  190.6900  175.4850  143.5710 C   0  0  0  0  0  2  0  0  0  0  0  0
  185.9990  178.9620  140.5260 N   0  0  0  0  0  0  0  0  0  0  0  0
  190.7890  178.6460  144.3590 C   0  0  0  0  0  2  0  0  0  0  0  0
  190.8300  178.8210  142.8440 C   0  0  0  0  0  2  0  0  0  0  0  0
  190.0120  176.3650  142.5180 C   0  0  1  0  0  3  0  0  0  0  0  0
  189.1950  176.6560  138.8740 C   0  0  0  0  0  2  0  0  0  0  0  0
  191.1550  176.7670  137.3400 C   0  0  0  0  0  3  0  0  0  0  0  0
  190.0250  177.3070  137.8100 C   0  0  0  0  0  3  0  0  0  0  0  0
  191.7130  175.4650  137.8280 C   0  0  0  0  0  2  0  0  0  0  0  0
  193.2210  175.5570  137.9680 C   0  0  0  0  0  2  0  0  0  0  0  0
  193.5560  176.7490  138.6080 O   0  0  0  0  0  1  0  0  0  0  0  0
  2 16  1  0  0  0  0
  4 13  2  0  0  0  0
  6 18  1  0  0  0  0
  6  2  2  0  0  0  0
  7  9  2  0  0  0  0
 10  8  1  0  0  0  0
 11  7  1  0  0  0  0
 12  1  1  0  0  0  0
 12  2  1  0  0  0  0
 13  5  1  0  0  0  0
 13  9  1  0  0  0  0
 14  4  1  0  0  0  0
 14 11  1  0  0  0  0
 15  1  1  6  0  0  0
 15 21  1  0  0  0  0
 15 20  1  0  0  0  0
 16 11  2  0  0  0  0
 16  3  1  0  0  0  0
 17  8  1  0  0  0  0
 18 14  2  0  0  0  0
 19 10  1  0  0  0  0
 20 19  1  0  0  0  0
 21  3  1  0  0  0  0
 21 17  1  1  0  0  0
 22 12  1  0  0  0  0
 23 24  2  0  0  0  0
 23 25  1  0  0  0  0
 24 22  1  0  0  0  0
 25 26  1  0  0  0  0
 26 27  1  0  0  0  0
M  END
>  <MODEL>
7

>  <REMARK>
 VINA RESULT:      -7.1      3.026      6.274
  Name = 
  4 active torsions:
  status: ('A' for Active; 'I' for Inactive)
    1  A    between atoms: C_7  and  C_11
    2  A    between atoms: C_7  and  C_25
    3  A    between atoms: C_9  and  N_15
    4  A    between atoms: C_9  and  C_27
                            x       y       z     vdW  Elec       q    Type
                         _______ _______ _______ _____ _____    ______ ____

>  <TORSDO>
F 4

$$$$
=
 OpenBabel11052413453D

 27 30  0  0  1  0  0  0  0  0999 V2000
  189.0590  178.4960  139.1630 C   0  0  0  0  0  2  0  0  0  0  0  0
  191.0650  176.9460  139.1440 C   0  0  0  0  0  0  0  0  0  0  0  0
  189.5820  175.7950  137.4920 N   0  0  0  0  0  2  0  0  0  0  0  0
  194.4330  175.2480  137.3880 C   0  0  0  0  0  3  0  0  0  0  0  0
  195.5350  173.8270  135.6560 C   0  0  0  0  0  1  0  0  0  0  0  0
  192.3220  177.1500  139.6240 N   0  0  0  0  0  0  0  0  0  0  0  0
  191.9120  174.6990  136.3030 C   0  0  0  0  0  3  0  0  0  0  0  0
  187.1250  175.8420  135.7770 C   0  0  0  0  0  2  0  0  0  0  0  0
  193.0590  174.1440  135.7270 C   0  0  0  0  0  3  0  0  0  0  0  0
  186.8850  177.5440  135.1890 S   0  0  0  0  0  0  0  0  0  0  0  0
  192.0170  175.5330  137.4240 C   0  0  0  0  0  0  0  0  0  0  0  0
  189.9530  177.5450  139.8270 N   0  0  0  0  0  0  0  0  0  0  0  0
  194.3180  174.4190  136.2700 C   0  0  0  0  0  0  0  0  0  0  0  0
  193.2890  175.8050  137.9660 C   0  0  0  0  0  0  0  0  0  0  0  0
  188.3690  177.9180  137.9280 C   0  0  1  0  0  3  0  0  0  0  0  0
  190.8830  176.1030  138.0210 C   0  0  0  0  0  0  0  0  0  0  0  0
  187.1040  175.7760  137.2990 C   0  0  0  0  0  2  0  0  0  0  0  0
  193.3970  176.6050  139.0550 N   0  0  0  0  0  0  0  0  0  0  0  0
  188.6620  177.8730  135.3510 C   0  0  0  0  0  2  0  0  0  0  0  0
  189.0030  178.5480  136.6770 C   0  0  0  0  0  2  0  0  0  0  0  0
  188.3380  176.3830  137.9720 C   0  0  1  0  0  3  0  0  0  0  0  0
  189.8200  177.3700  141.2660 C   0  0  0  0  0  2  0  0  0  0  0  0
  187.9780  177.4650  142.9400 C   0  0  0  0  0  3  0  0  0  0  0  0
  188.4310  177.7180  141.7070 C   0  0  0  0  0  3  0  0  0  0  0  0
  188.8020  176.8060  144.0040 C   0  0  0  0  0  2  0  0  0  0  0  0
  189.1310  177.7960  145.1050 C   0  0  0  0  0  2  0  0  0  0  0  0
  190.1910  178.6060  144.6990 O   0  0  0  0  0  1  0  0  0  0  0  0
  1 12  1  0  0  0  0
  2  6  1  0  0  0  0
  2 12  1  0  0  0  0
  3 21  1  0  0  0  0
  3 16  1  0  0  0  0
  4 14  1  0  0  0  0
  5 13  1  0  0  0  0
  7 11  1  0  0  0  0
  8 17  1  0  0  0  0
  9 13  1  0  0  0  0
  9  7  2  0  0  0  0
 10 19  1  0  0  0  0
 10  8  1  0  0  0  0
 11 14  2  0  0  0  0
 11 16  1  0  0  0  0
 12 22  1  0  0  0  0
 13  4  2  0  0  0  0
 14 18  1  0  0  0  0
 15 20  1  6  0  0  0
 15 21  1  0  0  0  0
 15  1  1  0  0  0  0
 16  2  2  0  0  0  0
 18  6  2  0  0  0  0
 19 20  1  0  0  0  0
 21 17  1  6  0  0  0
 22 24  1  0  0  0  0
 23 25  1  0  0  0  0
 24 23  2  0  0  0  0
 25 26  1  0  0  0  0
 27 26  1  0  0  0  0
M  END
>  <MODEL>
8

>  <REMARK>
 VINA RESULT:      -6.7      4.476      6.745
  Name = 
  4 active torsions:
  status: ('A' for Active; 'I' for Inactive)
    1  A    between atoms: C_7  and  C_11
    2  A    between atoms: C_7  and  C_25
    3  A    between atoms: C_9  and  N_15
    4  A    between atoms: C_9  and  C_27
                            x       y       z     vdW  Elec       q    Type
                         _______ _______ _______ _____ _____    ______ ____

>  <TORSDO>
F 4

$$$$
=
 OpenBabel11052413453D

 27 30  0  0  1  0  0  0  0  0999 V2000
  182.4960  179.3000  141.4320 C   0  0  0  0  0  2  0  0  0  0  0  0
  184.5360  178.3950  140.2270 C   0  0  0  0  0  0  0  0  0  0  0  0
  182.7090  177.2830  138.9320 N   0  0  0  0  0  2  0  0  0  0  0  0
  187.1020  178.1070  136.9660 C   0  0  0  0  0  3  0  0  0  0  0  0
  187.6030  177.4590  134.6060 C   0  0  0  0  0  1  0  0  0  0  0  0
  185.8290  178.8200  140.2730 N   0  0  0  0  0  0  0  0  0  0  0  0
  184.4820  177.1510  136.7220 C   0  0  0  0  0  3  0  0  0  0  0  0
  179.7910  177.0430  138.2950 C   0  0  0  0  0  2  0  0  0  0  0  0
  185.3620  177.0700  135.6380 C   0  0  0  0  0  3  0  0  0  0  0  0
  179.0590  178.7030  138.3900 S   0  0  0  0  0  0  0  0  0  0  0  0
  184.9060  177.7120  137.9350 C   0  0  0  0  0  0  0  0  0  0  0  0
  183.7260  178.5040  141.4080 N   0  0  0  0  0  0  0  0  0  0  0  0
  186.6700  177.5480  135.7600 C   0  0  0  0  0  0  0  0  0  0  0  0
  186.2260  178.1900  138.0510 C   0  0  0  0  0  0  0  0  0  0  0  0
  181.4610  178.8460  140.4040 C   0  0  1  0  0  3  0  0  0  0  0  0
  184.0450  177.8060  139.0380 C   0  0  0  0  0  0  0  0  0  0  0  0
  180.4120  176.6370  139.6260 C   0  0  0  0  0  2  0  0  0  0  0  0
  186.6440  178.7270  139.2230 N   0  0  0  0  0  0  0  0  0  0  0  0
  180.6660  179.4560  138.0120 C   0  0  0  0  0  2  0  0  0  0  0  0
  181.4100  179.8860  139.2720 C   0  0  0  0  0  2  0  0  0  0  0  0
  181.6980  177.3900  139.9760 C   0  0  1  0  0  3  0  0  0  0  0  0
  184.2300  177.9840  142.6710 C   0  0  0  0  0  2  0  0  0  0  0  0
  184.6120  179.0360  144.8960 C   0  0  0  0  0  3  0  0  0  0  0  0
  183.8630  178.9040  143.7960 C   0  0  0  0  0  3  0  0  0  0  0  0
  185.8850  178.2790  145.1260 C   0  0  0  0  0  2  0  0  0  0  0  0
  186.2320  178.2660  146.6020 C   0  0  0  0  0  2  0  0  0  0  0  0
  185.3060  179.0370  147.3030 O   0  0  0  0  0  1  0  0  0  0  0  0
  2  6  1  0  0  0  0
  2 12  1  0  0  0  0
  3 16  1  0  0  0  0
  3 21  1  0  0  0  0
  4 14  1  0  0  0  0
  5 13  1  0  0  0  0
  7 11  1  0  0  0  0
  8 10  1  0  0  0  0
  8 17  1  0  0  0  0
  9 13  1  0  0  0  0
  9  7  2  0  0  0  0
 11 14  2  0  0  0  0
 11 16  1  0  0  0  0
 12  1  1  0  0  0  0
 12 22  1  0  0  0  0
 13  4  2  0  0  0  0
 14 18  1  0  0  0  0
 15 20  1  6  0  0  0
 15  1  1  0  0  0  0
 16  2  2  0  0  0  0
 18  6  2  0  0  0  0
 19 10  1  0  0  0  0
 19 20  1  0  0  0  0
 21 17  1  6  0  0  0
 21 15  1  0  0  0  0
 22 24  1  0  0  0  0
 23 25  1  0  0  0  0
 24 23  2  0  0  0  0
 25 26  1  0  0  0  0
 26 27  1  0  0  0  0
M  END
>  <MODEL>
9

>  <REMARK>
 VINA RESULT:      -6.4      4.117      6.215
  Name = 
  4 active torsions:
  status: ('A' for Active; 'I' for Inactive)
    1  A    between atoms: C_7  and  C_11
    2  A    between atoms: C_7  and  C_25
    3  A    between atoms: C_9  and  N_15
    4  A    between atoms: C_9  and  C_27
                            x       y       z     vdW  Elec       q    Type
                         _______ _______ _______ _____ _____    ______ ____

>  <TORSDO>
F 4

$$$$
