=
 OpenBabel11052412193D

 30 36  0  0  1  0  0  0  0  0999 V2000
  190.1220  177.3080  145.0970 C   0  0  0  0  0  0  0  0  0  0  0  0
  191.2030  176.5320  145.0630 C   0  0  0  0  0  3  0  0  0  0  0  0
  190.1580  178.5200  145.7770 O   0  0  0  0  0  1  0  0  0  0  0  0
  189.2670  176.3590  142.9530 C   0  0  2  0  0  3  0  0  0  0  0  0
  191.1440  175.2040  144.3640 C   0  0  0  0  0  2  0  0  0  0  0  0
  188.8830  176.8520  144.3740 C   0  0  2  0  0  3  0  0  0  0  0  0
  190.3640  175.2650  143.0360 C   0  0  0  0  0  2  0  0  0  0  0  0
  187.8540  177.8860  144.3590 N   0  0  2  0  0  0  0  0  0  0  0  0
  186.6510  177.3160  144.9900 C   0  0  2  0  0  3  0  0  0  0  0  0
  186.7500  177.3970  143.5140 C   0  0  1  0  0  3  0  0  0  0  0  0
  183.5730  178.4590  142.6420 N   0  0  0  0  0  0  0  0  0  0  0  0
  184.6830  178.8250  143.4860 C   0  0  1  0  0  0  0  0  0  0  0  0
  185.7160  178.2040  141.1100 S   0  0  0  0  0  0  0  0  0  0  0  0
  186.0490  178.5940  142.8620 C   0  0  2  0  0  3  0  0  0  0  0  0
  184.4650  180.0410  144.3460 C   0  0  0  0  0  2  0  0  0  0  0  0
  183.0200  177.7110  140.4730 N   0  0  0  0  0  1  0  0  0  0  0  0
  183.9560  178.1340  141.4560 C   0  0  0  0  0  0  0  0  0  0  0  0
  185.8480  178.4410  145.6540 C   0  0  0  0  0  2  0  0  0  0  0  0
  184.4950  178.6450  144.9770 C   0  0  2  0  0  3  0  0  0  0  0  0
  191.8930  177.2910  140.3630 S   0  0  0  0  0  0  0  0  0  0  0  0
  190.2600  177.1300  139.5690 C   0  0  1  0  0  3  0  0  0  0  0  0
  191.1550  177.7130  141.9250 C   0  0  0  0  0  0  0  0  0  0  0  0
  189.1430  177.2590  140.5920 C   0  0  2  0  0  3  0  0  0  0  0  0
  191.7190  178.6630  142.6650 C   0  0  0  0  0  2  0  0  0  0  0  0
  189.4640  178.4200  139.6670 C   0  0  2  0  0  3  0  0  0  0  0  0
  189.6750  177.5150  142.0050 C   0  0  1  0  0  3  0  0  0  0  0  0
  188.4340  178.4600  138.5540 C   0  0  0  0  0  2  0  0  0  0  0  0
  189.0530  178.9940  137.2700 C   0  0  0  0  0  2  0  0  0  0  0  0
  188.9140  177.9980  136.1290 C   0  0  0  0  0  2  0  0  0  0  0  0
  188.0170  176.8450  136.5370 C   0  0  0  0  0  1  0  0  0  0  0  0
  1  3  1  0  0  0  0
  2  1  2  0  0  0  0
  4  7  1  1  0  0  0
  4  6  1  0  0  0  0
  5  2  1  0  0  0  0
  6  1  1  6  0  0  0
  7  5  1  0  0  0  0
  8  6  1  6  0  0  0
  8  9  1  0  0  0  0
  9 18  1  1  0  0  0
 10  8  1  0  0  0  0
 10  9  1  0  0  0  0
 11 12  1  0  0  0  0
 12 15  1  0  0  0  0
 12 19  1  0  0  0  0
 13 17  1  0  0  0  0
 13 14  1  0  0  0  0
 14 12  1  0  0  0  0
 14 10  1  0  0  0  0
 15 19  1  0  0  0  0
 16 17  1  0  0  0  0
 17 11  2  0  0  0  0
 19 18  1  0  0  0  0
 20 22  1  0  0  0  0
 21 25  1  0  0  0  0
 21 20  1  0  0  0  0
 21 23  1  0  0  0  0
 22 26  1  0  0  0  0
 22 24  2  0  0  0  0
 23 26  1  0  0  0  0
 25 23  1  0  0  0  0
 26  4  1  0  0  0  0
 27 25  1  0  0  0  0
 28 27  1  0  0  0  0
 29 30  1  0  0  0  0
 29 28  1  0  0  0  0
M  END
>  <MODEL>
1

>  <REMARK>
 VINA RESULT:      -6.7      0.000      0.000
  Name = 
  5 active torsions:
  status: ('A' for Active; 'I' for Inactive)
    1  A    between atoms: N_1  and  C_22
    2  A    between atoms: C_7  and  C_15
    3  A    between atoms: C_15  and  C_16
    4  A    between atoms: C_16  and  C_25
    5  A    between atoms: C_19  and  C_29
                            x       y       z     vdW  Elec       q    Type
                         _______ _______ _______ _____ _____    ______ ____

>  <TORSDO>
F 5

$$$$
=
 OpenBabel11052412193D

 30 36  0  0  1  0  0  0  0  0999 V2000
  187.6550  175.5990  135.7130 C   0  0  0  0  0  0  0  0  0  0  0  0
  188.7640  175.7470  134.9910 C   0  0  0  0  0  3  0  0  0  0  0  0
  187.0620  174.3460  135.8240 O   0  0  0  0  0  1  0  0  0  0  0  0
  188.2190  177.5660  137.1420 C   0  0  2  0  0  3  0  0  0  0  0  0
  189.3750  177.1100  134.8380 C   0  0  0  0  0  2  0  0  0  0  0  0
  187.0810  176.8030  136.4100 C   0  0  2  0  0  3  0  0  0  0  0  0
  189.3590  177.9200  136.1500 C   0  0  0  0  0  2  0  0  0  0  0  0
  185.9790  176.4400  137.2950 N   0  0  2  0  0  0  0  0  0  0  0  0
  184.7690  176.3300  136.4630 C   0  0  2  0  0  3  0  0  0  0  0  0
  185.0100  177.5500  137.2680 C   0  0  1  0  0  3  0  0  0  0  0  0
  181.8610  178.1880  138.5590 N   0  0  0  0  0  0  0  0  0  0  0  0
  182.8480  177.1380  138.4800 C   0  0  1  0  0  0  0  0  0  0  0  0
  184.1620  179.3600  139.1410 S   0  0  0  0  0  0  0  0  0  0  0  0
  184.2830  177.6150  138.6160 C   0  0  2  0  0  3  0  0  0  0  0  0
  182.4460  175.8290  139.1040 C   0  0  0  0  0  2  0  0  0  0  0  0
  181.5930  180.4950  138.9760 N   0  0  0  0  0  1  0  0  0  0  0  0
  182.3880  179.3200  138.8740 C   0  0  0  0  0  0  0  0  0  0  0  0
  183.8140  175.3090  137.0940 C   0  0  0  0  0  2  0  0  0  0  0  0
  182.5240  175.9650  137.5800 C   0  0  2  0  0  3  0  0  0  0  0  0
  191.2810  177.3150  139.3840 S   0  0  0  0  0  0  0  0  0  0  0  0
  189.8740  177.9990  140.3200 C   0  0  1  0  0  3  0  0  0  0  0  0
  190.1950  176.4450  138.2780 C   0  0  0  0  0  0  0  0  0  0  0  0
  188.5550  177.6550  139.6470 C   0  0  2  0  0  3  0  0  0  0  0  0
  190.5230  175.2140  137.8930 C   0  0  0  0  0  2  0  0  0  0  0  0
  188.9950  176.8980  140.8870 C   0  0  2  0  0  3  0  0  0  0  0  0
  188.7490  176.8090  138.3850 C   0  0  1  0  0  3  0  0  0  0  0  0
  188.2320  177.4310  142.0850 C   0  0  0  0  0  2  0  0  0  0  0  0
  188.2390  176.4160  143.2200 C   0  0  0  0  0  2  0  0  0  0  0  0
  188.1400  177.0980  144.5770 C   0  0  0  0  0  2  0  0  0  0  0  0
  186.6930  177.4070  144.9110 C   0  0  0  0  0  1  0  0  0  0  0  0
  1  3  1  0  0  0  0
  2  1  2  0  0  0  0
  4  7  1  6  0  0  0
  4 26  1  0  0  0  0
  5  2  1  0  0  0  0
  5  7  1  0  0  0  0
  6  1  1  1  0  0  0
  6  4  1  0  0  0  0
  8  6  1  6  0  0  0
  9 18  1  1  0  0  0
  9 10  1  0  0  0  0
  9  8  1  0  0  0  0
 10  8  1  0  0  0  0
 10 14  1  0  0  0  0
 11 17  2  0  0  0  0
 12 11  1  0  0  0  0
 12 14  1  0  0  0  0
 12 15  1  0  0  0  0
 14 13  1  0  0  0  0
 17 16  1  0  0  0  0
 17 13  1  0  0  0  0
 18 19  1  0  0  0  0
 19 12  1  0  0  0  0
 19 15  1  0  0  0  0
 20 21  1  0  0  0  0
 21 25  1  0  0  0  0
 22 26  1  0  0  0  0
 22 20  1  0  0  0  0
 23 21  1  0  0  0  0
 23 25  1  0  0  0  0
 24 22  2  0  0  0  0
 25 27  1  0  0  0  0
 26 23  1  0  0  0  0
 27 28  1  0  0  0  0
 28 29  1  0  0  0  0
 29 30  1  0  0  0  0
M  END
>  <MODEL>
2

>  <REMARK>
 VINA RESULT:      -6.3      3.254      6.692
  Name = 
  5 active torsions:
  status: ('A' for Active; 'I' for Inactive)
    1  A    between atoms: N_1  and  C_22
    2  A    between atoms: C_7  and  C_15
    3  A    between atoms: C_15  and  C_16
    4  A    between atoms: C_16  and  C_25
    5  A    between atoms: C_19  and  C_29
                            x       y       z     vdW  Elec       q    Type
                         _______ _______ _______ _____ _____    ______ ____

>  <TORSDO>
F 5

$$$$
=
 OpenBabel11052412193D

 30 36  0  0  1  0  0  0  0  0999 V2000
  182.4190  178.6450  141.7090 C   0  0  0  0  0  0  0  0  0  0  0  0
  181.1420  179.0040  141.5940 C   0  0  0  0  0  3  0  0  0  0  0  0
  182.8710  178.0520  142.8830 O   0  0  0  0  0  1  0  0  0  0  0  0
  182.6600  178.3880  139.2380 C   0  0  2  0  0  3  0  0  0  0  0  0
  180.6710  179.6830  140.3410 C   0  0  0  0  0  2  0  0  0  0  0  0
  183.3430  178.8790  140.5430 C   0  0  2  0  0  3  0  0  0  0  0  0
  181.2730  179.0620  139.0640 C   0  0  0  0  0  2  0  0  0  0  0  0
  184.6520  178.2750  140.7620 N   0  0  2  0  0  0  0  0  0  0  0  0
  185.5640  179.3500  141.1890 C   0  0  2  0  0  3  0  0  0  0  0  0
  185.5810  178.8730  139.7870 C   0  0  1  0  0  3  0  0  0  0  0  0
  188.9760  178.7410  139.1180 N   0  0  0  0  0  0  0  0  0  0  0  0
  188.0000  178.2520  140.0620 C   0  0  1  0  0  0  0  0  0  0  0  0
  186.9580  177.8790  137.6380 S   0  0  0  0  0  0  0  0  0  0  0  0
  186.6720  177.8530  139.4410 C   0  0  2  0  0  3  0  0  0  0  0  0
  188.5560  177.4340  141.1960 C   0  0  0  0  0  2  0  0  0  0  0  0
  189.3760  179.0600  136.8150 N   0  0  0  0  0  1  0  0  0  0  0  0
  188.5760  178.6110  137.9010 C   0  0  0  0  0  0  0  0  0  0  0  0
  186.6520  178.7590  142.0940 C   0  0  0  0  0  2  0  0  0  0  0  0
  188.0340  178.8520  141.4510 C   0  0  2  0  0  3  0  0  0  0  0  0
  180.8240  175.6220  137.3800 S   0  0  0  0  0  0  0  0  0  0  0  0
  182.5930  175.6030  136.9420 C   0  0  1  0  0  3  0  0  0  0  0  0
  181.1660  176.3510  138.9660 C   0  0  0  0  0  0  0  0  0  0  0  0
  183.4210  176.3210  137.9960 C   0  0  2  0  0  3  0  0  0  0  0  0
  180.4840  175.9280  140.0260 C   0  0  0  0  0  2  0  0  0  0  0  0
  183.4050  174.8030  137.9450 C   0  0  2  0  0  3  0  0  0  0  0  0
  182.5650  176.8430  139.1530 C   0  0  1  0  0  3  0  0  0  0  0  0
  184.6840  174.3200  137.2850 C   0  0  0  0  0  2  0  0  0  0  0  0
  184.9250  172.8500  137.5960 C   0  0  0  0  0  2  0  0  0  0  0  0
  184.4410  171.9550  136.4650 C   0  0  0  0  0  2  0  0  0  0  0  0
  183.1360  171.2810  136.8440 C   0  0  0  0  0  1  0  0  0  0  0  0
  1  3  1  0  0  0  0
  2  1  2  0  0  0  0
  4  7  1  1  0  0  0
  4  6  1  0  0  0  0
  5  2  1  0  0  0  0
  6  1  1  1  0  0  0
  7  5  1  0  0  0  0
  8  6  1  6  0  0  0
  8  9  1  0  0  0  0
  9 18  1  1  0  0  0
 10  8  1  0  0  0  0
 10  9  1  0  0  0  0
 11 12  1  0  0  0  0
 12 15  1  0  0  0  0
 12 19  1  0  0  0  0
 13 17  1  0  0  0  0
 13 14  1  0  0  0  0
 14 10  1  0  0  0  0
 14 12  1  0  0  0  0
 15 19  1  0  0  0  0
 16 17  1  0  0  0  0
 17 11  2  0  0  0  0
 19 18  1  0  0  0  0
 20 22  1  0  0  0  0
 21 20  1  0  0  0  0
 21 25  1  0  0  0  0
 21 23  1  0  0  0  0
 22 26  1  0  0  0  0
 22 24  2  0  0  0  0
 23 26  1  0  0  0  0
 25 23  1  0  0  0  0
 26  4  1  0  0  0  0
 27 28  1  0  0  0  0
 27 25  1  0  0  0  0
 29 30  1  0  0  0  0
 29 28  1  0  0  0  0
M  END
>  <MODEL>
3

>  <REMARK>
 VINA RESULT:      -6.0      4.196      7.619
  Name = 
  5 active torsions:
  status: ('A' for Active; 'I' for Inactive)
    1  A    between atoms: N_1  and  C_22
    2  A    between atoms: C_7  and  C_15
    3  A    between atoms: C_15  and  C_16
    4  A    between atoms: C_16  and  C_25
    5  A    between atoms: C_19  and  C_29
                            x       y       z     vdW  Elec       q    Type
                         _______ _______ _______ _____ _____    ______ ____

>  <TORSDO>
F 5

$$$$
=
 OpenBabel11052412193D

 30 36  0  0  1  0  0  0  0  0999 V2000
  190.4970  176.3510  143.1240 C   0  0  0  0  0  0  0  0  0  0  0  0
  190.7620  176.8310  144.3370 C   0  0  0  0  0  3  0  0  0  0  0  0
  190.5220  174.9790  142.8990 O   0  0  0  0  0  1  0  0  0  0  0  0
  189.1110  178.3450  142.5440 C   0  0  2  0  0  3  0  0  0  0  0  0
  190.7770  178.3150  144.5630 C   0  0  0  0  0  2  0  0  0  0  0  0
  190.1550  177.3200  142.0230 C   0  0  2  0  0  3  0  0  0  0  0  0
  189.6290  179.0400  143.8310 C   0  0  0  0  0  2  0  0  0  0  0  0
  189.7210  176.6310  140.8130 N   0  0  2  0  0  0  0  0  0  0  0  0
  190.7090  176.9290  139.7620 C   0  0  2  0  0  3  0  0  0  0  0  0
  189.4220  177.6620  139.8030 C   0  0  1  0  0  3  0  0  0  0  0  0
  188.5360  177.7410  136.4570 N   0  0  0  0  0  0  0  0  0  0  0  0
  188.9000  176.8100  137.4980 C   0  0  1  0  0  0  0  0  0  0  0  0
  187.1180  178.4770  138.5670 S   0  0  0  0  0  0  0  0  0  0  0  0
  188.3270  177.1420  138.8640 C   0  0  2  0  0  3  0  0  0  0  0  0
  188.9930  175.3710  137.0700 C   0  0  0  0  0  2  0  0  0  0  0  0
  187.2010  179.6320  136.0020 N   0  0  0  0  0  1  0  0  0  0  0  0
  187.6720  178.6040  136.8640 C   0  0  0  0  0  0  0  0  0  0  0  0
  190.7630  175.7580  138.7730 C   0  0  0  0  0  2  0  0  0  0  0  0
  190.2640  176.1630  137.3880 C   0  0  2  0  0  3  0  0  0  0  0  0
  185.9850  178.7050  144.6820 S   0  0  0  0  0  0  0  0  0  0  0  0
  185.6130  179.1370  142.9500 C   0  0  1  0  0  3  0  0  0  0  0  0
  187.3120  177.6280  144.1880 C   0  0  0  0  0  0  0  0  0  0  0  0
  186.6480  178.5420  142.0080 C   0  0  2  0  0  3  0  0  0  0  0  0
  187.4700  176.4720  144.8250 C   0  0  0  0  0  2  0  0  0  0  0  0
  185.2760  177.9030  142.1300 C   0  0  2  0  0  3  0  0  0  0  0  0
  187.7070  177.7220  142.7490 C   0  0  1  0  0  3  0  0  0  0  0  0
  184.4350  178.3100  140.9340 C   0  0  0  0  0  2  0  0  0  0  0  0
  182.9940  178.5620  141.3520 C   0  0  0  0  0  2  0  0  0  0  0  0
  182.0210  177.7400  140.5190 C   0  0  0  0  0  2  0  0  0  0  0  0
  182.7710  176.7250  139.6770 C   0  0  0  0  0  1  0  0  0  0  0  0
  1  2  2  0  0  0  0
  2  5  1  0  0  0  0
  3  1  1  0  0  0  0
  4 26  1  0  0  0  0
  4  7  1  1  0  0  0
  6  4  1  0  0  0  0
  6  1  1  1  0  0  0
  7  5  1  0  0  0  0
  8  6  1  1  0  0  0
  9 18  1  6  0  0  0
  9 10  1  0  0  0  0
  9  8  1  0  0  0  0
 10  8  1  0  0  0  0
 11 17  2  0  0  0  0
 11 12  1  0  0  0  0
 12 14  1  0  0  0  0
 13 14  1  0  0  0  0
 14 10  1  0  0  0  0
 15 19  1  0  0  0  0
 15 12  1  0  0  0  0
 16 17  1  0  0  0  0
 17 13  1  0  0  0  0
 19 12  1  0  0  0  0
 19 18  1  0  0  0  0
 21 20  1  0  0  0  0
 22 20  1  0  0  0  0
 22 24  2  0  0  0  0
 23 25  1  0  0  0  0
 23 26  1  0  0  0  0
 23 21  1  0  0  0  0
 25 21  1  0  0  0  0
 26 22  1  0  0  0  0
 27 28  1  0  0  0  0
 27 25  1  0  0  0  0
 29 28  1  0  0  0  0
 30 29  1  0  0  0  0
M  END
>  <MODEL>
4

>  <REMARK>
 VINA RESULT:      -5.9      2.614      5.785
  Name = 
  5 active torsions:
  status: ('A' for Active; 'I' for Inactive)
    1  A    between atoms: N_1  and  C_22
    2  A    between atoms: C_7  and  C_15
    3  A    between atoms: C_15  and  C_16
    4  A    between atoms: C_16  and  C_25
    5  A    between atoms: C_19  and  C_29
                            x       y       z     vdW  Elec       q    Type
                         _______ _______ _______ _____ _____    ______ ____

>  <TORSDO>
F 5

$$$$
=
 OpenBabel11052412193D

 30 36  0  0  1  0  0  0  0  0999 V2000
  180.1620  179.0300  143.3980 C   0  0  0  0  0  0  0  0  0  0  0  0
  179.0290  179.5810  142.9680 C   0  0  0  0  0  3  0  0  0  0  0  0
  180.1340  178.1030  144.4340 O   0  0  0  0  0  1  0  0  0  0  0  0
  181.2700  179.3740  141.1880 C   0  0  2  0  0  3  0  0  0  0  0  0
  179.0710  180.6130  141.8790 C   0  0  0  0  0  2  0  0  0  0  0  0
  181.4540  179.4190  142.7290 C   0  0  2  0  0  3  0  0  0  0  0  0
  180.0690  180.2570  140.7580 C   0  0  0  0  0  2  0  0  0  0  0  0
  182.5700  178.6020  143.1940 N   0  0  2  0  0  0  0  0  0  0  0  0
  183.4490  179.4760  143.9900 C   0  0  2  0  0  3  0  0  0  0  0  0
  183.7970  179.1500  142.5880 C   0  0  1  0  0  3  0  0  0  0  0  0
  187.2030  178.5690  142.8130 N   0  0  0  0  0  0  0  0  0  0  0  0
  185.9530  178.1410  143.3920 C   0  0  1  0  0  0  0  0  0  0  0  0
  185.5860  178.1830  140.7530 S   0  0  0  0  0  0  0  0  0  0  0  0
  184.8110  178.0160  142.3970 C   0  0  2  0  0  3  0  0  0  0  0  0
  186.0710  177.1350  144.5050 C   0  0  0  0  0  2  0  0  0  0  0  0
  188.2600  179.0600  140.7620 N   0  0  0  0  0  1  0  0  0  0  0  0
  187.1430  178.6290  141.5280 C   0  0  0  0  0  0  0  0  0  0  0  0
  184.1650  178.6360  145.0540 C   0  0  0  0  0  2  0  0  0  0  0  0
  185.6720  178.5820  144.8120 C   0  0  2  0  0  3  0  0  0  0  0  0
  179.6220  177.3850  138.3950 S   0  0  0  0  0  0  0  0  0  0  0  0
  181.4320  177.3870  138.1780 C   0  0  1  0  0  3  0  0  0  0  0  0
  179.7750  177.5990  140.1540 C   0  0  0  0  0  0  0  0  0  0  0  0
  182.1350  177.7150  139.4860 C   0  0  2  0  0  3  0  0  0  0  0  0
  178.9540  176.9270  140.9550 C   0  0  0  0  0  2  0  0  0  0  0  0
  182.0900  176.2820  138.9860 C   0  0  2  0  0  3  0  0  0  0  0  0
  181.1500  177.9300  140.6390 C   0  0  1  0  0  3  0  0  0  0  0  0
  183.4300  175.9350  138.3650 C   0  0  0  0  0  2  0  0  0  0  0  0
  183.9530  177.0990  137.5340 C   0  0  0  0  0  2  0  0  0  0  0  0
  185.2080  176.7150  136.7650 C   0  0  0  0  0  2  0  0  0  0  0  0
  186.3130  177.7230  137.0150 C   0  0  0  0  0  1  0  0  0  0  0  0
  1  3  1  0  0  0  0
  2  1  2  0  0  0  0
  4  7  1  1  0  0  0
  4  6  1  0  0  0  0
  5  2  1  0  0  0  0
  6  1  1  1  0  0  0
  7  5  1  0  0  0  0
  8  6  1  6  0  0  0
  8  9  1  0  0  0  0
  9 18  1  1  0  0  0
 10  8  1  0  0  0  0
 10  9  1  0  0  0  0
 11 12  1  0  0  0  0
 12 15  1  0  0  0  0
 12 19  1  0  0  0  0
 13 17  1  0  0  0  0
 13 14  1  0  0  0  0
 14 10  1  0  0  0  0
 14 12  1  0  0  0  0
 15 19  1  0  0  0  0
 16 17  1  0  0  0  0
 17 11  2  0  0  0  0
 19 18  1  0  0  0  0
 20 22  1  0  0  0  0
 21 20  1  0  0  0  0
 21 25  1  0  0  0  0
 21 23  1  0  0  0  0
 22 26  1  0  0  0  0
 22 24  2  0  0  0  0
 23 26  1  0  0  0  0
 25 23  1  0  0  0  0
 26  4  1  0  0  0  0
 27 25  1  0  0  0  0
 28 27  1  0  0  0  0
 29 30  1  0  0  0  0
 29 28  1  0  0  0  0
M  END
>  <MODEL>
5

>  <REMARK>
 VINA RESULT:      -5.8      3.780      7.660
  Name = 
  5 active torsions:
  status: ('A' for Active; 'I' for Inactive)
    1  A    between atoms: N_1  and  C_22
    2  A    between atoms: C_7  and  C_15
    3  A    between atoms: C_15  and  C_16
    4  A    between atoms: C_16  and  C_25
    5  A    between atoms: C_19  and  C_29
                            x       y       z     vdW  Elec       q    Type
                         _______ _______ _______ _____ _____    ______ ____

>  <TORSDO>
F 5

$$$$
=
 OpenBabel11052412193D

 30 36  0  0  1  0  0  0  0  0999 V2000
  191.1450  176.9020  145.2790 C   0  0  0  0  0  0  0  0  0  0  0  0
  192.0090  176.0580  144.7200 C   0  0  0  0  0  3  0  0  0  0  0  0
  191.6080  178.0350  145.9390 O   0  0  0  0  0  1  0  0  0  0  0  0
  189.3360  176.2350  143.6940 C   0  0  2  0  0  3  0  0  0  0  0  0
  191.5050  174.8140  144.0480 C   0  0  0  0  0  2  0  0  0  0  0  0
  189.6730  176.6100  145.1630 C   0  0  2  0  0  3  0  0  0  0  0  0
  190.2310  175.0620  143.2150 C   0  0  0  0  0  2  0  0  0  0  0  0
  188.8620  177.7120  145.6690 N   0  0  2  0  0  0  0  0  0  0  0  0
  187.9740  177.1600  146.7070 C   0  0  2  0  0  3  0  0  0  0  0  0
  187.4570  177.4110  145.3410 C   0  0  1  0  0  3  0  0  0  0  0  0
  184.3540  178.8020  145.9950 N   0  0  0  0  0  0  0  0  0  0  0  0
  185.7510  178.9810  146.3100 C   0  0  1  0  0  0  0  0  0  0  0  0
  185.6170  178.5750  143.6800 S   0  0  0  0  0  0  0  0  0  0  0  0
  186.6940  178.7260  145.1460 C   0  0  2  0  0  3  0  0  0  0  0  0
  186.0560  180.0970  147.2720 C   0  0  0  0  0  2  0  0  0  0  0  0
  182.8630  178.3640  144.2200 N   0  0  0  0  0  1  0  0  0  0  0  0
  184.1670  178.5950  144.7380 C   0  0  0  0  0  0  0  0  0  0  0  0
  187.6590  178.2540  147.7350 C   0  0  0  0  0  2  0  0  0  0  0  0
  186.1820  178.6380  147.7200 C   0  0  2  0  0  3  0  0  0  0  0  0
  190.8690  177.3130  140.3830 S   0  0  0  0  0  0  0  0  0  0  0  0
  189.0540  177.2180  140.2320 C   0  0  1  0  0  3  0  0  0  0  0  0
  190.7630  177.6370  142.1290 C   0  0  0  0  0  0  0  0  0  0  0  0
  188.3910  177.2890  141.5980 C   0  0  2  0  0  3  0  0  0  0  0  0
  191.5880  178.5320  142.6650 C   0  0  0  0  0  2  0  0  0  0  0  0
  188.3910  178.5050  140.6890 C   0  0  2  0  0  3  0  0  0  0  0  0
  189.4090  177.4480  142.7320 C   0  0  1  0  0  3  0  0  0  0  0  0
  187.0280  178.6280  140.0330 C   0  0  0  0  0  2  0  0  0  0  0  0
  187.0210  177.9340  138.6780 C   0  0  0  0  0  2  0  0  0  0  0  0
  185.7180  178.1810  137.9330 C   0  0  0  0  0  2  0  0  0  0  0  0
  184.6300  178.6180  138.8960 C   0  0  0  0  0  1  0  0  0  0  0  0
  1  3  1  0  0  0  0
  2  1  2  0  0  0  0
  4  7  1  6  0  0  0
  4  6  1  0  0  0  0
  5  2  1  0  0  0  0
  6  1  1  6  0  0  0
  7  5  1  0  0  0  0
  8  6  1  6  0  0  0
  8  9  1  0  0  0  0
  9 18  1  1  0  0  0
 10  8  1  0  0  0  0
 10  9  1  0  0  0  0
 11 12  1  0  0  0  0
 12 15  1  0  0  0  0
 12 19  1  0  0  0  0
 13 17  1  0  0  0  0
 13 14  1  0  0  0  0
 14 10  1  0  0  0  0
 14 12  1  0  0  0  0
 15 19  1  0  0  0  0
 16 17  1  0  0  0  0
 17 11  2  0  0  0  0
 19 18  1  0  0  0  0
 20 22  1  0  0  0  0
 21 20  1  0  0  0  0
 21 25  1  0  0  0  0
 21 23  1  0  0  0  0
 22 24  2  0  0  0  0
 22 26  1  0  0  0  0
 23 26  1  0  0  0  0
 25 23  1  0  0  0  0
 26  4  1  0  0  0  0
 27 25  1  0  0  0  0
 28 27  1  0  0  0  0
 29 28  1  0  0  0  0
 29 30  1  0  0  0  0
M  END
>  <MODEL>
6

>  <REMARK>
 VINA RESULT:      -5.7      1.705      2.303
  Name = 
  5 active torsions:
  status: ('A' for Active; 'I' for Inactive)
    1  A    between atoms: N_1  and  C_22
    2  A    between atoms: C_7  and  C_15
    3  A    between atoms: C_15  and  C_16
    4  A    between atoms: C_16  and  C_25
    5  A    between atoms: C_19  and  C_29
                            x       y       z     vdW  Elec       q    Type
                         _______ _______ _______ _____ _____    ______ ____

>  <TORSDO>
F 5

$$$$
=
 OpenBabel11052412193D

 30 36  0  0  1  0  0  0  0  0999 V2000
  182.4180  178.7620  140.8270 C   0  0  0  0  0  0  0  0  0  0  0  0
  181.7000  179.3470  139.8710 C   0  0  0  0  0  3  0  0  0  0  0  0
  181.8460  177.7700  141.6170 O   0  0  0  0  0  1  0  0  0  0  0  0
  184.5570  179.2400  139.6340 C   0  0  2  0  0  3  0  0  0  0  0  0
  182.3090  180.4470  139.0510 C   0  0  0  0  0  2  0  0  0  0  0  0
  183.8500  179.1850  141.0160 C   0  0  2  0  0  3  0  0  0  0  0  0
  183.7720  180.1570  138.6600 C   0  0  0  0  0  2  0  0  0  0  0  0
  184.5430  178.3320  141.9760 N   0  0  2  0  0  0  0  0  0  0  0  0
  184.8890  179.1720  143.1350 C   0  0  2  0  0  3  0  0  0  0  0  0
  185.9150  178.8520  142.1150 C   0  0  1  0  0  3  0  0  0  0  0  0
  188.6870  178.1760  144.0760 N   0  0  0  0  0  0  0  0  0  0  0  0
  187.3120  177.7760  143.9050 C   0  0  1  0  0  0  0  0  0  0  0  0
  188.3830  177.8590  141.4660 S   0  0  0  0  0  0  0  0  0  0  0  0
  186.8590  177.6940  142.4570 C   0  0  2  0  0  3  0  0  0  0  0  0
  186.8120  176.7540  144.8900 C   0  0  0  0  0  2  0  0  0  0  0  0
  190.6710  178.6610  142.8950 N   0  0  0  0  0  1  0  0  0  0  0  0
  189.3100  178.2520  142.9520 C   0  0  0  0  0  0  0  0  0  0  0  0
  184.9280  178.3000  144.3960 C   0  0  0  0  0  2  0  0  0  0  0  0
  186.3360  178.2080  144.9780 C   0  0  2  0  0  3  0  0  0  0  0  0
  184.0430  177.2480  136.4340 S   0  0  0  0  0  0  0  0  0  0  0  0
  185.8230  177.5100  136.7300 C   0  0  1  0  0  3  0  0  0  0  0  0
  183.6810  177.3560  138.1720 C   0  0  0  0  0  0  0  0  0  0  0  0
  186.0880  177.8370  138.1900 C   0  0  2  0  0  3  0  0  0  0  0  0
  182.7830  176.5250  138.6930 C   0  0  0  0  0  2  0  0  0  0  0  0
  186.3950  176.4500  137.6550 C   0  0  2  0  0  3  0  0  0  0  0  0
  184.8080  177.8350  139.0300 C   0  0  1  0  0  3  0  0  0  0  0  0
  187.8900  176.3320  137.4200 C   0  0  0  0  0  2  0  0  0  0  0  0
  188.5040  177.7050  137.1840 C   0  0  0  0  0  2  0  0  0  0  0  0
  189.8050  177.8720  137.9540 C   0  0  0  0  0  2  0  0  0  0  0  0
  190.3310  176.5230  138.4080 C   0  0  0  0  0  1  0  0  0  0  0  0
  1  3  1  0  0  0  0
  2  1  2  0  0  0  0
  4  7  1  6  0  0  0
  4  6  1  0  0  0  0
  5  2  1  0  0  0  0
  6  1  1  6  0  0  0
  7  5  1  0  0  0  0
  8  6  1  6  0  0  0
  8 10  1  0  0  0  0
  8  9  1  0  0  0  0
  9 18  1  1  0  0  0
 10 14  1  0  0  0  0
 10  9  1  0  0  0  0
 12 11  1  0  0  0  0
 12 15  1  0  0  0  0
 12 19  1  0  0  0  0
 13 14  1  0  0  0  0
 13 17  1  0  0  0  0
 14 12  1  0  0  0  0
 15 19  1  0  0  0  0
 16 17  1  0  0  0  0
 17 11  2  0  0  0  0
 18 19  1  0  0  0  0
 20 21  1  0  0  0  0
 20 22  1  0  0  0  0
 21 25  1  0  0  0  0
 21 23  1  0  0  0  0
 22 24  2  0  0  0  0
 22 26  1  0  0  0  0
 23 26  1  0  0  0  0
 25 23  1  0  0  0  0
 26  4  1  0  0  0  0
 27 25  1  0  0  0  0
 28 27  1  0  0  0  0
 28 29  1  0  0  0  0
 29 30  1  0  0  0  0
M  END
>  <MODEL>
7

>  <REMARK>
 VINA RESULT:      -5.5      2.797      6.201
  Name = 
  5 active torsions:
  status: ('A' for Active; 'I' for Inactive)
    1  A    between atoms: N_1  and  C_22
    2  A    between atoms: C_7  and  C_15
    3  A    between atoms: C_15  and  C_16
    4  A    between atoms: C_16  and  C_25
    5  A    between atoms: C_19  and  C_29
                            x       y       z     vdW  Elec       q    Type
                         _______ _______ _______ _____ _____    ______ ____

>  <TORSDO>
F 5

$$$$
=
 OpenBabel11052412193D

 30 36  0  0  1  0  0  0  0  0999 V2000
  182.4410  177.6060  137.3530 C   0  0  0  0  0  0  0  0  0  0  0  0
  181.2590  177.0720  137.6520 C   0  0  0  0  0  3  0  0  0  0  0  0
  182.5140  178.6860  136.4800 O   0  0  0  0  0  1  0  0  0  0  0  0
  183.4300  176.8410  139.5130 C   0  0  2  0  0  3  0  0  0  0  0  0
  181.1910  175.8780  138.5600 C   0  0  0  0  0  2  0  0  0  0  0  0
  183.6760  177.0290  137.9920 C   0  0  2  0  0  3  0  0  0  0  0  0
  182.1600  175.9830  139.7550 C   0  0  0  0  0  2  0  0  0  0  0  0
  184.8590  177.8320  137.7020 N   0  0  2  0  0  0  0  0  0  0  0  0
  185.7770  176.9910  136.9150 C   0  0  2  0  0  3  0  0  0  0  0  0
  186.0040  177.1840  138.3660 C   0  0  1  0  0  3  0  0  0  0  0  0
  189.4350  177.6320  138.4990 N   0  0  0  0  0  0  0  0  0  0  0  0
  188.2600  178.1610  137.8490 C   0  0  1  0  0  0  0  0  0  0  0  0
  187.6480  177.9150  140.4310 S   0  0  0  0  0  0  0  0  0  0  0  0
  187.0360  178.2530  138.7440 C   0  0  2  0  0  3  0  0  0  0  0  0
  188.5170  179.2500  136.8430 C   0  0  0  0  0  2  0  0  0  0  0  0
  190.2780  176.9270  140.5860 N   0  0  0  0  0  1  0  0  0  0  0  0
  189.2530  177.4680  139.7630 C   0  0  0  0  0  0  0  0  0  0  0  0
  186.6190  177.8850  135.9970 C   0  0  0  0  0  2  0  0  0  0  0  0
  188.0980  177.8530  136.3770 C   0  0  2  0  0  3  0  0  0  0  0  0
  181.4560  178.6280  142.2300 S   0  0  0  0  0  0  0  0  0  0  0  0
  183.1510  178.2890  142.8080 C   0  0  1  0  0  3  0  0  0  0  0  0
  181.9810  178.6620  140.5310 C   0  0  0  0  0  0  0  0  0  0  0  0
  184.0870  178.0510  141.6340 C   0  0  2  0  0  3  0  0  0  0  0  0
  181.4600  179.5760  139.7180 C   0  0  0  0  0  2  0  0  0  0  0  0
  184.1150  179.3790  142.3710 C   0  0  2  0  0  3  0  0  0  0  0  0
  183.3750  178.1830  140.2850 C   0  0  1  0  0  3  0  0  0  0  0  0
  185.3100  179.3960  143.3070 C   0  0  0  0  0  2  0  0  0  0  0  0
  185.7150  177.9790  143.6860 C   0  0  0  0  0  2  0  0  0  0  0  0
  186.0600  177.8750  145.1640 C   0  0  0  0  0  2  0  0  0  0  0  0
  185.3090  178.9260  145.9590 C   0  0  0  0  0  1  0  0  0  0  0  0
  1  2  2  0  0  0  0
  2  5  1  0  0  0  0
  3  1  1  0  0  0  0
  4  7  1  6  0  0  0
  4 26  1  0  0  0  0
  5  7  1  0  0  0  0
  6  1  1  1  0  0  0
  6  4  1  0  0  0  0
  8  6  1  1  0  0  0
  8 10  1  0  0  0  0
  9 18  1  6  0  0  0
  9  8  1  0  0  0  0
  9 10  1  0  0  0  0
 10 14  1  0  0  0  0
 11 17  2  0  0  0  0
 12 11  1  0  0  0  0
 12 14  1  0  0  0  0
 14 13  1  0  0  0  0
 15 12  1  0  0  0  0
 17 13  1  0  0  0  0
 17 16  1  0  0  0  0
 18 19  1  0  0  0  0
 19 15  1  0  0  0  0
 19 12  1  0  0  0  0
 20 21  1  0  0  0  0
 22 20  1  0  0  0  0
 23 25  1  0  0  0  0
 23 21  1  0  0  0  0
 24 22  2  0  0  0  0
 25 21  1  0  0  0  0
 25 27  1  0  0  0  0
 26 22  1  0  0  0  0
 26 23  1  0  0  0  0
 27 28  1  0  0  0  0
 28 29  1  0  0  0  0
 29 30  1  0  0  0  0
M  END
>  <MODEL>
8

>  <REMARK>
 VINA RESULT:      -5.4      3.572      8.391
  Name = 
  5 active torsions:
  status: ('A' for Active; 'I' for Inactive)
    1  A    between atoms: N_1  and  C_22
    2  A    between atoms: C_7  and  C_15
    3  A    between atoms: C_15  and  C_16
    4  A    between atoms: C_16  and  C_25
    5  A    between atoms: C_19  and  C_29
                            x       y       z     vdW  Elec       q    Type
                         _______ _______ _______ _____ _____    ______ ____

>  <TORSDO>
F 5

$$$$
=
 OpenBabel11052412193D

 30 36  0  0  1  0  0  0  0  0999 V2000
  184.1270  178.6010  140.1320 C   0  0  0  0  0  0  0  0  0  0  0  0
  182.8930  179.0930  140.0560 C   0  0  0  0  0  3  0  0  0  0  0  0
  184.6600  178.2480  141.3660 O   0  0  0  0  0  1  0  0  0  0  0  0
  184.0160  177.7310  137.7940 C   0  0  2  0  0  3  0  0  0  0  0  0
  182.3400  179.5120  138.7250 C   0  0  0  0  0  2  0  0  0  0  0  0
  184.9120  178.4210  138.8590 C   0  0  2  0  0  3  0  0  0  0  0  0
  182.7010  178.5280  137.5940 C   0  0  0  0  0  2  0  0  0  0  0  0
  186.1660  177.7120  139.0930 N   0  0  2  0  0  0  0  0  0  0  0  0
  187.2410  178.7190  139.1020 C   0  0  2  0  0  3  0  0  0  0  0  0
  187.0040  177.8940  137.8950 C   0  0  1  0  0  3  0  0  0  0  0  0
  190.2310  177.1010  136.9230 N   0  0  0  0  0  0  0  0  0  0  0  0
  189.3540  177.0230  138.0660 C   0  0  1  0  0  0  0  0  0  0  0  0
  187.9390  176.1820  135.9720 S   0  0  0  0  0  0  0  0  0  0  0  0
  187.9150  176.6720  137.7300 C   0  0  2  0  0  3  0  0  0  0  0  0
  189.9750  176.4600  139.3160 C   0  0  0  0  0  2  0  0  0  0  0  0
  190.3270  176.7440  134.5940 N   0  0  0  0  0  1  0  0  0  0  0  0
  189.6480  176.7170  135.8420 C   0  0  0  0  0  0  0  0  0  0  0  0
  188.3780  178.2350  140.0110 C   0  0  0  0  0  2  0  0  0  0  0  0
  189.6540  177.9550  139.2210 C   0  0  2  0  0  3  0  0  0  0  0  0
  181.6410  174.8920  136.9170 S   0  0  0  0  0  0  0  0  0  0  0  0
  183.3150  174.5230  136.2960 C   0  0  1  0  0  3  0  0  0  0  0  0
  182.2880  175.9180  138.2180 C   0  0  0  0  0  0  0  0  0  0  0  0
  184.3610  175.3440  137.0330 C   0  0  2  0  0  3  0  0  0  0  0  0
  181.7280  175.8550  139.4220 C   0  0  0  0  0  2  0  0  0  0  0  0
  184.1740  173.8750  137.3680 C   0  0  2  0  0  3  0  0  0  0  0  0
  183.7440  176.2390  138.1120 C   0  0  1  0  0  3  0  0  0  0  0  0
  185.2830  173.0760  136.7070 C   0  0  0  0  0  2  0  0  0  0  0  0
  186.5200  173.0410  137.5930 C   0  0  0  0  0  2  0  0  0  0  0  0
  187.6320  172.2140  136.9650 C   0  0  0  0  0  2  0  0  0  0  0  0
  187.5580  172.2900  135.4520 C   0  0  0  0  0  1  0  0  0  0  0  0
  1  3  1  0  0  0  0
  2  1  2  0  0  0  0
  4  7  1  1  0  0  0
  4 26  1  0  0  0  0
  4  6  1  0  0  0  0
  5  2  1  0  0  0  0
  6  1  1  1  0  0  0
  7  5  1  0  0  0  0
  8  6  1  6  0  0  0
  8  9  1  0  0  0  0
  9 18  1  1  0  0  0
 10  8  1  0  0  0  0
 10  9  1  0  0  0  0
 11 12  1  0  0  0  0
 12 19  1  0  0  0  0
 12 15  1  0  0  0  0
 13 14  1  0  0  0  0
 14 10  1  0  0  0  0
 14 12  1  0  0  0  0
 16 17  1  0  0  0  0
 17 13  1  0  0  0  0
 17 11  2  0  0  0  0
 19 15  1  0  0  0  0
 19 18  1  0  0  0  0
 20 22  1  0  0  0  0
 21 20  1  0  0  0  0
 21 23  1  0  0  0  0
 21 25  1  0  0  0  0
 22 24  2  0  0  0  0
 23 25  1  0  0  0  0
 23 26  1  0  0  0  0
 26 22  1  0  0  0  0
 27 25  1  0  0  0  0
 27 28  1  0  0  0  0
 29 28  1  0  0  0  0
 30 29  1  0  0  0  0
M  END
>  <MODEL>
9

>  <REMARK>
 VINA RESULT:      -5.4      4.324      7.869
  Name = 
  5 active torsions:
  status: ('A' for Active; 'I' for Inactive)
    1  A    between atoms: N_1  and  C_22
    2  A    between atoms: C_7  and  C_15
    3  A    between atoms: C_15  and  C_16
    4  A    between atoms: C_16  and  C_25
    5  A    between atoms: C_19  and  C_29
                            x       y       z     vdW  Elec       q    Type
                         _______ _______ _______ _____ _____    ______ ____

>  <TORSDO>
F 5

$$$$
