=
 OpenBabel11052412363D

 30 32  0  0  1  0  0  0  0  0999 V2000
  189.9810  176.1590  143.5770 C   0  0  0  0  0  0  0  0  0  0  0  0
  190.4210  177.5820  147.6590 C   0  0  0  0  0  2  0  0  0  0  0  0
  189.3930  176.7990  146.8690 C   0  0  2  0  0  0  0  0  0  0  0  0
  190.9930  176.7940  144.3470 N   0  0  0  0  0  0  0  0  0  0  0  0
  190.2550  175.1420  142.8880 O   0  0  0  0  0  0  0  0  0  0  0  0
  190.8700  176.3880  146.8050 C   0  0  1  0  0  3  0  0  0  0  0  0
  191.7790  176.8150  145.6150 C   0  0  2  0  0  3  0  0  0  0  0  0
  188.5690  176.6560  143.6630 C   0  0  1  0  0  3  0  0  0  0  0  0
  188.7710  177.5090  145.7410 N   0  0  0  0  0  0  0  0  0  0  0  0
  188.5720  175.9770  147.6460 O   0  0  0  0  0  1  0  0  0  0  0  0
  191.5130  178.0270  145.0100 C   0  0  0  0  0  2  0  0  0  0  0  0
  188.0700  176.6070  144.9890 O   0  0  0  0  0  0  0  0  0  0  0  0
  188.3710  178.0210  142.9870 C   0  0  1  0  0  3  0  0  0  0  0  0
  189.6090  178.6130  142.7210 O   0  0  0  0  0  1  0  0  0  0  0  0
  187.5450  177.8830  141.7020 C   0  0  1  0  0  3  0  0  0  0  0  0
  186.5900  179.0580  141.4910 C   0  0  0  0  0  2  0  0  0  0  0  0
  184.8510  178.5380  141.3220 S   0  0  0  0  0  0  0  0  0  0  0  0
  183.5270  179.5860  139.1890 C   0  0  0  0  0  1  0  0  0  0  0  0
  184.8410  178.9280  139.5510 C   0  0  0  0  0  2  0  0  0  0  0  0
  188.3920  177.5730  140.4720 C   0  0  0  0  0  2  0  0  0  0  0  0
  188.3140  178.6740  139.5270 N   0  0  0  0  0  2  0  0  0  0  0  0
  189.9210  177.6180  138.0160 O   0  0  0  0  0  1  0  0  0  0  0  0
  188.9800  179.6490  137.5280 O   0  0  0  0  0  0  0  0  0  0  0  0
  189.0750  178.6780  138.3220 C   0  0  0  0  0  0  0  0  0  0  0  0
  187.8560  178.5480  146.2350 C   0  0  0  0  0  2  0  0  0  0  0  0
  186.4980  177.9990  146.6610 C   0  0  0  0  0  2  0  0  0  0  0  0
  185.4470  179.0840  146.5150 C   0  0  0  0  0  2  0  0  0  0  0  0
  184.8050  179.0500  145.1350 C   0  0  2  0  0  3  0  0  0  0  0  0
  183.4170  179.1430  145.2420 O   0  0  0  0  0  1  0  0  0  0  0  0
  185.1490  177.8880  144.4680 F   0  0  0  0  0  0  0  0  0  0  0  0
  1  8  1  0  0  0  0
  1  4  1  0  0  0  0
  3 10  1  1  0  0  0
  3  2  1  0  0  0  0
  4 11  1  0  0  0  0
  4  7  1  0  0  0  0
  5  1  2  0  0  0  0
  6  3  1  0  0  0  0
  6  2  1  1  0  0  0
  7 11  1  1  0  0  0
  7  6  1  0  0  0  0
  8 13  1  1  0  0  0
  8 12  1  0  0  0  0
  9 25  1  0  0  0  0
  9  3  1  0  0  0  0
 12  9  1  0  0  0  0
 13 14  1  6  0  0  0
 15 20  1  6  0  0  0
 15 13  1  0  0  0  0
 16 15  1  0  0  0  0
 17 16  1  0  0  0  0
 18 19  1  0  0  0  0
 19 17  1  0  0  0  0
 21 20  1  0  0  0  0
 22 24  1  0  0  0  0
 23 24  2  0  0  0  0
 24 21  1  0  0  0  0
 25 26  1  0  0  0  0
 27 26  1  0  0  0  0
 28 30  1  1  0  0  0
 28 29  1  0  0  0  0
 28 27  1  0  0  0  0
M  END
>  <MODEL>
1

>  <REMARK>
 VINA RESULT:      -6.9      0.000      0.000
  Name = 
  11 active torsions:
  status: ('A' for Active; 'I' for Inactive)
    1  A    between atoms: C_1  and  C_4
    2  A    between atoms: C_1  and  C_22
    3  A    between atoms: C_4  and  C_9
    4  A    between atoms: C_4  and  C_12
    5  A    between atoms: C_7  and  N_23
    6  A    between atoms: C_7  and  C_25
    7  A    between atoms: N_8  and  C_12
    8  A    between atoms: C_9  and  S_21
    9  A    between atoms: C_10  and  C_15
   10  A    between atoms: C_15  and  C_25
   11  A    between atoms: C_17  and  S_21
                            x       y       z     vdW  Elec       q    Type
                         _______ _______ _______ _____ _____    ______ ____

>  <TORSDO>
F 11

$$$$
=
 OpenBabel11052412363D

 30 32  0  0  1  0  0  0  0  0999 V2000
  190.8080  176.0140  143.4430 C   0  0  0  0  0  0  0  0  0  0  0  0
  188.0520  178.3540  145.8540 C   0  0  0  0  0  2  0  0  0  0  0  0
  187.9510  177.2460  144.8260 C   0  0  2  0  0  0  0  0  0  0  0  0
  190.9060  176.9730  144.4880 N   0  0  0  0  0  0  0  0  0  0  0  0
  191.4550  174.9370  143.5100 O   0  0  0  0  0  0  0  0  0  0  0  0
  188.9270  177.1010  146.0010 C   0  0  1  0  0  3  0  0  0  0  0  0
  190.4440  177.4120  145.8370 C   0  0  2  0  0  3  0  0  0  0  0  0
  189.8620  176.2580  142.3060 C   0  0  1  0  0  3  0  0  0  0  0  0
  188.4520  177.5680  143.4810 N   0  0  0  0  0  0  0  0  0  0  0  0
  186.7840  176.4810  144.9150 O   0  0  0  0  0  1  0  0  0  0  0  0
  190.8020  178.3940  144.9350 C   0  0  0  0  0  2  0  0  0  0  0  0
  188.5260  176.4130  142.7530 O   0  0  0  0  0  0  0  0  0  0  0  0
  190.3260  177.3830  141.3690 C   0  0  1  0  0  3  0  0  0  0  0  0
  191.7220  177.4480  141.3460 O   0  0  0  0  0  1  0  0  0  0  0  0
  189.7660  177.1870  139.9550 C   0  0  1  0  0  3  0  0  0  0  0  0
  188.8800  178.3510  139.5090 C   0  0  0  0  0  2  0  0  0  0  0  0
  188.9570  178.6540  137.7130 S   0  0  0  0  0  0  0  0  0  0  0  0
  186.2760  178.1890  137.7300 C   0  0  0  0  0  1  0  0  0  0  0  0
  187.5870  177.5090  137.3980 C   0  0  0  0  0  2  0  0  0  0  0  0
  190.8340  176.8220  138.9290 C   0  0  0  0  0  2  0  0  0  0  0  0
  190.8270  175.3870  138.6970 N   0  0  0  0  0  2  0  0  0  0  0  0
  190.4980  175.6790  136.2920 O   0  0  0  0  0  0  0  0  0  0  0  0
  190.6630  173.5960  137.2300 O   0  0  0  0  0  1  0  0  0  0  0  0
  190.6610  174.8430  137.3900 C   0  0  0  0  0  0  0  0  0  0  0  0
  187.5430  178.5100  142.8120 C   0  0  0  0  0  2  0  0  0  0  0  0
  186.1970  177.8900  142.4480 C   0  0  0  0  0  2  0  0  0  0  0  0
  185.1080  178.9400  142.5720 C   0  0  0  0  0  2  0  0  0  0  0  0
  184.4360  178.8810  143.9350 C   0  0  2  0  0  3  0  0  0  0  0  0
  183.1110  179.3090  143.8440 O   0  0  0  0  0  1  0  0  0  0  0  0
  185.1210  179.6620  144.8490 F   0  0  0  0  0  0  0  0  0  0  0  0
  1  5  2  0  0  0  0
  1  4  1  0  0  0  0
  3 10  1  1  0  0  0
  3  2  1  0  0  0  0
  3  6  1  0  0  0  0
  4 11  1  0  0  0  0
  4  7  1  0  0  0  0
  6  2  1  1  0  0  0
  7 11  1  6  0  0  0
  7  6  1  0  0  0  0
  8 13  1  1  0  0  0
  8 12  1  0  0  0  0
  8  1  1  0  0  0  0
  9  3  1  0  0  0  0
 12  9  1  0  0  0  0
 13 14  1  6  0  0  0
 15 20  1  6  0  0  0
 15 13  1  0  0  0  0
 16 15  1  0  0  0  0
 17 16  1  0  0  0  0
 19 17  1  0  0  0  0
 19 18  1  0  0  0  0
 21 20  1  0  0  0  0
 22 24  2  0  0  0  0
 23 24  1  0  0  0  0
 24 21  1  0  0  0  0
 25  9  1  0  0  0  0
 26 27  1  0  0  0  0
 26 25  1  0  0  0  0
 27 28  1  0  0  0  0
 28 29  1  6  0  0  0
 28 30  1  0  0  0  0
M  END
>  <MODEL>
2

>  <REMARK>
 VINA RESULT:      -6.7      2.304      3.074
  Name = 
  11 active torsions:
  status: ('A' for Active; 'I' for Inactive)
    1  A    between atoms: C_1  and  C_4
    2  A    between atoms: C_1  and  C_22
    3  A    between atoms: C_4  and  C_9
    4  A    between atoms: C_4  and  C_12
    5  A    between atoms: C_7  and  N_23
    6  A    between atoms: C_7  and  C_25
    7  A    between atoms: N_8  and  C_12
    8  A    between atoms: C_9  and  S_21
    9  A    between atoms: C_10  and  C_15
   10  A    between atoms: C_15  and  C_25
   11  A    between atoms: C_17  and  S_21
                            x       y       z     vdW  Elec       q    Type
                         _______ _______ _______ _____ _____    ______ ____

>  <TORSDO>
F 11

$$$$
=
 OpenBabel11052412363D

 30 32  0  0  1  0  0  0  0  0999 V2000
  191.2840  177.3300  140.1010 C   0  0  0  0  0  0  0  0  0  0  0  0
  188.4420  177.3400  136.8140 C   0  0  0  0  0  2  0  0  0  0  0  0
  188.8680  178.2990  137.9060 C   0  0  2  0  0  0  0  0  0  0  0  0
  190.9630  176.4780  139.0100 N   0  0  0  0  0  0  0  0  0  0  0  0
  192.4810  177.6450  140.3260 O   0  0  0  0  0  0  0  0  0  0  0  0
  189.9350  177.6140  137.0410 C   0  0  1  0  0  3  0  0  0  0  0  0
  190.7020  176.3560  137.5460 C   0  0  2  0  0  3  0  0  0  0  0  0
  190.1790  177.9190  140.9250 C   0  0  1  0  0  3  0  0  0  0  0  0
  188.6320  177.8490  139.2850 N   0  0  0  0  0  0  0  0  0  0  0  0
  188.6320  179.6450  137.6150 O   0  0  0  0  0  1  0  0  0  0  0  0
  190.0290  175.4910  138.3860 C   0  0  0  0  0  2  0  0  0  0  0  0
  189.2880  178.6930  140.1390 O   0  0  0  0  0  0  0  0  0  0  0  0
  189.4700  176.8830  141.8100 C   0  0  1  0  0  3  0  0  0  0  0  0
  190.2890  175.7640  141.9930 O   0  0  0  0  0  1  0  0  0  0  0  0
  189.0710  177.4930  143.1580 C   0  0  1  0  0  3  0  0  0  0  0  0
  187.9700  176.6960  143.8590 C   0  0  0  0  0  2  0  0  0  0  0  0
  186.4330  177.6520  144.0800 S   0  0  0  0  0  0  0  0  0  0  0  0
  185.5260  178.4200  146.5270 C   0  0  0  0  0  1  0  0  0  0  0  0
  186.4950  177.4530  145.8810 C   0  0  0  0  0  2  0  0  0  0  0  0
  190.2630  177.7880  144.0630 C   0  0  0  0  0  2  0  0  0  0  0  0
  189.8560  177.7170  145.4570 N   0  0  0  0  0  2  0  0  0  0  0  0
  191.9730  176.6900  146.1230 O   0  0  0  0  0  0  0  0  0  0  0  0
  190.3250  177.1300  147.6530 O   0  0  0  0  0  1  0  0  0  0  0  0
  190.7130  177.1730  146.4580 C   0  0  0  0  0  0  0  0  0  0  0  0
  187.1940  177.8700  139.5880 C   0  0  0  0  0  2  0  0  0  0  0  0
  186.8260  178.8570  140.6920 C   0  0  0  0  0  2  0  0  0  0  0  0
  185.3150  178.9590  140.7960 C   0  0  0  0  0  2  0  0  0  0  0  0
  184.6680  178.9940  139.4200 C   0  0  2  0  0  3  0  0  0  0  0  0
  184.3450  180.3050  139.0680 O   0  0  0  0  0  1  0  0  0  0  0  0
  183.5300  178.2080  139.3980 F   0  0  0  0  0  0  0  0  0  0  0  0
  1  5  2  0  0  0  0
  1  8  1  0  0  0  0
  2  3  1  0  0  0  0
  3 10  1  6  0  0  0
  3  9  1  0  0  0  0
  4  1  1  0  0  0  0
  6  2  1  6  0  0  0
  6  7  1  0  0  0  0
  6  3  1  0  0  0  0
  7 11  1  1  0  0  0
  7  4  1  0  0  0  0
  8 13  1  6  0  0  0
  9 25  1  0  0  0  0
  9 12  1  0  0  0  0
 11  4  1  0  0  0  0
 12  8  1  0  0  0  0
 13 14  1  1  0  0  0
 13 15  1  0  0  0  0
 15 16  1  1  0  0  0
 15 20  1  0  0  0  0
 16 17  1  0  0  0  0
 17 19  1  0  0  0  0
 19 18  1  0  0  0  0
 20 21  1  0  0  0  0
 21 24  1  0  0  0  0
 22 24  2  0  0  0  0
 24 23  1  0  0  0  0
 25 26  1  0  0  0  0
 26 27  1  0  0  0  0
 28 29  1  1  0  0  0
 28 27  1  0  0  0  0
 30 28  1  0  0  0  0
M  END
>  <MODEL>
3

>  <REMARK>
 VINA RESULT:      -6.5      2.382      6.705
  Name = 
  11 active torsions:
  status: ('A' for Active; 'I' for Inactive)
    1  A    between atoms: C_1  and  C_4
    2  A    between atoms: C_1  and  C_22
    3  A    between atoms: C_4  and  C_9
    4  A    between atoms: C_4  and  C_12
    5  A    between atoms: C_7  and  N_23
    6  A    between atoms: C_7  and  C_25
    7  A    between atoms: N_8  and  C_12
    8  A    between atoms: C_9  and  S_21
    9  A    between atoms: C_10  and  C_15
   10  A    between atoms: C_15  and  C_25
   11  A    between atoms: C_17  and  S_21
                            x       y       z     vdW  Elec       q    Type
                         _______ _______ _______ _____ _____    ______ ____

>  <TORSDO>
F 11

$$$$
=
 OpenBabel11052412363D

 30 32  0  0  1  0  0  0  0  0999 V2000
  190.6000  175.9730  143.2190 C   0  0  0  0  0  0  0  0  0  0  0  0
  187.9470  178.2770  145.7740 C   0  0  0  0  0  2  0  0  0  0  0  0
  187.7980  177.2820  144.6420 C   0  0  2  0  0  0  0  0  0  0  0  0
  190.7350  176.8170  144.3540 N   0  0  0  0  0  0  0  0  0  0  0  0
  191.1630  174.8470  143.1970 O   0  0  0  0  0  0  0  0  0  0  0  0
  188.7220  176.9530  145.8210 C   0  0  1  0  0  3  0  0  0  0  0  0
  190.2630  177.1600  145.7270 C   0  0  2  0  0  3  0  0  0  0  0  0
  189.7130  176.3950  142.0870 C   0  0  1  0  0  3  0  0  0  0  0  0
  188.3650  177.6910  143.3480 N   0  0  0  0  0  0  0  0  0  0  0  0
  186.5760  176.6040  144.6260 O   0  0  0  0  0  1  0  0  0  0  0  0
  190.7210  178.1940  144.9350 C   0  0  0  0  0  2  0  0  0  0  0  0
  188.3770  176.6080  142.5130 O   0  0  0  0  0  0  0  0  0  0  0  0
  190.2880  177.5650  141.2760 C   0  0  1  0  0  3  0  0  0  0  0  0
  191.6610  177.6890  141.5130 O   0  0  0  0  0  1  0  0  0  0  0  0
  190.0080  177.3870  139.7790 C   0  0  1  0  0  3  0  0  0  0  0  0
  190.7660  176.2030  139.1780 C   0  0  0  0  0  2  0  0  0  0  0  0
  191.1950  176.4520  137.4240 S   0  0  0  0  0  0  0  0  0  0  0  0
  193.7510  176.2320  136.5160 C   0  0  0  0  0  1  0  0  0  0  0  0
  192.9700  176.4570  137.7940 C   0  0  0  0  0  2  0  0  0  0  0  0
  188.5200  177.3770  139.4410 C   0  0  0  0  0  2  0  0  0  0  0  0
  188.1830  178.5530  138.6580 N   0  0  0  0  0  2  0  0  0  0  0  0
  187.5090  177.2000  136.7360 O   0  0  0  0  0  1  0  0  0  0  0  0
  187.4030  179.4870  136.6800 O   0  0  0  0  0  0  0  0  0  0  0  0
  187.6850  178.4450  137.3260 C   0  0  0  0  0  0  0  0  0  0  0  0
  187.5510  178.7590  142.7500 C   0  0  0  0  0  2  0  0  0  0  0  0
  186.2210  178.2600  142.1930 C   0  0  0  0  0  2  0  0  0  0  0  0
  185.1210  179.2410  142.5560 C   0  0  0  0  0  2  0  0  0  0  0  0
  184.0860  178.5990  143.4670 C   0  0  2  0  0  3  0  0  0  0  0  0
  182.8150  179.1070  143.1940 O   0  0  0  0  0  1  0  0  0  0  0  0
  184.4050  178.8190  144.7950 F   0  0  0  0  0  0  0  0  0  0  0  0
  1  4  1  0  0  0  0
  3 10  1  6  0  0  0
  3  2  1  0  0  0  0
  3  6  1  0  0  0  0
  4 11  1  0  0  0  0
  4  7  1  0  0  0  0
  5  1  2  0  0  0  0
  6  2  1  1  0  0  0
  7 11  1  6  0  0  0
  7  6  1  0  0  0  0
  8 13  1  1  0  0  0
  8 12  1  0  0  0  0
  8  1  1  0  0  0  0
  9  3  1  0  0  0  0
 12  9  1  0  0  0  0
 13 14  1  6  0  0  0
 15 16  1  1  0  0  0
 15 13  1  0  0  0  0
 17 19  1  0  0  0  0
 17 16  1  0  0  0  0
 18 19  1  0  0  0  0
 20 15  1  0  0  0  0
 21 20  1  0  0  0  0
 22 24  1  0  0  0  0
 23 24  2  0  0  0  0
 24 21  1  0  0  0  0
 25  9  1  0  0  0  0
 26 27  1  0  0  0  0
 26 25  1  0  0  0  0
 27 28  1  0  0  0  0
 28 29  1  6  0  0  0
 28 30  1  0  0  0  0
M  END
>  <MODEL>
4

>  <REMARK>
 VINA RESULT:      -6.3      2.517      3.846
  Name = 
  11 active torsions:
  status: ('A' for Active; 'I' for Inactive)
    1  A    between atoms: C_1  and  C_4
    2  A    between atoms: C_1  and  C_22
    3  A    between atoms: C_4  and  C_9
    4  A    between atoms: C_4  and  C_12
    5  A    between atoms: C_7  and  N_23
    6  A    between atoms: C_7  and  C_25
    7  A    between atoms: N_8  and  C_12
    8  A    between atoms: C_9  and  S_21
    9  A    between atoms: C_10  and  C_15
   10  A    between atoms: C_15  and  C_25
   11  A    between atoms: C_17  and  S_21
                            x       y       z     vdW  Elec       q    Type
                         _______ _______ _______ _____ _____    ______ ____

>  <TORSDO>
F 11

$$$$
=
 OpenBabel11052412363D

 30 32  0  0  1  0  0  0  0  0999 V2000
  191.3270  177.2260  140.7480 C   0  0  0  0  0  0  0  0  0  0  0  0
  188.7640  177.4880  137.2490 C   0  0  0  0  0  2  0  0  0  0  0  0
  189.0790  178.3530  138.4530 C   0  0  2  0  0  0  0  0  0  0  0  0
  191.1140  176.4700  139.5630 N   0  0  0  0  0  0  0  0  0  0  0  0
  192.4950  177.5370  141.0990 O   0  0  0  0  0  0  0  0  0  0  0  0
  190.2270  177.7620  137.6230 C   0  0  1  0  0  3  0  0  0  0  0  0
  190.9770  176.4750  138.0780 C   0  0  2  0  0  3  0  0  0  0  0  0
  190.1460  177.7240  141.5260 C   0  0  1  0  0  3  0  0  0  0  0  0
  188.7400  177.7790  139.7630 N   0  0  0  0  0  0  0  0  0  0  0  0
  188.8380  179.7160  138.2620 O   0  0  0  0  0  1  0  0  0  0  0  0
  190.2570  175.5300  138.7800 C   0  0  0  0  0  2  0  0  0  0  0  0
  189.3050  178.5520  140.7390 O   0  0  0  0  0  0  0  0  0  0  0  0
  189.3900  176.6030  142.2540 C   0  0  1  0  0  3  0  0  0  0  0  0
  190.1710  175.4440  142.3000 O   0  0  0  0  0  1  0  0  0  0  0  0
  188.9820  177.0430  143.6650 C   0  0  1  0  0  3  0  0  0  0  0  0
  189.8460  178.1870  144.1950 C   0  0  0  0  0  2  0  0  0  0  0  0
  191.3800  177.6090  144.9930 S   0  0  0  0  0  0  0  0  0  0  0  0
  191.4520  176.5000  147.4760 C   0  0  0  0  0  1  0  0  0  0  0  0
  190.4690  176.9780  146.4280 C   0  0  0  0  0  2  0  0  0  0  0  0
  187.4870  177.3080  143.8060 C   0  0  0  0  0  2  0  0  0  0  0  0
  187.2000  177.8320  145.1310 N   0  0  0  0  0  2  0  0  0  0  0  0
  184.9830  178.6080  144.4490 O   0  0  0  0  0  0  0  0  0  0  0  0
  185.7480  178.9080  146.5880 O   0  0  0  0  0  1  0  0  0  0  0  0
  185.9600  178.4690  145.4290 C   0  0  0  0  0  0  0  0  0  0  0  0
  187.2820  177.7520  139.9460 C   0  0  0  0  0  2  0  0  0  0  0  0
  186.7910  178.7310  141.0080 C   0  0  0  0  0  2  0  0  0  0  0  0
  185.2940  178.9310  140.8580 C   0  0  0  0  0  2  0  0  0  0  0  0
  184.8870  178.9800  139.3920 C   0  0  2  0  0  3  0  0  0  0  0  0
  184.3560  180.2310  139.0770 O   0  0  0  0  0  1  0  0  0  0  0  0
  183.9630  177.9910  139.1120 F   0  0  0  0  0  0  0  0  0  0  0  0
  1  5  2  0  0  0  0
  1  8  1  0  0  0  0
  2  3  1  0  0  0  0
  3 10  1  6  0  0  0
  3  9  1  0  0  0  0
  4  1  1  0  0  0  0
  6  2  1  6  0  0  0
  6  7  1  0  0  0  0
  6  3  1  0  0  0  0
  7 11  1  1  0  0  0
  7  4  1  0  0  0  0
  8 13  1  6  0  0  0
  9 25  1  0  0  0  0
  9 12  1  0  0  0  0
 11  4  1  0  0  0  0
 12  8  1  0  0  0  0
 13 14  1  1  0  0  0
 13 15  1  0  0  0  0
 15 20  1  6  0  0  0
 15 16  1  0  0  0  0
 16 17  1  0  0  0  0
 17 19  1  0  0  0  0
 19 18  1  0  0  0  0
 20 21  1  0  0  0  0
 21 24  1  0  0  0  0
 22 24  2  0  0  0  0
 24 23  1  0  0  0  0
 25 26  1  0  0  0  0
 27 26  1  0  0  0  0
 28 29  1  1  0  0  0
 28 27  1  0  0  0  0
 30 28  1  0  0  0  0
M  END
>  <MODEL>
5

>  <REMARK>
 VINA RESULT:      -6.2      2.633      6.798
  Name = 
  11 active torsions:
  status: ('A' for Active; 'I' for Inactive)
    1  A    between atoms: C_1  and  C_4
    2  A    between atoms: C_1  and  C_22
    3  A    between atoms: C_4  and  C_9
    4  A    between atoms: C_4  and  C_12
    5  A    between atoms: C_7  and  N_23
    6  A    between atoms: C_7  and  C_25
    7  A    between atoms: N_8  and  C_12
    8  A    between atoms: C_9  and  S_21
    9  A    between atoms: C_10  and  C_15
   10  A    between atoms: C_15  and  C_25
   11  A    between atoms: C_17  and  S_21
                            x       y       z     vdW  Elec       q    Type
                         _______ _______ _______ _____ _____    ______ ____

>  <TORSDO>
F 11

$$$$
=
 OpenBabel11052412363D

 30 32  0  0  1  0  0  0  0  0999 V2000
  190.2450  176.1850  143.6450 C   0  0  0  0  0  0  0  0  0  0  0  0
  190.1540  177.3810  147.8210 C   0  0  0  0  0  2  0  0  0  0  0  0
  189.1910  176.7600  146.8310 C   0  0  2  0  0  0  0  0  0  0  0  0
  191.1790  176.6620  144.6040 N   0  0  0  0  0  0  0  0  0  0  0  0
  190.5140  175.1710  142.9490 O   0  0  0  0  0  0  0  0  0  0  0  0
  190.6020  176.1770  146.9810 C   0  0  1  0  0  3  0  0  0  0  0  0
  191.7400  176.5370  145.9810 C   0  0  2  0  0  3  0  0  0  0  0  0
  188.9050  176.8460  143.5300 C   0  0  1  0  0  3  0  0  0  0  0  0
  188.8510  177.5840  145.6610 N   0  0  0  0  0  0  0  0  0  0  0  0
  188.1650  176.0130  147.4150 O   0  0  0  0  0  1  0  0  0  0  0  0
  191.7170  177.7960  145.4140 C   0  0  0  0  0  2  0  0  0  0  0  0
  188.1890  176.8040  144.7540 O   0  0  0  0  0  0  0  0  0  0  0  0
  188.9770  178.2500  142.9140 C   0  0  1  0  0  3  0  0  0  0  0  0
  190.3100  178.6280  142.7290 O   0  0  0  0  0  1  0  0  0  0  0  0
  188.2050  178.3090  141.5900 C   0  0  1  0  0  3  0  0  0  0  0  0
  188.6520  177.2310  140.6030 C   0  0  0  0  0  2  0  0  0  0  0  0
  189.5120  177.9130  139.1480 S   0  0  0  0  0  0  0  0  0  0  0  0
  188.4750  176.0980  137.4070 C   0  0  0  0  0  1  0  0  0  0  0  0
  188.1570  177.4340  138.0430 C   0  0  0  0  0  2  0  0  0  0  0  0
  186.6920  178.3590  141.7760 C   0  0  0  0  0  2  0  0  0  0  0  0
  186.0750  179.0200  140.6390 N   0  0  0  0  0  2  0  0  0  0  0  0
  183.8210  178.5370  141.4570 O   0  0  0  0  0  1  0  0  0  0  0  0
  184.1610  179.6800  139.5020 O   0  0  0  0  0  0  0  0  0  0  0  0
  184.6580  179.0980  140.5000 C   0  0  0  0  0  0  0  0  0  0  0  0
  187.9890  178.7060  146.0610 C   0  0  0  0  0  2  0  0  0  0  0  0
  186.6320  178.2590  146.5970 C   0  0  0  0  0  2  0  0  0  0  0  0
  185.6090  179.3530  146.3530 C   0  0  0  0  0  2  0  0  0  0  0  0
  184.7580  179.0520  145.1280 C   0  0  2  0  0  3  0  0  0  0  0  0
  183.4050  179.0390  145.4660 O   0  0  0  0  0  1  0  0  0  0  0  0
  185.1160  177.8350  144.5760 F   0  0  0  0  0  0  0  0  0  0  0  0
  1  4  1  0  0  0  0
  3  6  1  0  0  0  0
  3 10  1  1  0  0  0
  3  2  1  0  0  0  0
  4 11  1  0  0  0  0
  4  7  1  0  0  0  0
  5  1  2  0  0  0  0
  6  2  1  1  0  0  0
  7 11  1  1  0  0  0
  7  6  1  0  0  0  0
  8 13  1  1  0  0  0
  8  1  1  0  0  0  0
  8 12  1  0  0  0  0
  9 25  1  0  0  0  0
  9  3  1  0  0  0  0
 12  9  1  0  0  0  0
 13 14  1  6  0  0  0
 15 16  1  6  0  0  0
 15 20  1  0  0  0  0
 15 13  1  0  0  0  0
 17 16  1  0  0  0  0
 18 19  1  0  0  0  0
 19 17  1  0  0  0  0
 21 20  1  0  0  0  0
 23 24  2  0  0  0  0
 24 21  1  0  0  0  0
 24 22  1  0  0  0  0
 25 26  1  0  0  0  0
 27 26  1  0  0  0  0
 28 30  1  1  0  0  0
 28 29  1  0  0  0  0
 28 27  1  0  0  0  0
M  END
>  <MODEL>
6

>  <REMARK>
 VINA RESULT:      -6.1      1.776      2.627
  Name = 
  11 active torsions:
  status: ('A' for Active; 'I' for Inactive)
    1  A    between atoms: C_1  and  C_4
    2  A    between atoms: C_1  and  C_22
    3  A    between atoms: C_4  and  C_9
    4  A    between atoms: C_4  and  C_12
    5  A    between atoms: C_7  and  N_23
    6  A    between atoms: C_7  and  C_25
    7  A    between atoms: N_8  and  C_12
    8  A    between atoms: C_9  and  S_21
    9  A    between atoms: C_10  and  C_15
   10  A    between atoms: C_15  and  C_25
   11  A    between atoms: C_17  and  S_21
                            x       y       z     vdW  Elec       q    Type
                         _______ _______ _______ _____ _____    ______ ____

>  <TORSDO>
F 11

$$$$
=
 OpenBabel11052412363D

 30 32  0  0  1  0  0  0  0  0999 V2000
  190.9360  176.0240  143.2450 C   0  0  0  0  0  0  0  0  0  0  0  0
  188.0860  178.2530  145.6500 C   0  0  0  0  0  2  0  0  0  0  0  0
  188.0260  177.2600  144.5080 C   0  0  2  0  0  0  0  0  0  0  0  0
  190.9850  176.8680  144.3880 N   0  0  0  0  0  0  0  0  0  0  0  0
  191.5270  174.9130  143.2540 O   0  0  0  0  0  0  0  0  0  0  0  0
  188.8890  176.9490  145.7380 C   0  0  1  0  0  3  0  0  0  0  0  0
  190.4270  177.1940  145.7320 C   0  0  2  0  0  3  0  0  0  0  0  0
  190.1050  176.4290  142.0650 C   0  0  1  0  0  3  0  0  0  0  0  0
  188.6560  177.6870  143.2500 N   0  0  0  0  0  0  0  0  0  0  0  0
  186.8240  176.5520  144.4220 O   0  0  0  0  0  1  0  0  0  0  0  0
  190.9040  178.2420  144.9700 C   0  0  0  0  0  2  0  0  0  0  0  0
  188.7420  176.6080  142.4150 O   0  0  0  0  0  0  0  0  0  0  0  0
  190.6970  177.6160  141.2910 C   0  0  1  0  0  3  0  0  0  0  0  0
  192.0660  177.7270  141.5500 O   0  0  0  0  0  1  0  0  0  0  0  0
  190.4360  177.4750  139.7870 C   0  0  1  0  0  3  0  0  0  0  0  0
  190.4240  176.0170  139.3280 C   0  0  0  0  0  2  0  0  0  0  0  0
  191.2180  175.7770  137.7050 S   0  0  0  0  0  0  0  0  0  0  0  0
  193.8960  175.3870  137.9810 C   0  0  0  0  0  1  0  0  0  0  0  0
  192.8100  176.3840  138.3230 C   0  0  0  0  0  2  0  0  0  0  0  0
  189.2190  178.2620  139.3090 C   0  0  0  0  0  2  0  0  0  0  0  0
  188.2610  177.3620  138.6890 N   0  0  0  0  0  2  0  0  0  0  0  0
  187.4420  179.1120  137.1900 O   0  0  0  0  0  1  0  0  0  0  0  0
  186.5790  176.9920  137.1330 O   0  0  0  0  0  0  0  0  0  0  0  0
  187.3940  177.8000  137.6460 C   0  0  0  0  0  0  0  0  0  0  0  0
  187.8510  178.7370  142.6090 C   0  0  0  0  0  2  0  0  0  0  0  0
  186.7910  178.1860  141.6590 C   0  0  0  0  0  2  0  0  0  0  0  0
  185.4330  178.7470  142.0380 C   0  0  0  0  0  2  0  0  0  0  0  0
  184.4870  178.7560  140.8460 C   0  0  2  0  0  3  0  0  0  0  0  0
  184.9010  179.6960  139.9030 O   0  0  0  0  0  1  0  0  0  0  0  0
  183.1950  179.0350  141.2540 F   0  0  0  0  0  0  0  0  0  0  0  0
  1  5  2  0  0  0  0
  1  4  1  0  0  0  0
  3 10  1  6  0  0  0
  3  2  1  0  0  0  0
  3  6  1  0  0  0  0
  4 11  1  0  0  0  0
  4  7  1  0  0  0  0
  6  2  1  1  0  0  0
  7 11  1  6  0  0  0
  7  6  1  0  0  0  0
  8 13  1  1  0  0  0
  8 12  1  0  0  0  0
  8  1  1  0  0  0  0
  9  3  1  0  0  0  0
 12  9  1  0  0  0  0
 13 14  1  6  0  0  0
 15 20  1  1  0  0  0
 15 13  1  0  0  0  0
 16 15  1  0  0  0  0
 17 19  1  0  0  0  0
 17 16  1  0  0  0  0
 18 19  1  0  0  0  0
 21 20  1  0  0  0  0
 22 24  1  0  0  0  0
 23 24  2  0  0  0  0
 24 21  1  0  0  0  0
 25  9  1  0  0  0  0
 26 27  1  0  0  0  0
 26 25  1  0  0  0  0
 28 29  1  6  0  0  0
 28 30  1  0  0  0  0
 28 27  1  0  0  0  0
M  END
>  <MODEL>
7

>  <REMARK>
 VINA RESULT:      -6.0      2.774      4.210
  Name = 
  11 active torsions:
  status: ('A' for Active; 'I' for Inactive)
    1  A    between atoms: C_1  and  C_4
    2  A    between atoms: C_1  and  C_22
    3  A    between atoms: C_4  and  C_9
    4  A    between atoms: C_4  and  C_12
    5  A    between atoms: C_7  and  N_23
    6  A    between atoms: C_7  and  C_25
    7  A    between atoms: N_8  and  C_12
    8  A    between atoms: C_9  and  S_21
    9  A    between atoms: C_10  and  C_15
   10  A    between atoms: C_15  and  C_25
   11  A    between atoms: C_17  and  S_21
                            x       y       z     vdW  Elec       q    Type
                         _______ _______ _______ _____ _____    ______ ____

>  <TORSDO>
F 11

$$$$
=
 OpenBabel11052412363D

 30 32  0  0  1  0  0  0  0  0999 V2000
  186.3420  179.4770  147.2010 C   0  0  0  0  0  0  0  0  0  0  0  0
  189.5990  176.6330  146.7690 C   0  0  0  0  0  2  0  0  0  0  0  0
  189.0640  177.8230  145.9980 C   0  0  2  0  0  0  0  0  0  0  0  0
  186.9140  178.4330  147.9790 N   0  0  0  0  0  0  0  0  0  0  0  0
  186.1230  180.6030  147.7180 O   0  0  0  0  0  0  0  0  0  0  0  0
  189.3140  177.9490  147.5070 C   0  0  1  0  0  3  0  0  0  0  0  0
  188.1530  177.8150  148.5350 C   0  0  2  0  0  3  0  0  0  0  0  0
  186.0850  179.2510  145.7420 C   0  0  1  0  0  3  0  0  0  0  0  0
  187.6940  177.6910  145.4830 N   0  0  0  0  0  0  0  0  0  0  0  0
  190.0060  178.4490  145.1780 O   0  0  0  0  0  1  0  0  0  0  0  0
  187.1090  176.9710  148.2140 C   0  0  0  0  0  2  0  0  0  0  0  0
  187.2720  178.9150  145.0420 O   0  0  0  0  0  0  0  0  0  0  0  0
  184.9260  178.2800  145.4780 C   0  0  1  0  0  3  0  0  0  0  0  0
  184.1250  178.1620  146.6190 O   0  0  0  0  0  1  0  0  0  0  0  0
  184.0930  178.7330  144.2730 C   0  0  1  0  0  3  0  0  0  0  0  0
  184.5020  178.0270  142.9800 C   0  0  0  0  0  2  0  0  0  0  0  0
  185.2060  179.1640  141.7420 S   0  0  0  0  0  0  0  0  0  0  0  0
  184.0040  179.5350  139.3290 C   0  0  0  0  0  1  0  0  0  0  0  0
  184.1300  178.5110  140.4370 C   0  0  0  0  0  2  0  0  0  0  0  0
  182.5900  178.6890  144.5280 C   0  0  0  0  0  2  0  0  0  0  0  0
  181.8730  179.1100  143.3360 N   0  0  0  0  0  2  0  0  0  0  0  0
  179.8570  177.8970  144.0010 O   0  0  0  0  0  1  0  0  0  0  0  0
  179.9390  179.0970  142.0520 O   0  0  0  0  0  0  0  0  0  0  0  0
  180.5260  178.7100  143.0940 C   0  0  0  0  0  0  0  0  0  0  0  0
  187.6580  176.7320  144.3690 C   0  0  0  0  0  2  0  0  0  0  0  0
  188.0610  177.3480  143.0330 C   0  0  0  0  0  2  0  0  0  0  0  0
  189.1500  176.5060  142.3960 C   0  0  0  0  0  2  0  0  0  0  0  0
  189.7210  177.1840  141.1590 C   0  0  2  0  0  3  0  0  0  0  0  0
  188.6970  177.7410  140.3930 O   0  0  0  0  0  1  0  0  0  0  0  0
  190.4400  176.2790  140.3980 F   0  0  0  0  0  0  0  0  0  0  0  0
  1  5  2  0  0  0  0
  1  4  1  0  0  0  0
  3 10  1  6  0  0  0
  3  2  1  0  0  0  0
  3  6  1  0  0  0  0
  4 11  1  0  0  0  0
  4  7  1  0  0  0  0
  6  2  1  1  0  0  0
  6  7  1  0  0  0  0
  7 11  1  6  0  0  0
  8 13  1  1  0  0  0
  8  1  1  0  0  0  0
  9  3  1  0  0  0  0
 12  9  1  0  0  0  0
 12  8  1  0  0  0  0
 13 14  1  1  0  0  0
 15 16  1  6  0  0  0
 15 20  1  0  0  0  0
 15 13  1  0  0  0  0
 17 16  1  0  0  0  0
 18 19  1  0  0  0  0
 19 17  1  0  0  0  0
 21 20  1  0  0  0  0
 23 24  2  0  0  0  0
 24 21  1  0  0  0  0
 24 22  1  0  0  0  0
 25  9  1  0  0  0  0
 26 25  1  0  0  0  0
 27 26  1  0  0  0  0
 28 29  1  6  0  0  0
 28 27  1  0  0  0  0
 30 28  1  0  0  0  0
M  END
>  <MODEL>
8

>  <REMARK>
 VINA RESULT:      -5.8      2.883      5.722
  Name = 
  11 active torsions:
  status: ('A' for Active; 'I' for Inactive)
    1  A    between atoms: C_1  and  C_4
    2  A    between atoms: C_1  and  C_22
    3  A    between atoms: C_4  and  C_9
    4  A    between atoms: C_4  and  C_12
    5  A    between atoms: C_7  and  N_23
    6  A    between atoms: C_7  and  C_25
    7  A    between atoms: N_8  and  C_12
    8  A    between atoms: C_9  and  S_21
    9  A    between atoms: C_10  and  C_15
   10  A    between atoms: C_15  and  C_25
   11  A    between atoms: C_17  and  S_21
                            x       y       z     vdW  Elec       q    Type
                         _______ _______ _______ _____ _____    ______ ____

>  <TORSDO>
F 11

$$$$
=
 OpenBabel11052412363D

 30 32  0  0  1  0  0  0  0  0999 V2000
  185.3480  177.5080  136.7980 C   0  0  0  0  0  0  0  0  0  0  0  0
  182.2750  178.7690  139.5990 C   0  0  0  0  0  2  0  0  0  0  0  0
  183.4600  179.4050  138.9010 C   0  0  2  0  0  0  0  0  0  0  0  0
  184.1720  176.9450  137.3640 N   0  0  0  0  0  0  0  0  0  0  0  0
  185.5410  177.4520  135.5550 O   0  0  0  0  0  0  0  0  0  0  0  0
  182.4450  178.5950  138.0830 C   0  0  1  0  0  3  0  0  0  0  0  0
  182.7240  177.1170  137.6800 C   0  0  2  0  0  3  0  0  0  0  0  0
  186.3120  178.2420  137.6800 C   0  0  1  0  0  3  0  0  0  0  0  0
  184.7770  178.8360  139.2220 N   0  0  0  0  0  0  0  0  0  0  0  0
  183.3720  180.7930  138.7650 O   0  0  0  0  0  1  0  0  0  0  0  0
  183.4780  176.3500  138.5460 C   0  0  0  0  0  2  0  0  0  0  0  0
  185.6960  179.3350  138.3420 O   0  0  0  0  0  0  0  0  0  0  0  0
  187.0880  177.3150  138.6270 C   0  0  1  0  0  3  0  0  0  0  0  0
  187.4750  176.1520  137.9540 O   0  0  0  0  0  1  0  0  0  0  0  0
  188.3060  178.0320  139.2220 C   0  0  1  0  0  3  0  0  0  0  0  0
  188.8430  177.3340  140.4720 C   0  0  0  0  0  2  0  0  0  0  0  0
  188.4910  178.2540  142.0050 S   0  0  0  0  0  0  0  0  0  0  0  0
  188.8920  176.9010  144.3320 C   0  0  0  0  0  1  0  0  0  0  0  0
  188.2920  176.7210  142.9540 C   0  0  0  0  0  2  0  0  0  0  0  0
  189.3910  178.3330  138.1930 C   0  0  0  0  0  2  0  0  0  0  0  0
  190.5490  177.4900  138.4350 N   0  0  0  0  0  2  0  0  0  0  0  0
  190.4210  176.5050  136.2000 O   0  0  0  0  0  0  0  0  0  0  0  0
  192.0490  175.8840  137.6860 O   0  0  0  0  0  1  0  0  0  0  0  0
  191.0430  176.5960  137.4400 C   0  0  0  0  0  0  0  0  0  0  0  0
  185.1670  179.1960  140.5930 C   0  0  0  0  0  2  0  0  0  0  0  0
  184.6770  178.2000  141.6390 C   0  0  0  0  0  2  0  0  0  0  0  0
  183.9020  178.9380  142.7150 C   0  0  0  0  0  2  0  0  0  0  0  0
  184.2600  178.4280  144.1030 C   0  0  2  0  0  3  0  0  0  0  0  0
  183.9020  179.3640  145.0730 O   0  0  0  0  0  1  0  0  0  0  0  0
  185.6130  178.1570  144.1870 F   0  0  0  0  0  0  0  0  0  0  0  0
  1  4  1  0  0  0  0
  1  8  1  0  0  0  0
  3 10  1  6  0  0  0
  3  9  1  0  0  0  0
  3  2  1  0  0  0  0
  4  7  1  0  0  0  0
  4 11  1  0  0  0  0
  5  1  2  0  0  0  0
  6  3  1  0  0  0  0
  6  2  1  1  0  0  0
  7  6  1  0  0  0  0
  7 11  1  1  0  0  0
  8 12  1  0  0  0  0
  8 13  1  1  0  0  0
  9 25  1  0  0  0  0
 12  9  1  0  0  0  0
 13 14  1  6  0  0  0
 13 15  1  0  0  0  0
 15 20  1  6  0  0  0
 15 16  1  0  0  0  0
 16 17  1  0  0  0  0
 17 19  1  0  0  0  0
 19 18  1  0  0  0  0
 20 21  1  0  0  0  0
 22 24  2  0  0  0  0
 24 23  1  0  0  0  0
 24 21  1  0  0  0  0
 25 26  1  0  0  0  0
 26 27  1  0  0  0  0
 27 28  1  0  0  0  0
 28 30  1  6  0  0  0
 28 29  1  0  0  0  0
M  END
>  <MODEL>
9

>  <REMARK>
 VINA RESULT:      -5.7      3.418      7.057
  Name = 
  11 active torsions:
  status: ('A' for Active; 'I' for Inactive)
    1  A    between atoms: C_1  and  C_4
    2  A    between atoms: C_1  and  C_22
    3  A    between atoms: C_4  and  C_9
    4  A    between atoms: C_4  and  C_12
    5  A    between atoms: C_7  and  N_23
    6  A    between atoms: C_7  and  C_25
    7  A    between atoms: N_8  and  C_12
    8  A    between atoms: C_9  and  S_21
    9  A    between atoms: C_10  and  C_15
   10  A    between atoms: C_15  and  C_25
   11  A    between atoms: C_17  and  S_21
                            x       y       z     vdW  Elec       q    Type
                         _______ _______ _______ _____ _____    ______ ____

>  <TORSDO>
F 11

$$$$
