=
 OpenBabel11052412223D

 30 32  0  0  1  0  0  0  0  0999 V2000
  184.9610  178.4690  146.0180 C   0  0  1  0  0  3  0  0  0  0  0  0
  185.5800  178.7830  147.2620 O   0  0  0  0  0  0  0  0  0  0  0  0
  183.9630  179.3920  145.7590 F   0  0  0  0  0  0  0  0  0  0  0  0
  187.1750  177.5220  145.2410 C   0  0  2  0  0  3  0  0  0  0  0  0
  186.8670  178.3440  147.5790 C   0  0  0  0  0  3  0  0  0  0  0  0
  185.9880  178.4550  144.8820 C   0  0  1  0  0  3  0  0  0  0  0  0
  187.6380  177.7650  146.6610 C   0  0  0  0  0  3  0  0  0  0  0  0
  191.3410  176.3190  144.4490 C   0  0  0  0  0  3  0  0  0  0  0  0
  191.0720  176.1510  143.1500 C   0  0  0  0  0  3  0  0  0  0  0  0
  190.4740  176.9570  145.3460 O   0  0  0  0  0  0  0  0  0  0  0  0
  189.6040  176.7070  141.2390 C   0  0  0  0  0  3  0  0  0  0  0  0
  188.5440  176.4070  143.4060 C   0  0  0  0  0  2  0  0  0  0  0  0
  189.6710  178.0730  144.9630 C   0  0  0  0  0  2  0  0  0  0  0  0
  189.7640  176.4600  142.5440 C   0  0  0  0  0  0  0  0  0  0  0  0
  188.3630  177.6650  144.2590 C   0  0  2  0  0  3  0  0  0  0  0  0
  190.7000  175.9560  139.2520 O   0  0  0  0  0  0  0  0  0  0  0  0
  190.6640  176.7640  140.2170 C   0  0  0  0  0  0  0  0  0  0  0  0
  191.6510  177.7340  140.3270 O   0  0  0  0  0  1  0  0  0  0  0  0
  185.2780  177.9860  143.6220 C   0  0  0  0  0  2  0  0  0  0  0  0
  184.9810  179.1740  142.7300 C   0  0  0  0  0  2  0  0  0  0  0  0
  185.6630  178.9710  141.3910 C   0  0  0  0  0  2  0  0  0  0  0  0
  185.0540  178.4850  138.8880 C   0  0  2  0  0  3  0  0  0  0  0  0
  184.8270  179.8260  139.2660 O   0  0  0  0  0  0  0  0  0  0  0  0
  184.6380  178.8560  140.2660 C   0  0  2  0  0  0  0  0  0  0  0  0
  183.1710  178.6820  140.6050 C   0  0  0  0  0  1  0  0  0  0  0  0
  186.5530  178.2550  138.7410 C   0  0  0  0  0  2  0  0  0  0  0  0
  186.9330  178.1340  137.2750 C   0  0  2  0  0  3  0  0  0  0  0  0
  187.6740  176.8280  137.0650 C   0  0  0  0  0  1  0  0  0  0  0  0
  188.9890  178.9240  137.5070 C   0  0  0  0  0  1  0  0  0  0  0  0
  187.7590  179.1980  136.9060 O   0  0  0  0  0  0  0  0  0  0  0  0
  1  3  1  6  0  0  0
  1  2  1  0  0  0  0
  2  5  1  0  0  0  0
  4  7  1  1  0  0  0
  6 19  1  6  0  0  0
  6  4  1  0  0  0  0
  6  1  1  0  0  0  0
  7  5  2  0  0  0  0
  8 10  1  0  0  0  0
  9  8  2  0  0  0  0
 11 14  2  0  0  0  0
 13 10  1  0  0  0  0
 14  9  1  0  0  0  0
 14 12  1  0  0  0  0
 15 12  1  1  0  0  0
 15 13  1  0  0  0  0
 15  4  1  0  0  0  0
 16 17  2  0  0  0  0
 17 18  1  0  0  0  0
 17 11  1  0  0  0  0
 20 19  1  0  0  0  0
 21 20  1  0  0  0  0
 22 26  1  1  0  0  0
 22 23  1  0  0  0  0
 22 24  1  0  0  0  0
 23 24  1  0  0  0  0
 24 25  1  1  0  0  0
 24 21  1  0  0  0  0
 27 28  1  1  0  0  0
 27 26  1  0  0  0  0
 30 27  1  0  0  0  0
 30 29  1  0  0  0  0
M  END
>  <MODEL>
1

>  <REMARK>
 VINA RESULT:      -8.8      0.000      0.000
  Name = 
  9 active torsions:
  status: ('A' for Active; 'I' for Inactive)
    1  A    between atoms: C_1  and  C_4
    2  A    between atoms: C_1  and  C_5
    3  A    between atoms: C_4  and  C_27
    4  A    between atoms: C_5  and  C_22
    5  A    between atoms: C_8  and  C_12
    6  A    between atoms: C_9  and  C_12
    7  A    between atoms: C_9  and  O_21
    8  A    between atoms: C_15  and  C_16
    9  A    between atoms: C_19  and  C_29
                            x       y       z     vdW  Elec       q    Type
                         _______ _______ _______ _____ _____    ______ ____

>  <TORSDO>
F 9

$$$$
=
 OpenBabel11052412223D

 30 32  0  0  1  0  0  0  0  0999 V2000
  189.2910  176.7980  147.4430 C   0  0  1  0  0  3  0  0  0  0  0  0
  190.6790  176.9050  147.7510 O   0  0  0  0  0  0  0  0  0  0  0  0
  188.5550  177.4270  148.4310 F   0  0  0  0  0  0  0  0  0  0  0  0
  189.9130  176.7980  144.9910 C   0  0  2  0  0  3  0  0  0  0  0  0
  191.6640  176.7850  146.7700 C   0  0  0  0  0  3  0  0  0  0  0  0
  188.9840  177.4100  146.0740 C   0  0  1  0  0  3  0  0  0  0  0  0
  191.3440  176.7440  145.4780 C   0  0  0  0  0  3  0  0  0  0  0  0
  191.8320  177.3320  141.0580 C   0  0  0  0  0  3  0  0  0  0  0  0
  190.6400  177.3620  140.4530 C   0  0  0  0  0  3  0  0  0  0  0  0
  192.0010  177.4170  142.4470 O   0  0  0  0  0  0  0  0  0  0  0  0
  188.2090  177.7640  140.6610 C   0  0  0  0  0  3  0  0  0  0  0  0
  189.3160  176.6550  142.5190 C   0  0  0  0  0  2  0  0  0  0  0  0
  191.1650  178.2350  143.2650 C   0  0  0  0  0  2  0  0  0  0  0  0
  189.3580  177.3160  141.1790 C   0  0  0  0  0  0  0  0  0  0  0  0
  189.8350  177.5560  143.6430 C   0  0  2  0  0  3  0  0  0  0  0  0
  188.9320  179.1060  138.8200 O   0  0  0  0  0  1  0  0  0  0  0  0
  188.0270  178.4070  139.3470 C   0  0  0  0  0  0  0  0  0  0  0  0
  186.8230  178.2370  138.6780 O   0  0  0  0  0  0  0  0  0  0  0  0
  187.5200  177.1400  145.7630 C   0  0  0  0  0  2  0  0  0  0  0  0
  186.8480  178.4220  145.3160 C   0  0  0  0  0  2  0  0  0  0  0  0
  186.0210  178.1410  144.0770 C   0  0  0  0  0  2  0  0  0  0  0  0
  183.6750  178.7310  143.0660 C   0  0  2  0  0  3  0  0  0  0  0  0
  184.4100  179.8670  143.4700 O   0  0  0  0  0  0  0  0  0  0  0  0
  184.6070  178.6980  144.2240 C   0  0  2  0  0  0  0  0  0  0  0  0
  183.9860  178.8090  145.6020 C   0  0  0  0  0  1  0  0  0  0  0  0
  184.2760  178.1810  141.7790 C   0  0  0  0  0  2  0  0  0  0  0  0
  183.4760  178.6490  140.5740 C   0  0  2  0  0  3  0  0  0  0  0  0
  183.2460  177.4700  139.6490 C   0  0  0  0  0  1  0  0  0  0  0  0
  183.3220  180.0520  138.8670 C   0  0  0  0  0  1  0  0  0  0  0  0
  184.1800  179.6430  139.8910 O   0  0  0  0  0  0  0  0  0  0  0  0
  1  2  1  0  0  0  0
  1  3  1  1  0  0  0
  4  7  1  1  0  0  0
  4  6  1  0  0  0  0
  5  2  1  0  0  0  0
  6 19  1  6  0  0  0
  6  1  1  0  0  0  0
  7  5  2  0  0  0  0
  8 10  1  0  0  0  0
  9  8  2  0  0  0  0
  9 14  1  0  0  0  0
 10 13  1  0  0  0  0
 11 14  2  0  0  0  0
 13 15  1  0  0  0  0
 14 12  1  0  0  0  0
 15 12  1  6  0  0  0
 15  4  1  0  0  0  0
 16 17  1  0  0  0  0
 17 11  1  0  0  0  0
 18 17  2  0  0  0  0
 20 19  1  0  0  0  0
 21 24  1  0  0  0  0
 21 20  1  0  0  0  0
 22 26  1  6  0  0  0
 22 23  1  0  0  0  0
 22 24  1  0  0  0  0
 23 24  1  0  0  0  0
 24 25  1  1  0  0  0
 27 28  1  6  0  0  0
 27 26  1  0  0  0  0
 29 30  1  0  0  0  0
 30 27  1  0  0  0  0
M  END
>  <MODEL>
2

>  <REMARK>
 VINA RESULT:      -8.5      2.095      3.976
  Name = 
  9 active torsions:
  status: ('A' for Active; 'I' for Inactive)
    1  A    between atoms: C_1  and  C_4
    2  A    between atoms: C_1  and  C_5
    3  A    between atoms: C_4  and  C_27
    4  A    between atoms: C_5  and  C_22
    5  A    between atoms: C_8  and  C_12
    6  A    between atoms: C_9  and  C_12
    7  A    between atoms: C_9  and  O_21
    8  A    between atoms: C_15  and  C_16
    9  A    between atoms: C_19  and  C_29
                            x       y       z     vdW  Elec       q    Type
                         _______ _______ _______ _____ _____    ______ ____

>  <TORSDO>
F 9

$$$$
=
 OpenBabel11052412223D

 30 32  0  0  1  0  0  0  0  0999 V2000
  186.4580  177.8920  146.9700 C   0  0  1  0  0  3  0  0  0  0  0  0
  187.5320  178.1250  147.8770 O   0  0  0  0  0  0  0  0  0  0  0  0
  185.3720  178.6650  147.3410 F   0  0  0  0  0  0  0  0  0  0  0  0
  188.1760  177.4420  145.1690 C   0  0  2  0  0  3  0  0  0  0  0  0
  188.8600  177.8640  147.5330 C   0  0  0  0  0  3  0  0  0  0  0  0
  186.8760  178.2080  145.5320 C   0  0  1  0  0  3  0  0  0  0  0  0
  189.1950  177.5550  146.2820 C   0  0  0  0  0  3  0  0  0  0  0  0
  191.7200  177.1850  142.5590 C   0  0  0  0  0  3  0  0  0  0  0  0
  190.9450  177.0920  141.4740 C   0  0  0  0  0  3  0  0  0  0  0  0
  191.2430  177.5450  143.8260 O   0  0  0  0  0  0  0  0  0  0  0  0
  188.7350  177.5240  140.4500 C   0  0  0  0  0  3  0  0  0  0  0  0
  188.7650  176.8090  142.7730 C   0  0  0  0  0  2  0  0  0  0  0  0
  190.2040  178.5080  144.0010 C   0  0  0  0  0  2  0  0  0  0  0  0
  189.4740  177.1890  141.5140 C   0  0  0  0  0  0  0  0  0  0  0  0
  188.7930  177.9160  143.8290 C   0  0  2  0  0  3  0  0  0  0  0  0
  189.7920  177.0520  138.3590 O   0  0  0  0  0  0  0  0  0  0  0  0
  189.2330  177.8920  139.1130 C   0  0  0  0  0  0  0  0  0  0  0  0
  189.0820  179.2010  138.6770 O   0  0  0  0  0  1  0  0  0  0  0  0
  185.7280  177.8110  144.6180 C   0  0  0  0  0  2  0  0  0  0  0  0
  185.1240  179.0490  143.9880 C   0  0  0  0  0  2  0  0  0  0  0  0
  183.8590  178.6610  143.2460 C   0  0  0  0  0  2  0  0  0  0  0  0
  182.9340  178.7690  140.7960 C   0  0  2  0  0  3  0  0  0  0  0  0
  183.5580  177.5400  141.1020 O   0  0  0  0  0  0  0  0  0  0  0  0
  184.0810  178.6800  141.7370 C   0  0  2  0  0  0  0  0  0  0  0  0
  185.4440  179.0510  141.1850 C   0  0  0  0  0  1  0  0  0  0  0  0
  181.5780  178.8240  141.4870 C   0  0  0  0  0  2  0  0  0  0  0  0
  180.5770  179.5920  140.6390 C   0  0  2  0  0  3  0  0  0  0  0  0
  181.2700  180.0780  139.3810 C   0  0  0  0  0  1  0  0  0  0  0  0
  179.8730  180.2110  142.6450 C   0  0  0  0  0  1  0  0  0  0  0  0
  180.0910  180.6900  141.3520 O   0  0  0  0  0  0  0  0  0  0  0  0
  1  3  1  1  0  0  0
  1  2  1  0  0  0  0
  4  6  1  0  0  0  0
  4  7  1  1  0  0  0
  5  2  1  0  0  0  0
  6 19  1  6  0  0  0
  6  1  1  0  0  0  0
  7  5  2  0  0  0  0
  8 10  1  0  0  0  0
  9 14  1  0  0  0  0
  9  8  2  0  0  0  0
 10 13  1  0  0  0  0
 11 14  2  0  0  0  0
 14 12  1  0  0  0  0
 15 12  1  6  0  0  0
 15 13  1  0  0  0  0
 15  4  1  0  0  0  0
 16 17  2  0  0  0  0
 17 11  1  0  0  0  0
 18 17  1  0  0  0  0
 20 19  1  0  0  0  0
 21 20  1  0  0  0  0
 22 23  1  0  0  0  0
 22 26  1  1  0  0  0
 22 24  1  0  0  0  0
 23 24  1  0  0  0  0
 24 25  1  6  0  0  0
 24 21  1  0  0  0  0
 27 28  1  6  0  0  0
 27 30  1  0  0  0  0
 27 26  1  0  0  0  0
 30 29  1  0  0  0  0
M  END
>  <MODEL>
3

>  <REMARK>
 VINA RESULT:      -8.3      1.987      3.787
  Name = 
  9 active torsions:
  status: ('A' for Active; 'I' for Inactive)
    1  A    between atoms: C_1  and  C_4
    2  A    between atoms: C_1  and  C_5
    3  A    between atoms: C_4  and  C_27
    4  A    between atoms: C_5  and  C_22
    5  A    between atoms: C_8  and  C_12
    6  A    between atoms: C_9  and  C_12
    7  A    between atoms: C_9  and  O_21
    8  A    between atoms: C_15  and  C_16
    9  A    between atoms: C_19  and  C_29
                            x       y       z     vdW  Elec       q    Type
                         _______ _______ _______ _____ _____    ______ ____

>  <TORSDO>
F 9

$$$$
=
 OpenBabel11052412223D

 30 32  0  0  1  0  0  0  0  0999 V2000
  188.1220  177.2610  147.4480 C   0  0  1  0  0  3  0  0  0  0  0  0
  189.4420  177.3620  147.9750 O   0  0  0  0  0  0  0  0  0  0  0  0
  187.2550  177.9810  148.2490 F   0  0  0  0  0  0  0  0  0  0  0  0
  189.1400  177.0530  145.1410 C   0  0  2  0  0  3  0  0  0  0  0  0
  190.5720  177.1430  147.1840 C   0  0  0  0  0  3  0  0  0  0  0  0
  188.0670  177.7680  146.0050 C   0  0  1  0  0  3  0  0  0  0  0  0
  190.4680  177.0070  145.8640 C   0  0  0  0  0  3  0  0  0  0  0  0
  191.7790  177.3520  141.6230 C   0  0  0  0  0  3  0  0  0  0  0  0
  190.7280  177.2960  140.7980 C   0  0  0  0  0  3  0  0  0  0  0  0
  191.6720  177.5490  143.0060 O   0  0  0  0  0  0  0  0  0  0  0  0
  188.2950  177.6280  140.5000 C   0  0  0  0  0  3  0  0  0  0  0  0
  189.0400  176.7020  142.6200 C   0  0  0  0  0  2  0  0  0  0  0  0
  190.6770  178.3970  143.5780 C   0  0  0  0  0  2  0  0  0  0  0  0
  189.3300  177.2600  141.2650 C   0  0  0  0  0  0  0  0  0  0  0  0
  189.3120  177.7030  143.7460 C   0  0  2  0  0  3  0  0  0  0  0  0
  188.9960  179.2160  138.8560 O   0  0  0  0  0  1  0  0  0  0  0  0
  188.3610  178.1630  139.1280 C   0  0  0  0  0  0  0  0  0  0  0  0
  187.7020  177.4850  138.1110 O   0  0  0  0  0  0  0  0  0  0  0  0
  186.6660  177.5060  145.4750 C   0  0  0  0  0  2  0  0  0  0  0  0
  185.9510  178.8220  145.2470 C   0  0  0  0  0  2  0  0  0  0  0  0
  184.5370  178.5430  144.7760 C   0  0  0  0  0  2  0  0  0  0  0  0
  183.0270  179.0920  142.7040 C   0  0  2  0  0  3  0  0  0  0  0  0
  183.7200  177.8680  142.5800 O   0  0  0  0  0  0  0  0  0  0  0  0
  184.3750  178.8840  143.2970 C   0  0  2  0  0  0  0  0  0  0  0  0
  185.5520  179.4430  142.5240 C   0  0  0  0  0  1  0  0  0  0  0  0
  181.8870  178.9200  143.6990 C   0  0  0  0  0  2  0  0  0  0  0  0
  180.5480  179.1660  143.0230 C   0  0  2  0  0  3  0  0  0  0  0  0
  179.4370  178.8890  144.0180 C   0  0  0  0  0  1  0  0  0  0  0  0
  179.0520  178.3940  141.5840 C   0  0  0  0  0  1  0  0  0  0  0  0
  180.4050  178.3180  141.9240 O   0  0  0  0  0  0  0  0  0  0  0  0
  1  2  1  0  0  0  0
  1  3  1  1  0  0  0
  4  7  1  1  0  0  0
  4  6  1  0  0  0  0
  5  2  1  0  0  0  0
  6 19  1  6  0  0  0
  6  1  1  0  0  0  0
  7  5  2  0  0  0  0
  8 10  1  0  0  0  0
  9 14  1  0  0  0  0
  9  8  2  0  0  0  0
 10 13  1  0  0  0  0
 11 14  2  0  0  0  0
 13 15  1  0  0  0  0
 14 12  1  0  0  0  0
 15 12  1  6  0  0  0
 15  4  1  0  0  0  0
 16 17  1  0  0  0  0
 17 11  1  0  0  0  0
 18 17  2  0  0  0  0
 20 19  1  0  0  0  0
 21 20  1  0  0  0  0
 22 24  1  0  0  0  0
 22 26  1  1  0  0  0
 23 22  1  0  0  0  0
 23 24  1  0  0  0  0
 24 25  1  6  0  0  0
 24 21  1  0  0  0  0
 27 26  1  0  0  0  0
 27 28  1  1  0  0  0
 29 30  1  0  0  0  0
 30 27  1  0  0  0  0
M  END
>  <MODEL>
4

>  <REMARK>
 VINA RESULT:      -8.1      2.528      4.759
  Name = 
  9 active torsions:
  status: ('A' for Active; 'I' for Inactive)
    1  A    between atoms: C_1  and  C_4
    2  A    between atoms: C_1  and  C_5
    3  A    between atoms: C_4  and  C_27
    4  A    between atoms: C_5  and  C_22
    5  A    between atoms: C_8  and  C_12
    6  A    between atoms: C_9  and  C_12
    7  A    between atoms: C_9  and  O_21
    8  A    between atoms: C_15  and  C_16
    9  A    between atoms: C_19  and  C_29
                            x       y       z     vdW  Elec       q    Type
                         _______ _______ _______ _____ _____    ______ ____

>  <TORSDO>
F 9

$$$$
=
 OpenBabel11052412223D

 30 32  0  0  1  0  0  0  0  0999 V2000
  188.3810  178.1010  139.3570 C   0  0  1  0  0  3  0  0  0  0  0  0
  189.3440  177.2260  138.7750 O   0  0  0  0  0  0  0  0  0  0  0  0
  187.1890  177.9940  138.6620 F   0  0  0  0  0  0  0  0  0  0  0  0
  189.5300  177.7630  141.5850 C   0  0  2  0  0  3  0  0  0  0  0  0
  190.4550  176.7720  139.4880 C   0  0  0  0  0  3  0  0  0  0  0  0
  188.1700  177.7780  140.8380 C   0  0  1  0  0  3  0  0  0  0  0  0
  190.5680  176.9950  140.7960 C   0  0  0  0  0  3  0  0  0  0  0  0
  191.8160  176.2290  145.0280 C   0  0  0  0  0  3  0  0  0  0  0  0
  191.0250  176.8900  145.8790 C   0  0  0  0  0  3  0  0  0  0  0  0
  191.5240  176.0600  143.6680 O   0  0  0  0  0  0  0  0  0  0  0  0
  188.8320  177.9590  146.2810 C   0  0  0  0  0  3  0  0  0  0  0  0
  189.8120  178.2270  144.0730 C   0  0  0  0  0  2  0  0  0  0  0  0
  190.1910  175.8700  143.1950 C   0  0  0  0  0  2  0  0  0  0  0  0
  189.8440  177.6640  145.4570 C   0  0  0  0  0  0  0  0  0  0  0  0
  189.4170  177.1900  143.0190 C   0  0  2  0  0  3  0  0  0  0  0  0
  188.1920  176.4260  148.0000 O   0  0  0  0  0  0  0  0  0  0  0  0
  188.6900  177.5400  147.6870 C   0  0  0  0  0  0  0  0  0  0  0  0
  189.1160  178.3990  148.6900 O   0  0  0  0  0  1  0  0  0  0  0  0
  187.2360  178.8310  141.4130 C   0  0  0  0  0  2  0  0  0  0  0  0
  186.0830  178.1560  142.1280 C   0  0  0  0  0  2  0  0  0  0  0  0
  185.0560  179.2040  142.5110 C   0  0  0  0  0  2  0  0  0  0  0  0
  183.0770  178.8220  144.1870 C   0  0  2  0  0  3  0  0  0  0  0  0
  183.7580  180.0400  144.3980 O   0  0  0  0  0  0  0  0  0  0  0  0
  184.5330  178.9670  143.9250 C   0  0  2  0  0  0  0  0  0  0  0  0
  185.4730  178.4430  144.9920 C   0  0  0  0  0  1  0  0  0  0  0  0
  182.2140  178.9430  142.9380 C   0  0  0  0  0  2  0  0  0  0  0  0
  180.7600  179.1780  143.3140 C   0  0  2  0  0  3  0  0  0  0  0  0
  179.8970  178.1560  142.6000 C   0  0  0  0  0  1  0  0  0  0  0  0
  179.7220  180.2900  141.7050 C   0  0  0  0  0  1  0  0  0  0  0  0
  180.3690  180.4620  142.9300 O   0  0  0  0  0  0  0  0  0  0  0  0
  1  3  1  6  0  0  0
  1  6  1  0  0  0  0
  2  1  1  0  0  0  0
  2  5  1  0  0  0  0
  4  7  1  6  0  0  0
  4 15  1  0  0  0  0
  5  7  2  0  0  0  0
  6 19  1  1  0  0  0
  6  4  1  0  0  0  0
  8  9  2  0  0  0  0
 10  8  1  0  0  0  0
 11 17  1  0  0  0  0
 12 14  1  0  0  0  0
 13 10  1  0  0  0  0
 14  9  1  0  0  0  0
 14 11  2  0  0  0  0
 15 13  1  6  0  0  0
 15 12  1  0  0  0  0
 17 16  2  0  0  0  0
 17 18  1  0  0  0  0
 19 20  1  0  0  0  0
 20 21  1  0  0  0  0
 21 24  1  0  0  0  0
 22 26  1  6  0  0  0
 22 23  1  0  0  0  0
 24 22  1  0  0  0  0
 24 23  1  0  0  0  0
 24 25  1  1  0  0  0
 26 27  1  0  0  0  0
 27 28  1  6  0  0  0
 29 30  1  0  0  0  0
 30 27  1  0  0  0  0
M  END
>  <MODEL>
5

>  <REMARK>
 VINA RESULT:      -8.0      2.748      6.257
  Name = 
  9 active torsions:
  status: ('A' for Active; 'I' for Inactive)
    1  A    between atoms: C_1  and  C_4
    2  A    between atoms: C_1  and  C_5
    3  A    between atoms: C_4  and  C_27
    4  A    between atoms: C_5  and  C_22
    5  A    between atoms: C_8  and  C_12
    6  A    between atoms: C_9  and  C_12
    7  A    between atoms: C_9  and  O_21
    8  A    between atoms: C_15  and  C_16
    9  A    between atoms: C_19  and  C_29
                            x       y       z     vdW  Elec       q    Type
                         _______ _______ _______ _____ _____    ______ ____

>  <TORSDO>
F 9

$$$$
=
 OpenBabel11052412223D

 30 32  0  0  1  0  0  0  0  0999 V2000
  189.8790  177.4100  146.8090 C   0  0  1  0  0  3  0  0  0  0  0  0
  189.2830  177.1320  148.0730 O   0  0  0  0  0  0  0  0  0  0  0  0
  190.9290  176.5340  146.5980 F   0  0  0  0  0  0  0  0  0  0  0  0
  187.6120  178.1780  145.9920 C   0  0  2  0  0  3  0  0  0  0  0  0
  187.9730  177.5130  148.3710 C   0  0  0  0  0  3  0  0  0  0  0  0
  188.8510  177.2970  145.6800 C   0  0  1  0  0  3  0  0  0  0  0  0
  187.1670  177.9910  147.4260 C   0  0  0  0  0  3  0  0  0  0  0  0
  183.4100  179.1680  145.0960 C   0  0  0  0  0  3  0  0  0  0  0  0
  183.6780  179.2280  143.7870 C   0  0  0  0  0  3  0  0  0  0  0  0
  184.2950  178.6420  146.0460 O   0  0  0  0  0  0  0  0  0  0  0  0
  185.1690  178.5510  141.9330 C   0  0  0  0  0  3  0  0  0  0  0  0
  186.2120  179.0780  144.0640 C   0  0  0  0  0  2  0  0  0  0  0  0
  185.1360  177.5230  145.7650 C   0  0  0  0  0  2  0  0  0  0  0  0
  184.9970  178.9080  143.2110 C   0  0  0  0  0  0  0  0  0  0  0  0
  186.4320  177.9080  145.0260 C   0  0  2  0  0  3  0  0  0  0  0  0
  183.4500  177.3000  140.8390 O   0  0  0  0  0  1  0  0  0  0  0  0
  184.1130  178.3680  140.9210 C   0  0  0  0  0  0  0  0  0  0  0  0
  183.8470  179.4020  140.0330 O   0  0  0  0  0  0  0  0  0  0  0  0
  189.5290  177.7330  144.3910 C   0  0  0  0  0  2  0  0  0  0  0  0
  189.4140  176.6340  143.3560 C   0  0  0  0  0  2  0  0  0  0  0  0
  188.8940  177.2260  142.0600 C   0  0  0  0  0  2  0  0  0  0  0  0
  189.7420  177.8780  139.6660 C   0  0  2  0  0  3  0  0  0  0  0  0
  189.8920  176.5040  139.9550 O   0  0  0  0  0  0  0  0  0  0  0  0
  190.0200  177.3870  141.0420 C   0  0  2  0  0  0  0  0  0  0  0  0
  191.4550  177.4790  141.5200 C   0  0  0  0  0  1  0  0  0  0  0  0
  188.2710  178.1750  139.4070 C   0  0  0  0  0  2  0  0  0  0  0  0
  187.9820  178.1810  137.9150 C   0  0  2  0  0  3  0  0  0  0  0  0
  189.0440  179.0040  137.2120 C   0  0  0  0  0  1  0  0  0  0  0  0
  185.8520  177.6570  137.6090 C   0  0  0  0  0  1  0  0  0  0  0  0
  186.7270  178.7440  137.6740 O   0  0  0  0  0  0  0  0  0  0  0  0
  1  3  1  6  0  0  0
  1  2  1  0  0  0  0
  2  5  1  0  0  0  0
  4  7  1  1  0  0  0
  6 19  1  6  0  0  0
  6  4  1  0  0  0  0
  6  1  1  0  0  0  0
  7  5  2  0  0  0  0
  8 10  1  0  0  0  0
  9  8  2  0  0  0  0
 11 14  2  0  0  0  0
 13 10  1  0  0  0  0
 14  9  1  0  0  0  0
 14 12  1  0  0  0  0
 15 12  1  1  0  0  0
 15 13  1  0  0  0  0
 15  4  1  0  0  0  0
 16 17  1  0  0  0  0
 17 11  1  0  0  0  0
 18 17  2  0  0  0  0
 20 19  1  0  0  0  0
 21 20  1  0  0  0  0
 22 26  1  1  0  0  0
 22 23  1  0  0  0  0
 22 24  1  0  0  0  0
 23 24  1  0  0  0  0
 24 25  1  1  0  0  0
 24 21  1  0  0  0  0
 27 28  1  6  0  0  0
 27 26  1  0  0  0  0
 29 30  1  0  0  0  0
 30 27  1  0  0  0  0
M  END
>  <MODEL>
6

>  <REMARK>
 VINA RESULT:      -7.9      2.005      5.156
  Name = 
  9 active torsions:
  status: ('A' for Active; 'I' for Inactive)
    1  A    between atoms: C_1  and  C_4
    2  A    between atoms: C_1  and  C_5
    3  A    between atoms: C_4  and  C_27
    4  A    between atoms: C_5  and  C_22
    5  A    between atoms: C_8  and  C_12
    6  A    between atoms: C_9  and  C_12
    7  A    between atoms: C_9  and  O_21
    8  A    between atoms: C_15  and  C_16
    9  A    between atoms: C_19  and  C_29
                            x       y       z     vdW  Elec       q    Type
                         _______ _______ _______ _____ _____    ______ ____

>  <TORSDO>
F 9

$$$$
=
 OpenBabel11052412223D

 30 32  0  0  1  0  0  0  0  0999 V2000
  184.9260  178.4450  145.9180 C   0  0  1  0  0  3  0  0  0  0  0  0
  185.4740  178.8350  147.1740 O   0  0  0  0  0  0  0  0  0  0  0  0
  183.9070  179.3150  145.5750 F   0  0  0  0  0  0  0  0  0  0  0  0
  187.2080  177.5560  145.2820 C   0  0  2  0  0  3  0  0  0  0  0  0
  186.7610  178.4610  147.5660 C   0  0  0  0  0  3  0  0  0  0  0  0
  186.0030  178.4250  144.8300 C   0  0  1  0  0  3  0  0  0  0  0  0
  187.5960  177.8760  146.7090 C   0  0  0  0  0  3  0  0  0  0  0  0
  191.4100  176.3780  144.6580 C   0  0  0  0  0  3  0  0  0  0  0  0
  191.1940  176.2080  143.3490 C   0  0  0  0  0  3  0  0  0  0  0  0
  190.5040  177.0110  145.5190 O   0  0  0  0  0  0  0  0  0  0  0  0
  189.8000  176.7550  141.3810 C   0  0  0  0  0  3  0  0  0  0  0  0
  188.6560  176.4490  143.5030 C   0  0  0  0  0  2  0  0  0  0  0  0
  189.7100  178.1220  145.1040 C   0  0  0  0  0  2  0  0  0  0  0  0
  189.9090  176.5100  142.6910 C   0  0  0  0  0  0  0  0  0  0  0  0
  188.4340  177.7070  144.3480 C   0  0  2  0  0  3  0  0  0  0  0  0
  191.8790  177.5970  140.5530 O   0  0  0  0  0  1  0  0  0  0  0  0
  190.9010  176.8180  140.4020 C   0  0  0  0  0  0  0  0  0  0  0  0
  190.8530  175.9970  139.2840 O   0  0  0  0  0  0  0  0  0  0  0  0
  185.3710  177.8760  143.5610 C   0  0  0  0  0  2  0  0  0  0  0  0
  184.9810  179.0200  142.6480 C   0  0  0  0  0  2  0  0  0  0  0  0
  183.5390  178.8400  142.2160 C   0  0  0  0  0  2  0  0  0  0  0  0
  182.1230  178.4500  140.0440 C   0  0  2  0  0  3  0  0  0  0  0  0
  182.9340  177.3460  140.3870 O   0  0  0  0  0  0  0  0  0  0  0  0
  183.4420  178.6160  140.7090 C   0  0  2  0  0  0  0  0  0  0  0  0
  184.6100  178.9940  139.8200 C   0  0  0  0  0  1  0  0  0  0  0  0
  180.9410  178.5150  141.0030 C   0  0  0  0  0  2  0  0  0  0  0  0
  179.9720  179.6070  140.5810 C   0  0  2  0  0  3  0  0  0  0  0  0
  180.2650  179.9980  139.1460 C   0  0  0  0  0  1  0  0  0  0  0  0
  179.3010  180.4770  142.5050 C   0  0  0  0  0  1  0  0  0  0  0  0
  180.1240  180.7250  141.4040 O   0  0  0  0  0  0  0  0  0  0  0  0
  1  3  1  6  0  0  0
  1  2  1  0  0  0  0
  2  5  1  0  0  0  0
  4  7  1  1  0  0  0
  6 19  1  6  0  0  0
  6  4  1  0  0  0  0
  6  1  1  0  0  0  0
  7  5  2  0  0  0  0
  8 10  1  0  0  0  0
  9  8  2  0  0  0  0
 11 14  2  0  0  0  0
 13 10  1  0  0  0  0
 14  9  1  0  0  0  0
 14 12  1  0  0  0  0
 15 12  1  1  0  0  0
 15 13  1  0  0  0  0
 15  4  1  0  0  0  0
 17 16  1  0  0  0  0
 17 11  1  0  0  0  0
 18 17  2  0  0  0  0
 20 19  1  0  0  0  0
 21 20  1  0  0  0  0
 22 23  1  0  0  0  0
 22 24  1  0  0  0  0
 22 26  1  1  0  0  0
 23 24  1  0  0  0  0
 24 25  1  6  0  0  0
 24 21  1  0  0  0  0
 27 28  1  6  0  0  0
 27 26  1  0  0  0  0
 27 30  1  0  0  0  0
 30 29  1  0  0  0  0
M  END
>  <MODEL>
7

>  <REMARK>
 VINA RESULT:      -7.9      1.798      3.703
  Name = 
  9 active torsions:
  status: ('A' for Active; 'I' for Inactive)
    1  A    between atoms: C_1  and  C_4
    2  A    between atoms: C_1  and  C_5
    3  A    between atoms: C_4  and  C_27
    4  A    between atoms: C_5  and  C_22
    5  A    between atoms: C_8  and  C_12
    6  A    between atoms: C_9  and  C_12
    7  A    between atoms: C_9  and  O_21
    8  A    between atoms: C_15  and  C_16
    9  A    between atoms: C_19  and  C_29
                            x       y       z     vdW  Elec       q    Type
                         _______ _______ _______ _____ _____    ______ ____

>  <TORSDO>
F 9

$$$$
=
 OpenBabel11052412223D

 30 32  0  0  1  0  0  0  0  0999 V2000
  184.9410  178.4580  145.9630 C   0  0  1  0  0  3  0  0  0  0  0  0
  185.5110  178.8380  147.2130 O   0  0  0  0  0  0  0  0  0  0  0  0
  183.9250  179.3390  145.6390 F   0  0  0  0  0  0  0  0  0  0  0  0
  187.2050  177.5520  145.2910 C   0  0  2  0  0  3  0  0  0  0  0  0
  186.8000  178.4510  147.5850 C   0  0  0  0  0  3  0  0  0  0  0  0
  186.0030  178.4340  144.8610 C   0  0  1  0  0  3  0  0  0  0  0  0
  187.6170  177.8630  146.7140 C   0  0  0  0  0  3  0  0  0  0  0  0
  191.3750  176.3080  144.5820 C   0  0  0  0  0  3  0  0  0  0  0  0
  191.1350  176.1640  143.2740 C   0  0  0  0  0  3  0  0  0  0  0  0
  190.4940  176.9430  145.4680 O   0  0  0  0  0  0  0  0  0  0  0  0
  189.7220  176.7680  141.3370 C   0  0  0  0  0  3  0  0  0  0  0  0
  188.6050  176.4490  143.4720 C   0  0  0  0  0  2  0  0  0  0  0  0
  189.7140  178.0750  145.0830 C   0  0  0  0  0  2  0  0  0  0  0  0
  189.8470  176.5000  142.6420 C   0  0  0  0  0  0  0  0  0  0  0  0
  188.4190  177.6960  144.3400 C   0  0  2  0  0  3  0  0  0  0  0  0
  191.7690  177.6330  140.4580 O   0  0  0  0  0  1  0  0  0  0  0  0
  190.8080  176.8280  140.3430 C   0  0  0  0  0  0  0  0  0  0  0  0
  190.7650  175.9730  139.2500 O   0  0  0  0  0  0  0  0  0  0  0  0
  185.3470  177.8960  143.5990 C   0  0  0  0  0  2  0  0  0  0  0  0
  185.0700  179.0360  142.6400 C   0  0  0  0  0  2  0  0  0  0  0  0
  184.4550  178.4780  141.3720 C   0  0  0  0  0  2  0  0  0  0  0  0
  182.0950  177.9920  140.3380 C   0  0  2  0  0  3  0  0  0  0  0  0
  182.4500  179.3580  140.2990 O   0  0  0  0  0  0  0  0  0  0  0  0
  182.9350  178.6200  141.3920 C   0  0  2  0  0  0  0  0  0  0  0  0
  182.2360  179.0050  142.6800 C   0  0  0  0  0  1  0  0  0  0  0  0
  182.8950  177.2390  139.2840 C   0  0  0  0  0  2  0  0  0  0  0  0
  182.1150  176.0360  138.7800 C   0  0  2  0  0  3  0  0  0  0  0  0
  181.1110  175.6230  139.8380 C   0  0  0  0  0  1  0  0  0  0  0  0
  183.8360  175.4350  137.5220 C   0  0  0  0  0  1  0  0  0  0  0  0
  182.9850  174.9730  138.5290 O   0  0  0  0  0  0  0  0  0  0  0  0
  1  3  1  6  0  0  0
  1  2  1  0  0  0  0
  2  5  1  0  0  0  0
  4  7  1  1  0  0  0
  6 19  1  6  0  0  0
  6  4  1  0  0  0  0
  6  1  1  0  0  0  0
  7  5  2  0  0  0  0
  8 10  1  0  0  0  0
  9  8  2  0  0  0  0
 11 14  2  0  0  0  0
 13 10  1  0  0  0  0
 14  9  1  0  0  0  0
 14 12  1  0  0  0  0
 15 12  1  1  0  0  0
 15 13  1  0  0  0  0
 15  4  1  0  0  0  0
 17 16  1  0  0  0  0
 17 11  1  0  0  0  0
 18 17  2  0  0  0  0
 20 19  1  0  0  0  0
 21 24  1  0  0  0  0
 21 20  1  0  0  0  0
 22 26  1  6  0  0  0
 22 24  1  0  0  0  0
 23 22  1  0  0  0  0
 23 24  1  0  0  0  0
 24 25  1  1  0  0  0
 27 26  1  0  0  0  0
 27 28  1  1  0  0  0
 29 30  1  0  0  0  0
 30 27  1  0  0  0  0
M  END
>  <MODEL>
8

>  <REMARK>
 VINA RESULT:      -7.7      1.856      2.701
  Name = 
  9 active torsions:
  status: ('A' for Active; 'I' for Inactive)
    1  A    between atoms: C_1  and  C_4
    2  A    between atoms: C_1  and  C_5
    3  A    between atoms: C_4  and  C_27
    4  A    between atoms: C_5  and  C_22
    5  A    between atoms: C_8  and  C_12
    6  A    between atoms: C_9  and  C_12
    7  A    between atoms: C_9  and  O_21
    8  A    between atoms: C_15  and  C_16
    9  A    between atoms: C_19  and  C_29
                            x       y       z     vdW  Elec       q    Type
                         _______ _______ _______ _____ _____    ______ ____

>  <TORSDO>
F 9

$$$$
=
 OpenBabel11052412223D

 30 32  0  0  1  0  0  0  0  0999 V2000
  186.4000  177.8670  146.9270 C   0  0  1  0  0  3  0  0  0  0  0  0
  187.4620  178.1070  147.8460 O   0  0  0  0  0  0  0  0  0  0  0  0
  185.3000  178.6220  147.2940 F   0  0  0  0  0  0  0  0  0  0  0  0
  188.1400  177.4540  145.1380 C   0  0  2  0  0  3  0  0  0  0  0  0
  188.7960  177.8650  147.5120 C   0  0  0  0  0  3  0  0  0  0  0  0
  186.8260  178.1990  145.4950 C   0  0  1  0  0  3  0  0  0  0  0  0
  189.1470  177.5710  146.2610 C   0  0  0  0  0  3  0  0  0  0  0  0
  191.6520  177.1520  142.4910 C   0  0  0  0  0  3  0  0  0  0  0  0
  190.8650  177.1210  141.4100 C   0  0  0  0  0  3  0  0  0  0  0  0
  191.1970  177.4900  143.7720 O   0  0  0  0  0  0  0  0  0  0  0  0
  188.6640  177.6600  140.4200 C   0  0  0  0  0  3  0  0  0  0  0  0
  188.6870  176.8740  142.7190 C   0  0  0  0  0  2  0  0  0  0  0  0
  190.1950  178.4830  143.9860 C   0  0  0  0  0  2  0  0  0  0  0  0
  189.3990  177.2680  141.4660 C   0  0  0  0  0  0  0  0  0  0  0  0
  188.7620  177.9470  143.8090 C   0  0  2  0  0  3  0  0  0  0  0  0
  189.6990  177.2190  138.3110 O   0  0  0  0  0  0  0  0  0  0  0  0
  189.1640  178.0520  139.0890 C   0  0  0  0  0  0  0  0  0  0  0  0
  189.0420  179.3750  138.6890 O   0  0  0  0  0  1  0  0  0  0  0  0
  185.6910  177.7950  144.5680 C   0  0  0  0  0  2  0  0  0  0  0  0
  185.3590  178.9420  143.6350 C   0  0  0  0  0  2  0  0  0  0  0  0
  184.7860  178.3830  142.3480 C   0  0  0  0  0  2  0  0  0  0  0  0
  182.4700  178.0340  141.1690 C   0  0  2  0  0  3  0  0  0  0  0  0
  182.9030  179.3780  141.1600 O   0  0  0  0  0  0  0  0  0  0  0  0
  183.2780  178.6100  142.2760 C   0  0  2  0  0  0  0  0  0  0  0  0
  182.5240  179.0310  143.5220 C   0  0  0  0  0  1  0  0  0  0  0  0
  183.2900  177.2390  140.1610 C   0  0  0  0  0  2  0  0  0  0  0  0
  182.4590  176.9230  138.9290 C   0  0  2  0  0  3  0  0  0  0  0  0
  183.0190  175.6800  138.2640 C   0  0  0  0  0  1  0  0  0  0  0  0
  183.1650  177.4810  136.9050 C   0  0  0  0  0  1  0  0  0  0  0  0
  182.5120  177.9910  138.0300 O   0  0  0  0  0  0  0  0  0  0  0  0
  1  3  1  1  0  0  0
  1  2  1  0  0  0  0
  4  6  1  0  0  0  0
  4  7  1  1  0  0  0
  5  2  1  0  0  0  0
  6 19  1  6  0  0  0
  6  1  1  0  0  0  0
  7  5  2  0  0  0  0
  8 10  1  0  0  0  0
  9 14  1  0  0  0  0
  9  8  2  0  0  0  0
 10 13  1  0  0  0  0
 11 14  2  0  0  0  0
 14 12  1  0  0  0  0
 15 12  1  6  0  0  0
 15 13  1  0  0  0  0
 15  4  1  0  0  0  0
 16 17  2  0  0  0  0
 17 11  1  0  0  0  0
 18 17  1  0  0  0  0
 20 19  1  0  0  0  0
 21 20  1  0  0  0  0
 22 26  1  6  0  0  0
 22 24  1  0  0  0  0
 23 22  1  0  0  0  0
 23 24  1  0  0  0  0
 24 21  1  0  0  0  0
 24 25  1  1  0  0  0
 27 28  1  6  0  0  0
 27 26  1  0  0  0  0
 29 30  1  0  0  0  0
 30 27  1  0  0  0  0
M  END
>  <MODEL>
9

>  <REMARK>
 VINA RESULT:      -7.5      1.825      2.758
  Name = 
  9 active torsions:
  status: ('A' for Active; 'I' for Inactive)
    1  A    between atoms: C_1  and  C_4
    2  A    between atoms: C_1  and  C_5
    3  A    between atoms: C_4  and  C_27
    4  A    between atoms: C_5  and  C_22
    5  A    between atoms: C_8  and  C_12
    6  A    between atoms: C_9  and  C_12
    7  A    between atoms: C_9  and  O_21
    8  A    between atoms: C_15  and  C_16
    9  A    between atoms: C_19  and  C_29
                            x       y       z     vdW  Elec       q    Type
                         _______ _______ _______ _____ _____    ______ ____

>  <TORSDO>
F 9

$$$$
