=
 OpenBabel11052416173D

 43 49  0  0  1  0  0  0  0  0999 V2000
  187.1120  176.7890  137.1110 C   0  0  0  0  0  3  0  0  0  0  0  0
  186.5180  178.1370  137.3890 C   0  0  1  0  0  3  0  0  0  0  0  0
  186.3210  175.7130  137.0360 C   0  0  0  0  0  3  0  0  0  0  0  0
  185.2520  178.2840  136.5380 C   0  0  0  0  0  2  0  0  0  0  0  0
  184.2100  177.1620  136.7820 C   0  0  1  0  0  3  0  0  0  0  0  0
  184.8420  175.8360  137.2880 C   0  0  0  0  0  2  0  0  0  0  0  0
  186.2070  178.2650  138.8080 N   0  0  0  0  0  2  0  0  0  0  0  0
  188.2200  178.9070  139.8010 O   0  0  0  0  0  0  0  0  0  0  0  0
  187.4090  178.4880  140.8710 C   0  0  1  0  0  3  0  0  0  0  0  0
  187.3690  177.8150  139.5560 C   0  0  1  0  0  3  0  0  0  0  0  0
  188.2340  177.6560  141.8410 C   0  0  2  0  0  3  0  0  0  0  0  0
  187.6160  177.6850  143.2040 C   0  0  0  0  0  0  0  0  0  0  0  0
  187.8000  177.5310  145.6200 C   0  0  0  0  0  3  0  0  0  0  0  0
  185.6640  178.0400  144.5980 C   0  0  0  0  0  3  0  0  0  0  0  0
  186.4360  177.8150  145.7420 C   0  0  0  0  0  3  0  0  0  0  0  0
  186.2550  177.9780  143.3330 C   0  0  0  0  0  3  0  0  0  0  0  0
  188.3910  177.4690  144.3540 C   0  0  0  0  0  3  0  0  0  0  0  0
  189.5500  178.1420  141.8870 O   0  0  0  0  0  0  0  0  0  0  0  0
  190.3890  177.0910  141.4830 C   0  0  1  0  0  0  0  0  0  0  0  0
  191.7700  177.4880  141.1860 N   0  0  0  0  0  2  0  0  0  0  0  0
  190.2750  175.8450  142.1040 O   0  0  0  0  0  1  0  0  0  0  0  0
  190.8370  177.1000  140.1040 C   0  0  0  0  0  2  0  0  0  0  0  0
  183.1510  177.6150  137.7020 N   0  0  0  0  0  0  0  0  0  0  0  0
  179.8080  174.9250  139.1290 S   0  0  1  0  0  0  0  0  0  0  0  0
  181.8540  176.6220  139.5240 N   0  0  0  0  0  0  0  0  0  0  0  0
  180.4420  174.9020  137.4490 C   0  0  0  0  0  2  0  0  0  0  0  0
  179.6170  173.4500  139.4540 O   0  0  0  0  0  0  0  0  0  0  0  0
  182.3130  176.4700  138.1260 C   0  0  1  0  0  3  0  0  0  0  0  0
  181.3090  175.3580  140.0230 C   0  0  0  0  0  2  0  0  0  0  0  0
  181.1320  176.2220  137.1610 C   0  0  0  0  0  2  0  0  0  0  0  0
  182.7140  178.3350  141.1420 C   0  0  0  0  0  1  0  0  0  0  0  0
  182.9570  177.0090  140.4180 C   0  0  0  0  0  2  0  0  0  0  0  0
  182.3170  178.6320  137.0490 C   0  0  0  0  0  2  0  0  0  0  0  0
  180.4250  179.7910  138.1690 C   0  0  0  0  0  2  0  0  0  0  0  0
  181.9440  179.7160  138.0500 C   0  0  2  0  0  3  0  0  0  0  0  0
  180.1390  181.9380  135.4750 C   0  0  0  0  0  3  0  0  0  0  0  0
  179.6000  183.0050  136.4090 C   0  0  1  0  0  3  0  0  0  0  0  0
  181.1910  182.1840  138.1340 C   0  0  0  0  0  3  0  0  0  0  0  0
  180.8570  180.9090  135.9490 C   0  0  0  0  0  3  0  0  0  0  0  0
  181.1750  180.8670  137.4200 C   0  0  2  0  0  0  0  0  0  0  0  0
  180.4680  183.1980  137.6340 C   0  0  0  0  0  3  0  0  0  0  0  0
  180.7570  185.0080  135.4690 C   0  0  0  0  0  1  0  0  0  0  0  0
  179.4180  184.3290  135.6860 C   0  0  0  0  0  2  0  0  0  0  0  0
  1  2  1  0  0  0  0
  2  7  1  1  0  0  0
  3  1  2  0  0  0  0
  3  6  1  0  0  0  0
  4  5  1  0  0  0  0
  4  2  1  0  0  0  0
  5  6  1  0  0  0  0
  5 23  1  1  0  0  0
  8  9  1  0  0  0  0
  9 11  1  1  0  0  0
 10  7  1  6  0  0  0
 10  8  1  0  0  0  0
 10  9  1  0  0  0  0
 11 18  1  1  0  0  0
 11 12  1  0  0  0  0
 12 16  2  0  0  0  0
 12 17  1  0  0  0  0
 13 15  1  0  0  0  0
 14 15  2  0  0  0  0
 16 14  1  0  0  0  0
 17 13  2  0  0  0  0
 19 18  1  0  0  0  0
 19 21  1  1  0  0  0
 20 19  1  0  0  0  0
 22 20  1  0  0  0  0
 22 19  1  0  0  0  0
 24 27  2  1  0  0  0
 24 29  1  0  0  0  0
 25 29  1  0  0  0  0
 25 32  1  0  0  0  0
 26 24  1  0  0  0  0
 28 23  1  6  0  0  0
 28 25  1  0  0  0  0
 30 26  1  0  0  0  0
 30 28  1  0  0  0  0
 32 31  1  0  0  0  0
 33 23  1  0  0  0  0
 35 33  1  6  0  0  0
 35 34  1  0  0  0  0
 36 39  2  0  0  0  0
 36 37  1  0  0  0  0
 37 43  1  6  0  0  0
 37 41  1  0  0  0  0
 40 39  1  6  0  0  0
 40 35  1  0  0  0  0
 40 38  1  0  0  0  0
 40 34  1  0  0  0  0
 41 38  2  0  0  0  0
 42 43  1  0  0  0  0
M  END
>  <MODEL>
1

>  <REMARK>
 VINA RESULT:      -7.1      0.000      0.000
  Name = 
  12 active torsions:
  status: ('A' for Active; 'I' for Inactive)
    1  A    between atoms: C_4  and  C_14
    2  A    between atoms: C_6  and  N_17
    3  A    between atoms: C_8  and  C_34
    4  A    between atoms: C_10  and  O_41
    5  A    between atoms: C_11  and  C_14
    6  A    between atoms: C_12  and  N_17
    7  A    between atoms: C_14  and  O_41
    8  A    between atoms: N_16  and  C_43
    9  A    between atoms: C_19  and  C_37
   10  A    between atoms: C_21  and  N_30
   11  A    between atoms: C_27  and  N_30
   12  A    between atoms: N_30  and  C_34
                            x       y       z     vdW  Elec       q    Type
                         _______ _______ _______ _____ _____    ______ ____

>  <TORSDO>
F 12

$$$$
=
 OpenBabel11052416173D

 43 49  0  0  1  0  0  0  0  0999 V2000
  188.8000  177.4530  137.6490 C   0  0  0  0  0  3  0  0  0  0  0  0
  187.7600  178.5050  137.8940 C   0  0  1  0  0  3  0  0  0  0  0  0
  188.4280  176.2000  137.3700 C   0  0  0  0  0  3  0  0  0  0  0  0
  186.6620  178.3440  136.8370 C   0  0  0  0  0  2  0  0  0  0  0  0
  186.0230  176.9310  136.8220 C   0  0  1  0  0  3  0  0  0  0  0  0
  186.9700  175.8220  137.3550 C   0  0  0  0  0  2  0  0  0  0  0  0
  187.2120  178.3660  139.2380 N   0  0  0  0  0  2  0  0  0  0  0  0
  188.9180  179.1560  140.6210 O   0  0  0  0  0  0  0  0  0  0  0  0
  188.0320  178.4910  141.4880 C   0  0  1  0  0  3  0  0  0  0  0  0
  188.3030  177.9940  140.1220 C   0  0  1  0  0  3  0  0  0  0  0  0
  188.8230  177.6680  142.4930 C   0  0  2  0  0  3  0  0  0  0  0  0
  188.1450  177.6890  143.8280 C   0  0  0  0  0  0  0  0  0  0  0  0
  186.1340  177.6690  145.1860 C   0  0  0  0  0  3  0  0  0  0  0  0
  188.3110  177.6570  146.2470 C   0  0  0  0  0  3  0  0  0  0  0  0
  186.9160  177.6590  146.3450 C   0  0  0  0  0  3  0  0  0  0  0  0
  188.9230  177.6690  144.9910 C   0  0  0  0  0  3  0  0  0  0  0  0
  186.7460  177.6810  143.9290 C   0  0  0  0  0  3  0  0  0  0  0  0
  190.1300  178.1680  142.5970 O   0  0  0  0  0  0  0  0  0  0  0  0
  190.9940  177.1440  142.1790 C   0  0  1  0  0  0  0  0  0  0  0  0
  190.5200  175.7850  142.4660 N   0  0  0  0  0  2  0  0  0  0  0  0
  191.6650  177.2680  140.9600 O   0  0  0  0  0  1  0  0  0  0  0  0
  191.6530  176.3730  143.2160 C   0  0  0  0  0  2  0  0  0  0  0  0
  184.7460  176.9210  137.5600 N   0  0  0  0  0  0  0  0  0  0  0  0
  180.7940  175.6390  135.7750 S   0  0  1  0  0  0  0  0  0  0  0  0
  182.8600  175.3640  137.4710 N   0  0  0  0  0  0  0  0  0  0  0  0
  181.8680  176.8600  135.0140 C   0  0  0  0  0  2  0  0  0  0  0  0
  180.3150  174.8060  134.5940 O   0  0  0  0  0  0  0  0  0  0  0  0
  183.6700  176.3460  136.7180 C   0  0  1  0  0  3  0  0  0  0  0  0
  182.0250  174.5830  136.5550 C   0  0  0  0  0  2  0  0  0  0  0  0
  182.7890  177.4380  136.0720 C   0  0  0  0  0  2  0  0  0  0  0  0
  184.3400  173.3430  137.3220 C   0  0  0  0  0  1  0  0  0  0  0  0
  183.7070  174.4150  138.2120 C   0  0  0  0  0  2  0  0  0  0  0  0
  184.3880  178.2840  137.9680 C   0  0  0  0  0  2  0  0  0  0  0  0
  182.6110  179.7120  138.9570 C   0  0  0  0  0  2  0  0  0  0  0  0
  182.9260  178.3340  138.3850 C   0  0  2  0  0  3  0  0  0  0  0  0
  183.6630  178.8350  142.1300 C   0  0  0  0  0  3  0  0  0  0  0  0
  182.2450  179.0350  142.6330 C   0  0  1  0  0  3  0  0  0  0  0  0
  181.4350  178.0950  140.4790 C   0  0  0  0  0  3  0  0  0  0  0  0
  183.9070  178.6250  140.8280 C   0  0  0  0  0  3  0  0  0  0  0  0
  182.7410  178.5270  139.8820 C   0  0  2  0  0  0  0  0  0  0  0  0
  181.2210  178.3130  141.7860 C   0  0  0  0  0  3  0  0  0  0  0  0
  183.3490  178.9990  144.8720 C   0  0  0  0  0  1  0  0  0  0  0  0
  182.1120  178.6120  144.0860 C   0  0  0  0  0  2  0  0  0  0  0  0
  1  2  1  0  0  0  0
  2  7  1  1  0  0  0
  3  1  2  0  0  0  0
  4  2  1  0  0  0  0
  5  4  1  0  0  0  0
  5  6  1  0  0  0  0
  5 23  1  1  0  0  0
  6  3  1  0  0  0  0
  8  9  1  0  0  0  0
  9 11  1  1  0  0  0
 10  7  1  6  0  0  0
 10  8  1  0  0  0  0
 10  9  1  0  0  0  0
 11 18  1  1  0  0  0
 11 12  1  0  0  0  0
 12 17  2  0  0  0  0
 12 16  1  0  0  0  0
 13 15  2  0  0  0  0
 14 15  1  0  0  0  0
 16 14  2  0  0  0  0
 17 13  1  0  0  0  0
 19 21  1  6  0  0  0
 19 20  1  0  0  0  0
 19 18  1  0  0  0  0
 19 22  1  0  0  0  0
 20 22  1  0  0  0  0
 23 33  1  0  0  0  0
 24 27  2  6  0  0  0
 24 29  1  0  0  0  0
 25 32  1  0  0  0  0
 26 24  1  0  0  0  0
 26 30  1  0  0  0  0
 28 25  1  0  0  0  0
 28 23  1  1  0  0  0
 29 25  1  0  0  0  0
 30 28  1  0  0  0  0
 31 32  1  0  0  0  0
 35 33  1  1  0  0  0
 35 34  1  0  0  0  0
 35 40  1  0  0  0  0
 36 37  1  0  0  0  0
 37 43  1  1  0  0  0
 38 41  2  0  0  0  0
 39 36  2  0  0  0  0
 40 34  1  6  0  0  0
 40 38  1  0  0  0  0
 40 39  1  0  0  0  0
 41 37  1  0  0  0  0
 43 42  1  0  0  0  0
M  END
>  <MODEL>
2

>  <REMARK>
 VINA RESULT:      -6.7      2.622      4.072
  Name = 
  12 active torsions:
  status: ('A' for Active; 'I' for Inactive)
    1  A    between atoms: C_4  and  C_14
    2  A    between atoms: C_6  and  N_17
    3  A    between atoms: C_8  and  C_34
    4  A    between atoms: C_10  and  O_41
    5  A    between atoms: C_11  and  C_14
    6  A    between atoms: C_12  and  N_17
    7  A    between atoms: C_14  and  O_41
    8  A    between atoms: N_16  and  C_43
    9  A    between atoms: C_19  and  C_37
   10  A    between atoms: C_21  and  N_30
   11  A    between atoms: C_27  and  N_30
   12  A    between atoms: N_30  and  C_34
                            x       y       z     vdW  Elec       q    Type
                         _______ _______ _______ _____ _____    ______ ____

>  <TORSDO>
F 12

$$$$
=
 OpenBabel11052416173D

 43 49  0  0  1  0  0  0  0  0999 V2000
  188.9490  177.6750  136.3680 C   0  0  0  0  0  3  0  0  0  0  0  0
  187.9950  178.6290  137.0210 C   0  0  1  0  0  3  0  0  0  0  0  0
  188.5140  176.4860  135.9370 C   0  0  0  0  0  3  0  0  0  0  0  0
  186.6970  178.6380  136.2050 C   0  0  0  0  0  2  0  0  0  0  0  0
  186.0550  177.2350  136.0530 C   0  0  1  0  0  3  0  0  0  0  0  0
  187.0830  176.0740  136.1550 C   0  0  0  0  0  2  0  0  0  0  0  0
  187.7400  178.2220  138.3970 N   0  0  0  0  0  2  0  0  0  0  0  0
  188.7360  178.3990  140.5010 O   0  0  0  0  0  0  0  0  0  0  0  0
  189.1380  177.1400  140.0180 C   0  0  1  0  0  3  0  0  0  0  0  0
  188.9970  178.3080  139.1210 C   0  0  1  0  0  3  0  0  0  0  0  0
  190.6090  176.9190  140.3320 C   0  0  2  0  0  3  0  0  0  0  0  0
  191.3240  176.3930  139.1260 C   0  0  0  0  0  0  0  0  0  0  0  0
  193.2210  176.4040  137.6130 C   0  0  0  0  0  3  0  0  0  0  0  0
  191.4400  174.7910  137.3100 C   0  0  0  0  0  3  0  0  0  0  0  0
  192.6630  175.3350  136.9050 C   0  0  0  0  0  3  0  0  0  0  0  0
  190.7750  175.3170  138.4200 C   0  0  0  0  0  3  0  0  0  0  0  0
  192.5560  176.9300  138.7240 C   0  0  0  0  0  3  0  0  0  0  0  0
  190.7390  176.0270  141.4080 O   0  0  0  0  0  0  0  0  0  0  0  0
  190.9350  176.8030  142.5620 C   0  0  1  0  0  0  0  0  0  0  0  0
  191.2840  176.0380  143.7640 N   0  0  0  0  0  2  0  0  0  0  0  0
  191.5910  178.0320  142.4590 O   0  0  0  0  0  1  0  0  0  0  0  0
  189.9520  176.6680  143.6200 C   0  0  0  0  0  2  0  0  0  0  0  0
  184.9620  177.0460  137.0240 N   0  0  0  0  0  0  0  0  0  0  0  0
  180.8080  175.6840  135.8690 S   0  0  1  0  0  0  0  0  0  0  0  0
  183.1130  175.4570  137.2320 N   0  0  0  0  0  0  0  0  0  0  0  0
  181.7320  176.9170  134.9470 C   0  0  0  0  0  2  0  0  0  0  0  0
  180.1690  174.8350  134.7790 O   0  0  0  0  0  0  0  0  0  0  0  0
  183.7810  176.4470  136.3590 C   0  0  1  0  0  3  0  0  0  0  0  0
  182.1610  174.6560  136.4580 C   0  0  0  0  0  2  0  0  0  0  0  0
  182.7930  177.5190  135.8500 C   0  0  0  0  0  2  0  0  0  0  0  0
  184.4670  173.3680  136.9200 C   0  0  0  0  0  1  0  0  0  0  0  0
  184.0790  174.5280  137.8390 C   0  0  0  0  0  2  0  0  0  0  0  0
  184.5980  178.3320  137.6300 C   0  0  0  0  0  2  0  0  0  0  0  0
  183.1340  179.4690  139.2850 C   0  0  0  0  0  2  0  0  0  0  0  0
  183.5000  178.1260  138.6630 C   0  0  2  0  0  3  0  0  0  0  0  0
  185.6420  179.2600  141.6550 C   0  0  0  0  0  3  0  0  0  0  0  0
  184.5840  179.2210  142.7420 C   0  0  1  0  0  3  0  0  0  0  0  0
  183.1790  177.8550  141.2110 C   0  0  0  0  0  3  0  0  0  0  0  0
  185.3400  178.9370  140.3890 C   0  0  0  0  0  3  0  0  0  0  0  0
  183.9430  178.4700  140.0770 C   0  0  2  0  0  0  0  0  0  0  0  0
  183.5080  178.1940  142.4670 C   0  0  0  0  0  3  0  0  0  0  0  0
  186.1900  177.8230  144.0440 C   0  0  0  0  0  1  0  0  0  0  0  0
  185.2040  178.9740  144.1060 C   0  0  0  0  0  2  0  0  0  0  0  0
  1  2  1  0  0  0  0
  2  7  1  1  0  0  0
  3  6  1  0  0  0  0
  3  1  2  0  0  0  0
  4  2  1  0  0  0  0
  5  6  1  0  0  0  0
  5  4  1  0  0  0  0
  5 23  1  1  0  0  0
  9 11  1  1  0  0  0
  9  8  1  0  0  0  0
 10  7  1  6  0  0  0
 10  9  1  0  0  0  0
 10  8  1  0  0  0  0
 11 18  1  1  0  0  0
 12 11  1  0  0  0  0
 13 17  2  0  0  0  0
 14 16  1  0  0  0  0
 15 14  2  0  0  0  0
 15 13  1  0  0  0  0
 16 12  2  0  0  0  0
 17 12  1  0  0  0  0
 18 19  1  0  0  0  0
 19 21  1  6  0  0  0
 19 22  1  0  0  0  0
 19 20  1  0  0  0  0
 22 20  1  0  0  0  0
 23 33  1  0  0  0  0
 24 27  2  6  0  0  0
 24 29  1  0  0  0  0
 25 32  1  0  0  0  0
 26 30  1  0  0  0  0
 26 24  1  0  0  0  0
 28 23  1  1  0  0  0
 28 25  1  0  0  0  0
 29 25  1  0  0  0  0
 30 28  1  0  0  0  0
 31 32  1  0  0  0  0
 35 33  1  6  0  0  0
 35 34  1  0  0  0  0
 35 40  1  0  0  0  0
 36 37  1  0  0  0  0
 37 43  1  1  0  0  0
 38 41  2  0  0  0  0
 39 36  2  0  0  0  0
 40 34  1  1  0  0  0
 40 39  1  0  0  0  0
 40 38  1  0  0  0  0
 41 37  1  0  0  0  0
 42 43  1  0  0  0  0
M  END
>  <MODEL>
3

>  <REMARK>
 VINA RESULT:      -6.4      2.913      5.484
  Name = 
  12 active torsions:
  status: ('A' for Active; 'I' for Inactive)
    1  A    between atoms: C_4  and  C_14
    2  A    between atoms: C_6  and  N_17
    3  A    between atoms: C_8  and  C_34
    4  A    between atoms: C_10  and  O_41
    5  A    between atoms: C_11  and  C_14
    6  A    between atoms: C_12  and  N_17
    7  A    between atoms: C_14  and  O_41
    8  A    between atoms: N_16  and  C_43
    9  A    between atoms: C_19  and  C_37
   10  A    between atoms: C_21  and  N_30
   11  A    between atoms: C_27  and  N_30
   12  A    between atoms: N_30  and  C_34
                            x       y       z     vdW  Elec       q    Type
                         _______ _______ _______ _____ _____    ______ ____

>  <TORSDO>
F 12

$$$$
=
 OpenBabel11052416173D

 43 49  0  0  1  0  0  0  0  0999 V2000
  189.6120  178.2510  142.0030 C   0  0  0  0  0  3  0  0  0  0  0  0
  188.6830  178.7610  140.9430 C   0  0  1  0  0  3  0  0  0  0  0  0
  190.3370  177.1490  141.7820 C   0  0  0  0  0  3  0  0  0  0  0  0
  189.4120  178.6890  139.5970 C   0  0  0  0  0  2  0  0  0  0  0  0
  189.9200  177.2660  139.2460 C   0  0  1  0  0  3  0  0  0  0  0  0
  190.1850  176.3820  140.4960 C   0  0  0  0  0  2  0  0  0  0  0  0
  187.4630  177.9610  140.9170 N   0  0  0  0  0  2  0  0  0  0  0  0
  185.2990  177.8690  141.7860 O   0  0  0  0  0  0  0  0  0  0  0  0
  186.1390  177.6100  142.8850 C   0  0  1  0  0  3  0  0  0  0  0  0
  186.5150  178.5750  141.8300 C   0  0  1  0  0  3  0  0  0  0  0  0
  185.6310  178.3640  144.1040 C   0  0  2  0  0  3  0  0  0  0  0  0
  186.5260  178.1120  145.2780 C   0  0  0  0  0  0  0  0  0  0  0  0
  188.6060  177.2930  146.2230 C   0  0  0  0  0  3  0  0  0  0  0  0
  186.9620  178.3510  147.6520 C   0  0  0  0  0  3  0  0  0  0  0  0
  188.2000  177.7220  147.4910 C   0  0  0  0  0  3  0  0  0  0  0  0
  186.1290  178.5490  146.5470 C   0  0  0  0  0  3  0  0  0  0  0  0
  187.7720  177.4900  145.1180 C   0  0  0  0  0  3  0  0  0  0  0  0
  184.3160  177.9710  144.3960 O   0  0  0  0  0  0  0  0  0  0  0  0
  183.4910  179.0750  144.1280 C   0  0  1  0  0  0  0  0  0  0  0  0
  182.0900  178.9060  144.5320 N   0  0  0  0  0  2  0  0  0  0  0  0
  183.9870  180.3660  144.3230 O   0  0  0  0  0  1  0  0  0  0  0  0
  182.4780  178.9070  143.1030 C   0  0  0  0  0  2  0  0  0  0  0  0
  188.9960  176.5880  138.3180 N   0  0  0  0  0  0  0  0  0  0  0  0
  190.6890  174.2840  134.8150 S   0  0  1  0  0  0  0  0  0  0  0  0
  188.8260  174.7690  136.6900 N   0  0  0  0  0  0  0  0  0  0  0  0
  191.6530  175.4430  135.7900 C   0  0  0  0  0  2  0  0  0  0  0  0
  191.6490  173.1230  134.5960 O   0  0  0  0  0  0  0  0  0  0  0  0
  189.7410  175.6590  137.4370 C   0  0  1  0  0  3  0  0  0  0  0  0
  189.5710  173.6650  136.0820 C   0  0  0  0  0  2  0  0  0  0  0  0
  190.7120  176.4030  136.4940 C   0  0  0  0  0  2  0  0  0  0  0  0
  187.3380  172.7950  137.1160 C   0  0  0  0  0  1  0  0  0  0  0  0
  187.8030  174.1800  137.5690 C   0  0  0  0  0  2  0  0  0  0  0  0
  188.2770  177.5790  137.5090 C   0  0  0  0  0  2  0  0  0  0  0  0
  186.4140  177.9420  135.9050 C   0  0  0  0  0  2  0  0  0  0  0  0
  187.1910  176.8930  136.6930 C   0  0  2  0  0  3  0  0  0  0  0  0
  184.2680  178.5940  138.5350 C   0  0  0  0  0  3  0  0  0  0  0  0
  183.1160  178.0720  137.6980 C   0  0  1  0  0  3  0  0  0  0  0  0
  184.6660  176.3610  136.7760 C   0  0  0  0  0  3  0  0  0  0  0  0
  185.5350  178.2560  138.2480 C   0  0  0  0  0  3  0  0  0  0  0  0
  185.7870  177.2960  137.1170 C   0  0  2  0  0  0  0  0  0  0  0  0
  183.4100  176.7230  137.0800 C   0  0  0  0  0  3  0  0  0  0  0  0
  182.0510  177.2340  139.7940 C   0  0  0  0  0  1  0  0  0  0  0  0
  181.8320  178.0060  138.5070 C   0  0  0  0  0  2  0  0  0  0  0  0
  2  7  1  6  0  0  0
  2  1  1  0  0  0  0
  3  1  2  0  0  0  0
  4  2  1  0  0  0  0
  5 23  1  6  0  0  0
  5  4  1  0  0  0  0
  5  6  1  0  0  0  0
  6  3  1  0  0  0  0
  8 10  1  0  0  0  0
  8  9  1  0  0  0  0
  9 11  1  1  0  0  0
 10  7  1  6  0  0  0
 10  9  1  0  0  0  0
 11 18  1  1  0  0  0
 11 12  1  0  0  0  0
 12 16  1  0  0  0  0
 13 15  2  0  0  0  0
 15 14  1  0  0  0  0
 16 14  2  0  0  0  0
 17 12  2  0  0  0  0
 17 13  1  0  0  0  0
 19 21  1  1  0  0  0
 19 18  1  0  0  0  0
 19 20  1  0  0  0  0
 22 19  1  0  0  0  0
 22 20  1  0  0  0  0
 24 27  2  1  0  0  0
 24 26  1  0  0  0  0
 24 29  1  0  0  0  0
 25 28  1  0  0  0  0
 25 32  1  0  0  0  0
 26 30  1  0  0  0  0
 28 23  1  6  0  0  0
 29 25  1  0  0  0  0
 30 28  1  0  0  0  0
 31 32  1  0  0  0  0
 33 23  1  0  0  0  0
 34 35  1  0  0  0  0
 35 40  1  0  0  0  0
 35 33  1  1  0  0  0
 37 43  1  1  0  0  0
 37 36  1  0  0  0  0
 38 41  2  0  0  0  0
 38 40  1  0  0  0  0
 39 36  2  0  0  0  0
 40 34  1  6  0  0  0
 40 39  1  0  0  0  0
 41 37  1  0  0  0  0
 43 42  1  0  0  0  0
M  END
>  <MODEL>
4

>  <REMARK>
 VINA RESULT:      -6.1      3.873      6.806
  Name = 
  12 active torsions:
  status: ('A' for Active; 'I' for Inactive)
    1  A    between atoms: C_4  and  C_14
    2  A    between atoms: C_6  and  N_17
    3  A    between atoms: C_8  and  C_34
    4  A    between atoms: C_10  and  O_41
    5  A    between atoms: C_11  and  C_14
    6  A    between atoms: C_12  and  N_17
    7  A    between atoms: C_14  and  O_41
    8  A    between atoms: N_16  and  C_43
    9  A    between atoms: C_19  and  C_37
   10  A    between atoms: C_21  and  N_30
   11  A    between atoms: C_27  and  N_30
   12  A    between atoms: N_30  and  C_34
                            x       y       z     vdW  Elec       q    Type
                         _______ _______ _______ _____ _____    ______ ____

>  <TORSDO>
F 12

$$$$
=
 OpenBabel11052416173D

 43 49  0  0  1  0  0  0  0  0999 V2000
  184.4030  175.1710  137.1010 C   0  0  0  0  0  3  0  0  0  0  0  0
  184.2790  176.6060  136.6870 C   0  0  1  0  0  3  0  0  0  0  0  0
  183.7280  174.7220  138.1650 C   0  0  0  0  0  3  0  0  0  0  0  0
  182.7990  176.9970  136.7640 C   0  0  0  0  0  2  0  0  0  0  0  0
  182.1730  176.7720  138.1650 C   0  0  1  0  0  3  0  0  0  0  0  0
  182.8860  175.6620  138.9860 C   0  0  0  0  0  2  0  0  0  0  0  0
  185.0850  177.4520  137.5590 N   0  0  0  0  0  2  0  0  0  0  0  0
  187.2440  177.9850  136.8500 O   0  0  0  0  0  0  0  0  0  0  0  0
  187.3400  177.8890  138.2500 C   0  0  1  0  0  3  0  0  0  0  0  0
  186.4610  176.9940  137.4680 C   0  0  1  0  0  3  0  0  0  0  0  0
  188.6130  177.1480  138.6250 C   0  0  2  0  0  3  0  0  0  0  0  0
  188.9760  177.4280  140.0500 C   0  0  0  0  0  0  0  0  0  0  0  0
  188.3810  178.1690  142.2830 C   0  0  0  0  0  3  0  0  0  0  0  0
  190.6150  177.3490  141.8350 C   0  0  0  0  0  3  0  0  0  0  0  0
  189.6740  177.8730  142.7270 C   0  0  0  0  0  3  0  0  0  0  0  0
  190.2650  177.1240  140.5010 C   0  0  0  0  0  3  0  0  0  0  0  0
  188.0300  177.9450  140.9490 C   0  0  0  0  0  3  0  0  0  0  0  0
  189.6580  177.5290  137.7690 O   0  0  0  0  0  0  0  0  0  0  0  0
  190.2370  176.3480  137.2780 C   0  0  1  0  0  0  0  0  0  0  0  0
  191.6920  176.4060  137.0980 N   0  0  0  0  0  2  0  0  0  0  0  0
  189.7680  175.1130  137.7350 O   0  0  0  0  0  1  0  0  0  0  0  0
  190.7780  176.3890  135.9330 C   0  0  0  0  0  2  0  0  0  0  0  0
  182.1230  178.0320  138.9300 N   0  0  0  0  0  0  0  0  0  0  0  0
  179.9340  178.4300  142.8660 S   0  0  1  0  0  0  0  0  0  0  0  0
  182.0980  178.6740  141.2910 N   0  0  0  0  0  0  0  0  0  0  0  0
  179.3160  177.4570  141.4900 C   0  0  0  0  0  2  0  0  0  0  0  0
  179.6370  177.5560  144.0770 O   0  0  0  0  0  0  0  0  0  0  0  0
  181.5000  177.8040  140.2550 C   0  0  1  0  0  3  0  0  0  0  0  0
  181.7050  178.2200  142.6270 C   0  0  0  0  0  2  0  0  0  0  0  0
  179.9630  177.9460  140.2070 C   0  0  0  0  0  2  0  0  0  0  0  0
  184.2220  178.2580  142.5580 C   0  0  0  0  0  1  0  0  0  0  0  0
  183.5680  178.6560  141.2340 C   0  0  0  0  0  2  0  0  0  0  0  0
  181.3660  179.0440  138.1860 C   0  0  0  0  0  2  0  0  0  0  0  0
  180.7510  181.1550  139.3460 C   0  0  0  0  0  2  0  0  0  0  0  0
  181.8480  180.4360  138.5670 C   0  0  2  0  0  3  0  0  0  0  0  0
  179.2030  182.2910  136.4720 C   0  0  0  0  0  3  0  0  0  0  0  0
  179.5130  183.7150  136.8920 C   0  0  1  0  0  3  0  0  0  0  0  0
  181.6820  182.8920  137.7870 C   0  0  0  0  0  3  0  0  0  0  0  0
  179.8980  181.2580  136.9750 C   0  0  0  0  0  3  0  0  0  0  0  0
  181.0360  181.5450  137.9160 C   0  0  2  0  0  0  0  0  0  0  0  0
  180.9650  183.9040  137.2760 C   0  0  0  0  0  3  0  0  0  0  0  0
  180.2510  184.8590  134.8000 C   0  0  0  0  0  1  0  0  0  0  0  0
  179.1280  184.7060  135.8070 C   0  0  0  0  0  2  0  0  0  0  0  0
  1  3  2  0  0  0  0
  2  4  1  0  0  0  0
  2  1  1  0  0  0  0
  2  7  1  1  0  0  0
  3  6  1  0  0  0  0
  4  5  1  0  0  0  0
  5 23  1  1  0  0  0
  5  6  1  0  0  0  0
  8 10  1  0  0  0  0
  8  9  1  0  0  0  0
  9 11  1  6  0  0  0
 10  7  1  1  0  0  0
 10  9  1  0  0  0  0
 11 18  1  6  0  0  0
 11 12  1  0  0  0  0
 12 16  2  0  0  0  0
 12 17  1  0  0  0  0
 13 15  1  0  0  0  0
 14 15  2  0  0  0  0
 16 14  1  0  0  0  0
 17 13  2  0  0  0  0
 19 21  1  1  0  0  0
 19 18  1  0  0  0  0
 20 19  1  0  0  0  0
 22 20  1  0  0  0  0
 22 19  1  0  0  0  0
 24 27  2  1  0  0  0
 25 29  1  0  0  0  0
 26 24  1  0  0  0  0
 28 23  1  6  0  0  0
 28 25  1  0  0  0  0
 29 24  1  0  0  0  0
 30 28  1  0  0  0  0
 30 26  1  0  0  0  0
 32 25  1  0  0  0  0
 32 31  1  0  0  0  0
 33 23  1  0  0  0  0
 35 33  1  6  0  0  0
 35 34  1  0  0  0  0
 36 37  1  0  0  0  0
 36 39  2  0  0  0  0
 37 43  1  6  0  0  0
 37 41  1  0  0  0  0
 38 40  1  0  0  0  0
 40 39  1  6  0  0  0
 40 35  1  0  0  0  0
 40 34  1  0  0  0  0
 41 38  2  0  0  0  0
 42 43  1  0  0  0  0
M  END
>  <MODEL>
5

>  <REMARK>
 VINA RESULT:      -6.1      2.272      3.223
  Name = 
  12 active torsions:
  status: ('A' for Active; 'I' for Inactive)
    1  A    between atoms: C_4  and  C_14
    2  A    between atoms: C_6  and  N_17
    3  A    between atoms: C_8  and  C_34
    4  A    between atoms: C_10  and  O_41
    5  A    between atoms: C_11  and  C_14
    6  A    between atoms: C_12  and  N_17
    7  A    between atoms: C_14  and  O_41
    8  A    between atoms: N_16  and  C_43
    9  A    between atoms: C_19  and  C_37
   10  A    between atoms: C_21  and  N_30
   11  A    between atoms: C_27  and  N_30
   12  A    between atoms: N_30  and  C_34
                            x       y       z     vdW  Elec       q    Type
                         _______ _______ _______ _____ _____    ______ ____

>  <TORSDO>
F 12

$$$$
=
 OpenBabel11052416173D

 43 49  0  0  1  0  0  0  0  0999 V2000
  190.6380  177.8870  139.9330 C   0  0  0  0  0  3  0  0  0  0  0  0
  189.3530  178.3830  139.3440 C   0  0  1  0  0  3  0  0  0  0  0  0
  191.1390  176.7080  139.5460 C   0  0  0  0  0  3  0  0  0  0  0  0
  189.3910  178.1270  137.8330 C   0  0  0  0  0  2  0  0  0  0  0  0
  189.6270  176.6380  137.4660 C   0  0  1  0  0  3  0  0  0  0  0  0
  190.3900  175.8480  138.5640 C   0  0  0  0  0  2  0  0  0  0  0  0
  188.2210  177.6990  139.9580 N   0  0  0  0  0  2  0  0  0  0  0  0
  186.6760  178.3730  141.5720 O   0  0  0  0  0  0  0  0  0  0  0  0
  187.3350  177.2700  142.1450 C   0  0  1  0  0  3  0  0  0  0  0  0
  188.0480  178.2450  141.2930 C   0  0  1  0  0  3  0  0  0  0  0  0
  187.6360  177.5580  143.6070 C   0  0  2  0  0  3  0  0  0  0  0  0
  189.0370  177.1480  143.9380 C   0  0  0  0  0  0  0  0  0  0  0  0
  191.0510  177.3650  145.2760 C   0  0  0  0  0  3  0  0  0  0  0  0
  190.9150  175.6610  143.5600 C   0  0  0  0  0  3  0  0  0  0  0  0
  191.6320  176.3040  144.5740 C   0  0  0  0  0  3  0  0  0  0  0  0
  189.6200  176.0810  143.2460 C   0  0  0  0  0  3  0  0  0  0  0  0
  189.7540  177.7840  144.9620 C   0  0  0  0  0  3  0  0  0  0  0  0
  186.7190  176.8820  144.4270 O   0  0  0  0  0  0  0  0  0  0  0  0
  186.0030  177.8610  145.1340 C   0  0  1  0  0  0  0  0  0  0  0  0
  186.8000  178.6250  146.1010 N   0  0  0  0  0  2  0  0  0  0  0  0
  185.0360  178.6180  144.4690 O   0  0  0  0  0  1  0  0  0  0  0  0
  185.7990  177.6320  146.5510 C   0  0  0  0  0  2  0  0  0  0  0  0
  188.3560  175.9680  137.1340 N   0  0  0  0  0  0  0  0  0  0  0  0
  188.4360  172.2190  134.6070 S   0  0  1  0  0  0  0  0  0  0  0  0
  187.3740  173.8230  136.4840 N   0  0  0  0  0  0  0  0  0  0  0  0
  189.8410  173.3260  134.7730 C   0  0  0  0  0  2  0  0  0  0  0  0
  189.0680  170.8360  134.6740 O   0  0  0  0  0  0  0  0  0  0  0  0
  188.6150  174.6230  136.5710 C   0  0  1  0  0  3  0  0  0  0  0  0
  187.6910  172.4150  136.2330 C   0  0  0  0  0  2  0  0  0  0  0  0
  189.3470  174.6920  135.2120 C   0  0  0  0  0  2  0  0  0  0  0  0
  185.2990  173.0810  137.6830 C   0  0  0  0  0  1  0  0  0  0  0  0
  186.6000  173.8850  137.7340 C   0  0  0  0  0  2  0  0  0  0  0  0
  187.5950  176.7770  136.1740 C   0  0  0  0  0  2  0  0  0  0  0  0
  185.2700  177.4010  135.5580 C   0  0  0  0  0  2  0  0  0  0  0  0
  186.1550  176.2900  136.1130 C   0  0  2  0  0  3  0  0  0  0  0  0
  184.8300  178.8500  138.6650 C   0  0  0  0  0  3  0  0  0  0  0  0
  183.3480  178.5360  138.5790 C   0  0  1  0  0  3  0  0  0  0  0  0
  183.9480  176.4050  137.4490 C   0  0  0  0  0  3  0  0  0  0  0  0
  185.7190  178.1830  137.9140 C   0  0  0  0  0  3  0  0  0  0  0  0
  185.2250  177.0690  137.0300 C   0  0  2  0  0  0  0  0  0  0  0  0
  183.0810  177.0950  138.2050 C   0  0  0  0  0  3  0  0  0  0  0  0
  183.4260  178.3720  141.0690 C   0  0  0  0  0  1  0  0  0  0  0  0
  182.6360  178.8770  139.8770 C   0  0  0  0  0  2  0  0  0  0  0  0
  2  1  1  0  0  0  0
  2  7  1  1  0  0  0
  3  1  2  0  0  0  0
  4  2  1  0  0  0  0
  5 23  1  1  0  0  0
  5  4  1  0  0  0  0
  5  6  1  0  0  0  0
  6  3  1  0  0  0  0
  8  9  1  0  0  0  0
  9 11  1  1  0  0  0
 10  7  1  6  0  0  0
 10  8  1  0  0  0  0
 10  9  1  0  0  0  0
 11 12  1  0  0  0  0
 11 18  1  1  0  0  0
 12 17  1  0  0  0  0
 14 15  2  0  0  0  0
 15 13  1  0  0  0  0
 16 14  1  0  0  0  0
 16 12  2  0  0  0  0
 17 13  2  0  0  0  0
 18 19  1  0  0  0  0
 19 21  1  6  0  0  0
 19 20  1  0  0  0  0
 19 22  1  0  0  0  0
 20 22  1  0  0  0  0
 24 27  2  1  0  0  0
 24 26  1  0  0  0  0
 24 29  1  0  0  0  0
 25 28  1  0  0  0  0
 25 32  1  0  0  0  0
 26 30  1  0  0  0  0
 28 23  1  6  0  0  0
 29 25  1  0  0  0  0
 30 28  1  0  0  0  0
 31 32  1  0  0  0  0
 33 23  1  0  0  0  0
 34 35  1  0  0  0  0
 35 33  1  1  0  0  0
 35 40  1  0  0  0  0
 37 36  1  0  0  0  0
 37 43  1  1  0  0  0
 38 41  2  0  0  0  0
 39 36  2  0  0  0  0
 40 34  1  6  0  0  0
 40 38  1  0  0  0  0
 40 39  1  0  0  0  0
 41 37  1  0  0  0  0
 43 42  1  0  0  0  0
M  END
>  <MODEL>
6

>  <REMARK>
 VINA RESULT:      -6.0      3.848      6.100
  Name = 
  12 active torsions:
  status: ('A' for Active; 'I' for Inactive)
    1  A    between atoms: C_4  and  C_14
    2  A    between atoms: C_6  and  N_17
    3  A    between atoms: C_8  and  C_34
    4  A    between atoms: C_10  and  O_41
    5  A    between atoms: C_11  and  C_14
    6  A    between atoms: C_12  and  N_17
    7  A    between atoms: C_14  and  O_41
    8  A    between atoms: N_16  and  C_43
    9  A    between atoms: C_19  and  C_37
   10  A    between atoms: C_21  and  N_30
   11  A    between atoms: C_27  and  N_30
   12  A    between atoms: N_30  and  C_34
                            x       y       z     vdW  Elec       q    Type
                         _______ _______ _______ _____ _____    ______ ____

>  <TORSDO>
F 12

$$$$
=
 OpenBabel11052416173D

 43 49  0  0  1  0  0  0  0  0999 V2000
  190.8370  177.4610  138.9950 C   0  0  0  0  0  3  0  0  0  0  0  0
  189.4550  177.8930  138.6050 C   0  0  1  0  0  3  0  0  0  0  0  0
  191.3200  176.2930  138.5560 C   0  0  0  0  0  3  0  0  0  0  0  0
  189.2680  177.6000  137.1130 C   0  0  0  0  0  2  0  0  0  0  0  0
  189.5050  176.1130  136.7420 C   0  0  1  0  0  3  0  0  0  0  0  0
  190.4640  175.3800  137.7200 C   0  0  0  0  0  2  0  0  0  0  0  0
  188.4640  177.1820  139.4030 N   0  0  0  0  0  2  0  0  0  0  0  0
  188.5830  178.7910  141.0900 O   0  0  0  0  0  0  0  0  0  0  0  0
  187.5580  177.9170  141.4980 C   0  0  1  0  0  3  0  0  0  0  0  0
  188.7670  177.4260  140.8030 C   0  0  1  0  0  3  0  0  0  0  0  0
  187.6850  177.6440  142.9890 C   0  0  2  0  0  3  0  0  0  0  0  0
  186.3960  177.9560  143.6850 C   0  0  0  0  0  0  0  0  0  0  0  0
  185.1100  178.2900  145.7150 C   0  0  0  0  0  3  0  0  0  0  0  0
  184.0660  178.6110  143.5530 C   0  0  0  0  0  3  0  0  0  0  0  0
  183.9840  178.6110  144.9490 C   0  0  0  0  0  3  0  0  0  0  0  0
  185.2700  178.2870  142.9240 C   0  0  0  0  0  3  0  0  0  0  0  0
  186.3150  177.9660  145.0850 C   0  0  0  0  0  3  0  0  0  0  0  0
  188.7320  178.4080  143.5280 O   0  0  0  0  0  0  0  0  0  0  0  0
  189.4320  177.5740  144.4140 C   0  0  1  0  0  0  0  0  0  0  0  0
  190.8320  177.3300  144.0490 N   0  0  0  0  0  2  0  0  0  0  0  0
  189.2160  177.6990  145.7890 O   0  0  0  0  0  1  0  0  0  0  0  0
  189.8130  176.2630  143.9240 C   0  0  0  0  0  2  0  0  0  0  0  0
  188.2270  175.3860  136.6270 N   0  0  0  0  0  0  0  0  0  0  0  0
  188.2240  171.2980  134.6950 S   0  0  1  0  0  0  0  0  0  0  0  0
  187.2310  173.1680  136.3500 N   0  0  0  0  0  0  0  0  0  0  0  0
  189.6280  172.4150  134.6320 C   0  0  0  0  0  2  0  0  0  0  0  0
  188.8660  169.9400  134.9440 O   0  0  0  0  0  0  0  0  0  0  0  0
  188.4710  173.9710  136.2630 C   0  0  1  0  0  3  0  0  0  0  0  0
  187.5460  171.7380  136.3020 C   0  0  0  0  0  2  0  0  0  0  0  0
  189.1450  173.8330  134.8800 C   0  0  0  0  0  2  0  0  0  0  0  0
  185.1700  172.6840  137.6960 C   0  0  0  0  0  1  0  0  0  0  0  0
  186.5090  173.4190  137.6080 C   0  0  0  0  0  2  0  0  0  0  0  0
  187.3730  176.0240  135.6180 C   0  0  0  0  0  2  0  0  0  0  0  0
  185.0080  176.7260  135.3180 C   0  0  0  0  0  2  0  0  0  0  0  0
  185.9220  175.6210  135.8360 C   0  0  2  0  0  3  0  0  0  0  0  0
  185.1480  178.4850  138.2900 C   0  0  0  0  0  3  0  0  0  0  0  0
  183.6590  178.2530  138.4740 C   0  0  1  0  0  3  0  0  0  0  0  0
  183.9720  175.9930  137.4870 C   0  0  0  0  0  3  0  0  0  0  0  0
  185.8710  177.6980  137.4800 C   0  0  0  0  0  3  0  0  0  0  0  0
  185.1910  176.5380  136.8050 C   0  0  2  0  0  0  0  0  0  0  0  0
  183.2710  176.8020  138.2960 C   0  0  0  0  0  3  0  0  0  0  0  0
  182.0250  179.7200  139.6610 C   0  0  0  0  0  1  0  0  0  0  0  0
  183.1860  178.7580  139.8260 C   0  0  0  0  0  2  0  0  0  0  0  0
  2  1  1  0  0  0  0
  2  7  1  1  0  0  0
  3  1  2  0  0  0  0
  4  2  1  0  0  0  0
  5 23  1  1  0  0  0
  5  4  1  0  0  0  0
  5  6  1  0  0  0  0
  6  3  1  0  0  0  0
  8  9  1  0  0  0  0
  9 11  1  1  0  0  0
 10  7  1  6  0  0  0
 10  8  1  0  0  0  0
 10  9  1  0  0  0  0
 11 18  1  1  0  0  0
 11 12  1  0  0  0  0
 12 17  1  0  0  0  0
 14 15  2  0  0  0  0
 15 13  1  0  0  0  0
 16 14  1  0  0  0  0
 16 12  2  0  0  0  0
 17 13  2  0  0  0  0
 18 19  1  0  0  0  0
 19 21  1  1  0  0  0
 20 19  1  0  0  0  0
 22 20  1  0  0  0  0
 22 19  1  0  0  0  0
 24 27  2  1  0  0  0
 24 29  1  0  0  0  0
 25 32  1  0  0  0  0
 26 24  1  0  0  0  0
 26 30  1  0  0  0  0
 28 25  1  0  0  0  0
 28 23  1  6  0  0  0
 29 25  1  0  0  0  0
 30 28  1  0  0  0  0
 32 31  1  0  0  0  0
 33 23  1  0  0  0  0
 34 35  1  0  0  0  0
 35 33  1  6  0  0  0
 35 40  1  0  0  0  0
 36 37  1  0  0  0  0
 37 43  1  1  0  0  0
 38 41  2  0  0  0  0
 39 36  2  0  0  0  0
 40 34  1  6  0  0  0
 40 39  1  0  0  0  0
 40 38  1  0  0  0  0
 41 37  1  0  0  0  0
 42 43  1  0  0  0  0
M  END
>  <MODEL>
7

>  <REMARK>
 VINA RESULT:      -6.0      3.689      5.673
  Name = 
  12 active torsions:
  status: ('A' for Active; 'I' for Inactive)
    1  A    between atoms: C_4  and  C_14
    2  A    between atoms: C_6  and  N_17
    3  A    between atoms: C_8  and  C_34
    4  A    between atoms: C_10  and  O_41
    5  A    between atoms: C_11  and  C_14
    6  A    between atoms: C_12  and  N_17
    7  A    between atoms: C_14  and  O_41
    8  A    between atoms: N_16  and  C_43
    9  A    between atoms: C_19  and  C_37
   10  A    between atoms: C_21  and  N_30
   11  A    between atoms: C_27  and  N_30
   12  A    between atoms: N_30  and  C_34
                            x       y       z     vdW  Elec       q    Type
                         _______ _______ _______ _____ _____    ______ ____

>  <TORSDO>
F 12

$$$$
=
 OpenBabel11052416173D

 43 49  0  0  1  0  0  0  0  0999 V2000
  186.5010  178.3850  137.2560 C   0  0  0  0  0  3  0  0  0  0  0  0
  186.7050  177.6870  138.5670 C   0  0  1  0  0  3  0  0  0  0  0  0
  187.5500  178.6540  136.4720 C   0  0  0  0  0  3  0  0  0  0  0  0
  187.6970  176.5390  138.3460 C   0  0  0  0  0  2  0  0  0  0  0  0
  189.0520  177.0020  137.7510 C   0  0  1  0  0  3  0  0  0  0  0  0
  188.9460  178.3120  136.9230 C   0  0  0  0  0  2  0  0  0  0  0  0
  187.2100  178.6260  139.5620 N   0  0  0  0  0  2  0  0  0  0  0  0
  186.0870  179.7590  141.2660 O   0  0  0  0  0  0  0  0  0  0  0  0
  185.0730  179.1130  140.5350 C   0  0  1  0  0  3  0  0  0  0  0  0
  186.3930  178.4840  140.7550 C   0  0  1  0  0  3  0  0  0  0  0  0
  184.0590  178.5090  141.4940 C   0  0  2  0  0  3  0  0  0  0  0  0
  182.9350  177.8780  140.7300 C   0  0  0  0  0  0  0  0  0  0  0  0
  182.0850  176.1630  139.2380 C   0  0  0  0  0  3  0  0  0  0  0  0
  180.5730  177.7990  140.1890 C   0  0  0  0  0  3  0  0  0  0  0  0
  180.7950  176.6860  139.3730 C   0  0  0  0  0  3  0  0  0  0  0  0
  181.6410  178.3910  140.8680 C   0  0  0  0  0  3  0  0  0  0  0  0
  183.1540  176.7560  139.9180 C   0  0  0  0  0  3  0  0  0  0  0  0
  183.5690  179.5000  142.3590 O   0  0  0  0  0  0  0  0  0  0  0  0
  183.6400  178.9790  143.6600 C   0  0  1  0  0  0  0  0  0  0  0  0
  184.6330  179.6250  144.5260 N   0  0  0  0  0  2  0  0  0  0  0  0
  182.4630  178.6140  144.3180 O   0  0  0  0  0  1  0  0  0  0  0  0
  184.8440  178.2520  144.0140 C   0  0  0  0  0  2  0  0  0  0  0  0
  190.0740  177.1370  138.8060 N   0  0  0  0  0  0  0  0  0  0  0  0
  193.6070  175.0140  136.9490 S   0  0  1  0  0  0  0  0  0  0  0  0
  190.9770  175.3970  137.3410 N   0  0  0  0  0  0  0  0  0  0  0  0
  193.7540  176.1300  138.3470 C   0  0  0  0  0  2  0  0  0  0  0  0
  194.5450  173.8700  137.3110 O   0  0  0  0  0  0  0  0  0  0  0  0
  191.2290  176.2560  138.5190 C   0  0  1  0  0  3  0  0  0  0  0  0
  191.9740  174.3280  137.2660 C   0  0  0  0  0  2  0  0  0  0  0  0
  192.5470  177.0500  138.3750 C   0  0  0  0  0  2  0  0  0  0  0  0
  189.5300  173.5180  136.5230 C   0  0  0  0  0  1  0  0  0  0  0  0
  189.6520  174.7600  137.4080 C   0  0  0  0  0  2  0  0  0  0  0  0
  189.4970  176.8000  140.1130 C   0  0  0  0  0  2  0  0  0  0  0  0
  190.7040  176.2320  142.2090 C   0  0  0  0  0  2  0  0  0  0  0  0
  190.3780  177.3500  141.2250 C   0  0  2  0  0  3  0  0  0  0  0  0
  187.8040  176.7320  144.0220 C   0  0  0  0  0  3  0  0  0  0  0  0
  188.6460  177.1300  145.2200 C   0  0  1  0  0  3  0  0  0  0  0  0
  190.2190  178.2360  143.6450 C   0  0  0  0  0  3  0  0  0  0  0  0
  188.3090  176.7810  142.7800 C   0  0  0  0  0  3  0  0  0  0  0  0
  189.7090  177.3010  142.5900 C   0  0  2  0  0  0  0  0  0  0  0  0
  189.6910  178.1680  144.8770 C   0  0  0  0  0  3  0  0  0  0  0  0
  188.4850  177.4370  147.6920 C   0  0  0  0  0  1  0  0  0  0  0  0
  187.7770  177.6230  146.3640 C   0  0  0  0  0  2  0  0  0  0  0  0
  1  2  1  0  0  0  0
  2  7  1  1  0  0  0
  3  6  1  0  0  0  0
  3  1  2  0  0  0  0
  4  2  1  0  0  0  0
  5  4  1  0  0  0  0
  5 23  1  1  0  0  0
  6  5  1  0  0  0  0
  9 10  1  0  0  0  0
  9  8  1  0  0  0  0
  9 11  1  1  0  0  0
 10  7  1  6  0  0  0
 10  8  1  0  0  0  0
 11 18  1  1  0  0  0
 12 16  1  0  0  0  0
 12 11  1  0  0  0  0
 13 15  2  0  0  0  0
 13 17  1  0  0  0  0
 14 16  2  0  0  0  0
 15 14  1  0  0  0  0
 17 12  2  0  0  0  0
 18 19  1  0  0  0  0
 19 22  1  0  0  0  0
 19 21  1  1  0  0  0
 19 20  1  0  0  0  0
 22 20  1  0  0  0  0
 23 33  1  0  0  0  0
 24 29  1  0  0  0  0
 24 27  2  1  0  0  0
 24 26  1  0  0  0  0
 25 32  1  0  0  0  0
 25 28  1  0  0  0  0
 26 30  1  0  0  0  0
 28 23  1  6  0  0  0
 29 25  1  0  0  0  0
 30 28  1  0  0  0  0
 31 32  1  0  0  0  0
 35 33  1  6  0  0  0
 35 34  1  0  0  0  0
 35 40  1  0  0  0  0
 36 37  1  0  0  0  0
 37 43  1  1  0  0  0
 38 41  2  0  0  0  0
 39 36  2  0  0  0  0
 40 34  1  1  0  0  0
 40 39  1  0  0  0  0
 40 38  1  0  0  0  0
 41 37  1  0  0  0  0
 43 42  1  0  0  0  0
M  END
>  <MODEL>
8

>  <REMARK>
 VINA RESULT:      -5.9      4.257      9.117
  Name = 
  12 active torsions:
  status: ('A' for Active; 'I' for Inactive)
    1  A    between atoms: C_4  and  C_14
    2  A    between atoms: C_6  and  N_17
    3  A    between atoms: C_8  and  C_34
    4  A    between atoms: C_10  and  O_41
    5  A    between atoms: C_11  and  C_14
    6  A    between atoms: C_12  and  N_17
    7  A    between atoms: C_14  and  O_41
    8  A    between atoms: N_16  and  C_43
    9  A    between atoms: C_19  and  C_37
   10  A    between atoms: C_21  and  N_30
   11  A    between atoms: C_27  and  N_30
   12  A    between atoms: N_30  and  C_34
                            x       y       z     vdW  Elec       q    Type
                         _______ _______ _______ _____ _____    ______ ____

>  <TORSDO>
F 12

$$$$
=
 OpenBabel11052416173D

 43 49  0  0  1  0  0  0  0  0999 V2000
  186.2340  178.1520  134.7840 C   0  0  0  0  0  3  0  0  0  0  0  0
  185.9650  176.7260  135.1570 C   0  0  1  0  0  3  0  0  0  0  0  0
  187.4530  178.6720  134.9700 C   0  0  0  0  0  3  0  0  0  0  0  0
  187.1450  175.8760  134.6720 C   0  0  0  0  0  2  0  0  0  0  0  0
  188.5130  176.3420  135.2330 C   0  0  1  0  0  3  0  0  0  0  0  0
  188.5430  177.8500  135.6050 C   0  0  0  0  0  2  0  0  0  0  0  0
  185.7970  176.6070  136.6000 N   0  0  0  0  0  2  0  0  0  0  0  0
  183.5650  177.0830  137.0880 O   0  0  0  0  0  0  0  0  0  0  0  0
  184.2430  177.2500  138.3100 C   0  0  1  0  0  3  0  0  0  0  0  0
  184.8580  177.6320  137.0210 C   0  0  1  0  0  3  0  0  0  0  0  0
  183.7270  178.4940  139.0140 C   0  0  2  0  0  3  0  0  0  0  0  0
  184.2820  178.5720  140.4030 C   0  0  0  0  0  0  0  0  0  0  0  0
  184.0260  178.3350  142.8040 C   0  0  0  0  0  3  0  0  0  0  0  0
  186.1780  178.9360  141.8690 C   0  0  0  0  0  3  0  0  0  0  0  0
  185.3750  178.6610  142.9800 C   0  0  0  0  0  3  0  0  0  0  0  0
  185.6320  178.8880  140.5840 C   0  0  0  0  0  3  0  0  0  0  0  0
  183.4810  178.2870  141.5180 C   0  0  0  0  0  3  0  0  0  0  0  0
  182.3240  178.4790  139.0460 O   0  0  0  0  0  0  0  0  0  0  0  0
  181.8890  179.6850  138.4740 C   0  0  1  0  0  0  0  0  0  0  0  0
  180.4330  179.8690  138.4650 N   0  0  0  0  0  2  0  0  0  0  0  0
  182.6090  180.8580  138.7150 O   0  0  0  0  0  1  0  0  0  0  0  0
  181.1770  179.5980  137.2140 C   0  0  0  0  0  2  0  0  0  0  0  0
  188.9210  175.5170  136.3850 N   0  0  0  0  0  0  0  0  0  0  0  0
  193.2300  174.8690  137.5920 S   0  0  1  0  0  0  0  0  0  0  0  0
  190.7070  175.6750  138.0500 N   0  0  0  0  0  0  0  0  0  0  0  0
  192.6620  174.7930  135.8910 C   0  0  0  0  0  2  0  0  0  0  0  0
  194.5480  175.6240  137.4910 O   0  0  0  0  0  0  0  0  0  0  0  0
  190.3810  175.6300  136.6080 C   0  0  1  0  0  3  0  0  0  0  0  0
  192.0940  176.1030  138.2460 C   0  0  0  0  0  2  0  0  0  0  0  0
  191.1690  174.5200  135.8780 C   0  0  0  0  0  2  0  0  0  0  0  0
  190.3180  176.9080  140.2000 C   0  0  0  0  0  1  0  0  0  0  0  0
  189.8460  176.6260  138.7720 C   0  0  0  0  0  2  0  0  0  0  0  0
  188.5550  174.1140  136.1550 C   0  0  0  0  0  2  0  0  0  0  0  0
  187.5620  172.1080  137.2360 C   0  0  0  0  0  2  0  0  0  0  0  0
  187.6270  173.6320  137.2610 C   0  0  2  0  0  3  0  0  0  0  0  0
  185.0420  172.0750  134.8710 C   0  0  0  0  0  3  0  0  0  0  0  0
  184.1200  171.4350  135.8920 C   0  0  1  0  0  3  0  0  0  0  0  0
  185.1940  172.8520  137.6290 C   0  0  0  0  0  3  0  0  0  0  0  0
  186.1330  172.7510  135.2580 C   0  0  0  0  0  3  0  0  0  0  0  0
  186.3930  172.9190  136.7310 C   0  0  2  0  0  0  0  0  0  0  0  0
  184.1140  172.1730  137.2120 C   0  0  0  0  0  3  0  0  0  0  0  0
  181.6920  171.5070  136.4700 C   0  0  0  0  0  1  0  0  0  0  0  0
  182.7040  171.3140  135.3560 C   0  0  0  0  0  2  0  0  0  0  0  0
  1  3  2  0  0  0  0
  1  2  1  0  0  0  0
  2  7  1  1  0  0  0
  3  6  1  0  0  0  0
  4  2  1  0  0  0  0
  4  5  1  0  0  0  0
  5  6  1  0  0  0  0
  5 23  1  1  0  0  0
  8  9  1  0  0  0  0
  9 11  1  1  0  0  0
 10  7  1  6  0  0  0
 10  8  1  0  0  0  0
 10  9  1  0  0  0  0
 11 18  1  1  0  0  0
 11 12  1  0  0  0  0
 12 16  2  0  0  0  0
 12 17  1  0  0  0  0
 13 15  1  0  0  0  0
 14 15  2  0  0  0  0
 16 14  1  0  0  0  0
 17 13  2  0  0  0  0
 19 21  1  1  0  0  0
 19 18  1  0  0  0  0
 20 19  1  0  0  0  0
 22 20  1  0  0  0  0
 22 19  1  0  0  0  0
 24 27  2  6  0  0  0
 24 29  1  0  0  0  0
 25 29  1  0  0  0  0
 25 32  1  0  0  0  0
 26 24  1  0  0  0  0
 28 23  1  1  0  0  0
 28 25  1  0  0  0  0
 30 26  1  0  0  0  0
 30 28  1  0  0  0  0
 32 31  1  0  0  0  0
 33 23  1  0  0  0  0
 34 35  1  0  0  0  0
 35 33  1  6  0  0  0
 36 39  2  0  0  0  0
 36 37  1  0  0  0  0
 37 43  1  6  0  0  0
 37 41  1  0  0  0  0
 40 39  1  6  0  0  0
 40 34  1  0  0  0  0
 40 35  1  0  0  0  0
 40 38  1  0  0  0  0
 41 38  2  0  0  0  0
 43 42  1  0  0  0  0
M  END
>  <MODEL>
9

>  <REMARK>
 VINA RESULT:      -5.8      3.914      8.596
  Name = 
  12 active torsions:
  status: ('A' for Active; 'I' for Inactive)
    1  A    between atoms: C_4  and  C_14
    2  A    between atoms: C_6  and  N_17
    3  A    between atoms: C_8  and  C_34
    4  A    between atoms: C_10  and  O_41
    5  A    between atoms: C_11  and  C_14
    6  A    between atoms: C_12  and  N_17
    7  A    between atoms: C_14  and  O_41
    8  A    between atoms: N_16  and  C_43
    9  A    between atoms: C_19  and  C_37
   10  A    between atoms: C_21  and  N_30
   11  A    between atoms: C_27  and  N_30
   12  A    between atoms: N_30  and  C_34
                            x       y       z     vdW  Elec       q    Type
                         _______ _______ _______ _____ _____    ______ ____

>  <TORSDO>
F 12

$$$$
