=
 OpenBabel11052412343D

 30 34  0  0  1  0  0  0  0  0999 V2000
  184.8960  177.8430  140.0470 C   0  0  1  0  0  3  0  0  0  0  0  0
  185.5720  178.7670  142.4420 C   0  0  1  0  0  3  0  0  0  0  0  0
  181.1260  178.4070  141.4060 C   0  0  1  0  0  3  0  0  0  0  0  0
  183.6910  177.5890  139.1270 C   0  0  2  0  0  3  0  0  0  0  0  0
  185.9070  178.6470  139.3680 N   0  0  0  0  0  0  0  0  0  0  0  0
  185.9840  177.3930  135.6880 S   0  0  0  0  0  0  0  0  0  0  0  0
  181.8350  176.1130  137.5260 C   0  0  0  0  0  0  0  0  0  0  0  0
  185.5910  177.1530  137.4540 C   0  0  1  0  0  3  0  0  0  0  0  0
  187.1930  179.0350  137.4130 N   0  0  0  0  0  2  0  0  0  0  0  0
  181.0790  177.3950  137.8300 C   0  0  1  0  0  3  0  0  0  0  0  0
  181.2170  177.4940  140.3140 O   0  0  0  0  0  0  0  0  0  0  0  0
  186.2610  178.2890  138.1670 C   0  0  0  0  0  0  0  0  0  0  0  0
  184.0690  177.2450  137.6920 C   0  0  1  0  0  3  0  0  0  0  0  0
  184.9490  178.5430  144.1540 S   0  0  0  0  0  0  0  0  0  0  0  0
  181.1750  175.0420  137.4500 O   0  0  0  0  0  0  0  0  0  0  0  0
  188.6780  177.8080  135.9430 C   0  0  0  0  0  1  0  0  0  0  0  0
  186.8380  177.9400  142.2980 C   0  0  0  0  0  1  0  0  0  0  0  0
  182.4480  178.5630  142.1770 C   0  0  2  0  0  3  0  0  0  0  0  0
  183.6210  179.8020  144.0650 C   0  0  0  0  0  2  0  0  0  0  0  0
  187.3590  178.5460  136.0580 C   0  0  1  0  0  3  0  0  0  0  0  0
  184.4910  178.3180  141.4530 C   0  0  1  0  0  3  0  0  0  0  0  0
  182.8200  178.6800  139.0570 O   0  0  0  0  0  0  0  0  0  0  0  0
  180.3970  179.7260  141.1230 C   0  0  0  0  0  1  0  0  0  0  0  0
  181.5050  178.1740  139.1030 C   0  0  1  0  0  3  0  0  0  0  0  0
  183.8930  174.8630  136.8170 C   0  0  0  0  0  1  0  0  0  0  0  0
  182.2940  179.2250  143.5480 C   0  0  0  0  0  2  0  0  0  0  0  0
  183.4260  179.2190  141.4280 O   0  0  0  0  0  0  0  0  0  0  0  0
  183.2630  176.0940  137.2820 N   0  0  0  0  0  0  0  0  0  0  0  0
  181.1000  178.2800  136.6760 N   0  0  0  0  0  2  0  0  0  0  0  0
  180.3140  179.3410  136.9740 O   0  0  0  0  0  1  0  0  0  0  0  0
  1  5  1  6  0  0  0
  1 21  1  0  0  0  0
  2 17  1  1  0  0  0
  2 14  1  0  0  0  0
  3 23  1  6  0  0  0
  3 18  1  0  0  0  0
  4 22  1  6  0  0  0
  4  1  1  0  0  0  0
  6 20  1  0  0  0  0
  7 10  1  0  0  0  0
  8  6  1  6  0  0  0
  8 13  1  0  0  0  0
  8 12  1  0  0  0  0
  9 12  1  0  0  0  0
 10 29  1  6  0  0  0
 10 24  1  0  0  0  0
 11  3  1  0  0  0  0
 12  5  2  0  0  0  0
 13 28  1  1  0  0  0
 13  4  1  0  0  0  0
 15  7  2  0  0  0  0
 18 26  1  1  0  0  0
 19 14  1  0  0  0  0
 20 16  1  1  0  0  0
 20  9  1  0  0  0  0
 21 27  1  6  0  0  0
 21  2  1  0  0  0  0
 24 22  1  6  0  0  0
 24 11  1  0  0  0  0
 25 28  1  0  0  0  0
 26 19  1  0  0  0  0
 27 18  1  0  0  0  0
 28  7  1  0  0  0  0
 29 30  1  0  0  0  0
M  END
>  <MODEL>
1

>  <REMARK>
 VINA RESULT:      -5.9      0.000      0.000
  Name = 
  1 active torsions:
  status: ('A' for Active; 'I' for Inactive)
    1  A    between atoms: C_10  and  N_15
                            x       y       z     vdW  Elec       q    Type
                         _______ _______ _______ _____ _____    ______ ____

>  <TORSDO>
F 1

$$$$
=
 OpenBabel11052412343D

 30 34  0  0  1  0  0  0  0  0999 V2000
  190.9180  175.7470  137.7160 C   0  0  1  0  0  3  0  0  0  0  0  0
  193.0430  174.1890  137.3920 C   0  0  1  0  0  3  0  0  0  0  0  0
  189.4560  173.6130  134.6040 C   0  0  1  0  0  3  0  0  0  0  0  0
  189.4830  175.9820  137.2180 C   0  0  2  0  0  3  0  0  0  0  0  0
  190.9480  175.6140  139.1700 N   0  0  0  0  0  0  0  0  0  0  0  0
  188.3770  178.1900  140.5380 S   0  0  0  0  0  0  0  0  0  0  0  0
  187.2740  177.3580  136.0300 C   0  0  0  0  0  0  0  0  0  0  0  0
  189.4920  177.5820  139.2280 C   0  0  1  0  0  3  0  0  0  0  0  0
  190.2440  176.4300  141.2820 N   0  0  0  0  0  2  0  0  0  0  0  0
  186.8520  175.9000  135.9460 C   0  0  1  0  0  3  0  0  0  0  0  0
  188.8070  174.8680  134.8010 O   0  0  0  0  0  0  0  0  0  0  0  0
  190.3130  176.5060  139.8730 C   0  0  0  0  0  0  0  0  0  0  0  0
  188.6840  176.9610  138.0680 C   0  0  1  0  0  3  0  0  0  0  0  0
  193.9680  173.5210  135.9540 S   0  0  0  0  0  0  0  0  0  0  0  0
  186.9320  178.1260  135.0910 O   0  0  0  0  0  0  0  0  0  0  0  0
  190.2430  178.5170  142.5150 C   0  0  0  0  0  1  0  0  0  0  0  0
  193.8530  175.3370  137.9710 C   0  0  0  0  0  1  0  0  0  0  0  0
  190.8660  173.5570  135.2160 C   0  0  2  0  0  3  0  0  0  0  0  0
  192.8850  172.0730  135.6580 C   0  0  0  0  0  2  0  0  0  0  0  0
  189.3880  177.4430  141.8710 C   0  0  1  0  0  3  0  0  0  0  0  0
  191.6600  174.6570  136.9250 C   0  0  1  0  0  3  0  0  0  0  0  0
  188.7290  174.8050  137.1570 O   0  0  0  0  0  0  0  0  0  0  0  0
  188.6030  172.3650  134.8620 C   0  0  0  0  0  1  0  0  0  0  0  0
  187.9870  174.8410  135.9580 C   0  0  1  0  0  3  0  0  0  0  0  0
  188.2190  179.3290  137.2630 C   0  0  0  0  0  1  0  0  0  0  0  0
  191.7190  172.3910  134.7100 C   0  0  0  0  0  2  0  0  0  0  0  0
  190.8410  173.5710  136.6120 O   0  0  0  0  0  0  0  0  0  0  0  0
  188.0070  177.8900  137.1610 N   0  0  0  0  0  0  0  0  0  0  0  0
  185.8780  175.5960  136.9820 N   0  0  0  0  0  2  0  0  0  0  0  0
  185.4570  174.3270  136.7710 O   0  0  0  0  0  1  0  0  0  0  0  0
  1  5  1  1  0  0  0
  2 17  1  6  0  0  0
  3 11  1  0  0  0  0
  3 23  1  1  0  0  0
  3 18  1  0  0  0  0
  4 22  1  1  0  0  0
  4  1  1  0  0  0  0
  4 13  1  0  0  0  0
  5 12  2  0  0  0  0
  6 20  1  0  0  0  0
  7 28  1  0  0  0  0
  8 12  1  1  0  0  0
  8  6  1  0  0  0  0
  9 20  1  0  0  0  0
 10 24  1  0  0  0  0
 10  7  1  0  0  0  0
 10 29  1  1  0  0  0
 12  9  1  0  0  0  0
 13 28  1  6  0  0  0
 13  8  1  0  0  0  0
 14  2  1  0  0  0  0
 15  7  2  0  0  0  0
 18 26  1  1  0  0  0
 18 27  1  0  0  0  0
 19 14  1  0  0  0  0
 20 16  1  6  0  0  0
 21 27  1  1  0  0  0
 21  2  1  0  0  0  0
 21  1  1  0  0  0  0
 24 11  1  6  0  0  0
 24 22  1  0  0  0  0
 26 19  1  0  0  0  0
 28 25  1  0  0  0  0
 30 29  1  0  0  0  0
M  END
>  <MODEL>
2

>  <REMARK>
 VINA RESULT:      -5.7      5.244      8.617
  Name = 
  1 active torsions:
  status: ('A' for Active; 'I' for Inactive)
    1  A    between atoms: C_10  and  N_15
                            x       y       z     vdW  Elec       q    Type
                         _______ _______ _______ _____ _____    ______ ____

>  <TORSDO>
F 1

$$$$
=
 OpenBabel11052412343D

 30 34  0  0  1  0  0  0  0  0999 V2000
  187.2210  177.6810  141.0280 C   0  0  1  0  0  3  0  0  0  0  0  0
  188.6630  177.4310  143.2430 C   0  0  1  0  0  3  0  0  0  0  0  0
  184.2660  178.6580  143.6150 C   0  0  1  0  0  3  0  0  0  0  0  0
  185.8420  178.1130  140.5050 C   0  0  2  0  0  3  0  0  0  0  0  0
  188.2880  178.3870  140.3240 N   0  0  0  0  0  0  0  0  0  0  0  0
  187.1490  178.6270  136.6140 S   0  0  0  0  0  0  0  0  0  0  0  0
  183.2940  177.8830  139.2240 C   0  0  0  0  0  0  0  0  0  0  0  0
  187.0720  177.8560  138.2650 C   0  0  1  0  0  3  0  0  0  0  0  0
  189.1920  179.1280  138.2600 N   0  0  0  0  0  2  0  0  0  0  0  0
  183.1220  179.1080  140.1070 C   0  0  1  0  0  3  0  0  0  0  0  0
  183.7990  178.2300  142.3360 O   0  0  0  0  0  0  0  0  0  0  0  0
  188.2340  178.4250  139.0240 C   0  0  0  0  0  0  0  0  0  0  0  0
  185.7660  178.2460  138.9900 C   0  0  1  0  0  3  0  0  0  0  0  0
  188.3710  176.7530  144.9240 S   0  0  0  0  0  0  0  0  0  0  0  0
  182.2970  177.1310  139.0580 O   0  0  0  0  0  0  0  0  0  0  0  0
  189.8060  178.1990  136.1080 C   0  0  0  0  0  1  0  0  0  0  0  0
  189.4930  176.4180  142.4730 C   0  0  0  0  0  1  0  0  0  0  0  0
  185.6870  178.1630  143.9360 C   0  0  2  0  0  3  0  0  0  0  0  0
  187.5880  178.2530  145.6260 C   0  0  0  0  0  2  0  0  0  0  0  0
  188.8880  179.1570  136.8420 C   0  0  1  0  0  3  0  0  0  0  0  0
  187.3130  177.6830  142.5630 C   0  0  1  0  0  3  0  0  0  0  0  0
  185.4200  179.3380  141.0320 O   0  0  0  0  0  0  0  0  0  0  0  0
  184.0110  180.1270  143.9690 C   0  0  0  0  0  1  0  0  0  0  0  0
  184.0510  179.2130  141.3460 C   0  0  1  0  0  3  0  0  0  0  0  0
  184.5800  176.5000  137.5720 C   0  0  0  0  0  1  0  0  0  0  0  0
  186.0660  178.2790  145.4150 C   0  0  0  0  0  2  0  0  0  0  0  0
  186.6560  178.7720  143.1370 O   0  0  0  0  0  0  0  0  0  0  0  0
  184.5380  177.5850  138.5450 N   0  0  0  0  0  0  0  0  0  0  0  0
  183.2150  180.3210  139.3110 N   0  0  0  0  0  2  0  0  0  0  0  0
  182.0380  180.4590  138.6580 O   0  0  0  0  0  1  0  0  0  0  0  0
  1  5  1  6  0  0  0
  1 21  1  0  0  0  0
  2 17  1  6  0  0  0
  2 14  1  0  0  0  0
  3 18  1  0  0  0  0
  3 23  1  6  0  0  0
  4  1  1  0  0  0  0
  4 22  1  1  0  0  0
  6 20  1  0  0  0  0
  7 10  1  0  0  0  0
  8  6  1  6  0  0  0
  8 13  1  0  0  0  0
  8 12  1  0  0  0  0
  9 12  1  0  0  0  0
 10 29  1  6  0  0  0
 10 24  1  0  0  0  0
 11  3  1  0  0  0  0
 12  5  2  0  0  0  0
 13 28  1  6  0  0  0
 13  4  1  0  0  0  0
 14 19  1  0  0  0  0
 15  7  2  0  0  0  0
 18 26  1  1  0  0  0
 20 16  1  6  0  0  0
 20  9  1  0  0  0  0
 21 27  1  6  0  0  0
 21  2  1  0  0  0  0
 24 22  1  6  0  0  0
 24 11  1  0  0  0  0
 25 28  1  0  0  0  0
 26 19  1  0  0  0  0
 27 18  1  0  0  0  0
 28  7  1  0  0  0  0
 30 29  1  0  0  0  0
M  END
>  <MODEL>
3

>  <REMARK>
 VINA RESULT:      -5.7      2.081      3.115
  Name = 
  1 active torsions:
  status: ('A' for Active; 'I' for Inactive)
    1  A    between atoms: C_10  and  N_15
                            x       y       z     vdW  Elec       q    Type
                         _______ _______ _______ _____ _____    ______ ____

>  <TORSDO>
F 1

$$$$
=
 OpenBabel11052412343D

 30 34  0  0  1  0  0  0  0  0999 V2000
  183.5340  176.1630  137.7650 C   0  0  1  0  0  3  0  0  0  0  0  0
  182.5240  173.9300  136.7450 C   0  0  1  0  0  3  0  0  0  0  0  0
  187.0570  174.5570  136.5890 C   0  0  1  0  0  3  0  0  0  0  0  0
  184.8420  176.9530  137.9310 C   0  0  2  0  0  3  0  0  0  0  0  0
  182.4970  176.9960  137.1640 N   0  0  0  0  0  0  0  0  0  0  0  0
  182.9270  180.5340  138.7180 S   0  0  0  0  0  0  0  0  0  0  0  0
  187.0120  178.2480  139.2720 C   0  0  0  0  0  0  0  0  0  0  0  0
  183.1790  178.7280  138.7560 C   0  0  1  0  0  3  0  0  0  0  0  0
  181.3620  179.0780  137.1170 N   0  0  0  0  0  2  0  0  0  0  0  0
  187.5690  178.0050  137.8780 C   0  0  1  0  0  3  0  0  0  0  0  0
  187.1860  175.5620  137.5940 O   0  0  0  0  0  0  0  0  0  0  0  0
  182.3060  178.1820  137.6650 C   0  0  0  0  0  0  0  0  0  0  0  0
  184.6480  178.3750  138.4410 C   0  0  1  0  0  3  0  0  0  0  0  0
  183.0060  172.1590  136.7410 S   0  0  0  0  0  0  0  0  0  0  0  0
  187.8080  178.1680  140.2460 O   0  0  0  0  0  0  0  0  0  0  0  0
  180.1890  180.5430  138.6500 C   0  0  0  0  0  1  0  0  0  0  0  0
  181.3920  174.0990  137.7450 C   0  0  0  0  0  1  0  0  0  0  0  0
  185.6600  173.9170  136.5490 C   0  0  2  0  0  3  0  0  0  0  0  0
  184.1670  172.2570  135.3260 C   0  0  0  0  0  2  0  0  0  0  0  0
  181.3880  180.3900  137.7340 C   0  0  1  0  0  3  0  0  0  0  0  0
  183.7410  174.7800  137.1260 C   0  0  1  0  0  3  0  0  0  0  0  0
  185.5710  177.0540  136.7420 O   0  0  0  0  0  0  0  0  0  0  0  0
  187.6370  174.9030  135.2120 C   0  0  0  0  0  1  0  0  0  0  0  0
  186.9290  176.8510  137.0610 C   0  0  1  0  0  3  0  0  0  0  0  0
  185.2060  179.0030  140.8410 C   0  0  0  0  0  1  0  0  0  0  0  0
  185.5980  172.6060  135.7600 C   0  0  0  0  0  2  0  0  0  0  0  0
  184.6810  174.8020  136.0950 O   0  0  0  0  0  0  0  0  0  0  0  0
  185.6280  178.6070  139.5030 N   0  0  0  0  0  0  0  0  0  0  0  0
  187.5440  179.2360  137.1040 N   0  0  0  0  0  2  0  0  0  0  0  0
  188.7690  179.8020  137.2180 O   0  0  0  0  0  1  0  0  0  0  0  0
  1  5  1  6  0  0  0
  1  4  1  0  0  0  0
  2 21  1  0  0  0  0
  2 17  1  1  0  0  0
  3 23  1  6  0  0  0
  3 11  1  0  0  0  0
  4 22  1  6  0  0  0
  4 13  1  0  0  0  0
  5 12  2  0  0  0  0
  6  8  1  0  0  0  0
  7 28  1  0  0  0  0
  7 15  2  0  0  0  0
  8 12  1  6  0  0  0
  9 12  1  0  0  0  0
  9 20  1  0  0  0  0
 10 29  1  6  0  0  0
 10  7  1  0  0  0  0
 13  8  1  0  0  0  0
 13 28  1  1  0  0  0
 14  2  1  0  0  0  0
 18 26  1  6  0  0  0
 18  3  1  0  0  0  0
 19 26  1  0  0  0  0
 19 14  1  0  0  0  0
 20 16  1  1  0  0  0
 20  6  1  0  0  0  0
 21 27  1  6  0  0  0
 21  1  1  0  0  0  0
 24 22  1  1  0  0  0
 24 11  1  0  0  0  0
 24 10  1  0  0  0  0
 27 18  1  0  0  0  0
 28 25  1  0  0  0  0
 29 30  1  0  0  0  0
M  END
>  <MODEL>
4

>  <REMARK>
 VINA RESULT:      -5.6      3.032      6.980
  Name = 
  1 active torsions:
  status: ('A' for Active; 'I' for Inactive)
    1  A    between atoms: C_10  and  N_15
                            x       y       z     vdW  Elec       q    Type
                         _______ _______ _______ _____ _____    ______ ____

>  <TORSDO>
F 1

$$$$
=
 OpenBabel11052412343D

 30 34  0  0  1  0  0  0  0  0999 V2000
  183.8570  177.5910  139.7760 C   0  0  1  0  0  3  0  0  0  0  0  0
  183.5650  178.9960  142.0090 C   0  0  1  0  0  3  0  0  0  0  0  0
  179.8320  177.2460  140.0160 C   0  0  1  0  0  3  0  0  0  0  0  0
  183.0700  176.8770  138.6640 C   0  0  2  0  0  3  0  0  0  0  0  0
  184.8050  178.5450  139.2090 N   0  0  0  0  0  0  0  0  0  0  0  0
  186.2490  176.8590  136.0170 S   0  0  0  0  0  0  0  0  0  0  0  0
  182.1640  174.7250  137.0120 C   0  0  0  0  0  0  0  0  0  0  0  0
  185.4230  176.7680  137.6420 C   0  0  1  0  0  3  0  0  0  0  0  0
  186.4800  179.0030  137.5940 N   0  0  0  0  0  2  0  0  0  0  0  0
  181.0730  175.7690  136.8400 C   0  0  1  0  0  3  0  0  0  0  0  0
  180.4500  176.2520  139.2010 O   0  0  0  0  0  0  0  0  0  0  0  0
  185.5690  178.1360  138.2380 C   0  0  0  0  0  0  0  0  0  0  0  0
  183.9210  176.4570  137.4740 C   0  0  1  0  0  3  0  0  0  0  0  0
  182.5380  178.8480  143.5230 S   0  0  0  0  0  0  0  0  0  0  0  0
  181.8250  173.5110  137.0070 O   0  0  0  0  0  0  0  0  0  0  0  0
  188.5750  178.0540  136.8300 C   0  0  0  0  0  1  0  0  0  0  0  0
  184.9740  178.5510  142.3600 C   0  0  0  0  0  1  0  0  0  0  0  0
  180.7950  177.8780  141.0360 C   0  0  2  0  0  3  0  0  0  0  0  0
  181.0380  179.6520  142.8440 C   0  0  0  0  0  2  0  0  0  0  0  0
  187.1450  178.3950  136.4570 C   0  0  1  0  0  3  0  0  0  0  0  0
  182.9590  178.1240  140.9050 C   0  0  1  0  0  3  0  0  0  0  0  0
  182.0270  177.6550  138.1510 O   0  0  0  0  0  0  0  0  0  0  0  0
  178.9310  178.2490  139.2880 C   0  0  0  0  0  1  0  0  0  0  0  0
  180.9130  176.8080  137.9810 C   0  0  1  0  0  3  0  0  0  0  0  0
  184.5720  174.0250  137.1130 C   0  0  0  0  0  1  0  0  0  0  0  0
  180.0950  178.6550  142.1530 C   0  0  0  0  0  2  0  0  0  0  0  0
  181.7670  178.6720  140.4270 O   0  0  0  0  0  0  0  0  0  0  0  0
  183.5640  175.0780  137.1340 N   0  0  0  0  0  0  0  0  0  0  0  0
  181.2240  176.4510  135.5640 N   0  0  0  0  0  2  0  0  0  0  0  0
  180.1360  177.2390  135.4040 O   0  0  0  0  0  1  0  0  0  0  0  0
  1  5  1  6  0  0  0
  1 21  1  0  0  0  0
  2 17  1  1  0  0  0
  2 14  1  0  0  0  0
  3 23  1  6  0  0  0
  3 18  1  0  0  0  0
  4 22  1  6  0  0  0
  4  1  1  0  0  0  0
  6 20  1  0  0  0  0
  7 28  1  0  0  0  0
  8  6  1  6  0  0  0
  8 12  1  0  0  0  0
  9 12  1  0  0  0  0
 10 29  1  6  0  0  0
 10  7  1  0  0  0  0
 10 24  1  0  0  0  0
 11  3  1  0  0  0  0
 12  5  2  0  0  0  0
 13 28  1  1  0  0  0
 13  8  1  0  0  0  0
 13  4  1  0  0  0  0
 15  7  2  0  0  0  0
 18 26  1  1  0  0  0
 19 14  1  0  0  0  0
 20 16  1  1  0  0  0
 20  9  1  0  0  0  0
 21 27  1  6  0  0  0
 21  2  1  0  0  0  0
 24 22  1  1  0  0  0
 24 11  1  0  0  0  0
 25 28  1  0  0  0  0
 26 19  1  0  0  0  0
 27 18  1  0  0  0  0
 30 29  1  0  0  0  0
M  END
>  <MODEL>
5

>  <REMARK>
 VINA RESULT:      -5.3      1.420      1.759
  Name = 
  1 active torsions:
  status: ('A' for Active; 'I' for Inactive)
    1  A    between atoms: C_10  and  N_15
                            x       y       z     vdW  Elec       q    Type
                         _______ _______ _______ _____ _____    ______ ____

>  <TORSDO>
F 1

$$$$
=
 OpenBabel11052412343D

 30 34  0  0  1  0  0  0  0  0999 V2000
  183.2400  178.8030  139.6030 C   0  0  1  0  0  3  0  0  0  0  0  0
  185.8270  178.6910  139.0190 C   0  0  1  0  0  3  0  0  0  0  0  0
  184.5600  178.4730  143.4140 C   0  0  1  0  0  3  0  0  0  0  0  0
  182.2500  178.8680  140.7770 C   0  0  2  0  0  3  0  0  0  0  0  0
  182.9960  179.8880  138.6580 N   0  0  0  0  0  0  0  0  0  0  0  0
  179.1340  180.2910  138.4570 S   0  0  0  0  0  0  0  0  0  0  0  0
  180.1090  178.0630  142.4950 C   0  0  0  0  0  0  0  0  0  0  0  0
  180.6240  179.3090  138.8380 C   0  0  1  0  0  3  0  0  0  0  0  0
  181.4310  181.1480  137.3970 N   0  0  0  0  0  2  0  0  0  0  0  0
  180.8880  179.0430  143.3570 C   0  0  1  0  0  3  0  0  0  0  0  0
  183.1920  178.1080  143.2420 O   0  0  0  0  0  0  0  0  0  0  0  0
  181.7700  180.0890  138.2690 C   0  0  0  0  0  0  0  0  0  0  0  0
  180.8180  179.1820  140.3640 C   0  0  1  0  0  3  0  0  0  0  0  0
  187.2660  177.7300  139.6310 S   0  0  0  0  0  0  0  0  0  0  0  0
  179.5700  177.0760  143.0650 O   0  0  0  0  0  0  0  0  0  0  0  0
  179.6440  180.7570  135.8070 C   0  0  0  0  0  1  0  0  0  0  0  0
  185.4030  178.0940  137.6880 C   0  0  0  0  0  1  0  0  0  0  0  0
  185.3780  178.3900  142.1140 C   0  0  2  0  0  3  0  0  0  0  0  0
  187.6540  178.8110  141.0580 C   0  0  0  0  0  2  0  0  0  0  0  0
  180.0030  181.2820  137.1830 C   0  0  1  0  0  3  0  0  0  0  0  0
  184.6990  178.6180  140.0530 C   0  0  1  0  0  3  0  0  0  0  0  0
  182.6050  179.8230  141.7350 O   0  0  0  0  0  0  0  0  0  0  0  0
  184.8210  179.7330  144.2480 C   0  0  0  0  0  1  0  0  0  0  0  0
  182.3850  179.2490  143.0040 C   0  0  1  0  0  3  0  0  0  0  0  0
  179.0280  177.3760  140.3380 C   0  0  0  0  0  1  0  0  0  0  0  0
  186.8930  178.4070  142.3300 C   0  0  0  0  0  2  0  0  0  0  0  0
  185.0070  179.3670  141.1890 O   0  0  0  0  0  0  0  0  0  0  0  0
  179.9360  178.2520  141.0700 N   0  0  0  0  0  0  0  0  0  0  0  0
  180.2060  180.3270  143.4030 N   0  0  0  0  0  2  0  0  0  0  0  0
  178.9330  180.0870  143.7950 O   0  0  0  0  0  1  0  0  0  0  0  0
  1  5  1  1  0  0  0
  1 21  1  0  0  0  0
  1  4  1  0  0  0  0
  2 17  1  6  0  0  0
  2 14  1  0  0  0  0
  2 21  1  0  0  0  0
  3 23  1  6  0  0  0
  4 22  1  1  0  0  0
  6  8  1  0  0  0  0
  7 15  2  0  0  0  0
  7 10  1  0  0  0  0
  8 12  1  6  0  0  0
  8 13  1  0  0  0  0
  9 12  1  0  0  0  0
 10 29  1  6  0  0  0
 11  3  1  0  0  0  0
 12  5  2  0  0  0  0
 13  4  1  0  0  0  0
 13 28  1  6  0  0  0
 14 19  1  0  0  0  0
 18 26  1  1  0  0  0
 18  3  1  0  0  0  0
 19 26  1  0  0  0  0
 20 16  1  6  0  0  0
 20  9  1  0  0  0  0
 20  6  1  0  0  0  0
 21 27  1  1  0  0  0
 24 22  1  6  0  0  0
 24 11  1  0  0  0  0
 24 10  1  0  0  0  0
 25 28  1  0  0  0  0
 27 18  1  0  0  0  0
 28  7  1  0  0  0  0
 29 30  1  0  0  0  0
M  END
>  <MODEL>
6

>  <REMARK>
 VINA RESULT:      -5.1      3.046      5.271
  Name = 
  1 active torsions:
  status: ('A' for Active; 'I' for Inactive)
    1  A    between atoms: C_10  and  N_15
                            x       y       z     vdW  Elec       q    Type
                         _______ _______ _______ _____ _____    ______ ____

>  <TORSDO>
F 1

$$$$
=
 OpenBabel11052412343D

 30 34  0  0  1  0  0  0  0  0999 V2000
  188.4890  177.1520  140.7540 C   0  0  1  0  0  3  0  0  0  0  0  0
  187.6490  177.9310  143.1500 C   0  0  1  0  0  3  0  0  0  0  0  0
  184.8500  178.4670  139.5650 C   0  0  1  0  0  3  0  0  0  0  0  0
  188.1060  177.1410  139.2660 C   0  0  2  0  0  3  0  0  0  0  0  0
  189.8130  177.7340  140.9460 N   0  0  0  0  0  0  0  0  0  0  0  0
  191.9800  176.4760  137.9720 S   0  0  0  0  0  0  0  0  0  0  0  0
  187.4600  176.0620  136.6960 C   0  0  0  0  0  0  0  0  0  0  0  0
  190.5350  176.3260  139.0770 C   0  0  1  0  0  3  0  0  0  0  0  0
  192.0820  177.8480  140.2620 N   0  0  0  0  0  2  0  0  0  0  0  0
  186.8960  177.4710  136.6260 C   0  0  1  0  0  3  0  0  0  0  0  0
  185.4600  177.5490  138.6580 O   0  0  0  0  0  0  0  0  0  0  0  0
  190.7790  177.3070  140.1840 C   0  0  0  0  0  0  0  0  0  0  0  0
  189.2390  176.7230  138.3380 C   0  0  1  0  0  3  0  0  0  0  0  0
  186.0650  177.8430  144.0730 S   0  0  0  0  0  0  0  0  0  0  0  0
  186.8340  175.1450  136.0990 O   0  0  0  0  0  0  0  0  0  0  0  0
  193.9410  176.3420  139.8790 C   0  0  0  0  0  1  0  0  0  0  0  0
  188.5740  176.8650  143.7140 C   0  0  0  0  0  1  0  0  0  0  0  0
  185.4010  178.3570  140.9970 C   0  0  2  0  0  3  0  0  0  0  0  0
  185.3080  179.3420  143.3420 C   0  0  0  0  0  2  0  0  0  0  0  0
  192.9800  177.3310  139.2480 C   0  0  1  0  0  3  0  0  0  0  0  0
  187.3740  177.7030  141.6600 C   0  0  1  0  0  3  0  0  0  0  0  0
  187.6590  178.3850  138.8100 O   0  0  0  0  0  0  0  0  0  0  0  0
  184.6820  179.9040  139.0580 C   0  0  0  0  0  1  0  0  0  0  0  0
  186.5460  178.1540  137.9750 C   0  0  1  0  0  3  0  0  0  0  0  0
  189.2760  174.4220  137.2550 C   0  0  0  0  0  1  0  0  0  0  0  0
  184.5280  179.0420  142.0530 C   0  0  0  0  0  2  0  0  0  0  0  0
  186.7200  178.8000  141.0960 O   0  0  0  0  0  0  0  0  0  0  0  0
  188.6990  175.7560  137.3810 N   0  0  0  0  0  0  0  0  0  0  0  0
  187.7760  178.3290  135.8480 N   0  0  0  0  0  2  0  0  0  0  0  0
  187.8170  177.8230  134.5940 O   0  0  0  0  0  1  0  0  0  0  0  0
  1  5  1  6  0  0  0
  1 21  1  0  0  0  0
  2 17  1  1  0  0  0
  2 14  1  0  0  0  0
  3 23  1  6  0  0  0
  3 18  1  0  0  0  0
  4 22  1  6  0  0  0
  4  1  1  0  0  0  0
  6 20  1  0  0  0  0
  7 28  1  0  0  0  0
  8  6  1  6  0  0  0
  8 12  1  0  0  0  0
 10 29  1  1  0  0  0
 10  7  1  0  0  0  0
 10 24  1  0  0  0  0
 11  3  1  0  0  0  0
 12  9  1  0  0  0  0
 12  5  2  0  0  0  0
 13 28  1  1  0  0  0
 13  8  1  0  0  0  0
 13  4  1  0  0  0  0
 15  7  2  0  0  0  0
 18 27  1  0  0  0  0
 18 26  1  1  0  0  0
 19 14  1  0  0  0  0
 20 16  1  1  0  0  0
 20  9  1  0  0  0  0
 21 27  1  6  0  0  0
 21  2  1  0  0  0  0
 24 11  1  1  0  0  0
 24 22  1  0  0  0  0
 25 28  1  0  0  0  0
 26 19  1  0  0  0  0
 30 29  1  0  0  0  0
M  END
>  <MODEL>
7

>  <REMARK>
 VINA RESULT:      -5.0      3.662      4.940
  Name = 
  1 active torsions:
  status: ('A' for Active; 'I' for Inactive)
    1  A    between atoms: C_10  and  N_15
                            x       y       z     vdW  Elec       q    Type
                         _______ _______ _______ _____ _____    ______ ____

>  <TORSDO>
F 1

$$$$
=
 OpenBabel11052412343D

 30 34  0  0  1  0  0  0  0  0999 V2000
  185.3520  175.9110  136.2640 C   0  0  1  0  0  3  0  0  0  0  0  0
  182.7020  175.7770  136.1530 C   0  0  1  0  0  3  0  0  0  0  0  0
  184.6270  178.9850  138.7940 C   0  0  1  0  0  3  0  0  0  0  0  0
  186.5140  176.6300  136.9660 C   0  0  2  0  0  3  0  0  0  0  0  0
  185.4960  174.4620  136.3720 N   0  0  0  0  0  0  0  0  0  0  0  0
  189.2940  173.7290  135.9800 S   0  0  0  0  0  0  0  0  0  0  0  0
  188.8560  178.2500  137.2460 C   0  0  0  0  0  0  0  0  0  0  0  0
  187.8380  174.8020  135.7400 C   0  0  1  0  0  3  0  0  0  0  0  0
  186.9030  172.5600  136.2050 N   0  0  0  0  0  2  0  0  0  0  0  0
  188.2680  178.2550  138.6470 C   0  0  1  0  0  3  0  0  0  0  0  0
  185.9330  179.0030  138.2200 O   0  0  0  0  0  0  0  0  0  0  0  0
  186.6550  173.9450  136.0800 C   0  0  0  0  0  0  0  0  0  0  0  0
  187.8770  176.0020  136.7100 C   0  0  1  0  0  3  0  0  0  0  0  0
  181.3330  176.9960  136.0770 S   0  0  0  0  0  0  0  0  0  0  0  0
  189.4300  179.2970  136.8430 O   0  0  0  0  0  0  0  0  0  0  0  0
  188.4000  171.5440  134.5940 C   0  0  0  0  0  1  0  0  0  0  0  0
  182.8860  175.1980  134.7600 C   0  0  0  0  0  1  0  0  0  0  0  0
  183.6140  178.1740  137.9690 C   0  0  2  0  0  3  0  0  0  0  0  0
  181.2230  177.3070  137.8800 C   0  0  0  0  0  2  0  0  0  0  0  0
  188.2850  172.2000  135.9560 C   0  0  1  0  0  3  0  0  0  0  0  0
  183.9730  176.4800  136.6410 C   0  0  1  0  0  3  0  0  0  0  0  0
  186.3580  176.6880  138.3550 O   0  0  0  0  0  0  0  0  0  0  0  0
  184.5590  178.7350  140.3050 C   0  0  0  0  0  1  0  0  0  0  0  0
  186.7460  177.9790  138.7690 C   0  0  1  0  0  3  0  0  0  0  0  0
  189.5550  177.0850  135.1350 C   0  0  0  0  0  1  0  0  0  0  0  0
  182.1530  178.4390  138.3410 C   0  0  0  0  0  2  0  0  0  0  0  0
  183.8810  176.8040  137.9950 O   0  0  0  0  0  0  0  0  0  0  0  0
  188.8140  177.0800  136.3920 N   0  0  0  0  0  0  0  0  0  0  0  0
  189.0090  177.3460  139.5090 N   0  0  0  0  0  2  0  0  0  0  0  0
  188.6270  177.6070  140.7810 O   0  0  0  0  0  1  0  0  0  0  0  0
  1  5  1  1  0  0  0
  1 21  1  0  0  0  0
  1  4  1  0  0  0  0
  2 17  1  6  0  0  0
  2 21  1  0  0  0  0
  3 23  1  1  0  0  0
  4 22  1  1  0  0  0
  7 10  1  0  0  0  0
  8  6  1  1  0  0  0
  8 12  1  0  0  0  0
  8 13  1  0  0  0  0
 10 24  1  0  0  0  0
 10 29  1  1  0  0  0
 11  3  1  0  0  0  0
 12  9  1  0  0  0  0
 12  5  2  0  0  0  0
 13 28  1  6  0  0  0
 13  4  1  0  0  0  0
 14  2  1  0  0  0  0
 14 19  1  0  0  0  0
 15  7  2  0  0  0  0
 18 27  1  0  0  0  0
 18 26  1  1  0  0  0
 18  3  1  0  0  0  0
 19 26  1  0  0  0  0
 20 16  1  6  0  0  0
 20  6  1  0  0  0  0
 20  9  1  0  0  0  0
 21 27  1  1  0  0  0
 22 24  1  0  0  0  0
 24 11  1  6  0  0  0
 25 28  1  0  0  0  0
 28  7  1  0  0  0  0
 29 30  1  0  0  0  0
M  END
>  <MODEL>
8

>  <REMARK>
 VINA RESULT:      -4.8      3.306      6.212
  Name = 
  1 active torsions:
  status: ('A' for Active; 'I' for Inactive)
    1  A    between atoms: C_10  and  N_15
                            x       y       z     vdW  Elec       q    Type
                         _______ _______ _______ _____ _____    ______ ____

>  <TORSDO>
F 1

$$$$
=
 OpenBabel11052412343D

 30 34  0  0  1  0  0  0  0  0999 V2000
  186.0790  178.2340  138.3940 C   0  0  1  0  0  3  0  0  0  0  0  0
  188.5900  177.7270  137.6980 C   0  0  1  0  0  3  0  0  0  0  0  0
  185.2170  176.1810  135.0150 C   0  0  1  0  0  3  0  0  0  0  0  0
  184.6190  177.9440  138.0120 C   0  0  2  0  0  3  0  0  0  0  0  0
  186.3220  177.9090  139.7960 N   0  0  0  0  0  0  0  0  0  0  0  0
  183.1260  179.0030  141.7220 S   0  0  0  0  0  0  0  0  0  0  0  0
  181.9310  178.4790  137.1920 C   0  0  0  0  0  0  0  0  0  0  0  0
  184.2340  179.0950  140.2750 C   0  0  1  0  0  3  0  0  0  0  0  0
  185.6000  178.0510  142.0510 N   0  0  0  0  0  2  0  0  0  0  0  0
  182.1000  177.0040  136.8640 C   0  0  1  0  0  3  0  0  0  0  0  0
  184.1590  177.0250  135.4650 O   0  0  0  0  0  0  0  0  0  0  0  0
  185.4750  178.3570  140.6780 C   0  0  0  0  0  0  0  0  0  0  0  0
  183.6040  178.3830  139.0590 C   0  0  1  0  0  3  0  0  0  0  0  0
  189.5330  177.7080  136.1240 S   0  0  0  0  0  0  0  0  0  0  0  0
  181.2140  179.1750  136.4240 O   0  0  0  0  0  0  0  0  0  0  0  0
  184.9300  179.7530  143.6410 C   0  0  0  0  0  1  0  0  0  0  0  0
  188.9520  179.0030  138.4390 C   0  0  0  0  0  1  0  0  0  0  0  0
  186.5970  176.6060  135.5430 C   0  0  2  0  0  3  0  0  0  0  0  0
  189.0700  176.0080  135.6180 C   0  0  0  0  0  2  0  0  0  0  0  0
  184.4920  178.5350  142.8510 C   0  0  1  0  0  3  0  0  0  0  0  0
  187.0910  177.6640  137.3860 C   0  0  1  0  0  3  0  0  0  0  0  0
  184.3780  176.5870  137.7710 O   0  0  0  0  0  0  0  0  0  0  0  0
  184.9490  174.6730  135.0800 C   0  0  0  0  0  1  0  0  0  0  0  0
  183.5500  176.5010  136.6330 C   0  0  1  0  0  3  0  0  0  0  0  0
  182.1710  180.4560  138.7190 C   0  0  0  0  0  1  0  0  0  0  0  0
  187.7730  175.9690  134.7970 C   0  0  0  0  0  2  0  0  0  0  0  0
  186.7270  176.4010  136.9180 O   0  0  0  0  0  0  0  0  0  0  0  0
  182.5220  179.0850  138.3670 N   0  0  0  0  0  0  0  0  0  0  0  0
  181.4430  176.1840  137.8700 N   0  0  0  0  0  2  0  0  0  0  0  0
  181.5090  174.9020  137.4410 O   0  0  0  0  0  1  0  0  0  0  0  0
  1  5  1  1  0  0  0
  2 17  1  6  0  0  0
  3 23  1  1  0  0  0
  3 11  1  0  0  0  0
  3 18  1  0  0  0  0
  4 22  1  1  0  0  0
  4  1  1  0  0  0  0
  4 13  1  0  0  0  0
  5 12  2  0  0  0  0
  6 20  1  0  0  0  0
  7 28  1  0  0  0  0
  8 12  1  1  0  0  0
  8  6  1  0  0  0  0
  9 20  1  0  0  0  0
 10  7  1  0  0  0  0
 10 29  1  1  0  0  0
 12  9  1  0  0  0  0
 13 28  1  6  0  0  0
 13  8  1  0  0  0  0
 14  2  1  0  0  0  0
 15  7  2  0  0  0  0
 18 26  1  6  0  0  0
 18 27  1  0  0  0  0
 19 14  1  0  0  0  0
 20 16  1  6  0  0  0
 21 27  1  1  0  0  0
 21  2  1  0  0  0  0
 21  1  1  0  0  0  0
 24 11  1  6  0  0  0
 24 10  1  0  0  0  0
 24 22  1  0  0  0  0
 26 19  1  0  0  0  0
 28 25  1  0  0  0  0
 30 29  1  0  0  0  0
M  END
>  <MODEL>
9

>  <REMARK>
 VINA RESULT:      -4.6      2.221      5.876
  Name = 
  1 active torsions:
  status: ('A' for Active; 'I' for Inactive)
    1  A    between atoms: C_10  and  N_15
                            x       y       z     vdW  Elec       q    Type
                         _______ _______ _______ _____ _____    ______ ____

>  <TORSDO>
F 1

$$$$
