=
 OpenBabel11052413063D

 31 36  0  0  1  0  0  0  0  0999 V2000
  184.9450  178.2550  143.9040 C   0  0  0  0  0  0  0  0  0  0  0  0
  188.7400  177.7770  143.6990 C   0  0  0  0  0  0  0  0  0  0  0  0
  189.1950  177.5000  145.0190 C   0  0  0  0  0  0  0  0  0  0  0  0
  188.8100  177.2000  147.4100 C   0  0  0  0  0  0  0  0  0  0  0  0
  187.3140  178.0880  143.3490 C   0  0  0  0  0  0  0  0  0  0  0  0
  184.6800  178.8120  142.6530 C   0  0  0  0  0  3  0  0  0  0  0  0
  188.3300  177.4700  146.1260 C   0  0  0  0  0  3  0  0  0  0  0  0
  189.3140  178.0280  141.2260 C   0  0  1  0  0  3  0  0  0  0  0  0
  183.9370  178.0700  144.7900 F   0  0  0  0  0  0  0  0  0  0  0  0
  191.4640  177.3000  144.1800 C   0  0  0  0  0  3  0  0  0  0  0  0
  187.9330  177.1720  148.4860 O   0  0  0  0  0  1  0  0  0  0  0  0
  188.0710  178.7830  141.1210 N   0  0  0  0  0  2  0  0  0  0  0  0
  189.7080  177.8110  142.6610 C   0  0  0  0  0  0  0  0  0  0  0  0
  186.2510  177.9010  144.2500 C   0  0  0  0  0  3  0  0  0  0  0  0
  190.1690  176.9590  147.6120 C   0  0  0  0  0  3  0  0  0  0  0  0
  187.0250  178.6220  142.0780 C   0  0  0  0  0  0  0  0  0  0  0  0
  185.7200  178.9960  141.7400 C   0  0  0  0  0  3  0  0  0  0  0  0
  191.0180  177.5680  142.9300 N   0  0  0  0  0  0  0  0  0  0  0  0
  190.5730  177.2600  145.2450 C   0  0  0  0  0  0  0  0  0  0  0  0
  191.0500  176.9910  146.5310 C   0  0  0  0  0  3  0  0  0  0  0  0
  189.1650  176.6800  140.5310 C   0  0  0  0  0  2  0  0  0  0  0  0
  187.3770  177.4170  135.6480 C   0  0  2  0  0  3  0  0  0  0  0  0
  187.3690  177.5710  138.1430 C   0  0  0  0  0  3  0  0  0  0  0  0
  190.7760  176.7140  137.2460 C   0  0  0  0  0  3  0  0  0  0  0  0
  190.7750  176.5140  138.6270 C   0  0  0  0  0  3  0  0  0  0  0  0
  186.7940  178.2240  134.5940 N   0  0  0  0  0  1  0  0  0  0  0  0
  189.5520  176.7830  139.1310 N   0  0  0  0  0  0  0  0  0  0  0  0
  186.7290  177.7540  136.9810 C   0  0  0  0  0  3  0  0  0  0  0  0
  189.4810  177.0910  136.9400 C   0  0  0  0  0  0  0  0  0  0  0  0
  188.7700  177.1330  138.1020 C   0  0  0  0  0  0  0  0  0  0  0  0
  188.9140  177.5670  135.6400 C   0  0  0  0  0  2  0  0  0  0  0  0
  1 14  1  0  0  0  0
  1  9  1  0  0  0  0
  2  3  1  0  0  0  0
  3 19  2  0  0  0  0
  3  7  1  0  0  0  0
  4 15  1  0  0  0  0
  4 11  1  0  0  0  0
  5  2  1  0  0  0  0
  5 14  2  0  0  0  0
  6  1  2  0  0  0  0
  7  4  2  0  0  0  0
  8 21  1  1  0  0  0
  8 13  1  0  0  0  0
 10 19  1  0  0  0  0
 12  8  1  0  0  0  0
 12 16  1  0  0  0  0
 13 18  1  0  0  0  0
 13  2  2  0  0  0  0
 16  5  1  0  0  0  0
 17 16  2  0  0  0  0
 17  6  1  0  0  0  0
 18 10  2  0  0  0  0
 19 20  1  0  0  0  0
 20 15  2  0  0  0  0
 22 26  1  6  0  0  0
 22 28  1  0  0  0  0
 24 25  2  0  0  0  0
 25 27  1  0  0  0  0
 27 21  1  0  0  0  0
 28 23  2  0  0  0  0
 29 24  1  0  0  0  0
 29 30  2  0  0  0  0
 30 23  1  0  0  0  0
 30 27  1  0  0  0  0
 31 22  1  0  0  0  0
 31 29  1  0  0  0  0
M  END
>  <MODEL>
1

>  <REMARK>
 VINA RESULT:     -10.5      0.000      0.000
  Name = 
  2 active torsions:
  status: ('A' for Active; 'I' for Inactive)
    1  A    between atoms: N_9  and  C_23
    2  A    between atoms: C_15  and  C_23
                            x       y       z     vdW  Elec       q    Type
                         _______ _______ _______ _____ _____    ______ ____

>  <TORSDO>
F 2

$$$$
=
 OpenBabel11052413063D

 31 36  0  0  1  0  0  0  0  0999 V2000
  190.6630  177.1640  147.1540 C   0  0  0  0  0  0  0  0  0  0  0  0
  188.4060  177.3950  144.0670 C   0  0  0  0  0  0  0  0  0  0  0  0
  187.1600  177.9280  144.5040 C   0  0  0  0  0  0  0  0  0  0  0  0
  185.6650  178.7570  146.2450 C   0  0  0  0  0  0  0  0  0  0  0  0
  189.5550  177.0880  144.9820 C   0  0  0  0  0  0  0  0  0  0  0  0
  191.6960  176.3640  146.6660 C   0  0  0  0  0  3  0  0  0  0  0  0
  186.9010  178.2410  145.8490 C   0  0  0  0  0  3  0  0  0  0  0  0
  189.8440  176.5850  142.1230 C   0  0  1  0  0  3  0  0  0  0  0  0
  190.6830  177.5880  148.4400 F   0  0  0  0  0  0  0  0  0  0  0  0
  186.3330  177.8270  142.2240 C   0  0  0  0  0  3  0  0  0  0  0  0
  185.4370  179.0620  147.5800 O   0  0  0  0  0  1  0  0  0  0  0  0
  190.6330  175.8890  143.1330 N   0  0  0  0  0  2  0  0  0  0  0  0
  188.5450  177.0880  142.6880 C   0  0  0  0  0  0  0  0  0  0  0  0
  189.6000  177.5190  146.3190 C   0  0  0  0  0  3  0  0  0  0  0  0
  184.6600  178.9680  145.3020 C   0  0  0  0  0  3  0  0  0  0  0  0
  190.6230  176.3060  144.4970 C   0  0  0  0  0  0  0  0  0  0  0  0
  191.6760  175.9350  145.3380 C   0  0  0  0  0  3  0  0  0  0  0  0
  187.5230  177.3180  141.8230 N   0  0  0  0  0  0  0  0  0  0  0  0
  186.1250  178.1410  143.5610 C   0  0  0  0  0  0  0  0  0  0  0  0
  184.8890  178.6580  143.9600 C   0  0  0  0  0  3  0  0  0  0  0  0
  190.6380  177.7570  141.5570 C   0  0  0  0  0  2  0  0  0  0  0  0
  190.1400  175.6730  136.7620 C   0  0  2  0  0  3  0  0  0  0  0  0
  189.4180  176.8940  138.8200 C   0  0  0  0  0  3  0  0  0  0  0  0
  193.0410  176.8520  138.9500 C   0  0  0  0  0  3  0  0  0  0  0  0
  192.7050  177.2890  140.2320 C   0  0  0  0  0  3  0  0  0  0  0  0
  189.7120  175.7060  135.3760 N   0  0  0  0  0  1  0  0  0  0  0  0
  191.3620  177.3510  140.3610 N   0  0  0  0  0  0  0  0  0  0  0  0
  189.0970  176.3370  137.6450 C   0  0  0  0  0  3  0  0  0  0  0  0
  191.8300  176.6270  138.3220 C   0  0  0  0  0  0  0  0  0  0  0  0
  190.8360  176.9480  139.1970 C   0  0  0  0  0  0  0  0  0  0  0  0
  191.5540  176.2790  136.8930 C   0  0  0  0  0  2  0  0  0  0  0  0
  1  9  1  0  0  0  0
  2  3  1  0  0  0  0
  2  5  1  0  0  0  0
  3  7  1  0  0  0  0
  4 11  1  0  0  0  0
  5 14  1  0  0  0  0
  6  1  1  0  0  0  0
  7  4  2  0  0  0  0
  8 21  1  1  0  0  0
  8 13  1  0  0  0  0
  8 12  1  0  0  0  0
 10 19  1  0  0  0  0
 12 16  1  0  0  0  0
 13  2  2  0  0  0  0
 14  1  2  0  0  0  0
 15  4  1  0  0  0  0
 16  5  2  0  0  0  0
 16 17  1  0  0  0  0
 17  6  2  0  0  0  0
 18 10  2  0  0  0  0
 18 13  1  0  0  0  0
 19 20  1  0  0  0  0
 19  3  2  0  0  0  0
 20 15  2  0  0  0  0
 22 26  1  6  0  0  0
 22 31  1  0  0  0  0
 22 28  1  0  0  0  0
 23 30  1  0  0  0  0
 24 25  2  0  0  0  0
 25 27  1  0  0  0  0
 27 21  1  0  0  0  0
 28 23  2  0  0  0  0
 29 24  1  0  0  0  0
 29 30  2  0  0  0  0
 30 27  1  0  0  0  0
 31 29  1  0  0  0  0
M  END
>  <MODEL>
2

>  <REMARK>
 VINA RESULT:     -10.5      2.187      4.325
  Name = 
  2 active torsions:
  status: ('A' for Active; 'I' for Inactive)
    1  A    between atoms: N_9  and  C_23
    2  A    between atoms: C_15  and  C_23
                            x       y       z     vdW  Elec       q    Type
                         _______ _______ _______ _____ _____    ______ ____

>  <TORSDO>
F 2

$$$$
=
 OpenBabel11052413063D

 31 36  0  0  1  0  0  0  0  0999 V2000
  190.7480  177.0930  146.5730 C   0  0  0  0  0  0  0  0  0  0  0  0
  188.1180  177.4560  143.8120 C   0  0  0  0  0  0  0  0  0  0  0  0
  186.9440  177.9800  144.4240 C   0  0  0  0  0  0  0  0  0  0  0  0
  185.6940  178.7530  146.3720 C   0  0  0  0  0  0  0  0  0  0  0  0
  189.3710  177.1070  144.5600 C   0  0  0  0  0  0  0  0  0  0  0  0
  191.7010  176.3050  145.9280 C   0  0  0  0  0  3  0  0  0  0  0  0
  186.8630  178.2440  145.8020 C   0  0  0  0  0  3  0  0  0  0  0  0
  189.2860  176.7110  141.6710 C   0  0  1  0  0  3  0  0  0  0  0  0
  190.9380  177.4670  147.8600 F   0  0  0  0  0  0  0  0  0  0  0  0
  185.8310  177.9710  142.2660 C   0  0  0  0  0  3  0  0  0  0  0  0
  185.6420  179.0080  147.7350 O   0  0  0  0  0  1  0  0  0  0  0  0
  190.1900  175.9710  142.5450 N   0  0  0  0  0  2  0  0  0  0  0  0
  188.0760  177.2000  142.4160 C   0  0  0  0  0  0  0  0  0  0  0  0
  189.5910  177.4860  145.8950 C   0  0  0  0  0  3  0  0  0  0  0  0
  184.5790  179.0060  145.5730 C   0  0  0  0  0  3  0  0  0  0  0  0
  190.3590  176.3370  143.9130 C   0  0  0  0  0  0  0  0  0  0  0  0
  191.5060  175.9260  144.5990 C   0  0  0  0  0  3  0  0  0  0  0  0
  186.9540  177.4690  141.6980 N   0  0  0  0  0  0  0  0  0  0  0  0
  185.7990  178.2360  143.6300 C   0  0  0  0  0  0  0  0  0  0  0  0
  184.6310  178.7460  144.2030 C   0  0  0  0  0  3  0  0  0  0  0  0
  190.0150  177.8970  141.0510 C   0  0  0  0  0  2  0  0  0  0  0  0
  191.6400  176.0410  136.4150 C   0  0  2  0  0  3  0  0  0  0  0  0
  191.2920  176.0470  138.8890 C   0  0  0  0  0  3  0  0  0  0  0  0
  189.0110  178.5500  137.5940 C   0  0  0  0  0  3  0  0  0  0  0  0
  188.9690  178.7950  138.9670 C   0  0  0  0  0  3  0  0  0  0  0  0
  191.8050  174.9890  135.4300 N   0  0  0  0  0  1  0  0  0  0  0  0
  189.7890  177.9400  139.6140 N   0  0  0  0  0  0  0  0  0  0  0  0
  191.8530  175.4840  137.8120 C   0  0  0  0  0  3  0  0  0  0  0  0
  189.9210  177.5200  137.4440 C   0  0  0  0  0  0  0  0  0  0  0  0
  190.3650  177.1670  138.6830 C   0  0  0  0  0  0  0  0  0  0  0  0
  190.2780  176.7410  136.2170 C   0  0  0  0  0  2  0  0  0  0  0  0
  1  9  1  0  0  0  0
  2  3  1  0  0  0  0
  2  5  1  0  0  0  0
  3  7  1  0  0  0  0
  4 11  1  0  0  0  0
  5 14  1  0  0  0  0
  6  1  1  0  0  0  0
  7  4  2  0  0  0  0
  8 21  1  1  0  0  0
  8 13  1  0  0  0  0
  8 12  1  0  0  0  0
 10 19  1  0  0  0  0
 12 16  1  0  0  0  0
 13  2  2  0  0  0  0
 14  1  2  0  0  0  0
 15  4  1  0  0  0  0
 16  5  2  0  0  0  0
 16 17  1  0  0  0  0
 17  6  2  0  0  0  0
 18 10  2  0  0  0  0
 18 13  1  0  0  0  0
 19 20  1  0  0  0  0
 19  3  2  0  0  0  0
 20 15  2  0  0  0  0
 22 26  1  6  0  0  0
 22 28  1  0  0  0  0
 24 25  2  0  0  0  0
 25 27  1  0  0  0  0
 27 21  1  0  0  0  0
 28 23  2  0  0  0  0
 29 24  1  0  0  0  0
 29 30  2  0  0  0  0
 30 23  1  0  0  0  0
 30 27  1  0  0  0  0
 31 22  1  0  0  0  0
 31 29  1  0  0  0  0
M  END
>  <MODEL>
3

>  <REMARK>
 VINA RESULT:     -10.4      2.259      4.444
  Name = 
  2 active torsions:
  status: ('A' for Active; 'I' for Inactive)
    1  A    between atoms: N_9  and  C_23
    2  A    between atoms: C_15  and  C_23
                            x       y       z     vdW  Elec       q    Type
                         _______ _______ _______ _____ _____    ______ ____

>  <TORSDO>
F 2

$$$$
=
 OpenBabel11052413063D

 31 36  0  0  1  0  0  0  0  0999 V2000
  191.1630  176.7930  146.7910 C   0  0  0  0  0  0  0  0  0  0  0  0
  188.4430  177.2590  144.1350 C   0  0  0  0  0  0  0  0  0  0  0  0
  187.3130  177.8240  144.7920 C   0  0  0  0  0  0  0  0  0  0  0  0
  186.1690  178.6380  146.7890 C   0  0  0  0  0  0  0  0  0  0  0  0
  189.7100  176.8620  144.8330 C   0  0  0  0  0  0  0  0  0  0  0  0
  192.0610  175.9720  146.1080 C   0  0  0  0  0  3  0  0  0  0  0  0
  187.2950  178.0870  146.1730 C   0  0  0  0  0  3  0  0  0  0  0  0
  189.4980  176.4770  141.9490 C   0  0  1  0  0  3  0  0  0  0  0  0
  191.4160  177.1570  148.0710 F   0  0  0  0  0  0  0  0  0  0  0  0
  186.1180  177.8620  142.6800 C   0  0  0  0  0  3  0  0  0  0  0  0
  186.1800  178.8910  148.1530 O   0  0  0  0  0  1  0  0  0  0  0  0
  190.4080  175.7030  142.7860 N   0  0  0  0  0  2  0  0  0  0  0  0
  188.3370  177.0090  142.7410 C   0  0  0  0  0  0  0  0  0  0  0  0
  189.9960  177.2300  146.1590 C   0  0  0  0  0  3  0  0  0  0  0  0
  185.0340  178.9330  146.0340 C   0  0  0  0  0  3  0  0  0  0  0  0
  190.6430  176.0580  144.1480 C   0  0  0  0  0  0  0  0  0  0  0  0
  191.8000  175.6040  144.7870 C   0  0  0  0  0  3  0  0  0  0  0  0
  187.1990  177.3210  142.0680 N   0  0  0  0  0  0  0  0  0  0  0  0
  186.1490  178.1240  144.0440 C   0  0  0  0  0  0  0  0  0  0  0  0
  185.0230  178.6750  144.6630 C   0  0  0  0  0  3  0  0  0  0  0  0
  190.2460  177.6380  141.3030 C   0  0  0  0  0  2  0  0  0  0  0  0
  187.9860  177.3860  136.5690 C   0  0  2  0  0  3  0  0  0  0  0  0
  188.2680  178.1210  138.9410 C   0  0  0  0  0  3  0  0  0  0  0  0
  191.4780  176.7380  137.9770 C   0  0  0  0  0  3  0  0  0  0  0  0
  191.6160  176.8680  139.3600 C   0  0  0  0  0  3  0  0  0  0  0  0
  187.3520  177.9790  135.4060 N   0  0  0  0  0  1  0  0  0  0  0  0
  190.4800  177.3700  139.8910 N   0  0  0  0  0  0  0  0  0  0  0  0
  187.5180  178.0900  137.8310 C   0  0  0  0  0  3  0  0  0  0  0  0
  190.1900  177.1610  137.7070 C   0  0  0  0  0  0  0  0  0  0  0  0
  189.6170  177.5460  138.8820 C   0  0  0  0  0  0  0  0  0  0  0  0
  189.5190  177.3740  136.3860 C   0  0  0  0  0  2  0  0  0  0  0  0
  1  9  1  0  0  0  0
  2  3  1  0  0  0  0
  2  5  1  0  0  0  0
  3  7  1  0  0  0  0
  4 11  1  0  0  0  0
  5 14  2  0  0  0  0
  6  1  2  0  0  0  0
  7  4  2  0  0  0  0
  8 21  1  1  0  0  0
  8 13  1  0  0  0  0
  8 12  1  0  0  0  0
 10 19  1  0  0  0  0
 12 16  1  0  0  0  0
 13  2  2  0  0  0  0
 14  1  1  0  0  0  0
 15  4  1  0  0  0  0
 16 17  2  0  0  0  0
 16  5  1  0  0  0  0
 17  6  1  0  0  0  0
 18 10  2  0  0  0  0
 18 13  1  0  0  0  0
 19 20  1  0  0  0  0
 19  3  2  0  0  0  0
 20 15  2  0  0  0  0
 22 26  1  6  0  0  0
 22 28  1  0  0  0  0
 24 25  2  0  0  0  0
 25 27  1  0  0  0  0
 27 21  1  0  0  0  0
 28 23  2  0  0  0  0
 29 24  1  0  0  0  0
 29 30  2  0  0  0  0
 30 23  1  0  0  0  0
 30 27  1  0  0  0  0
 31 22  1  0  0  0  0
 31 29  1  0  0  0  0
M  END
>  <MODEL>
4

>  <REMARK>
 VINA RESULT:     -10.4      2.005      4.034
  Name = 
  2 active torsions:
  status: ('A' for Active; 'I' for Inactive)
    1  A    between atoms: N_9  and  C_23
    2  A    between atoms: C_15  and  C_23
                            x       y       z     vdW  Elec       q    Type
                         _______ _______ _______ _____ _____    ______ ____

>  <TORSDO>
F 2

$$$$
=
 OpenBabel11052413063D

 31 36  0  0  1  0  0  0  0  0999 V2000
  185.0680  178.2560  143.6040 C   0  0  0  0  0  0  0  0  0  0  0  0
  188.8370  177.7320  143.1640 C   0  0  0  0  0  0  0  0  0  0  0  0
  189.3690  177.4410  144.4530 C   0  0  0  0  0  0  0  0  0  0  0  0
  189.1260  177.1280  146.8610 C   0  0  0  0  0  0  0  0  0  0  0  0
  187.3970  178.0630  142.9050 C   0  0  0  0  0  0  0  0  0  0  0  0
  184.7350  178.8250  142.3740 C   0  0  0  0  0  3  0  0  0  0  0  0
  188.5720  177.4130  145.6100 C   0  0  0  0  0  3  0  0  0  0  0  0
  189.2640  177.9950  140.6630 C   0  0  1  0  0  3  0  0  0  0  0  0
  184.1140  178.0760  144.5480 F   0  0  0  0  0  0  0  0  0  0  0  0
  191.5800  177.2190  143.4760 C   0  0  0  0  0  3  0  0  0  0  0  0
  188.3160  177.1030  147.9880 O   0  0  0  0  0  1  0  0  0  0  0  0
  188.0250  178.7660  140.6390 N   0  0  0  0  0  2  0  0  0  0  0  0
  189.7410  177.7630  142.0700 C   0  0  0  0  0  0  0  0  0  0  0  0
  186.3890  177.8830  143.8670 C   0  0  0  0  0  3  0  0  0  0  0  0
  190.4910  176.8690  146.9790 C   0  0  0  0  0  3  0  0  0  0  0  0
  187.0380  178.6110  141.6560 C   0  0  0  0  0  0  0  0  0  0  0  0
  185.7200  179.0020  141.4010 C   0  0  0  0  0  3  0  0  0  0  0  0
  191.0620  177.5010  142.2570 N   0  0  0  0  0  0  0  0  0  0  0  0
  190.7540  177.1820  144.5930 C   0  0  0  0  0  0  0  0  0  0  0  0
  191.3050  176.8980  145.8460 C   0  0  0  0  0  3  0  0  0  0  0  0
  189.0560  176.6540  139.9700 C   0  0  0  0  0  2  0  0  0  0  0  0
  192.5630  176.0020  136.1160 C   0  0  2  0  0  3  0  0  0  0  0  0
  191.5020  175.6070  138.3430 C   0  0  0  0  0  3  0  0  0  0  0  0
  188.9860  177.3180  136.3720 C   0  0  0  0  0  3  0  0  0  0  0  0
  188.4440  177.3760  137.6570 C   0  0  0  0  0  3  0  0  0  0  0  0
  193.3850  175.1890  135.2400 N   0  0  0  0  0  1  0  0  0  0  0  0
  189.2780  176.7820  138.5370 N   0  0  0  0  0  0  0  0  0  0  0  0
  192.5270  175.3950  137.5080 C   0  0  0  0  0  3  0  0  0  0  0  0
  190.2030  176.6820  136.5280 C   0  0  0  0  0  0  0  0  0  0  0  0
  190.3460  176.3620  137.8450 C   0  0  0  0  0  0  0  0  0  0  0  0
  191.1700  176.2160  135.4850 C   0  0  0  0  0  2  0  0  0  0  0  0
  1 14  1  0  0  0  0
  1  9  1  0  0  0  0
  2  3  1  0  0  0  0
  3 19  2  0  0  0  0
  3  7  1  0  0  0  0
  4 15  1  0  0  0  0
  4 11  1  0  0  0  0
  5  2  1  0  0  0  0
  5 14  2  0  0  0  0
  6  1  2  0  0  0  0
  7  4  2  0  0  0  0
  8 21  1  1  0  0  0
  8 13  1  0  0  0  0
 10 19  1  0  0  0  0
 12  8  1  0  0  0  0
 12 16  1  0  0  0  0
 13 18  1  0  0  0  0
 13  2  2  0  0  0  0
 16  5  1  0  0  0  0
 17 16  2  0  0  0  0
 17  6  1  0  0  0  0
 18 10  2  0  0  0  0
 19 20  1  0  0  0  0
 20 15  2  0  0  0  0
 22 26  1  6  0  0  0
 22 28  1  0  0  0  0
 24 29  1  0  0  0  0
 24 25  2  0  0  0  0
 25 27  1  0  0  0  0
 27 21  1  0  0  0  0
 28 23  2  0  0  0  0
 29 30  2  0  0  0  0
 30 23  1  0  0  0  0
 30 27  1  0  0  0  0
 31 22  1  0  0  0  0
 31 29  1  0  0  0  0
M  END
>  <MODEL>
5

>  <REMARK>
 VINA RESULT:     -10.3      1.350      2.355
  Name = 
  2 active torsions:
  status: ('A' for Active; 'I' for Inactive)
    1  A    between atoms: N_9  and  C_23
    2  A    between atoms: C_15  and  C_23
                            x       y       z     vdW  Elec       q    Type
                         _______ _______ _______ _____ _____    ______ ____

>  <TORSDO>
F 2

$$$$
=
 OpenBabel11052413063D

 31 36  0  0  1  0  0  0  0  0999 V2000
  191.4790  176.1050  137.1360 C   0  0  0  0  0  0  0  0  0  0  0  0
  188.9990  177.5680  139.6620 C   0  0  0  0  0  0  0  0  0  0  0  0
  187.7770  177.7860  138.9650 C   0  0  0  0  0  0  0  0  0  0  0  0
  186.4180  177.7440  136.9390 C   0  0  0  0  0  0  0  0  0  0  0  0
  190.2550  177.0570  139.0180 C   0  0  0  0  0  0  0  0  0  0  0  0
  192.6780  176.2330  137.8380 C   0  0  0  0  0  3  0  0  0  0  0  0
  187.6290  177.5140  137.5950 C   0  0  0  0  0  3  0  0  0  0  0  0
  190.2650  177.6500  141.8750 C   0  0  1  0  0  3  0  0  0  0  0  0
  191.4800  175.5930  135.8820 F   0  0  0  0  0  0  0  0  0  0  0  0
  186.7710  178.6120  141.0140 C   0  0  0  0  0  3  0  0  0  0  0  0
  186.2980  177.4630  135.5850 O   0  0  0  0  0  1  0  0  0  0  0  0
  191.4770  177.6490  141.0620 N   0  0  0  0  0  2  0  0  0  0  0  0
  189.0420  177.9070  141.0400 C   0  0  0  0  0  0  0  0  0  0  0  0
  190.2790  176.5180  137.7210 C   0  0  0  0  0  3  0  0  0  0  0  0
  185.3280  178.2550  137.6430 C   0  0  0  0  0  3  0  0  0  0  0  0
  191.4700  177.1500  139.7250 C   0  0  0  0  0  0  0  0  0  0  0  0
  192.6730  176.7550  139.1320 C   0  0  0  0  0  3  0  0  0  0  0  0
  187.9410  178.4030  141.6640 N   0  0  0  0  0  0  0  0  0  0  0  0
  186.6610  178.3110  139.6620 C   0  0  0  0  0  0  0  0  0  0  0  0
  185.4500  178.5400  139.0030 C   0  0  0  0  0  3  0  0  0  0  0  0
  190.1190  176.3140  142.5930 C   0  0  0  0  0  2  0  0  0  0  0  0
  188.5740  178.0000  147.3210 C   0  0  2  0  0  3  0  0  0  0  0  0
  188.3030  177.1600  144.9830 C   0  0  0  0  0  3  0  0  0  0  0  0
  191.7430  176.4350  145.8700 C   0  0  0  0  0  3  0  0  0  0  0  0
  191.7370  176.2010  144.4940 C   0  0  0  0  0  3  0  0  0  0  0  0
  187.7480  177.9300  148.5120 N   0  0  0  0  0  1  0  0  0  0  0  0
  190.5070  176.4410  143.9900 N   0  0  0  0  0  0  0  0  0  0  0  0
  187.7460  177.6610  146.0930 C   0  0  0  0  0  3  0  0  0  0  0  0
  190.4580  176.8540  146.1640 C   0  0  0  0  0  0  0  0  0  0  0  0
  189.7350  176.8380  145.0100 C   0  0  0  0  0  0  0  0  0  0  0  0
  189.8300  177.1190  147.4960 C   0  0  0  0  0  2  0  0  0  0  0  0
  1 14  2  0  0  0  0
  1  6  1  0  0  0  0
  2 13  1  0  0  0  0
  3  2  2  0  0  0  0
  3 19  1  0  0  0  0
  4  7  2  0  0  0  0
  4 15  1  0  0  0  0
  5  2  1  0  0  0  0
  5 16  2  0  0  0  0
  6 17  2  0  0  0  0
  7  3  1  0  0  0  0
  8 21  1  6  0  0  0
  9  1  1  0  0  0  0
 10 18  1  0  0  0  0
 11  4  1  0  0  0  0
 12  8  1  0  0  0  0
 13 18  2  0  0  0  0
 13  8  1  0  0  0  0
 14  5  1  0  0  0  0
 15 20  2  0  0  0  0
 16 12  1  0  0  0  0
 17 16  1  0  0  0  0
 19 10  2  0  0  0  0
 20 19  1  0  0  0  0
 21 27  1  0  0  0  0
 22 31  1  0  0  0  0
 22 26  1  1  0  0  0
 23 30  1  0  0  0  0
 23 28  2  0  0  0  0
 24 29  1  0  0  0  0
 25 24  2  0  0  0  0
 27 25  1  0  0  0  0
 27 30  1  0  0  0  0
 28 22  1  0  0  0  0
 29 31  1  0  0  0  0
 30 29  2  0  0  0  0
M  END
>  <MODEL>
6

>  <REMARK>
 VINA RESULT:     -10.0      3.719      8.283
  Name = 
  2 active torsions:
  status: ('A' for Active; 'I' for Inactive)
    1  A    between atoms: N_9  and  C_23
    2  A    between atoms: C_15  and  C_23
                            x       y       z     vdW  Elec       q    Type
                         _______ _______ _______ _____ _____    ______ ____

>  <TORSDO>
F 2

$$$$
=
 OpenBabel11052413063D

 31 36  0  0  1  0  0  0  0  0999 V2000
  183.6010  177.4760  137.8870 C   0  0  0  0  0  0  0  0  0  0  0  0
  183.8280  178.5660  141.5520 C   0  0  0  0  0  0  0  0  0  0  0  0
  182.4980  178.5980  142.0590 C   0  0  0  0  0  0  0  0  0  0  0  0
  180.0850  178.3480  141.7890 C   0  0  0  0  0  0  0  0  0  0  0  0
  184.1780  178.2440  140.1280 C   0  0  0  0  0  0  0  0  0  0  0  0
  184.8870  177.7820  137.4400 C   0  0  0  0  0  3  0  0  0  0  0  0
  181.3790  178.3020  141.2620 C   0  0  0  0  0  3  0  0  0  0  0  0
  186.3210  178.8440  142.0160 C   0  0  1  0  0  3  0  0  0  0  0  0
  182.6890  176.9640  137.0270 F   0  0  0  0  0  0  0  0  0  0  0  0
  183.3540  179.2750  144.2270 C   0  0  0  0  0  3  0  0  0  0  0  0
  178.9970  178.0470  140.9810 O   0  0  0  0  0  1  0  0  0  0  0  0
  186.4630  179.0180  140.5740 N   0  0  0  0  0  2  0  0  0  0  0  0
  184.8800  178.9130  142.4400 C   0  0  0  0  0  0  0  0  0  0  0  0
  183.2500  177.7090  139.2190 C   0  0  0  0  0  3  0  0  0  0  0  0
  179.8860  178.6950  143.1250 C   0  0  0  0  0  3  0  0  0  0  0  0
  185.4820  178.5180  139.6680 C   0  0  0  0  0  0  0  0  0  0  0  0
  185.8260  178.3030  138.3310 C   0  0  0  0  0  3  0  0  0  0  0  0
  184.6140  179.2440  143.7310 N   0  0  0  0  0  0  0  0  0  0  0  0
  182.2760  178.9560  143.4110 C   0  0  0  0  0  0  0  0  0  0  0  0
  180.9810  179.0010  143.9350 C   0  0  0  0  0  3  0  0  0  0  0  0
  186.9100  177.5030  142.4390 C   0  0  0  0  0  2  0  0  0  0  0  0
  188.0770  178.1870  147.5140 C   0  0  2  0  0  3  0  0  0  0  0  0
  186.7260  177.4320  145.5510 C   0  0  0  0  0  3  0  0  0  0  0  0
  190.0420  178.0870  144.2390 C   0  0  0  0  0  3  0  0  0  0  0  0
  189.2870  177.9430  143.0740 C   0  0  0  0  0  3  0  0  0  0  0  0
  188.1870  177.7330  148.8870 N   0  0  0  0  0  1  0  0  0  0  0  0
  187.9960  177.7010  143.3880 N   0  0  0  0  0  0  0  0  0  0  0  0
  186.8240  177.6120  146.8750 C   0  0  0  0  0  3  0  0  0  0  0  0
  189.1330  177.9460  145.2720 C   0  0  0  0  0  0  0  0  0  0  0  0
  187.9090  177.7040  144.7250 C   0  0  0  0  0  0  0  0  0  0  0  0
  189.3780  177.8690  146.7460 C   0  0  0  0  0  2  0  0  0  0  0  0
  1 14  1  0  0  0  0
  2  3  2  0  0  0  0
  2 13  1  0  0  0  0
  3 19  1  0  0  0  0
  4 15  1  0  0  0  0
  5  2  1  0  0  0  0
  6  1  2  0  0  0  0
  6 17  1  0  0  0  0
  7  4  2  0  0  0  0
  7  3  1  0  0  0  0
  8 21  1  6  0  0  0
  8 13  1  0  0  0  0
  9  1  1  0  0  0  0
 11  4  1  0  0  0  0
 12  8  1  0  0  0  0
 13 18  2  0  0  0  0
 14  5  2  0  0  0  0
 15 20  2  0  0  0  0
 16  5  1  0  0  0  0
 16 12  1  0  0  0  0
 17 16  2  0  0  0  0
 18 10  1  0  0  0  0
 19 20  1  0  0  0  0
 19 10  2  0  0  0  0
 21 27  1  0  0  0  0
 22 26  1  1  0  0  0
 23 28  2  0  0  0  0
 24 29  1  0  0  0  0
 25 27  1  0  0  0  0
 25 24  2  0  0  0  0
 27 30  1  0  0  0  0
 28 22  1  0  0  0  0
 29 31  1  0  0  0  0
 30 29  2  0  0  0  0
 30 23  1  0  0  0  0
 31 22  1  0  0  0  0
M  END
>  <MODEL>
7

>  <REMARK>
 VINA RESULT:     -10.0      3.671      7.875
  Name = 
  2 active torsions:
  status: ('A' for Active; 'I' for Inactive)
    1  A    between atoms: N_9  and  C_23
    2  A    between atoms: C_15  and  C_23
                            x       y       z     vdW  Elec       q    Type
                         _______ _______ _______ _____ _____    ______ ____

>  <TORSDO>
F 2

$$$$
=
 OpenBabel11052413063D

 31 36  0  0  1  0  0  0  0  0999 V2000
  191.2640  176.7160  144.9740 C   0  0  0  0  0  0  0  0  0  0  0  0
  187.6820  177.5780  143.9240 C   0  0  0  0  0  0  0  0  0  0  0  0
  186.9760  177.9300  145.1100 C   0  0  0  0  0  0  0  0  0  0  0  0
  186.8490  178.2440  147.5260 C   0  0  0  0  0  0  0  0  0  0  0  0
  189.1090  177.1130  143.9030 C   0  0  0  0  0  0  0  0  0  0  0  0
  191.7400  176.1060  143.8130 C   0  0  0  0  0  3  0  0  0  0  0  0
  187.5710  177.8970  146.3820 C   0  0  0  0  0  3  0  0  0  0  0  0
  187.6490  177.3300  141.3860 C   0  0  1  0  0  3  0  0  0  0  0  0
  192.0630  176.8170  146.0620 F   0  0  0  0  0  0  0  0  0  0  0  0
  184.9850  178.3440  143.7850 C   0  0  0  0  0  3  0  0  0  0  0  0
  187.4630  178.2070  148.7710 O   0  0  0  0  0  1  0  0  0  0  0  0
  188.7980  176.4480  141.5620 N   0  0  0  0  0  2  0  0  0  0  0  0
  186.9710  177.6190  142.6960 C   0  0  0  0  0  0  0  0  0  0  0  0
  189.9580  177.2110  145.0180 C   0  0  0  0  0  3  0  0  0  0  0  0
  185.5130  178.6290  147.4200 C   0  0  0  0  0  3  0  0  0  0  0  0
  189.6160  176.5230  142.7280 C   0  0  0  0  0  0  0  0  0  0  0  0
  190.9160  176.0090  142.6900 C   0  0  0  0  0  3  0  0  0  0  0  0
  185.6670  178.0030  142.6650 N   0  0  0  0  0  0  0  0  0  0  0  0
  185.6160  178.3160  145.0220 C   0  0  0  0  0  0  0  0  0  0  0  0
  184.8960  178.6630  146.1690 C   0  0  0  0  0  3  0  0  0  0  0  0
  188.0900  178.6390  140.7430 C   0  0  0  0  0  2  0  0  0  0  0  0
  185.9530  177.0880  136.2030 C   0  0  2  0  0  3  0  0  0  0  0  0
  185.9870  177.9830  138.5360 C   0  0  0  0  0  3  0  0  0  0  0  0
  189.3970  178.2870  137.3430 C   0  0  0  0  0  3  0  0  0  0  0  0
  189.5380  178.5370  138.7090 C   0  0  0  0  0  3  0  0  0  0  0  0
  185.0400  177.2400  135.0850 N   0  0  0  0  0  1  0  0  0  0  0  0
  188.3380  178.4490  139.3210 N   0  0  0  0  0  0  0  0  0  0  0  0
  185.2800  177.5370  137.4890 C   0  0  0  0  0  3  0  0  0  0  0  0
  188.0520  178.0180  137.1680 C   0  0  0  0  0  0  0  0  0  0  0  0
  187.4380  178.1340  138.3790 C   0  0  0  0  0  0  0  0  0  0  0  0
  187.2830  177.8130  135.9010 C   0  0  0  0  0  2  0  0  0  0  0  0
  1 14  1  0  0  0  0
  1  9  1  0  0  0  0
  2  3  1  0  0  0  0
  3  7  1  0  0  0  0
  4 11  1  0  0  0  0
  5  2  1  0  0  0  0
  5 14  2  0  0  0  0
  6  1  2  0  0  0  0
  7  4  2  0  0  0  0
  8 21  1  1  0  0  0
  8 12  1  0  0  0  0
  8 13  1  0  0  0  0
 10 19  1  0  0  0  0
 12 16  1  0  0  0  0
 13  2  2  0  0  0  0
 15  4  1  0  0  0  0
 16  5  1  0  0  0  0
 17 16  2  0  0  0  0
 17  6  1  0  0  0  0
 18 13  1  0  0  0  0
 18 10  2  0  0  0  0
 19  3  2  0  0  0  0
 19 20  1  0  0  0  0
 20 15  2  0  0  0  0
 22 26  1  6  0  0  0
 22 28  1  0  0  0  0
 24 25  2  0  0  0  0
 25 27  1  0  0  0  0
 27 21  1  0  0  0  0
 28 23  2  0  0  0  0
 29 24  1  0  0  0  0
 29 30  2  0  0  0  0
 30 23  1  0  0  0  0
 30 27  1  0  0  0  0
 31 22  1  0  0  0  0
 31 29  1  0  0  0  0
M  END
>  <MODEL>
8

>  <REMARK>
 VINA RESULT:     -10.0      2.171      3.901
  Name = 
  2 active torsions:
  status: ('A' for Active; 'I' for Inactive)
    1  A    between atoms: N_9  and  C_23
    2  A    between atoms: C_15  and  C_23
                            x       y       z     vdW  Elec       q    Type
                         _______ _______ _______ _____ _____    ______ ____

>  <TORSDO>
F 2

$$$$
=
 OpenBabel11052413063D

 31 36  0  0  1  0  0  0  0  0999 V2000
  187.0400  177.5850  146.4910 C   0  0  0  0  0  0  0  0  0  0  0  0
  187.1200  178.1260  142.7000 C   0  0  0  0  0  0  0  0  0  0  0  0
  188.3980  177.6920  142.2460 C   0  0  0  0  0  0  0  0  0  0  0  0
  190.6320  176.7930  142.6420 C   0  0  0  0  0  0  0  0  0  0  0  0
  186.7000  178.1400  144.1410 C   0  0  0  0  0  0  0  0  0  0  0  0
  185.9040  178.3160  146.8380 C   0  0  0  0  0  3  0  0  0  0  0  0
  189.3860  177.2060  143.1190 C   0  0  0  0  0  3  0  0  0  0  0  0
  184.8170  179.0450  142.1040 C   0  0  1  0  0  3  0  0  0  0  0  0
  187.7670  176.9660  147.4510 F   0  0  0  0  0  0  0  0  0  0  0  0
  187.7660  178.2530  139.9700 C   0  0  0  0  0  3  0  0  0  0  0  0
  191.5880  176.3140  143.5270 O   0  0  0  0  0  1  0  0  0  0  0  0
  184.7410  179.4700  143.4980 N   0  0  0  0  0  2  0  0  0  0  0  0
  186.2110  178.6270  141.7310 C   0  0  0  0  0  0  0  0  0  0  0  0
  187.4360  177.5020  145.1540 C   0  0  0  0  0  3  0  0  0  0  0  0
  190.9160  176.8610  141.2790 C   0  0  0  0  0  3  0  0  0  0  0  0
  185.5380  178.8480  144.5050 C   0  0  0  0  0  0  0  0  0  0  0  0
  185.1530  178.9480  145.8450 C   0  0  0  0  0  3  0  0  0  0  0  0
  186.5550  178.6660  140.4160 N   0  0  0  0  0  0  0  0  0  0  0  0
  188.7070  177.7610  140.8650 C   0  0  0  0  0  0  0  0  0  0  0  0
  189.9550  177.3460  140.3910 C   0  0  0  0  0  3  0  0  0  0  0  0
  183.8570  177.8870  141.8600 C   0  0  0  0  0  2  0  0  0  0  0  0
  181.4690  179.1190  137.3470 C   0  0  2  0  0  3  0  0  0  0  0  0
  183.1230  177.9740  138.8300 C   0  0  0  0  0  3  0  0  0  0  0  0
  180.5510  179.2330  141.0540 C   0  0  0  0  0  3  0  0  0  0  0  0
  181.5560  178.8590  141.9470 C   0  0  0  0  0  3  0  0  0  0  0  0
  180.8730  178.7860  136.0670 N   0  0  0  0  0  1  0  0  0  0  0  0
  182.6170  178.3690  141.2690 N   0  0  0  0  0  0  0  0  0  0  0  0
  182.6930  178.2530  137.5930 C   0  0  0  0  0  3  0  0  0  0  0  0
  181.0720  178.9680  139.8010 C   0  0  0  0  0  0  0  0  0  0  0  0
  182.3160  178.4380  139.9650 C   0  0  0  0  0  0  0  0  0  0  0  0
  180.4050  179.0370  138.4630 C   0  0  0  0  0  2  0  0  0  0  0  0
  1  6  1  0  0  0  0
  1  9  1  0  0  0  0
  2  5  1  0  0  0  0
  3  2  1  0  0  0  0
  3  7  1  0  0  0  0
  4  7  2  0  0  0  0
  4 11  1  0  0  0  0
  5 16  2  0  0  0  0
  5 14  1  0  0  0  0
  8 21  1  1  0  0  0
  8 12  1  0  0  0  0
 10 18  2  0  0  0  0
 10 19  1  0  0  0  0
 12 16  1  0  0  0  0
 13  8  1  0  0  0  0
 13  2  2  0  0  0  0
 14  1  2  0  0  0  0
 15  4  1  0  0  0  0
 16 17  1  0  0  0  0
 17  6  2  0  0  0  0
 18 13  1  0  0  0  0
 19  3  2  0  0  0  0
 20 19  1  0  0  0  0
 20 15  2  0  0  0  0
 22 26  1  6  0  0  0
 22 28  1  0  0  0  0
 22 31  1  0  0  0  0
 23 30  1  0  0  0  0
 24 25  2  0  0  0  0
 27 21  1  0  0  0  0
 27 25  1  0  0  0  0
 28 23  2  0  0  0  0
 29 30  2  0  0  0  0
 29 24  1  0  0  0  0
 30 27  1  0  0  0  0
 31 29  1  0  0  0  0
M  END
>  <MODEL>
9

>  <REMARK>
 VINA RESULT:      -9.9      3.338      5.748
  Name = 
  2 active torsions:
  status: ('A' for Active; 'I' for Inactive)
    1  A    between atoms: N_9  and  C_23
    2  A    between atoms: C_15  and  C_23
                            x       y       z     vdW  Elec       q    Type
                         _______ _______ _______ _____ _____    ______ ____

>  <TORSDO>
F 2

$$$$
