=
 OpenBabel11052413293D

 28 32  0  0  0  0  0  0  0  0999 V2000
  187.5500  178.3670  141.0560 N   0  0  0  0  0  0  0  0  0  0  0  0
  190.4420  177.1830  144.9790 C   0  0  0  0  0  3  0  0  0  0  0  0
  184.4440  178.5910  144.7110 C   0  0  0  0  0  1  0  0  0  0  0  0
  188.8840  177.2910  146.8430 C   0  0  0  0  0  0  0  0  0  0  0  0
  188.0990  177.7770  144.5870 C   0  0  0  0  0  0  0  0  0  0  0  0
  191.2010  176.7050  147.2290 C   0  0  0  0  0  0  0  0  0  0  0  0
  189.1440  177.4190  145.4580 C   0  0  0  0  0  0  0  0  0  0  0  0
  186.5650  177.8730  146.4700 C   0  0  0  0  0  3  0  0  0  0  0  0
  189.9130  176.9360  147.7190 C   0  0  0  0  0  3  0  0  0  0  0  0
  186.0590  178.4660  142.8770 C   0  0  0  0  0  0  0  0  0  0  0  0
  188.3150  177.9070  143.2530 N   0  0  0  0  0  0  0  0  0  0  0  0
  187.5990  177.5200  147.3390 C   0  0  0  0  0  3  0  0  0  0  0  0
  185.3110  178.9160  140.6800 C   0  0  0  0  0  3  0  0  0  0  0  0
  185.8000  178.3490  144.2190 N   0  0  0  0  0  0  0  0  0  0  0  0
  185.0650  178.8020  142.0070 N   0  0  0  0  0  0  0  0  0  0  0  0
  192.1970  176.3590  148.0810 F   0  0  0  0  0  0  0  0  0  0  0  0
  191.4660  176.8270  145.8620 C   0  0  0  0  0  3  0  0  0  0  0  0
  186.8010  178.0050  145.0900 C   0  0  0  0  0  0  0  0  0  0  0  0
  186.5650  178.6920  140.2180 N   0  0  0  0  0  0  0  0  0  0  0  0
  187.3110  178.2470  142.3990 C   0  0  0  0  0  0  0  0  0  0  0  0
  188.8780  178.1190  140.5040 C   0  0  0  0  0  2  0  0  0  0  0  0
  188.7870  177.8240  139.0440 C   0  0  0  0  0  0  0  0  0  0  0  0
  188.6700  177.2610  136.3070 C   0  0  0  0  0  0  0  0  0  0  0  0
  188.4840  176.5290  138.6080 C   0  0  0  0  0  3  0  0  0  0  0  0
  189.0400  178.8340  138.1100 C   0  0  0  0  0  3  0  0  0  0  0  0
  188.9790  178.5540  136.7420 C   0  0  0  0  0  3  0  0  0  0  0  0
  188.5950  176.9100  134.5940 Cl  0  0  0  0  0  0  0  0  0  0  0  0
  188.4240  176.2480  137.2390 C   0  0  0  0  0  3  0  0  0  0  0  0
  1 20  1  0  0  0  0
  2  7  2  0  0  0  0
  2 17  1  0  0  0  0
  4 12  1  0  0  0  0
  4  9  2  0  0  0  0
  5 18  2  0  0  0  0
  5  7  1  0  0  0  0
  6  9  1  0  0  0  0
  6 16  1  0  0  0  0
  7  4  1  0  0  0  0
  8 12  2  0  0  0  0
 10 14  1  0  0  0  0
 11  5  1  0  0  0  0
 13 15  1  0  0  0  0
 14  3  1  0  0  0  0
 14 18  1  0  0  0  0
 15 10  2  0  0  0  0
 17  6  2  0  0  0  0
 18  8  1  0  0  0  0
 19 13  2  0  0  0  0
 19  1  1  0  0  0  0
 20 10  1  0  0  0  0
 20 11  2  0  0  0  0
 21  1  1  0  0  0  0
 22 21  1  0  0  0  0
 23 26  2  0  0  0  0
 23 28  1  0  0  0  0
 24 22  1  0  0  0  0
 25 22  2  0  0  0  0
 26 25  1  0  0  0  0
 27 23  1  0  0  0  0
 28 24  2  0  0  0  0
M  END
>  <MODEL>
1

>  <REMARK>
 VINA RESULT:     -10.4      0.000      0.000
  Name = 
  2 active torsions:
  status: ('A' for Active; 'I' for Inactive)
    1  A    between atoms: N_1  and  C_2
    2  A    between atoms: C_2  and  C_3
                            x       y       z     vdW  Elec       q    Type
                         _______ _______ _______ _____ _____    ______ ____

>  <TORSDO>
F 2

$$$$
=
 OpenBabel11052413293D

 28 32  0  0  0  0  0  0  0  0999 V2000
  186.5210  178.5640  140.7770 N   0  0  0  0  0  0  0  0  0  0  0  0
  187.0380  178.1220  145.7460 C   0  0  0  0  0  3  0  0  0  0  0  0
  191.0370  176.9840  141.1930 C   0  0  0  0  0  1  0  0  0  0  0  0
  189.3220  177.3220  145.9770 C   0  0  0  0  0  0  0  0  0  0  0  0
  188.4130  177.7480  143.7560 C   0  0  0  0  0  0  0  0  0  0  0  0
  187.9610  177.6940  147.9450 C   0  0  0  0  0  0  0  0  0  0  0  0
  188.2480  177.7340  145.1530 C   0  0  0  0  0  0  0  0  0  0  0  0
  190.6940  176.9510  144.0190 C   0  0  0  0  0  3  0  0  0  0  0  0
  189.1720  177.3040  147.3660 C   0  0  0  0  0  3  0  0  0  0  0  0
  188.7310  177.7870  141.0250 C   0  0  0  0  0  0  0  0  0  0  0  0
  187.4030  178.1370  142.9370 N   0  0  0  0  0  0  0  0  0  0  0  0
  190.5350  176.9330  145.4050 C   0  0  0  0  0  3  0  0  0  0  0  0
  187.8400  178.2220  138.8790 C   0  0  0  0  0  3  0  0  0  0  0  0
  189.7760  177.3830  141.8170 N   0  0  0  0  0  0  0  0  0  0  0  0
  188.8640  177.8200  139.6690 N   0  0  0  0  0  0  0  0  0  0  0  0
  187.8180  177.6760  149.2920 F   0  0  0  0  0  0  0  0  0  0  0  0
  186.8960  178.1020  147.1370 C   0  0  0  0  0  3  0  0  0  0  0  0
  189.6410  177.3560  143.1810 C   0  0  0  0  0  0  0  0  0  0  0  0
  186.6700  178.5950  139.4520 N   0  0  0  0  0  0  0  0  0  0  0  0
  187.5520  178.1620  141.5840 C   0  0  0  0  0  0  0  0  0  0  0  0
  185.2460  178.9920  141.3440 C   0  0  0  0  0  2  0  0  0  0  0  0
  184.1260  178.6510  140.4190 C   0  0  0  0  0  0  0  0  0  0  0  0
  181.9910  178.0330  138.7210 C   0  0  0  0  0  0  0  0  0  0  0  0
  183.7520  179.5460  139.4110 C   0  0  0  0  0  3  0  0  0  0  0  0
  183.4260  177.4500  140.5830 C   0  0  0  0  0  3  0  0  0  0  0  0
  182.3600  177.1410  139.7330 C   0  0  0  0  0  3  0  0  0  0  0  0
  180.6570  177.6450  137.6570 Cl  0  0  0  0  0  0  0  0  0  0  0  0
  182.6860  179.2360  138.5600 C   0  0  0  0  0  3  0  0  0  0  0  0
  1 21  1  0  0  0  0
  1 20  1  0  0  0  0
  2 17  1  0  0  0  0
  3 14  1  0  0  0  0
  4  9  2  0  0  0  0
  5  7  1  0  0  0  0
  6 16  1  0  0  0  0
  7  2  2  0  0  0  0
  7  4  1  0  0  0  0
  8 12  2  0  0  0  0
  9  6  1  0  0  0  0
 10 20  1  0  0  0  0
 10 14  1  0  0  0  0
 11  5  1  0  0  0  0
 12  4  1  0  0  0  0
 13 19  2  0  0  0  0
 13 15  1  0  0  0  0
 14 18  1  0  0  0  0
 15 10  2  0  0  0  0
 17  6  2  0  0  0  0
 18  5  2  0  0  0  0
 18  8  1  0  0  0  0
 19  1  1  0  0  0  0
 20 11  2  0  0  0  0
 22 25  1  0  0  0  0
 22 21  1  0  0  0  0
 23 26  1  0  0  0  0
 24 22  2  0  0  0  0
 26 25  2  0  0  0  0
 27 23  1  0  0  0  0
 28 23  2  0  0  0  0
 28 24  1  0  0  0  0
M  END
>  <MODEL>
2

>  <REMARK>
 VINA RESULT:     -10.1      2.500      4.564
  Name = 
  2 active torsions:
  status: ('A' for Active; 'I' for Inactive)
    1  A    between atoms: N_1  and  C_2
    2  A    between atoms: C_2  and  C_3
                            x       y       z     vdW  Elec       q    Type
                         _______ _______ _______ _____ _____    ______ ____

>  <TORSDO>
F 2

$$$$
=
 OpenBabel11052413293D

 28 32  0  0  0  0  0  0  0  0999 V2000
  189.9180  176.9840  142.4860 N   0  0  0  0  0  0  0  0  0  0  0  0
  185.1360  178.4480  142.8510 C   0  0  0  0  0  3  0  0  0  0  0  0
  189.2600  177.1280  147.2400 C   0  0  0  0  0  1  0  0  0  0  0  0
  184.7830  178.5270  145.2560 C   0  0  0  0  0  0  0  0  0  0  0  0
  186.9580  177.8650  144.3780 C   0  0  0  0  0  0  0  0  0  0  0  0
  182.9820  179.1050  143.7440 C   0  0  0  0  0  0  0  0  0  0  0  0
  185.6330  178.2770  144.1520 C   0  0  0  0  0  0  0  0  0  0  0  0
  186.5760  177.9560  146.7770 C   0  0  0  0  0  3  0  0  0  0  0  0
  183.4640  178.9390  145.0460 C   0  0  0  0  0  3  0  0  0  0  0  0
  189.5540  177.0670  144.8120 C   0  0  0  0  0  0  0  0  0  0  0  0
  187.7990  177.6170  143.3420 N   0  0  0  0  0  0  0  0  0  0  0  0
  185.2600  178.3640  146.5580 C   0  0  0  0  0  3  0  0  0  0  0  0
  191.6630  176.4440  143.9430 C   0  0  0  0  0  3  0  0  0  0  0  0
  188.7350  177.3030  145.8870 N   0  0  0  0  0  0  0  0  0  0  0  0
  190.8460  176.6750  144.9990 N   0  0  0  0  0  0  0  0  0  0  0  0
  181.7030  179.5050  143.5430 F   0  0  0  0  0  0  0  0  0  0  0  0
  183.8150  178.8610  142.6490 C   0  0  0  0  0  3  0  0  0  0  0  0
  187.4380  177.7020  145.6950 C   0  0  0  0  0  0  0  0  0  0  0  0
  191.1820  176.6060  142.6870 N   0  0  0  0  0  0  0  0  0  0  0  0
  189.0860  177.2230  143.5460 C   0  0  0  0  0  0  0  0  0  0  0  0
  189.4570  177.1610  141.1130 C   0  0  0  0  0  2  0  0  0  0  0  0
  190.5650  176.8880  140.1530 C   0  0  0  0  0  0  0  0  0  0  0  0
  192.6270  176.4200  138.3220 C   0  0  0  0  0  0  0  0  0  0  0  0
  191.8230  177.4670  140.3520 C   0  0  0  0  0  3  0  0  0  0  0  0
  190.3370  176.0820  139.0320 C   0  0  0  0  0  3  0  0  0  0  0  0
  191.3680  175.8460  138.1180 C   0  0  0  0  0  3  0  0  0  0  0  0
  193.9180  176.1240  137.1770 Cl  0  0  0  0  0  0  0  0  0  0  0  0
  192.8550  177.2310  139.4370 C   0  0  0  0  0  3  0  0  0  0  0  0
  1 19  1  0  0  0  0
  1 20  1  0  0  0  0
  2  7  1  0  0  0  0
  4 12  1  0  0  0  0
  5 18  2  0  0  0  0
  6  9  2  0  0  0  0
  7  5  1  0  0  0  0
  7  4  2  0  0  0  0
  9  4  1  0  0  0  0
 10 15  2  0  0  0  0
 10 14  1  0  0  0  0
 11 20  2  0  0  0  0
 11  5  1  0  0  0  0
 12  8  2  0  0  0  0
 13 15  1  0  0  0  0
 14  3  1  0  0  0  0
 16  6  1  0  0  0  0
 17  2  2  0  0  0  0
 17  6  1  0  0  0  0
 18 14  1  0  0  0  0
 18  8  1  0  0  0  0
 19 13  2  0  0  0  0
 20 10  1  0  0  0  0
 21  1  1  0  0  0  0
 22 24  1  0  0  0  0
 22 21  1  0  0  0  0
 23 28  1  0  0  0  0
 25 22  2  0  0  0  0
 26 23  2  0  0  0  0
 26 25  1  0  0  0  0
 27 23  1  0  0  0  0
 28 24  2  0  0  0  0
M  END
>  <MODEL>
3

>  <REMARK>
 VINA RESULT:     -10.1      3.240      5.253
  Name = 
  2 active torsions:
  status: ('A' for Active; 'I' for Inactive)
    1  A    between atoms: N_1  and  C_2
    2  A    between atoms: C_2  and  C_3
                            x       y       z     vdW  Elec       q    Type
                         _______ _______ _______ _____ _____    ______ ____

>  <TORSDO>
F 2

$$$$
=
 OpenBabel11052413293D

 28 32  0  0  0  0  0  0  0  0999 V2000
  186.8740  178.4490  140.5330 N   0  0  0  0  0  0  0  0  0  0  0  0
  188.4320  177.8780  145.2650 C   0  0  0  0  0  3  0  0  0  0  0  0
  182.8020  179.0040  143.0170 C   0  0  0  0  0  1  0  0  0  0  0  0
  186.3810  178.1560  146.5410 C   0  0  0  0  0  0  0  0  0  0  0  0
  186.3210  178.3250  144.1100 C   0  0  0  0  0  0  0  0  0  0  0  0
  188.4700  177.7130  147.6820 C   0  0  0  0  0  0  0  0  0  0  0  0
  187.0510  178.1200  145.2940 C   0  0  0  0  0  0  0  0  0  0  0  0
  184.2860  178.5950  145.4120 C   0  0  0  0  0  3  0  0  0  0  0  0
  187.0940  177.9530  147.7250 C   0  0  0  0  0  3  0  0  0  0  0  0
  184.8990  178.7150  141.7880 C   0  0  0  0  0  0  0  0  0  0  0  0
  186.9320  178.2970  142.8990 N   0  0  0  0  0  0  0  0  0  0  0  0
  185.0060  178.3940  146.5900 C   0  0  0  0  0  3  0  0  0  0  0  0
  184.8550  178.8580  139.4290 C   0  0  0  0  0  3  0  0  0  0  0  0
  184.2430  178.7560  142.9930 N   0  0  0  0  0  0  0  0  0  0  0  0
  184.2170  178.9010  140.6230 N   0  0  0  0  0  0  0  0  0  0  0  0
  189.1590  177.5160  148.8320 F   0  0  0  0  0  0  0  0  0  0  0  0
  189.1380  177.6750  146.4550 C   0  0  0  0  0  3  0  0  0  0  0  0
  184.9310  178.5630  144.1630 C   0  0  0  0  0  0  0  0  0  0  0  0
  186.1900  178.6280  139.4010 N   0  0  0  0  0  0  0  0  0  0  0  0
  186.2370  178.4870  141.7440 C   0  0  0  0  0  0  0  0  0  0  0  0
  188.3070  178.1860  140.4450 C   0  0  0  0  0  2  0  0  0  0  0  0
  188.6940  177.8870  139.0350 C   0  0  0  0  0  0  0  0  0  0  0  0
  189.3680  177.3280  136.3790 C   0  0  0  0  0  0  0  0  0  0  0  0
  189.0540  178.9260  138.1710 C   0  0  0  0  0  3  0  0  0  0  0  0
  188.6630  176.5690  138.5670 C   0  0  0  0  0  3  0  0  0  0  0  0
  189.0010  176.2890  137.2400 C   0  0  0  0  0  3  0  0  0  0  0  0
  189.7920  176.9780  134.7170 Cl  0  0  0  0  0  0  0  0  0  0  0  0
  189.3940  178.6470  136.8430 C   0  0  0  0  0  3  0  0  0  0  0  0
  1 20  1  0  0  0  0
  2  7  2  0  0  0  0
  2 17  1  0  0  0  0
  4 12  1  0  0  0  0
  4  9  2  0  0  0  0
  5 18  2  0  0  0  0
  5  7  1  0  0  0  0
  6  9  1  0  0  0  0
  6 16  1  0  0  0  0
  7  4  1  0  0  0  0
  8 12  2  0  0  0  0
 10 14  1  0  0  0  0
 11  5  1  0  0  0  0
 13 15  1  0  0  0  0
 14  3  1  0  0  0  0
 14 18  1  0  0  0  0
 15 10  2  0  0  0  0
 17  6  2  0  0  0  0
 18  8  1  0  0  0  0
 19 13  2  0  0  0  0
 19  1  1  0  0  0  0
 20 10  1  0  0  0  0
 20 11  2  0  0  0  0
 21  1  1  0  0  0  0
 22 21  1  0  0  0  0
 23 28  2  0  0  0  0
 23 26  1  0  0  0  0
 24 22  2  0  0  0  0
 25 22  1  0  0  0  0
 26 25  2  0  0  0  0
 27 23  1  0  0  0  0
 28 24  1  0  0  0  0
M  END
>  <MODEL>
4

>  <REMARK>
 VINA RESULT:     -10.0      1.315      2.101
  Name = 
  2 active torsions:
  status: ('A' for Active; 'I' for Inactive)
    1  A    between atoms: N_1  and  C_2
    2  A    between atoms: C_2  and  C_3
                            x       y       z     vdW  Elec       q    Type
                         _______ _______ _______ _____ _____    ______ ____

>  <TORSDO>
F 2

$$$$
=
 OpenBabel11052413293D

 28 32  0  0  0  0  0  0  0  0999 V2000
  189.7020  177.8780  139.5100 N   0  0  0  0  0  0  0  0  0  0  0  0
  189.6330  177.2520  144.4850 C   0  0  0  0  0  3  0  0  0  0  0  0
  185.1320  178.8750  140.5950 C   0  0  0  0  0  1  0  0  0  0  0  0
  187.3230  177.7530  145.0550 C   0  0  0  0  0  0  0  0  0  0  0  0
  188.0450  177.8790  142.7300 C   0  0  0  0  0  0  0  0  0  0  0  0
  188.8940  177.1320  146.7890 C   0  0  0  0  0  0  0  0  0  0  0  0
  188.3430  177.6270  144.0820 C   0  0  0  0  0  0  0  0  0  0  0  0
  185.7420  178.3710  143.3300 C   0  0  0  0  0  3  0  0  0  0  0  0
  187.6040  177.5050  146.4000 C   0  0  0  0  0  3  0  0  0  0  0  0
  187.4690  178.3600  140.0840 C   0  0  0  0  0  0  0  0  0  0  0  0
  189.0000  177.7680  141.7720 N   0  0  0  0  0  0  0  0  0  0  0  0
  186.0320  178.1240  144.6720 C   0  0  0  0  0  3  0  0  0  0  0  0
  188.1830  178.4610  137.8330 C   0  0  0  0  0  3  0  0  0  0  0  0
  186.4760  178.4880  141.0220 N   0  0  0  0  0  0  0  0  0  0  0  0
  187.2090  178.5880  138.7660 N   0  0  0  0  0  0  0  0  0  0  0  0
  189.1640  176.8910  148.0950 F   0  0  0  0  0  0  0  0  0  0  0  0
  189.9060  177.0050  145.8340 C   0  0  0  0  0  3  0  0  0  0  0  0
  186.7390  178.2530  142.3460 C   0  0  0  0  0  0  0  0  0  0  0  0
  189.4300  178.1010  138.2230 N   0  0  0  0  0  0  0  0  0  0  0  0
  188.7250  178.0030  140.4600 C   0  0  0  0  0  0  0  0  0  0  0  0
  191.0570  177.4770  139.8730 C   0  0  0  0  0  2  0  0  0  0  0  0
  191.6240  176.5650  138.8370 C   0  0  0  0  0  0  0  0  0  0  0  0
  192.7090  174.8240  136.9350 C   0  0  0  0  0  0  0  0  0  0  0  0
  190.8600  175.5010  138.3450 C   0  0  0  0  0  3  0  0  0  0  0  0
  192.9350  176.7520  138.3840 C   0  0  0  0  0  3  0  0  0  0  0  0
  193.4760  175.8830  137.4320 C   0  0  0  0  0  3  0  0  0  0  0  0
  193.3870  173.7360  135.7430 Cl  0  0  0  0  0  0  0  0  0  0  0  0
  191.4010  174.6320  137.3920 C   0  0  0  0  0  3  0  0  0  0  0  0
  1 21  1  0  0  0  0
  1 20  1  0  0  0  0
  2 17  1  0  0  0  0
  3 14  1  0  0  0  0
  4  9  2  0  0  0  0
  5  7  1  0  0  0  0
  6 16  1  0  0  0  0
  7  2  2  0  0  0  0
  7  4  1  0  0  0  0
  8 12  2  0  0  0  0
  9  6  1  0  0  0  0
 10 20  1  0  0  0  0
 10 14  1  0  0  0  0
 11  5  1  0  0  0  0
 12  4  1  0  0  0  0
 13 19  2  0  0  0  0
 13 15  1  0  0  0  0
 14 18  1  0  0  0  0
 15 10  2  0  0  0  0
 17  6  2  0  0  0  0
 18  5  2  0  0  0  0
 18  8  1  0  0  0  0
 19  1  1  0  0  0  0
 20 11  2  0  0  0  0
 22 21  1  0  0  0  0
 23 28  2  0  0  0  0
 23 26  1  0  0  0  0
 24 22  2  0  0  0  0
 25 22  1  0  0  0  0
 26 25  2  0  0  0  0
 27 23  1  0  0  0  0
 28 24  1  0  0  0  0
M  END
>  <MODEL>
5

>  <REMARK>
 VINA RESULT:      -9.9      2.507      3.285
  Name = 
  2 active torsions:
  status: ('A' for Active; 'I' for Inactive)
    1  A    between atoms: N_1  and  C_2
    2  A    between atoms: C_2  and  C_3
                            x       y       z     vdW  Elec       q    Type
                         _______ _______ _______ _____ _____    ______ ____

>  <TORSDO>
F 2

$$$$
=
 OpenBabel11052413293D

 28 32  0  0  0  0  0  0  0  0999 V2000
  189.7730  177.7940  140.6220 N   0  0  0  0  0  0  0  0  0  0  0  0
  185.4750  178.5290  143.0990 C   0  0  0  0  0  3  0  0  0  0  0  0
  191.0660  176.9590  145.1700 C   0  0  0  0  0  1  0  0  0  0  0  0
  186.1100  178.1110  145.4080 C   0  0  0  0  0  0  0  0  0  0  0  0
  187.7800  177.9120  143.6440 C   0  0  0  0  0  0  0  0  0  0  0  0
  183.8300  178.7220  144.8670 C   0  0  0  0  0  0  0  0  0  0  0  0
  186.4570  178.1840  144.0380 C   0  0  0  0  0  0  0  0  0  0  0  0
  188.3860  177.5030  145.9620 C   0  0  0  0  0  3  0  0  0  0  0  0
  184.8000  178.3790  145.8140 C   0  0  0  0  0  3  0  0  0  0  0  0
  190.3660  177.3920  142.8660 C   0  0  0  0  0  0  0  0  0  0  0  0
  188.1460  177.9740  142.3380 N   0  0  0  0  0  0  0  0  0  0  0  0
  187.0750  177.7700  146.3580 C   0  0  0  0  0  3  0  0  0  0  0  0
  191.9770  177.2210  141.1440 C   0  0  0  0  0  3  0  0  0  0  0  0
  190.0350  177.3140  144.1950 N   0  0  0  0  0  0  0  0  0  0  0  0
  191.6410  177.1430  142.4540 N   0  0  0  0  0  0  0  0  0  0  0  0
  182.5610  178.9820  145.2640 F   0  0  0  0  0  0  0  0  0  0  0  0
  184.1660  178.7970  143.5130 C   0  0  0  0  0  3  0  0  0  0  0  0
  188.7540  177.5700  144.6070 C   0  0  0  0  0  0  0  0  0  0  0  0
  191.0270  177.5520  140.2370 N   0  0  0  0  0  0  0  0  0  0  0  0
  189.4240  177.7200  141.9430 C   0  0  0  0  0  0  0  0  0  0  0  0
  188.7930  178.1630  139.6050 C   0  0  0  0  0  2  0  0  0  0  0  0
  189.0090  177.3670  138.3620 C   0  0  0  0  0  0  0  0  0  0  0  0
  189.4680  175.8680  136.0460 C   0  0  0  0  0  0  0  0  0  0  0  0
  188.7400  175.9940  138.3520 C   0  0  0  0  0  3  0  0  0  0  0  0
  189.5170  177.9880  137.2150 C   0  0  0  0  0  3  0  0  0  0  0  0
  189.7450  177.2390  136.0570 C   0  0  0  0  0  3  0  0  0  0  0  0
  189.7530  174.9300  134.5950 Cl  0  0  0  0  0  0  0  0  0  0  0  0
  188.9670  175.2450  137.1930 C   0  0  0  0  0  3  0  0  0  0  0  0
  1 20  1  0  0  0  0
  2 17  2  0  0  0  0
  2  7  1  0  0  0  0
  4  9  1  0  0  0  0
  4 12  1  0  0  0  0
  5  7  1  0  0  0  0
  5 18  2  0  0  0  0
  6 16  1  0  0  0  0
  6  9  2  0  0  0  0
  7  4  2  0  0  0  0
  8 12  2  0  0  0  0
 10 14  1  0  0  0  0
 11  5  1  0  0  0  0
 13 15  1  0  0  0  0
 14 18  1  0  0  0  0
 14  3  1  0  0  0  0
 15 10  2  0  0  0  0
 17  6  1  0  0  0  0
 18  8  1  0  0  0  0
 19  1  1  0  0  0  0
 19 13  2  0  0  0  0
 20 11  2  0  0  0  0
 20 10  1  0  0  0  0
 21  1  1  0  0  0  0
 22 21  1  0  0  0  0
 23 26  2  0  0  0  0
 23 28  1  0  0  0  0
 24 22  1  0  0  0  0
 25 22  2  0  0  0  0
 26 25  1  0  0  0  0
 27 23  1  0  0  0  0
 28 24  2  0  0  0  0
M  END
>  <MODEL>
6

>  <REMARK>
 VINA RESULT:      -9.6      2.558      4.448
  Name = 
  2 active torsions:
  status: ('A' for Active; 'I' for Inactive)
    1  A    between atoms: N_1  and  C_2
    2  A    between atoms: C_2  and  C_3
                            x       y       z     vdW  Elec       q    Type
                         _______ _______ _______ _____ _____    ______ ____

>  <TORSDO>
F 2

$$$$
=
 OpenBabel11052413293D

 28 32  0  0  0  0  0  0  0  0999 V2000
  185.9430  178.6700  139.1620 N   0  0  0  0  0  0  0  0  0  0  0  0
  184.9280  178.5300  144.0720 C   0  0  0  0  0  3  0  0  0  0  0  0
  190.1280  177.2300  141.0240 C   0  0  0  0  0  1  0  0  0  0  0  0
  187.0390  177.8020  145.0330 C   0  0  0  0  0  0  0  0  0  0  0  0
  186.8460  178.0750  142.6190 C   0  0  0  0  0  0  0  0  0  0  0  0
  185.1420  178.2530  146.4690 C   0  0  0  0  0  0  0  0  0  0  0  0
  186.2640  178.1380  143.8980 C   0  0  0  0  0  0  0  0  0  0  0  0
  188.9440  177.3520  143.6100 C   0  0  0  0  0  3  0  0  0  0  0  0
  186.4750  177.8610  146.3100 C   0  0  0  0  0  3  0  0  0  0  0  0
  187.9780  177.9650  140.1150 C   0  0  0  0  0  0  0  0  0  0  0  0
  186.1300  178.3910  141.5100 N   0  0  0  0  0  0  0  0  0  0  0  0
  188.3710  177.4110  144.8810 C   0  0  0  0  0  3  0  0  0  0  0  0
  187.7770  178.2520  137.7770 C   0  0  0  0  0  3  0  0  0  0  0  0
  188.7350  177.6330  141.2110 N   0  0  0  0  0  0  0  0  0  0  0  0
  188.5160  177.9220  138.8640 N   0  0  0  0  0  0  0  0  0  0  0  0
  184.5970  178.3100  147.7080 F   0  0  0  0  0  0  0  0  0  0  0  0
  184.3710  178.5870  145.3530 C   0  0  0  0  0  3  0  0  0  0  0  0
  188.1920  177.6820  142.4680 C   0  0  0  0  0  0  0  0  0  0  0  0
  186.4860  178.6270  137.9450 N   0  0  0  0  0  0  0  0  0  0  0  0
  186.6820  178.3410  140.2670 C   0  0  0  0  0  0  0  0  0  0  0  0
  184.5530  179.0980  139.2880 C   0  0  0  0  0  2  0  0  0  0  0  0
  183.6310  177.9880  138.9070 C   0  0  0  0  0  0  0  0  0  0  0  0
  181.9460  175.8760  138.1830 C   0  0  0  0  0  0  0  0  0  0  0  0
  183.1280  177.1270  139.8880 C   0  0  0  0  0  3  0  0  0  0  0  0
  183.2980  177.7880  137.5630 C   0  0  0  0  0  3  0  0  0  0  0  0
  182.4540  176.7330  137.2020 C   0  0  0  0  0  3  0  0  0  0  0  0
  180.8900  174.5560  137.7310 Cl  0  0  0  0  0  0  0  0  0  0  0  0
  182.2840  176.0720  139.5260 C   0  0  0  0  0  3  0  0  0  0  0  0
  1 21  1  0  0  0  0
  1 20  1  0  0  0  0
  2 17  1  0  0  0  0
  3 14  1  0  0  0  0
  4  9  2  0  0  0  0
  5  7  1  0  0  0  0
  6 16  1  0  0  0  0
  7  2  2  0  0  0  0
  7  4  1  0  0  0  0
  8 12  2  0  0  0  0
  9  6  1  0  0  0  0
 10 20  1  0  0  0  0
 10 14  1  0  0  0  0
 11  5  1  0  0  0  0
 12  4  1  0  0  0  0
 13 19  2  0  0  0  0
 13 15  1  0  0  0  0
 14 18  1  0  0  0  0
 15 10  2  0  0  0  0
 17  6  2  0  0  0  0
 18  5  2  0  0  0  0
 18  8  1  0  0  0  0
 19  1  1  0  0  0  0
 20 11  2  0  0  0  0
 22 21  1  0  0  0  0
 22 24  1  0  0  0  0
 23 28  1  0  0  0  0
 25 22  2  0  0  0  0
 26 25  1  0  0  0  0
 26 23  2  0  0  0  0
 27 23  1  0  0  0  0
 28 24  2  0  0  0  0
M  END
>  <MODEL>
7

>  <REMARK>
 VINA RESULT:      -9.5      3.117      5.081
  Name = 
  2 active torsions:
  status: ('A' for Active; 'I' for Inactive)
    1  A    between atoms: N_1  and  C_2
    2  A    between atoms: C_2  and  C_3
                            x       y       z     vdW  Elec       q    Type
                         _______ _______ _______ _____ _____    ______ ____

>  <TORSDO>
F 2

$$$$
=
 OpenBabel11052413293D

 28 32  0  0  0  0  0  0  0  0999 V2000
  189.1870  177.8810  139.2880 N   0  0  0  0  0  0  0  0  0  0  0  0
  185.4640  178.6390  142.5620 C   0  0  0  0  0  3  0  0  0  0  0  0
  191.1780  176.4900  143.4300 C   0  0  0  0  0  1  0  0  0  0  0  0
  186.4540  177.9400  144.6690 C   0  0  0  0  0  0  0  0  0  0  0  0
  187.7690  177.8160  142.6200 C   0  0  0  0  0  0  0  0  0  0  0  0
  184.1750  178.7550  144.6100 C   0  0  0  0  0  0  0  0  0  0  0  0
  186.5630  178.1330  143.2710 C   0  0  0  0  0  0  0  0  0  0  0  0
  188.7320  177.1270  144.7420 C   0  0  0  0  0  3  0  0  0  0  0  0
  185.2630  178.2510  145.3290 C   0  0  0  0  0  3  0  0  0  0  0  0
  190.1260  177.2080  141.3400 C   0  0  0  0  0  0  0  0  0  0  0  0
  187.9060  177.9890  141.2810 N   0  0  0  0  0  0  0  0  0  0  0  0
  187.5380  177.4380  145.3930 C   0  0  0  0  0  3  0  0  0  0  0  0
  191.3920  177.1110  139.3460 C   0  0  0  0  0  3  0  0  0  0  0  0
  190.0270  177.0140  142.6950 N   0  0  0  0  0  0  0  0  0  0  0  0
  191.2840  176.9190  140.6830 N   0  0  0  0  0  0  0  0  0  0  0  0
  183.0210  179.0570  145.2530 F   0  0  0  0  0  0  0  0  0  0  0  0
  184.2750  178.9490  143.2290 C   0  0  0  0  0  3  0  0  0  0  0  0
  188.8630  177.3110  143.3540 C   0  0  0  0  0  0  0  0  0  0  0  0
  190.3290  177.5980  138.6610 N   0  0  0  0  0  0  0  0  0  0  0  0
  189.0690  177.6930  140.6390 C   0  0  0  0  0  0  0  0  0  0  0  0
  188.0790  178.4190  138.5050 C   0  0  0  0  0  2  0  0  0  0  0  0
  187.3040  177.3120  137.8730 C   0  0  0  0  0  0  0  0  0  0  0  0
  185.8400  175.2170  136.7380 C   0  0  0  0  0  0  0  0  0  0  0  0
  185.9430  177.4800  137.5940 C   0  0  0  0  0  3  0  0  0  0  0  0
  187.9300  176.0930  137.5920 C   0  0  0  0  0  3  0  0  0  0  0  0
  187.1980  175.0460  137.0230 C   0  0  0  0  0  3  0  0  0  0  0  0
  184.9240  173.9060  136.0250 Cl  0  0  0  0  0  0  0  0  0  0  0  0
  185.2110  176.4330  137.0240 C   0  0  0  0  0  3  0  0  0  0  0  0
  1 20  1  0  0  0  0
  2 17  2  0  0  0  0
  2  7  1  0  0  0  0
  4  9  1  0  0  0  0
  4 12  1  0  0  0  0
  5  7  1  0  0  0  0
  5 18  2  0  0  0  0
  6 16  1  0  0  0  0
  6  9  2  0  0  0  0
  7  4  2  0  0  0  0
  8 12  2  0  0  0  0
 10 14  1  0  0  0  0
 11  5  1  0  0  0  0
 13 15  1  0  0  0  0
 14 18  1  0  0  0  0
 14  3  1  0  0  0  0
 15 10  2  0  0  0  0
 17  6  1  0  0  0  0
 18  8  1  0  0  0  0
 19  1  1  0  0  0  0
 19 13  2  0  0  0  0
 20 11  2  0  0  0  0
 20 10  1  0  0  0  0
 21  1  1  0  0  0  0
 22 21  1  0  0  0  0
 23 26  2  0  0  0  0
 23 28  1  0  0  0  0
 24 22  1  0  0  0  0
 25 22  2  0  0  0  0
 26 25  1  0  0  0  0
 27 23  1  0  0  0  0
 28 24  2  0  0  0  0
M  END
>  <MODEL>
8

>  <REMARK>
 VINA RESULT:      -9.4      2.812      4.761
  Name = 
  2 active torsions:
  status: ('A' for Active; 'I' for Inactive)
    1  A    between atoms: N_1  and  C_2
    2  A    between atoms: C_2  and  C_3
                            x       y       z     vdW  Elec       q    Type
                         _______ _______ _______ _____ _____    ______ ____

>  <TORSDO>
F 2

$$$$
=
 OpenBabel11052413293D

 28 32  0  0  0  0  0  0  0  0999 V2000
  183.8870  178.6300  141.9930 N   0  0  0  0  0  0  0  0  0  0  0  0
  188.7670  177.4780  142.0970 C   0  0  0  0  0  3  0  0  0  0  0  0
  184.7740  178.3870  146.7060 C   0  0  0  0  0  1  0  0  0  0  0  0
  189.2360  177.3500  144.4790 C   0  0  0  0  0  0  0  0  0  0  0  0
  186.9840  177.8920  143.7210 C   0  0  0  0  0  0  0  0  0  0  0  0
  190.9990  176.9400  142.8710 C   0  0  0  0  0  0  0  0  0  0  0  0
  188.3210  177.5760  143.4230 C   0  0  0  0  0  0  0  0  0  0  0  0
  187.4820  177.7540  146.0960 C   0  0  0  0  0  3  0  0  0  0  0  0
  190.5670  177.0340  144.1970 C   0  0  0  0  0  3  0  0  0  0  0  0
  184.3640  178.5020  144.2960 C   0  0  0  0  0  0  0  0  0  0  0  0
  186.0810  178.1150  142.7330 N   0  0  0  0  0  0  0  0  0  0  0  0
  188.8110  177.4410  145.8060 C   0  0  0  0  0  3  0  0  0  0  0  0
  182.1810  179.0090  143.5440 C   0  0  0  0  0  3  0  0  0  0  0  0
  185.2460  178.2880  145.3260 N   0  0  0  0  0  0  0  0  0  0  0  0
  183.0600  178.8010  144.5540 N   0  0  0  0  0  0  0  0  0  0  0  0
  192.2900  176.6320  142.6000 F   0  0  0  0  0  0  0  0  0  0  0  0
  190.1010  177.1600  141.8220 C   0  0  0  0  0  3  0  0  0  0  0  0
  186.5560  177.9820  145.0630 C   0  0  0  0  0  0  0  0  0  0  0  0
  182.6130  178.9170  142.2630 N   0  0  0  0  0  0  0  0  0  0  0  0
  184.7820  178.4150  143.0070 C   0  0  0  0  0  0  0  0  0  0  0  0
  184.2950  178.5260  140.5960 C   0  0  0  0  0  2  0  0  0  0  0  0
  183.1820  177.9750  139.7690 C   0  0  0  0  0  0  0  0  0  0  0  0
  181.1320  176.9290  138.1810 C   0  0  0  0  0  0  0  0  0  0  0  0
  182.7910  176.6400  139.9210 C   0  0  0  0  0  3  0  0  0  0  0  0
  182.5530  178.7840  138.8170 C   0  0  0  0  0  3  0  0  0  0  0  0
  181.5270  178.2620  138.0240 C   0  0  0  0  0  3  0  0  0  0  0  0
  179.8460  176.2760  137.1880 Cl  0  0  0  0  0  0  0  0  0  0  0  0
  181.7630  176.1180  139.1280 C   0  0  0  0  0  3  0  0  0  0  0  0
  1 19  1  0  0  0  0
  1 20  1  0  0  0  0
  2  7  1  0  0  0  0
  4 12  1  0  0  0  0
  5 18  2  0  0  0  0
  6  9  2  0  0  0  0
  7  5  1  0  0  0  0
  7  4  2  0  0  0  0
  9  4  1  0  0  0  0
 10 15  2  0  0  0  0
 10 14  1  0  0  0  0
 11 20  2  0  0  0  0
 11  5  1  0  0  0  0
 12  8  2  0  0  0  0
 13 15  1  0  0  0  0
 14  3  1  0  0  0  0
 16  6  1  0  0  0  0
 17  2  2  0  0  0  0
 17  6  1  0  0  0  0
 18 14  1  0  0  0  0
 18  8  1  0  0  0  0
 19 13  2  0  0  0  0
 20 10  1  0  0  0  0
 21  1  1  0  0  0  0
 22 24  1  0  0  0  0
 22 21  1  0  0  0  0
 23 28  1  0  0  0  0
 25 22  2  0  0  0  0
 26 23  2  0  0  0  0
 26 25  1  0  0  0  0
 27 23  1  0  0  0  0
 28 24  2  0  0  0  0
M  END
>  <MODEL>
9

>  <REMARK>
 VINA RESULT:      -9.2      3.227      4.526
  Name = 
  2 active torsions:
  status: ('A' for Active; 'I' for Inactive)
    1  A    between atoms: N_1  and  C_2
    2  A    between atoms: C_2  and  C_3
                            x       y       z     vdW  Elec       q    Type
                         _______ _______ _______ _____ _____    ______ ____

>  <TORSDO>
F 2

$$$$
