=
 OpenBabel11052412453D

 25 28  0  0  1  0  0  0  0  0999 V2000
  187.1740  177.8500  145.3900 C   0  0  0  0  0  0  0  0  0  0  0  0
  188.4600  177.4270  145.0080 C   0  0  0  0  0  0  0  0  0  0  0  0
  187.8320  177.7680  147.7250 C   0  0  0  0  0  3  0  0  0  0  0  0
  186.0660  178.1560  144.5760 C   0  0  0  0  0  0  0  0  0  0  0  0
  183.6750  178.8400  143.3020 C   0  0  0  0  0  3  0  0  0  0  0  0
  189.0750  177.3590  147.3460 N   0  0  0  0  0  0  0  0  0  0  0  0
  184.9490  178.5450  145.3110 C   0  0  0  0  0  0  0  0  0  0  0  0
  183.7460  178.8910  144.7020 C   0  0  0  0  0  3  0  0  0  0  0  0
  190.7130  176.7600  145.6860 C   0  0  0  0  0  0  0  0  0  0  0  0
  191.7450  176.4970  146.7290 C   0  0  0  0  0  1  0  0  0  0  0  0
  188.8230  177.2420  143.6680 C   0  0  0  0  0  3  0  0  0  0  0  0
  184.7940  178.4490  142.5450 C   0  0  0  0  0  3  0  0  0  0  0  0
  186.8830  178.0140  146.7420 C   0  0  0  0  0  0  0  0  0  0  0  0
  185.2910  178.5250  146.9610 S   0  0  0  0  0  0  0  0  0  0  0  0
  191.0520  176.5840  144.3420 C   0  0  0  0  0  3  0  0  0  0  0  0
  185.9980  178.1040  143.1800 C   0  0  0  0  0  3  0  0  0  0  0  0
  190.1110  176.8170  143.3360 C   0  0  0  0  0  0  0  0  0  0  0  0
  189.4170  177.1820  146.0330 C   0  0  0  0  0  0  0  0  0  0  0  0
  190.4910  176.6440  141.9070 C   0  0  0  0  0  2  0  0  0  0  0  0
  189.3280  177.0230  141.0090 C   0  0  0  0  0  2  0  0  0  0  0  0
  189.8390  177.6550  139.7250 C   0  0  1  0  0  3  0  0  0  0  0  0
  190.2010  176.6630  138.8120 O   0  0  0  0  0  1  0  0  0  0  0  0
  188.7870  178.5310  139.1320 C   0  0  0  0  0  0  0  0  0  0  0  0
  187.5030  178.5170  139.6610 O   0  0  0  0  0  1  0  0  0  0  0  0
  189.0490  179.2680  138.1450 O   0  0  0  0  0  0  0  0  0  0  0  0
  1 13  1  0  0  0  0
  2  1  2  0  0  0  0
  2 18  1  0  0  0  0
  4  7  1  0  0  0  0
  4  1  1  0  0  0  0
  5  8  1  0  0  0  0
  6  3  1  0  0  0  0
  7 14  1  0  0  0  0
  8  7  2  0  0  0  0
  9 18  1  0  0  0  0
  9 10  1  0  0  0  0
 11  2  1  0  0  0  0
 12 16  1  0  0  0  0
 12  5  2  0  0  0  0
 13 14  1  0  0  0  0
 13  3  2  0  0  0  0
 15  9  2  0  0  0  0
 16  4  2  0  0  0  0
 17 11  2  0  0  0  0
 17 15  1  0  0  0  0
 18  6  2  0  0  0  0
 19 17  1  0  0  0  0
 20 19  1  0  0  0  0
 21 22  1  6  0  0  0
 21 20  1  0  0  0  0
 23 24  1  0  0  0  0
 23 21  1  0  0  0  0
 25 23  2  0  0  0  0
M  END
>  <MODEL>
1

>  <REMARK>
 VINA RESULT:     -10.2      0.000      0.000
  Name = 
  4 active torsions:
  status: ('A' for Active; 'I' for Inactive)
    1  A    between atoms: C_2  and  C_21
    2  A    between atoms: C_6  and  C_15
    3  A    between atoms: C_6  and  C_23
    4  A    between atoms: C_15  and  C_21
                            x       y       z     vdW  Elec       q    Type
                         _______ _______ _______ _____ _____    ______ ____

>  <TORSDO>
F 4

$$$$
=
 OpenBabel11052412453D

 25 28  0  0  1  0  0  0  0  0999 V2000
  187.2920  177.8370  145.6010 C   0  0  0  0  0  0  0  0  0  0  0  0
  188.6090  177.4060  145.3590 C   0  0  0  0  0  0  0  0  0  0  0  0
  187.7340  177.8720  147.9870 C   0  0  0  0  0  3  0  0  0  0  0  0
  186.2630  178.0940  144.6740 C   0  0  0  0  0  0  0  0  0  0  0  0
  183.9960  178.6980  143.1560 C   0  0  0  0  0  3  0  0  0  0  0  0
  189.0080  177.4550  147.7440 N   0  0  0  0  0  0  0  0  0  0  0  0
  185.0820  178.5100  145.2850 C   0  0  0  0  0  0  0  0  0  0  0  0
  183.9380  178.8160  144.5520 C   0  0  0  0  0  3  0  0  0  0  0  0
  190.7930  176.7900  146.2710 C   0  0  0  0  0  0  0  0  0  0  0  0
  191.7260  176.5850  147.4150 C   0  0  0  0  0  1  0  0  0  0  0  0
  189.0940  177.1590  144.0680 C   0  0  0  0  0  3  0  0  0  0  0  0
  185.1810  178.2800  142.5250 C   0  0  0  0  0  3  0  0  0  0  0  0
  186.8780  178.0630  146.9100 C   0  0  0  0  0  0  0  0  0  0  0  0
  185.2710  178.5710  146.9580 S   0  0  0  0  0  0  0  0  0  0  0  0
  191.2540  176.5520  144.9740 C   0  0  0  0  0  3  0  0  0  0  0  0
  186.3230  177.9750  143.2820 C   0  0  0  0  0  3  0  0  0  0  0  0
  190.4090  176.7290  143.8750 C   0  0  0  0  0  0  0  0  0  0  0  0
  189.4690  177.2170  146.4780 C   0  0  0  0  0  0  0  0  0  0  0  0
  190.9190  176.4910  142.4980 C   0  0  0  0  0  2  0  0  0  0  0  0
  189.8810  176.9190  141.4760 C   0  0  0  0  0  2  0  0  0  0  0  0
  190.5620  177.3980  140.2050 C   0  0  1  0  0  3  0  0  0  0  0  0
  191.9470  177.4110  140.3770 O   0  0  0  0  0  1  0  0  0  0  0  0
  190.2000  176.5070  139.0640 C   0  0  0  0  0  0  0  0  0  0  0  0
  189.0460  176.7580  138.3350 O   0  0  0  0  0  0  0  0  0  0  0  0
  190.9220  175.5170  138.7710 O   0  0  0  0  0  1  0  0  0  0  0  0
  1 13  1  0  0  0  0
  2  1  2  0  0  0  0
  2 18  1  0  0  0  0
  4  7  1  0  0  0  0
  4  1  1  0  0  0  0
  5  8  1  0  0  0  0
  6  3  1  0  0  0  0
  7 14  1  0  0  0  0
  8  7  2  0  0  0  0
  9 18  1  0  0  0  0
  9 10  1  0  0  0  0
 11  2  1  0  0  0  0
 12  5  2  0  0  0  0
 12 16  1  0  0  0  0
 13 14  1  0  0  0  0
 13  3  2  0  0  0  0
 15  9  2  0  0  0  0
 16  4  2  0  0  0  0
 17 11  2  0  0  0  0
 17 15  1  0  0  0  0
 18  6  2  0  0  0  0
 19 17  1  0  0  0  0
 20 19  1  0  0  0  0
 21 22  1  1  0  0  0
 21 20  1  0  0  0  0
 23 21  1  0  0  0  0
 24 23  2  0  0  0  0
 25 23  1  0  0  0  0
M  END
>  <MODEL>
2

>  <REMARK>
 VINA RESULT:     -10.0      1.016      1.303
  Name = 
  4 active torsions:
  status: ('A' for Active; 'I' for Inactive)
    1  A    between atoms: C_2  and  C_21
    2  A    between atoms: C_6  and  C_15
    3  A    between atoms: C_6  and  C_23
    4  A    between atoms: C_15  and  C_21
                            x       y       z     vdW  Elec       q    Type
                         _______ _______ _______ _____ _____    ______ ____

>  <TORSDO>
F 4

$$$$
=
 OpenBabel11052412453D

 25 28  0  0  1  0  0  0  0  0999 V2000
  187.5570  177.8460  145.8130 C   0  0  0  0  0  0  0  0  0  0  0  0
  186.7330  178.1230  144.7070 C   0  0  0  0  0  0  0  0  0  0  0  0
  185.7240  178.3640  147.3170 C   0  0  0  0  0  3  0  0  0  0  0  0
  188.9040  177.4350  145.8300 C   0  0  0  0  0  0  0  0  0  0  0  0
  191.5420  176.6210  146.2650 C   0  0  0  0  0  3  0  0  0  0  0  0
  184.9340  178.6300  146.2400 N   0  0  0  0  0  0  0  0  0  0  0  0
  189.3940  177.2540  147.1220 C   0  0  0  0  0  0  0  0  0  0  0  0
  190.7040  176.8490  147.3660 C   0  0  0  0  0  3  0  0  0  0  0  0
  184.5390  178.8060  143.8720 C   0  0  0  0  0  0  0  0  0  0  0  0
  183.1250  179.2250  144.0890 C   0  0  0  0  0  1  0  0  0  0  0  0
  187.1880  178.0180  143.3860 C   0  0  0  0  0  3  0  0  0  0  0  0
  191.0620  176.7990  144.9550 C   0  0  0  0  0  3  0  0  0  0  0  0
  187.0380  177.9710  147.0990 C   0  0  0  0  0  0  0  0  0  0  0  0
  188.1990  177.5890  148.2600 S   0  0  0  0  0  0  0  0  0  0  0  0
  185.0150  178.6930  142.5630 C   0  0  0  0  0  3  0  0  0  0  0  0
  189.7380  177.2080  144.7310 C   0  0  0  0  0  3  0  0  0  0  0  0
  186.3350  178.3060  142.3180 C   0  0  0  0  0  0  0  0  0  0  0  0
  185.3900  178.5240  144.9550 C   0  0  0  0  0  0  0  0  0  0  0  0
  186.8240  178.1710  140.9190 C   0  0  0  0  0  2  0  0  0  0  0  0
  188.3020  178.5080  140.8490 C   0  0  0  0  0  2  0  0  0  0  0  0
  188.9420  177.8200  139.6540 C   0  0  1  0  0  3  0  0  0  0  0  0
  189.3110  178.7650  138.6960 O   0  0  0  0  0  1  0  0  0  0  0  0
  190.1400  177.0460  140.0920 C   0  0  0  0  0  0  0  0  0  0  0  0
  190.6030  175.9950  139.3100 O   0  0  0  0  0  0  0  0  0  0  0  0
  190.7230  177.3240  141.1730 O   0  0  0  0  0  1  0  0  0  0  0  0
  1  4  1  0  0  0  0
  1 13  2  0  0  0  0
  2 18  1  0  0  0  0
  2  1  1  0  0  0  0
  4  7  1  0  0  0  0
  5  8  1  0  0  0  0
  6  3  2  0  0  0  0
  7  8  2  0  0  0  0
  7 14  1  0  0  0  0
  9 10  1  0  0  0  0
  9 18  2  0  0  0  0
 11  2  2  0  0  0  0
 12  5  2  0  0  0  0
 13  3  1  0  0  0  0
 13 14  1  0  0  0  0
 15  9  1  0  0  0  0
 16 12  1  0  0  0  0
 16  4  2  0  0  0  0
 17 15  2  0  0  0  0
 17 11  1  0  0  0  0
 18  6  1  0  0  0  0
 19 17  1  0  0  0  0
 20 19  1  0  0  0  0
 21 22  1  6  0  0  0
 21 23  1  0  0  0  0
 21 20  1  0  0  0  0
 23 25  1  0  0  0  0
 24 23  2  0  0  0  0
M  END
>  <MODEL>
3

>  <REMARK>
 VINA RESULT:     -10.0      1.578      4.718
  Name = 
  4 active torsions:
  status: ('A' for Active; 'I' for Inactive)
    1  A    between atoms: C_2  and  C_21
    2  A    between atoms: C_6  and  C_15
    3  A    between atoms: C_6  and  C_23
    4  A    between atoms: C_15  and  C_21
                            x       y       z     vdW  Elec       q    Type
                         _______ _______ _______ _____ _____    ______ ____

>  <TORSDO>
F 4

$$$$
=
 OpenBabel11052412453D

 25 28  0  0  1  0  0  0  0  0999 V2000
  189.3420  177.4770  144.0870 C   0  0  0  0  0  0  0  0  0  0  0  0
  188.3500  177.7540  145.0450 C   0  0  0  0  0  0  0  0  0  0  0  0
  190.9160  176.9500  145.8580 C   0  0  0  0  0  3  0  0  0  0  0  0
  189.2560  177.5380  142.6830 C   0  0  0  0  0  0  0  0  0  0  0  0
  189.4680  177.5440  139.8970 C   0  0  0  0  0  3  0  0  0  0  0  0
  189.9490  177.2200  146.7790 N   0  0  0  0  0  0  0  0  0  0  0  0
  190.4500  177.1900  142.0550 C   0  0  0  0  0  0  0  0  0  0  0  0
  190.5830  177.1850  140.6690 C   0  0  0  0  0  3  0  0  0  0  0  0
  187.7200  177.8810  147.4040 C   0  0  0  0  0  0  0  0  0  0  0  0
  188.0330  177.7420  148.8560 C   0  0  0  0  0  1  0  0  0  0  0  0
  187.0570  178.1590  144.6920 C   0  0  0  0  0  3  0  0  0  0  0  0
  188.2560  177.8980  140.5150 C   0  0  0  0  0  3  0  0  0  0  0  0
  190.6070  177.0790  144.5110 C   0  0  0  0  0  0  0  0  0  0  0  0
  191.6260  176.8020  143.1960 S   0  0  0  0  0  0  0  0  0  0  0  0
  186.4360  178.2820  147.0270 C   0  0  0  0  0  3  0  0  0  0  0  0
  188.1440  177.8970  141.9140 C   0  0  0  0  0  3  0  0  0  0  0  0
  186.1040  178.4260  145.6780 C   0  0  0  0  0  0  0  0  0  0  0  0
  188.6890  177.6140  146.4210 C   0  0  0  0  0  0  0  0  0  0  0  0
  184.7270  178.8350  145.2900 C   0  0  0  0  0  2  0  0  0  0  0  0
  184.7290  179.4020  143.8810 C   0  0  0  0  0  2  0  0  0  0  0  0
  183.8290  178.5730  142.9800 C   0  0  1  0  0  3  0  0  0  0  0  0
  182.5060  179.0030  143.0950 O   0  0  0  0  0  1  0  0  0  0  0  0
  184.2790  178.6880  141.5620 C   0  0  0  0  0  0  0  0  0  0  0  0
  183.7300  177.8550  140.5970 O   0  0  0  0  0  0  0  0  0  0  0  0
  185.1660  179.5220  141.2370 O   0  0  0  0  0  1  0  0  0  0  0  0
  1 13  1  0  0  0  0
  1  2  2  0  0  0  0
  2 18  1  0  0  0  0
  3  6  1  0  0  0  0
  4  1  1  0  0  0  0
  5 12  2  0  0  0  0
  5  8  1  0  0  0  0
  7  4  1  0  0  0  0
  7 14  1  0  0  0  0
  8  7  2  0  0  0  0
  9 10  1  0  0  0  0
 11  2  1  0  0  0  0
 11 17  2  0  0  0  0
 12 16  1  0  0  0  0
 13  3  2  0  0  0  0
 14 13  1  0  0  0  0
 15  9  2  0  0  0  0
 16  4  2  0  0  0  0
 17 15  1  0  0  0  0
 18  6  2  0  0  0  0
 18  9  1  0  0  0  0
 19 17  1  0  0  0  0
 20 19  1  0  0  0  0
 21 22  1  6  0  0  0
 21 20  1  0  0  0  0
 23 21  1  0  0  0  0
 24 23  2  0  0  0  0
 25 23  1  0  0  0  0
M  END
>  <MODEL>
4

>  <REMARK>
 VINA RESULT:      -9.8      2.442      5.164
  Name = 
  4 active torsions:
  status: ('A' for Active; 'I' for Inactive)
    1  A    between atoms: C_2  and  C_21
    2  A    between atoms: C_6  and  C_15
    3  A    between atoms: C_6  and  C_23
    4  A    between atoms: C_15  and  C_21
                            x       y       z     vdW  Elec       q    Type
                         _______ _______ _______ _____ _____    ______ ____

>  <TORSDO>
F 4

$$$$
=
 OpenBabel11052412453D

 25 28  0  0  1  0  0  0  0  0999 V2000
  185.9470  178.3710  144.4060 C   0  0  0  0  0  0  0  0  0  0  0  0
  187.0930  178.0790  145.1690 C   0  0  0  0  0  0  0  0  0  0  0  0
  184.6270  178.5380  146.4350 C   0  0  0  0  0  3  0  0  0  0  0  0
  185.8230  178.4810  143.0070 C   0  0  0  0  0  0  0  0  0  0  0  0
  185.1890  178.7790  140.3020 C   0  0  0  0  0  3  0  0  0  0  0  0
  185.7410  178.2550  147.1670 N   0  0  0  0  0  0  0  0  0  0  0  0
  184.5240  178.7860  142.6050 C   0  0  0  0  0  0  0  0  0  0  0  0
  184.1810  178.9390  141.2640 C   0  0  0  0  0  3  0  0  0  0  0  0
  188.0830  177.7390  147.3790 C   0  0  0  0  0  0  0  0  0  0  0  0
  187.9850  177.6780  148.8650 C   0  0  0  0  0  1  0  0  0  0  0  0
  188.3440  177.8420  144.5860 C   0  0  0  0  0  3  0  0  0  0  0  0
  186.5050  178.4710  140.6910 C   0  0  0  0  0  3  0  0  0  0  0  0
  184.7350  178.5950  145.0520 C   0  0  0  0  0  0  0  0  0  0  0  0
  183.5090  178.9260  143.9420 S   0  0  0  0  0  0  0  0  0  0  0  0
  189.3210  177.5080  146.7740 C   0  0  0  0  0  3  0  0  0  0  0  0
  186.8290  178.3210  142.0490 C   0  0  0  0  0  3  0  0  0  0  0  0
  189.4530  177.5530  145.3840 C   0  0  0  0  0  0  0  0  0  0  0  0
  186.9580  178.0250  146.5850 C   0  0  0  0  0  0  0  0  0  0  0  0
  190.7820  177.3240  144.7550 C   0  0  0  0  0  2  0  0  0  0  0  0
  190.7860  177.8610  143.3350 C   0  0  0  0  0  2  0  0  0  0  0  0
  191.1700  176.7620  142.3580 C   0  0  1  0  0  3  0  0  0  0  0  0
  190.2980  175.6790  142.4860 O   0  0  0  0  0  1  0  0  0  0  0  0
  191.1300  177.2830  140.9610 C   0  0  0  0  0  0  0  0  0  0  0  0
  189.9080  177.4350  140.3180 O   0  0  0  0  0  0  0  0  0  0  0  0
  192.1960  177.5680  140.3530 O   0  0  0  0  0  1  0  0  0  0  0  0
  1 13  1  0  0  0  0
  1  2  2  0  0  0  0
  2 18  1  0  0  0  0
  3  6  1  0  0  0  0
  4  1  1  0  0  0  0
  5 12  2  0  0  0  0
  5  8  1  0  0  0  0
  7  4  1  0  0  0  0
  7 14  1  0  0  0  0
  8  7  2  0  0  0  0
  9 10  1  0  0  0  0
 11  2  1  0  0  0  0
 11 17  2  0  0  0  0
 12 16  1  0  0  0  0
 13  3  2  0  0  0  0
 14 13  1  0  0  0  0
 15  9  2  0  0  0  0
 16  4  2  0  0  0  0
 17 15  1  0  0  0  0
 18  6  2  0  0  0  0
 18  9  1  0  0  0  0
 19 17  1  0  0  0  0
 20 19  1  0  0  0  0
 21 22  1  6  0  0  0
 21 20  1  0  0  0  0
 23 21  1  0  0  0  0
 24 23  2  0  0  0  0
 25 23  1  0  0  0  0
M  END
>  <MODEL>
5

>  <REMARK>
 VINA RESULT:      -9.4      1.731      2.982
  Name = 
  4 active torsions:
  status: ('A' for Active; 'I' for Inactive)
    1  A    between atoms: C_2  and  C_21
    2  A    between atoms: C_6  and  C_15
    3  A    between atoms: C_6  and  C_23
    4  A    between atoms: C_15  and  C_21
                            x       y       z     vdW  Elec       q    Type
                         _______ _______ _______ _____ _____    ______ ____

>  <TORSDO>
F 4

$$$$
=
 OpenBabel11052412453D

 25 28  0  0  1  0  0  0  0  0999 V2000
  188.0580  177.6160  145.6710 C   0  0  0  0  0  0  0  0  0  0  0  0
  187.4200  177.8790  144.4450 C   0  0  0  0  0  0  0  0  0  0  0  0
  186.0150  178.1640  146.8600 C   0  0  0  0  0  3  0  0  0  0  0  0
  189.3830  177.2000  145.9060 C   0  0  0  0  0  0  0  0  0  0  0  0
  191.9150  176.3840  146.7620 C   0  0  0  0  0  3  0  0  0  0  0  0
  185.4050  178.4160  145.6690 N   0  0  0  0  0  0  0  0  0  0  0  0
  189.6630  177.0370  147.2610 C   0  0  0  0  0  0  0  0  0  0  0  0
  190.9160  176.6320  147.7140 C   0  0  0  0  0  3  0  0  0  0  0  0
  185.3890  178.5570  143.2660 C   0  0  0  0  0  0  0  0  0  0  0  0
  183.9600  178.9840  143.2510 C   0  0  0  0  0  1  0  0  0  0  0  0
  188.0770  177.7520  143.2140 C   0  0  0  0  0  3  0  0  0  0  0  0
  191.6480  176.5440  145.3900 C   0  0  0  0  0  3  0  0  0  0  0  0
  187.3440  177.7620  146.8570 C   0  0  0  0  0  0  0  0  0  0  0  0
  188.3060  177.3940  148.1920 S   0  0  0  0  0  0  0  0  0  0  0  0
  186.0640  178.4220  142.0500 C   0  0  0  0  0  3  0  0  0  0  0  0
  190.3780  176.9540  144.9550 C   0  0  0  0  0  3  0  0  0  0  0  0
  187.4040  178.0270  142.0210 C   0  0  0  0  0  0  0  0  0  0  0  0
  186.0570  178.2880  144.4730 C   0  0  0  0  0  0  0  0  0  0  0  0
  188.1060  177.8680  140.7190 C   0  0  0  0  0  2  0  0  0  0  0  0
  189.4570  177.2100  140.9320 C   0  0  0  0  0  2  0  0  0  0  0  0
  190.4220  177.6260  139.8340 C   0  0  1  0  0  3  0  0  0  0  0  0
  191.7390  177.5010  140.2790 O   0  0  0  0  0  1  0  0  0  0  0  0
  190.2140  176.7800  138.6220 C   0  0  0  0  0  0  0  0  0  0  0  0
  190.5640  175.4360  138.6540 O   0  0  0  0  0  1  0  0  0  0  0  0
  189.7420  177.2780  137.5670 O   0  0  0  0  0  0  0  0  0  0  0  0
  1  4  1  0  0  0  0
  1 13  2  0  0  0  0
  2 18  1  0  0  0  0
  2  1  1  0  0  0  0
  4  7  1  0  0  0  0
  5  8  1  0  0  0  0
  6  3  2  0  0  0  0
  7  8  2  0  0  0  0
  7 14  1  0  0  0  0
  9 18  2  0  0  0  0
 10  9  1  0  0  0  0
 11  2  2  0  0  0  0
 12  5  2  0  0  0  0
 13  3  1  0  0  0  0
 13 14  1  0  0  0  0
 15  9  1  0  0  0  0
 16 12  1  0  0  0  0
 16  4  2  0  0  0  0
 17 15  2  0  0  0  0
 17 11  1  0  0  0  0
 18  6  1  0  0  0  0
 19 20  1  0  0  0  0
 19 17  1  0  0  0  0
 21 22  1  1  0  0  0
 21 20  1  0  0  0  0
 23 24  1  0  0  0  0
 23 21  1  0  0  0  0
 25 23  2  0  0  0  0
M  END
>  <MODEL>
6

>  <REMARK>
 VINA RESULT:      -9.3      1.635      4.616
  Name = 
  4 active torsions:
  status: ('A' for Active; 'I' for Inactive)
    1  A    between atoms: C_2  and  C_21
    2  A    between atoms: C_6  and  C_15
    3  A    between atoms: C_6  and  C_23
    4  A    between atoms: C_15  and  C_21
                            x       y       z     vdW  Elec       q    Type
                         _______ _______ _______ _____ _____    ______ ____

>  <TORSDO>
F 4

$$$$
=
 OpenBabel11052412453D

 25 28  0  0  1  0  0  0  0  0999 V2000
  186.3610  178.3330  142.6350 C   0  0  0  0  0  0  0  0  0  0  0  0
  187.5500  178.0300  141.9470 C   0  0  0  0  0  0  0  0  0  0  0  0
  185.2910  178.9260  140.5390 C   0  0  0  0  0  3  0  0  0  0  0  0
  186.0940  178.2540  144.0160 C   0  0  0  0  0  0  0  0  0  0  0  0
  185.1980  178.2290  146.6620 C   0  0  0  0  0  3  0  0  0  0  0  0
  186.4460  178.6300  139.8810 N   0  0  0  0  0  0  0  0  0  0  0  0
  184.7930  178.6370  144.3350 C   0  0  0  0  0  0  0  0  0  0  0  0
  184.3210  178.6340  145.6450 C   0  0  0  0  0  3  0  0  0  0  0  0
  188.7370  177.8940  139.8140 C   0  0  0  0  0  0  0  0  0  0  0  0
  188.7940  178.0450  138.3320 C   0  0  0  0  0  1  0  0  0  0  0  0
  188.7030  177.5800  142.6030 C   0  0  0  0  0  3  0  0  0  0  0  0
  186.5140  177.8400  146.3560 C   0  0  0  0  0  3  0  0  0  0  0  0
  185.2520  178.7760  141.9190 C   0  0  0  0  0  0  0  0  0  0  0  0
  183.9480  179.0760  142.9450 S   0  0  0  0  0  0  0  0  0  0  0  0
  189.8750  177.4450  140.4900 C   0  0  0  0  0  3  0  0  0  0  0  0
  186.9700  177.8510  145.0290 C   0  0  0  0  0  3  0  0  0  0  0  0
  189.8630  177.2930  141.8790 C   0  0  0  0  0  0  0  0  0  0  0  0
  187.5660  178.1910  140.5330 C   0  0  0  0  0  0  0  0  0  0  0  0
  191.0750  176.7960  142.5840 C   0  0  0  0  0  2  0  0  0  0  0  0
  190.7210  176.3840  144.0020 C   0  0  0  0  0  2  0  0  0  0  0  0
  191.6690  177.0420  144.9910 C   0  0  1  0  0  3  0  0  0  0  0  0
  191.7140  178.4200  144.7700 O   0  0  0  0  0  1  0  0  0  0  0  0
  191.2220  176.7660  146.3880 C   0  0  0  0  0  0  0  0  0  0  0  0
  189.8660  176.7650  146.6870 O   0  0  0  0  0  0  0  0  0  0  0  0
  192.0640  176.5550  147.3000 O   0  0  0  0  0  1  0  0  0  0  0  0
  1  4  1  0  0  0  0
  2 11  1  0  0  0  0
  2  1  1  0  0  0  0
  3 13  1  0  0  0  0
  4  7  2  0  0  0  0
  4 16  1  0  0  0  0
  6 18  1  0  0  0  0
  6  3  2  0  0  0  0
  7  8  1  0  0  0  0
  8  5  2  0  0  0  0
  9 15  2  0  0  0  0
  9 18  1  0  0  0  0
 10  9  1  0  0  0  0
 12  5  1  0  0  0  0
 13  1  2  0  0  0  0
 13 14  1  0  0  0  0
 14  7  1  0  0  0  0
 15 17  1  0  0  0  0
 16 12  2  0  0  0  0
 17 19  1  0  0  0  0
 17 11  2  0  0  0  0
 18  2  2  0  0  0  0
 19 20  1  0  0  0  0
 20 21  1  0  0  0  0
 21 22  1  6  0  0  0
 21 23  1  0  0  0  0
 23 24  2  0  0  0  0
 23 25  1  0  0  0  0
M  END
>  <MODEL>
7

>  <REMARK>
 VINA RESULT:      -9.3      3.355      5.319
  Name = 
  4 active torsions:
  status: ('A' for Active; 'I' for Inactive)
    1  A    between atoms: C_2  and  C_21
    2  A    between atoms: C_6  and  C_15
    3  A    between atoms: C_6  and  C_23
    4  A    between atoms: C_15  and  C_21
                            x       y       z     vdW  Elec       q    Type
                         _______ _______ _______ _____ _____    ______ ____

>  <TORSDO>
F 4

$$$$
=
 OpenBabel11052412453D

 25 28  0  0  1  0  0  0  0  0999 V2000
  187.0970  178.0480  142.6720 C   0  0  0  0  0  0  0  0  0  0  0  0
  188.4250  177.6050  142.5390 C   0  0  0  0  0  0  0  0  0  0  0  0
  186.9730  178.4250  140.2780 C   0  0  0  0  0  3  0  0  0  0  0  0
  186.3140  178.1560  143.8390 C   0  0  0  0  0  0  0  0  0  0  0  0
  184.4720  178.5040  145.9110 C   0  0  0  0  0  3  0  0  0  0  0  0
  188.2600  177.9940  140.1570 N   0  0  0  0  0  0  0  0  0  0  0  0
  185.0320  178.6360  143.5840 C   0  0  0  0  0  0  0  0  0  0  0  0
  184.0950  178.8200  144.5970 C   0  0  0  0  0  3  0  0  0  0  0  0
  190.3230  177.1480  141.0660 C   0  0  0  0  0  0  0  0  0  0  0  0
  190.9580  177.1100  139.7180 C   0  0  0  0  0  1  0  0  0  0  0  0
  189.1910  177.1860  143.6340 C   0  0  0  0  0  3  0  0  0  0  0  0
  185.7630  178.0180  146.1850 C   0  0  0  0  0  3  0  0  0  0  0  0
  186.3940  178.4500  141.5400 C   0  0  0  0  0  0  0  0  0  0  0  0
  184.8300  178.9370  141.9380 S   0  0  0  0  0  0  0  0  0  0  0  0
  191.0670  176.7340  142.1740 C   0  0  0  0  0  3  0  0  0  0  0  0
  186.6920  177.8410  145.1480 C   0  0  0  0  0  3  0  0  0  0  0  0
  190.5080  176.7570  143.4540 C   0  0  0  0  0  0  0  0  0  0  0  0
  188.9980  177.5880  141.2360 C   0  0  0  0  0  0  0  0  0  0  0  0
  191.3050  176.2950  144.6230 C   0  0  0  0  0  2  0  0  0  0  0  0
  191.2430  177.3250  145.7360 C   0  0  0  0  0  2  0  0  0  0  0  0
  191.0010  176.6410  147.0720 C   0  0  1  0  0  3  0  0  0  0  0  0
  192.0340  176.9450  147.9610 O   0  0  0  0  0  1  0  0  0  0  0  0
  189.6940  177.0810  147.6420 C   0  0  0  0  0  0  0  0  0  0  0  0
  189.6160  178.2810  148.3350 O   0  0  0  0  0  1  0  0  0  0  0  0
  188.6670  176.3620  147.5160 O   0  0  0  0  0  0  0  0  0  0  0  0
  1  4  1  0  0  0  0
  2  1  1  0  0  0  0
  2 11  1  0  0  0  0
  3 13  1  0  0  0  0
  4 16  1  0  0  0  0
  5 12  1  0  0  0  0
  6  3  2  0  0  0  0
  6 18  1  0  0  0  0
  7  4  2  0  0  0  0
  7  8  1  0  0  0  0
  8  5  2  0  0  0  0
  9 18  1  0  0  0  0
  9 15  2  0  0  0  0
 10  9  1  0  0  0  0
 13 14  1  0  0  0  0
 13  1  2  0  0  0  0
 14  7  1  0  0  0  0
 15 17  1  0  0  0  0
 16 12  2  0  0  0  0
 17 11  2  0  0  0  0
 17 19  1  0  0  0  0
 18  2  2  0  0  0  0
 19 20  1  0  0  0  0
 20 21  1  0  0  0  0
 21 23  1  0  0  0  0
 21 22  1  1  0  0  0
 23 24  1  0  0  0  0
 25 23  2  0  0  0  0
M  END
>  <MODEL>
8

>  <REMARK>
 VINA RESULT:      -9.3      3.717      5.424
  Name = 
  4 active torsions:
  status: ('A' for Active; 'I' for Inactive)
    1  A    between atoms: C_2  and  C_21
    2  A    between atoms: C_6  and  C_15
    3  A    between atoms: C_6  and  C_23
    4  A    between atoms: C_15  and  C_21
                            x       y       z     vdW  Elec       q    Type
                         _______ _______ _______ _____ _____    ______ ____

>  <TORSDO>
F 4

$$$$
=
 OpenBabel11052412453D

 25 28  0  0  1  0  0  0  0  0999 V2000
  189.5110  177.4300  144.1370 C   0  0  0  0  0  0  0  0  0  0  0  0
  188.9250  177.7120  142.8890 C   0  0  0  0  0  0  0  0  0  0  0  0
  191.6050  176.8830  143.0400 C   0  0  0  0  0  3  0  0  0  0  0  0
  188.9330  177.5030  145.4190 C   0  0  0  0  0  0  0  0  0  0  0  0
  188.1450  177.5240  148.1000 C   0  0  0  0  0  3  0  0  0  0  0  0
  191.0310  177.1570  141.8360 N   0  0  0  0  0  0  0  0  0  0  0  0
  189.8230  177.1480  146.4310 C   0  0  0  0  0  0  0  0  0  0  0  0
  189.4570  177.1500  147.7740 C   0  0  0  0  0  3  0  0  0  0  0  0
  189.1760  177.8380  140.4600 C   0  0  0  0  0  0  0  0  0  0  0  0
  189.9850  177.6990  139.2150 C   0  0  0  0  0  1  0  0  0  0  0  0
  187.5940  178.1270  142.7600 C   0  0  0  0  0  3  0  0  0  0  0  0
  187.2340  177.8850  147.0910 C   0  0  0  0  0  3  0  0  0  0  0  0
  190.8400  177.0210  144.1910 C   0  0  0  0  0  0  0  0  0  0  0  0
  191.3240  176.7430  145.7810 S   0  0  0  0  0  0  0  0  0  0  0  0
  187.8460  178.2530  140.3560 C   0  0  0  0  0  3  0  0  0  0  0  0
  187.6250  177.8750  145.7430 C   0  0  0  0  0  3  0  0  0  0  0  0
  187.0540  178.3930  141.4990 C   0  0  0  0  0  0  0  0  0  0  0  0
  189.7290  177.5630  141.7230 C   0  0  0  0  0  0  0  0  0  0  0  0
  185.6450  178.8540  141.3760 C   0  0  0  0  0  2  0  0  0  0  0  0
  184.9330  178.7160  142.7100 C   0  0  0  0  0  2  0  0  0  0  0  0
  183.4500  179.0030  142.5460 C   0  0  1  0  0  3  0  0  0  0  0  0
  182.8680  178.0590  141.6980 O   0  0  0  0  0  1  0  0  0  0  0  0
  182.7740  178.9750  143.8760 C   0  0  0  0  0  0  0  0  0  0  0  0
  183.5080  179.2340  145.0260 O   0  0  0  0  0  1  0  0  0  0  0  0
  181.5480  178.7000  143.9660 O   0  0  0  0  0  0  0  0  0  0  0  0
  1 13  2  0  0  0  0
  1  4  1  0  0  0  0
  2  1  1  0  0  0  0
  3 13  1  0  0  0  0
  4 16  2  0  0  0  0
  4  7  1  0  0  0  0
  6  3  2  0  0  0  0
  7  8  2  0  0  0  0
  8  5  1  0  0  0  0
  9 18  1  0  0  0  0
 10  9  1  0  0  0  0
 11  2  1  0  0  0  0
 12  5  2  0  0  0  0
 13 14  1  0  0  0  0
 14  7  1  0  0  0  0
 15  9  2  0  0  0  0
 15 17  1  0  0  0  0
 16 12  1  0  0  0  0
 17 11  2  0  0  0  0
 18  6  1  0  0  0  0
 18  2  2  0  0  0  0
 19 17  1  0  0  0  0
 19 20  1  0  0  0  0
 21 22  1  6  0  0  0
 21 20  1  0  0  0  0
 21 23  1  0  0  0  0
 23 25  2  0  0  0  0
 23 24  1  0  0  0  0
M  END
>  <MODEL>
9

>  <REMARK>
 VINA RESULT:      -9.2      3.141      5.764
  Name = 
  4 active torsions:
  status: ('A' for Active; 'I' for Inactive)
    1  A    between atoms: C_2  and  C_21
    2  A    between atoms: C_6  and  C_15
    3  A    between atoms: C_6  and  C_23
    4  A    between atoms: C_15  and  C_21
                            x       y       z     vdW  Elec       q    Type
                         _______ _______ _______ _____ _____    ______ ____

>  <TORSDO>
F 4

$$$$
