=
 OpenBabel11052412273D

 30 32  0  0  1  0  0  0  0  0999 V2000
  187.7670  177.5520  143.8640 C   0  0  2  0  0  3  0  0  0  0  0  0
  188.9000  177.1210  144.8020 C   0  0  2  0  0  3  0  0  0  0  0  0
  186.6200  178.6870  147.2560 C   0  0  0  0  0  3  0  0  0  0  0  0
  187.2320  178.2060  146.0940 C   0  0  0  0  0  0  0  0  0  0  0  0
  189.0260  177.2250  147.3730 C   0  0  0  0  0  3  0  0  0  0  0  0
  188.4160  177.5140  146.1500 C   0  0  0  0  0  0  0  0  0  0  0  0
  186.7740  178.4040  144.6980 C   0  0  2  0  0  3  0  0  0  0  0  0
  188.4190  177.6830  148.5530 C   0  0  0  0  0  3  0  0  0  0  0  0
  187.2220  178.4150  148.4930 C   0  0  0  0  0  3  0  0  0  0  0  0
  187.1610  176.4070  143.3350 O   0  0  0  0  0  1  0  0  0  0  0  0
  190.1720  177.8740  144.4260 C   0  0  0  0  0  2  0  0  0  0  0  0
  191.8520  176.5630  143.0800 C   0  0  0  0  0  3  0  0  0  0  0  0
  191.3290  176.9390  144.2530 C   0  0  0  0  0  3  0  0  0  0  0  0
  191.4200  177.0300  141.7920 N   0  0  0  0  0  0  0  0  0  0  0  0
  192.3060  177.7320  140.8740 C   0  0  0  0  0  1  0  0  0  0  0  0
  190.1470  176.5600  141.2690 C   0  0  0  0  0  2  0  0  0  0  0  0
  189.3060  177.7200  140.7470 C   0  0  0  0  0  2  0  0  0  0  0  0
  189.2660  177.7400  139.2560 C   0  0  0  0  0  0  0  0  0  0  0  0
  189.7350  176.4110  138.4170 S   0  0  0  0  0  0  0  0  0  0  0  0
  188.8350  178.9320  138.5890 N   0  0  0  0  0  2  0  0  0  0  0  0
  188.9630  179.1370  137.1550 C   0  0  0  0  0  1  0  0  0  0  0  0
  185.3080  178.0030  144.5290 C   0  0  0  0  0  2  0  0  0  0  0  0
  184.6110  178.9150  143.5320 C   0  0  1  0  0  3  0  0  0  0  0  0
  184.5270  178.2760  142.1740 C   0  0  1  0  0  3  0  0  0  0  0  0
  183.0410  178.2360  141.8830 C   0  0  0  0  0  2  0  0  0  0  0  0
  183.1670  179.0940  143.9340 C   0  0  0  0  0  2  0  0  0  0  0  0
  182.3850  179.0990  142.7720 O   0  0  0  0  0  0  0  0  0  0  0  0
  185.2410  179.1570  141.1600 C   0  0  0  0  0  2  0  0  0  0  0  0
  184.4700  179.2280  139.8510 C   0  0  0  0  0  2  0  0  0  0  0  0
  185.1930  178.4500  138.7680 C   0  0  0  0  0  1  0  0  0  0  0  0
  1 10  1  1  0  0  0
  1  7  1  0  0  0  0
  1  2  1  0  0  0  0
  2 11  1  6  0  0  0
  2  6  1  0  0  0  0
  3  9  1  0  0  0  0
  4  6  1  0  0  0  0
  4  3  2  0  0  0  0
  5  8  1  0  0  0  0
  6  5  2  0  0  0  0
  7 22  1  1  0  0  0
  7  4  1  0  0  0  0
  9  8  2  0  0  0  0
 12 13  2  0  0  0  0
 13 11  1  0  0  0  0
 14 12  1  0  0  0  0
 15 14  1  0  0  0  0
 16 14  1  0  0  0  0
 17 16  1  0  0  0  0
 18 17  1  0  0  0  0
 19 18  2  0  0  0  0
 20 18  1  0  0  0  0
 21 20  1  0  0  0  0
 23 26  1  0  0  0  0
 23 22  1  1  0  0  0
 24 28  1  6  0  0  0
 24 23  1  0  0  0  0
 25 24  1  0  0  0  0
 25 27  1  0  0  0  0
 27 26  1  0  0  0  0
 29 28  1  0  0  0  0
 30 29  1  0  0  0  0
M  END
>  <MODEL>
1

>  <REMARK>
 VINA RESULT:      -7.7      0.000      0.000
  Name = 
  11 active torsions:
  status: ('A' for Active; 'I' for Inactive)
    1  A    between atoms: C_1  and  C_5
    2  A    between atoms: C_1  and  C_22
    3  A    between atoms: C_2  and  N_18
    4  A    between atoms: N_3  and  C_28
    5  A    between atoms: C_7  and  C_30
    6  A    between atoms: C_10  and  C_25
    7  A    between atoms: C_11  and  C_25
    8  A    between atoms: C_13  and  C_30
    9  A    between atoms: C_14  and  N_18
   10  A    between atoms: C_14  and  C_20
   11  A    between atoms: C_20  and  C_28
                            x       y       z     vdW  Elec       q    Type
                         _______ _______ _______ _____ _____    ______ ____

>  <TORSDO>
F 11

$$$$
=
 OpenBabel11052412273D

 30 32  0  0  1  0  0  0  0  0999 V2000
  188.6590  176.8910  143.1600 C   0  0  2  0  0  3  0  0  0  0  0  0
  190.0570  176.2610  143.1720 C   0  0  2  0  0  3  0  0  0  0  0  0
  189.8890  177.4750  146.6610 C   0  0  0  0  0  3  0  0  0  0  0  0
  189.6300  177.1760  145.3190 C   0  0  0  0  0  0  0  0  0  0  0  0
  191.6820  175.9200  145.1420 C   0  0  0  0  0  3  0  0  0  0  0  0
  190.5150  176.4380  144.5730 C   0  0  0  0  0  0  0  0  0  0  0  0
  188.4710  177.6270  144.5130 C   0  0  2  0  0  3  0  0  0  0  0  0
  191.9520  176.1940  146.4910 C   0  0  0  0  0  3  0  0  0  0  0  0
  191.0600  176.9730  147.2460 C   0  0  0  0  0  3  0  0  0  0  0  0
  187.7120  175.8780  142.9770 O   0  0  0  0  0  1  0  0  0  0  0  0
  190.9510  177.0160  142.1940 C   0  0  0  0  0  2  0  0  0  0  0  0
  190.2090  177.6270  139.8640 C   0  0  0  0  0  3  0  0  0  0  0  0
  190.1420  177.7800  141.1930 C   0  0  0  0  0  3  0  0  0  0  0  0
  191.0340  176.6700  139.1810 N   0  0  0  0  0  0  0  0  0  0  0  0
  190.4870  175.6510  138.2960 C   0  0  0  0  0  1  0  0  0  0  0  0
  192.4720  176.8830  139.1510 C   0  0  0  0  0  2  0  0  0  0  0  0
  193.0690  176.4190  137.8260 C   0  0  0  0  0  2  0  0  0  0  0  0
  193.9830  175.2560  138.0140 C   0  0  0  0  0  0  0  0  0  0  0  0
  193.7580  173.8990  137.1190 S   0  0  0  0  0  0  0  0  0  0  0  0
  195.0300  175.3440  138.9870 N   0  0  0  0  0  2  0  0  0  0  0  0
  196.0560  174.3280  139.1530 C   0  0  0  0  0  1  0  0  0  0  0  0
  187.1490  177.3190  145.2160 C   0  0  0  0  0  2  0  0  0  0  0  0
  186.2330  178.5330  145.1980 C   0  0  1  0  0  3  0  0  0  0  0  0
  185.1350  178.3750  144.1840 C   0  0  1  0  0  3  0  0  0  0  0  0
  183.8650  178.4910  145.0020 C   0  0  0  0  0  2  0  0  0  0  0  0
  185.4970  178.6300  146.5120 C   0  0  0  0  0  2  0  0  0  0  0  0
  184.1840  179.0450  146.2500 O   0  0  0  0  0  0  0  0  0  0  0  0
  185.2190  179.5080  143.1720 C   0  0  0  0  0  2  0  0  0  0  0  0
  185.4320  178.9750  141.7640 C   0  0  0  0  0  2  0  0  0  0  0  0
  184.1620  178.3270  141.2460 C   0  0  0  0  0  1  0  0  0  0  0  0
  1 10  1  1  0  0  0
  1  2  1  0  0  0  0
  1  7  1  0  0  0  0
  2 11  1  6  0  0  0
  2  6  1  0  0  0  0
  3  9  1  0  0  0  0
  4  3  2  0  0  0  0
  5  8  1  0  0  0  0
  6  5  2  0  0  0  0
  6  4  1  0  0  0  0
  7 22  1  1  0  0  0
  7  4  1  0  0  0  0
  8  9  2  0  0  0  0
 12 13  2  0  0  0  0
 13 11  1  0  0  0  0
 14 12  1  0  0  0  0
 15 14  1  0  0  0  0
 16 14  1  0  0  0  0
 17 18  1  0  0  0  0
 17 16  1  0  0  0  0
 18 20  1  0  0  0  0
 19 18  2  0  0  0  0
 20 21  1  0  0  0  0
 23 22  1  1  0  0  0
 23 26  1  0  0  0  0
 24 28  1  6  0  0  0
 24 25  1  0  0  0  0
 24 23  1  0  0  0  0
 25 27  1  0  0  0  0
 27 26  1  0  0  0  0
 29 28  1  0  0  0  0
 30 29  1  0  0  0  0
M  END
>  <MODEL>
2

>  <REMARK>
 VINA RESULT:      -7.6      2.395      3.781
  Name = 
  11 active torsions:
  status: ('A' for Active; 'I' for Inactive)
    1  A    between atoms: C_1  and  C_5
    2  A    between atoms: C_1  and  C_22
    3  A    between atoms: C_2  and  N_18
    4  A    between atoms: N_3  and  C_28
    5  A    between atoms: C_7  and  C_30
    6  A    between atoms: C_10  and  C_25
    7  A    between atoms: C_11  and  C_25
    8  A    between atoms: C_13  and  C_30
    9  A    between atoms: C_14  and  N_18
   10  A    between atoms: C_14  and  C_20
   11  A    between atoms: C_20  and  C_28
                            x       y       z     vdW  Elec       q    Type
                         _______ _______ _______ _____ _____    ______ ____

>  <TORSDO>
F 11

$$$$
=
 OpenBabel11052412273D

 30 32  0  0  1  0  0  0  0  0999 V2000
  188.6380  176.8670  143.2880 C   0  0  2  0  0  3  0  0  0  0  0  0
  190.0430  176.2540  143.3360 C   0  0  2  0  0  3  0  0  0  0  0  0
  189.8010  177.5370  146.7950 C   0  0  0  0  0  3  0  0  0  0  0  0
  189.5690  177.2070  145.4560 C   0  0  0  0  0  0  0  0  0  0  0  0
  191.6380  175.9730  145.3390 C   0  0  0  0  0  3  0  0  0  0  0  0
  190.4750  176.4650  144.7410 C   0  0  0  0  0  0  0  0  0  0  0  0
  188.4180  177.6280  144.6220 C   0  0  2  0  0  3  0  0  0  0  0  0
  191.8820  176.2770  146.6870 C   0  0  0  0  0  3  0  0  0  0  0  0
  190.9680  177.0610  147.4110 C   0  0  0  0  0  3  0  0  0  0  0  0
  187.7060  175.8400  143.1090 O   0  0  0  0  0  1  0  0  0  0  0  0
  190.9450  177.0000  142.3580 C   0  0  0  0  0  2  0  0  0  0  0  0
  190.4610  177.6730  139.9770 C   0  0  0  0  0  3  0  0  0  0  0  0
  190.1480  177.6660  141.2790 C   0  0  0  0  0  3  0  0  0  0  0  0
  191.5890  177.0030  139.3930 N   0  0  0  0  0  0  0  0  0  0  0  0
  192.9590  177.2570  139.8150 C   0  0  0  0  0  1  0  0  0  0  0  0
  191.3520  175.8440  138.5470 C   0  0  0  0  0  2  0  0  0  0  0  0
  189.9340  175.8550  137.9850 C   0  0  0  0  0  2  0  0  0  0  0  0
  189.8830  176.4870  136.6350 C   0  0  0  0  0  0  0  0  0  0  0  0
  190.9600  176.0250  135.4870 S   0  0  0  0  0  0  0  0  0  0  0  0
  188.9040  177.5000  136.3780 N   0  0  0  0  0  2  0  0  0  0  0  0
  188.9930  178.8510  136.9070 C   0  0  0  0  0  1  0  0  0  0  0  0
  187.0880  177.3190  145.3080 C   0  0  0  0  0  2  0  0  0  0  0  0
  186.1660  178.5280  145.2690 C   0  0  1  0  0  3  0  0  0  0  0  0
  185.1190  178.3820  144.2010 C   0  0  1  0  0  3  0  0  0  0  0  0
  183.8110  178.4760  144.9600 C   0  0  0  0  0  2  0  0  0  0  0  0
  185.3680  178.5970  146.5480 C   0  0  0  0  0  2  0  0  0  0  0  0
  184.0670  179.0090  146.2320 O   0  0  0  0  0  0  0  0  0  0  0  0
  185.2430  179.5340  143.2150 C   0  0  0  0  0  2  0  0  0  0  0  0
  185.0880  179.0510  141.7810 C   0  0  0  0  0  2  0  0  0  0  0  0
  186.4460  178.7700  141.1680 C   0  0  0  0  0  1  0  0  0  0  0  0
  1 10  1  1  0  0  0
  1  2  1  0  0  0  0
  1  7  1  0  0  0  0
  2 11  1  6  0  0  0
  2  6  1  0  0  0  0
  3  9  1  0  0  0  0
  4  3  2  0  0  0  0
  5  8  1  0  0  0  0
  6  5  2  0  0  0  0
  6  4  1  0  0  0  0
  7 22  1  1  0  0  0
  7  4  1  0  0  0  0
  8  9  2  0  0  0  0
 12 13  2  0  0  0  0
 13 11  1  0  0  0  0
 14 15  1  0  0  0  0
 14 12  1  0  0  0  0
 16 14  1  0  0  0  0
 17 16  1  0  0  0  0
 18 17  1  0  0  0  0
 19 18  2  0  0  0  0
 20 18  1  0  0  0  0
 20 21  1  0  0  0  0
 23 22  1  1  0  0  0
 23 26  1  0  0  0  0
 24 28  1  6  0  0  0
 24 25  1  0  0  0  0
 24 23  1  0  0  0  0
 25 27  1  0  0  0  0
 27 26  1  0  0  0  0
 29 28  1  0  0  0  0
 30 29  1  0  0  0  0
M  END
>  <MODEL>
3

>  <REMARK>
 VINA RESULT:      -7.5      1.799      2.790
  Name = 
  11 active torsions:
  status: ('A' for Active; 'I' for Inactive)
    1  A    between atoms: C_1  and  C_5
    2  A    between atoms: C_1  and  C_22
    3  A    between atoms: C_2  and  N_18
    4  A    between atoms: N_3  and  C_28
    5  A    between atoms: C_7  and  C_30
    6  A    between atoms: C_10  and  C_25
    7  A    between atoms: C_11  and  C_25
    8  A    between atoms: C_13  and  C_30
    9  A    between atoms: C_14  and  N_18
   10  A    between atoms: C_14  and  C_20
   11  A    between atoms: C_20  and  C_28
                            x       y       z     vdW  Elec       q    Type
                         _______ _______ _______ _____ _____    ______ ____

>  <TORSDO>
F 11

$$$$
=
 OpenBabel11052412273D

 30 32  0  0  1  0  0  0  0  0999 V2000
  185.4430  178.6530  142.1440 C   0  0  2  0  0  3  0  0  0  0  0  0
  184.4300  179.0920  143.2080 C   0  0  2  0  0  3  0  0  0  0  0  0
  186.9680  177.5000  145.3760 C   0  0  0  0  0  3  0  0  0  0  0  0
  186.2290  177.9890  144.2940 C   0  0  0  0  0  0  0  0  0  0  0  0
  184.6050  178.9820  145.7760 C   0  0  0  0  0  3  0  0  0  0  0  0
  185.0650  178.6910  144.4890 C   0  0  0  0  0  0  0  0  0  0  0  0
  186.5190  177.7910  142.8550 C   0  0  2  0  0  3  0  0  0  0  0  0
  185.3410  178.5160  146.8760 C   0  0  0  0  0  3  0  0  0  0  0  0
  186.5170  177.7730  146.6760 C   0  0  0  0  0  3  0  0  0  0  0  0
  185.9920  179.7940  141.5500 O   0  0  0  0  0  1  0  0  0  0  0  0
  183.1170  178.3510  142.9820 C   0  0  0  0  0  2  0  0  0  0  0  0
  180.7810  179.2900  142.8590 C   0  0  0  0  0  3  0  0  0  0  0  0
  181.9500  179.1380  143.4930 C   0  0  0  0  0  3  0  0  0  0  0  0
  180.4340  178.6830  141.6040 N   0  0  0  0  0  0  0  0  0  0  0  0
  179.6670  177.4490  141.5140 C   0  0  0  0  0  1  0  0  0  0  0  0
  180.6140  179.4520  140.3830 C   0  0  0  0  0  2  0  0  0  0  0  0
  181.1100  178.5670  139.2440 C   0  0  0  0  0  2  0  0  0  0  0  0
  182.5910  178.3940  139.2890 C   0  0  0  0  0  0  0  0  0  0  0  0
  183.5630  179.6810  138.9890 S   0  0  0  0  0  0  0  0  0  0  0  0
  183.1310  177.0990  139.5750 N   0  0  0  0  0  2  0  0  0  0  0  0
  182.3790  175.8650  139.4140 C   0  0  0  0  0  1  0  0  0  0  0  0
  187.9580  178.1800  142.5160 C   0  0  0  0  0  2  0  0  0  0  0  0
  188.6890  177.0220  141.8560 C   0  0  1  0  0  3  0  0  0  0  0  0
  189.9420  177.4870  141.1700 C   0  0  1  0  0  3  0  0  0  0  0  0
  191.0410  176.6860  141.8380 C   0  0  0  0  0  2  0  0  0  0  0  0
  189.1920  176.0710  142.9150 C   0  0  0  0  0  2  0  0  0  0  0  0
  190.4590  175.6140  142.5300 O   0  0  0  0  0  0  0  0  0  0  0  0
  189.8620  177.1430  139.6900 C   0  0  0  0  0  2  0  0  0  0  0  0
  189.2880  178.3000  138.8860 C   0  0  0  0  0  2  0  0  0  0  0  0
  187.8770  177.9790  138.4320 C   0  0  0  0  0  1  0  0  0  0  0  0
  1 10  1  1  0  0  0
  1  7  1  0  0  0  0
  1  2  1  0  0  0  0
  2 11  1  6  0  0  0
  2  6  1  0  0  0  0
  3  9  1  0  0  0  0
  4  6  1  0  0  0  0
  4  3  2  0  0  0  0
  5  8  1  0  0  0  0
  6  5  2  0  0  0  0
  7 22  1  1  0  0  0
  7  4  1  0  0  0  0
  9  8  2  0  0  0  0
 11 13  1  0  0  0  0
 12 13  2  0  0  0  0
 14 12  1  0  0  0  0
 15 14  1  0  0  0  0
 16 14  1  0  0  0  0
 17 18  1  0  0  0  0
 17 16  1  0  0  0  0
 18 20  1  0  0  0  0
 19 18  2  0  0  0  0
 21 20  1  0  0  0  0
 23 22  1  1  0  0  0
 23 26  1  0  0  0  0
 24 28  1  6  0  0  0
 24 25  1  0  0  0  0
 24 23  1  0  0  0  0
 25 27  1  0  0  0  0
 27 26  1  0  0  0  0
 29 28  1  0  0  0  0
 30 29  1  0  0  0  0
M  END
>  <MODEL>
4

>  <REMARK>
 VINA RESULT:      -7.4      3.043      6.728
  Name = 
  11 active torsions:
  status: ('A' for Active; 'I' for Inactive)
    1  A    between atoms: C_1  and  C_5
    2  A    between atoms: C_1  and  C_22
    3  A    between atoms: C_2  and  N_18
    4  A    between atoms: N_3  and  C_28
    5  A    between atoms: C_7  and  C_30
    6  A    between atoms: C_10  and  C_25
    7  A    between atoms: C_11  and  C_25
    8  A    between atoms: C_13  and  C_30
    9  A    between atoms: C_14  and  N_18
   10  A    between atoms: C_14  and  C_20
   11  A    between atoms: C_20  and  C_28
                            x       y       z     vdW  Elec       q    Type
                         _______ _______ _______ _____ _____    ______ ____

>  <TORSDO>
F 11

$$$$
=
 OpenBabel11052412273D

 30 32  0  0  1  0  0  0  0  0999 V2000
  186.2860  178.3840  141.7190 C   0  0  2  0  0  3  0  0  0  0  0  0
  185.0030  178.8050  142.4460 C   0  0  2  0  0  3  0  0  0  0  0  0
  186.9840  177.5960  145.3240 C   0  0  0  0  0  3  0  0  0  0  0  0
  186.5230  177.9420  144.0500 C   0  0  0  0  0  0  0  0  0  0  0  0
  184.5050  178.8880  144.9720 C   0  0  0  0  0  3  0  0  0  0  0  0
  185.3050  178.5500  143.8770 C   0  0  0  0  0  0  0  0  0  0  0  0
  187.1930  177.6710  142.7560 C   0  0  2  0  0  3  0  0  0  0  0  0
  184.9560  178.5660  146.2610 C   0  0  0  0  0  3  0  0  0  0  0  0
  186.1900  177.9180  146.4350 C   0  0  0  0  0  3  0  0  0  0  0  0
  186.8940  179.5250  141.1860 O   0  0  0  0  0  1  0  0  0  0  0  0
  183.8470  177.9370  141.9580 C   0  0  0  0  0  2  0  0  0  0  0  0
  182.8780  178.6710  139.7500 C   0  0  0  0  0  3  0  0  0  0  0  0
  182.9100  178.7150  141.0870 C   0  0  0  0  0  3  0  0  0  0  0  0
  183.7080  177.8330  138.9290 N   0  0  0  0  0  0  0  0  0  0  0  0
  183.2640  176.5420  138.4230 C   0  0  0  0  0  1  0  0  0  0  0  0
  184.9210  178.3970  138.3570 C   0  0  0  0  0  2  0  0  0  0  0  0
  185.5560  177.4350  137.3590 C   0  0  0  0  0  2  0  0  0  0  0  0
  187.0380  177.3750  137.5210 C   0  0  0  0  0  0  0  0  0  0  0  0
  187.8210  175.9560  137.2680 S   0  0  0  0  0  0  0  0  0  0  0  0
  187.7420  178.5580  137.9140 N   0  0  0  0  0  2  0  0  0  0  0  0
  188.9150  179.0600  137.2160 C   0  0  0  0  0  1  0  0  0  0  0  0
  188.6410  178.1610  142.7640 C   0  0  0  0  0  2  0  0  0  0  0  0
  189.5770  177.0880  142.2300 C   0  0  1  0  0  3  0  0  0  0  0  0
  191.0170  177.4820  142.4060 C   0  0  1  0  0  3  0  0  0  0  0  0
  191.5980  176.3660  143.2490 C   0  0  0  0  0  2  0  0  0  0  0  0
  189.4420  175.8380  143.0640 C   0  0  0  0  0  2  0  0  0  0  0  0
  190.7160  175.2760  143.2220 O   0  0  0  0  0  0  0  0  0  0  0  0
  191.6950  177.5250  141.0450 C   0  0  0  0  0  2  0  0  0  0  0  0
  190.6900  177.3290  139.9210 C   0  0  0  0  0  2  0  0  0  0  0  0
  191.2200  176.3350  138.9050 C   0  0  0  0  0  1  0  0  0  0  0  0
  1 10  1  1  0  0  0
  1  2  1  0  0  0  0
  1  7  1  0  0  0  0
  2 11  1  6  0  0  0
  2  6  1  0  0  0  0
  3  9  1  0  0  0  0
  4  3  2  0  0  0  0
  5  8  1  0  0  0  0
  6  4  1  0  0  0  0
  6  5  2  0  0  0  0
  7 22  1  1  0  0  0
  7  4  1  0  0  0  0
  8  9  2  0  0  0  0
 12 13  2  0  0  0  0
 13 11  1  0  0  0  0
 14 12  1  0  0  0  0
 15 14  1  0  0  0  0
 16 14  1  0  0  0  0
 17 18  1  0  0  0  0
 17 16  1  0  0  0  0
 18 20  1  0  0  0  0
 19 18  2  0  0  0  0
 21 20  1  0  0  0  0
 23 24  1  0  0  0  0
 23 22  1  1  0  0  0
 23 26  1  0  0  0  0
 24 28  1  6  0  0  0
 24 25  1  0  0  0  0
 26 27  1  0  0  0  0
 27 25  1  0  0  0  0
 29 28  1  0  0  0  0
 30 29  1  0  0  0  0
M  END
>  <MODEL>
5

>  <REMARK>
 VINA RESULT:      -7.4      2.117      5.830
  Name = 
  11 active torsions:
  status: ('A' for Active; 'I' for Inactive)
    1  A    between atoms: C_1  and  C_5
    2  A    between atoms: C_1  and  C_22
    3  A    between atoms: C_2  and  N_18
    4  A    between atoms: N_3  and  C_28
    5  A    between atoms: C_7  and  C_30
    6  A    between atoms: C_10  and  C_25
    7  A    between atoms: C_11  and  C_25
    8  A    between atoms: C_13  and  C_30
    9  A    between atoms: C_14  and  N_18
   10  A    between atoms: C_14  and  C_20
   11  A    between atoms: C_20  and  C_28
                            x       y       z     vdW  Elec       q    Type
                         _______ _______ _______ _____ _____    ______ ____

>  <TORSDO>
F 11

$$$$
=
 OpenBabel11052412273D

 30 32  0  0  1  0  0  0  0  0999 V2000
  189.3540  177.8110  143.4840 C   0  0  2  0  0  3  0  0  0  0  0  0
  189.1340  178.1060  141.9960 C   0  0  2  0  0  3  0  0  0  0  0  0
  185.6190  177.9730  143.1350 C   0  0  0  0  0  3  0  0  0  0  0  0
  187.0140  177.9360  143.0470 C   0  0  0  0  0  0  0  0  0  0  0  0
  186.9470  178.6250  140.7370 C   0  0  0  0  0  3  0  0  0  0  0  0
  187.6590  178.2310  141.8720 C   0  0  0  0  0  0  0  0  0  0  0  0
  187.9630  177.5370  144.1140 C   0  0  2  0  0  3  0  0  0  0  0  0
  185.5470  178.6860  140.8070 C   0  0  0  0  0  3  0  0  0  0  0  0
  184.8850  178.3560  142.0020 C   0  0  0  0  0  3  0  0  0  0  0  0
  189.9890  178.9110  144.0700 O   0  0  0  0  0  1  0  0  0  0  0  0
  189.6640  176.9360  141.1730 C   0  0  0  0  0  2  0  0  0  0  0  0
  191.5160  177.0230  139.4650 C   0  0  0  0  0  3  0  0  0  0  0  0
  191.0690  177.1810  140.7170 C   0  0  0  0  0  3  0  0  0  0  0  0
  190.7100  176.6380  138.3400 N   0  0  0  0  0  0  0  0  0  0  0  0
  190.5560  175.2520  137.9220 C   0  0  0  0  0  1  0  0  0  0  0  0
  189.8040  177.6180  137.7620 C   0  0  0  0  0  2  0  0  0  0  0  0
  188.3600  177.1320  137.8170 C   0  0  0  0  0  2  0  0  0  0  0  0
  187.6190  177.4690  136.5670 C   0  0  0  0  0  0  0  0  0  0  0  0
  188.3830  177.3540  135.1200 S   0  0  0  0  0  0  0  0  0  0  0  0
  186.2590  177.9050  136.6610 N   0  0  0  0  0  2  0  0  0  0  0  0
  185.2040  177.1100  137.2700 C   0  0  0  0  0  1  0  0  0  0  0  0
  187.7000  178.3030  145.4100 C   0  0  0  0  0  2  0  0  0  0  0  0
  188.0030  177.4340  146.6210 C   0  0  1  0  0  3  0  0  0  0  0  0
  189.4110  177.6420  147.1050 C   0  0  1  0  0  3  0  0  0  0  0  0
  189.2380  178.0970  148.5390 C   0  0  0  0  0  2  0  0  0  0  0  0
  187.1540  177.8780  147.7870 C   0  0  0  0  0  2  0  0  0  0  0  0
  187.9300  177.8020  148.9510 O   0  0  0  0  0  0  0  0  0  0  0  0
  190.1590  176.3190  147.0550 C   0  0  0  0  0  2  0  0  0  0  0  0
  191.6070  176.5200  146.6350 C   0  0  0  0  0  2  0  0  0  0  0  0
  192.5230  175.6280  147.4510 C   0  0  0  0  0  1  0  0  0  0  0  0
  1 10  1  1  0  0  0
  1  7  1  0  0  0  0
  2 11  1  6  0  0  0
  2  1  1  0  0  0  0
  4  3  1  0  0  0  0
  4  7  1  0  0  0  0
  5  8  2  0  0  0  0
  5  6  1  0  0  0  0
  6  2  1  0  0  0  0
  6  4  2  0  0  0  0
  7 22  1  1  0  0  0
  8  9  1  0  0  0  0
  9  3  2  0  0  0  0
 12 13  2  0  0  0  0
 13 11  1  0  0  0  0
 14 12  1  0  0  0  0
 15 14  1  0  0  0  0
 16 17  1  0  0  0  0
 16 14  1  0  0  0  0
 18 20  1  0  0  0  0
 18 17  1  0  0  0  0
 19 18  2  0  0  0  0
 20 21  1  0  0  0  0
 23 22  1  6  0  0  0
 23 24  1  0  0  0  0
 23 26  1  0  0  0  0
 24 28  1  1  0  0  0
 24 25  1  0  0  0  0
 25 27  1  0  0  0  0
 26 27  1  0  0  0  0
 29 28  1  0  0  0  0
 29 30  1  0  0  0  0
M  END
>  <MODEL>
6

>  <REMARK>
 VINA RESULT:      -7.1      2.316      5.659
  Name = 
  11 active torsions:
  status: ('A' for Active; 'I' for Inactive)
    1  A    between atoms: C_1  and  C_5
    2  A    between atoms: C_1  and  C_22
    3  A    between atoms: C_2  and  N_18
    4  A    between atoms: N_3  and  C_28
    5  A    between atoms: C_7  and  C_30
    6  A    between atoms: C_10  and  C_25
    7  A    between atoms: C_11  and  C_25
    8  A    between atoms: C_13  and  C_30
    9  A    between atoms: C_14  and  N_18
   10  A    between atoms: C_14  and  C_20
   11  A    between atoms: C_20  and  C_28
                            x       y       z     vdW  Elec       q    Type
                         _______ _______ _______ _____ _____    ______ ____

>  <TORSDO>
F 11

$$$$
=
 OpenBabel11052412273D

 30 32  0  0  1  0  0  0  0  0999 V2000
  185.3360  178.6100  142.2260 C   0  0  2  0  0  3  0  0  0  0  0  0
  184.3630  179.0430  143.3290 C   0  0  2  0  0  3  0  0  0  0  0  0
  187.0580  177.5930  145.4050 C   0  0  0  0  0  3  0  0  0  0  0  0
  186.2500  178.0290  144.3500 C   0  0  0  0  0  0  0  0  0  0  0  0
  184.6680  179.0060  145.8870 C   0  0  0  0  0  3  0  0  0  0  0  0
  185.0740  178.6960  144.5860 C   0  0  0  0  0  0  0  0  0  0  0  0
  186.4750  177.8030  142.9030 C   0  0  2  0  0  3  0  0  0  0  0  0
  185.4730  178.5940  146.9600 C   0  0  0  0  0  3  0  0  0  0  0  0
  186.6620  177.8850  146.7180 C   0  0  0  0  0  3  0  0  0  0  0  0
  185.8160  179.7530  141.5770 O   0  0  0  0  0  1  0  0  0  0  0  0
  183.0660  178.2530  143.1870 C   0  0  0  0  0  2  0  0  0  0  0  0
  180.8130  179.3300  142.8480 C   0  0  0  0  0  3  0  0  0  0  0  0
  181.8820  179.0660  143.6090 C   0  0  0  0  0  3  0  0  0  0  0  0
  180.6020  178.8370  141.5160 N   0  0  0  0  0  0  0  0  0  0  0  0
  181.1670  179.4830  140.3400 C   0  0  0  0  0  1  0  0  0  0  0  0
  180.0380  177.5070  141.3450 C   0  0  0  0  0  2  0  0  0  0  0  0
  179.9480  177.1340  139.8690 C   0  0  0  0  0  2  0  0  0  0  0  0
  180.7300  175.9000  139.5660 C   0  0  0  0  0  0  0  0  0  0  0  0
  182.3540  176.0030  139.3620 S   0  0  0  0  0  0  0  0  0  0  0  0
  180.0380  174.6520  139.4420 N   0  0  0  0  0  2  0  0  0  0  0  0
  179.3900  173.9820  140.5580 C   0  0  0  0  0  1  0  0  0  0  0  0
  187.8810  178.2300  142.4830 C   0  0  0  0  0  2  0  0  0  0  0  0
  188.6130  177.0850  141.8000 C   0  0  1  0  0  3  0  0  0  0  0  0
  189.7910  177.5830  141.0120 C   0  0  1  0  0  3  0  0  0  0  0  0
  190.9690  176.8470  141.6170 C   0  0  0  0  0  2  0  0  0  0  0  0
  189.2310  176.1860  142.8420 C   0  0  0  0  0  2  0  0  0  0  0  0
  190.4860  175.7720  142.3760 O   0  0  0  0  0  0  0  0  0  0  0  0
  189.6180  177.1950  139.5510 C   0  0  0  0  0  2  0  0  0  0  0  0
  189.0900  178.3600  138.7290 C   0  0  0  0  0  2  0  0  0  0  0  0
  189.4160  178.1630  137.2610 C   0  0  0  0  0  1  0  0  0  0  0  0
  1 10  1  1  0  0  0
  1  7  1  0  0  0  0
  1  2  1  0  0  0  0
  2 11  1  6  0  0  0
  2  6  1  0  0  0  0
  3  9  1  0  0  0  0
  4  6  1  0  0  0  0
  4  3  2  0  0  0  0
  5  8  1  0  0  0  0
  6  5  2  0  0  0  0
  7 22  1  6  0  0  0
  7  4  1  0  0  0  0
  9  8  2  0  0  0  0
 11 13  1  0  0  0  0
 12 13  2  0  0  0  0
 14 12  1  0  0  0  0
 15 14  1  0  0  0  0
 16 14  1  0  0  0  0
 17 16  1  0  0  0  0
 18 17  1  0  0  0  0
 19 18  2  0  0  0  0
 20 18  1  0  0  0  0
 20 21  1  0  0  0  0
 23 22  1  1  0  0  0
 23 26  1  0  0  0  0
 24 28  1  6  0  0  0
 24 25  1  0  0  0  0
 24 23  1  0  0  0  0
 25 27  1  0  0  0  0
 27 26  1  0  0  0  0
 29 28  1  0  0  0  0
 30 29  1  0  0  0  0
M  END
>  <MODEL>
7

>  <REMARK>
 VINA RESULT:      -7.0      3.502      7.103
  Name = 
  11 active torsions:
  status: ('A' for Active; 'I' for Inactive)
    1  A    between atoms: C_1  and  C_5
    2  A    between atoms: C_1  and  C_22
    3  A    between atoms: C_2  and  N_18
    4  A    between atoms: N_3  and  C_28
    5  A    between atoms: C_7  and  C_30
    6  A    between atoms: C_10  and  C_25
    7  A    between atoms: C_11  and  C_25
    8  A    between atoms: C_13  and  C_30
    9  A    between atoms: C_14  and  N_18
   10  A    between atoms: C_14  and  C_20
   11  A    between atoms: C_20  and  C_28
                            x       y       z     vdW  Elec       q    Type
                         _______ _______ _______ _____ _____    ______ ____

>  <TORSDO>
F 11

$$$$
=
 OpenBabel11052412273D

 30 32  0  0  1  0  0  0  0  0999 V2000
  188.1560  177.7830  142.3710 C   0  0  2  0  0  3  0  0  0  0  0  0
  188.1670  178.0630  143.8790 C   0  0  2  0  0  3  0  0  0  0  0  0
  191.2560  176.0510  143.5930 C   0  0  0  0  0  3  0  0  0  0  0  0
  190.0630  176.7390  143.3490 C   0  0  0  0  0  0  0  0  0  0  0  0
  189.9720  177.5120  145.6320 C   0  0  0  0  0  3  0  0  0  0  0  0
  189.4260  177.4310  144.3480 C   0  0  0  0  0  0  0  0  0  0  0  0
  189.3030  176.7810  142.0770 C   0  0  2  0  0  3  0  0  0  0  0  0
  191.1770  176.8440  145.8940 C   0  0  0  0  0  3  0  0  0  0  0  0
  191.8150  176.1120  144.8780 C   0  0  0  0  0  3  0  0  0  0  0  0
  188.3260  178.9920  141.6890 O   0  0  0  0  0  1  0  0  0  0  0  0
  186.9440  177.4100  144.5150 C   0  0  0  0  0  2  0  0  0  0  0  0
  185.1750  178.9630  145.4160 C   0  0  0  0  0  3  0  0  0  0  0  0
  186.3290  178.2980  145.5520 C   0  0  0  0  0  3  0  0  0  0  0  0
  184.3110  178.8970  144.2700 N   0  0  0  0  0  0  0  0  0  0  0  0
  182.8700  178.7280  144.3820 C   0  0  0  0  0  1  0  0  0  0  0  0
  184.8430  179.2800  142.9720 C   0  0  0  0  0  2  0  0  0  0  0  0
  184.7040  178.1440  141.9640 C   0  0  0  0  0  2  0  0  0  0  0  0
  183.9330  178.5700  140.7600 C   0  0  0  0  0  0  0  0  0  0  0  0
  182.4980  177.8500  140.4230 S   0  0  0  0  0  0  0  0  0  0  0  0
  184.4760  179.5890  139.9130 N   0  0  0  0  0  2  0  0  0  0  0  0
  183.7420  180.1860  138.8090 C   0  0  0  0  0  1  0  0  0  0  0  0
  190.1980  177.1800  140.9040 C   0  0  0  0  0  2  0  0  0  0  0  0
  189.6440  176.6410  139.5940 C   0  0  1  0  0  3  0  0  0  0  0  0
  189.1320  177.7510  138.7210 C   0  0  1  0  0  3  0  0  0  0  0  0
  189.9430  177.6160  137.4480 C   0  0  0  0  0  2  0  0  0  0  0  0
  190.7630  176.0340  138.7840 C   0  0  0  0  0  2  0  0  0  0  0  0
  190.5520  176.3530  137.4360 O   0  0  0  0  0  0  0  0  0  0  0  0
  187.6550  177.5230  138.4340 C   0  0  0  0  0  2  0  0  0  0  0  0
  187.1660  178.4240  137.3100 C   0  0  0  0  0  2  0  0  0  0  0  0
  186.3630  177.6230  136.3020 C   0  0  0  0  0  1  0  0  0  0  0  0
  1 10  1  6  0  0  0
  1  2  1  0  0  0  0
  2  6  1  0  0  0  0
  2 11  1  1  0  0  0
  3  9  1  0  0  0  0
  4  3  2  0  0  0  0
  4  6  1  0  0  0  0
  5  8  1  0  0  0  0
  6  5  2  0  0  0  0
  7 22  1  6  0  0  0
  7  1  1  0  0  0  0
  7  4  1  0  0  0  0
  9  8  2  0  0  0  0
 11 13  1  0  0  0  0
 12 13  2  0  0  0  0
 14 15  1  0  0  0  0
 14 12  1  0  0  0  0
 16 14  1  0  0  0  0
 17 16  1  0  0  0  0
 18 17  1  0  0  0  0
 19 18  2  0  0  0  0
 20 18  1  0  0  0  0
 21 20  1  0  0  0  0
 23 22  1  1  0  0  0
 24 28  1  6  0  0  0
 24 23  1  0  0  0  0
 25 24  1  0  0  0  0
 26 23  1  0  0  0  0
 27 25  1  0  0  0  0
 27 26  1  0  0  0  0
 29 28  1  0  0  0  0
 30 29  1  0  0  0  0
M  END
>  <MODEL>
8

>  <REMARK>
 VINA RESULT:      -6.9      2.858      5.872
  Name = 
  11 active torsions:
  status: ('A' for Active; 'I' for Inactive)
    1  A    between atoms: C_1  and  C_5
    2  A    between atoms: C_1  and  C_22
    3  A    between atoms: C_2  and  N_18
    4  A    between atoms: N_3  and  C_28
    5  A    between atoms: C_7  and  C_30
    6  A    between atoms: C_10  and  C_25
    7  A    between atoms: C_11  and  C_25
    8  A    between atoms: C_13  and  C_30
    9  A    between atoms: C_14  and  N_18
   10  A    between atoms: C_14  and  C_20
   11  A    between atoms: C_20  and  C_28
                            x       y       z     vdW  Elec       q    Type
                         _______ _______ _______ _____ _____    ______ ____

>  <TORSDO>
F 11

$$$$
=
 OpenBabel11052412273D

 30 32  0  0  1  0  0  0  0  0999 V2000
  186.9350  177.5010  142.3090 C   0  0  2  0  0  3  0  0  0  0  0  0
  185.9040  178.4230  142.9710 C   0  0  2  0  0  3  0  0  0  0  0  0
  187.6110  177.1280  145.9850 C   0  0  0  0  0  3  0  0  0  0  0  0
  187.1900  177.3920  144.6770 C   0  0  0  0  0  0  0  0  0  0  0  0
  185.6410  179.0720  145.4500 C   0  0  0  0  0  3  0  0  0  0  0  0
  186.2140  178.3220  144.4190 C   0  0  0  0  0  0  0  0  0  0  0  0
  187.6460  176.7130  143.4410 C   0  0  2  0  0  3  0  0  0  0  0  0
  186.0620  178.8370  146.7680 C   0  0  0  0  0  3  0  0  0  0  0  0
  187.0400  177.8640  147.0340 C   0  0  0  0  0  3  0  0  0  0  0  0
  187.8290  178.2840  141.5710 O   0  0  0  0  0  1  0  0  0  0  0  0
  184.5030  177.9040  142.6640 C   0  0  0  0  0  2  0  0  0  0  0  0
  183.1860  178.9970  140.8130 C   0  0  0  0  0  3  0  0  0  0  0  0
  183.6410  178.9760  142.0720 C   0  0  0  0  0  3  0  0  0  0  0  0
  183.4100  177.9700  139.8340 N   0  0  0  0  0  0  0  0  0  0  0  0
  182.7500  176.6730  139.8910 C   0  0  0  0  0  1  0  0  0  0  0  0
  184.1020  178.3170  138.6030 C   0  0  0  0  0  2  0  0  0  0  0  0
  185.5930  178.5220  138.8500 C   0  0  0  0  0  2  0  0  0  0  0  0
  186.4090  178.0700  137.6850 C   0  0  0  0  0  0  0  0  0  0  0  0
  185.8490  176.8620  136.7270 S   0  0  0  0  0  0  0  0  0  0  0  0
  187.6750  178.6920  137.4410 N   0  0  0  0  0  2  0  0  0  0  0  0
  188.7920  178.6260  138.3710 C   0  0  0  0  0  1  0  0  0  0  0  0
  189.1710  176.7070  143.3370 C   0  0  0  0  0  2  0  0  0  0  0  0
  189.7840  177.6700  144.3420 C   0  0  1  0  0  3  0  0  0  0  0  0
  191.1490  177.2130  144.7740 C   0  0  1  0  0  3  0  0  0  0  0  0
  192.0550  178.3680  144.3980 C   0  0  0  0  0  2  0  0  0  0  0  0
  190.0450  178.9990  143.6750 C   0  0  0  0  0  2  0  0  0  0  0  0
  191.2630  179.4990  144.1540 O   0  0  0  0  0  0  0  0  0  0  0  0
  191.1550  177.0040  146.2810 C   0  0  0  0  0  2  0  0  0  0  0  0
  192.0480  175.8380  146.6730 C   0  0  0  0  0  2  0  0  0  0  0  0
  192.5350  176.0010  148.1000 C   0  0  0  0  0  1  0  0  0  0  0  0
  1 10  1  1  0  0  0
  1  2  1  0  0  0  0
  1  7  1  0  0  0  0
  2 11  1  1  0  0  0
  2  6  1  0  0  0  0
  3  9  1  0  0  0  0
  4  3  2  0  0  0  0
  5  8  1  0  0  0  0
  6  4  1  0  0  0  0
  6  5  2  0  0  0  0
  7 22  1  6  0  0  0
  7  4  1  0  0  0  0
  8  9  2  0  0  0  0
 12 13  2  0  0  0  0
 13 11  1  0  0  0  0
 14 15  1  0  0  0  0
 14 12  1  0  0  0  0
 16 17  1  0  0  0  0
 16 14  1  0  0  0  0
 18 17  1  0  0  0  0
 19 18  2  0  0  0  0
 20 18  1  0  0  0  0
 20 21  1  0  0  0  0
 23 22  1  6  0  0  0
 23 24  1  0  0  0  0
 24 28  1  1  0  0  0
 25 24  1  0  0  0  0
 26 27  1  0  0  0  0
 26 23  1  0  0  0  0
 27 25  1  0  0  0  0
 28 29  1  0  0  0  0
 29 30  1  0  0  0  0
M  END
>  <MODEL>
9

>  <REMARK>
 VINA RESULT:      -6.8      2.293      6.244
  Name = 
  11 active torsions:
  status: ('A' for Active; 'I' for Inactive)
    1  A    between atoms: C_1  and  C_5
    2  A    between atoms: C_1  and  C_22
    3  A    between atoms: C_2  and  N_18
    4  A    between atoms: N_3  and  C_28
    5  A    between atoms: C_7  and  C_30
    6  A    between atoms: C_10  and  C_25
    7  A    between atoms: C_11  and  C_25
    8  A    between atoms: C_13  and  C_30
    9  A    between atoms: C_14  and  N_18
   10  A    between atoms: C_14  and  C_20
   11  A    between atoms: C_20  and  C_28
                            x       y       z     vdW  Elec       q    Type
                         _______ _______ _______ _____ _____    ______ ____

>  <TORSDO>
F 11

$$$$
