=
 OpenBabel11052412343D

 30 35  0  0  1  0  0  0  0  0999 V2000
  185.5960  178.4210  141.7000 C   0  0  0  0  0  0  0  0  0  0  0  0
  185.1700  178.9990  144.1550 C   0  0  1  0  0  3  0  0  0  0  0  0
  188.0050  176.4850  143.2930 C   0  0  1  0  0  3  0  0  0  0  0  0
  186.4420  178.3350  140.5730 C   0  0  0  0  0  0  0  0  0  0  0  0
  184.2100  178.2600  141.5290 C   0  0  0  0  0  3  0  0  0  0  0  0
  183.7840  177.8070  137.8600 C   0  0  0  0  0  2  0  0  0  0  0  0
  187.3180  178.9270  137.4290 C   0  0  0  0  0  3  0  0  0  0  0  0
  184.5130  177.9550  139.1520 C   0  0  0  0  0  0  0  0  0  0  0  0
  181.9410  177.8930  139.9360 S   0  0  0  0  0  0  0  0  0  0  0  0
  189.9740  177.4140  140.1200 C   0  0  0  0  0  2  0  0  0  0  0  0
  189.0260  177.2800  142.4770 C   0  0  1  0  0  3  0  0  0  0  0  0
  183.6840  178.0660  140.2570 C   0  0  0  0  0  0  0  0  0  0  0  0
  185.9120  178.0120  139.3000 C   0  0  0  0  0  0  0  0  0  0  0  0
  185.5690  178.9660  145.6310 C   0  0  0  0  0  3  0  0  0  0  0  0
  189.6680  177.4270  138.6270 C   0  0  0  0  0  2  0  0  0  0  0  0
  188.5800  179.3710  137.4620 C   0  0  0  0  0  3  0  0  0  0  0  0
  181.6330  178.8750  137.4260 C   0  0  0  0  0  2  0  0  0  0  0  0
  184.7050  180.4090  143.8330 C   0  0  0  0  0  1  0  0  0  0  0  0
  187.6840  177.3280  144.5040 C   0  0  2  0  0  3  0  0  0  0  0  0
  186.2900  178.0410  146.3100 C   0  0  0  0  0  3  0  0  0  0  0  0
  182.3510  178.0640  138.1970 C   0  0  0  0  0  0  0  0  0  0  0  0
  186.1990  178.5070  143.0900 C   0  0  1  0  0  3  0  0  0  0  0  0
  187.9040  178.6210  140.7330 C   0  0  0  0  0  2  0  0  0  0  0  0
  190.2910  176.7310  142.7060 O   0  0  0  0  0  1  0  0  0  0  0  0
  188.7010  177.3510  140.9740 C   0  0  1  0  0  3  0  0  0  0  0  0
  189.6540  178.7660  138.1400 O   0  0  0  0  0  0  0  0  0  0  0  0
  186.4130  176.3640  137.0840 Cl  0  0  0  0  0  0  0  0  0  0  0  0
  186.9520  176.8260  145.7130 C   0  0  0  0  0  2  0  0  0  0  0  0
  186.6190  177.1020  143.4620 C   0  0  1  0  0  3  0  0  0  0  0  0
  186.8580  177.7160  138.1620 C   0  0  1  0  0  3  0  0  0  0  0  0
  1 22  1  0  0  0  0
  2 18  1  6  0  0  0
  2 14  1  0  0  0  0
  3 29  1  0  0  0  0
  3 19  1  0  0  0  0
  4 23  1  0  0  0  0
  4  1  2  0  0  0  0
  5  1  1  0  0  0  0
  6 21  1  0  0  0  0
  6  8  1  0  0  0  0
  7 16  2  0  0  0  0
  7 30  1  0  0  0  0
  8 13  2  0  0  0  0
  8 12  1  0  0  0  0
  9 12  1  0  0  0  0
 10 25  1  0  0  0  0
 11 24  1  0  0  0  0
 11  3  1  0  0  0  0
 12  5  2  0  0  0  0
 13  4  1  0  0  0  0
 14 20  2  0  0  0  0
 15 10  1  0  0  0  0
 16 26  1  0  0  0  0
 17 21  2  0  0  0  0
 19 28  1  0  0  0  0
 21  9  1  0  0  0  0
 22 29  1  0  0  0  0
 22  2  1  0  0  0  0
 23 25  1  0  0  0  0
 25 11  1  0  0  0  0
 26 15  1  0  0  0  0
 27 30  1  0  0  0  0
 28 20  1  0  0  0  0
 29 19  1  0  0  0  0
 30 13  1  0  0  0  0
M  END
>  <MODEL>
1

>  <REMARK>
 VINA RESULT:      -8.5      0.000      0.000
  Name = 
  0 active torsions:
  status: ('A' for Active; 'I' for Inactive)
                            x       y       z     vdW  Elec       q    Type
                         _______ _______ _______ _____ _____    ______ ____

>  <TORSDO>
F 0

$$$$
=
 OpenBabel11052412343D

 30 35  0  0  1  0  0  0  0  0999 V2000
  186.3690  177.8760  142.2710 C   0  0  0  0  0  0  0  0  0  0  0  0
  187.8350  177.1060  144.2210 C   0  0  1  0  0  3  0  0  0  0  0  0
  184.9370  179.5960  144.9310 C   0  0  1  0  0  3  0  0  0  0  0  0
  185.1120  178.0310  141.6480 C   0  0  0  0  0  0  0  0  0  0  0  0
  187.5370  178.0940  141.5180 C   0  0  0  0  0  3  0  0  0  0  0  0
  186.2950  178.8680  138.0970 C   0  0  0  0  0  2  0  0  0  0  0  0
  182.9260  177.6800  139.1770 C   0  0  0  0  0  3  0  0  0  0  0  0
  186.2140  178.5890  139.5590 C   0  0  0  0  0  0  0  0  0  0  0  0
  188.8670  178.6640  139.1250 S   0  0  0  0  0  0  0  0  0  0  0  0
  181.7550  178.8780  142.8900 C   0  0  0  0  0  2  0  0  0  0  0  0
  183.6520  178.8410  144.5850 C   0  0  1  0  0  3  0  0  0  0  0  0
  187.4460  178.4110  140.1680 C   0  0  0  0  0  0  0  0  0  0  0  0
  185.0250  178.4760  140.3060 C   0  0  0  0  0  0  0  0  0  0  0  0
  188.1330  177.0020  145.7160 C   0  0  0  0  0  3  0  0  0  0  0  0
  181.3670  179.0010  141.4210 C   0  0  0  0  0  2  0  0  0  0  0  0
  181.8050  177.1970  139.7260 C   0  0  0  0  0  3  0  0  0  0  0  0
  188.0190  177.9070  136.6620 C   0  0  0  0  0  2  0  0  0  0  0  0
  188.0940  175.7430  143.6020 C   0  0  0  0  0  1  0  0  0  0  0  0
  185.7540  178.6630  145.7950 C   0  0  2  0  0  3  0  0  0  0  0  0
  187.7970  177.8440  146.7250 C   0  0  0  0  0  3  0  0  0  0  0  0
  187.7260  178.6270  137.7400 C   0  0  0  0  0  0  0  0  0  0  0  0
  186.4450  177.6540  143.7700 C   0  0  1  0  0  3  0  0  0  0  0  0
  183.8700  177.6870  142.4120 C   0  0  0  0  0  2  0  0  0  0  0  0
  182.6250  179.3300  145.3980 O   0  0  0  0  0  1  0  0  0  0  0  0
  183.2760  178.9070  143.0940 C   0  0  1  0  0  3  0  0  0  0  0  0
  181.1490  177.7080  140.8610 O   0  0  0  0  0  0  0  0  0  0  0  0
  183.6090  180.2900  138.6980 Cl  0  0  0  0  0  0  0  0  0  0  0  0
  186.9510  179.0840  146.5940 C   0  0  0  0  0  2  0  0  0  0  0  0
  186.2480  179.0100  144.4130 C   0  0  1  0  0  3  0  0  0  0  0  0
  183.6750  178.8390  139.7360 C   0  0  1  0  0  3  0  0  0  0  0  0
  1 22  1  0  0  0  0
  2 18  1  1  0  0  0
  2 14  1  0  0  0  0
  3 19  1  0  0  0  0
  4  1  1  0  0  0  0
  4 23  1  0  0  0  0
  5  1  2  0  0  0  0
  6  8  1  0  0  0  0
  7 16  2  0  0  0  0
  7 30  1  0  0  0  0
  8 12  2  0  0  0  0
  8 13  1  0  0  0  0
  9 12  1  0  0  0  0
 10 25  1  0  0  0  0
 11  3  1  0  0  0  0
 11 24  1  0  0  0  0
 12  5  1  0  0  0  0
 13  4  2  0  0  0  0
 14 20  2  0  0  0  0
 15 10  1  0  0  0  0
 16 26  1  0  0  0  0
 17 21  2  0  0  0  0
 19 28  1  0  0  0  0
 21  6  1  0  0  0  0
 21  9  1  0  0  0  0
 22  2  1  0  0  0  0
 22 29  1  0  0  0  0
 23 25  1  0  0  0  0
 25 11  1  0  0  0  0
 26 15  1  0  0  0  0
 27 30  1  0  0  0  0
 28 20  1  0  0  0  0
 29  3  1  0  0  0  0
 29 19  1  0  0  0  0
 30 13  1  0  0  0  0
M  END
>  <MODEL>
2

>  <REMARK>
 VINA RESULT:      -6.8      3.035      5.108
  Name = 
  0 active torsions:
  status: ('A' for Active; 'I' for Inactive)
                            x       y       z     vdW  Elec       q    Type
                         _______ _______ _______ _____ _____    ______ ____

>  <TORSDO>
F 0

$$$$
=
 OpenBabel11052412343D

 30 35  0  0  1  0  0  0  0  0999 V2000
  183.3000  177.5650  139.6940 C   0  0  0  0  0  0  0  0  0  0  0  0
  181.9660  178.7100  141.5520 C   0  0  1  0  0  3  0  0  0  0  0  0
  185.7270  177.9380  142.1540 C   0  0  1  0  0  3  0  0  0  0  0  0
  184.3870  177.5160  138.7940 C   0  0  0  0  0  0  0  0  0  0  0  0
  182.2400  176.6540  139.5360 C   0  0  0  0  0  3  0  0  0  0  0  0
  183.1490  174.7040  136.5000 C   0  0  0  0  0  2  0  0  0  0  0  0
  185.7950  177.2420  135.8030 C   0  0  0  0  0  3  0  0  0  0  0  0
  183.3260  175.6830  137.6090 C   0  0  0  0  0  0  0  0  0  0  0  0
  180.9350  174.5900  138.1730 S   0  0  0  0  0  0  0  0  0  0  0  0
  187.9270  178.4810  139.0450 C   0  0  0  0  0  2  0  0  0  0  0  0
  186.4890  178.7720  141.1220 C   0  0  1  0  0  3  0  0  0  0  0  0
  182.2490  175.7520  138.4780 C   0  0  0  0  0  0  0  0  0  0  0  0
  184.4490  176.5130  137.7970 C   0  0  0  0  0  0  0  0  0  0  0  0
  181.8880  179.4480  142.8890 C   0  0  0  0  0  3  0  0  0  0  0  0
  188.0980  177.7690  137.7080 C   0  0  0  0  0  2  0  0  0  0  0  0
  186.6660  178.2520  135.6990 C   0  0  0  0  0  3  0  0  0  0  0  0
  180.9800  174.2360  135.4840 C   0  0  0  0  0  2  0  0  0  0  0  0
  181.0510  179.4260  140.5740 C   0  0  0  0  0  1  0  0  0  0  0  0
  184.7320  178.8730  142.8010 C   0  0  2  0  0  3  0  0  0  0  0  0
  182.7060  179.3720  143.9670 C   0  0  0  0  0  3  0  0  0  0  0  0
  181.7180  174.2800  136.5880 C   0  0  0  0  0  0  0  0  0  0  0  0
  183.3680  178.4680  140.9100 C   0  0  1  0  0  3  0  0  0  0  0  0
  185.4600  178.5580  138.8880 C   0  0  0  0  0  2  0  0  0  0  0  0
  187.7380  179.0980  141.6590 O   0  0  0  0  0  1  0  0  0  0  0  0
  186.6210  178.0910  139.7480 C   0  0  1  0  0  3  0  0  0  0  0  0
  187.6460  178.6050  136.6450 O   0  0  0  0  0  0  0  0  0  0  0  0
  186.2430  174.6770  136.6590 Cl  0  0  0  0  0  0  0  0  0  0  0  0
  183.9730  178.5620  144.0570 C   0  0  0  0  0  2  0  0  0  0  0  0
  184.2290  177.7510  141.9270 C   0  0  1  0  0  3  0  0  0  0  0  0
  185.7170  176.3500  136.9930 C   0  0  1  0  0  3  0  0  0  0  0  0
  1 22  1  0  0  0  0
  2 18  1  6  0  0  0
  2 14  1  0  0  0  0
  3 19  1  0  0  0  0
  4 23  1  0  0  0  0
  4  1  2  0  0  0  0
  5  1  1  0  0  0  0
  6 21  1  0  0  0  0
  6  8  1  0  0  0  0
  7 30  1  0  0  0  0
  8 13  2  0  0  0  0
  8 12  1  0  0  0  0
  9 12  1  0  0  0  0
 10 25  1  0  0  0  0
 11 24  1  0  0  0  0
 11  3  1  0  0  0  0
 12  5  2  0  0  0  0
 13  4  1  0  0  0  0
 14 20  2  0  0  0  0
 15 10  1  0  0  0  0
 16  7  2  0  0  0  0
 16 26  1  0  0  0  0
 17 21  2  0  0  0  0
 19 28  1  0  0  0  0
 20 28  1  0  0  0  0
 21  9  1  0  0  0  0
 22  2  1  0  0  0  0
 22 29  1  0  0  0  0
 23 25  1  0  0  0  0
 25 11  1  0  0  0  0
 26 15  1  0  0  0  0
 27 30  1  0  0  0  0
 29  3  1  0  0  0  0
 29 19  1  0  0  0  0
 30 13  1  0  0  0  0
M  END
>  <MODEL>
3

>  <REMARK>
 VINA RESULT:      -6.5      2.325      3.395
  Name = 
  0 active torsions:
  status: ('A' for Active; 'I' for Inactive)
                            x       y       z     vdW  Elec       q    Type
                         _______ _______ _______ _____ _____    ______ ____

>  <TORSDO>
F 0

$$$$
=
 OpenBabel11052412343D

 30 35  0  0  1  0  0  0  0  0999 V2000
  181.6580  176.3050  138.1350 C   0  0  0  0  0  0  0  0  0  0  0  0
  179.6390  177.5910  139.0360 C   0  0  1  0  0  3  0  0  0  0  0  0
  183.1260  178.2380  140.6240 C   0  0  1  0  0  3  0  0  0  0  0  0
  182.9510  176.2600  137.5710 C   0  0  0  0  0  0  0  0  0  0  0  0
  180.8890  175.1280  138.1770 C   0  0  0  0  0  3  0  0  0  0  0  0
  183.0150  172.5800  136.4930 C   0  0  0  0  0  2  0  0  0  0  0  0
  185.2090  175.3600  135.3130 C   0  0  0  0  0  3  0  0  0  0  0  0
  182.6640  173.8990  137.0940 C   0  0  0  0  0  0  0  0  0  0  0  0
  180.4700  172.4250  137.5940 S   0  0  0  0  0  0  0  0  0  0  0  0
  186.0020  178.2530  138.0680 C   0  0  0  0  0  2  0  0  0  0  0  0
  183.9840  178.8310  139.5040 C   0  0  1  0  0  3  0  0  0  0  0  0
  181.3850  173.9530  137.6250 C   0  0  0  0  0  0  0  0  0  0  0  0
  183.4980  175.0320  137.1250 C   0  0  0  0  0  0  0  0  0  0  0  0
  179.0270  178.7010  139.8900 C   0  0  0  0  0  3  0  0  0  0  0  0
  186.6960  177.1930  137.2200 C   0  0  0  0  0  2  0  0  0  0  0  0
  185.8600  176.4740  134.9610 C   0  0  0  0  0  3  0  0  0  0  0  0
  181.3780  171.1590  135.3720 C   0  0  0  0  0  2  0  0  0  0  0  0
  178.9350  177.6020  137.6890 C   0  0  0  0  0  1  0  0  0  0  0  0
  181.8240  179.0030  140.6070 C   0  0  2  0  0  3  0  0  0  0  0  0
  179.4870  179.2640  141.0350 C   0  0  0  0  0  3  0  0  0  0  0  0
  181.7320  171.8140  136.4740 C   0  0  0  0  0  0  0  0  0  0  0  0
  181.1870  177.5620  138.8420 C   0  0  1  0  0  3  0  0  0  0  0  0
  183.7260  177.5340  137.4190 C   0  0  0  0  0  2  0  0  0  0  0  0
  184.9310  179.6820  140.0830 O   0  0  0  0  0  1  0  0  0  0  0  0
  184.6470  177.7740  138.6030 C   0  0  1  0  0  3  0  0  0  0  0  0
  186.4280  177.4170  135.8380 O   0  0  0  0  0  0  0  0  0  0  0  0
  185.8670  173.5300  137.2440 Cl  0  0  0  0  0  0  0  0  0  0  0  0
  180.8010  178.9550  141.7030 C   0  0  0  0  0  2  0  0  0  0  0  0
  181.8280  177.5480  140.2120 C   0  0  1  0  0  3  0  0  0  0  0  0
  184.9540  174.9750  136.7280 C   0  0  1  0  0  3  0  0  0  0  0  0
  1  5  1  0  0  0  0
  1 22  1  0  0  0  0
  2 18  1  6  0  0  0
  2 14  1  0  0  0  0
  4  1  2  0  0  0  0
  6  8  1  0  0  0  0
  7 30  1  0  0  0  0
  8 13  2  0  0  0  0
  8 12  1  0  0  0  0
  9 12  1  0  0  0  0
 10 25  1  0  0  0  0
 11 24  1  0  0  0  0
 11  3  1  0  0  0  0
 12  5  2  0  0  0  0
 13  4  1  0  0  0  0
 14 20  2  0  0  0  0
 15 10  1  0  0  0  0
 16  7  2  0  0  0  0
 16 26  1  0  0  0  0
 17 21  2  0  0  0  0
 19  3  1  0  0  0  0
 19 28  1  0  0  0  0
 20 28  1  0  0  0  0
 21  6  1  0  0  0  0
 21  9  1  0  0  0  0
 22  2  1  0  0  0  0
 22 29  1  0  0  0  0
 23  4  1  0  0  0  0
 23 25  1  0  0  0  0
 25 11  1  0  0  0  0
 26 15  1  0  0  0  0
 29 19  1  0  0  0  0
 29  3  1  0  0  0  0
 30 13  1  0  0  0  0
 30 27  1  0  0  0  0
M  END
>  <MODEL>
4

>  <REMARK>
 VINA RESULT:      -6.1      4.042      6.043
  Name = 
  0 active torsions:
  status: ('A' for Active; 'I' for Inactive)
                            x       y       z     vdW  Elec       q    Type
                         _______ _______ _______ _____ _____    ______ ____

>  <TORSDO>
F 0

$$$$
=
 OpenBabel11052412343D

 30 35  0  0  1  0  0  0  0  0999 V2000
  181.5780  176.9150  139.1410 C   0  0  0  0  0  0  0  0  0  0  0  0
  180.0320  178.2830  140.6520 C   0  0  1  0  0  3  0  0  0  0  0  0
  183.8310  178.1800  141.4660 C   0  0  1  0  0  3  0  0  0  0  0  0
  182.7010  176.7970  138.2930 C   0  0  0  0  0  0  0  0  0  0  0  0
  180.6480  175.8610  139.1960 C   0  0  0  0  0  3  0  0  0  0  0  0
  181.9240  173.3810  136.7330 C   0  0  0  0  0  2  0  0  0  0  0  0
  184.2590  176.0060  135.4740 C   0  0  0  0  0  3  0  0  0  0  0  0
  181.9300  174.6110  137.5740 C   0  0  0  0  0  0  0  0  0  0  0  0
  179.6720  173.3780  138.3580 S   0  0  0  0  0  0  0  0  0  0  0  0
  186.0770  178.2530  138.3440 C   0  0  0  0  0  2  0  0  0  0  0  0
  184.5260  178.8380  140.2720 C   0  0  1  0  0  3  0  0  0  0  0  0
  180.8160  174.7420  138.3880 C   0  0  0  0  0  0  0  0  0  0  0  0
  182.9310  175.6020  137.5680 C   0  0  0  0  0  0  0  0  0  0  0  0
  179.8050  179.3020  141.7690 C   0  0  0  0  0  3  0  0  0  0  0  0
  186.3940  177.2720  137.2210 C   0  0  0  0  0  2  0  0  0  0  0  0
  185.0010  177.0680  135.1380 C   0  0  0  0  0  3  0  0  0  0  0  0
  179.8770  172.4030  135.8340 C   0  0  0  0  0  2  0  0  0  0  0  0
  179.0770  178.6190  139.5190 C   0  0  0  0  0  1  0  0  0  0  0  0
  182.6990  179.1030  141.8560 C   0  0  2  0  0  3  0  0  0  0  0  0
  180.5790  179.5930  142.8430 C   0  0  0  0  0  3  0  0  0  0  0  0
  180.5560  172.8060  136.9040 C   0  0  0  0  0  0  0  0  0  0  0  0
  181.4800  178.0830  140.1040 C   0  0  1  0  0  3  0  0  0  0  0  0
  183.6290  177.9630  138.1440 C   0  0  0  0  0  2  0  0  0  0  0  0
  185.7000  179.4440  140.7290 O   0  0  0  0  0  1  0  0  0  0  0  0
  184.8010  177.8730  139.1050 C   0  0  1  0  0  3  0  0  0  0  0  0
  185.8870  177.7630  135.9820 O   0  0  0  0  0  0  0  0  0  0  0  0
  184.9870  173.8020  136.9290 Cl  0  0  0  0  0  0  0  0  0  0  0  0
  181.9320  179.0030  143.1410 C   0  0  0  0  0  2  0  0  0  0  0  0
  182.3790  177.7490  141.2740 C   0  0  1  0  0  3  0  0  0  0  0  0
  184.2420  175.4220  136.8430 C   0  0  1  0  0  3  0  0  0  0  0  0
  1  5  1  0  0  0  0
  1 22  1  0  0  0  0
  2 18  1  6  0  0  0
  2 14  1  0  0  0  0
  3 19  1  0  0  0  0
  4  1  2  0  0  0  0
  6 21  1  0  0  0  0
  6  8  1  0  0  0  0
  7 30  1  0  0  0  0
  8 12  1  0  0  0  0
  9 12  1  0  0  0  0
 10 25  1  0  0  0  0
 11 24  1  0  0  0  0
 11  3  1  0  0  0  0
 12  5  2  0  0  0  0
 13  8  2  0  0  0  0
 13  4  1  0  0  0  0
 14 20  2  0  0  0  0
 15 10  1  0  0  0  0
 16  7  2  0  0  0  0
 16 26  1  0  0  0  0
 17 21  2  0  0  0  0
 19 28  1  0  0  0  0
 20 28  1  0  0  0  0
 21  9  1  0  0  0  0
 22  2  1  0  0  0  0
 22 29  1  0  0  0  0
 23  4  1  0  0  0  0
 23 25  1  0  0  0  0
 25 11  1  0  0  0  0
 26 15  1  0  0  0  0
 29  3  1  0  0  0  0
 29 19  1  0  0  0  0
 30 27  1  0  0  0  0
 30 13  1  0  0  0  0
M  END
>  <MODEL>
5

>  <REMARK>
 VINA RESULT:      -6.1      3.501      5.244
  Name = 
  0 active torsions:
  status: ('A' for Active; 'I' for Inactive)
                            x       y       z     vdW  Elec       q    Type
                         _______ _______ _______ _____ _____    ______ ____

>  <TORSDO>
F 0

$$$$
=
 OpenBabel11052412343D

 30 35  0  0  1  0  0  0  0  0999 V2000
  187.3970  178.1940  139.5600 C   0  0  0  0  0  0  0  0  0  0  0  0
  187.7990  178.4570  137.0470 C   0  0  1  0  0  3  0  0  0  0  0  0
  184.5420  176.7080  138.2450 C   0  0  1  0  0  3  0  0  0  0  0  0
  186.6170  178.3910  140.7200 C   0  0  0  0  0  0  0  0  0  0  0  0
  188.7240  177.7470  139.6950 C   0  0  0  0  0  3  0  0  0  0  0  0
  189.2470  177.5210  143.3720 C   0  0  0  0  0  2  0  0  0  0  0  0
  186.0670  179.4220  143.8250 C   0  0  0  0  0  3  0  0  0  0  0  0
  188.4960  177.7170  142.1000 C   0  0  0  0  0  0  0  0  0  0  0  0
  190.9460  177.0260  141.2320 S   0  0  0  0  0  0  0  0  0  0  0  0
  183.0010  178.3100  141.3860 C   0  0  0  0  0  2  0  0  0  0  0  0
  183.7640  177.7740  139.0190 C   0  0  1  0  0  3  0  0  0  0  0  0
  189.2660  177.5500  140.9590 C   0  0  0  0  0  0  0  0  0  0  0  0
  187.1360  178.0670  141.9980 C   0  0  0  0  0  0  0  0  0  0  0  0
  187.3210  178.3890  135.5970 C   0  0  0  0  0  3  0  0  0  0  0  0
  183.3850  178.3800  142.8590 C   0  0  0  0  0  2  0  0  0  0  0  0
  184.9300  180.1280  143.7960 C   0  0  0  0  0  3  0  0  0  0  0  0
  191.5980  178.1230  143.6260 C   0  0  0  0  0  2  0  0  0  0  0  0
  188.5740  179.7530  137.2190 C   0  0  0  0  0  1  0  0  0  0  0  0
  184.9690  177.3560  136.9490 C   0  0  2  0  0  3  0  0  0  0  0  0
  186.3800  177.5920  135.0340 C   0  0  0  0  0  3  0  0  0  0  0  0
  190.6800  177.4280  142.9600 C   0  0  0  0  0  0  0  0  0  0  0  0
  186.7500  178.2940  138.1910 C   0  0  1  0  0  3  0  0  0  0  0  0
  185.2440  178.9770  140.5870 C   0  0  0  0  0  2  0  0  0  0  0  0
  182.3990  177.5000  138.8890 O   0  0  0  0  0  1  0  0  0  0  0  0
  184.1810  177.8980  140.4960 C   0  0  1  0  0  3  0  0  0  0  0  0
  183.7150  179.7200  143.2180 O   0  0  0  0  0  0  0  0  0  0  0  0
  186.4160  176.7610  144.3750 Cl  0  0  0  0  0  0  0  0  0  0  0  0
  185.5060  176.6060  135.7660 C   0  0  0  0  0  2  0  0  0  0  0  0
  186.0170  176.9900  137.9680 C   0  0  1  0  0  3  0  0  0  0  0  0
  186.2130  178.0830  143.1930 C   0  0  1  0  0  3  0  0  0  0  0  0
  1  5  2  0  0  0  0
  1  4  1  0  0  0  0
  2 18  1  1  0  0  0
  2 22  1  0  0  0  0
  3 11  1  0  0  0  0
  4 13  2  0  0  0  0
  5 12  1  0  0  0  0
  8  6  1  0  0  0  0
  9 21  1  0  0  0  0
 10 15  1  0  0  0  0
 11 25  1  0  0  0  0
 12  9  1  0  0  0  0
 12  8  2  0  0  0  0
 13  8  1  0  0  0  0
 13 30  1  0  0  0  0
 14  2  1  0  0  0  0
 15 26  1  0  0  0  0
 16  7  2  0  0  0  0
 19 29  1  0  0  0  0
 19  3  1  0  0  0  0
 20 14  2  0  0  0  0
 20 28  1  0  0  0  0
 21  6  1  0  0  0  0
 21 17  2  0  0  0  0
 22  1  1  0  0  0  0
 23  4  1  0  0  0  0
 24 11  1  0  0  0  0
 25 23  1  0  0  0  0
 25 10  1  0  0  0  0
 26 16  1  0  0  0  0
 28 19  1  0  0  0  0
 29 22  1  0  0  0  0
 29  3  1  0  0  0  0
 30  7  1  0  0  0  0
 30 27  1  0  0  0  0
M  END
>  <MODEL>
6

>  <REMARK>
 VINA RESULT:      -5.9      3.158      7.236
  Name = 
  0 active torsions:
  status: ('A' for Active; 'I' for Inactive)
                            x       y       z     vdW  Elec       q    Type
                         _______ _______ _______ _____ _____    ______ ____

>  <TORSDO>
F 0

$$$$
=
 OpenBabel11052412343D

 30 35  0  0  1  0  0  0  0  0999 V2000
  184.2210  177.4260  137.7960 C   0  0  0  0  0  0  0  0  0  0  0  0
  183.0380  179.3940  138.9230 C   0  0  1  0  0  3  0  0  0  0  0  0
  181.4580  177.8440  135.7290 C   0  0  1  0  0  3  0  0  0  0  0  0
  184.2380  176.1010  137.3080 C   0  0  0  0  0  0  0  0  0  0  0  0
  185.4350  178.1280  137.9130 C   0  0  0  0  0  3  0  0  0  0  0  0
  188.0220  175.6730  136.8550 C   0  0  0  0  0  2  0  0  0  0  0  0
  185.4160  173.0100  137.0650 C   0  0  0  0  0  3  0  0  0  0  0  0
  186.6530  176.2110  137.0890 C   0  0  0  0  0  0  0  0  0  0  0  0
  188.2210  178.2950  137.7480 S   0  0  0  0  0  0  0  0  0  0  0  0
  181.7650  174.0120  135.5630 C   0  0  0  0  0  2  0  0  0  0  0  0
  181.0960  176.4050  136.1050 C   0  0  1  0  0  3  0  0  0  0  0  0
  186.6340  177.5020  137.5940 C   0  0  0  0  0  0  0  0  0  0  0  0
  185.4500  175.5150  136.8660 C   0  0  0  0  0  0  0  0  0  0  0  0
  181.8290  180.3140  139.0930 C   0  0  0  0  0  3  0  0  0  0  0  0
  182.9120  173.0310  135.3500 C   0  0  0  0  0  2  0  0  0  0  0  0
  184.3690  172.1900  137.2190 C   0  0  0  0  0  3  0  0  0  0  0  0
  189.9300  176.2510  138.2620 C   0  0  0  0  0  2  0  0  0  0  0  0
  183.5200  179.0030  140.3100 C   0  0  0  0  0  1  0  0  0  0  0  0
  180.9290  178.7170  136.8430 C   0  0  2  0  0  3  0  0  0  0  0  0
  180.8980  180.6950  138.1840 C   0  0  0  0  0  3  0  0  0  0  0  0
  188.9400  176.6720  137.4810 C   0  0  0  0  0  0  0  0  0  0  0  0
  182.8960  178.1300  138.0190 C   0  0  1  0  0  3  0  0  0  0  0  0
  182.9650  175.3120  137.2920 C   0  0  0  0  0  2  0  0  0  0  0  0
  179.9850  176.0220  135.3480 O   0  0  0  0  0  1  0  0  0  0  0  0
  182.2610  175.4110  135.9500 C   0  0  1  0  0  3  0  0  0  0  0  0
  183.1400  172.2770  136.5380 O   0  0  0  0  0  0  0  0  0  0  0  0
  186.4900  173.9970  134.7460 Cl  0  0  0  0  0  0  0  0  0  0  0  0
  180.8050  180.2090  136.7610 C   0  0  0  0  0  2  0  0  0  0  0  0
  182.4190  178.5840  136.6560 C   0  0  1  0  0  3  0  0  0  0  0  0
  185.4060  174.1850  136.1520 C   0  0  1  0  0  3  0  0  0  0  0  0
  1  5  1  0  0  0  0
  1 22  1  0  0  0  0
  2 14  1  0  0  0  0
  2 18  1  1  0  0  0
  3 11  1  0  0  0  0
  3 29  1  0  0  0  0
  3 19  1  0  0  0  0
  4  1  2  0  0  0  0
  6  8  1  0  0  0  0
  6 21  1  0  0  0  0
  7 16  2  0  0  0  0
  8 12  1  0  0  0  0
 10 25  1  0  0  0  0
 12  9  1  0  0  0  0
 12  5  2  0  0  0  0
 13  8  2  0  0  0  0
 13  4  1  0  0  0  0
 15 10  1  0  0  0  0
 15 26  1  0  0  0  0
 20 14  2  0  0  0  0
 21  9  1  0  0  0  0
 21 17  2  0  0  0  0
 22  2  1  0  0  0  0
 23  4  1  0  0  0  0
 24 11  1  0  0  0  0
 25 11  1  0  0  0  0
 25 23  1  0  0  0  0
 26 16  1  0  0  0  0
 27 30  1  0  0  0  0
 28 19  1  0  0  0  0
 28 20  1  0  0  0  0
 29 19  1  0  0  0  0
 29 22  1  0  0  0  0
 30 13  1  0  0  0  0
 30  7  1  0  0  0  0
M  END
>  <MODEL>
7

>  <REMARK>
 VINA RESULT:      -5.5      4.457      7.563
  Name = 
  0 active torsions:
  status: ('A' for Active; 'I' for Inactive)
                            x       y       z     vdW  Elec       q    Type
                         _______ _______ _______ _____ _____    ______ ____

>  <TORSDO>
F 0

$$$$
=
 OpenBabel11052412343D

 30 35  0  0  1  0  0  0  0  0999 V2000
  183.8150  175.7420  137.5650 C   0  0  0  0  0  0  0  0  0  0  0  0
  186.0920  176.3040  136.5450 C   0  0  1  0  0  3  0  0  0  0  0  0
  185.2660  172.5910  137.3400 C   0  0  1  0  0  3  0  0  0  0  0  0
  182.5860  175.0470  137.5530 C   0  0  0  0  0  0  0  0  0  0  0  0
  183.9910  176.8060  138.4680 C   0  0  0  0  0  3  0  0  0  0  0  0
  180.7190  177.0750  140.2190 C   0  0  0  0  0  2  0  0  0  0  0  0
  179.2790  174.8020  137.6330 C   0  0  0  0  0  3  0  0  0  0  0  0
  181.7490  176.4950  139.3110 C   0  0  0  0  0  0  0  0  0  0  0  0
  183.0610  178.5500  140.4460 S   0  0  0  0  0  0  0  0  0  0  0  0
  181.6150  171.6320  136.5930 C   0  0  0  0  0  2  0  0  0  0  0  0
  184.0830  172.2310  136.4390 C   0  0  1  0  0  3  0  0  0  0  0  0
  182.9470  177.1910  139.3010 C   0  0  0  0  0  0  0  0  0  0  0  0
  181.5730  175.3640  138.4910 C   0  0  0  0  0  0  0  0  0  0  0  0
  187.4110  175.8870  135.8930 C   0  0  0  0  0  3  0  0  0  0  0  0
  180.2650  171.9620  137.2180 C   0  0  0  0  0  2  0  0  0  0  0  0
  178.9320  174.0060  136.6150 C   0  0  0  0  0  3  0  0  0  0  0  0
  180.5160  179.4720  140.6290 C   0  0  0  0  0  2  0  0  0  0  0  0
  185.5500  177.4940  135.7710 C   0  0  0  0  0  1  0  0  0  0  0  0
  186.2800  173.2720  136.4510 C   0  0  2  0  0  3  0  0  0  0  0  0
  188.1200  174.7400  136.0340 C   0  0  0  0  0  3  0  0  0  0  0  0
  181.2860  178.3880  140.6520 C   0  0  0  0  0  0  0  0  0  0  0  0
  184.9800  175.2270  136.7400 C   0  0  1  0  0  3  0  0  0  0  0  0
  182.3530  173.9920  136.5160 C   0  0  0  0  0  2  0  0  0  0  0  0
  184.1580  170.8660  136.1440 O   0  0  0  0  0  1  0  0  0  0  0  0
  182.7140  172.6100  137.0310 C   0  0  1  0  0  3  0  0  0  0  0  0
  179.4860  172.7470  136.3190 O   0  0  0  0  0  0  0  0  0  0  0  0
  179.7620  174.1290  140.2440 Cl  0  0  0  0  0  0  0  0  0  0  0  0
  187.7030  173.5400  136.8430 C   0  0  0  0  0  2  0  0  0  0  0  0
  185.5780  174.0750  137.5170 C   0  0  1  0  0  3  0  0  0  0  0  0
  180.3620  174.4690  138.5980 C   0  0  1  0  0  3  0  0  0  0  0  0
  1  5  1  0  0  0  0
  2 18  1  6  0  0  0
  2 22  1  0  0  0  0
  3 29  1  0  0  0  0
  4  1  2  0  0  0  0
  4 13  1  0  0  0  0
  5 12  2  0  0  0  0
  6 21  1  0  0  0  0
  7 30  1  0  0  0  0
  8  6  1  0  0  0  0
  9 21  1  0  0  0  0
 10 25  1  0  0  0  0
 10 15  1  0  0  0  0
 11 25  1  0  0  0  0
 11  3  1  0  0  0  0
 12  8  1  0  0  0  0
 12  9  1  0  0  0  0
 13 30  1  0  0  0  0
 13  8  2  0  0  0  0
 14 20  2  0  0  0  0
 14  2  1  0  0  0  0
 16  7  2  0  0  0  0
 17 21  2  0  0  0  0
 19 28  1  0  0  0  0
 19  3  1  0  0  0  0
 19 29  1  0  0  0  0
 20 28  1  0  0  0  0
 22 29  1  0  0  0  0
 22  1  1  0  0  0  0
 23 25  1  0  0  0  0
 23  4  1  0  0  0  0
 24 11  1  0  0  0  0
 26 16  1  0  0  0  0
 26 15  1  0  0  0  0
 30 27  1  0  0  0  0
M  END
>  <MODEL>
8

>  <REMARK>
 VINA RESULT:      -5.5      5.326      7.931
  Name = 
  0 active torsions:
  status: ('A' for Active; 'I' for Inactive)
                            x       y       z     vdW  Elec       q    Type
                         _______ _______ _______ _____ _____    ______ ____

>  <TORSDO>
F 0

$$$$
