=
 OpenBabel11052414083D

 34 39  0  0  1  0  0  0  0  0999 V2000
  186.8690  177.9680  145.5290 C   0  0  0  0  0  0  0  0  0  0  0  0
  188.5090  177.1270  143.9320 C   0  0  0  0  0  0  0  0  0  0  0  0
  186.2850  178.1910  143.0950 C   0  0  0  0  0  0  0  0  0  0  0  0
  185.5980  178.6290  140.7650 C   0  0  0  0  0  0  0  0  0  0  0  0
  188.9450  177.0140  146.3200 C   0  0  0  0  0  3  0  0  0  0  0  0
  189.3260  176.7640  145.0080 C   0  0  0  0  0  3  0  0  0  0  0  0
  188.0010  178.4620  141.3910 N   0  0  0  0  0  0  0  0  0  0  0  0
  187.2600  177.7790  144.1720 C   0  0  0  0  0  0  0  0  0  0  0  0
  188.7840  177.2760  141.4640 C   0  0  0  0  0  0  0  0  0  0  0  0
  185.9290  178.5030  139.4210 O   0  0  0  0  0  1  0  0  0  0  0  0
  187.7130  177.5980  146.5770 C   0  0  0  0  0  3  0  0  0  0  0  0
  184.8310  178.3750  143.5230 C   0  0  2  0  0  3  0  0  0  0  0  0
  185.4910  178.4110  145.9200 C   0  0  0  0  0  2  0  0  0  0  0  0
  189.0230  176.6920  142.6270 C   0  0  0  0  0  3  0  0  0  0  0  0
  184.3410  178.8990  141.0900 C   0  0  0  0  0  3  0  0  0  0  0  0
  183.9520  179.1280  142.5120 C   0  0  1  0  0  3  0  0  0  0  0  0
  188.4320  179.5150  140.5720 N   0  0  0  0  0  1  0  0  0  0  0  0
  186.6350  178.4200  141.8040 C   0  0  0  0  0  0  0  0  0  0  0  0
  184.8000  179.1780  144.8140 C   0  0  0  0  0  2  0  0  0  0  0  0
  180.2890  178.3310  141.8460 C   0  0  0  0  0  0  0  0  0  0  0  0
  179.7770  178.3220  143.1470 C   0  0  0  0  0  3  0  0  0  0  0  0
  182.4950  178.8460  142.7190 C   0  0  0  0  0  0  0  0  0  0  0  0
  180.6210  178.5740  144.2330 C   0  0  0  0  0  3  0  0  0  0  0  0
  181.6450  178.5930  141.6310 C   0  0  0  0  0  3  0  0  0  0  0  0
  181.9780  178.8360  144.0190 C   0  0  0  0  0  3  0  0  0  0  0  0
  179.4710  178.0870  140.7950 F   0  0  0  0  0  0  0  0  0  0  0  0
  189.4530  176.7380  140.2400 C   0  0  0  0  0  2  0  0  0  0  0  0
  188.8900  178.1570  137.6810 C   0  0  0  0  0  1  0  0  0  0  0  0
  190.3420  177.7440  139.6530 N   0  0  0  0  0  0  0  0  0  0  0  0
  190.2590  177.7260  138.1800 C   0  0  1  0  0  3  0  0  0  0  0  0
  191.7890  175.6990  138.3620 C   0  0  0  0  0  2  0  0  0  0  0  0
  192.6080  176.7220  139.1370 C   0  0  0  0  0  2  0  0  0  0  0  0
  191.7160  177.4870  140.1300 C   0  0  0  0  0  2  0  0  0  0  0  0
  190.6760  176.3800  137.5640 C   0  0  0  0  0  2  0  0  0  0  0  0
  1 13  1  0  0  0  0
  1 11  1  0  0  0  0
  2  8  1  0  0  0  0
  2  6  2  0  0  0  0
  3 12  1  0  0  0  0
  3  8  1  0  0  0  0
  4 15  2  0  0  0  0
  4 18  1  0  0  0  0
  5 11  2  0  0  0  0
  6  5  1  0  0  0  0
  7  9  1  0  0  0  0
  7 18  1  0  0  0  0
  8  1  2  0  0  0  0
  9 14  2  0  0  0  0
 10  4  1  0  0  0  0
 12 19  1  1  0  0  0
 14  2  1  0  0  0  0
 15 16  1  0  0  0  0
 16 22  1  6  0  0  0
 16 12  1  0  0  0  0
 17  7  1  0  0  0  0
 18  3  2  0  0  0  0
 19 13  1  0  0  0  0
 20 21  1  0  0  0  0
 21 23  2  0  0  0  0
 22 25  2  0  0  0  0
 24 20  2  0  0  0  0
 24 22  1  0  0  0  0
 25 23  1  0  0  0  0
 26 20  1  0  0  0  0
 27  9  1  0  0  0  0
 29 33  1  0  0  0  0
 29 27  1  0  0  0  0
 30 28  1  1  0  0  0
 30 29  1  0  0  0  0
 31 32  1  0  0  0  0
 32 33  1  0  0  0  0
 34 30  1  0  0  0  0
 34 31  1  0  0  0  0
M  END
>  <MODEL>
1

>  <REMARK>
 VINA RESULT:     -10.9      0.000      0.000
  Name = 
  3 active torsions:
  status: ('A' for Active; 'I' for Inactive)
    1  A    between atoms: C_3  and  N_13
    2  A    between atoms: C_3  and  C_17
    3  A    between atoms: C_12  and  C_28
                            x       y       z     vdW  Elec       q    Type
                         _______ _______ _______ _____ _____    ______ ____

>  <TORSDO>
F 3

$$$$
=
 OpenBabel11052414083D

 34 39  0  0  1  0  0  0  0  0999 V2000
  184.0200  178.6540  144.8100 C   0  0  0  0  0  0  0  0  0  0  0  0
  186.3330  177.9280  144.5450 C   0  0  0  0  0  0  0  0  0  0  0  0
  184.8710  178.4500  142.4540 C   0  0  0  0  0  0  0  0  0  0  0  0
  185.5620  178.4520  140.0850 C   0  0  0  0  0  0  0  0  0  0  0  0
  185.3750  178.2060  146.7610 C   0  0  0  0  0  3  0  0  0  0  0  0
  186.4400  177.8630  145.9380 C   0  0  0  0  0  3  0  0  0  0  0  0
  187.2160  178.8090  141.9110 N   0  0  0  0  0  0  0  0  0  0  0  0
  185.1130  178.3670  143.9430 C   0  0  0  0  0  0  0  0  0  0  0  0
  187.9200  177.8060  142.6330 C   0  0  0  0  0  0  0  0  0  0  0  0
  186.5930  178.2150  139.1830 O   0  0  0  0  0  1  0  0  0  0  0  0
  184.1660  178.5840  146.1970 C   0  0  0  0  0  3  0  0  0  0  0  0
  183.4150  178.4200  141.9950 C   0  0  2  0  0  3  0  0  0  0  0  0
  182.6260  178.8840  144.3070 C   0  0  0  0  0  2  0  0  0  0  0  0
  187.5190  177.4300  143.8370 C   0  0  0  0  0  3  0  0  0  0  0  0
  184.3190  178.5260  139.6280 C   0  0  0  0  0  3  0  0  0  0  0  0
  183.1880  178.8620  140.5420 C   0  0  1  0  0  3  0  0  0  0  0  0
  187.9410  179.8090  141.2470 N   0  0  0  0  0  1  0  0  0  0  0  0
  185.8590  178.5720  141.5320 C   0  0  0  0  0  0  0  0  0  0  0  0
  182.6060  179.3630  142.8720 C   0  0  0  0  0  2  0  0  0  0  0  0
  180.4070  176.5100  139.4310 C   0  0  0  0  0  0  0  0  0  0  0  0
  179.4530  177.4230  138.9700 C   0  0  0  0  0  3  0  0  0  0  0  0
  181.8910  178.3470  139.9960 C   0  0  0  0  0  0  0  0  0  0  0  0
  179.7170  178.7960  139.0210 C   0  0  0  0  0  3  0  0  0  0  0  0
  181.6240  176.9700  139.9430 C   0  0  0  0  0  3  0  0  0  0  0  0
  180.9340  179.2560  139.5330 C   0  0  0  0  0  3  0  0  0  0  0  0
  180.1520  175.1820  139.3810 F   0  0  0  0  0  0  0  0  0  0  0  0
  189.1980  177.2460  142.0950 C   0  0  0  0  0  2  0  0  0  0  0  0
  191.7600  177.2510  140.5740 C   0  0  0  0  0  1  0  0  0  0  0  0
  190.3180  178.1440  142.3870 N   0  0  0  0  0  0  0  0  0  0  0  0
  191.6060  177.5020  142.0640 C   0  0  1  0  0  3  0  0  0  0  0  0
  191.2870  176.3010  144.2870 C   0  0  0  0  0  2  0  0  0  0  0  0
  191.1700  177.7480  144.7460 C   0  0  0  0  0  2  0  0  0  0  0  0
  190.2400  178.5370  143.8090 C   0  0  0  0  0  2  0  0  0  0  0  0
  191.8670  176.2210  142.8740 C   0  0  0  0  0  2  0  0  0  0  0  0
  1 11  1  0  0  0  0
  2  6  2  0  0  0  0
  3  8  1  0  0  0  0
  4 18  1  0  0  0  0
  6  5  1  0  0  0  0
  7  9  1  0  0  0  0
  8  2  1  0  0  0  0
  8  1  2  0  0  0  0
  9 14  2  0  0  0  0
 10  4  1  0  0  0  0
 11  5  2  0  0  0  0
 12  3  1  0  0  0  0
 12 19  1  1  0  0  0
 13  1  1  0  0  0  0
 14  2  1  0  0  0  0
 15  4  2  0  0  0  0
 15 16  1  0  0  0  0
 16 22  1  6  0  0  0
 16 12  1  0  0  0  0
 17  7  1  0  0  0  0
 18  7  1  0  0  0  0
 18  3  2  0  0  0  0
 19 13  1  0  0  0  0
 20 24  1  0  0  0  0
 21 23  1  0  0  0  0
 21 20  2  0  0  0  0
 23 25  2  0  0  0  0
 24 22  2  0  0  0  0
 25 22  1  0  0  0  0
 26 20  1  0  0  0  0
 27 29  1  0  0  0  0
 27  9  1  0  0  0  0
 29 33  1  0  0  0  0
 30 28  1  6  0  0  0
 30 29  1  0  0  0  0
 30 34  1  0  0  0  0
 31 32  1  0  0  0  0
 33 32  1  0  0  0  0
 34 31  1  0  0  0  0
M  END
>  <MODEL>
2

>  <REMARK>
 VINA RESULT:      -9.9      1.870      3.280
  Name = 
  3 active torsions:
  status: ('A' for Active; 'I' for Inactive)
    1  A    between atoms: C_3  and  N_13
    2  A    between atoms: C_3  and  C_17
    3  A    between atoms: C_12  and  C_28
                            x       y       z     vdW  Elec       q    Type
                         _______ _______ _______ _____ _____    ______ ____

>  <TORSDO>
F 3

$$$$
=
 OpenBabel11052414083D

 34 39  0  0  1  0  0  0  0  0999 V2000
  184.0320  178.6380  144.7860 C   0  0  0  0  0  0  0  0  0  0  0  0
  186.3480  177.9190  144.5300 C   0  0  0  0  0  0  0  0  0  0  0  0
  184.8960  178.4450  142.4330 C   0  0  0  0  0  0  0  0  0  0  0  0
  185.5980  178.4570  140.0670 C   0  0  0  0  0  0  0  0  0  0  0  0
  185.3790  178.1860  146.7420 C   0  0  0  0  0  3  0  0  0  0  0  0
  186.4480  177.8480  145.9230 C   0  0  0  0  0  3  0  0  0  0  0  0
  187.2420  178.8110  141.9030 N   0  0  0  0  0  0  0  0  0  0  0  0
  185.1300  178.3560  143.9220 C   0  0  0  0  0  0  0  0  0  0  0  0
  187.9450  177.8060  142.6250 C   0  0  0  0  0  0  0  0  0  0  0  0
  186.6340  178.2260  139.1700 O   0  0  0  0  0  1  0  0  0  0  0  0
  184.1710  178.5630  146.1720 C   0  0  0  0  0  3  0  0  0  0  0  0
  183.4420  178.4130  141.9670 C   0  0  2  0  0  3  0  0  0  0  0  0
  182.6410  178.8670  144.2760 C   0  0  0  0  0  2  0  0  0  0  0  0
  187.5390  177.4260  143.8250 C   0  0  0  0  0  3  0  0  0  0  0  0
  184.3580  178.5310  139.6040 C   0  0  0  0  0  3  0  0  0  0  0  0
  183.2210  178.8600  140.5130 C   0  0  1  0  0  3  0  0  0  0  0  0
  187.9680  179.8150  141.2460 N   0  0  0  0  0  1  0  0  0  0  0  0
  185.8880  178.5720  141.5160 C   0  0  0  0  0  0  0  0  0  0  0  0
  182.6270  179.3510  142.8430 C   0  0  0  0  0  2  0  0  0  0  0  0
  179.8120  178.7030  138.8250 C   0  0  0  0  0  0  0  0  0  0  0  0
  179.5210  177.3400  138.9370 C   0  0  0  0  0  3  0  0  0  0  0  0
  181.9280  178.3440  139.9600 C   0  0  0  0  0  0  0  0  0  0  0  0
  180.4310  176.4800  139.5590 C   0  0  0  0  0  3  0  0  0  0  0  0
  181.0130  179.2060  139.3350 C   0  0  0  0  0  3  0  0  0  0  0  0
  181.6320  176.9810  140.0700 C   0  0  0  0  0  3  0  0  0  0  0  0
  178.9310  179.5370  138.2230 F   0  0  0  0  0  0  0  0  0  0  0  0
  189.2270  177.2510  142.0920 C   0  0  0  0  0  2  0  0  0  0  0  0
  191.8000  177.2580  140.5900 C   0  0  0  0  0  1  0  0  0  0  0  0
  190.3430  178.1530  142.3900 N   0  0  0  0  0  0  0  0  0  0  0  0
  191.6350  177.5120  142.0780 C   0  0  1  0  0  3  0  0  0  0  0  0
  191.3010  176.3160  144.3010 C   0  0  0  0  0  2  0  0  0  0  0  0
  191.1770  177.7630  144.7560 C   0  0  0  0  0  2  0  0  0  0  0  0
  190.2540  178.5490  143.8100 C   0  0  0  0  0  2  0  0  0  0  0  0
  191.8920  176.2340  142.8930 C   0  0  0  0  0  2  0  0  0  0  0  0
  1 11  1  0  0  0  0
  2  6  2  0  0  0  0
  3  8  1  0  0  0  0
  4 18  1  0  0  0  0
  6  5  1  0  0  0  0
  7  9  1  0  0  0  0
  8  2  1  0  0  0  0
  8  1  2  0  0  0  0
  9 14  2  0  0  0  0
 10  4  1  0  0  0  0
 11  5  2  0  0  0  0
 12  3  1  0  0  0  0
 12 19  1  1  0  0  0
 13  1  1  0  0  0  0
 14  2  1  0  0  0  0
 15  4  2  0  0  0  0
 15 16  1  0  0  0  0
 16 22  1  6  0  0  0
 16 12  1  0  0  0  0
 17  7  1  0  0  0  0
 18  7  1  0  0  0  0
 18  3  2  0  0  0  0
 19 13  1  0  0  0  0
 20 21  2  0  0  0  0
 20 24  1  0  0  0  0
 21 23  1  0  0  0  0
 22 25  1  0  0  0  0
 23 25  2  0  0  0  0
 24 22  2  0  0  0  0
 26 20  1  0  0  0  0
 27 29  1  0  0  0  0
 27  9  1  0  0  0  0
 29 33  1  0  0  0  0
 30 28  1  6  0  0  0
 30 29  1  0  0  0  0
 30 34  1  0  0  0  0
 31 32  1  0  0  0  0
 33 32  1  0  0  0  0
 34 31  1  0  0  0  0
M  END
>  <MODEL>
3

>  <REMARK>
 VINA RESULT:      -9.9      1.859      3.262
  Name = 
  3 active torsions:
  status: ('A' for Active; 'I' for Inactive)
    1  A    between atoms: C_3  and  N_13
    2  A    between atoms: C_3  and  C_17
    3  A    between atoms: C_12  and  C_28
                            x       y       z     vdW  Elec       q    Type
                         _______ _______ _______ _____ _____    ______ ____

>  <TORSDO>
F 3

$$$$
=
 OpenBabel11052414083D

 34 39  0  0  1  0  0  0  0  0999 V2000
  188.4000  177.6340  136.9320 C   0  0  0  0  0  0  0  0  0  0  0  0
  185.9820  177.4660  136.6620 C   0  0  0  0  0  0  0  0  0  0  0  0
  187.0070  178.0930  138.9730 C   0  0  0  0  0  0  0  0  0  0  0  0
  185.8120  178.7170  141.0400 C   0  0  0  0  0  0  0  0  0  0  0  0
  187.4620  177.0850  134.7730 C   0  0  0  0  0  3  0  0  0  0  0  0
  186.1860  177.1420  135.3170 C   0  0  0  0  0  3  0  0  0  0  0  0
  184.7660  179.0260  138.8030 N   0  0  0  0  0  0  0  0  0  0  0  0
  187.1010  177.7590  137.5030 C   0  0  0  0  0  0  0  0  0  0  0  0
  184.0190  178.0620  138.0690 C   0  0  0  0  0  0  0  0  0  0  0  0
  184.5760  178.8850  141.6530 O   0  0  0  0  0  1  0  0  0  0  0  0
  188.5640  177.3140  135.5840 C   0  0  0  0  0  3  0  0  0  0  0  0
  188.2630  177.8590  139.8090 C   0  0  2  0  0  3  0  0  0  0  0  0
  189.6530  177.6720  137.7550 C   0  0  0  0  0  2  0  0  0  0  0  0
  184.5790  177.3760  137.0870 C   0  0  0  0  0  3  0  0  0  0  0  0
  186.8940  178.6280  141.8010 C   0  0  0  0  0  3  0  0  0  0  0  0
  188.2520  178.5320  141.1900 C   0  0  1  0  0  3  0  0  0  0  0  0
  184.1800  180.2660  139.0940 N   0  0  0  0  0  1  0  0  0  0  0  0
  185.8950  178.5980  139.5650 C   0  0  0  0  0  0  0  0  0  0  0  0
  189.4610  178.4190  139.0580 C   0  0  0  0  0  2  0  0  0  0  0  0
  191.0770  178.0180  143.6910 C   0  0  0  0  0  0  0  0  0  0  0  0
  191.0060  176.6360  143.8940 C   0  0  0  0  0  3  0  0  0  0  0  0
  189.2180  177.8850  142.1350 C   0  0  0  0  0  0  0  0  0  0  0  0
  190.0440  175.8790  143.2180 C   0  0  0  0  0  3  0  0  0  0  0  0
  190.1850  178.6420  142.8130 C   0  0  0  0  0  3  0  0  0  0  0  0
  189.1520  176.5020  142.3400 C   0  0  0  0  0  3  0  0  0  0  0  0
  192.0090  178.7520  144.3450 F   0  0  0  0  0  0  0  0  0  0  0  0
  182.5530  177.8960  138.3160 C   0  0  0  0  0  2  0  0  0  0  0  0
  182.1400  174.9500  138.1470 C   0  0  0  0  0  1  0  0  0  0  0  0
  182.3200  177.0380  139.4800 N   0  0  0  0  0  0  0  0  0  0  0  0
  181.4600  175.8920  139.1260 C   0  0  1  0  0  3  0  0  0  0  0  0
  179.5590  177.5750  139.3090 C   0  0  0  0  0  2  0  0  0  0  0  0
  180.1970  177.7450  140.6800 C   0  0  0  0  0  2  0  0  0  0  0  0
  181.7250  177.8610  140.5530 C   0  0  0  0  0  2  0  0  0  0  0  0
  180.0690  176.3090  138.6190 C   0  0  0  0  0  2  0  0  0  0  0  0
  1  8  1  0  0  0  0
  1 13  1  0  0  0  0
  2 14  1  0  0  0  0
  2  8  2  0  0  0  0
  3 18  2  0  0  0  0
  3 12  1  0  0  0  0
  4 10  1  0  0  0  0
  4 15  2  0  0  0  0
  5  6  2  0  0  0  0
  5 11  1  0  0  0  0
  6  2  1  0  0  0  0
  7 17  1  0  0  0  0
  7 18  1  0  0  0  0
  8  3  1  0  0  0  0
  9 27  1  0  0  0  0
  9  7  1  0  0  0  0
 11  1  2  0  0  0  0
 12 19  1  6  0  0  0
 12 16  1  0  0  0  0
 13 19  1  0  0  0  0
 14  9  2  0  0  0  0
 16 15  1  0  0  0  0
 16 22  1  1  0  0  0
 18  4  1  0  0  0  0
 20 21  1  0  0  0  0
 20 26  1  0  0  0  0
 22 25  2  0  0  0  0
 22 24  1  0  0  0  0
 23 21  2  0  0  0  0
 24 20  2  0  0  0  0
 25 23  1  0  0  0  0
 27 29  1  0  0  0  0
 29 33  1  0  0  0  0
 30 28  1  6  0  0  0
 30 29  1  0  0  0  0
 31 32  1  0  0  0  0
 33 32  1  0  0  0  0
 34 30  1  0  0  0  0
 34 31  1  0  0  0  0
M  END
>  <MODEL>
4

>  <REMARK>
 VINA RESULT:      -9.7      3.572      8.343
  Name = 
  3 active torsions:
  status: ('A' for Active; 'I' for Inactive)
    1  A    between atoms: C_3  and  N_13
    2  A    between atoms: C_3  and  C_17
    3  A    between atoms: C_12  and  C_28
                            x       y       z     vdW  Elec       q    Type
                         _______ _______ _______ _____ _____    ______ ____

>  <TORSDO>
F 3

$$$$
=
 OpenBabel11052414083D

 34 39  0  0  1  0  0  0  0  0999 V2000
  188.5790  177.5120  144.0900 C   0  0  0  0  0  0  0  0  0  0  0  0
  189.7440  176.7250  142.0970 C   0  0  0  0  0  0  0  0  0  0  0  0
  187.4640  177.9650  141.8830 C   0  0  0  0  0  0  0  0  0  0  0  0
  186.2890  178.6300  139.8170 C   0  0  0  0  0  0  0  0  0  0  0  0
  190.7110  176.3930  144.3010 C   0  0  0  0  0  3  0  0  0  0  0  0
  190.7610  176.2340  142.9230 C   0  0  0  0  0  3  0  0  0  0  0  0
  188.7550  178.2910  139.8460 N   0  0  0  0  0  0  0  0  0  0  0  0
  188.6310  177.4170  142.6690 C   0  0  0  0  0  0  0  0  0  0  0  0
  189.4510  177.0650  139.6500 C   0  0  0  0  0  0  0  0  0  0  0  0
  186.2910  178.5980  138.4270 O   0  0  0  0  0  1  0  0  0  0  0  0
  189.6150  177.0150  144.8810 C   0  0  0  0  0  3  0  0  0  0  0  0
  186.1650  178.1860  142.6530 C   0  0  2  0  0  3  0  0  0  0  0  0
  187.3620  177.9890  144.8240 C   0  0  0  0  0  2  0  0  0  0  0  0
  189.9120  176.3750  140.6800 C   0  0  0  0  0  3  0  0  0  0  0  0
  185.1630  178.9340  140.4460 C   0  0  0  0  0  3  0  0  0  0  0  0
  185.1290  179.0630  141.9320 C   0  0  1  0  0  3  0  0  0  0  0  0
  189.0550  179.3850  139.0230 N   0  0  0  0  0  1  0  0  0  0  0  0
  187.5210  178.2830  140.5650 C   0  0  0  0  0  0  0  0  0  0  0  0
  186.4880  178.8800  143.9680 C   0  0  0  0  0  2  0  0  0  0  0  0
  181.3800  178.4210  142.0940 C   0  0  0  0  0  0  0  0  0  0  0  0
  181.1680  178.4200  143.4770 C   0  0  0  0  0  3  0  0  0  0  0  0
  183.7440  178.8380  142.4570 C   0  0  0  0  0  0  0  0  0  0  0  0
  182.2420  178.6280  144.3480 C   0  0  0  0  0  3  0  0  0  0  0  0
  182.6650  178.6300  141.5840 C   0  0  0  0  0  3  0  0  0  0  0  0
  183.5270  178.8370  143.8390 C   0  0  0  0  0  3  0  0  0  0  0  0
  180.3400  178.2200  141.2500 F   0  0  0  0  0  0  0  0  0  0  0  0
  189.7810  176.5970  138.2680 C   0  0  0  0  0  2  0  0  0  0  0  0
  192.7390  176.7480  138.5920 C   0  0  0  0  0  1  0  0  0  0  0  0
  190.6570  175.4230  138.3160 N   0  0  0  0  0  0  0  0  0  0  0  0
  191.9840  175.7330  137.7510 C   0  0  1  0  0  3  0  0  0  0  0  0
  190.8230  175.4460  135.5030 C   0  0  0  0  0  2  0  0  0  0  0  0
  190.4850  174.1100  136.1500 C   0  0  0  0  0  2  0  0  0  0  0  0
  189.9950  174.3190  137.5930 C   0  0  0  0  0  2  0  0  0  0  0  0
  191.9310  176.1640  136.2760 C   0  0  0  0  0  2  0  0  0  0  0  0
  1 13  1  0  0  0  0
  1 11  1  0  0  0  0
  2  8  1  0  0  0  0
  2  6  2  0  0  0  0
  3 12  1  0  0  0  0
  3  8  1  0  0  0  0
  4 15  2  0  0  0  0
  4 18  1  0  0  0  0
  5 11  2  0  0  0  0
  6  5  1  0  0  0  0
  7 18  1  0  0  0  0
  8  1  2  0  0  0  0
  9  7  1  0  0  0  0
  9 14  2  0  0  0  0
 10  4  1  0  0  0  0
 12 19  1  1  0  0  0
 14  2  1  0  0  0  0
 15 16  1  0  0  0  0
 16 22  1  1  0  0  0
 16 12  1  0  0  0  0
 17  7  1  0  0  0  0
 18  3  2  0  0  0  0
 19 13  1  0  0  0  0
 20 21  1  0  0  0  0
 21 23  2  0  0  0  0
 22 25  2  0  0  0  0
 24 20  2  0  0  0  0
 24 22  1  0  0  0  0
 25 23  1  0  0  0  0
 26 20  1  0  0  0  0
 27 29  1  0  0  0  0
 27  9  1  0  0  0  0
 30 29  1  0  0  0  0
 30 28  1  1  0  0  0
 31 32  1  0  0  0  0
 31 34  1  0  0  0  0
 32 33  1  0  0  0  0
 33 29  1  0  0  0  0
 34 30  1  0  0  0  0
M  END
>  <MODEL>
5

>  <REMARK>
 VINA RESULT:      -9.6      1.310      2.248
  Name = 
  3 active torsions:
  status: ('A' for Active; 'I' for Inactive)
    1  A    between atoms: C_3  and  N_13
    2  A    between atoms: C_3  and  C_17
    3  A    between atoms: C_12  and  C_28
                            x       y       z     vdW  Elec       q    Type
                         _______ _______ _______ _____ _____    ______ ____

>  <TORSDO>
F 3

$$$$
=
 OpenBabel11052414083D

 34 39  0  0  1  0  0  0  0  0999 V2000
  192.5010  176.3830  137.9830 C   0  0  0  0  0  0  0  0  0  0  0  0
  190.5370  176.1820  136.5520 C   0  0  0  0  0  0  0  0  0  0  0  0
  190.3260  177.2040  138.9380 C   0  0  0  0  0  0  0  0  0  0  0  0
  188.3240  178.1910  139.9910 C   0  0  0  0  0  0  0  0  0  0  0  0
  192.7180  175.4640  135.7580 C   0  0  0  0  0  3  0  0  0  0  0  0
  191.3530  175.6230  135.5630 C   0  0  0  0  0  3  0  0  0  0  0  0
  188.5680  178.1030  137.5160 N   0  0  0  0  0  0  0  0  0  0  0  0
  191.1080  176.6140  137.7890 C   0  0  0  0  0  0  0  0  0  0  0  0
  188.2000  177.0280  136.6600 C   0  0  0  0  0  0  0  0  0  0  0  0
  186.9700  178.4720  139.8580 O   0  0  0  0  0  1  0  0  0  0  0  0
  193.2850  175.8280  136.9710 C   0  0  0  0  0  3  0  0  0  0  0  0
  190.9690  177.1160  140.3200 C   0  0  2  0  0  3  0  0  0  0  0  0
  193.1730  176.5600  139.3120 C   0  0  0  0  0  2  0  0  0  0  0  0
  189.1080  176.1750  136.2130 C   0  0  0  0  0  3  0  0  0  0  0  0
  188.8690  178.2340  141.2000 C   0  0  0  0  0  3  0  0  0  0  0  0
  190.3340  178.0240  141.3850 C   0  0  1  0  0  3  0  0  0  0  0  0
  188.0360  179.3780  137.2780 N   0  0  0  0  0  1  0  0  0  0  0  0
  189.1210  177.8120  138.8000 C   0  0  0  0  0  0  0  0  0  0  0  0
  192.4290  177.5280  140.2070 C   0  0  0  0  0  2  0  0  0  0  0  0
  191.6800  175.9780  144.3010 C   0  0  0  0  0  0  0  0  0  0  0  0
  191.1730  176.6970  145.3880 C   0  0  0  0  0  3  0  0  0  0  0  0
  190.6340  177.5500  142.7740 C   0  0  0  0  0  0  0  0  0  0  0  0
  190.3980  177.8400  145.1700 C   0  0  0  0  0  3  0  0  0  0  0  0
  191.4110  176.4030  142.9960 C   0  0  0  0  0  3  0  0  0  0  0  0
  190.1280  178.2660  143.8650 C   0  0  0  0  0  3  0  0  0  0  0  0
  192.4300  174.8700  144.5120 F   0  0  0  0  0  0  0  0  0  0  0  0
  186.7980  176.9160  136.1490 C   0  0  0  0  0  2  0  0  0  0  0  0
  186.2720  174.0440  136.7450 C   0  0  0  0  0  1  0  0  0  0  0  0
  185.8990  176.4550  137.2100 N   0  0  0  0  0  0  0  0  0  0  0  0
  185.2630  175.1750  136.8420 C   0  0  1  0  0  3  0  0  0  0  0  0
  183.7240  176.6280  135.4260 C   0  0  0  0  0  2  0  0  0  0  0  0
  183.5390  177.2890  136.7840 C   0  0  0  0  0  2  0  0  0  0  0  0
  184.9000  177.5120  137.4650 C   0  0  0  0  0  2  0  0  0  0  0  0
  184.4060  175.2660  135.5680 C   0  0  0  0  0  2  0  0  0  0  0  0
  1 13  1  0  0  0  0
  2  8  2  0  0  0  0
  3 12  1  0  0  0  0
  4 15  2  0  0  0  0
  5 11  1  0  0  0  0
  6  5  2  0  0  0  0
  6  2  1  0  0  0  0
  7 18  1  0  0  0  0
  8  1  1  0  0  0  0
  8  3  1  0  0  0  0
  9  7  1  0  0  0  0
 10  4  1  0  0  0  0
 11  1  2  0  0  0  0
 12 19  1  6  0  0  0
 12 16  1  0  0  0  0
 13 19  1  0  0  0  0
 14  2  1  0  0  0  0
 14  9  2  0  0  0  0
 15 16  1  0  0  0  0
 16 22  1  1  0  0  0
 17  7  1  0  0  0  0
 18  3  2  0  0  0  0
 18  4  1  0  0  0  0
 20 26  1  0  0  0  0
 20 21  1  0  0  0  0
 22 24  1  0  0  0  0
 22 25  2  0  0  0  0
 23 21  2  0  0  0  0
 24 20  2  0  0  0  0
 25 23  1  0  0  0  0
 27  9  1  0  0  0  0
 27 29  1  0  0  0  0
 29 33  1  0  0  0  0
 30 28  1  6  0  0  0
 30 29  1  0  0  0  0
 31 34  1  0  0  0  0
 31 32  1  0  0  0  0
 32 33  1  0  0  0  0
 34 30  1  0  0  0  0
M  END
>  <MODEL>
6

>  <REMARK>
 VINA RESULT:      -9.5      4.530      8.015
  Name = 
  3 active torsions:
  status: ('A' for Active; 'I' for Inactive)
    1  A    between atoms: C_3  and  N_13
    2  A    between atoms: C_3  and  C_17
    3  A    between atoms: C_12  and  C_28
                            x       y       z     vdW  Elec       q    Type
                         _______ _______ _______ _____ _____    ______ ____

>  <TORSDO>
F 3

$$$$
=
 OpenBabel11052414083D

 34 39  0  0  1  0  0  0  0  0999 V2000
  188.9880  177.8290  139.3820 C   0  0  0  0  0  0  0  0  0  0  0  0
  187.0260  177.4990  137.9710 C   0  0  0  0  0  0  0  0  0  0  0  0
  186.7500  178.2150  140.4600 C   0  0  0  0  0  0  0  0  0  0  0  0
  184.6640  178.7810  141.6520 C   0  0  0  0  0  0  0  0  0  0  0  0
  189.2600  177.1970  137.0650 C   0  0  0  0  0  3  0  0  0  0  0  0
  187.8800  177.1750  136.9120 C   0  0  0  0  0  3  0  0  0  0  0  0
  184.8360  178.9970  139.1780 N   0  0  0  0  0  0  0  0  0  0  0  0
  187.5710  177.8730  139.2390 C   0  0  0  0  0  0  0  0  0  0  0  0
  184.5970  177.9780  138.2130 C   0  0  0  0  0  0  0  0  0  0  0  0
  183.2800  178.8730  141.5740 O   0  0  0  0  0  1  0  0  0  0  0  0
  189.8090  177.5070  138.3000 C   0  0  0  0  0  3  0  0  0  0  0  0
  187.4450  178.0740  141.8120 C   0  0  2  0  0  3  0  0  0  0  0  0
  189.6710  177.9580  140.7100 C   0  0  0  0  0  2  0  0  0  0  0  0
  185.6020  177.3200  137.6590 C   0  0  0  0  0  3  0  0  0  0  0  0
  185.2370  178.7710  142.8470 C   0  0  0  0  0  3  0  0  0  0  0  0
  186.7230  178.7590  142.9830 C   0  0  1  0  0  3  0  0  0  0  0  0
  184.1190  180.1980  139.0930 N   0  0  0  0  0  1  0  0  0  0  0  0
  185.4670  178.6520  140.4120 C   0  0  0  0  0  0  0  0  0  0  0  0
  188.8260  178.7040  141.7200 C   0  0  0  0  0  2  0  0  0  0  0  0
  188.8040  177.1960  145.7620 C   0  0  0  0  0  0  0  0  0  0  0  0
  187.8620  177.1230  146.7920 C   0  0  0  0  0  3  0  0  0  0  0  0
  187.1340  178.1870  144.3050 C   0  0  0  0  0  0  0  0  0  0  0  0
  186.5580  177.5820  146.5810 C   0  0  0  0  0  3  0  0  0  0  0  0
  188.4420  177.7250  144.5200 C   0  0  0  0  0  3  0  0  0  0  0  0
  186.1940  178.1120  145.3390 C   0  0  0  0  0  3  0  0  0  0  0  0
  190.0670  176.7510  145.9660 F   0  0  0  0  0  0  0  0  0  0  0  0
  183.2100  177.7180  137.7180 C   0  0  0  0  0  2  0  0  0  0  0  0
  181.9100  175.9860  135.6720 C   0  0  0  0  0  1  0  0  0  0  0  0
  182.8310  176.3220  137.9530 N   0  0  0  0  0  0  0  0  0  0  0  0
  181.6370  175.9610  137.1660 C   0  0  1  0  0  3  0  0  0  0  0  0
  180.3590  177.1800  139.0000 C   0  0  0  0  0  2  0  0  0  0  0  0
  181.1380  176.1770  139.8390 C   0  0  0  0  0  2  0  0  0  0  0  0
  182.6120  176.1370  139.4020 C   0  0  0  0  0  2  0  0  0  0  0  0
  180.3990  176.8020  137.5180 C   0  0  0  0  0  2  0  0  0  0  0  0
  1 13  1  0  0  0  0
  2  8  2  0  0  0  0
  3 12  1  0  0  0  0
  4 15  2  0  0  0  0
  5 11  1  0  0  0  0
  6  5  2  0  0  0  0
  6  2  1  0  0  0  0
  7 18  1  0  0  0  0
  8  1  1  0  0  0  0
  8  3  1  0  0  0  0
  9  7  1  0  0  0  0
 10  4  1  0  0  0  0
 11  1  2  0  0  0  0
 12 19  1  6  0  0  0
 12 16  1  0  0  0  0
 13 19  1  0  0  0  0
 14  2  1  0  0  0  0
 14  9  2  0  0  0  0
 15 16  1  0  0  0  0
 16 22  1  1  0  0  0
 17  7  1  0  0  0  0
 18  3  2  0  0  0  0
 18  4  1  0  0  0  0
 20 26  1  0  0  0  0
 20 21  1  0  0  0  0
 22 24  1  0  0  0  0
 22 25  2  0  0  0  0
 23 21  2  0  0  0  0
 24 20  2  0  0  0  0
 25 23  1  0  0  0  0
 27 29  1  0  0  0  0
 27  9  1  0  0  0  0
 29 33  1  0  0  0  0
 30 28  1  6  0  0  0
 30 34  1  0  0  0  0
 30 29  1  0  0  0  0
 31 32  1  0  0  0  0
 33 32  1  0  0  0  0
 34 31  1  0  0  0  0
M  END
>  <MODEL>
7

>  <REMARK>
 VINA RESULT:      -9.3      3.484      7.074
  Name = 
  3 active torsions:
  status: ('A' for Active; 'I' for Inactive)
    1  A    between atoms: C_3  and  N_13
    2  A    between atoms: C_3  and  C_17
    3  A    between atoms: C_12  and  C_28
                            x       y       z     vdW  Elec       q    Type
                         _______ _______ _______ _____ _____    ______ ____

>  <TORSDO>
F 3

$$$$
=
 OpenBabel11052414083D

 34 39  0  0  1  0  0  0  0  0999 V2000
  187.3470  177.9340  143.0130 C   0  0  0  0  0  0  0  0  0  0  0  0
  189.1480  177.1990  141.5410 C   0  0  0  0  0  0  0  0  0  0  0  0
  186.8910  178.0300  140.5430 C   0  0  0  0  0  0  0  0  0  0  0  0
  186.3070  178.3340  138.1650 C   0  0  0  0  0  0  0  0  0  0  0  0
  189.4500  177.1990  143.9520 C   0  0  0  0  0  3  0  0  0  0  0  0
  189.9290  176.9450  142.6740 C   0  0  0  0  0  3  0  0  0  0  0  0
  188.6740  178.4060  138.9310 N   0  0  0  0  0  0  0  0  0  0  0  0
  187.8330  177.7420  141.6870 C   0  0  0  0  0  0  0  0  0  0  0  0
  189.5540  177.2990  139.0890 C   0  0  0  0  0  0  0  0  0  0  0  0
  186.7270  178.1980  136.8470 O   0  0  0  0  0  1  0  0  0  0  0  0
  188.1580  177.6750  144.1190 C   0  0  0  0  0  3  0  0  0  0  0  0
  185.4040  178.0940  140.8820 C   0  0  2  0  0  3  0  0  0  0  0  0
  185.9150  178.2610  143.3100 C   0  0  0  0  0  2  0  0  0  0  0  0
  189.7760  176.7740  140.2830 C   0  0  0  0  0  3  0  0  0  0  0  0
  185.0140  178.4970  138.4080 C   0  0  0  0  0  3  0  0  0  0  0  0
  184.5220  178.7320  139.7970 C   0  0  1  0  0  3  0  0  0  0  0  0
  189.0560  179.4690  138.1000 N   0  0  0  0  0  1  0  0  0  0  0  0
  187.2950  178.2520  139.2670 C   0  0  0  0  0  0  0  0  0  0  0  0
  185.2240  178.9290  142.1400 C   0  0  0  0  0  2  0  0  0  0  0  0
  181.3610  176.6180  139.9700 C   0  0  0  0  0  0  0  0  0  0  0  0
  180.3920  177.6020  140.1880 C   0  0  0  0  0  3  0  0  0  0  0  0
  183.0870  178.3240  139.9320 C   0  0  0  0  0  0  0  0  0  0  0  0
  180.7690  178.9460  140.2780 C   0  0  0  0  0  3  0  0  0  0  0  0
  182.7060  176.9770  139.8420 C   0  0  0  0  0  3  0  0  0  0  0  0
  182.1140  179.3060  140.1490 C   0  0  0  0  0  3  0  0  0  0  0  0
  180.9960  175.3160  139.8830 F   0  0  0  0  0  0  0  0  0  0  0  0
  190.3400  176.7880  137.9240 C   0  0  0  0  0  2  0  0  0  0  0  0
  193.1800  176.7490  138.8260 C   0  0  0  0  0  1  0  0  0  0  0  0
  191.0640  175.5660  138.2860 N   0  0  0  0  0  0  0  0  0  0  0  0
  192.5000  175.6920  137.9720 C   0  0  1  0  0  3  0  0  0  0  0  0
  191.7710  175.1960  135.5830 C   0  0  0  0  0  2  0  0  0  0  0  0
  191.1780  173.9910  136.2980 C   0  0  0  0  0  2  0  0  0  0  0  0
  190.4430  174.4300  137.5760 C   0  0  0  0  0  2  0  0  0  0  0  0
  192.7780  175.9230  136.4770 C   0  0  0  0  0  2  0  0  0  0  0  0
  1 13  1  0  0  0  0
  1 11  1  0  0  0  0
  2  8  1  0  0  0  0
  2  6  2  0  0  0  0
  3 12  1  0  0  0  0
  3  8  1  0  0  0  0
  4 15  2  0  0  0  0
  4 18  1  0  0  0  0
  5 11  2  0  0  0  0
  6  5  1  0  0  0  0
  7  9  1  0  0  0  0
  7 18  1  0  0  0  0
  8  1  2  0  0  0  0
  9 14  2  0  0  0  0
 10  4  1  0  0  0  0
 12 19  1  1  0  0  0
 14  2  1  0  0  0  0
 15 16  1  0  0  0  0
 16 22  1  6  0  0  0
 16 12  1  0  0  0  0
 17  7  1  0  0  0  0
 18  3  2  0  0  0  0
 19 13  1  0  0  0  0
 20 21  1  0  0  0  0
 21 23  2  0  0  0  0
 22 25  2  0  0  0  0
 24 22  1  0  0  0  0
 24 20  2  0  0  0  0
 25 23  1  0  0  0  0
 26 20  1  0  0  0  0
 27 29  1  0  0  0  0
 27  9  1  0  0  0  0
 30 29  1  0  0  0  0
 30 28  1  1  0  0  0
 31 32  1  0  0  0  0
 31 34  1  0  0  0  0
 32 33  1  0  0  0  0
 33 29  1  0  0  0  0
 34 30  1  0  0  0  0
M  END
>  <MODEL>
8

>  <REMARK>
 VINA RESULT:      -9.1      1.975      2.950
  Name = 
  3 active torsions:
  status: ('A' for Active; 'I' for Inactive)
    1  A    between atoms: C_3  and  N_13
    2  A    between atoms: C_3  and  C_17
    3  A    between atoms: C_12  and  C_28
                            x       y       z     vdW  Elec       q    Type
                         _______ _______ _______ _____ _____    ______ ____

>  <TORSDO>
F 3

$$$$
=
 OpenBabel11052414083D

 34 39  0  0  1  0  0  0  0  0999 V2000
  185.0520  178.7180  141.9720 C   0  0  0  0  0  0  0  0  0  0  0  0
  186.4320  177.8790  143.8000 C   0  0  0  0  0  0  0  0  0  0  0  0
  187.3890  178.0080  141.3810 C   0  0  0  0  0  0  0  0  0  0  0  0
  189.6850  177.5010  140.6320 C   0  0  0  0  0  0  0  0  0  0  0  0
  184.1610  178.6370  144.2180 C   0  0  0  0  0  3  0  0  0  0  0  0
  185.3590  178.0980  144.6700 C   0  0  0  0  0  3  0  0  0  0  0  0
  189.2140  178.1720  142.9820 N   0  0  0  0  0  0  0  0  0  0  0  0
  186.3120  178.2240  142.4170 C   0  0  0  0  0  0  0  0  0  0  0  0
  188.8410  177.3160  144.0560 C   0  0  0  0  0  0  0  0  0  0  0  0
  190.9470  177.0520  141.0020 O   0  0  0  0  0  1  0  0  0  0  0  0
  184.0050  178.9290  142.8710 C   0  0  0  0  0  3  0  0  0  0  0  0
  186.9330  177.9310  139.9260 C   0  0  2  0  0  3  0  0  0  0  0  0
  184.7150  178.8850  140.5210 C   0  0  0  0  0  2  0  0  0  0  0  0
  187.5770  177.2080  144.4290 C   0  0  0  0  0  3  0  0  0  0  0  0
  189.3670  177.5210  139.3450 C   0  0  0  0  0  3  0  0  0  0  0  0
  188.0580  178.0730  138.8890 C   0  0  1  0  0  3  0  0  0  0  0  0
  190.3440  178.9900  143.1220 N   0  0  0  0  0  1  0  0  0  0  0  0
  188.7100  177.9060  141.6730 C   0  0  0  0  0  0  0  0  0  0  0  0
  185.9490  179.0600  139.6620 C   0  0  0  0  0  2  0  0  0  0  0  0
  187.1120  175.6050  136.1490 C   0  0  0  0  0  0  0  0  0  0  0  0
  186.9440  176.4660  135.0600 C   0  0  0  0  0  3  0  0  0  0  0  0
  187.6700  177.5000  137.5610 C   0  0  0  0  0  0  0  0  0  0  0  0
  187.1390  177.8420  135.2200 C   0  0  0  0  0  3  0  0  0  0  0  0
  187.4740  176.1200  137.3970 C   0  0  0  0  0  3  0  0  0  0  0  0
  187.5020  178.3570  136.4680 C   0  0  0  0  0  3  0  0  0  0  0  0
  186.9240  174.2730  135.9940 F   0  0  0  0  0  0  0  0  0  0  0  0
  189.8890  176.6160  144.8620 C   0  0  0  0  0  2  0  0  0  0  0  0
  192.1930  175.9230  146.6190 C   0  0  0  0  0  1  0  0  0  0  0  0
  190.4160  177.5020  145.9030 N   0  0  0  0  0  0  0  0  0  0  0  0
  190.9680  176.7230  147.0280 C   0  0  1  0  0  3  0  0  0  0  0  0
  188.5330  176.4630  147.7250 C   0  0  0  0  0  2  0  0  0  0  0  0
  188.6250  177.9800  147.6380 C   0  0  0  0  0  2  0  0  0  0  0  0
  189.3310  178.4040  146.3390 C   0  0  0  0  0  2  0  0  0  0  0  0
  189.9250  175.8290  147.7180 C   0  0  0  0  0  2  0  0  0  0  0  0
  1  8  2  0  0  0  0
  1 11  1  0  0  0  0
  2 14  1  0  0  0  0
  2  6  2  0  0  0  0
  3 18  2  0  0  0  0
  3  8  1  0  0  0  0
  4 10  1  0  0  0  0
  4 18  1  0  0  0  0
  5  6  1  0  0  0  0
  7 17  1  0  0  0  0
  7  9  1  0  0  0  0
  8  2  1  0  0  0  0
  9 14  2  0  0  0  0
  9 27  1  0  0  0  0
 11  5  2  0  0  0  0
 12 19  1  6  0  0  0
 12  3  1  0  0  0  0
 13  1  1  0  0  0  0
 15  4  2  0  0  0  0
 16 22  1  6  0  0  0
 16 15  1  0  0  0  0
 16 12  1  0  0  0  0
 18  7  1  0  0  0  0
 19 13  1  0  0  0  0
 20 24  1  0  0  0  0
 21 23  1  0  0  0  0
 21 20  2  0  0  0  0
 23 25  2  0  0  0  0
 24 22  2  0  0  0  0
 25 22  1  0  0  0  0
 26 20  1  0  0  0  0
 27 29  1  0  0  0  0
 29 33  1  0  0  0  0
 29 30  1  0  0  0  0
 30 28  1  6  0  0  0
 30 34  1  0  0  0  0
 32 31  1  0  0  0  0
 33 32  1  0  0  0  0
 34 31  1  0  0  0  0
M  END
>  <MODEL>
9

>  <REMARK>
 VINA RESULT:      -9.0      2.774      6.689
  Name = 
  3 active torsions:
  status: ('A' for Active; 'I' for Inactive)
    1  A    between atoms: C_3  and  N_13
    2  A    between atoms: C_3  and  C_17
    3  A    between atoms: C_12  and  C_28
                            x       y       z     vdW  Elec       q    Type
                         _______ _______ _______ _____ _____    ______ ____

>  <TORSDO>
F 3

$$$$
