=
 OpenBabel11052415403D

 34 39  0  0  1  0  0  0  0  0999 V2000
  188.9270  177.1690  145.5660 C   0  0  0  0  0  0  0  0  0  0  0  0
  185.4940  178.2020  146.9180 C   0  0  0  0  0  2  0  0  0  0  0  0
  187.7600  178.1600  147.9480 C   0  0  0  0  0  3  0  0  0  0  0  0
  191.1470  177.2020  146.9730 C   0  0  1  0  0  3  0  0  0  0  0  0
  191.4220  177.7650  148.3050 N   0  0  0  0  0  0  0  0  0  0  0  0
  191.4550  175.7810  146.9890 N   0  0  0  0  0  1  0  0  0  0  0  0
  189.1220  177.8970  147.8630 C   0  0  0  0  0  0  0  0  0  0  0  0
  189.6950  177.4000  146.7310 C   0  0  0  0  0  0  0  0  0  0  0  0
  190.1310  178.1140  148.9130 C   0  0  0  0  0  3  0  0  0  0  0  0
  185.1760  179.2450  146.0380 O   0  0  0  0  0  0  0  0  0  0  0  0
  184.7270  178.6260  144.8630 C   0  0  2  0  0  3  0  0  0  0  0  0
  185.9090  178.3350  143.9400 C   0  0  0  0  0  2  0  0  0  0  0  0
  186.9570  177.9040  146.8310 C   0  0  0  0  0  0  0  0  0  0  0  0
  186.6780  177.1130  144.4300 C   0  0  0  0  0  2  0  0  0  0  0  0
  187.5360  177.4190  145.6280 C   0  0  0  0  0  0  0  0  0  0  0  0
  183.7480  179.5430  144.1540 C   0  0  0  0  0  3  0  0  0  0  0  0
  182.3740  178.9030  144.1380 C   0  0  0  0  0  2  0  0  0  0  0  0
  183.2420  178.8600  142.8990 C   0  0  0  0  0  2  0  0  0  0  0  0
  190.3190  177.4020  143.5870 C   0  0  0  0  0  3  0  0  0  0  0  0
  189.4930  176.7270  144.3200 N   0  0  0  0  0  0  0  0  0  0  0  0
  190.8090  176.8330  142.3000 C   0  0  0  0  0  2  0  0  0  0  0  0
  187.8120  178.1670  140.5700 C   0  0  0  0  0  2  0  0  0  0  0  0
  190.3880  176.8920  139.9820 C   0  0  0  0  0  2  0  0  0  0  0  0
  187.4950  177.4740  136.8440 C   0  0  0  0  0  0  0  0  0  0  0  0
  187.2250  177.9240  138.1460 C   0  0  0  0  0  3  0  0  0  0  0  0
  188.1550  177.7310  139.1720 C   0  0  0  0  0  0  0  0  0  0  0  0
  189.6400  176.6160  137.6050 C   0  0  0  0  0  3  0  0  0  0  0  0
  189.3610  177.0550  138.9010 C   0  0  0  0  0  0  0  0  0  0  0  0
  188.7090  176.8200  136.5820 C   0  0  0  0  0  3  0  0  0  0  0  0
  189.7510  176.8670  141.3020 N   0  0  0  0  0  0  0  0  0  0  0  0
  189.0390  178.1310  141.4830 C   0  0  0  0  0  2  0  0  0  0  0  0
  186.5120  177.6770  135.7620 C   0  0  0  0  0  0  0  0  0  0  0  0
  185.1300  177.4100  135.9880 N   0  0  0  0  0  1  0  0  0  0  0  0
  186.8930  178.0890  134.5970 N   0  0  0  0  0  2  0  0  0  0  0  0
  1 15  2  0  0  0  0
  1  8  1  0  0  0  0
  4  6  1  1  0  0  0
  4  5  1  0  0  0  0
  5  9  2  0  0  0  0
  7  3  1  0  0  0  0
  7  9  1  0  0  0  0
  8  4  1  0  0  0  0
  8  7  2  0  0  0  0
 10  2  1  0  0  0  0
 11 16  1  6  0  0  0
 11 10  1  0  0  0  0
 12 14  1  0  0  0  0
 12 11  1  0  0  0  0
 13  2  1  0  0  0  0
 13  3  2  0  0  0  0
 14 15  1  0  0  0  0
 15 13  1  0  0  0  0
 17 16  1  0  0  0  0
 18 17  1  0  0  0  0
 18 16  1  0  0  0  0
 19 20  2  0  0  0  0
 20  1  1  0  0  0  0
 21 19  1  0  0  0  0
 22 31  1  0  0  0  0
 23 30  1  0  0  0  0
 24 25  1  0  0  0  0
 25 26  2  0  0  0  0
 26 22  1  0  0  0  0
 27 28  2  0  0  0  0
 28 26  1  0  0  0  0
 28 23  1  0  0  0  0
 29 24  2  0  0  0  0
 29 27  1  0  0  0  0
 30 31  1  0  0  0  0
 30 21  1  0  0  0  0
 32 33  1  0  0  0  0
 32 24  1  0  0  0  0
 34 32  2  0  0  0  0
M  END
>  <MODEL>
1

>  <REMARK>
 VINA RESULT:      -9.9      0.000      0.000
  Name = 
  5 active torsions:
  status: ('A' for Active; 'I' for Inactive)
    1  A    between atoms: C_1  and  N_9
    2  A    between atoms: C_3  and  C_25
    3  A    between atoms: C_7  and  C_11
    4  A    between atoms: C_8  and  C_18
    5  A    between atoms: C_18  and  N_30
                            x       y       z     vdW  Elec       q    Type
                         _______ _______ _______ _____ _____    ______ ____

>  <TORSDO>
F 5

$$$$
=
 OpenBabel11052415403D

 34 39  0  0  1  0  0  0  0  0999 V2000
  189.2670  177.7210  144.9320 C   0  0  0  0  0  0  0  0  0  0  0  0
  191.3710  177.3850  141.7480 C   0  0  0  0  0  2  0  0  0  0  0  0
  191.7350  176.6180  144.0880 C   0  0  0  0  0  3  0  0  0  0  0  0
  189.9930  176.8200  147.2920 C   0  0  1  0  0  3  0  0  0  0  0  0
  191.1160  175.9490  147.6750 N   0  0  0  0  0  0  0  0  0  0  0  0
  190.1010  178.0760  148.0170 N   0  0  0  0  0  1  0  0  0  0  0  0
  191.3120  176.5210  145.4090 C   0  0  0  0  0  0  0  0  0  0  0  0
  190.1370  177.0660  145.8340 C   0  0  0  0  0  0  0  0  0  0  0  0
  192.0070  175.8390  146.5120 C   0  0  0  0  0  3  0  0  0  0  0  0
  190.4900  176.6610  140.9340 O   0  0  0  0  0  0  0  0  0  0  0  0
  189.5710  177.5990  140.4430 C   0  0  2  0  0  3  0  0  0  0  0  0
  188.4020  177.7470  141.4160 C   0  0  0  0  0  2  0  0  0  0  0  0
  190.9230  177.2960  143.1720 C   0  0  0  0  0  0  0  0  0  0  0  0
  188.8100  178.5980  142.6140 C   0  0  0  0  0  2  0  0  0  0  0  0
  189.6780  177.8410  143.5840 C   0  0  0  0  0  0  0  0  0  0  0  0
  189.0490  177.1360  139.0960 C   0  0  0  0  0  3  0  0  0  0  0  0
  189.2530  178.2330  138.0690 C   0  0  0  0  0  2  0  0  0  0  0  0
  187.8870  178.0140  138.6800 C   0  0  0  0  0  2  0  0  0  0  0  0
  186.8940  177.5430  145.4250 C   0  0  0  0  0  3  0  0  0  0  0  0
  187.9790  178.2390  145.3090 N   0  0  0  0  0  0  0  0  0  0  0  0
  185.6160  178.2140  145.7990 C   0  0  0  0  0  2  0  0  0  0  0  0
  182.3980  178.7570  144.0350 C   0  0  0  0  0  2  0  0  0  0  0  0
  185.2780  178.5990  143.4990 C   0  0  0  0  0  2  0  0  0  0  0  0
  182.4750  178.7780  140.2330 C   0  0  0  0  0  0  0  0  0  0  0  0
  182.0190  178.8300  141.5600 C   0  0  0  0  0  3  0  0  0  0  0  0
  182.9220  178.7630  142.6250 C   0  0  0  0  0  0  0  0  0  0  0  0
  184.7580  178.5760  141.0460 C   0  0  0  0  0  3  0  0  0  0  0  0
  184.2980  178.6160  142.3640 C   0  0  0  0  0  0  0  0  0  0  0  0
  183.8500  178.6520  139.9850 C   0  0  0  0  0  3  0  0  0  0  0  0
  184.6490  178.0850  144.7190 N   0  0  0  0  0  0  0  0  0  0  0  0
  183.5260  178.9600  145.0490 C   0  0  0  0  0  2  0  0  0  0  0  0
  181.5210  178.8470  139.1090 C   0  0  0  0  0  0  0  0  0  0  0  0
  180.3300  178.0650  139.1290 N   0  0  0  0  0  1  0  0  0  0  0  0
  181.7590  179.6080  138.0910 N   0  0  0  0  0  2  0  0  0  0  0  0
  1 20  1  0  0  0  0
  1  8  1  0  0  0  0
  2 13  1  0  0  0  0
  3  7  1  0  0  0  0
  4  5  1  0  0  0  0
  4  6  1  1  0  0  0
  7  8  2  0  0  0  0
  7  9  1  0  0  0  0
  8  4  1  0  0  0  0
  9  5  2  0  0  0  0
 10  2  1  0  0  0  0
 11 16  1  6  0  0  0
 11 10  1  0  0  0  0
 11 12  1  0  0  0  0
 12 14  1  0  0  0  0
 13 15  1  0  0  0  0
 13  3  2  0  0  0  0
 14 15  1  0  0  0  0
 15  1  2  0  0  0  0
 17 18  1  0  0  0  0
 17 16  1  0  0  0  0
 18 16  1  0  0  0  0
 19 21  1  0  0  0  0
 20 19  2  0  0  0  0
 22 31  1  0  0  0  0
 23 30  1  0  0  0  0
 24 25  1  0  0  0  0
 25 26  2  0  0  0  0
 26 22  1  0  0  0  0
 27 28  2  0  0  0  0
 28 26  1  0  0  0  0
 28 23  1  0  0  0  0
 29 24  2  0  0  0  0
 29 27  1  0  0  0  0
 30 31  1  0  0  0  0
 30 21  1  0  0  0  0
 32 33  1  0  0  0  0
 32 24  1  0  0  0  0
 34 32  2  0  0  0  0
M  END
>  <MODEL>
2

>  <REMARK>
 VINA RESULT:      -9.7      2.522      5.595
  Name = 
  5 active torsions:
  status: ('A' for Active; 'I' for Inactive)
    1  A    between atoms: C_1  and  N_9
    2  A    between atoms: C_3  and  C_25
    3  A    between atoms: C_7  and  C_11
    4  A    between atoms: C_8  and  C_18
    5  A    between atoms: C_18  and  N_30
                            x       y       z     vdW  Elec       q    Type
                         _______ _______ _______ _____ _____    ______ ____

>  <TORSDO>
F 5

$$$$
=
 OpenBabel11052415403D

 34 39  0  0  1  0  0  0  0  0999 V2000
  183.4920  178.4380  141.9750 C   0  0  0  0  0  0  0  0  0  0  0  0
  185.3880  178.9980  145.2570 C   0  0  0  0  0  2  0  0  0  0  0  0
  182.9590  178.9250  144.7140 C   0  0  0  0  0  3  0  0  0  0  0  0
  180.8730  178.4790  141.7490 C   0  0  1  0  0  3  0  0  0  0  0  0
  179.8280  178.5130  142.7860 N   0  0  0  0  0  0  0  0  0  0  0  0
  180.7140  179.6340  140.8810 N   0  0  0  0  0  1  0  0  0  0  0  0
  181.9310  178.7750  143.7910 C   0  0  0  0  0  0  0  0  0  0  0  0
  182.1710  178.5620  142.4670 C   0  0  0  0  0  0  0  0  0  0  0  0
  180.4850  178.8000  144.0670 C   0  0  0  0  0  3  0  0  0  0  0  0
  186.0900  177.7900  145.3570 O   0  0  0  0  0  0  0  0  0  0  0  0
  187.1860  177.9170  144.4920 C   0  0  2  0  0  3  0  0  0  0  0  0
  186.7990  177.4670  143.0850 C   0  0  0  0  0  2  0  0  0  0  0  0
  184.2820  178.8530  144.2620 C   0  0  0  0  0  0  0  0  0  0  0  0
  185.9760  178.5460  142.3890 C   0  0  0  0  0  2  0  0  0  0  0  0
  184.5570  178.5960  142.8920 C   0  0  0  0  0  0  0  0  0  0  0  0
  188.3290  177.0570  144.9990 C   0  0  0  0  0  3  0  0  0  0  0  0
  189.5090  177.9400  145.3550 C   0  0  0  0  0  2  0  0  0  0  0  0
  189.5040  177.1750  144.0490 C   0  0  0  0  0  2  0  0  0  0  0  0
  183.9400  178.9950  139.6530 C   0  0  0  0  0  3  0  0  0  0  0  0
  183.8000  178.1300  140.6050 N   0  0  0  0  0  0  0  0  0  0  0  0
  184.2350  178.5350  138.2660 C   0  0  0  0  0  2  0  0  0  0  0  0
  186.8080  176.3000  136.8040 C   0  0  0  0  0  2  0  0  0  0  0  0
  186.5530  178.5360  138.6850 C   0  0  0  0  0  2  0  0  0  0  0  0
  190.3010  176.4490  138.3000 C   0  0  0  0  0  0  0  0  0  0  0  0
  189.2050  176.0860  137.5020 C   0  0  0  0  0  3  0  0  0  0  0  0
  187.9820  176.7530  137.6280 C   0  0  0  0  0  0  0  0  0  0  0  0
  188.9340  178.1530  139.3700 C   0  0  0  0  0  3  0  0  0  0  0  0
  187.8430  177.7790  138.5820 C   0  0  0  0  0  0  0  0  0  0  0  0
  190.1560  177.4870  139.2330 C   0  0  0  0  0  3  0  0  0  0  0  0
  185.4270  177.7020  138.2570 N   0  0  0  0  0  0  0  0  0  0  0  0
  185.6590  177.3080  136.8690 C   0  0  0  0  0  2  0  0  0  0  0  0
  191.5910  175.7440  138.1680 C   0  0  0  0  0  0  0  0  0  0  0  0
  192.8160  176.4440  138.3640 N   0  0  0  0  0  1  0  0  0  0  0  0
  191.6240  174.4870  137.8650 N   0  0  0  0  0  2  0  0  0  0  0  0
  1  8  2  0  0  0  0
  1 15  1  0  0  0  0
  2 10  1  0  0  0  0
  4  6  1  6  0  0  0
  4  8  1  0  0  0  0
  4  5  1  0  0  0  0
  5  9  2  0  0  0  0
  7  9  1  0  0  0  0
  7  3  2  0  0  0  0
  8  7  1  0  0  0  0
 11 16  1  1  0  0  0
 11 10  1  0  0  0  0
 12 11  1  0  0  0  0
 13  3  1  0  0  0  0
 13  2  1  0  0  0  0
 14 15  1  0  0  0  0
 14 12  1  0  0  0  0
 15 13  2  0  0  0  0
 16 17  1  0  0  0  0
 18 16  1  0  0  0  0
 18 17  1  0  0  0  0
 19 20  2  0  0  0  0
 20  1  1  0  0  0  0
 21 19  1  0  0  0  0
 22 31  1  0  0  0  0
 22 26  1  0  0  0  0
 24 29  1  0  0  0  0
 25 26  1  0  0  0  0
 25 24  2  0  0  0  0
 26 28  2  0  0  0  0
 28 23  1  0  0  0  0
 28 27  1  0  0  0  0
 29 27  2  0  0  0  0
 30 21  1  0  0  0  0
 30 23  1  0  0  0  0
 31 30  1  0  0  0  0
 32 24  1  0  0  0  0
 32 33  1  0  0  0  0
 34 32  2  0  0  0  0
M  END
>  <MODEL>
3

>  <REMARK>
 VINA RESULT:      -9.6      3.181      6.517
  Name = 
  5 active torsions:
  status: ('A' for Active; 'I' for Inactive)
    1  A    between atoms: C_1  and  N_9
    2  A    between atoms: C_3  and  C_25
    3  A    between atoms: C_7  and  C_11
    4  A    between atoms: C_8  and  C_18
    5  A    between atoms: C_18  and  N_30
                            x       y       z     vdW  Elec       q    Type
                         _______ _______ _______ _____ _____    ______ ____

>  <TORSDO>
F 5

$$$$
=
 OpenBabel11052415403D

 34 39  0  0  1  0  0  0  0  0999 V2000
  186.4770  178.0650  138.5660 C   0  0  0  0  0  0  0  0  0  0  0  0
  183.2570  178.9130  140.4630 C   0  0  0  0  0  2  0  0  0  0  0  0
  183.6710  178.0020  138.1830 C   0  0  0  0  0  3  0  0  0  0  0  0
  186.5500  177.1520  136.1020 C   0  0  1  0  0  3  0  0  0  0  0  0
  185.4640  176.6750  135.2310 N   0  0  0  0  0  0  0  0  0  0  0  0
  187.2320  178.2560  135.4460 N   0  0  0  0  0  1  0  0  0  0  0  0
  184.5480  177.5860  137.1880 C   0  0  0  0  0  0  0  0  0  0  0  0
  185.9000  177.6310  137.3490 C   0  0  0  0  0  0  0  0  0  0  0  0
  184.1920  177.0380  135.8690 C   0  0  0  0  0  3  0  0  0  0  0  0
  183.3730  178.0510  141.5610 O   0  0  0  0  0  0  0  0  0  0  0  0
  184.2680  178.6760  142.4400 C   0  0  2  0  0  3  0  0  0  0  0  0
  185.7030  178.2780  142.0970 C   0  0  0  0  0  2  0  0  0  0  0  0
  184.2010  178.4810  139.3870 C   0  0  0  0  0  0  0  0  0  0  0  0
  186.1890  179.0430  140.8710 C   0  0  0  0  0  2  0  0  0  0  0  0
  185.6060  178.5030  139.5920 C   0  0  0  0  0  0  0  0  0  0  0  0
  183.9560  178.2520  143.8630 C   0  0  0  0  0  3  0  0  0  0  0  0
  183.5980  179.4720  144.6880 C   0  0  0  0  0  2  0  0  0  0  0  0
  184.9770  178.8600  144.8030 C   0  0  0  0  0  2  0  0  0  0  0  0
  188.5960  177.0050  139.1030 C   0  0  0  0  0  3  0  0  0  0  0  0
  187.8920  178.0530  138.8200 N   0  0  0  0  0  0  0  0  0  0  0  0
  190.0560  177.1390  139.3720 C   0  0  0  0  0  2  0  0  0  0  0  0
  192.0430  177.1260  142.5040 C   0  0  0  0  0  2  0  0  0  0  0  0
  189.2900  177.5150  141.5680 C   0  0  0  0  0  2  0  0  0  0  0  0
  190.1260  177.2620  145.7860 C   0  0  0  0  0  0  0  0  0  0  0  0
  191.1730  177.1930  144.8520 C   0  0  0  0  0  3  0  0  0  0  0  0
  190.9090  177.2660  143.4810 C   0  0  0  0  0  0  0  0  0  0  0  0
  188.5350  177.4620  143.9580 C   0  0  0  0  0  3  0  0  0  0  0  0
  189.5780  177.3820  143.0330 C   0  0  0  0  0  0  0  0  0  0  0  0
  188.8070  177.3980  145.3280 C   0  0  0  0  0  3  0  0  0  0  0  0
  190.3340  176.8630  140.7730 N   0  0  0  0  0  0  0  0  0  0  0  0
  191.6080  177.5060  141.0870 C   0  0  0  0  0  2  0  0  0  0  0  0
  190.4060  177.1830  147.2330 C   0  0  0  0  0  0  0  0  0  0  0  0
  191.6810  176.7440  147.6950 N   0  0  0  0  0  2  0  0  0  0  0  0
  189.4980  177.5030  148.0960 N   0  0  0  0  0  1  0  0  0  0  0  0
  1 20  1  0  0  0  0
  1 15  1  0  0  0  0
  2 10  1  0  0  0  0
  3 13  1  0  0  0  0
  4  6  1  6  0  0  0
  4  8  1  0  0  0  0
  5  9  2  0  0  0  0
  5  4  1  0  0  0  0
  7  8  1  0  0  0  0
  7  3  2  0  0  0  0
  8  1  2  0  0  0  0
  9  7  1  0  0  0  0
 10 11  1  0  0  0  0
 11 16  1  1  0  0  0
 12 11  1  0  0  0  0
 13 15  2  0  0  0  0
 13  2  1  0  0  0  0
 14 12  1  0  0  0  0
 15 14  1  0  0  0  0
 16 17  1  0  0  0  0
 16 18  1  0  0  0  0
 17 18  1  0  0  0  0
 19 21  1  0  0  0  0
 20 19  2  0  0  0  0
 21 30  1  0  0  0  0
 22 26  1  0  0  0  0
 23 28  1  0  0  0  0
 24 32  1  0  0  0  0
 25 24  2  0  0  0  0
 26 25  1  0  0  0  0
 27 29  2  0  0  0  0
 28 26  2  0  0  0  0
 28 27  1  0  0  0  0
 29 24  1  0  0  0  0
 30 31  1  0  0  0  0
 30 23  1  0  0  0  0
 31 22  1  0  0  0  0
 32 33  2  0  0  0  0
 32 34  1  0  0  0  0
M  END
>  <MODEL>
4

>  <REMARK>
 VINA RESULT:      -9.4      1.864      8.150
  Name = 
  5 active torsions:
  status: ('A' for Active; 'I' for Inactive)
    1  A    between atoms: C_1  and  N_9
    2  A    between atoms: C_3  and  C_25
    3  A    between atoms: C_7  and  C_11
    4  A    between atoms: C_8  and  C_18
    5  A    between atoms: C_18  and  N_30
                            x       y       z     vdW  Elec       q    Type
                         _______ _______ _______ _____ _____    ______ ____

>  <TORSDO>
F 5

$$$$
=
 OpenBabel11052415403D

 34 39  0  0  1  0  0  0  0  0999 V2000
  190.6290  177.1160  138.2660 C   0  0  0  0  0  0  0  0  0  0  0  0
  187.5580  178.0180  136.1590 C   0  0  0  0  0  2  0  0  0  0  0  0
  189.6170  176.7140  135.6510 C   0  0  0  0  0  3  0  0  0  0  0  0
  192.6850  175.7410  137.3770 C   0  0  1  0  0  3  0  0  0  0  0  0
  192.8630  175.0000  136.1180 N   0  0  0  0  0  0  0  0  0  0  0  0
  193.7260  176.7520  137.4820 N   0  0  0  0  0  1  0  0  0  0  0  0
  190.8450  176.1930  136.0410 C   0  0  0  0  0  0  0  0  0  0  0  0
  191.3550  176.3950  137.2890 C   0  0  0  0  0  0  0  0  0  0  0  0
  191.7500  175.3620  135.2310 C   0  0  0  0  0  3  0  0  0  0  0  0
  186.5450  177.4060  136.9090 O   0  0  0  0  0  0  0  0  0  0  0  0
  186.2890  178.2750  137.9790 C   0  0  2  0  0  3  0  0  0  0  0  0
  187.2180  177.9530  139.1480 C   0  0  0  0  0  2  0  0  0  0  0  0
  188.8860  177.4710  136.5740 C   0  0  0  0  0  0  0  0  0  0  0  0
  188.6160  178.5020  138.8840 C   0  0  0  0  0  2  0  0  0  0  0  0
  189.3800  177.6660  137.8910 C   0  0  0  0  0  0  0  0  0  0  0  0
  184.8470  178.1160  138.4240 C   0  0  0  0  0  3  0  0  0  0  0  0
  184.2080  179.4820  138.5710 C   0  0  0  0  0  2  0  0  0  0  0  0
  184.6760  178.7300  139.7980 C   0  0  0  0  0  2  0  0  0  0  0  0
  190.8080  176.4990  140.6090 C   0  0  0  0  0  3  0  0  0  0  0  0
  191.0800  177.2880  139.6200 N   0  0  0  0  0  0  0  0  0  0  0  0
  191.3200  176.8110  141.9740 C   0  0  0  0  0  2  0  0  0  0  0  0
  189.6150  177.6460  145.1610 C   0  0  0  0  0  2  0  0  0  0  0  0
  189.1080  177.5670  142.2720 C   0  0  0  0  0  2  0  0  0  0  0  0
  185.8690  178.2880  145.0180 C   0  0  0  0  0  0  0  0  0  0  0  0
  187.1790  178.1240  145.4970 C   0  0  0  0  0  3  0  0  0  0  0  0
  188.2340  177.8800  144.6130 C   0  0  0  0  0  0  0  0  0  0  0  0
  186.6770  177.9470  142.7500 C   0  0  0  0  0  3  0  0  0  0  0  0
  187.9760  177.7730  143.2320 C   0  0  0  0  0  0  0  0  0  0  0  0
  185.6280  178.1990  143.6390 C   0  0  0  0  0  3  0  0  0  0  0  0
  190.2180  176.8640  142.9220 N   0  0  0  0  0  0  0  0  0  0  0  0
  190.6670  177.6770  144.0500 C   0  0  0  0  0  2  0  0  0  0  0  0
  184.7560  178.5430  145.9530 C   0  0  0  0  0  0  0  0  0  0  0  0
  184.9090  178.2730  147.3440 N   0  0  0  0  0  1  0  0  0  0  0  0
  183.6280  179.0040  145.5200 N   0  0  0  0  0  2  0  0  0  0  0  0
  1 20  1  0  0  0  0
  2 13  1  0  0  0  0
  2 10  1  0  0  0  0
  3  7  2  0  0  0  0
  3 13  1  0  0  0  0
  4  6  1  6  0  0  0
  5  4  1  0  0  0  0
  7  8  1  0  0  0  0
  8  4  1  0  0  0  0
  8  1  2  0  0  0  0
  9  7  1  0  0  0  0
  9  5  2  0  0  0  0
 10 11  1  0  0  0  0
 11 16  1  1  0  0  0
 11 12  1  0  0  0  0
 13 15  2  0  0  0  0
 14 12  1  0  0  0  0
 15  1  1  0  0  0  0
 15 14  1  0  0  0  0
 16 17  1  0  0  0  0
 16 18  1  0  0  0  0
 17 18  1  0  0  0  0
 19 21  1  0  0  0  0
 20 19  2  0  0  0  0
 21 30  1  0  0  0  0
 23 30  1  0  0  0  0
 23 28  1  0  0  0  0
 24 25  1  0  0  0  0
 24 32  1  0  0  0  0
 26 22  1  0  0  0  0
 26 25  2  0  0  0  0
 27 28  2  0  0  0  0
 27 29  1  0  0  0  0
 28 26  1  0  0  0  0
 29 24  2  0  0  0  0
 30 31  1  0  0  0  0
 31 22  1  0  0  0  0
 32 33  1  0  0  0  0
 34 32  2  0  0  0  0
M  END
>  <MODEL>
5

>  <REMARK>
 VINA RESULT:      -9.3      3.062      8.217
  Name = 
  5 active torsions:
  status: ('A' for Active; 'I' for Inactive)
    1  A    between atoms: C_1  and  N_9
    2  A    between atoms: C_3  and  C_25
    3  A    between atoms: C_7  and  C_11
    4  A    between atoms: C_8  and  C_18
    5  A    between atoms: C_18  and  N_30
                            x       y       z     vdW  Elec       q    Type
                         _______ _______ _______ _____ _____    ______ ____

>  <TORSDO>
F 5

$$$$
=
 OpenBabel11052415403D

 34 39  0  0  1  0  0  0  0  0999 V2000
  182.8670  178.7990  141.4620 C   0  0  0  0  0  0  0  0  0  0  0  0
  185.0300  178.0970  138.3780 C   0  0  0  0  0  2  0  0  0  0  0  0
  182.7540  179.0710  138.6450 C   0  0  0  0  0  3  0  0  0  0  0  0
  180.4410  179.8060  141.3730 C   0  0  1  0  0  3  0  0  0  0  0  0
  179.6930  180.3930  140.2490 N   0  0  0  0  0  0  0  0  0  0  0  0
  179.6840  178.6860  141.9100 N   0  0  0  0  0  1  0  0  0  0  0  0
  181.6960  179.4670  139.4540 C   0  0  0  0  0  0  0  0  0  0  0  0
  181.7260  179.3220  140.8090 C   0  0  0  0  0  0  0  0  0  0  0  0
  180.4360  180.0920  139.0190 C   0  0  0  0  0  3  0  0  0  0  0  0
  186.1410  178.9030  138.6570 O   0  0  0  0  0  0  0  0  0  0  0  0
  186.9090  178.1820  139.5820 C   0  0  2  0  0  3  0  0  0  0  0  0
  186.4450  178.4930  141.0040 C   0  0  0  0  0  2  0  0  0  0  0  0
  183.8850  178.5070  139.2470 C   0  0  0  0  0  0  0  0  0  0  0  0
  185.1530  177.7480  141.3170 C   0  0  0  0  0  2  0  0  0  0  0  0
  183.9550  178.3790  140.6600 C   0  0  0  0  0  0  0  0  0  0  0  0
  188.3690  178.5660  139.4330 C   0  0  0  0  0  3  0  0  0  0  0  0
  189.1700  177.3560  138.9950 C   0  0  0  0  0  2  0  0  0  0  0  0
  189.1960  177.7960  140.4430 C   0  0  0  0  0  2  0  0  0  0  0  0
  183.8060  179.3830  143.6250 C   0  0  0  0  0  3  0  0  0  0  0  0
  182.9850  178.7020  142.8910 N   0  0  0  0  0  0  0  0  0  0  0  0
  183.8450  179.1640  145.0990 C   0  0  0  0  0  2  0  0  0  0  0  0
  186.5760  178.3640  147.4780 C   0  0  0  0  0  2  0  0  0  0  0  0
  185.8770  178.0620  144.6440 C   0  0  0  0  0  2  0  0  0  0  0  0
  189.8350  177.0580  146.0150 C   0  0  0  0  0  0  0  0  0  0  0  0
  188.8620  177.4990  146.9270 C   0  0  0  0  0  3  0  0  0  0  0  0
  187.5780  177.8350  146.4880 C   0  0  0  0  0  0  0  0  0  0  0  0
  188.2270  177.3070  144.2080 C   0  0  0  0  0  3  0  0  0  0  0  0
  187.2670  177.7560  145.1160 C   0  0  0  0  0  0  0  0  0  0  0  0
  189.5070  176.9640  144.6550 C   0  0  0  0  0  3  0  0  0  0  0  0
  185.2200  179.0120  145.5470 N   0  0  0  0  0  0  0  0  0  0  0  0
  185.1690  178.4090  146.8770 C   0  0  0  0  0  2  0  0  0  0  0  0
  191.1900  176.7050  146.4790 C   0  0  0  0  0  0  0  0  0  0  0  0
  191.6320  177.1010  147.7750 N   0  0  0  0  0  1  0  0  0  0  0  0
  191.9950  176.0420  145.7140 N   0  0  0  0  0  2  0  0  0  0  0  0
  1 20  1  0  0  0  0
  2 10  1  0  0  0  0
  2 13  1  0  0  0  0
  3 13  2  0  0  0  0
  3  7  1  0  0  0  0
  4  6  1  6  0  0  0
  5  4  1  0  0  0  0
  7  8  2  0  0  0  0
  8  4  1  0  0  0  0
  8  1  1  0  0  0  0
  9  7  1  0  0  0  0
  9  5  2  0  0  0  0
 10 11  1  0  0  0  0
 11 16  1  1  0  0  0
 11 12  1  0  0  0  0
 12 14  1  0  0  0  0
 13 15  1  0  0  0  0
 15 14  1  0  0  0  0
 15  1  2  0  0  0  0
 16 18  1  0  0  0  0
 17 16  1  0  0  0  0
 17 18  1  0  0  0  0
 19 21  1  0  0  0  0
 20 19  2  0  0  0  0
 21 30  1  0  0  0  0
 23 28  1  0  0  0  0
 23 30  1  0  0  0  0
 24 32  1  0  0  0  0
 24 25  1  0  0  0  0
 26 25  2  0  0  0  0
 26 22  1  0  0  0  0
 27 29  1  0  0  0  0
 27 28  2  0  0  0  0
 28 26  1  0  0  0  0
 29 24  2  0  0  0  0
 30 31  1  0  0  0  0
 31 22  1  0  0  0  0
 32 33  1  0  0  0  0
 34 32  2  0  0  0  0
M  END
>  <MODEL>
6

>  <REMARK>
 VINA RESULT:      -9.3      3.336      9.025
  Name = 
  5 active torsions:
  status: ('A' for Active; 'I' for Inactive)
    1  A    between atoms: C_1  and  N_9
    2  A    between atoms: C_3  and  C_25
    3  A    between atoms: C_7  and  C_11
    4  A    between atoms: C_8  and  C_18
    5  A    between atoms: C_18  and  N_30
                            x       y       z     vdW  Elec       q    Type
                         _______ _______ _______ _____ _____    ______ ____

>  <TORSDO>
F 5

$$$$
=
 OpenBabel11052415403D

 34 39  0  0  1  0  0  0  0  0999 V2000
  182.2570  178.8920  142.4080 C   0  0  0  0  0  0  0  0  0  0  0  0
  183.7260  178.4800  138.8930 C   0  0  0  0  0  2  0  0  0  0  0  0
  181.5740  179.4270  139.7130 C   0  0  0  0  0  3  0  0  0  0  0  0
  179.8860  179.9050  142.9160 C   0  0  1  0  0  3  0  0  0  0  0  0
  178.9350  180.5950  142.0290 N   0  0  0  0  0  0  0  0  0  0  0  0
  179.2330  178.7400  143.4920 N   0  0  0  0  0  1  0  0  0  0  0  0
  180.7120  179.7460  140.7560 C   0  0  0  0  0  0  0  0  0  0  0  0
  181.0180  179.4750  142.0560 C   0  0  0  0  0  0  0  0  0  0  0  0
  179.4040  180.4110  140.6490 C   0  0  0  0  0  3  0  0  0  0  0  0
  184.8870  179.2550  139.0090 O   0  0  0  0  0  0  0  0  0  0  0  0
  185.8140  178.4500  139.6860 C   0  0  2  0  0  3  0  0  0  0  0  0
  185.6580  178.6280  141.1960 C   0  0  0  0  0  2  0  0  0  0  0  0
  182.7920  178.8080  140.0150 C   0  0  0  0  0  0  0  0  0  0  0  0
  184.4430  177.8570  141.7000 C   0  0  0  0  0  2  0  0  0  0  0  0
  183.1490  178.5480  141.3650 C   0  0  0  0  0  0  0  0  0  0  0  0
  187.2200  178.8460  139.2750 C   0  0  0  0  0  3  0  0  0  0  0  0
  187.9820  177.6150  138.8270 C   0  0  0  0  0  2  0  0  0  0  0  0
  188.2180  178.1890  140.2070 C   0  0  0  0  0  2  0  0  0  0  0  0
  183.5870  179.3170  144.3970 C   0  0  0  0  0  3  0  0  0  0  0  0
  182.6650  178.6620  143.7680 N   0  0  0  0  0  0  0  0  0  0  0  0
  183.9300  178.9560  145.8020 C   0  0  0  0  0  2  0  0  0  0  0  0
  187.1160  177.6080  144.4640 C   0  0  0  0  0  2  0  0  0  0  0  0
  186.0100  178.8110  146.9000 C   0  0  0  0  0  2  0  0  0  0  0  0
  189.9840  177.1500  146.9200 C   0  0  0  0  0  0  0  0  0  0  0  0
  189.2230  177.1500  145.7390 C   0  0  0  0  0  3  0  0  0  0  0  0
  187.9290  177.6790  145.7270 C   0  0  0  0  0  0  0  0  0  0  0  0
  188.1320  178.2060  148.0900 C   0  0  0  0  0  3  0  0  0  0  0  0
  187.3750  178.1920  146.9170 C   0  0  0  0  0  0  0  0  0  0  0  0
  189.4290  177.6830  148.0930 C   0  0  0  0  0  3  0  0  0  0  0  0
  185.1880  178.2260  145.8380 N   0  0  0  0  0  0  0  0  0  0  0  0
  185.8580  178.4720  144.5620 C   0  0  0  0  0  2  0  0  0  0  0  0
  191.3490  176.5900  146.9320 C   0  0  0  0  0  0  0  0  0  0  0  0
  192.1600  176.6980  148.0990 N   0  0  0  0  0  1  0  0  0  0  0  0
  191.8280  176.0040  145.8830 N   0  0  0  0  0  2  0  0  0  0  0  0
  1 20  1  0  0  0  0
  2 10  1  0  0  0  0
  2 13  1  0  0  0  0
  3 13  2  0  0  0  0
  3  7  1  0  0  0  0
  4  6  1  6  0  0  0
  5  4  1  0  0  0  0
  7  8  2  0  0  0  0
  8  1  1  0  0  0  0
  8  4  1  0  0  0  0
  9  7  1  0  0  0  0
  9  5  2  0  0  0  0
 10 11  1  0  0  0  0
 11 16  1  6  0  0  0
 11 12  1  0  0  0  0
 12 14  1  0  0  0  0
 13 15  1  0  0  0  0
 15 14  1  0  0  0  0
 15  1  2  0  0  0  0
 16 18  1  0  0  0  0
 17 16  1  0  0  0  0
 17 18  1  0  0  0  0
 19 21  1  0  0  0  0
 20 19  2  0  0  0  0
 21 30  1  0  0  0  0
 22 31  1  0  0  0  0
 22 26  1  0  0  0  0
 23 28  1  0  0  0  0
 24 32  1  0  0  0  0
 24 29  1  0  0  0  0
 25 24  2  0  0  0  0
 26 25  1  0  0  0  0
 26 28  2  0  0  0  0
 27 29  2  0  0  0  0
 28 27  1  0  0  0  0
 30 23  1  0  0  0  0
 31 30  1  0  0  0  0
 32 33  1  0  0  0  0
 34 32  2  0  0  0  0
M  END
>  <MODEL>
7

>  <REMARK>
 VINA RESULT:      -9.2      3.484      9.156
  Name = 
  5 active torsions:
  status: ('A' for Active; 'I' for Inactive)
    1  A    between atoms: C_1  and  N_9
    2  A    between atoms: C_3  and  C_25
    3  A    between atoms: C_7  and  C_11
    4  A    between atoms: C_8  and  C_18
    5  A    between atoms: C_18  and  N_30
                            x       y       z     vdW  Elec       q    Type
                         _______ _______ _______ _____ _____    ______ ____

>  <TORSDO>
F 5

$$$$
=
 OpenBabel11052415403D

 34 39  0  0  1  0  0  0  0  0999 V2000
  180.7920  178.6840  139.1210 C   0  0  0  0  0  0  0  0  0  0  0  0
  180.8470  180.5280  135.7630 C   0  0  0  0  0  2  0  0  0  0  0  0
  180.2170  178.2020  136.3900 C   0  0  0  0  0  3  0  0  0  0  0  0
  180.1080  176.1630  139.4180 C   0  0  1  0  0  3  0  0  0  0  0  0
  179.5010  175.2220  138.4640 N   0  0  0  0  0  0  0  0  0  0  0  0
  181.3720  175.6140  139.8830 N   0  0  0  0  0  1  0  0  0  0  0  0
  180.0590  177.2090  137.3500 C   0  0  0  0  0  0  0  0  0  0  0  0
  180.3520  177.4190  138.6640 C   0  0  0  0  0  0  0  0  0  0  0  0
  179.5590  175.8420  137.1340 C   0  0  0  0  0  3  0  0  0  0  0  0
  179.9390  181.5620  136.0240 O   0  0  0  0  0  0  0  0  0  0  0  0
  180.6530  182.5150  136.7630 C   0  0  2  0  0  3  0  0  0  0  0  0
  180.5700  182.1920  138.2540 C   0  0  0  0  0  2  0  0  0  0  0  0
  180.6920  179.4550  136.7930 C   0  0  0  0  0  0  0  0  0  0  0  0
  181.5090  181.0440  138.6040 C   0  0  0  0  0  2  0  0  0  0  0  0
  180.9700  179.7090  138.1630 C   0  0  0  0  0  0  0  0  0  0  0  0
  180.0660  183.8910  136.5130 C   0  0  0  0  0  3  0  0  0  0  0  0
  180.8960  184.6140  135.4700 C   0  0  0  0  0  2  0  0  0  0  0  0
  181.0660  184.9480  136.9360 C   0  0  0  0  0  2  0  0  0  0  0  0
  182.0970  178.6640  141.1700 C   0  0  0  0  0  3  0  0  0  0  0  0
  181.0340  178.9840  140.5070 N   0  0  0  0  0  0  0  0  0  0  0  0
  182.2070  179.0150  142.6150 C   0  0  0  0  0  2  0  0  0  0  0  0
  185.7890  178.0620  142.7460 C   0  0  0  0  0  2  0  0  0  0  0  0
  183.6470  179.0680  144.4800 C   0  0  0  0  0  2  0  0  0  0  0  0
  187.4140  177.8520  146.1780 C   0  0  0  0  0  0  0  0  0  0  0  0
  187.2160  177.8020  144.7890 C   0  0  0  0  0  3  0  0  0  0  0  0
  185.9930  178.1860  144.2310 C   0  0  0  0  0  0  0  0  0  0  0  0
  185.1380  178.6650  146.4540 C   0  0  0  0  0  3  0  0  0  0  0  0
  184.9430  178.6020  145.0730 C   0  0  0  0  0  0  0  0  0  0  0  0
  186.3670  178.2870  147.0040 C   0  0  0  0  0  3  0  0  0  0  0  0
  183.4100  178.4260  143.1830 N   0  0  0  0  0  0  0  0  0  0  0  0
  184.5150  178.7800  142.2960 C   0  0  0  0  0  2  0  0  0  0  0  0
  188.7050  177.4450  146.7660 C   0  0  0  0  0  0  0  0  0  0  0  0
  188.9500  177.6280  148.1580 N   0  0  0  0  0  1  0  0  0  0  0  0
  189.6290  176.9270  146.0250 N   0  0  0  0  0  2  0  0  0  0  0  0
  1 20  1  0  0  0  0
  2 10  1  0  0  0  0
  2 13  1  0  0  0  0
  3 13  2  0  0  0  0
  3  7  1  0  0  0  0
  4  6  1  6  0  0  0
  5  4  1  0  0  0  0
  7  8  2  0  0  0  0
  8  1  1  0  0  0  0
  8  4  1  0  0  0  0
  9  7  1  0  0  0  0
  9  5  2  0  0  0  0
 10 11  1  0  0  0  0
 11 16  1  1  0  0  0
 11 12  1  0  0  0  0
 12 14  1  0  0  0  0
 13 15  1  0  0  0  0
 15 14  1  0  0  0  0
 15  1  2  0  0  0  0
 16 18  1  0  0  0  0
 17 16  1  0  0  0  0
 17 18  1  0  0  0  0
 19 21  1  0  0  0  0
 20 19  2  0  0  0  0
 21 30  1  0  0  0  0
 22 26  1  0  0  0  0
 23 28  1  0  0  0  0
 24 32  1  0  0  0  0
 24 29  1  0  0  0  0
 25 24  2  0  0  0  0
 26 25  1  0  0  0  0
 26 28  2  0  0  0  0
 27 29  2  0  0  0  0
 28 27  1  0  0  0  0
 30 23  1  0  0  0  0
 31 22  1  0  0  0  0
 31 30  1  0  0  0  0
 32 33  1  0  0  0  0
 34 32  2  0  0  0  0
M  END
>  <MODEL>
8

>  <REMARK>
 VINA RESULT:      -8.8      5.397     10.570
  Name = 
  5 active torsions:
  status: ('A' for Active; 'I' for Inactive)
    1  A    between atoms: C_1  and  N_9
    2  A    between atoms: C_3  and  C_25
    3  A    between atoms: C_7  and  C_11
    4  A    between atoms: C_8  and  C_18
    5  A    between atoms: C_18  and  N_30
                            x       y       z     vdW  Elec       q    Type
                         _______ _______ _______ _____ _____    ______ ____

>  <TORSDO>
F 5

$$$$
=
 OpenBabel11052415403D

 34 39  0  0  1  0  0  0  0  0999 V2000
  190.8290  176.8920  138.1550 C   0  0  0  0  0  0  0  0  0  0  0  0
  192.0060  174.9130  135.0920 C   0  0  0  0  0  2  0  0  0  0  0  0
  190.1480  176.5350  135.4290 C   0  0  0  0  0  3  0  0  0  0  0  0
  188.7560  178.5080  138.1700 C   0  0  1  0  0  3  0  0  0  0  0  0
  187.9340  179.0120  137.0580 N   0  0  0  0  0  0  0  0  0  0  0  0
  187.8980  177.8060  139.1110 N   0  0  0  0  0  1  0  0  0  0  0  0
  189.4260  177.3930  136.2500 C   0  0  0  0  0  0  0  0  0  0  0  0
  189.7280  177.5580  137.5690 C   0  0  0  0  0  0  0  0  0  0  0  0
  188.2850  178.2380  135.8610 C   0  0  0  0  0  3  0  0  0  0  0  0
  193.3100  175.4050  134.9550 O   0  0  0  0  0  0  0  0  0  0  0  0
  194.0750  174.7250  135.9120 C   0  0  2  0  0  3  0  0  0  0  0  0
  194.0340  175.4730  137.2440 C   0  0  0  0  0  2  0  0  0  0  0  0
  191.2190  175.8230  135.9800 C   0  0  0  0  0  0  0  0  0  0  0  0
  192.7080  175.2230  137.9540 C   0  0  0  0  0  2  0  0  0  0  0  0
  191.5760  176.0060  137.3420 C   0  0  0  0  0  0  0  0  0  0  0  0
  195.5110  174.6280  135.4340 C   0  0  0  0  0  3  0  0  0  0  0  0
  195.9240  173.1710  135.3590 C   0  0  0  0  0  2  0  0  0  0  0  0
  196.3650  174.0230  136.5290 C   0  0  0  0  0  2  0  0  0  0  0  0
  190.7090  176.5380  140.5560 C   0  0  0  0  0  3  0  0  0  0  0  0
  191.2440  177.0940  139.5170 N   0  0  0  0  0  0  0  0  0  0  0  0
  191.2220  176.8590  141.9190 C   0  0  0  0  0  2  0  0  0  0  0  0
  189.5370  177.6030  145.1380 C   0  0  0  0  0  2  0  0  0  0  0  0
  189.0230  177.6370  142.2500 C   0  0  0  0  0  2  0  0  0  0  0  0
  185.8010  178.3050  145.0300 C   0  0  0  0  0  0  0  0  0  0  0  0
  187.1090  178.1040  145.4990 C   0  0  0  0  0  3  0  0  0  0  0  0
  188.1580  177.8780  144.6030 C   0  0  0  0  0  0  0  0  0  0  0  0
  186.5980  178.0350  142.7480 C   0  0  0  0  0  3  0  0  0  0  0  0
  187.8950  177.8240  143.2200 C   0  0  0  0  0  0  0  0  0  0  0  0
  185.5550  178.2700  143.6490 C   0  0  0  0  0  3  0  0  0  0  0  0
  190.1230  176.8940  142.8710 N   0  0  0  0  0  0  0  0  0  0  0  0
  190.5870  177.6580  144.0270 C   0  0  0  0  0  2  0  0  0  0  0  0
  184.6940  178.5430  145.9760 C   0  0  0  0  0  0  0  0  0  0  0  0
  183.4300  179.0030  145.5030 N   0  0  0  0  0  2  0  0  0  0  0  0
  184.8590  178.3450  147.2430 N   0  0  0  0  0  1  0  0  0  0  0  0
  1 20  1  0  0  0  0
  2 13  1  0  0  0  0
  3 13  2  0  0  0  0
  3  7  1  0  0  0  0
  4  6  1  1  0  0  0
  5  4  1  0  0  0  0
  7  8  2  0  0  0  0
  8  1  1  0  0  0  0
  8  4  1  0  0  0  0
  9  7  1  0  0  0  0
  9  5  2  0  0  0  0
 10  2  1  0  0  0  0
 10 11  1  0  0  0  0
 11 16  1  6  0  0  0
 11 12  1  0  0  0  0
 12 14  1  0  0  0  0
 13 15  1  0  0  0  0
 15 14  1  0  0  0  0
 15  1  2  0  0  0  0
 16 18  1  0  0  0  0
 17 16  1  0  0  0  0
 17 18  1  0  0  0  0
 19 21  1  0  0  0  0
 20 19  2  0  0  0  0
 21 30  1  0  0  0  0
 23 30  1  0  0  0  0
 23 28  1  0  0  0  0
 24 25  1  0  0  0  0
 24 32  1  0  0  0  0
 26 22  1  0  0  0  0
 26 25  2  0  0  0  0
 27 28  2  0  0  0  0
 27 29  1  0  0  0  0
 28 26  1  0  0  0  0
 29 24  2  0  0  0  0
 30 31  1  0  0  0  0
 31 22  1  0  0  0  0
 32 34  1  0  0  0  0
 33 32  2  0  0  0  0
M  END
>  <MODEL>
9

>  <REMARK>
 VINA RESULT:      -8.7      4.077     10.030
  Name = 
  5 active torsions:
  status: ('A' for Active; 'I' for Inactive)
    1  A    between atoms: C_1  and  N_9
    2  A    between atoms: C_3  and  C_25
    3  A    between atoms: C_7  and  C_11
    4  A    between atoms: C_8  and  C_18
    5  A    between atoms: C_18  and  N_30
                            x       y       z     vdW  Elec       q    Type
                         _______ _______ _______ _____ _____    ______ ____

>  <TORSDO>
F 5

$$$$
