=
 OpenBabel11052413203D

 31 34  0  0  1  0  0  0  0  0999 V2000
  183.8980  178.6210  143.7610 C   0  0  1  0  0  3  0  0  0  0  0  0
  186.8480  179.3870  141.4360 C   0  0  0  0  0  2  0  0  0  0  0  0
  185.9500  178.6840  142.4210 C   0  0  0  0  0  0  0  0  0  0  0  0
  184.7210  178.3030  145.0180 C   0  0  0  0  0  2  0  0  0  0  0  0
  188.7200  178.0380  142.4350 C   0  0  2  0  0  3  0  0  0  0  0  0
  182.8560  179.4890  144.0840 O   0  0  0  0  0  1  0  0  0  0  0  0
  187.7950  176.9630  142.9970 C   0  0  0  0  0  2  0  0  0  0  0  0
  188.1660  178.6670  141.1500 C   0  0  1  0  0  3  0  0  0  0  0  0
  184.7650  179.2370  142.7010 C   0  0  0  0  0  3  0  0  0  0  0  0
  186.3700  177.4670  143.2310 C   0  0  1  0  0  3  0  0  0  0  0  0
  186.1100  177.6960  144.7250 C   0  0  0  0  0  2  0  0  0  0  0  0
  188.0660  177.6820  139.9690 C   0  0  1  0  0  3  0  0  0  0  0  0
  186.7680  177.5360  139.5090 F   0  0  0  0  0  0  0  0  0  0  0  0
  188.5250  177.2160  137.6930 O   0  0  0  0  0  1  0  0  0  0  0  0
  189.0710  177.8660  138.8020 C   0  0  1  0  0  0  0  0  0  0  0  0
  188.5010  179.4390  137.3530 O   0  0  0  0  0  1  0  0  0  0  0  0
  189.1940  179.2320  138.4580 O   0  0  0  0  0  0  0  0  0  0  0  0
  190.4650  177.2530  139.0710 C   0  0  0  0  0  2  0  0  0  0  0  0
  190.8770  176.2130  138.0750 C   0  0  0  0  0  3  0  0  0  0  0  0
  190.9160  175.0340  138.3860 O   0  0  0  0  0  0  0  0  0  0  0  0
  190.1980  177.6270  142.3850 C   0  0  0  0  0  2  0  0  0  0  0  0
  190.7450  179.0720  144.3890 C   0  0  0  0  0  2  0  0  0  0  0  0
  190.9790  177.7460  143.6990 C   0  0  0  0  0  0  0  0  0  0  0  0
  192.0890  178.7710  143.7460 C   0  0  0  0  0  2  0  0  0  0  0  0
  191.1050  176.5830  144.6730 C   0  0  0  0  0  2  0  0  0  0  0  0
  191.2570  177.0840  146.0980 C   0  0  0  0  0  2  0  0  0  0  0  0
  190.0710  176.6270  146.9200 C   0  0  0  0  0  2  0  0  0  0  0  0
  188.0580  177.3870  148.1200 C   0  0  2  0  0  3  0  0  0  0  0  0
  186.9090  178.1480  147.9100 O   0  0  0  0  0  1  0  0  0  0  0  0
  189.1980  178.2990  148.5160 C   0  0  0  0  0  2  0  0  0  0  0  0
  189.1040  177.7770  147.0970 C   0  0  1  0  0  3  0  0  0  0  0  0
  1  6  1  1  0  0  0
  1  4  1  0  0  0  0
  2  3  1  0  0  0  0
  3  9  2  0  0  0  0
  3 10  1  0  0  0  0
  5 21  1  6  0  0  0
  5  7  1  0  0  0  0
  8 12  1  6  0  0  0
  8  2  1  0  0  0  0
  8  5  1  0  0  0  0
  9  1  1  0  0  0  0
 10  7  1  1  0  0  0
 10 11  1  0  0  0  0
 11  4  1  0  0  0  0
 12 13  1  6  0  0  0
 15 14  1  6  0  0  0
 15 18  1  0  0  0  0
 15 12  1  0  0  0  0
 16 17  1  0  0  0  0
 17 15  1  0  0  0  0
 19 20  2  0  0  0  0
 19 18  1  0  0  0  0
 21 23  1  0  0  0  0
 23 24  1  0  0  0  0
 23 22  1  0  0  0  0
 23 25  1  0  0  0  0
 24 22  1  0  0  0  0
 25 26  1  0  0  0  0
 26 27  1  0  0  0  0
 28 29  1  6  0  0  0
 28 30  1  0  0  0  0
 31 27  1  1  0  0  0
 31 28  1  0  0  0  0
 31 30  1  0  0  0  0
M  END
>  <MODEL>
1

>  <REMARK>
 VINA RESULT:      -7.6      0.000      0.000
  Name = 
  11 active torsions:
  status: ('A' for Active; 'I' for Inactive)
    1  A    between atoms: C_5  and  C_21
    2  A    between atoms: C_5  and  C_31
    3  A    between atoms: C_6  and  C_7
    4  A    between atoms: C_6  and  C_19
    5  A    between atoms: C_7  and  C_9
    6  A    between atoms: C_9  and  C_23
    7  A    between atoms: C_15  and  C_23
    8  A    between atoms: C_17  and  C_30
    9  A    between atoms: O_18  and  C_31
   10  A    between atoms: C_19  and  C_24
   11  A    between atoms: C_30  and  C_31
                            x       y       z     vdW  Elec       q    Type
                         _______ _______ _______ _____ _____    ______ ____

>  <TORSDO>
F 11

$$$$
=
 OpenBabel11052413203D

 31 34  0  0  1  0  0  0  0  0999 V2000
  192.0840  176.1380  145.8550 C   0  0  1  0  0  3  0  0  0  0  0  0
  190.1890  175.8210  142.5380 C   0  0  0  0  0  2  0  0  0  0  0  0
  190.7680  176.4000  143.8030 C   0  0  0  0  0  0  0  0  0  0  0  0
  190.9360  176.7430  146.6770 C   0  0  0  0  0  2  0  0  0  0  0  0
  188.4530  177.6330  142.7040 C   0  0  2  0  0  3  0  0  0  0  0  0
  192.6780  175.0970  146.5670 O   0  0  0  0  0  1  0  0  0  0  0  0
  189.3100  178.5270  143.5930 C   0  0  0  0  0  2  0  0  0  0  0  0
  189.2990  176.7820  141.7490 C   0  0  1  0  0  3  0  0  0  0  0  0
  191.5810  175.6300  144.5340 C   0  0  0  0  0  3  0  0  0  0  0  0
  190.3660  177.7490  144.3800 C   0  0  1  0  0  3  0  0  0  0  0  0
  189.9580  177.6080  145.8510 C   0  0  0  0  0  2  0  0  0  0  0  0
  190.0830  177.6080  140.7100 C   0  0  1  0  0  3  0  0  0  0  0  0
  191.4250  177.2670  140.6650 F   0  0  0  0  0  0  0  0  0  0  0  0
  188.3610  176.8840  139.2550 O   0  0  0  0  0  1  0  0  0  0  0  0
  189.4740  177.7270  139.2890 C   0  0  1  0  0  0  0  0  0  0  0  0
  189.0940  179.2810  137.7600 O   0  0  0  0  0  1  0  0  0  0  0  0
  189.0020  179.0390  139.0540 O   0  0  0  0  0  0  0  0  0  0  0  0
  190.4330  177.2910  138.1570 C   0  0  0  0  0  2  0  0  0  0  0  0
  190.3180  175.8450  137.7830 C   0  0  0  0  0  3  0  0  0  0  0  0
  190.9780  174.9970  138.3620 O   0  0  0  0  0  0  0  0  0  0  0  0
  187.2550  178.3500  142.0660 C   0  0  0  0  0  2  0  0  0  0  0  0
  184.7370  178.1010  142.0910 C   0  0  0  0  0  2  0  0  0  0  0  0
  185.9740  178.4090  142.9050 C   0  0  0  0  0  0  0  0  0  0  0  0
  184.9950  179.5140  142.5850 C   0  0  0  0  0  2  0  0  0  0  0  0
  185.9080  177.8500  144.3200 C   0  0  0  0  0  2  0  0  0  0  0  0
  184.9620  178.6670  145.1810 C   0  0  0  0  0  2  0  0  0  0  0  0
  185.3140  178.4700  146.6410 C   0  0  0  0  0  2  0  0  0  0  0  0
  187.1560  178.2930  148.2670 C   0  0  2  0  0  3  0  0  0  0  0  0
  188.4410  178.7860  148.4880 O   0  0  0  0  0  1  0  0  0  0  0  0
  187.2320  177.0870  147.3550 C   0  0  0  0  0  2  0  0  0  0  0  0
  186.8190  178.4320  146.7970 C   0  0  1  0  0  3  0  0  0  0  0  0
  1  6  1  1  0  0  0
  1  4  1  0  0  0  0
  2  3  1  0  0  0  0
  3 10  1  0  0  0  0
  3  9  2  0  0  0  0
  5 21  1  6  0  0  0
  5  7  1  0  0  0  0
  8 12  1  1  0  0  0
  8  2  1  0  0  0  0
  8  5  1  0  0  0  0
  9  1  1  0  0  0  0
 10  7  1  6  0  0  0
 10 11  1  0  0  0  0
 11  4  1  0  0  0  0
 12 13  1  6  0  0  0
 15 14  1  6  0  0  0
 15 12  1  0  0  0  0
 16 17  1  0  0  0  0
 17 15  1  0  0  0  0
 18 15  1  0  0  0  0
 19 18  1  0  0  0  0
 19 20  2  0  0  0  0
 21 23  1  0  0  0  0
 22 24  1  0  0  0  0
 22 23  1  0  0  0  0
 23 25  1  0  0  0  0
 24 23  1  0  0  0  0
 25 26  1  0  0  0  0
 26 27  1  0  0  0  0
 28 29  1  6  0  0  0
 30 28  1  0  0  0  0
 31 27  1  1  0  0  0
 31 30  1  0  0  0  0
 31 28  1  0  0  0  0
M  END
>  <MODEL>
2

>  <REMARK>
 VINA RESULT:      -7.5      1.919      4.696
  Name = 
  11 active torsions:
  status: ('A' for Active; 'I' for Inactive)
    1  A    between atoms: C_5  and  C_21
    2  A    between atoms: C_5  and  C_31
    3  A    between atoms: C_6  and  C_7
    4  A    between atoms: C_6  and  C_19
    5  A    between atoms: C_7  and  C_9
    6  A    between atoms: C_9  and  C_23
    7  A    between atoms: C_15  and  C_23
    8  A    between atoms: C_17  and  C_30
    9  A    between atoms: O_18  and  C_31
   10  A    between atoms: C_19  and  C_24
   11  A    between atoms: C_30  and  C_31
                            x       y       z     vdW  Elec       q    Type
                         _______ _______ _______ _____ _____    ______ ____

>  <TORSDO>
F 11

$$$$
=
 OpenBabel11052413203D

 31 34  0  0  1  0  0  0  0  0999 V2000
  185.5300  178.1960  146.5050 C   0  0  1  0  0  3  0  0  0  0  0  0
  185.1870  179.6090  142.9580 C   0  0  0  0  0  2  0  0  0  0  0  0
  185.5470  178.7020  144.1060 C   0  0  0  0  0  0  0  0  0  0  0  0
  187.0480  177.9620  146.4730 C   0  0  0  0  0  2  0  0  0  0  0  0
  187.1250  178.5650  141.7440 C   0  0  2  0  0  3  0  0  0  0  0  0
  185.1760  178.8430  147.6880 O   0  0  0  0  0  1  0  0  0  0  0  0
  187.1390  177.3120  142.6130 C   0  0  0  0  0  2  0  0  0  0  0  0
  185.7170  179.1540  141.5980 C   0  0  1  0  0  3  0  0  0  0  0  0
  185.0950  179.0160  145.3250 C   0  0  0  0  0  3  0  0  0  0  0  0
  186.5190  177.5370  143.9930 C   0  0  1  0  0  3  0  0  0  0  0  0
  187.6050  177.6320  145.0710 C   0  0  0  0  0  2  0  0  0  0  0  0
  184.7330  178.2350  140.8490 C   0  0  1  0  0  3  0  0  0  0  0  0
  183.8840  177.5560  141.7070 F   0  0  0  0  0  0  0  0  0  0  0  0
  182.6270  178.9470  140.0310 O   0  0  0  0  0  1  0  0  0  0  0  0
  183.9660  178.8440  139.6460 C   0  0  1  0  0  0  0  0  0  0  0  0
  183.4150  180.8320  138.8460 O   0  0  0  0  0  1  0  0  0  0  0  0
  184.4170  180.1560  139.3750 O   0  0  0  0  0  0  0  0  0  0  0  0
  184.0240  177.9810  138.3630 C   0  0  0  0  0  2  0  0  0  0  0  0
  185.4070  177.5520  137.9780 C   0  0  0  0  0  3  0  0  0  0  0  0
  186.0880  178.2410  137.2350 O   0  0  0  0  0  0  0  0  0  0  0  0
  187.9230  178.4300  140.4400 C   0  0  0  0  0  2  0  0  0  0  0  0
  190.1210  177.8910  139.3060 C   0  0  0  0  0  2  0  0  0  0  0  0
  189.2650  177.6960  140.5390 C   0  0  0  0  0  0  0  0  0  0  0  0
  189.4860  176.5410  139.5910 C   0  0  0  0  0  2  0  0  0  0  0  0
  190.0770  177.6650  141.8270 C   0  0  0  0  0  2  0  0  0  0  0  0
  190.4250  176.2390  142.2130 C   0  0  0  0  0  2  0  0  0  0  0  0
  191.4020  176.2560  143.3700 C   0  0  0  0  0  2  0  0  0  0  0  0
  191.6380  176.5980  145.7980 C   0  0  2  0  0  3  0  0  0  0  0  0
  190.8880  176.5100  146.9700 O   0  0  0  0  0  1  0  0  0  0  0  0
  191.4180  177.9540  145.1640 C   0  0  0  0  0  2  0  0  0  0  0  0
  190.6980  176.7390  144.6190 C   0  0  1  0  0  3  0  0  0  0  0  0
  1  6  1  1  0  0  0
  2  3  1  0  0  0  0
  3  9  2  0  0  0  0
  4  1  1  0  0  0  0
  5 21  1  6  0  0  0
  5  7  1  0  0  0  0
  8 12  1  1  0  0  0
  8  5  1  0  0  0  0
  8  2  1  0  0  0  0
  9  1  1  0  0  0  0
 10  7  1  6  0  0  0
 10  3  1  0  0  0  0
 10 11  1  0  0  0  0
 11  4  1  0  0  0  0
 12 13  1  1  0  0  0
 15 14  1  1  0  0  0
 15 12  1  0  0  0  0
 16 17  1  0  0  0  0
 17 15  1  0  0  0  0
 18 15  1  0  0  0  0
 19 18  1  0  0  0  0
 20 19  2  0  0  0  0
 21 23  1  0  0  0  0
 22 24  1  0  0  0  0
 22 23  1  0  0  0  0
 23 25  1  0  0  0  0
 24 23  1  0  0  0  0
 25 26  1  0  0  0  0
 26 27  1  0  0  0  0
 28 29  1  1  0  0  0
 30 28  1  0  0  0  0
 31 27  1  6  0  0  0
 31 30  1  0  0  0  0
 31 28  1  0  0  0  0
M  END
>  <MODEL>
3

>  <REMARK>
 VINA RESULT:      -7.5      2.421      4.057
  Name = 
  11 active torsions:
  status: ('A' for Active; 'I' for Inactive)
    1  A    between atoms: C_5  and  C_21
    2  A    between atoms: C_5  and  C_31
    3  A    between atoms: C_6  and  C_7
    4  A    between atoms: C_6  and  C_19
    5  A    between atoms: C_7  and  C_9
    6  A    between atoms: C_9  and  C_23
    7  A    between atoms: C_15  and  C_23
    8  A    between atoms: C_17  and  C_30
    9  A    between atoms: O_18  and  C_31
   10  A    between atoms: C_19  and  C_24
   11  A    between atoms: C_30  and  C_31
                            x       y       z     vdW  Elec       q    Type
                         _______ _______ _______ _____ _____    ______ ____

>  <TORSDO>
F 11

$$$$
=
 OpenBabel11052413203D

 31 34  0  0  1  0  0  0  0  0999 V2000
  191.6680  177.1320  140.1770 C   0  0  1  0  0  3  0  0  0  0  0  0
  190.8840  178.2210  143.7680 C   0  0  0  0  0  2  0  0  0  0  0  0
  190.8420  177.4740  142.4600 C   0  0  0  0  0  0  0  0  0  0  0  0
  190.2300  177.1830  139.6410 C   0  0  0  0  0  2  0  0  0  0  0  0
  188.5010  177.4790  144.0750 C   0  0  2  0  0  3  0  0  0  0  0  0
  192.5270  177.7780  139.2890 O   0  0  0  0  0  1  0  0  0  0  0  0
  188.6220  176.3100  143.1040 C   0  0  0  0  0  2  0  0  0  0  0  0
  189.8270  177.7850  144.7840 C   0  0  1  0  0  3  0  0  0  0  0  0
  191.7540  177.7780  141.5300 C   0  0  0  0  0  3  0  0  0  0  0  0
  189.7340  176.5060  142.0720 C   0  0  1  0  0  3  0  0  0  0  0  0
  189.1510  176.8720  140.7030 C   0  0  0  0  0  2  0  0  0  0  0  0
  190.3150  176.6520  145.7060 C   0  0  1  0  0  3  0  0  0  0  0  0
  191.5030  176.0880  145.2710 F   0  0  0  0  0  0  0  0  0  0  0  0
  189.7380  175.8420  147.8560 O   0  0  0  0  0  1  0  0  0  0  0  0
  190.3410  176.9360  147.2310 C   0  0  1  0  0  0  0  0  0  0  0  0
  192.0660  175.7710  147.9810 O   0  0  0  0  0  1  0  0  0  0  0  0
  191.6700  177.0000  147.7070 O   0  0  0  0  0  0  0  0  0  0  0  0
  189.5610  178.2060  147.6450 C   0  0  0  0  0  2  0  0  0  0  0  0
  188.4320  177.9470  148.5960 C   0  0  0  0  0  3  0  0  0  0  0  0
  187.2940  178.2900  148.3190 O   0  0  0  0  0  0  0  0  0  0  0  0
  187.2670  177.4110  144.9860 C   0  0  0  0  0  2  0  0  0  0  0  0
  185.6870  179.3550  145.3430 C   0  0  0  0  0  2  0  0  0  0  0  0
  186.0180  178.1480  144.4910 C   0  0  0  0  0  0  0  0  0  0  0  0
  184.8040  178.1190  145.3900 C   0  0  0  0  0  2  0  0  0  0  0  0
  185.7450  178.3740  143.0110 C   0  0  0  0  0  2  0  0  0  0  0  0
  184.2590  178.5480  142.7540 C   0  0  0  0  0  2  0  0  0  0  0  0
  183.9560  178.2120  141.3090 C   0  0  0  0  0  2  0  0  0  0  0  0
  184.9400  178.3760  139.0570 C   0  0  2  0  0  3  0  0  0  0  0  0
  186.1010  178.8170  138.4240 O   0  0  0  0  0  1  0  0  0  0  0  0
  183.9880  179.5400  139.2270 C   0  0  0  0  0  2  0  0  0  0  0  0
  184.8170  179.0630  140.4010 C   0  0  1  0  0  3  0  0  0  0  0  0
  1  6  1  6  0  0  0
  1  9  1  0  0  0  0
  2  8  1  0  0  0  0
  3  2  1  0  0  0  0
  4  1  1  0  0  0  0
  4 11  1  0  0  0  0
  5  8  1  0  0  0  0
  5 21  1  1  0  0  0
  7  5  1  0  0  0  0
  8 12  1  6  0  0  0
  9  3  2  0  0  0  0
 10 11  1  6  0  0  0
 10  3  1  0  0  0  0
 10  7  1  0  0  0  0
 12 13  1  6  0  0  0
 12 15  1  0  0  0  0
 15 18  1  0  0  0  0
 15 17  1  0  0  0  0
 15 14  1  1  0  0  0
 17 16  1  0  0  0  0
 18 19  1  0  0  0  0
 20 19  2  0  0  0  0
 22 24  1  0  0  0  0
 23 21  1  0  0  0  0
 23 22  1  0  0  0  0
 23 24  1  0  0  0  0
 25 23  1  0  0  0  0
 26 25  1  0  0  0  0
 27 26  1  0  0  0  0
 28 29  1  6  0  0  0
 28 30  1  0  0  0  0
 28 31  1  0  0  0  0
 30 31  1  0  0  0  0
 31 27  1  1  0  0  0
M  END
>  <MODEL>
4

>  <REMARK>
 VINA RESULT:      -7.5      2.556      7.834
  Name = 
  11 active torsions:
  status: ('A' for Active; 'I' for Inactive)
    1  A    between atoms: C_5  and  C_21
    2  A    between atoms: C_5  and  C_31
    3  A    between atoms: C_6  and  C_7
    4  A    between atoms: C_6  and  C_19
    5  A    between atoms: C_7  and  C_9
    6  A    between atoms: C_9  and  C_23
    7  A    between atoms: C_15  and  C_23
    8  A    between atoms: C_17  and  C_30
    9  A    between atoms: O_18  and  C_31
   10  A    between atoms: C_19  and  C_24
   11  A    between atoms: C_30  and  C_31
                            x       y       z     vdW  Elec       q    Type
                         _______ _______ _______ _____ _____    ______ ____

>  <TORSDO>
F 11

$$$$
=
 OpenBabel11052413203D

 31 34  0  0  1  0  0  0  0  0999 V2000
  191.5310  177.1230  140.1550 C   0  0  1  0  0  3  0  0  0  0  0  0
  191.0110  178.2210  143.7900 C   0  0  0  0  0  2  0  0  0  0  0  0
  190.8770  177.4680  142.4920 C   0  0  0  0  0  0  0  0  0  0  0  0
  190.0560  177.1580  139.7290 C   0  0  0  0  0  2  0  0  0  0  0  0
  188.6650  177.4600  144.2800 C   0  0  2  0  0  3  0  0  0  0  0  0
  192.3140  177.7720  139.2020 O   0  0  0  0  0  1  0  0  0  0  0  0
  188.7230  176.2880  143.3070 C   0  0  0  0  0  2  0  0  0  0  0  0
  190.0380  177.7810  144.8850 C   0  0  1  0  0  3  0  0  0  0  0  0
  191.7130  177.7750  141.4950 C   0  0  0  0  0  3  0  0  0  0  0  0
  189.7520  176.4880  142.1940 C   0  0  1  0  0  3  0  0  0  0  0  0
  189.0640  176.8430  140.8700 C   0  0  0  0  0  2  0  0  0  0  0  0
  190.6050  176.6560  145.7720 C   0  0  1  0  0  3  0  0  0  0  0  0
  191.8470  176.2170  145.3440 F   0  0  0  0  0  0  0  0  0  0  0  0
  189.9270  175.7700  147.8620 O   0  0  0  0  0  1  0  0  0  0  0  0
  190.5740  176.8770  147.3080 C   0  0  1  0  0  0  0  0  0  0  0  0
  192.2430  175.6490  148.0830 O   0  0  0  0  0  1  0  0  0  0  0  0
  191.8840  176.8950  147.8380 O   0  0  0  0  0  0  0  0  0  0  0  0
  189.8010  178.1440  147.7430 C   0  0  0  0  0  2  0  0  0  0  0  0
  188.5550  177.8590  148.5270 C   0  0  0  0  0  3  0  0  0  0  0  0
  187.6460  178.6730  148.5670 O   0  0  0  0  0  0  0  0  0  0  0  0
  187.5040  177.3850  145.2820 C   0  0  0  0  0  2  0  0  0  0  0  0
  185.8680  179.2830  145.6340 C   0  0  0  0  0  2  0  0  0  0  0  0
  186.1870  178.0340  144.8420 C   0  0  0  0  0  0  0  0  0  0  0  0
  185.0500  178.0190  145.8380 C   0  0  0  0  0  2  0  0  0  0  0  0
  185.7880  178.1410  143.3770 C   0  0  0  0  0  2  0  0  0  0  0  0
  184.7840  179.2600  143.1700 C   0  0  0  0  0  2  0  0  0  0  0  0
  183.4410  178.6680  142.7950 C   0  0  0  0  0  2  0  0  0  0  0  0
  181.0730  179.3260  142.6260 C   0  0  2  0  0  3  0  0  0  0  0  0
  180.2460  180.4200  142.8690 O   0  0  0  0  0  1  0  0  0  0  0  0
  181.2370  178.5280  143.9010 C   0  0  0  0  0  2  0  0  0  0  0  0
  182.3360  179.4670  143.4500 C   0  0  1  0  0  3  0  0  0  0  0  0
  1  6  1  6  0  0  0
  1  9  1  0  0  0  0
  2  8  1  0  0  0  0
  3  2  1  0  0  0  0
  4  1  1  0  0  0  0
  4 11  1  0  0  0  0
  5  8  1  0  0  0  0
  5 21  1  1  0  0  0
  7  5  1  0  0  0  0
  8 12  1  6  0  0  0
  9  3  2  0  0  0  0
 10 11  1  6  0  0  0
 10  3  1  0  0  0  0
 10  7  1  0  0  0  0
 12 13  1  6  0  0  0
 12 15  1  0  0  0  0
 15 18  1  0  0  0  0
 15 17  1  0  0  0  0
 15 14  1  1  0  0  0
 17 16  1  0  0  0  0
 18 19  1  0  0  0  0
 19 20  2  0  0  0  0
 22 24  1  0  0  0  0
 23 21  1  0  0  0  0
 23 22  1  0  0  0  0
 23 24  1  0  0  0  0
 25 23  1  0  0  0  0
 26 25  1  0  0  0  0
 27 26  1  0  0  0  0
 28 29  1  1  0  0  0
 28 31  1  0  0  0  0
 28 30  1  0  0  0  0
 31 27  1  6  0  0  0
 31 30  1  0  0  0  0
M  END
>  <MODEL>
5

>  <REMARK>
 VINA RESULT:      -7.4      2.579      7.702
  Name = 
  11 active torsions:
  status: ('A' for Active; 'I' for Inactive)
    1  A    between atoms: C_5  and  C_21
    2  A    between atoms: C_5  and  C_31
    3  A    between atoms: C_6  and  C_7
    4  A    between atoms: C_6  and  C_19
    5  A    between atoms: C_7  and  C_9
    6  A    between atoms: C_9  and  C_23
    7  A    between atoms: C_15  and  C_23
    8  A    between atoms: C_17  and  C_30
    9  A    between atoms: O_18  and  C_31
   10  A    between atoms: C_19  and  C_24
   11  A    between atoms: C_30  and  C_31
                            x       y       z     vdW  Elec       q    Type
                         _______ _______ _______ _____ _____    ______ ____

>  <TORSDO>
F 11

$$$$
=
 OpenBabel11052413203D

 31 34  0  0  1  0  0  0  0  0999 V2000
  191.6390  177.0130  147.1790 C   0  0  1  0  0  3  0  0  0  0  0  0
  190.7570  175.9800  143.5940 C   0  0  0  0  0  2  0  0  0  0  0  0
  190.7900  176.7400  144.8950 C   0  0  0  0  0  0  0  0  0  0  0  0
  190.2010  177.1220  147.7080 C   0  0  0  0  0  2  0  0  0  0  0  0
  188.4690  176.9700  143.2680 C   0  0  2  0  0  3  0  0  0  0  0  0
  192.4200  176.2880  148.0770 O   0  0  0  0  0  1  0  0  0  0  0  0
  188.7100  178.1280  144.2300 C   0  0  0  0  0  2  0  0  0  0  0  0
  189.7570  176.5160  142.5700 C   0  0  1  0  0  3  0  0  0  0  0  0
  191.6600  176.3490  145.8320 C   0  0  0  0  0  3  0  0  0  0  0  0
  189.7910  177.8240  145.2680 C   0  0  1  0  0  3  0  0  0  0  0  0
  189.1670  177.5360  146.6390 C   0  0  0  0  0  2  0  0  0  0  0  0
  190.3670  177.5820  141.6390 C   0  0  1  0  0  3  0  0  0  0  0  0
  191.6860  177.8680  141.9530 F   0  0  0  0  0  0  0  0  0  0  0  0
  191.3810  177.7300  139.5030 O   0  0  0  0  0  1  0  0  0  0  0  0
  190.1700  177.3900  140.1120 C   0  0  1  0  0  0  0  0  0  0  0  0
  190.8980  175.6060  139.0250 O   0  0  0  0  0  1  0  0  0  0  0  0
  189.9230  176.0330  139.8050 O   0  0  0  0  0  0  0  0  0  0  0  0
  189.0670  178.2870  139.5050 C   0  0  0  0  0  2  0  0  0  0  0  0
  189.2680  178.6050  138.0540 C   0  0  0  0  0  3  0  0  0  0  0  0
  189.0550  179.7280  137.6280 O   0  0  0  0  0  0  0  0  0  0  0  0
  187.2530  177.1610  142.3510 C   0  0  0  0  0  2  0  0  0  0  0  0
  185.1500  178.4430  141.7660 C   0  0  0  0  0  2  0  0  0  0  0  0
  186.2050  178.1770  142.8180 C   0  0  0  0  0  0  0  0  0  0  0  0
  186.1770  179.5100  142.1060 C   0  0  0  0  0  2  0  0  0  0  0  0
  185.6420  178.1670  144.2330 C   0  0  0  0  0  2  0  0  0  0  0  0
  184.4850  179.1410  144.3630 C   0  0  0  0  0  2  0  0  0  0  0  0
  183.1790  178.3970  144.1820 C   0  0  0  0  0  2  0  0  0  0  0  0
  181.3270  178.9960  142.6730 C   0  0  2  0  0  3  0  0  0  0  0  0
  180.6960  180.1210  142.1460 O   0  0  0  0  0  1  0  0  0  0  0  0
  180.7290  178.6740  144.0260 C   0  0  0  0  0  2  0  0  0  0  0  0
  182.0620  179.3870  143.9380 C   0  0  1  0  0  3  0  0  0  0  0  0
  1  4  1  0  0  0  0
  1  6  1  1  0  0  0
  2  3  1  0  0  0  0
  3 10  1  0  0  0  0
  3  9  2  0  0  0  0
  5 21  1  6  0  0  0
  5  7  1  0  0  0  0
  8 12  1  1  0  0  0
  8  5  1  0  0  0  0
  8  2  1  0  0  0  0
  9  1  1  0  0  0  0
 10  7  1  6  0  0  0
 10 11  1  0  0  0  0
 11  4  1  0  0  0  0
 12 13  1  6  0  0  0
 15 14  1  6  0  0  0
 15 12  1  0  0  0  0
 16 17  1  0  0  0  0
 17 15  1  0  0  0  0
 18 15  1  0  0  0  0
 19 18  1  0  0  0  0
 20 19  2  0  0  0  0
 21 23  1  0  0  0  0
 22 24  1  0  0  0  0
 22 23  1  0  0  0  0
 23 25  1  0  0  0  0
 24 23  1  0  0  0  0
 25 26  1  0  0  0  0
 27 26  1  0  0  0  0
 28 29  1  1  0  0  0
 28 31  1  0  0  0  0
 28 30  1  0  0  0  0
 31 30  1  0  0  0  0
 31 27  1  6  0  0  0
M  END
>  <MODEL>
6

>  <REMARK>
 VINA RESULT:      -7.1      2.056      5.936
  Name = 
  11 active torsions:
  status: ('A' for Active; 'I' for Inactive)
    1  A    between atoms: C_5  and  C_21
    2  A    between atoms: C_5  and  C_31
    3  A    between atoms: C_6  and  C_7
    4  A    between atoms: C_6  and  C_19
    5  A    between atoms: C_7  and  C_9
    6  A    between atoms: C_9  and  C_23
    7  A    between atoms: C_15  and  C_23
    8  A    between atoms: C_17  and  C_30
    9  A    between atoms: O_18  and  C_31
   10  A    between atoms: C_19  and  C_24
   11  A    between atoms: C_30  and  C_31
                            x       y       z     vdW  Elec       q    Type
                         _______ _______ _______ _____ _____    ______ ____

>  <TORSDO>
F 11

$$$$
=
 OpenBabel11052413203D

 31 34  0  0  1  0  0  0  0  0999 V2000
  183.2850  179.1830  143.7940 C   0  0  1  0  0  3  0  0  0  0  0  0
  186.0300  177.1250  145.5040 C   0  0  0  0  0  2  0  0  0  0  0  0
  185.3270  178.0560  144.5500 C   0  0  0  0  0  0  0  0  0  0  0  0
  183.5280  178.6780  142.3640 C   0  0  0  0  0  2  0  0  0  0  0  0
  187.7000  176.7670  143.6580 C   0  0  2  0  0  3  0  0  0  0  0  0
  181.9220  179.1430  144.0850 O   0  0  0  0  0  1  0  0  0  0  0  0
  187.3520  178.0670  142.9400 C   0  0  0  0  0  2  0  0  0  0  0  0
  187.5020  176.8720  145.1750 C   0  0  1  0  0  3  0  0  0  0  0  0
  184.0440  178.3500  144.7870 C   0  0  0  0  0  3  0  0  0  0  0  0
  185.9380  178.5590  143.2510 C   0  0  1  0  0  3  0  0  0  0  0  0
  184.9950  178.2950  142.0720 C   0  0  0  0  0  2  0  0  0  0  0  0
  188.4490  177.8780  145.8580 C   0  0  1  0  0  3  0  0  0  0  0  0
  187.7870  179.0080  146.3090 F   0  0  0  0  0  0  0  0  0  0  0  0
  189.7460  178.3860  147.7740 O   0  0  0  0  0  1  0  0  0  0  0  0
  189.4270  177.3220  146.9260 C   0  0  1  0  0  0  0  0  0  0  0  0
  187.9640  176.9500  148.5440 O   0  0  0  0  0  1  0  0  0  0  0  0
  188.7950  176.3390  147.7210 O   0  0  0  0  0  0  0  0  0  0  0  0
  190.7490  176.7710  146.3410 C   0  0  0  0  0  2  0  0  0  0  0  0
  191.7660  176.3990  147.3760 C   0  0  0  0  0  3  0  0  0  0  0  0
  191.8900  175.2400  147.7380 O   0  0  0  0  0  0  0  0  0  0  0  0
  189.0260  176.1390  143.2070 C   0  0  0  0  0  2  0  0  0  0  0  0
  191.4040  176.7740  142.6220 C   0  0  0  0  0  2  0  0  0  0  0  0
  189.9370  177.0220  142.3480 C   0  0  0  0  0  0  0  0  0  0  0  0
  190.7520  178.0720  143.0680 C   0  0  0  0  0  2  0  0  0  0  0  0
  189.6460  177.2980  140.8790 C   0  0  0  0  0  2  0  0  0  0  0  0
  190.8980  177.1340  140.0380 C   0  0  0  0  0  2  0  0  0  0  0  0
  190.5190  177.1090  138.5720 C   0  0  0  0  0  2  0  0  0  0  0  0
  189.0550  178.4630  137.1260 C   0  0  2  0  0  3  0  0  0  0  0  0
  188.0070  179.3780  137.2190 O   0  0  0  0  0  1  0  0  0  0  0  0
  188.4960  177.0570  137.1570 C   0  0  0  0  0  2  0  0  0  0  0  0
  189.1170  177.6510  138.4030 C   0  0  1  0  0  3  0  0  0  0  0  0
  1  6  1  1  0  0  0
  1  9  1  0  0  0  0
  3  9  2  0  0  0  0
  3  2  1  0  0  0  0
  4  1  1  0  0  0  0
  5 21  1  1  0  0  0
  5  8  1  0  0  0  0
  7 10  1  0  0  0  0
  7  5  1  0  0  0  0
  8  2  1  0  0  0  0
  8 12  1  6  0  0  0
 10 11  1  6  0  0  0
 10  3  1  0  0  0  0
 11  4  1  0  0  0  0
 12 13  1  1  0  0  0
 12 15  1  0  0  0  0
 15 17  1  0  0  0  0
 15 14  1  1  0  0  0
 17 16  1  0  0  0  0
 18 15  1  0  0  0  0
 18 19  1  0  0  0  0
 19 20  2  0  0  0  0
 22 24  1  0  0  0  0
 23 22  1  0  0  0  0
 23 24  1  0  0  0  0
 23 21  1  0  0  0  0
 25 23  1  0  0  0  0
 26 25  1  0  0  0  0
 27 26  1  0  0  0  0
 28 30  1  0  0  0  0
 28 29  1  1  0  0  0
 28 31  1  0  0  0  0
 30 31  1  0  0  0  0
 31 27  1  6  0  0  0
M  END
>  <MODEL>
7

>  <REMARK>
 VINA RESULT:      -7.1      2.087      6.670
  Name = 
  11 active torsions:
  status: ('A' for Active; 'I' for Inactive)
    1  A    between atoms: C_5  and  C_21
    2  A    between atoms: C_5  and  C_31
    3  A    between atoms: C_6  and  C_7
    4  A    between atoms: C_6  and  C_19
    5  A    between atoms: C_7  and  C_9
    6  A    between atoms: C_9  and  C_23
    7  A    between atoms: C_15  and  C_23
    8  A    between atoms: C_17  and  C_30
    9  A    between atoms: O_18  and  C_31
   10  A    between atoms: C_19  and  C_24
   11  A    between atoms: C_30  and  C_31
                            x       y       z     vdW  Elec       q    Type
                         _______ _______ _______ _____ _____    ______ ____

>  <TORSDO>
F 11

$$$$
=
 OpenBabel11052413203D

 31 34  0  0  1  0  0  0  0  0999 V2000
  184.1660  178.9190  143.0930 C   0  0  1  0  0  3  0  0  0  0  0  0
  187.2750  176.8340  143.9200 C   0  0  0  0  0  2  0  0  0  0  0  0
  186.3830  177.9010  143.3390 C   0  0  0  0  0  0  0  0  0  0  0  0
  184.3150  178.8890  141.5640 C   0  0  0  0  0  2  0  0  0  0  0  0
  188.7770  177.2520  141.9480 C   0  0  2  0  0  3  0  0  0  0  0  0
  182.8530  178.6170  143.4470 O   0  0  0  0  0  1  0  0  0  0  0  0
  188.2210  178.6460  141.6780 C   0  0  0  0  0  2  0  0  0  0  0  0
  188.7240  176.8840  143.4350 C   0  0  1  0  0  3  0  0  0  0  0  0
  185.1070  177.9410  143.7370 C   0  0  0  0  0  3  0  0  0  0  0  0
  186.8020  178.8360  142.2150 C   0  0  1  0  0  3  0  0  0  0  0  0
  185.7770  178.8050  141.0750 C   0  0  0  0  0  2  0  0  0  0  0  0
  189.6230  177.7630  144.3260 C   0  0  1  0  0  3  0  0  0  0  0  0
  188.9290  178.3360  145.3790 F   0  0  0  0  0  0  0  0  0  0  0  0
  191.1090  175.9270  144.1460 O   0  0  0  0  0  1  0  0  0  0  0  0
  190.9740  177.1590  144.7910 C   0  0  1  0  0  0  0  0  0  0  0  0
  191.5620  179.0850  143.8750 O   0  0  0  0  0  1  0  0  0  0  0  0
  192.0560  177.9650  144.3680 O   0  0  0  0  0  0  0  0  0  0  0  0
  191.0570  176.9060  146.3140 C   0  0  0  0  0  2  0  0  0  0  0  0
  192.0260  175.8320  146.7040 C   0  0  0  0  0  3  0  0  0  0  0  0
  192.8050  176.0020  147.6270 O   0  0  0  0  0  0  0  0  0  0  0  0
  190.1090  176.9620  141.2420 C   0  0  0  0  0  2  0  0  0  0  0  0
  190.4770  176.0230  138.9220 C   0  0  0  0  0  2  0  0  0  0  0  0
  190.1580  177.2560  139.7390 C   0  0  0  0  0  0  0  0  0  0  0  0
  191.5030  177.1350  139.0610 C   0  0  0  0  0  2  0  0  0  0  0  0
  189.1500  178.1730  139.0610 C   0  0  0  0  0  2  0  0  0  0  0  0
  189.4330  178.2830  137.5730 C   0  0  0  0  0  2  0  0  0  0  0  0
  188.1570  178.0250  136.7990 C   0  0  0  0  0  2  0  0  0  0  0  0
  185.7600  177.4970  137.0110 C   0  0  2  0  0  3  0  0  0  0  0  0
  184.7260  177.5700  137.9420 O   0  0  0  0  0  1  0  0  0  0  0  0
  186.5330  176.2120  137.2200 C   0  0  0  0  0  2  0  0  0  0  0  0
  187.0860  177.5210  137.7420 C   0  0  1  0  0  3  0  0  0  0  0  0
  1  6  1  6  0  0  0
  1  9  1  0  0  0  0
  3  9  2  0  0  0  0
  3  2  1  0  0  0  0
  4  1  1  0  0  0  0
  5 21  1  1  0  0  0
  5  8  1  0  0  0  0
  7  5  1  0  0  0  0
  7 10  1  0  0  0  0
  8  2  1  0  0  0  0
  8 12  1  1  0  0  0
 10 11  1  6  0  0  0
 10  3  1  0  0  0  0
 11  4  1  0  0  0  0
 12 15  1  0  0  0  0
 12 13  1  1  0  0  0
 15 14  1  6  0  0  0
 15 18  1  0  0  0  0
 16 17  1  0  0  0  0
 17 15  1  0  0  0  0
 18 19  1  0  0  0  0
 19 20  2  0  0  0  0
 22 24  1  0  0  0  0
 22 23  1  0  0  0  0
 23 21  1  0  0  0  0
 24 23  1  0  0  0  0
 25 23  1  0  0  0  0
 26 25  1  0  0  0  0
 27 26  1  0  0  0  0
 28 30  1  0  0  0  0
 28 31  1  0  0  0  0
 28 29  1  1  0  0  0
 30 31  1  0  0  0  0
 31 27  1  6  0  0  0
M  END
>  <MODEL>
8

>  <REMARK>
 VINA RESULT:      -7.0      2.899      6.476
  Name = 
  11 active torsions:
  status: ('A' for Active; 'I' for Inactive)
    1  A    between atoms: C_5  and  C_21
    2  A    between atoms: C_5  and  C_31
    3  A    between atoms: C_6  and  C_7
    4  A    between atoms: C_6  and  C_19
    5  A    between atoms: C_7  and  C_9
    6  A    between atoms: C_9  and  C_23
    7  A    between atoms: C_15  and  C_23
    8  A    between atoms: C_17  and  C_30
    9  A    between atoms: O_18  and  C_31
   10  A    between atoms: C_19  and  C_24
   11  A    between atoms: C_30  and  C_31
                            x       y       z     vdW  Elec       q    Type
                         _______ _______ _______ _____ _____    ______ ____

>  <TORSDO>
F 11

$$$$
=
 OpenBabel11052413203D

 31 34  0  0  1  0  0  0  0  0999 V2000
  191.1080  176.5450  146.5100 C   0  0  1  0  0  3  0  0  0  0  0  0
  188.8020  178.5790  144.2210 C   0  0  0  0  0  2  0  0  0  0  0  0
  189.5940  177.4350  144.7990 C   0  0  0  0  0  0  0  0  0  0  0  0
  192.0380  176.0030  145.4150 C   0  0  0  0  0  2  0  0  0  0  0  0
  188.9780  177.3700  142.0240 C   0  0  2  0  0  3  0  0  0  0  0  0
  191.8640  177.0420  147.5710 O   0  0  0  0  0  1  0  0  0  0  0  0
  189.2510  176.0130  142.6650 C   0  0  0  0  0  2  0  0  0  0  0  0
  188.0930  178.2600  142.9050 C   0  0  1  0  0  3  0  0  0  0  0  0
  190.2200  177.6270  145.9650 C   0  0  0  0  0  3  0  0  0  0  0  0
  189.8530  176.1280  144.0660 C   0  0  1  0  0  3  0  0  0  0  0  0
  191.3510  175.8060  144.0460 C   0  0  0  0  0  2  0  0  0  0  0  0
  186.6680  177.7110  143.1110 C   0  0  1  0  0  3  0  0  0  0  0  0
  186.4890  177.1590  144.3690 F   0  0  0  0  0  0  0  0  0  0  0  0
  185.9360  179.4440  141.6710 O   0  0  0  0  0  1  0  0  0  0  0  0
  185.4850  178.6350  142.7170 C   0  0  1  0  0  0  0  0  0  0  0  0
  184.0690  178.3730  141.0370 O   0  0  0  0  0  1  0  0  0  0  0  0
  184.4040  177.8760  142.2130 O   0  0  0  0  0  0  0  0  0  0  0  0
  185.0050  179.5610  143.8590 C   0  0  0  0  0  2  0  0  0  0  0  0
  183.8350  179.0270  144.6270 C   0  0  0  0  0  3  0  0  0  0  0  0
  183.8500  179.0030  145.8470 O   0  0  0  0  0  0  0  0  0  0  0  0
  188.5720  177.2930  140.5450 C   0  0  0  0  0  2  0  0  0  0  0  0
  190.4150  176.4640  139.0210 C   0  0  0  0  0  2  0  0  0  0  0  0
  189.6520  177.6700  139.5260 C   0  0  0  0  0  0  0  0  0  0  0  0
  191.0900  177.4650  139.9430 C   0  0  0  0  0  2  0  0  0  0  0  0
  189.4160  178.7170  138.4470 C   0  0  0  0  0  2  0  0  0  0  0  0
  189.2600  178.0660  137.0850 C   0  0  0  0  0  2  0  0  0  0  0  0
  187.9170  178.4470  136.4960 C   0  0  0  0  0  2  0  0  0  0  0  0
  185.7440  177.2890  136.4880 C   0  0  2  0  0  3  0  0  0  0  0  0
  184.5310  177.2820  137.1740 O   0  0  0  0  0  1  0  0  0  0  0  0
  186.7330  176.4010  137.2110 C   0  0  0  0  0  2  0  0  0  0  0  0
  186.8090  177.9050  137.3710 C   0  0  1  0  0  3  0  0  0  0  0  0
  1  6  1  1  0  0  0
  2  3  1  0  0  0  0
  3  9  2  0  0  0  0
  4  1  1  0  0  0  0
  5 21  1  6  0  0  0
  5  7  1  0  0  0  0
  5  8  1  0  0  0  0
  8 12  1  1  0  0  0
  8  2  1  0  0  0  0
  9  1  1  0  0  0  0
 10  7  1  6  0  0  0
 10  3  1  0  0  0  0
 11 10  1  0  0  0  0
 11  4  1  0  0  0  0
 12 13  1  1  0  0  0
 15 14  1  6  0  0  0
 15 12  1  0  0  0  0
 15 18  1  0  0  0  0
 16 17  1  0  0  0  0
 17 15  1  0  0  0  0
 18 19  1  0  0  0  0
 19 20  2  0  0  0  0
 22 23  1  0  0  0  0
 22 24  1  0  0  0  0
 23 24  1  0  0  0  0
 23 21  1  0  0  0  0
 25 23  1  0  0  0  0
 26 25  1  0  0  0  0
 27 26  1  0  0  0  0
 28 29  1  1  0  0  0
 28 30  1  0  0  0  0
 28 31  1  0  0  0  0
 30 31  1  0  0  0  0
 31 27  1  6  0  0  0
M  END
>  <MODEL>
9

>  <REMARK>
 VINA RESULT:      -6.9      2.586      7.236
  Name = 
  11 active torsions:
  status: ('A' for Active; 'I' for Inactive)
    1  A    between atoms: C_5  and  C_21
    2  A    between atoms: C_5  and  C_31
    3  A    between atoms: C_6  and  C_7
    4  A    between atoms: C_6  and  C_19
    5  A    between atoms: C_7  and  C_9
    6  A    between atoms: C_9  and  C_23
    7  A    between atoms: C_15  and  C_23
    8  A    between atoms: C_17  and  C_30
    9  A    between atoms: O_18  and  C_31
   10  A    between atoms: C_19  and  C_24
   11  A    between atoms: C_30  and  C_31
                            x       y       z     vdW  Elec       q    Type
                         _______ _______ _______ _____ _____    ______ ____

>  <TORSDO>
F 11

$$$$
