=
 OpenBabel11052412573D

 31 34  0  0  1  0  0  0  0  0999 V2000
  184.8380  178.6700  144.6470 C   0  0  0  0  0  0  0  0  0  0  0  0
  187.9820  176.6250  143.9920 C   0  0  1  0  0  3  0  0  0  0  0  0
  189.1140  177.2140  144.8330 C   0  0  0  0  0  0  0  0  0  0  0  0
  188.9720  178.9780  139.3090 O   0  0  0  0  0  0  0  0  0  0  0  0
  189.6620  177.9280  139.4000 C   0  0  0  0  0  0  0  0  0  0  0  0
  189.0710  177.4530  147.3010 C   0  0  0  0  0  3  0  0  0  0  0  0
  186.8330  177.5810  143.8060 C   0  0  0  0  0  0  0  0  0  0  0  0
  184.7860  179.4660  143.4980 C   0  0  0  0  0  3  0  0  0  0  0  0
  188.7450  178.0910  145.9940 C   0  0  0  0  0  2  0  0  0  0  0  0
  188.5420  177.1630  141.5660 C   0  0  0  0  0  0  0  0  0  0  0  0
  183.6270  178.8580  145.8960 Cl  0  0  0  0  0  0  0  0  0  0  0  0
  190.8310  176.1850  143.3430 C   0  0  0  0  0  2  0  0  0  0  0  0
  190.3240  177.2000  147.6690 C   0  0  0  0  0  3  0  0  0  0  0  0
  187.7210  178.1750  141.5930 N   0  0  0  0  0  0  0  0  0  0  0  0
  188.4440  176.0770  142.6250 C   0  0  1  0  0  3  0  0  0  0  0  0
  189.4570  177.0010  140.4730 N   0  0  0  0  0  2  0  0  0  0  0  0
  185.8610  177.7300  144.8030 C   0  0  0  0  0  3  0  0  0  0  0  0
  191.5000  177.4330  146.8110 C   0  0  0  0  0  3  0  0  0  0  0  0
  186.7690  178.3680  142.6440 C   0  0  0  0  0  0  0  0  0  0  0  0
  185.7490  179.3140  142.4960 C   0  0  0  0  0  3  0  0  0  0  0  0
  189.7360  175.2840  142.7890 C   0  0  0  0  0  2  0  0  0  0  0  0
  190.4120  176.8920  144.6010 C   0  0  0  0  0  0  0  0  0  0  0  0
  191.5300  177.3100  145.4780 C   0  0  0  0  0  3  0  0  0  0  0  0
  190.2540  177.8140  137.1040 F   0  0  0  0  0  0  0  0  0  0  0  0
  190.7390  177.6700  138.3920 C   0  0  2  0  0  3  0  0  0  0  0  0
  190.8260  175.2660  137.6380 C   0  0  0  0  0  1  0  0  0  0  0  0
  191.4350  176.3100  138.5630 C   0  0  1  0  0  3  0  0  0  0  0  0
  192.9670  176.3370  138.4590 C   0  0  0  0  0  0  0  0  0  0  0  0
  193.5250  176.9380  139.5740 F   0  0  0  0  0  0  0  0  0  0  0  0
  193.4640  175.0520  138.3390 F   0  0  0  0  0  0  0  0  0  0  0  0
  193.3340  177.0550  137.3360 F   0  0  0  0  0  0  0  0  0  0  0  0
  1 17  1  0  0  0  0
  1 11  1  0  0  0  0
  2  7  1  6  0  0  0
  2  3  1  0  0  0  0
  3  9  1  0  0  0  0
  4  5  2  0  0  0  0
  5 16  1  0  0  0  0
  6 13  2  0  0  0  0
  7 17  2  0  0  0  0
  8  1  2  0  0  0  0
  9  6  1  0  0  0  0
 10 14  2  0  0  0  0
 10 15  1  0  0  0  0
 12 22  1  0  0  0  0
 14 19  1  0  0  0  0
 15 21  1  1  0  0  0
 15  2  1  0  0  0  0
 16 10  1  0  0  0  0
 18 13  1  0  0  0  0
 19  7  1  0  0  0  0
 20 19  2  0  0  0  0
 20  8  1  0  0  0  0
 21 12  1  0  0  0  0
 22  3  2  0  0  0  0
 22 23  1  0  0  0  0
 23 18  2  0  0  0  0
 25 24  1  6  0  0  0
 25 27  1  0  0  0  0
 25  5  1  0  0  0  0
 27 26  1  6  0  0  0
 28 27  1  0  0  0  0
 28 29  1  0  0  0  0
 30 28  1  0  0  0  0
 31 28  1  0  0  0  0
M  END
>  <MODEL>
1

>  <REMARK>
 VINA RESULT:      -9.4      0.000      0.000
  Name = 
  3 active torsions:
  status: ('A' for Active; 'I' for Inactive)
    1  A    between atoms: C_1  and  C_19
    2  A    between atoms: C_9  and  C_22
    3  A    between atoms: C_19  and  C_22
                            x       y       z     vdW  Elec       q    Type
                         _______ _______ _______ _____ _____    ______ ____

>  <TORSDO>
F 3

$$$$
=
 OpenBabel11052412573D

 31 34  0  0  1  0  0  0  0  0999 V2000
  180.9580  178.7850  143.4340 C   0  0  0  0  0  0  0  0  0  0  0  0
  182.7360  178.5710  140.0740 C   0  0  1  0  0  3  0  0  0  0  0  0
  182.5710  177.1480  139.5410 C   0  0  0  0  0  0  0  0  0  0  0  0
  187.5880  178.2000  142.2570 O   0  0  0  0  0  0  0  0  0  0  0  0
  187.7030  178.4770  141.0330 C   0  0  0  0  0  0  0  0  0  0  0  0
  180.3970  176.0300  139.1280 C   0  0  0  0  0  3  0  0  0  0  0  0
  182.4850  178.6730  141.5560 C   0  0  0  0  0  0  0  0  0  0  0  0
  182.0380  178.7190  144.3190 C   0  0  0  0  0  3  0  0  0  0  0  0
  181.4760  176.3020  140.1200 C   0  0  0  0  0  2  0  0  0  0  0  0
  185.1940  178.8230  140.6890 C   0  0  0  0  0  0  0  0  0  0  0  0
  179.3250  178.8870  144.0550 Cl  0  0  0  0  0  0  0  0  0  0  0  0
  184.5520  177.4200  138.0480 C   0  0  0  0  0  2  0  0  0  0  0  0
  180.6120  175.3060  138.0330 C   0  0  0  0  0  3  0  0  0  0  0  0
  184.9110  178.6040  141.9430 N   0  0  0  0  0  0  0  0  0  0  0  0
  184.0920  179.2150  139.7180 C   0  0  1  0  0  3  0  0  0  0  0  0
  186.5570  178.8180  140.2430 N   0  0  0  0  0  2  0  0  0  0  0  0
  181.1790  178.7590  142.0540 C   0  0  0  0  0  3  0  0  0  0  0  0
  181.9300  174.7780  137.6380 C   0  0  0  0  0  3  0  0  0  0  0  0
  183.5700  178.6270  142.4460 C   0  0  0  0  0  0  0  0  0  0  0  0
  183.3450  178.6420  143.8260 C   0  0  0  0  0  3  0  0  0  0  0  0
  184.4450  178.9230  138.2640 C   0  0  0  0  0  2  0  0  0  0  0  0
  183.3290  176.6830  138.5160 C   0  0  0  0  0  0  0  0  0  0  0  0
  183.1080  175.3730  137.8610 C   0  0  0  0  0  3  0  0  0  0  0  0
  188.9680  178.6660  139.0340 F   0  0  0  0  0  0  0  0  0  0  0  0
  189.0530  178.4080  140.3910 C   0  0  2  0  0  3  0  0  0  0  0  0
  190.4120  176.5470  139.3660 C   0  0  0  0  0  1  0  0  0  0  0  0
  189.7950  177.0860  140.6480 C   0  0  1  0  0  3  0  0  0  0  0  0
  190.8120  177.1160  141.7990 C   0  0  0  0  0  0  0  0  0  0  0  0
  190.6460  178.2530  142.5730 F   0  0  0  0  0  0  0  0  0  0  0  0
  190.6660  175.9980  142.5990 F   0  0  0  0  0  0  0  0  0  0  0  0
  192.0910  177.1170  141.2760 F   0  0  0  0  0  0  0  0  0  0  0  0
  1 11  1  0  0  0  0
  1  8  1  0  0  0  0
  2  3  1  1  0  0  0
  2  7  1  0  0  0  0
  3  9  1  0  0  0  0
  5  4  2  0  0  0  0
  6  9  1  0  0  0  0
  7 17  1  0  0  0  0
  7 19  2  0  0  0  0
 10 14  2  0  0  0  0
 12 21  1  0  0  0  0
 12 22  1  0  0  0  0
 13  6  2  0  0  0  0
 14 19  1  0  0  0  0
 15 21  1  6  0  0  0
 15  2  1  0  0  0  0
 15 10  1  0  0  0  0
 16 10  1  0  0  0  0
 16  5  1  0  0  0  0
 17  1  2  0  0  0  0
 18 23  2  0  0  0  0
 18 13  1  0  0  0  0
 19 20  1  0  0  0  0
 20  8  2  0  0  0  0
 22  3  2  0  0  0  0
 23 22  1  0  0  0  0
 25 24  1  6  0  0  0
 25 27  1  0  0  0  0
 25  5  1  0  0  0  0
 27 26  1  6  0  0  0
 27 28  1  0  0  0  0
 28 29  1  0  0  0  0
 28 30  1  0  0  0  0
 31 28  1  0  0  0  0
M  END
>  <MODEL>
2

>  <REMARK>
 VINA RESULT:      -8.1      4.148      6.703
  Name = 
  3 active torsions:
  status: ('A' for Active; 'I' for Inactive)
    1  A    between atoms: C_1  and  C_19
    2  A    between atoms: C_9  and  C_22
    3  A    between atoms: C_19  and  C_22
                            x       y       z     vdW  Elec       q    Type
                         _______ _______ _______ _____ _____    ______ ____

>  <TORSDO>
F 3

$$$$
=
 OpenBabel11052412573D

 31 34  0  0  1  0  0  0  0  0999 V2000
  184.4440  178.7900  143.5510 C   0  0  0  0  0  0  0  0  0  0  0  0
  187.5690  176.6990  144.1520 C   0  0  1  0  0  3  0  0  0  0  0  0
  188.4090  177.4000  145.2190 C   0  0  0  0  0  0  0  0  0  0  0  0
  190.0170  178.4360  139.7430 O   0  0  0  0  0  0  0  0  0  0  0  0
  190.6110  177.4110  140.1720 C   0  0  0  0  0  0  0  0  0  0  0  0
  187.6240  177.9540  147.5050 C   0  0  0  0  0  3  0  0  0  0  0  0
  186.5630  177.6160  143.5050 C   0  0  0  0  0  0  0  0  0  0  0  0
  184.7720  179.4310  142.3520 C   0  0  0  0  0  3  0  0  0  0  0  0
  187.7330  178.4160  146.0920 C   0  0  0  0  0  2  0  0  0  0  0  0
  188.8590  176.9240  141.9670 C   0  0  0  0  0  0  0  0  0  0  0  0
  182.9170  179.1300  144.3350 Cl  0  0  0  0  0  0  0  0  0  0  0  0
  190.4630  176.1980  144.4680 C   0  0  0  0  0  2  0  0  0  0  0  0
  188.6960  177.7590  148.2680 C   0  0  0  0  0  3  0  0  0  0  0  0
  188.1030  177.9260  141.6150 N   0  0  0  0  0  0  0  0  0  0  0  0
  188.4070  175.9830  143.0720 C   0  0  1  0  0  3  0  0  0  0  0  0
  190.0570  176.6280  141.2370 N   0  0  0  0  0  2  0  0  0  0  0  0
  185.3390  177.8850  144.1290 C   0  0  0  0  0  3  0  0  0  0  0  0
  190.0840  177.8870  147.7890 C   0  0  0  0  0  3  0  0  0  0  0  0
  186.8820  178.2460  142.2910 C   0  0  0  0  0  0  0  0  0  0  0  0
  185.9880  179.1580  141.7200 C   0  0  0  0  0  3  0  0  0  0  0  0
  189.5600  175.2260  143.7210 C   0  0  0  0  0  2  0  0  0  0  0  0
  189.7040  177.0590  145.4390 C   0  0  0  0  0  0  0  0  0  0  0  0
  190.5150  177.5930  146.5560 C   0  0  0  0  0  3  0  0  0  0  0  0
  192.8960  177.9840  139.8770 F   0  0  0  0  0  0  0  0  0  0  0  0
  191.9350  177.0320  139.5830 C   0  0  2  0  0  3  0  0  0  0  0  0
  193.2860  176.6040  137.4980 C   0  0  0  0  0  1  0  0  0  0  0  0
  191.8850  176.7590  138.0710 C   0  0  1  0  0  3  0  0  0  0  0  0
  190.9650  175.6060  137.6420 C   0  0  0  0  0  0  0  0  0  0  0  0
  190.9210  175.4990  136.2620 F   0  0  0  0  0  0  0  0  0  0  0  0
  191.4100  174.4110  138.1760 F   0  0  0  0  0  0  0  0  0  0  0  0
  189.6860  175.8460  138.1100 F   0  0  0  0  0  0  0  0  0  0  0  0
  1 17  1  0  0  0  0
  1 11  1  0  0  0  0
  2  7  1  6  0  0  0
  2  3  1  0  0  0  0
  3 22  2  0  0  0  0
  3  9  1  0  0  0  0
  4  5  2  0  0  0  0
  5 16  1  0  0  0  0
  6 13  2  0  0  0  0
  7 17  2  0  0  0  0
  8  1  2  0  0  0  0
  9  6  1  0  0  0  0
 10 15  1  0  0  0  0
 12 22  1  0  0  0  0
 14 10  2  0  0  0  0
 14 19  1  0  0  0  0
 15 21  1  1  0  0  0
 15  2  1  0  0  0  0
 16 10  1  0  0  0  0
 18 13  1  0  0  0  0
 19  7  1  0  0  0  0
 20 19  2  0  0  0  0
 20  8  1  0  0  0  0
 21 12  1  0  0  0  0
 22 23  1  0  0  0  0
 23 18  2  0  0  0  0
 25 24  1  6  0  0  0
 25  5  1  0  0  0  0
 27 26  1  1  0  0  0
 27 25  1  0  0  0  0
 28 27  1  0  0  0  0
 28 31  1  0  0  0  0
 28 30  1  0  0  0  0
 29 28  1  0  0  0  0
M  END
>  <MODEL>
3

>  <REMARK>
 VINA RESULT:      -8.1      1.199      1.803
  Name = 
  3 active torsions:
  status: ('A' for Active; 'I' for Inactive)
    1  A    between atoms: C_1  and  C_19
    2  A    between atoms: C_9  and  C_22
    3  A    between atoms: C_19  and  C_22
                            x       y       z     vdW  Elec       q    Type
                         _______ _______ _______ _____ _____    ______ ____

>  <TORSDO>
F 3

$$$$
=
 OpenBabel11052412573D

 31 34  0  0  1  0  0  0  0  0999 V2000
  191.4670  176.3430  145.8160 C   0  0  0  0  0  0  0  0  0  0  0  0
  189.2790  178.3300  143.4160 C   0  0  1  0  0  3  0  0  0  0  0  0
  187.8300  177.8910  143.6220 C   0  0  0  0  0  0  0  0  0  0  0  0
  190.5760  175.3460  139.1910 O   0  0  0  0  0  0  0  0  0  0  0  0
  190.0310  176.4110  138.7960 C   0  0  0  0  0  0  0  0  0  0  0  0
  186.6020  178.0100  145.7730 C   0  0  0  0  0  3  0  0  0  0  0  0
  190.2740  177.3360  143.9550 C   0  0  0  0  0  0  0  0  0  0  0  0
  192.0180  175.3890  144.9560 C   0  0  0  0  0  3  0  0  0  0  0  0
  187.4830  177.1830  144.8990 C   0  0  0  0  0  2  0  0  0  0  0  0
  189.9720  177.4590  141.1260 C   0  0  0  0  0  0  0  0  0  0  0  0
  191.8610  176.3130  147.5210 Cl  0  0  0  0  0  0  0  0  0  0  0  0
  187.1980  178.7270  141.3570 C   0  0  0  0  0  2  0  0  0  0  0  0
  185.3630  178.3370  145.4160 C   0  0  0  0  0  3  0  0  0  0  0  0
  190.5720  176.4460  141.6850 N   0  0  0  0  0  0  0  0  0  0  0  0
  189.6200  178.6850  141.9530 C   0  0  1  0  0  3  0  0  0  0  0  0
  189.7510  177.4790  139.7090 N   0  0  0  0  0  2  0  0  0  0  0  0
  190.5940  177.3140  145.3190 C   0  0  0  0  0  3  0  0  0  0  0  0
  184.7650  178.0050  144.1110 C   0  0  0  0  0  3  0  0  0  0  0  0
  190.8440  176.3890  143.0890 C   0  0  0  0  0  0  0  0  0  0  0  0
  191.7090  175.4120  143.5920 C   0  0  0  0  0  3  0  0  0  0  0  0
  188.4990  179.5170  141.3420 C   0  0  0  0  0  2  0  0  0  0  0  0
  186.8600  178.2000  142.7240 C   0  0  0  0  0  0  0  0  0  0  0  0
  185.4210  177.9350  142.9460 C   0  0  0  0  0  3  0  0  0  0  0  0
  190.7500  176.7230  136.5550 F   0  0  0  0  0  0  0  0  0  0  0  0
  189.6370  176.5410  137.3570 C   0  0  2  0  0  3  0  0  0  0  0  0
  188.8210  178.2990  135.7450 C   0  0  0  0  0  1  0  0  0  0  0  0
  188.5940  177.6400  137.0970 C   0  0  1  0  0  3  0  0  0  0  0  0
  187.1300  177.2150  137.2840 C   0  0  0  0  0  0  0  0  0  0  0  0
  187.0430  175.8620  137.5680 F   0  0  0  0  0  0  0  0  0  0  0  0
  186.5480  177.9330  138.3120 F   0  0  0  0  0  0  0  0  0  0  0  0
  186.4300  177.4700  136.1200 F   0  0  0  0  0  0  0  0  0  0  0  0
  1 11  1  0  0  0  0
  2  3  1  6  0  0  0
  2  7  1  0  0  0  0
  3  9  1  0  0  0  0
  5  4  2  0  0  0  0
  5 16  1  0  0  0  0
  7 17  2  0  0  0  0
  8  1  2  0  0  0  0
  9  6  1  0  0  0  0
 10 14  2  0  0  0  0
 10 15  1  0  0  0  0
 12 22  1  0  0  0  0
 13  6  2  0  0  0  0
 14 19  1  0  0  0  0
 15 21  1  6  0  0  0
 15  2  1  0  0  0  0
 16 10  1  0  0  0  0
 17  1  1  0  0  0  0
 18 13  1  0  0  0  0
 19 20  2  0  0  0  0
 19  7  1  0  0  0  0
 20  8  1  0  0  0  0
 21 12  1  0  0  0  0
 22 23  1  0  0  0  0
 22  3  2  0  0  0  0
 23 18  2  0  0  0  0
 25 24  1  6  0  0  0
 25  5  1  0  0  0  0
 27 26  1  6  0  0  0
 27 28  1  0  0  0  0
 27 25  1  0  0  0  0
 28 29  1  0  0  0  0
 28 30  1  0  0  0  0
 31 28  1  0  0  0  0
M  END
>  <MODEL>
4

>  <REMARK>
 VINA RESULT:      -8.0      2.605      5.024
  Name = 
  3 active torsions:
  status: ('A' for Active; 'I' for Inactive)
    1  A    between atoms: C_1  and  C_19
    2  A    between atoms: C_9  and  C_22
    3  A    between atoms: C_19  and  C_22
                            x       y       z     vdW  Elec       q    Type
                         _______ _______ _______ _____ _____    ______ ____

>  <TORSDO>
F 3

$$$$
=
 OpenBabel11052412573D

 31 34  0  0  1  0  0  0  0  0999 V2000
  181.3210  178.7430  143.3390 C   0  0  0  0  0  0  0  0  0  0  0  0
  182.6810  178.3150  139.8090 C   0  0  1  0  0  3  0  0  0  0  0  0
  182.4860  176.8560  139.4000 C   0  0  0  0  0  0  0  0  0  0  0  0
  187.7700  178.1720  141.3990 O   0  0  0  0  0  0  0  0  0  0  0  0
  187.7290  178.3630  140.1540 C   0  0  0  0  0  0  0  0  0  0  0  0
  180.3040  175.6790  139.3360 C   0  0  0  0  0  3  0  0  0  0  0  0
  182.6100  178.5190  141.3000 C   0  0  0  0  0  0  0  0  0  0  0  0
  182.5020  178.7560  144.0860 C   0  0  0  0  0  3  0  0  0  0  0  0
  181.4890  176.0370  140.1660 C   0  0  0  0  0  2  0  0  0  0  0  0
  185.1890  178.6470  140.0980 C   0  0  0  0  0  0  0  0  0  0  0  0
  179.7730  178.8650  144.1480 Cl  0  0  0  0  0  0  0  0  0  0  0  0
  184.2640  177.0490  137.6600 C   0  0  0  0  0  2  0  0  0  0  0  0
  180.4010  174.8820  138.2750 C   0  0  0  0  0  3  0  0  0  0  0  0
  185.0660  178.5130  141.3890 N   0  0  0  0  0  0  0  0  0  0  0  0
  183.9690  178.9520  139.2450 C   0  0  1  0  0  3  0  0  0  0  0  0
  186.4880  178.6300  139.4890 N   0  0  0  0  0  2  0  0  0  0  0  0
  181.3730  178.6220  141.9480 C   0  0  0  0  0  3  0  0  0  0  0  0
  181.6740  174.3460  137.7590 C   0  0  0  0  0  3  0  0  0  0  0  0
  183.7970  178.5520  142.0500 C   0  0  0  0  0  0  0  0  0  0  0  0
  183.7400  178.6640  143.4430 C   0  0  0  0  0  3  0  0  0  0  0  0
  184.1490  178.5620  137.7830 C   0  0  0  0  0  2  0  0  0  0  0  0
  183.1240  176.3290  138.3240 C   0  0  0  0  0  0  0  0  0  0  0  0
  182.8560  174.9730  137.7930 C   0  0  0  0  0  3  0  0  0  0  0  0
  189.2540  179.4580  138.7020 F   0  0  0  0  0  0  0  0  0  0  0  0
  188.9930  178.2670  139.3570 C   0  0  2  0  0  3  0  0  0  0  0  0
  188.6360  177.5380  136.9710 C   0  0  0  0  0  1  0  0  0  0  0  0
  189.0170  177.0870  138.3730 C   0  0  1  0  0  3  0  0  0  0  0  0
  190.3110  176.2590  138.3710 C   0  0  0  0  0  0  0  0  0  0  0  0
  190.0580  174.9500  137.9970 F   0  0  0  0  0  0  0  0  0  0  0  0
  191.2330  176.8090  137.5000 F   0  0  0  0  0  0  0  0  0  0  0  0
  190.8550  176.2610  139.6420 F   0  0  0  0  0  0  0  0  0  0  0  0
  1  8  1  0  0  0  0
  1 11  1  0  0  0  0
  2  3  1  1  0  0  0
  2  7  1  0  0  0  0
  3  9  1  0  0  0  0
  5  4  2  0  0  0  0
  6  9  1  0  0  0  0
  7 17  1  0  0  0  0
  7 19  2  0  0  0  0
 10 14  2  0  0  0  0
 12 21  1  0  0  0  0
 12 22  1  0  0  0  0
 13  6  2  0  0  0  0
 14 19  1  0  0  0  0
 15 21  1  6  0  0  0
 15  2  1  0  0  0  0
 15 10  1  0  0  0  0
 16 10  1  0  0  0  0
 16  5  1  0  0  0  0
 17  1  2  0  0  0  0
 18 23  2  0  0  0  0
 18 13  1  0  0  0  0
 19 20  1  0  0  0  0
 20  8  2  0  0  0  0
 22  3  2  0  0  0  0
 23 22  1  0  0  0  0
 25 24  1  6  0  0  0
 25  5  1  0  0  0  0
 27 26  1  6  0  0  0
 27 25  1  0  0  0  0
 28 27  1  0  0  0  0
 28 31  1  0  0  0  0
 29 28  1  0  0  0  0
 30 28  1  0  0  0  0
M  END
>  <MODEL>
5

>  <REMARK>
 VINA RESULT:      -7.7      4.192      6.669
  Name = 
  3 active torsions:
  status: ('A' for Active; 'I' for Inactive)
    1  A    between atoms: C_1  and  C_19
    2  A    between atoms: C_9  and  C_22
    3  A    between atoms: C_19  and  C_22
                            x       y       z     vdW  Elec       q    Type
                         _______ _______ _______ _____ _____    ______ ____

>  <TORSDO>
F 3

$$$$
=
 OpenBabel11052412573D

 31 34  0  0  1  0  0  0  0  0999 V2000
  191.4970  176.3530  145.8630 C   0  0  0  0  0  0  0  0  0  0  0  0
  189.2980  178.3360  143.4700 C   0  0  1  0  0  3  0  0  0  0  0  0
  187.8520  177.8830  143.6690 C   0  0  0  0  0  0  0  0  0  0  0  0
  190.6300  175.3880  139.2290 O   0  0  0  0  0  0  0  0  0  0  0  0
  190.0770  176.4510  138.8390 C   0  0  0  0  0  0  0  0  0  0  0  0
  186.6180  177.9780  145.8180 C   0  0  0  0  0  3  0  0  0  0  0  0
  190.3000  177.3470  144.0050 C   0  0  0  0  0  0  0  0  0  0  0  0
  192.0580  175.4080  144.9980 C   0  0  0  0  0  3  0  0  0  0  0  0
  187.5080  177.1650  144.9410 C   0  0  0  0  0  2  0  0  0  0  0  0
  190.0040  177.4850  141.1760 C   0  0  0  0  0  0  0  0  0  0  0  0
  191.8870  176.3160  147.5680 Cl  0  0  0  0  0  0  0  0  0  0  0  0
  187.2180  178.7270  141.4080 C   0  0  0  0  0  2  0  0  0  0  0  0
  185.3770  178.2970  145.4600 C   0  0  0  0  0  3  0  0  0  0  0  0
  190.6110  176.4730  141.7300 N   0  0  0  0  0  0  0  0  0  0  0  0
  189.6390  178.7020  142.0100 C   0  0  1  0  0  3  0  0  0  0  0  0
  189.7860  177.5120  139.7580 N   0  0  0  0  0  2  0  0  0  0  0  0
  190.6170  177.3200  145.3690 C   0  0  0  0  0  3  0  0  0  0  0  0
  184.7850  177.9680  144.1510 C   0  0  0  0  0  3  0  0  0  0  0  0
  190.8800  176.4100  143.1340 C   0  0  0  0  0  0  0  0  0  0  0  0
  191.7530  175.4380  143.6340 C   0  0  0  0  0  3  0  0  0  0  0  0
  188.5130  179.5290  141.4000 C   0  0  0  0  0  2  0  0  0  0  0  0
  186.8820  178.1900  142.7700 C   0  0  0  0  0  0  0  0  0  0  0  0
  185.4440  177.9110  142.9880 C   0  0  0  0  0  3  0  0  0  0  0  0
  189.1930  177.8540  137.1410 F   0  0  0  0  0  0  0  0  0  0  0  0
  189.6850  176.5870  137.4010 C   0  0  2  0  0  3  0  0  0  0  0  0
  187.2620  175.9130  137.2260 C   0  0  0  0  0  1  0  0  0  0  0  0
  188.6980  175.5100  136.9230 C   0  0  1  0  0  3  0  0  0  0  0  0
  188.8660  175.0640  135.4630 C   0  0  0  0  0  0  0  0  0  0  0  0
  188.1590  173.8990  135.2190 F   0  0  0  0  0  0  0  0  0  0  0  0
  188.4220  176.0530  134.6040 F   0  0  0  0  0  0  0  0  0  0  0  0
  190.2050  174.8330  135.2100 F   0  0  0  0  0  0  0  0  0  0  0  0
  1 11  1  0  0  0  0
  2  3  1  6  0  0  0
  2  7  1  0  0  0  0
  3  9  1  0  0  0  0
  5  4  2  0  0  0  0
  5 16  1  0  0  0  0
  7 17  2  0  0  0  0
  8  1  2  0  0  0  0
  9  6  1  0  0  0  0
 10 14  2  0  0  0  0
 10 15  1  0  0  0  0
 12 22  1  0  0  0  0
 13  6  2  0  0  0  0
 14 19  1  0  0  0  0
 15 21  1  6  0  0  0
 15  2  1  0  0  0  0
 16 10  1  0  0  0  0
 17  1  1  0  0  0  0
 18 13  1  0  0  0  0
 19 20  2  0  0  0  0
 19  7  1  0  0  0  0
 20  8  1  0  0  0  0
 21 12  1  0  0  0  0
 22 23  1  0  0  0  0
 22  3  2  0  0  0  0
 23 18  2  0  0  0  0
 25 24  1  1  0  0  0
 25  5  1  0  0  0  0
 27 26  1  6  0  0  0
 27 25  1  0  0  0  0
 28 27  1  0  0  0  0
 29 28  1  0  0  0  0
 30 28  1  0  0  0  0
 31 28  1  0  0  0  0
M  END
>  <MODEL>
6

>  <REMARK>
 VINA RESULT:      -7.5      2.695      4.859
  Name = 
  3 active torsions:
  status: ('A' for Active; 'I' for Inactive)
    1  A    between atoms: C_1  and  C_19
    2  A    between atoms: C_9  and  C_22
    3  A    between atoms: C_19  and  C_22
                            x       y       z     vdW  Elec       q    Type
                         _______ _______ _______ _____ _____    ______ ____

>  <TORSDO>
F 3

$$$$
=
 OpenBabel11052412573D

 31 34  0  0  1  0  0  0  0  0999 V2000
  183.2950  178.9610  138.5780 C   0  0  0  0  0  0  0  0  0  0  0  0
  186.9060  178.0520  137.7820 C   0  0  1  0  0  3  0  0  0  0  0  0
  186.9500  176.5720  137.4060 C   0  0  0  0  0  0  0  0  0  0  0  0
  188.3420  177.7610  142.9100 O   0  0  0  0  0  0  0  0  0  0  0  0
  189.3760  177.8130  142.1920 C   0  0  0  0  0  0  0  0  0  0  0  0
  185.6630  175.5390  135.5560 C   0  0  0  0  0  3  0  0  0  0  0  0
  185.6590  178.4270  138.5390 C   0  0  0  0  0  0  0  0  0  0  0  0
  183.3220  178.9820  139.9750 C   0  0  0  0  0  3  0  0  0  0  0  0
  185.6660  175.9100  137.0000 C   0  0  0  0  0  2  0  0  0  0  0  0
  188.0760  178.2520  140.0360 C   0  0  0  0  0  0  0  0  0  0  0  0
  181.7980  179.2730  137.7270 Cl  0  0  0  0  0  0  0  0  0  0  0  0
  189.3860  176.4530  137.9370 C   0  0  0  0  0  2  0  0  0  0  0  0
  186.4910  174.6220  135.0620 C   0  0  0  0  0  3  0  0  0  0  0  0
  186.9220  178.2720  140.6410 N   0  0  0  0  0  0  0  0  0  0  0  0
  188.1570  178.5370  138.5450 C   0  0  1  0  0  3  0  0  0  0  0  0
  189.2860  178.0830  140.7870 N   0  0  0  0  0  2  0  0  0  0  0  0
  184.4610  178.6810  137.8590 C   0  0  0  0  0  3  0  0  0  0  0  0
  187.5420  173.9510  135.8470 C   0  0  0  0  0  3  0  0  0  0  0  0
  185.6870  178.4680  139.9430 C   0  0  0  0  0  0  0  0  0  0  0  0
  184.5170  178.7380  140.6580 C   0  0  0  0  0  3  0  0  0  0  0  0
  189.4170  177.9740  137.8970 C   0  0  0  0  0  2  0  0  0  0  0  0
  188.1210  175.8870  137.3540 C   0  0  0  0  0  0  0  0  0  0  0  0
  188.2400  174.5010  136.8490 C   0  0  0  0  0  3  0  0  0  0  0  0
  191.6110  177.0810  141.8680 F   0  0  0  0  0  0  0  0  0  0  0  0
  190.7130  177.5470  142.8120 C   0  0  2  0  0  3  0  0  0  0  0  0
  191.7480  175.5450  143.9420 C   0  0  0  0  0  1  0  0  0  0  0  0
  190.6570  176.6030  144.0240 C   0  0  1  0  0  3  0  0  0  0  0  0
  190.6360  177.2940  145.3950 C   0  0  0  0  0  0  0  0  0  0  0  0
  189.6790  176.7250  146.2190 F   0  0  0  0  0  0  0  0  0  0  0  0
  191.8740  177.1930  146.0030 F   0  0  0  0  0  0  0  0  0  0  0  0
  190.3380  178.6330  145.2260 F   0  0  0  0  0  0  0  0  0  0  0  0
  1  8  1  0  0  0  0
  2  3  1  1  0  0  0
  2  7  1  0  0  0  0
  2 15  1  0  0  0  0
  5 25  1  0  0  0  0
  5  4  2  0  0  0  0
  6  9  1  0  0  0  0
  7 19  2  0  0  0  0
  8 20  2  0  0  0  0
  9  3  1  0  0  0  0
 10 14  2  0  0  0  0
 10 16  1  0  0  0  0
 11  1  1  0  0  0  0
 13  6  2  0  0  0  0
 13 18  1  0  0  0  0
 15 21  1  6  0  0  0
 15 10  1  0  0  0  0
 16  5  1  0  0  0  0
 17  7  1  0  0  0  0
 17  1  2  0  0  0  0
 18 23  2  0  0  0  0
 19 14  1  0  0  0  0
 19 20  1  0  0  0  0
 21 12  1  0  0  0  0
 22  3  2  0  0  0  0
 22 12  1  0  0  0  0
 23 22  1  0  0  0  0
 25 24  1  6  0  0  0
 25 27  1  0  0  0  0
 27 26  1  1  0  0  0
 27 28  1  0  0  0  0
 28 30  1  0  0  0  0
 28 29  1  0  0  0  0
 31 28  1  0  0  0  0
M  END
>  <MODEL>
7

>  <REMARK>
 VINA RESULT:      -7.4      3.965      7.033
  Name = 
  3 active torsions:
  status: ('A' for Active; 'I' for Inactive)
    1  A    between atoms: C_1  and  C_19
    2  A    between atoms: C_9  and  C_22
    3  A    between atoms: C_19  and  C_22
                            x       y       z     vdW  Elec       q    Type
                         _______ _______ _______ _____ _____    ______ ____

>  <TORSDO>
F 3

$$$$
=
 OpenBabel11052412573D

 31 34  0  0  1  0  0  0  0  0999 V2000
  188.8640  177.9150  139.0670 C   0  0  0  0  0  0  0  0  0  0  0  0
  186.7810  179.0340  142.0520 C   0  0  1  0  0  3  0  0  0  0  0  0
  186.9590  178.0040  143.1660 C   0  0  0  0  0  0  0  0  0  0  0  0
  182.1850  177.3450  139.9380 O   0  0  0  0  0  0  0  0  0  0  0  0
  181.9400  178.1160  140.9040 C   0  0  0  0  0  0  0  0  0  0  0  0
  189.1330  177.3640  144.1730 C   0  0  0  0  0  3  0  0  0  0  0  0
  187.1690  178.5030  140.6970 C   0  0  0  0  0  0  0  0  0  0  0  0
  187.8780  177.3800  138.2320 C   0  0  0  0  0  3  0  0  0  0  0  0
  188.1430  177.0860  143.0930 C   0  0  0  0  0  2  0  0  0  0  0  0
  184.3850  178.7870  141.2260 C   0  0  0  0  0  0  0  0  0  0  0  0
  190.5420  177.8730  138.5750 Cl  0  0  0  0  0  0  0  0  0  0  0  0
  184.8320  178.7310  144.2510 C   0  0  0  0  0  2  0  0  0  0  0  0
  188.8470  177.1730  145.4580 C   0  0  0  0  0  3  0  0  0  0  0  0
  184.7980  178.0690  140.2190 N   0  0  0  0  0  0  0  0  0  0  0  0
  185.3680  179.6530  141.9960 C   0  0  1  0  0  3  0  0  0  0  0  0
  182.9870  178.8620  141.5370 N   0  0  0  0  0  2  0  0  0  0  0  0
  188.5110  178.4730  140.2990 C   0  0  0  0  0  3  0  0  0  0  0  0
  187.5220  176.7600  145.9560 C   0  0  0  0  0  3  0  0  0  0  0  0
  186.1780  177.9830  139.8480 C   0  0  0  0  0  0  0  0  0  0  0  0
  186.5350  177.4160  138.6200 C   0  0  0  0  0  3  0  0  0  0  0  0
  184.8900  179.9930  143.4030 C   0  0  0  0  0  2  0  0  0  0  0  0
  186.1280  177.9690  144.2390 C   0  0  0  0  0  0  0  0  0  0  0  0
  186.3450  177.0980  145.4170 C   0  0  0  0  0  3  0  0  0  0  0  0
  179.6510  178.4740  140.3880 F   0  0  0  0  0  0  0  0  0  0  0  0
  180.5380  178.2200  141.4190 C   0  0  2  0  0  3  0  0  0  0  0  0
  179.1800  180.1610  142.2830 C   0  0  0  0  0  1  0  0  0  0  0  0
  180.3670  179.2470  142.5500 C   0  0  1  0  0  3  0  0  0  0  0  0
  180.3260  178.6610  143.9690 C   0  0  0  0  0  0  0  0  0  0  0  0
  181.5640  178.7660  144.5810 F   0  0  0  0  0  0  0  0  0  0  0  0
  179.3840  179.3230  144.7350 F   0  0  0  0  0  0  0  0  0  0  0  0
  179.9750  177.3260  143.9010 F   0  0  0  0  0  0  0  0  0  0  0  0
  1 17  1  0  0  0  0
  2  7  1  6  0  0  0
  2  3  1  0  0  0  0
  3 22  2  0  0  0  0
  4  5  2  0  0  0  0
  5 25  1  0  0  0  0
  5 16  1  0  0  0  0
  6 13  2  0  0  0  0
  8 20  1  0  0  0  0
  8  1  2  0  0  0  0
  9  3  1  0  0  0  0
  9  6  1  0  0  0  0
 10 16  1  0  0  0  0
 10 15  1  0  0  0  0
 11  1  1  0  0  0  0
 13 18  1  0  0  0  0
 14 10  2  0  0  0  0
 15  2  1  0  0  0  0
 15 21  1  1  0  0  0
 17  7  2  0  0  0  0
 19 14  1  0  0  0  0
 19  7  1  0  0  0  0
 20 19  2  0  0  0  0
 21 12  1  0  0  0  0
 22 12  1  0  0  0  0
 22 23  1  0  0  0  0
 23 18  2  0  0  0  0
 25 24  1  6  0  0  0
 25 27  1  0  0  0  0
 27 26  1  6  0  0  0
 27 28  1  0  0  0  0
 28 29  1  0  0  0  0
 28 30  1  0  0  0  0
 31 28  1  0  0  0  0
M  END
>  <MODEL>
8

>  <REMARK>
 VINA RESULT:      -7.2      5.576      8.189
  Name = 
  3 active torsions:
  status: ('A' for Active; 'I' for Inactive)
    1  A    between atoms: C_1  and  C_19
    2  A    between atoms: C_9  and  C_22
    3  A    between atoms: C_19  and  C_22
                            x       y       z     vdW  Elec       q    Type
                         _______ _______ _______ _____ _____    ______ ____

>  <TORSDO>
F 3

$$$$
=
 OpenBabel11052412573D

 31 34  0  0  1  0  0  0  0  0999 V2000
  180.7340  178.5610  139.5640 C   0  0  0  0  0  0  0  0  0  0  0  0
  184.1440  178.0330  137.9550 C   0  0  1  0  0  3  0  0  0  0  0  0
  184.2860  176.5480  137.6220 C   0  0  0  0  0  0  0  0  0  0  0  0
  186.7630  178.2050  142.5980 O   0  0  0  0  0  0  0  0  0  0  0  0
  187.5860  178.3350  141.6520 C   0  0  0  0  0  0  0  0  0  0  0  0
  182.7420  175.2680  136.1630 C   0  0  0  0  0  3  0  0  0  0  0  0
  183.0710  178.3030  138.9770 C   0  0  0  0  0  0  0  0  0  0  0  0
  181.0830  178.6650  140.9140 C   0  0  0  0  0  3  0  0  0  0  0  0
  183.0360  175.7200  137.5530 C   0  0  0  0  0  2  0  0  0  0  0  0
  185.7730  178.4960  139.8570 C   0  0  0  0  0  0  0  0  0  0  0  0
  179.0530  178.6480  139.0870 Cl  0  0  0  0  0  0  0  0  0  0  0  0
  186.7730  176.7430  137.5580 C   0  0  0  0  0  2  0  0  0  0  0  0
  183.5410  174.4270  135.5110 C   0  0  0  0  0  3  0  0  0  0  0  0
  184.7990  178.4170  140.7200 N   0  0  0  0  0  0  0  0  0  0  0  0
  185.4670  178.7030  138.3830 C   0  0  1  0  0  3  0  0  0  0  0  0
  187.1360  178.5110  140.3020 N   0  0  0  0  0  2  0  0  0  0  0  0
  181.7260  178.3770  138.5960 C   0  0  0  0  0  3  0  0  0  0  0  0
  184.8230  173.9290  136.0410 C   0  0  0  0  0  3  0  0  0  0  0  0
  183.4210  178.4280  140.3310 C   0  0  0  0  0  0  0  0  0  0  0  0
  182.4260  178.6010  141.2980 C   0  0  0  0  0  3  0  0  0  0  0  0
  186.6010  178.2530  137.4680 C   0  0  0  0  0  2  0  0  0  0  0  0
  185.4890  176.0020  137.3100 C   0  0  0  0  0  0  0  0  0  0  0  0
  185.6600  174.6120  136.8310 C   0  0  0  0  0  3  0  0  0  0  0  0
  189.7490  177.7830  140.8460 F   0  0  0  0  0  0  0  0  0  0  0  0
  189.0530  178.2620  141.9420 C   0  0  2  0  0  3  0  0  0  0  0  0
  189.9410  176.0780  142.8350 C   0  0  0  0  0  1  0  0  0  0  0  0
  189.3950  177.4500  143.2020 C   0  0  1  0  0  3  0  0  0  0  0  0
  190.2950  178.1660  144.2200 C   0  0  0  0  0  0  0  0  0  0  0  0
  191.2570  177.3040  144.7200 F   0  0  0  0  0  0  0  0  0  0  0  0
  190.9200  179.2500  143.6320 F   0  0  0  0  0  0  0  0  0  0  0  0
  189.5210  178.6240  145.2700 F   0  0  0  0  0  0  0  0  0  0  0  0
  1  8  1  0  0  0  0
  2  3  1  1  0  0  0
  2 15  1  0  0  0  0
  2  7  1  0  0  0  0
  5 25  1  0  0  0  0
  5  4  2  0  0  0  0
  6  9  1  0  0  0  0
  7 19  2  0  0  0  0
  8 20  2  0  0  0  0
  9  3  1  0  0  0  0
 10 16  1  0  0  0  0
 10 14  2  0  0  0  0
 11  1  1  0  0  0  0
 13 18  1  0  0  0  0
 13  6  2  0  0  0  0
 15 21  1  6  0  0  0
 15 10  1  0  0  0  0
 16  5  1  0  0  0  0
 17  7  1  0  0  0  0
 17  1  2  0  0  0  0
 18 23  2  0  0  0  0
 19 14  1  0  0  0  0
 19 20  1  0  0  0  0
 21 12  1  0  0  0  0
 22 12  1  0  0  0  0
 22  3  2  0  0  0  0
 23 22  1  0  0  0  0
 25 24  1  6  0  0  0
 25 27  1  0  0  0  0
 27 26  1  6  0  0  0
 27 28  1  0  0  0  0
 28 29  1  0  0  0  0
 28 31  1  0  0  0  0
 30 28  1  0  0  0  0
M  END
>  <MODEL>
9

>  <REMARK>
 VINA RESULT:      -7.0      4.853      7.427
  Name = 
  3 active torsions:
  status: ('A' for Active; 'I' for Inactive)
    1  A    between atoms: C_1  and  C_19
    2  A    between atoms: C_9  and  C_22
    3  A    between atoms: C_19  and  C_22
                            x       y       z     vdW  Elec       q    Type
                         _______ _______ _______ _____ _____    ______ ____

>  <TORSDO>
F 3

$$$$
