=
 OpenBabel11052414293D

 32 36  0  0  1  0  0  0  0  0999 V2000
  183.6010  177.2790  135.9810 N   0  0  0  0  0  0  0  0  0  0  0  0
  183.2360  176.9520  138.3850 C   0  0  0  0  0  0  0  0  0  0  0  0
  182.9440  177.8360  134.7870 C   0  0  0  0  0  2  0  0  0  0  0  0
  182.8080  176.8420  137.1090 C   0  0  0  0  0  0  0  0  0  0  0  0
  182.3880  176.4970  139.5520 C   0  0  1  0  0  3  0  0  0  0  0  0
  183.6500  179.3750  139.4360 C   0  0  1  0  0  3  0  0  0  0  0  0
  182.2060  179.0580  139.8950 C   0  0  2  0  0  3  0  0  0  0  0  0
  181.4380  176.3670  136.8320 C   0  0  0  0  0  0  0  0  0  0  0  0
  182.0840  177.6570  140.5190 C   0  0  0  0  0  2  0  0  0  0  0  0
  180.6730  175.8730  137.7980 C   0  0  0  0  0  3  0  0  0  0  0  0
  180.9100  176.5000  135.4450 C   0  0  0  0  0  2  0  0  0  0  0  0
  185.7060  177.4290  134.9720 O   0  0  0  0  0  0  0  0  0  0  0  0
  184.9690  176.8550  135.8220 C   0  0  0  0  0  0  0  0  0  0  0  0
  184.6540  177.9600  138.8210 S   0  0  0  0  0  0  0  0  0  0  0  0
  181.1570  175.8090  139.1440 N   0  0  0  0  0  0  0  0  0  0  0  0
  181.4120  177.8170  134.8640 C   0  0  0  0  0  2  0  0  0  0  0  0
  183.6920  180.4260  138.5360 F   0  0  0  0  0  0  0  0  0  0  0  0
  181.1700  179.2790  138.7940 C   0  0  0  0  0  3  0  0  0  0  0  0
  179.7710  179.1730  139.3700 C   0  0  0  0  0  2  0  0  0  0  0  0
  180.3720  180.5340  139.0940 C   0  0  0  0  0  2  0  0  0  0  0  0
  180.3640  175.1180  140.1480 C   0  0  0  0  0  2  0  0  0  0  0  0
  178.9310  175.6160  140.1190 C   0  0  0  0  0  1  0  0  0  0  0  0
  185.4860  175.6570  136.5740 C   0  0  2  0  0  3  0  0  0  0  0  0
  187.5210  176.3450  137.6100 O   0  0  0  0  0  0  0  0  0  0  0  0
  186.9790  175.6510  136.7130 C   0  0  0  0  0  0  0  0  0  0  0  0
  187.7890  174.8780  135.8310 N   0  0  0  0  0  1  0  0  0  0  0  0
  184.9660  174.3720  135.9450 C   0  0  0  0  0  2  0  0  0  0  0  0
  184.4660  173.7780  138.3300 F   0  0  0  0  0  0  0  0  0  0  0  0
  184.1890  172.0350  136.6630 C   0  0  0  0  0  2  0  0  0  0  0  0
  184.2620  173.5080  136.9890 C   0  0  2  0  0  0  0  0  0  0  0  0
  182.4710  173.1090  135.2270 C   0  0  0  0  0  1  0  0  0  0  0  0
  182.9150  172.8740  136.6630 C   0  0  1  0  0  3  0  0  0  0  0  0
  1  4  1  0  0  0  0
  2 14  1  0  0  0  0
  2  5  1  0  0  0  0
  3 16  1  0  0  0  0
  3  1  1  0  0  0  0
  4  2  2  0  0  0  0
  5  9  1  6  0  0  0
  6 17  1  6  0  0  0
  6  7  1  0  0  0  0
  7 18  1  6  0  0  0
  7  9  1  0  0  0  0
  8  4  1  0  0  0  0
  8 10  2  0  0  0  0
 10 15  1  0  0  0  0
 11  8  1  0  0  0  0
 12 13  2  0  0  0  0
 13  1  1  0  0  0  0
 13 23  1  0  0  0  0
 14  6  1  0  0  0  0
 15  5  1  0  0  0  0
 15 21  1  0  0  0  0
 16 11  1  0  0  0  0
 18 20  1  0  0  0  0
 18 19  1  0  0  0  0
 20 19  1  0  0  0  0
 22 21  1  0  0  0  0
 23 27  1  6  0  0  0
 23 25  1  0  0  0  0
 25 24  2  0  0  0  0
 26 25  1  0  0  0  0
 27 30  1  0  0  0  0
 29 32  1  0  0  0  0
 29 30  1  0  0  0  0
 30 28  1  1  0  0  0
 32 31  1  6  0  0  0
 32 30  1  0  0  0  0
M  END
>  <MODEL>
1

>  <REMARK>
 VINA RESULT:      -4.0      0.000      0.000
  Name = 
  6 active torsions:
  status: ('A' for Active; 'I' for Inactive)
    1  A    between atoms: C_9  and  C_12
    2  A    between atoms: C_13  and  N_29
    3  A    between atoms: C_15  and  C_20
    4  A    between atoms: C_16  and  C_20
    5  A    between atoms: C_16  and  C_22
    6  A    between atoms: C_16  and  C_27
                            x       y       z     vdW  Elec       q    Type
                         _______ _______ _______ _____ _____    ______ ____

>  <TORSDO>
F 6

$$$$
=
 OpenBabel11052414293D

 32 36  0  0  1  0  0  0  0  0999 V2000
  182.3060  178.0740  137.4280 N   0  0  0  0  0  0  0  0  0  0  0  0
  182.8150  175.6890  137.6890 C   0  0  0  0  0  0  0  0  0  0  0  0
  181.5140  178.9930  136.5920 C   0  0  0  0  0  2  0  0  0  0  0  0
  182.7090  176.7850  136.9090 C   0  0  0  0  0  0  0  0  0  0  0  0
  183.2300  174.3480  137.1260 C   0  0  1  0  0  3  0  0  0  0  0  0
  180.6330  174.6880  138.8680 C   0  0  1  0  0  3  0  0  0  0  0  0
  180.7300  173.8410  137.5760 C   0  0  2  0  0  3  0  0  0  0  0  0
  182.8940  176.6700  135.4490 C   0  0  0  0  0  0  0  0  0  0  0  0
  182.1440  173.2780  137.3480 C   0  0  0  0  0  2  0  0  0  0  0  0
  183.3410  175.5470  134.8990 C   0  0  0  0  0  3  0  0  0  0  0  0
  182.5200  177.8310  134.5940 C   0  0  0  0  0  2  0  0  0  0  0  0
  182.4340  179.6500  139.1520 O   0  0  0  0  0  0  0  0  0  0  0  0
  182.9520  178.6500  138.5800 C   0  0  0  0  0  0  0  0  0  0  0  0
  182.1340  175.6410  139.3470 S   0  0  0  0  0  0  0  0  0  0  0  0
  183.6350  174.4090  135.7160 N   0  0  0  0  0  0  0  0  0  0  0  0
  181.2620  178.4690  135.1730 C   0  0  0  0  0  2  0  0  0  0  0  0
  179.5180  175.5080  138.8710 F   0  0  0  0  0  0  0  0  0  0  0  0
  180.2080  174.5750  136.3420 C   0  0  0  0  0  3  0  0  0  0  0  0
  180.2340  173.6510  135.1400 C   0  0  0  0  0  2  0  0  0  0  0  0
  178.9310  173.9140  135.8610 C   0  0  0  0  0  2  0  0  0  0  0  0
  184.2740  173.2500  135.1110 C   0  0  0  0  0  2  0  0  0  0  0  0
  185.2790  172.6430  136.0710 C   0  0  0  0  0  1  0  0  0  0  0  0
  184.2970  178.1440  139.0290 C   0  0  2  0  0  3  0  0  0  0  0  0
  183.9720  177.9120  141.3810 O   0  0  0  0  0  0  0  0  0  0  0  0
  184.6050  178.4830  140.4570 C   0  0  0  0  0  0  0  0  0  0  0  0
  185.5960  179.4560  140.7760 N   0  0  0  0  0  1  0  0  0  0  0  0
  185.3870  178.6220  138.0810 C   0  0  0  0  0  2  0  0  0  0  0  0
  185.8760  176.2120  137.5900 F   0  0  0  0  0  0  0  0  0  0  0  0
  187.6730  177.5480  138.5260 C   0  0  0  0  0  2  0  0  0  0  0  0
  186.3660  177.4920  137.7710 C   0  0  2  0  0  0  0  0  0  0  0  0
  187.8670  179.2760  136.7540 C   0  0  0  0  0  1  0  0  0  0  0  0
  187.6570  177.7940  137.0210 C   0  0  1  0  0  3  0  0  0  0  0  0
  1 13  1  0  0  0  0
  2 14  1  0  0  0  0
  3  1  1  0  0  0  0
  4  1  1  0  0  0  0
  4  2  2  0  0  0  0
  5  9  1  6  0  0  0
  5  2  1  0  0  0  0
  6 17  1  6  0  0  0
  6 14  1  0  0  0  0
  7 18  1  6  0  0  0
  7  6  1  0  0  0  0
  8  4  1  0  0  0  0
  9  7  1  0  0  0  0
 10  8  2  0  0  0  0
 10 15  1  0  0  0  0
 11 16  1  0  0  0  0
 11  8  1  0  0  0  0
 13 23  1  0  0  0  0
 13 12  2  0  0  0  0
 15  5  1  0  0  0  0
 16  3  1  0  0  0  0
 19 20  1  0  0  0  0
 19 18  1  0  0  0  0
 20 18  1  0  0  0  0
 21 15  1  0  0  0  0
 21 22  1  0  0  0  0
 23 27  1  6  0  0  0
 23 25  1  0  0  0  0
 25 26  1  0  0  0  0
 25 24  2  0  0  0  0
 30 28  1  6  0  0  0
 30 27  1  0  0  0  0
 30 29  1  0  0  0  0
 32 31  1  1  0  0  0
 32 30  1  0  0  0  0
 32 29  1  0  0  0  0
M  END
>  <MODEL>
2

>  <REMARK>
 VINA RESULT:      -3.6      2.770      5.141
  Name = 
  6 active torsions:
  status: ('A' for Active; 'I' for Inactive)
    1  A    between atoms: C_9  and  C_12
    2  A    between atoms: C_13  and  N_29
    3  A    between atoms: C_15  and  C_20
    4  A    between atoms: C_16  and  C_20
    5  A    between atoms: C_16  and  C_22
    6  A    between atoms: C_16  and  C_27
                            x       y       z     vdW  Elec       q    Type
                         _______ _______ _______ _____ _____    ______ ____

>  <TORSDO>
F 6

$$$$
=
 OpenBabel11052414293D

 32 36  0  0  1  0  0  0  0  0999 V2000
  186.9470  178.2460  137.0150 N   0  0  0  0  0  0  0  0  0  0  0  0
  185.2180  177.0460  138.2750 C   0  0  0  0  0  0  0  0  0  0  0  0
  187.1640  178.9230  135.7250 C   0  0  0  0  0  2  0  0  0  0  0  0
  185.9240  177.2310  137.1390 C   0  0  0  0  0  0  0  0  0  0  0  0
  184.1460  175.9840  138.3830 C   0  0  1  0  0  3  0  0  0  0  0  0
  183.6020  178.9840  139.1590 C   0  0  1  0  0  3  0  0  0  0  0  0
  182.6320  178.0860  138.3510 C   0  0  2  0  0  3  0  0  0  0  0  0
  185.5810  176.4610  135.9270 C   0  0  0  0  0  0  0  0  0  0  0  0
  182.7720  176.5980  138.7140 C   0  0  0  0  0  2  0  0  0  0  0  0
  184.7120  175.4580  135.9730 C   0  0  0  0  0  3  0  0  0  0  0  0
  186.1970  176.8660  134.6330 C   0  0  0  0  0  2  0  0  0  0  0  0
  188.7410  179.3880  137.9890 O   0  0  0  0  0  0  0  0  0  0  0  0
  188.0050  178.3610  137.9860 C   0  0  0  0  0  0  0  0  0  0  0  0
  185.2320  178.2530  139.6020 S   0  0  0  0  0  0  0  0  0  0  0  0
  184.0690  175.1130  137.2040 N   0  0  0  0  0  0  0  0  0  0  0  0
  186.2760  178.3890  134.5940 C   0  0  0  0  0  2  0  0  0  0  0  0
  183.7710  180.2270  138.5740 F   0  0  0  0  0  0  0  0  0  0  0  0
  182.7300  178.3130  136.8430 C   0  0  0  0  0  3  0  0  0  0  0  0
  181.6370  177.5390  136.1320 C   0  0  0  0  0  2  0  0  0  0  0  0
  181.4830  179.0270  136.3570 C   0  0  0  0  0  2  0  0  0  0  0  0
  183.2480  173.9130  137.2610 C   0  0  0  0  0  2  0  0  0  0  0  0
  184.1240  172.6750  137.2270 C   0  0  0  0  0  1  0  0  0  0  0  0
  188.3140  177.2160  138.9130 C   0  0  2  0  0  3  0  0  0  0  0  0
  188.2920  178.8240  140.6760 O   0  0  0  0  0  0  0  0  0  0  0  0
  188.5980  177.6580  140.3180 C   0  0  0  0  0  0  0  0  0  0  0  0
  189.2260  176.7760  141.2450 N   0  0  0  0  0  1  0  0  0  0  0  0
  189.4380  176.3620  138.3450 C   0  0  0  0  0  2  0  0  0  0  0  0
  187.6820  174.7230  137.6230 F   0  0  0  0  0  0  0  0  0  0  0  0
  189.9200  174.4270  136.7330 C   0  0  0  0  0  2  0  0  0  0  0  0
  188.8890  175.3400  137.3520 C   0  0  2  0  0  0  0  0  0  0  0  0
  190.1910  176.6030  135.5680 C   0  0  0  0  0  1  0  0  0  0  0  0
  189.2200  175.4720  135.8710 C   0  0  1  0  0  3  0  0  0  0  0  0
  1  4  1  0  0  0  0
  1 13  1  0  0  0  0
  2  5  1  0  0  0  0
  2 14  1  0  0  0  0
  3  1  1  0  0  0  0
  4  2  2  0  0  0  0
  5  9  1  6  0  0  0
  6 17  1  6  0  0  0
  6 14  1  0  0  0  0
  7 18  1  6  0  0  0
  7  9  1  0  0  0  0
  7  6  1  0  0  0  0
  8 10  2  0  0  0  0
  8  4  1  0  0  0  0
 10 15  1  0  0  0  0
 11  8  1  0  0  0  0
 13 12  2  0  0  0  0
 13 23  1  0  0  0  0
 15 21  1  0  0  0  0
 15  5  1  0  0  0  0
 16 11  1  0  0  0  0
 16  3  1  0  0  0  0
 19 20  1  0  0  0  0
 19 18  1  0  0  0  0
 20 18  1  0  0  0  0
 22 21  1  0  0  0  0
 23 27  1  6  0  0  0
 23 25  1  0  0  0  0
 25 24  2  0  0  0  0
 25 26  1  0  0  0  0
 29 30  1  0  0  0  0
 30 28  1  1  0  0  0
 30 27  1  0  0  0  0
 32 31  1  1  0  0  0
 32 29  1  0  0  0  0
 32 30  1  0  0  0  0
M  END
>  <MODEL>
3

>  <REMARK>
 VINA RESULT:      -3.2      2.590      4.368
  Name = 
  6 active torsions:
  status: ('A' for Active; 'I' for Inactive)
    1  A    between atoms: C_9  and  C_12
    2  A    between atoms: C_13  and  N_29
    3  A    between atoms: C_15  and  C_20
    4  A    between atoms: C_16  and  C_20
    5  A    between atoms: C_16  and  C_22
    6  A    between atoms: C_16  and  C_27
                            x       y       z     vdW  Elec       q    Type
                         _______ _______ _______ _____ _____    ______ ____

>  <TORSDO>
F 6

$$$$
=
 OpenBabel11052414293D

 32 36  0  0  1  0  0  0  0  0999 V2000
  180.2990  178.1310  138.5170 N   0  0  0  0  0  0  0  0  0  0  0  0
  181.8240  176.2130  138.6300 C   0  0  0  0  0  0  0  0  0  0  0  0
  179.5320  178.9300  137.5460 C   0  0  0  0  0  2  0  0  0  0  0  0
  181.4720  177.3980  138.0890 C   0  0  0  0  0  0  0  0  0  0  0  0
  183.0500  175.4580  138.1650 C   0  0  1  0  0  3  0  0  0  0  0  0
  180.2210  174.0940  138.3340 C   0  0  1  0  0  3  0  0  0  0  0  0
  181.2230  173.9170  137.1670 C   0  0  2  0  0  3  0  0  0  0  0  0
  182.2260  177.9360  136.9410 C   0  0  0  0  0  0  0  0  0  0  0  0
  182.6850  174.0630  137.6230 C   0  0  0  0  0  2  0  0  0  0  0  0
  183.3580  177.3720  136.5360 C   0  0  0  0  0  3  0  0  0  0  0  0
  181.6620  179.1040  136.2070 C   0  0  0  0  0  2  0  0  0  0  0  0
  178.9310  178.8370  140.2770 O   0  0  0  0  0  0  0  0  0  0  0  0
  180.0610  178.4120  139.9100 C   0  0  0  0  0  0  0  0  0  0  0  0
  180.6990  175.2740  139.6640 S   0  0  0  0  0  0  0  0  0  0  0  0
  183.8630  176.2080  137.1990 N   0  0  0  0  0  0  0  0  0  0  0  0
  180.1470  178.9440  136.1400 C   0  0  0  0  0  2  0  0  0  0  0  0
  178.9390  174.3630  137.8860 F   0  0  0  0  0  0  0  0  0  0  0  0
  180.9090  174.8170  135.9730 C   0  0  0  0  0  3  0  0  0  0  0  0
  181.7260  174.3850  134.7710 C   0  0  0  0  0  2  0  0  0  0  0  0
  180.2690  173.9930  134.8720 C   0  0  0  0  0  2  0  0  0  0  0  0
  185.1810  175.7070  136.8420 C   0  0  0  0  0  2  0  0  0  0  0  0
  185.9520  176.7620  136.0700 C   0  0  0  0  0  1  0  0  0  0  0  0
  181.1860  178.3180  140.9060 C   0  0  2  0  0  3  0  0  0  0  0  0
  181.4000  179.4080  143.0170 O   0  0  0  0  0  0  0  0  0  0  0  0
  180.7480  178.5960  142.3130 C   0  0  0  0  0  0  0  0  0  0  0  0
  179.6100  177.9380  142.8650 N   0  0  0  0  0  1  0  0  0  0  0  0
  182.3450  179.2080  140.4830 C   0  0  0  0  0  2  0  0  0  0  0  0
  183.6600  177.1420  141.0230 F   0  0  0  0  0  0  0  0  0  0  0  0
  184.8250  179.2680  141.1370 C   0  0  0  0  0  2  0  0  0  0  0  0
  183.6700  178.4580  140.5980 C   0  0  2  0  0  0  0  0  0  0  0  0
  184.5370  180.0210  138.7890 C   0  0  0  0  0  1  0  0  0  0  0  0
  184.8290  178.8230  139.6780 C   0  0  1  0  0  3  0  0  0  0  0  0
  1 13  1  0  0  0  0
  2 14  1  0  0  0  0
  3  1  1  0  0  0  0
  4  1  1  0  0  0  0
  4  2  2  0  0  0  0
  5  9  1  6  0  0  0
  5  2  1  0  0  0  0
  6 17  1  6  0  0  0
  6 14  1  0  0  0  0
  7 18  1  6  0  0  0
  7  9  1  0  0  0  0
  7  6  1  0  0  0  0
  8  4  1  0  0  0  0
 10  8  2  0  0  0  0
 10 15  1  0  0  0  0
 11  8  1  0  0  0  0
 13 12  2  0  0  0  0
 13 23  1  0  0  0  0
 15  5  1  0  0  0  0
 16 11  1  0  0  0  0
 16  3  1  0  0  0  0
 19 20  1  0  0  0  0
 19 18  1  0  0  0  0
 20 18  1  0  0  0  0
 21 15  1  0  0  0  0
 22 21  1  0  0  0  0
 23 27  1  6  0  0  0
 23 25  1  0  0  0  0
 25 26  1  0  0  0  0
 25 24  2  0  0  0  0
 27 30  1  0  0  0  0
 30 28  1  1  0  0  0
 30 29  1  0  0  0  0
 32 31  1  6  0  0  0
 32 30  1  0  0  0  0
 32 29  1  0  0  0  0
M  END
>  <MODEL>
4

>  <REMARK>
 VINA RESULT:      -3.1      3.138      6.230
  Name = 
  6 active torsions:
  status: ('A' for Active; 'I' for Inactive)
    1  A    between atoms: C_9  and  C_12
    2  A    between atoms: C_13  and  N_29
    3  A    between atoms: C_15  and  C_20
    4  A    between atoms: C_16  and  C_20
    5  A    between atoms: C_16  and  C_22
    6  A    between atoms: C_16  and  C_27
                            x       y       z     vdW  Elec       q    Type
                         _______ _______ _______ _____ _____    ______ ____

>  <TORSDO>
F 6

$$$$
=
 OpenBabel11052414293D

 32 36  0  0  1  0  0  0  0  0999 V2000
  181.7980  176.6660  139.6250 N   0  0  0  0  0  0  0  0  0  0  0  0
  181.9300  176.7500  137.1760 C   0  0  0  0  0  0  0  0  0  0  0  0
  181.0310  176.0310  140.7100 C   0  0  0  0  0  2  0  0  0  0  0  0
  181.2060  176.8230  138.3130 C   0  0  0  0  0  0  0  0  0  0  0  0
  181.2920  176.9090  135.8140 C   0  0  1  0  0  3  0  0  0  0  0  0
  183.1260  174.4520  136.5150 C   0  0  1  0  0  3  0  0  0  0  0  0
  181.7930  174.3690  135.7310 C   0  0  2  0  0  3  0  0  0  0  0  0
  179.7380  176.9530  138.2430 C   0  0  0  0  0  0  0  0  0  0  0  0
  181.4970  175.6560  134.9420 C   0  0  0  0  0  2  0  0  0  0  0  0
  179.1220  177.1830  137.0890 C   0  0  0  0  0  3  0  0  0  0  0  0
  178.9500  176.7720  139.4950 C   0  0  0  0  0  2  0  0  0  0  0  0
  183.5900  177.1080  141.0610 O   0  0  0  0  0  0  0  0  0  0  0  0
  182.9560  177.4280  140.0170 C   0  0  0  0  0  0  0  0  0  0  0  0
  183.6050  176.1070  137.1630 S   0  0  0  0  0  0  0  0  0  0  0  0
  179.8750  177.2880  135.8760 N   0  0  0  0  0  0  0  0  0  0  0  0
  179.5970  175.6600  140.3130 C   0  0  0  0  0  2  0  0  0  0  0  0
  183.2020  173.4990  137.5160 F   0  0  0  0  0  0  0  0  0  0  0  0
  180.6120  173.9590  136.6100 C   0  0  0  0  0  3  0  0  0  0  0  0
  179.4730  173.4560  135.7430 C   0  0  0  0  0  2  0  0  0  0  0  0
  180.3660  172.4690  136.4630 C   0  0  0  0  0  2  0  0  0  0  0  0
  179.1960  177.6980  134.6570 C   0  0  0  0  0  2  0  0  0  0  0  0
  178.9770  179.1990  134.6570 C   0  0  0  0  0  1  0  0  0  0  0  0
  183.3390  178.6710  139.2600 C   0  0  2  0  0  3  0  0  0  0  0  0
  185.1030  179.7410  140.4590 O   0  0  0  0  0  0  0  0  0  0  0  0
  184.7750  179.0580  139.4550 C   0  0  0  0  0  0  0  0  0  0  0  0
  185.7670  178.6730  138.5070 N   0  0  0  0  0  1  0  0  0  0  0  0
  182.3900  179.8120  139.5980 C   0  0  0  0  0  2  0  0  0  0  0  0
  182.0620  179.8430  137.1120 F   0  0  0  0  0  0  0  0  0  0  0  0
  181.1430  181.6950  138.3830 C   0  0  0  0  0  2  0  0  0  0  0  0
  181.6280  180.2650  138.3550 C   0  0  2  0  0  0  0  0  0  0  0  0
  179.5850  180.4470  139.8600 C   0  0  0  0  0  1  0  0  0  0  0  0
  180.1340  180.5520  138.4460 C   0  0  1  0  0  3  0  0  0  0  0  0
  1 13  1  0  0  0  0
  1  3  1  0  0  0  0
  2  4  2  0  0  0  0
  4  1  1  0  0  0  0
  5  9  1  1  0  0  0
  5 15  1  0  0  0  0
  5  2  1  0  0  0  0
  6 14  1  0  0  0  0
  6 17  1  1  0  0  0
  7  6  1  0  0  0  0
  7 18  1  1  0  0  0
  8  4  1  0  0  0  0
  8 11  1  0  0  0  0
  9  7  1  0  0  0  0
 10  8  2  0  0  0  0
 11 16  1  0  0  0  0
 13 12  2  0  0  0  0
 14  2  1  0  0  0  0
 15 10  1  0  0  0  0
 16  3  1  0  0  0  0
 19 20  1  0  0  0  0
 19 18  1  0  0  0  0
 20 18  1  0  0  0  0
 21 15  1  0  0  0  0
 22 21  1  0  0  0  0
 23 25  1  0  0  0  0
 23 27  1  1  0  0  0
 23 13  1  0  0  0  0
 25 24  2  0  0  0  0
 26 25  1  0  0  0  0
 29 32  1  0  0  0  0
 30 28  1  6  0  0  0
 30 29  1  0  0  0  0
 30 32  1  0  0  0  0
 30 27  1  0  0  0  0
 32 31  1  1  0  0  0
M  END
>  <MODEL>
5

>  <REMARK>
 VINA RESULT:      -2.9      2.427      5.935
  Name = 
  6 active torsions:
  status: ('A' for Active; 'I' for Inactive)
    1  A    between atoms: C_9  and  C_12
    2  A    between atoms: C_13  and  N_29
    3  A    between atoms: C_15  and  C_20
    4  A    between atoms: C_16  and  C_20
    5  A    between atoms: C_16  and  C_22
    6  A    between atoms: C_16  and  C_27
                            x       y       z     vdW  Elec       q    Type
                         _______ _______ _______ _____ _____    ______ ____

>  <TORSDO>
F 6

$$$$
=
 OpenBabel11052414293D

 32 36  0  0  1  0  0  0  0  0999 V2000
  183.9540  178.3920  140.0300 N   0  0  0  0  0  0  0  0  0  0  0  0
  181.6920  177.9650  140.8790 C   0  0  0  0  0  0  0  0  0  0  0  0
  184.7210  178.4150  138.7730 C   0  0  0  0  0  2  0  0  0  0  0  0
  182.7530  177.5910  140.1330 C   0  0  0  0  0  0  0  0  0  0  0  0
  180.4430  177.1170  140.9680 C   0  0  1  0  0  3  0  0  0  0  0  0
  180.3310  180.1730  140.2290 C   0  0  1  0  0  3  0  0  0  0  0  0
  179.5110  179.0600  139.5300 C   0  0  2  0  0  3  0  0  0  0  0  0
  182.6700  176.3820  139.2910 C   0  0  0  0  0  0  0  0  0  0  0  0
  179.2010  177.8820  140.4700 C   0  0  0  0  0  2  0  0  0  0  0  0
  181.6410  175.5480  139.3850 C   0  0  0  0  0  3  0  0  0  0  0  0
  183.7480  176.1390  138.2920 C   0  0  0  0  0  2  0  0  0  0  0  0
  185.5290  179.7560  141.0920 O   0  0  0  0  0  0  0  0  0  0  0  0
  184.6330  178.8740  141.2060 C   0  0  0  0  0  0  0  0  0  0  0  0
  181.5280  179.6330  141.5180 S   0  0  0  0  0  0  0  0  0  0  0  0
  180.5710  175.8180  140.2970 N   0  0  0  0  0  0  0  0  0  0  0  0
  184.1600  177.4800  137.6940 C   0  0  0  0  0  2  0  0  0  0  0  0
  180.9450  181.0170  139.3200 F   0  0  0  0  0  0  0  0  0  0  0  0
  180.1440  178.5890  138.2210 C   0  0  0  0  0  3  0  0  0  0  0  0
  179.1960  177.6530  137.4960 C   0  0  0  0  0  2  0  0  0  0  0  0
  179.3220  179.0930  137.0510 C   0  0  0  0  0  2  0  0  0  0  0  0
  179.5400  174.8120  140.4950 C   0  0  0  0  0  2  0  0  0  0  0  0
  179.2350  174.1080  139.1860 C   0  0  0  0  0  1  0  0  0  0  0  0
  184.3670  178.2450  142.5470 C   0  0  2  0  0  3  0  0  0  0  0  0
  184.9310  180.3140  143.5930 O   0  0  0  0  0  0  0  0  0  0  0  0
  184.2640  179.2490  143.6560 C   0  0  0  0  0  0  0  0  0  0  0  0
  183.4310  179.0030  144.7860 N   0  0  0  0  0  1  0  0  0  0  0  0
  185.4040  177.1710  142.8450 C   0  0  0  0  0  2  0  0  0  0  0  0
  187.2200  178.7960  142.2500 F   0  0  0  0  0  0  0  0  0  0  0  0
  187.8510  176.8380  143.5380 C   0  0  0  0  0  2  0  0  0  0  0  0
  186.7730  177.8000  143.0980 C   0  0  2  0  0  0  0  0  0  0  0  0
  186.4300  177.1900  145.5440 C   0  0  0  0  0  1  0  0  0  0  0  0
  187.3180  177.8780  144.5190 C   0  0  1  0  0  3  0  0  0  0  0  0
  1  4  1  0  0  0  0
  1 13  1  0  0  0  0
  2  5  1  0  0  0  0
  2 14  1  0  0  0  0
  3  1  1  0  0  0  0
  4  2  2  0  0  0  0
  5  9  1  6  0  0  0
  6 17  1  6  0  0  0
  6 14  1  0  0  0  0
  7 18  1  6  0  0  0
  7  6  1  0  0  0  0
  7  9  1  0  0  0  0
  8 10  2  0  0  0  0
  8  4  1  0  0  0  0
 10 15  1  0  0  0  0
 11  8  1  0  0  0  0
 12 13  2  0  0  0  0
 13 23  1  0  0  0  0
 15 21  1  0  0  0  0
 15  5  1  0  0  0  0
 16 11  1  0  0  0  0
 16  3  1  0  0  0  0
 19 18  1  0  0  0  0
 20 19  1  0  0  0  0
 20 18  1  0  0  0  0
 22 21  1  0  0  0  0
 23 27  1  1  0  0  0
 23 25  1  0  0  0  0
 24 25  2  0  0  0  0
 25 26  1  0  0  0  0
 27 30  1  0  0  0  0
 29 32  1  0  0  0  0
 30 28  1  6  0  0  0
 30 29  1  0  0  0  0
 30 32  1  0  0  0  0
 32 31  1  1  0  0  0
M  END
>  <MODEL>
6

>  <REMARK>
 VINA RESULT:      -2.9      3.709      5.702
  Name = 
  6 active torsions:
  status: ('A' for Active; 'I' for Inactive)
    1  A    between atoms: C_9  and  C_12
    2  A    between atoms: C_13  and  N_29
    3  A    between atoms: C_15  and  C_20
    4  A    between atoms: C_16  and  C_20
    5  A    between atoms: C_16  and  C_22
    6  A    between atoms: C_16  and  C_27
                            x       y       z     vdW  Elec       q    Type
                         _______ _______ _______ _____ _____    ______ ____

>  <TORSDO>
F 6

$$$$
=
 OpenBabel11052414293D

 32 36  0  0  1  0  0  0  0  0999 V2000
  182.9250  176.8860  138.9760 N   0  0  0  0  0  0  0  0  0  0  0  0
  180.9320  178.0010  138.0790 C   0  0  0  0  0  0  0  0  0  0  0  0
  183.9130  177.0030  140.0620 C   0  0  0  0  0  2  0  0  0  0  0  0
  182.2080  178.0560  138.5180 C   0  0  0  0  0  0  0  0  0  0  0  0
  180.1970  179.2370  137.6110 C   0  0  1  0  0  3  0  0  0  0  0  0
  178.9820  177.2940  139.7660 C   0  0  1  0  0  3  0  0  0  0  0  0
  178.9420  178.8400  139.8430 C   0  0  2  0  0  3  0  0  0  0  0  0
  182.8830  179.3610  138.6530 C   0  0  0  0  0  0  0  0  0  0  0  0
  178.9310  179.4950  138.4500 C   0  0  0  0  0  2  0  0  0  0  0  0
  182.3300  180.4740  138.1840 C   0  0  0  0  0  3  0  0  0  0  0  0
  184.1840  179.4140  139.3770 C   0  0  0  0  0  2  0  0  0  0  0  0
  183.4110  174.6160  138.6910 O   0  0  0  0  0  0  0  0  0  0  0  0
  182.9880  175.6890  138.1760 C   0  0  0  0  0  0  0  0  0  0  0  0
  179.9020  176.5580  138.3520 S   0  0  0  0  0  0  0  0  0  0  0  0
  181.0470  180.4320  137.5490 N   0  0  0  0  0  0  0  0  0  0  0  0
  184.1210  178.4420  140.5500 C   0  0  0  0  0  2  0  0  0  0  0  0
  179.3920  176.7240  140.9590 F   0  0  0  0  0  0  0  0  0  0  0  0
  180.0410  179.4200  140.7320 C   0  0  0  0  0  3  0  0  0  0  0  0
  179.7730  180.8900  140.9940 C   0  0  0  0  0  2  0  0  0  0  0  0
  179.4420  179.8620  142.0530 C   0  0  0  0  0  2  0  0  0  0  0  0
  180.5390  181.6320  136.9030 C   0  0  0  0  0  2  0  0  0  0  0  0
  181.0670  182.8690  137.6040 C   0  0  0  0  0  1  0  0  0  0  0  0
  182.6710  175.7400  136.7060 C   0  0  2  0  0  3  0  0  0  0  0  0
  181.4180  173.7440  137.0790 O   0  0  0  0  0  0  0  0  0  0  0  0
  181.7360  174.6520  136.2690 C   0  0  0  0  0  0  0  0  0  0  0  0
  181.2150  174.6290  134.9420 N   0  0  0  0  0  1  0  0  0  0  0  0
  183.9530  175.7530  135.8860 C   0  0  0  0  0  2  0  0  0  0  0  0
  183.5390  178.1850  135.4320 F   0  0  0  0  0  0  0  0  0  0  0  0
  185.7460  177.3120  134.9200 C   0  0  0  0  0  2  0  0  0  0  0  0
  184.4550  177.1820  135.6940 C   0  0  2  0  0  0  0  0  0  0  0  0
  186.4140  176.5320  137.1810 C   0  0  0  0  0  1  0  0  0  0  0  0
  185.7190  177.6430  136.4090 C   0  0  1  0  0  3  0  0  0  0  0  0
  1  3  1  0  0  0  0
  2 14  1  0  0  0  0
  2  4  2  0  0  0  0
  3 16  1  0  0  0  0
  4  8  1  0  0  0  0
  4  1  1  0  0  0  0
  5  2  1  0  0  0  0
  5  9  1  1  0  0  0
  6  7  1  0  0  0  0
  6 17  1  1  0  0  0
  7 18  1  1  0  0  0
  8 11  1  0  0  0  0
  9  7  1  0  0  0  0
 10  8  2  0  0  0  0
 11 16  1  0  0  0  0
 13 12  2  0  0  0  0
 13  1  1  0  0  0  0
 14  6  1  0  0  0  0
 15  5  1  0  0  0  0
 15 10  1  0  0  0  0
 18 19  1  0  0  0  0
 18 20  1  0  0  0  0
 19 20  1  0  0  0  0
 21 15  1  0  0  0  0
 21 22  1  0  0  0  0
 23 27  1  6  0  0  0
 23 13  1  0  0  0  0
 25 23  1  0  0  0  0
 25 24  2  0  0  0  0
 26 25  1  0  0  0  0
 29 30  1  0  0  0  0
 29 32  1  0  0  0  0
 30 28  1  6  0  0  0
 30 27  1  0  0  0  0
 30 32  1  0  0  0  0
 32 31  1  1  0  0  0
M  END
>  <MODEL>
7

>  <REMARK>
 VINA RESULT:      -2.6      2.825      4.879
  Name = 
  6 active torsions:
  status: ('A' for Active; 'I' for Inactive)
    1  A    between atoms: C_9  and  C_12
    2  A    between atoms: C_13  and  N_29
    3  A    between atoms: C_15  and  C_20
    4  A    between atoms: C_16  and  C_20
    5  A    between atoms: C_16  and  C_22
    6  A    between atoms: C_16  and  C_27
                            x       y       z     vdW  Elec       q    Type
                         _______ _______ _______ _____ _____    ______ ____

>  <TORSDO>
F 6

$$$$
=
 OpenBabel11052414293D

 32 36  0  0  1  0  0  0  0  0999 V2000
  180.5700  179.7240  140.1780 N   0  0  0  0  0  0  0  0  0  0  0  0
  181.7730  177.6400  139.6990 C   0  0  0  0  0  0  0  0  0  0  0  0
  180.1580  180.9840  139.5360 C   0  0  0  0  0  2  0  0  0  0  0  0
  181.7080  178.9890  139.6700 C   0  0  0  0  0  0  0  0  0  0  0  0
  182.9680  176.8890  139.1560 C   0  0  1  0  0  3  0  0  0  0  0  0
  180.0280  176.2010  138.2730 C   0  0  1  0  0  3  0  0  0  0  0  0
  181.2430  176.2890  137.3180 C   0  0  2  0  0  3  0  0  0  0  0  0
  182.7700  179.7620  138.9980 C   0  0  0  0  0  0  0  0  0  0  0  0
  182.5660  175.9310  138.0180 C   0  0  0  0  0  2  0  0  0  0  0  0
  183.8850  179.1760  138.5760 C   0  0  0  0  0  3  0  0  0  0  0  0
  182.5450  181.2140  138.7570 C   0  0  0  0  0  2  0  0  0  0  0  0
  178.9300  179.9540  141.8300 O   0  0  0  0  0  0  0  0  0  0  0  0
  180.0520  179.4780  141.5000 C   0  0  0  0  0  0  0  0  0  0  0  0
  180.3290  176.6330  140.0370 S   0  0  0  0  0  0  0  0  0  0  0  0
  184.0710  177.7670  138.7470 N   0  0  0  0  0  0  0  0  0  0  0  0
  181.0790  181.4180  138.3890 C   0  0  0  0  0  2  0  0  0  0  0  0
  178.9310  176.8900  137.7860 F   0  0  0  0  0  0  0  0  0  0  0  0
  181.3320  177.6310  136.5920 C   0  0  0  0  0  3  0  0  0  0  0  0
  182.4180  177.5760  135.5340 C   0  0  0  0  0  2  0  0  0  0  0  0
  180.9650  177.4420  135.1330 C   0  0  0  0  0  2  0  0  0  0  0  0
  185.3620  177.1800  138.4230 C   0  0  0  0  0  2  0  0  0  0  0  0
  185.9520  177.8520  137.1970 C   0  0  0  0  0  1  0  0  0  0  0  0
  180.8930  178.7640  142.5240 C   0  0  2  0  0  3  0  0  0  0  0  0
  179.9690  176.9450  143.7610 O   0  0  0  0  0  0  0  0  0  0  0  0
  180.0850  178.1920  143.6510 C   0  0  0  0  0  0  0  0  0  0  0  0
  179.4360  179.0480  144.5880 N   0  0  0  0  0  1  0  0  0  0  0  0
  182.0060  179.6730  143.0250 C   0  0  0  0  0  2  0  0  0  0  0  0
  182.4120  178.1410  144.9690 F   0  0  0  0  0  0  0  0  0  0  0  0
  184.2070  179.6490  144.3420 C   0  0  0  0  0  2  0  0  0  0  0  0
  182.9490  178.9100  143.9530 C   0  0  2  0  0  0  0  0  0  0  0  0
  184.5930  178.8840  142.0110 C   0  0  0  0  0  1  0  0  0  0  0  0
  184.2970  178.4280  143.4320 C   0  0  1  0  0  3  0  0  0  0  0  0
  1 13  1  0  0  0  0
  2 14  1  0  0  0  0
  3  1  1  0  0  0  0
  4  2  2  0  0  0  0
  4  1  1  0  0  0  0
  5  9  1  6  0  0  0
  5  2  1  0  0  0  0
  6 17  1  6  0  0  0
  6 14  1  0  0  0  0
  7 18  1  1  0  0  0
  7  9  1  0  0  0  0
  7  6  1  0  0  0  0
  8  4  1  0  0  0  0
 10 15  1  0  0  0  0
 10  8  2  0  0  0  0
 11  8  1  0  0  0  0
 13 12  2  0  0  0  0
 13 23  1  0  0  0  0
 15  5  1  0  0  0  0
 16 11  1  0  0  0  0
 16  3  1  0  0  0  0
 19 18  1  0  0  0  0
 20 19  1  0  0  0  0
 20 18  1  0  0  0  0
 21 15  1  0  0  0  0
 22 21  1  0  0  0  0
 23 27  1  1  0  0  0
 23 25  1  0  0  0  0
 25 24  2  0  0  0  0
 25 26  1  0  0  0  0
 27 30  1  0  0  0  0
 30 29  1  0  0  0  0
 30 28  1  1  0  0  0
 32 31  1  6  0  0  0
 32 30  1  0  0  0  0
 32 29  1  0  0  0  0
M  END
>  <MODEL>
8

>  <REMARK>
 VINA RESULT:      -2.5      3.905      6.997
  Name = 
  6 active torsions:
  status: ('A' for Active; 'I' for Inactive)
    1  A    between atoms: C_9  and  C_12
    2  A    between atoms: C_13  and  N_29
    3  A    between atoms: C_15  and  C_20
    4  A    between atoms: C_16  and  C_20
    5  A    between atoms: C_16  and  C_22
    6  A    between atoms: C_16  and  C_27
                            x       y       z     vdW  Elec       q    Type
                         _______ _______ _______ _____ _____    ______ ____

>  <TORSDO>
F 6

$$$$
=
 OpenBabel11052414293D

 32 36  0  0  1  0  0  0  0  0999 V2000
  180.4740  177.7180  137.5380 N   0  0  0  0  0  0  0  0  0  0  0  0
  182.6550  176.6640  137.9230 C   0  0  0  0  0  0  0  0  0  0  0  0
  179.4490  177.8830  136.4930 C   0  0  0  0  0  2  0  0  0  0  0  0
  181.8460  177.4390  137.1700 C   0  0  0  0  0  0  0  0  0  0  0  0
  184.0840  176.3770  137.5180 C   0  0  1  0  0  3  0  0  0  0  0  0
  182.0710  174.0760  138.2580 C   0  0  1  0  0  3  0  0  0  0  0  0
  183.0600  174.0410  137.0670 C   0  0  2  0  0  3  0  0  0  0  0  0
  182.3140  177.9410  135.8640 C   0  0  0  0  0  0  0  0  0  0  0  0
  184.3300  174.8670  137.3350 C   0  0  0  0  0  2  0  0  0  0  0  0
  183.5790  177.7990  135.4860 C   0  0  0  0  0  3  0  0  0  0  0  0
  181.3200  178.5700  134.9490 C   0  0  0  0  0  2  0  0  0  0  0  0
  178.9310  178.2170  139.2230 O   0  0  0  0  0  0  0  0  0  0  0  0
  180.1380  178.2070  138.8510 C   0  0  0  0  0  0  0  0  0  0  0  0
  182.0150  175.6310  139.2410 S   0  0  0  0  0  0  0  0  0  0  0  0
  184.5180  177.1330  136.3370 N   0  0  0  0  0  0  0  0  0  0  0  0
  180.0070  177.8040  135.0660 C   0  0  0  0  0  2  0  0  0  0  0  0
  180.7940  173.6910  137.8870 F   0  0  0  0  0  0  0  0  0  0  0  0
  182.4050  174.4230  135.7390 C   0  0  0  0  0  3  0  0  0  0  0  0
  183.3600  174.1470  134.5940 C   0  0  0  0  0  2  0  0  0  0  0  0
  182.2310  173.1820  134.8850 C   0  0  0  0  0  2  0  0  0  0  0  0
  185.9260  177.1340  135.9720 C   0  0  0  0  0  2  0  0  0  0  0  0
  186.7130  178.0230  136.9170 C   0  0  0  0  0  1  0  0  0  0  0  0
  181.1980  178.8150  139.7290 C   0  0  2  0  0  3  0  0  0  0  0  0
  182.1310  178.5290  141.9060 O   0  0  0  0  0  0  0  0  0  0  0  0
  181.1680  178.2900  141.1340 C   0  0  0  0  0  0  0  0  0  0  0  0
  180.0680  177.5120  141.5970 N   0  0  0  0  0  1  0  0  0  0  0  0
  181.1150  180.3340  139.6860 C   0  0  0  0  0  2  0  0  0  0  0  0
  183.1820  180.3560  138.2660 F   0  0  0  0  0  0  0  0  0  0  0  0
  181.8440  182.3800  138.3220 C   0  0  0  0  0  2  0  0  0  0  0  0
  181.9300  180.8850  138.5180 C   0  0  2  0  0  0  0  0  0  0  0  0
  179.7020  181.4820  137.4450 C   0  0  0  0  0  1  0  0  0  0  0  0
  181.2150  181.4450  137.2950 C   0  0  1  0  0  3  0  0  0  0  0  0
  1 13  1  0  0  0  0
  2 14  1  0  0  0  0
  3  1  1  0  0  0  0
  4  1  1  0  0  0  0
  4  2  2  0  0  0  0
  5  9  1  6  0  0  0
  5  2  1  0  0  0  0
  6 17  1  6  0  0  0
  6 14  1  0  0  0  0
  7 18  1  6  0  0  0
  7  9  1  0  0  0  0
  7  6  1  0  0  0  0
  8  4  1  0  0  0  0
 10  8  2  0  0  0  0
 10 15  1  0  0  0  0
 11 16  1  0  0  0  0
 11  8  1  0  0  0  0
 13 12  2  0  0  0  0
 13 23  1  0  0  0  0
 15  5  1  0  0  0  0
 16  3  1  0  0  0  0
 19 20  1  0  0  0  0
 19 18  1  0  0  0  0
 20 18  1  0  0  0  0
 21 15  1  0  0  0  0
 21 22  1  0  0  0  0
 23 27  1  1  0  0  0
 23 25  1  0  0  0  0
 25 26  1  0  0  0  0
 25 24  2  0  0  0  0
 29 30  1  0  0  0  0
 30 28  1  6  0  0  0
 30 27  1  0  0  0  0
 32 31  1  1  0  0  0
 32 29  1  0  0  0  0
 32 30  1  0  0  0  0
M  END
>  <MODEL>
9

>  <REMARK>
 VINA RESULT:      -2.4      2.663      6.463
  Name = 
  6 active torsions:
  status: ('A' for Active; 'I' for Inactive)
    1  A    between atoms: C_9  and  C_12
    2  A    between atoms: C_13  and  N_29
    3  A    between atoms: C_15  and  C_20
    4  A    between atoms: C_16  and  C_20
    5  A    between atoms: C_16  and  C_22
    6  A    between atoms: C_16  and  C_27
                            x       y       z     vdW  Elec       q    Type
                         _______ _______ _______ _____ _____    ______ ____

>  <TORSDO>
F 6

$$$$
