=
 OpenBabel11052412513D

 25 27  0  0  1  0  0  0  0  0999 V2000
  189.7210  177.0460  144.8530 C   0  0  0  0  0  0  0  0  0  0  0  0
  188.7040  177.4920  145.7290 C   0  0  0  0  0  0  0  0  0  0  0  0
  191.2520  176.8780  146.7350 C   0  0  0  0  0  3  0  0  0  0  0  0
  190.2490  177.3080  147.6040 C   0  0  0  0  0  3  0  0  0  0  0  0
  187.9700  178.0700  147.9880 C   0  0  0  0  0  0  0  0  0  0  0  0
  188.2160  178.2020  149.3510 O   0  0  0  0  0  1  0  0  0  0  0  0
  187.4270  177.8240  145.2520 C   0  0  0  0  0  3  0  0  0  0  0  0
  190.9900  176.7540  145.3700 C   0  0  0  0  0  3  0  0  0  0  0  0
  186.7070  178.3940  147.4890 C   0  0  0  0  0  3  0  0  0  0  0  0
  186.4330  178.2690  146.1260 C   0  0  0  0  0  0  0  0  0  0  0  0
  188.9750  177.6200  147.1160 C   0  0  0  0  0  0  0  0  0  0  0  0
  189.5060  176.9240  143.3640 C   0  0  0  0  0  0  0  0  0  0  0  0
  190.5080  175.9870  142.7180 C   0  0  0  0  0  2  0  0  0  0  0  0
  189.0380  175.6200  142.7400 C   0  0  0  0  0  2  0  0  0  0  0  0
  189.3480  178.1450  142.5640 N   0  0  0  0  0  2  0  0  0  0  0  0
  189.2050  178.2270  140.0860 C   0  0  0  0  0  1  0  0  0  0  0  0
  188.4760  177.9730  141.3940 C   0  0  0  0  0  3  0  0  0  0  0  0
  187.1850  178.7730  141.4860 C   0  0  0  0  0  1  0  0  0  0  0  0
  185.0940  178.6420  145.5960 C   0  0  0  0  0  2  0  0  0  0  0  0
  184.9930  178.2720  144.1210 C   0  0  0  0  0  2  0  0  0  0  0  0
  183.8320  178.9800  143.4300 C   0  0  1  0  0  3  0  0  0  0  0  0
  183.6580  178.4820  142.1370 O   0  0  0  0  0  1  0  0  0  0  0  0
  182.5490  178.8400  144.2340 C   0  0  0  0  0  2  0  0  0  0  0  0
  181.3430  178.9330  143.3200 C   0  0  0  0  0  2  0  0  0  0  0  0
  180.0920  178.5810  144.0970 C   0  0  0  0  0  1  0  0  0  0  0  0
  1  8  2  0  0  0  0
  1  2  1  0  0  0  0
  2 11  1  0  0  0  0
  3  4  2  0  0  0  0
  5  6  1  0  0  0  0
  7  2  2  0  0  0  0
  7 10  1  0  0  0  0
  8  3  1  0  0  0  0
  9  5  1  0  0  0  0
 10  9  2  0  0  0  0
 11  4  1  0  0  0  0
 11  5  2  0  0  0  0
 12  1  1  0  0  0  0
 13 14  1  0  0  0  0
 13 12  1  0  0  0  0
 14 12  1  0  0  0  0
 15 12  1  0  0  0  0
 16 17  1  0  0  0  0
 17 18  1  0  0  0  0
 17 15  1  0  0  0  0
 19 10  1  0  0  0  0
 20 19  1  0  0  0  0
 21 22  1  6  0  0  0
 21 20  1  0  0  0  0
 21 23  1  0  0  0  0
 24 25  1  0  0  0  0
 24 23  1  0  0  0  0
M  END
>  <MODEL>
1

>  <REMARK>
 VINA RESULT:      -8.5      0.000      0.000
  Name = 
  8 active torsions:
  status: ('A' for Active; 'I' for Inactive)
    1  A    between atoms: C_1  and  C_5
    2  A    between atoms: C_2  and  C_7
    3  A    between atoms: C_2  and  C_21
    4  A    between atoms: C_5  and  N_10
    5  A    between atoms: C_6  and  C_15
    6  A    between atoms: C_6  and  C_23
    7  A    between atoms: N_10  and  C_11
    8  A    between atoms: C_15  and  C_21
                            x       y       z     vdW  Elec       q    Type
                         _______ _______ _______ _____ _____    ______ ____

>  <TORSDO>
F 8

$$$$
=
 OpenBabel11052412513D

 25 27  0  0  1  0  0  0  0  0999 V2000
  189.2830  177.2360  144.8410 C   0  0  0  0  0  0  0  0  0  0  0  0
  187.9210  177.6140  144.8670 C   0  0  0  0  0  0  0  0  0  0  0  0
  189.4270  177.6380  147.2360 C   0  0  0  0  0  3  0  0  0  0  0  0
  188.0810  178.0010  147.2670 C   0  0  0  0  0  3  0  0  0  0  0  0
  185.9680  178.3800  146.1210 C   0  0  0  0  0  0  0  0  0  0  0  0
  185.3590  178.7590  147.3130 O   0  0  0  0  0  1  0  0  0  0  0  0
  187.1490  177.6300  143.6950 C   0  0  0  0  0  3  0  0  0  0  0  0
  190.0230  177.2640  146.0310 C   0  0  0  0  0  3  0  0  0  0  0  0
  185.2200  178.3880  144.9410 C   0  0  0  0  0  3  0  0  0  0  0  0
  185.8070  178.0110  143.7320 C   0  0  0  0  0  0  0  0  0  0  0  0
  187.3180  177.9970  146.0930 C   0  0  0  0  0  0  0  0  0  0  0  0
  189.9910  176.8530  143.5640 C   0  0  0  0  0  0  0  0  0  0  0  0
  191.2810  176.1020  143.8300 C   0  0  0  0  0  2  0  0  0  0  0  0
  190.1260  175.4000  143.1430 C   0  0  0  0  0  2  0  0  0  0  0  0
  190.1890  177.8730  142.5270 N   0  0  0  0  0  2  0  0  0  0  0  0
  191.3180  177.4310  140.3590 C   0  0  0  0  0  1  0  0  0  0  0  0
  190.0290  177.3610  141.1590 C   0  0  0  0  0  3  0  0  0  0  0  0
  188.8650  177.9960  140.4130 C   0  0  0  0  0  1  0  0  0  0  0  0
  185.0120  178.0470  142.4740 C   0  0  0  0  0  2  0  0  0  0  0  0
  185.5520  179.1280  141.5450 C   0  0  0  0  0  2  0  0  0  0  0  0
  184.8150  179.1580  140.2110 C   0  0  1  0  0  3  0  0  0  0  0  0
  185.7020  178.9180  139.1580 O   0  0  0  0  0  1  0  0  0  0  0  0
  183.6780  178.1490  140.1910 C   0  0  0  0  0  2  0  0  0  0  0  0
  182.3490  178.8580  140.0130 C   0  0  0  0  0  2  0  0  0  0  0  0
  181.4880  178.6300  141.2370 C   0  0  0  0  0  1  0  0  0  0  0  0
  1  2  2  0  0  0  0
  1  8  1  0  0  0  0
  2 11  1  0  0  0  0
  3  4  1  0  0  0  0
  5  6  1  0  0  0  0
  7 10  2  0  0  0  0
  7  2  1  0  0  0  0
  8  3  2  0  0  0  0
  9  5  2  0  0  0  0
 10  9  1  0  0  0  0
 11  5  1  0  0  0  0
 11  4  2  0  0  0  0
 12 13  1  0  0  0  0
 12  1  1  0  0  0  0
 14 12  1  0  0  0  0
 14 13  1  0  0  0  0
 15 12  1  0  0  0  0
 16 17  1  0  0  0  0
 17 15  1  0  0  0  0
 18 17  1  0  0  0  0
 19 10  1  0  0  0  0
 20 19  1  0  0  0  0
 21 22  1  6  0  0  0
 21 20  1  0  0  0  0
 23 21  1  0  0  0  0
 24 23  1  0  0  0  0
 24 25  1  0  0  0  0
M  END
>  <MODEL>
2

>  <REMARK>
 VINA RESULT:      -8.4      1.854      2.480
  Name = 
  8 active torsions:
  status: ('A' for Active; 'I' for Inactive)
    1  A    between atoms: C_1  and  C_5
    2  A    between atoms: C_2  and  C_7
    3  A    between atoms: C_2  and  C_21
    4  A    between atoms: C_5  and  N_10
    5  A    between atoms: C_6  and  C_15
    6  A    between atoms: C_6  and  C_23
    7  A    between atoms: N_10  and  C_11
    8  A    between atoms: C_15  and  C_21
                            x       y       z     vdW  Elec       q    Type
                         _______ _______ _______ _____ _____    ______ ____

>  <TORSDO>
F 8

$$$$
=
 OpenBabel11052412513D

 25 27  0  0  1  0  0  0  0  0999 V2000
  189.2250  177.1920  144.9070 C   0  0  0  0  0  0  0  0  0  0  0  0
  187.8700  177.5960  144.8820 C   0  0  0  0  0  0  0  0  0  0  0  0
  189.2550  177.4820  147.3210 C   0  0  0  0  0  3  0  0  0  0  0  0
  187.9160  177.8720  147.3030 C   0  0  0  0  0  3  0  0  0  0  0  0
  185.8710  178.3460  146.0720 C   0  0  0  0  0  0  0  0  0  0  0  0
  185.2100  178.6840  147.2490 O   0  0  0  0  0  1  0  0  0  0  0  0
  187.1580  177.6820  143.6760 C   0  0  0  0  0  3  0  0  0  0  0  0
  189.9050  177.1500  146.1320 C   0  0  0  0  0  3  0  0  0  0  0  0
  185.1840  178.4230  144.8590 C   0  0  0  0  0  3  0  0  0  0  0  0
  185.8230  178.0890  143.6630 C   0  0  0  0  0  0  0  0  0  0  0  0
  187.2140  177.9360  146.0940 C   0  0  0  0  0  0  0  0  0  0  0  0
  189.9880  176.8530  143.6500 C   0  0  0  0  0  0  0  0  0  0  0  0
  191.3070  176.1670  143.9510 C   0  0  0  0  0  2  0  0  0  0  0  0
  190.2100  175.4100  143.2280 C   0  0  0  0  0  2  0  0  0  0  0  0
  190.1650  177.8860  142.6220 N   0  0  0  0  0  2  0  0  0  0  0  0
  191.1630  177.4090  140.3980 C   0  0  0  0  0  1  0  0  0  0  0  0
  189.9100  177.4090  141.2560 C   0  0  0  0  0  3  0  0  0  0  0  0
  188.7570  178.1310  140.5740 C   0  0  0  0  0  1  0  0  0  0  0  0
  185.0930  178.1980  142.3710 C   0  0  0  0  0  2  0  0  0  0  0  0
  183.7170  178.8130  142.5990 C   0  0  0  0  0  2  0  0  0  0  0  0
  182.8050  178.6400  141.3890 C   0  0  1  0  0  3  0  0  0  0  0  0
  183.0250  177.4000  140.7850 O   0  0  0  0  0  1  0  0  0  0  0  0
  181.3430  178.7910  141.7810 C   0  0  0  0  0  2  0  0  0  0  0  0
  181.2210  179.0410  143.2720 C   0  0  0  0  0  2  0  0  0  0  0  0
  180.0750  178.2230  143.8280 C   0  0  0  0  0  1  0  0  0  0  0  0
  1  8  1  0  0  0  0
  2  1  2  0  0  0  0
  2 11  1  0  0  0  0
  4  3  1  0  0  0  0
  5 11  1  0  0  0  0
  5  6  1  0  0  0  0
  7  2  1  0  0  0  0
  8  3  2  0  0  0  0
  9  5  2  0  0  0  0
 10  7  2  0  0  0  0
 10  9  1  0  0  0  0
 11  4  2  0  0  0  0
 12 13  1  0  0  0  0
 12  1  1  0  0  0  0
 14 12  1  0  0  0  0
 14 13  1  0  0  0  0
 15 12  1  0  0  0  0
 16 17  1  0  0  0  0
 17 15  1  0  0  0  0
 18 17  1  0  0  0  0
 19 20  1  0  0  0  0
 19 10  1  0  0  0  0
 21 22  1  1  0  0  0
 21 23  1  0  0  0  0
 21 20  1  0  0  0  0
 23 24  1  0  0  0  0
 24 25  1  0  0  0  0
M  END
>  <MODEL>
3

>  <REMARK>
 VINA RESULT:      -8.4      1.391      2.053
  Name = 
  8 active torsions:
  status: ('A' for Active; 'I' for Inactive)
    1  A    between atoms: C_1  and  C_5
    2  A    between atoms: C_2  and  C_7
    3  A    between atoms: C_2  and  C_21
    4  A    between atoms: C_5  and  N_10
    5  A    between atoms: C_6  and  C_15
    6  A    between atoms: C_6  and  C_23
    7  A    between atoms: N_10  and  C_11
    8  A    between atoms: C_15  and  C_21
                            x       y       z     vdW  Elec       q    Type
                         _______ _______ _______ _____ _____    ______ ____

>  <TORSDO>
F 8

$$$$
=
 OpenBabel11052412513D

 25 27  0  0  1  0  0  0  0  0999 V2000
  189.5870  177.1530  144.8820 C   0  0  0  0  0  0  0  0  0  0  0  0
  188.6250  177.5780  145.8270 C   0  0  0  0  0  0  0  0  0  0  0  0
  191.2170  176.9090  146.6700 C   0  0  0  0  0  3  0  0  0  0  0  0
  190.2690  177.3170  147.6070 C   0  0  0  0  0  3  0  0  0  0  0  0
  188.0220  178.0860  148.1410 C   0  0  0  0  0  0  0  0  0  0  0  0
  188.3430  178.1700  149.4910 O   0  0  0  0  0  1  0  0  0  0  0  0
  187.3270  177.9370  145.4320 C   0  0  0  0  0  3  0  0  0  0  0  0
  190.8800  176.8330  145.3180 C   0  0  0  0  0  3  0  0  0  0  0  0
  186.7370  178.4380  147.7230 C   0  0  0  0  0  3  0  0  0  0  0  0
  186.3880  178.3610  146.3730 C   0  0  0  0  0  0  0  0  0  0  0  0
  188.9730  177.6570  147.2000 C   0  0  0  0  0  0  0  0  0  0  0  0
  189.2900  177.0830  143.4040 C   0  0  0  0  0  0  0  0  0  0  0  0
  189.3540  175.6620  142.8760 C   0  0  0  0  0  2  0  0  0  0  0  0
  188.0340  176.4060  142.8840 C   0  0  0  0  0  2  0  0  0  0  0  0
  189.9800  178.0050  142.4930 N   0  0  0  0  0  2  0  0  0  0  0  0
  192.0780  177.4990  141.2630 C   0  0  0  0  0  1  0  0  0  0  0  0
  190.5680  177.3450  141.3200 C   0  0  0  0  0  3  0  0  0  0  0  0
  189.9090  177.7520  140.0100 C   0  0  0  0  0  1  0  0  0  0  0  0
  185.0250  178.7630  145.9310 C   0  0  0  0  0  2  0  0  0  0  0  0
  185.0430  179.1310  144.4520 C   0  0  0  0  0  2  0  0  0  0  0  0
  183.8620  178.5310  143.6970 C   0  0  1  0  0  3  0  0  0  0  0  0
  182.7480  179.3690  143.7880 O   0  0  0  0  0  1  0  0  0  0  0  0
  184.2180  178.2720  142.2410 C   0  0  0  0  0  2  0  0  0  0  0  0
  185.5620  178.8920  141.9100 C   0  0  0  0  0  2  0  0  0  0  0  0
  185.8210  178.7710  140.4240 C   0  0  0  0  0  1  0  0  0  0  0  0
  1  8  2  0  0  0  0
  1  2  1  0  0  0  0
  2 11  1  0  0  0  0
  3  4  2  0  0  0  0
  5  6  1  0  0  0  0
  7  2  2  0  0  0  0
  7 10  1  0  0  0  0
  8  3  1  0  0  0  0
  9  5  1  0  0  0  0
 10  9  2  0  0  0  0
 11  4  1  0  0  0  0
 11  5  2  0  0  0  0
 12  1  1  0  0  0  0
 13 14  1  0  0  0  0
 13 12  1  0  0  0  0
 14 12  1  0  0  0  0
 15 12  1  0  0  0  0
 16 17  1  0  0  0  0
 17 15  1  0  0  0  0
 18 17  1  0  0  0  0
 19 10  1  0  0  0  0
 20 19  1  0  0  0  0
 21 22  1  6  0  0  0
 21 20  1  0  0  0  0
 23 21  1  0  0  0  0
 24 23  1  0  0  0  0
 25 24  1  0  0  0  0
M  END
>  <MODEL>
4

>  <REMARK>
 VINA RESULT:      -8.4      1.244      2.082
  Name = 
  8 active torsions:
  status: ('A' for Active; 'I' for Inactive)
    1  A    between atoms: C_1  and  C_5
    2  A    between atoms: C_2  and  C_7
    3  A    between atoms: C_2  and  C_21
    4  A    between atoms: C_5  and  N_10
    5  A    between atoms: C_6  and  C_15
    6  A    between atoms: C_6  and  C_23
    7  A    between atoms: N_10  and  C_11
    8  A    between atoms: C_15  and  C_21
                            x       y       z     vdW  Elec       q    Type
                         _______ _______ _______ _____ _____    ______ ____

>  <TORSDO>
F 8

$$$$
=
 OpenBabel11052412513D

 25 27  0  0  1  0  0  0  0  0999 V2000
  183.1010  178.5640  141.7170 C   0  0  0  0  0  0  0  0  0  0  0  0
  184.0820  178.4460  142.7280 C   0  0  0  0  0  0  0  0  0  0  0  0
  181.4360  179.0860  143.4100 C   0  0  0  0  0  3  0  0  0  0  0  0
  182.4020  178.9820  144.4100 C   0  0  0  0  0  3  0  0  0  0  0  0
  184.6950  178.5370  145.0930 C   0  0  0  0  0  0  0  0  0  0  0  0
  184.3650  178.7430  146.4290 O   0  0  0  0  0  1  0  0  0  0  0  0
  185.4090  178.1090  142.4190 C   0  0  0  0  0  3  0  0  0  0  0  0
  181.7820  178.8730  142.0760 C   0  0  0  0  0  3  0  0  0  0  0  0
  186.0090  178.2000  144.7600 C   0  0  0  0  0  3  0  0  0  0  0  0
  186.3670  177.9900  143.4270 C   0  0  0  0  0  0  0  0  0  0  0  0
  183.7250  178.6600  144.0850 C   0  0  0  0  0  0  0  0  0  0  0  0
  183.4100  178.3130  140.2610 C   0  0  0  0  0  0  0  0  0  0  0  0
  182.7060  179.3010  139.3510 C   0  0  0  0  0  2  0  0  0  0  0  0
  184.2180  179.3060  139.4450 C   0  0  0  0  0  2  0  0  0  0  0  0
  183.2940  176.9480  139.7330 N   0  0  0  0  0  2  0  0  0  0  0  0
  181.0250  175.9420  139.8270 C   0  0  0  0  0  1  0  0  0  0  0  0
  182.0440  176.7050  138.9990 C   0  0  0  0  0  3  0  0  0  0  0  0
  182.2630  176.0590  137.6380 C   0  0  0  0  0  1  0  0  0  0  0  0
  187.7620  177.6040  143.0810 C   0  0  0  0  0  2  0  0  0  0  0  0
  188.3410  176.7070  144.1690 C   0  0  0  0  0  2  0  0  0  0  0  0
  189.6870  177.2140  144.6750 C   0  0  1  0  0  3  0  0  0  0  0  0
  190.2750  178.0610  143.7320 O   0  0  0  0  0  1  0  0  0  0  0  0
  189.5360  177.9260  146.0110 C   0  0  0  0  0  2  0  0  0  0  0  0
  188.8310  177.0280  147.0080 C   0  0  0  0  0  2  0  0  0  0  0  0
  188.2180  177.8750  148.1030 C   0  0  0  0  0  1  0  0  0  0  0  0
  1  8  2  0  0  0  0
  1  2  1  0  0  0  0
  2 11  1  0  0  0  0
  3  4  2  0  0  0  0
  5  6  1  0  0  0  0
  7  2  2  0  0  0  0
  7 10  1  0  0  0  0
  8  3  1  0  0  0  0
  9  5  1  0  0  0  0
 10  9  2  0  0  0  0
 11  4  1  0  0  0  0
 11  5  2  0  0  0  0
 12  1  1  0  0  0  0
 13 14  1  0  0  0  0
 13 12  1  0  0  0  0
 14 12  1  0  0  0  0
 15 12  1  0  0  0  0
 17 15  1  0  0  0  0
 17 16  1  0  0  0  0
 18 17  1  0  0  0  0
 19 10  1  0  0  0  0
 19 20  1  0  0  0  0
 20 21  1  0  0  0  0
 21 22  1  6  0  0  0
 21 23  1  0  0  0  0
 23 24  1  0  0  0  0
 24 25  1  0  0  0  0
M  END
>  <MODEL>
5

>  <REMARK>
 VINA RESULT:      -8.2      3.167      6.922
  Name = 
  8 active torsions:
  status: ('A' for Active; 'I' for Inactive)
    1  A    between atoms: C_1  and  C_5
    2  A    between atoms: C_2  and  C_7
    3  A    between atoms: C_2  and  C_21
    4  A    between atoms: C_5  and  N_10
    5  A    between atoms: C_6  and  C_15
    6  A    between atoms: C_6  and  C_23
    7  A    between atoms: N_10  and  C_11
    8  A    between atoms: C_15  and  C_21
                            x       y       z     vdW  Elec       q    Type
                         _______ _______ _______ _____ _____    ______ ____

>  <TORSDO>
F 8

$$$$
=
 OpenBabel11052412513D

 25 27  0  0  1  0  0  0  0  0999 V2000
  188.5940  177.2080  144.8380 C   0  0  0  0  0  0  0  0  0  0  0  0
  187.2600  177.6710  144.7620 C   0  0  0  0  0  0  0  0  0  0  0  0
  188.4920  177.3540  147.2640 C   0  0  0  0  0  3  0  0  0  0  0  0
  187.1730  177.8010  147.1930 C   0  0  0  0  0  3  0  0  0  0  0  0
  185.2250  178.4350  145.8800 C   0  0  0  0  0  0  0  0  0  0  0  0
  184.5090  178.7300  147.0350 O   0  0  0  0  0  1  0  0  0  0  0  0
  186.6250  177.8580  143.5240 C   0  0  0  0  0  3  0  0  0  0  0  0
  189.1970  177.0660  146.0950 C   0  0  0  0  0  3  0  0  0  0  0  0
  184.6140  178.6120  144.6360 C   0  0  0  0  0  3  0  0  0  0  0  0
  185.3100  178.3220  143.4610 C   0  0  0  0  0  0  0  0  0  0  0  0
  186.5470  177.9670  145.9520 C   0  0  0  0  0  0  0  0  0  0  0  0
  189.4170  176.9110  143.6080 C   0  0  0  0  0  0  0  0  0  0  0  0
  190.3650  175.7470  143.8240 C   0  0  0  0  0  2  0  0  0  0  0  0
  189.2300  175.6220  142.8270 C   0  0  0  0  0  2  0  0  0  0  0  0
  190.1000  178.0160  142.9240 N   0  0  0  0  0  2  0  0  0  0  0  0
  192.0570  179.1470  143.9540 C   0  0  0  0  0  1  0  0  0  0  0  0
  191.5590  178.0000  143.0910 C   0  0  0  0  0  3  0  0  0  0  0  0
  192.3140  177.9170  141.7720 C   0  0  0  0  0  1  0  0  0  0  0  0
  184.6630  178.5390  142.1380 C   0  0  0  0  0  2  0  0  0  0  0  0
  185.7160  178.8920  141.0930 C   0  0  0  0  0  2  0  0  0  0  0  0
  185.2170  178.6510  139.6730 C   0  0  1  0  0  3  0  0  0  0  0  0
  184.5700  179.7890  139.1840 O   0  0  0  0  0  1  0  0  0  0  0  0
  186.3600  178.2500  138.7530 C   0  0  0  0  0  2  0  0  0  0  0  0
  187.6260  178.0240  139.5550 C   0  0  0  0  0  2  0  0  0  0  0  0
  188.8060  178.6110  138.8110 C   0  0  0  0  0  1  0  0  0  0  0  0
  1  8  1  0  0  0  0
  2  1  2  0  0  0  0
  2 11  1  0  0  0  0
  4  3  1  0  0  0  0
  5 11  1  0  0  0  0
  5  6  1  0  0  0  0
  7  2  1  0  0  0  0
  8  3  2  0  0  0  0
  9  5  2  0  0  0  0
 10  7  2  0  0  0  0
 10  9  1  0  0  0  0
 11  4  2  0  0  0  0
 12 13  1  0  0  0  0
 12  1  1  0  0  0  0
 14 12  1  0  0  0  0
 14 13  1  0  0  0  0
 15 17  1  0  0  0  0
 15 12  1  0  0  0  0
 17 16  1  0  0  0  0
 18 17  1  0  0  0  0
 19 10  1  0  0  0  0
 20 19  1  0  0  0  0
 21 22  1  6  0  0  0
 21 20  1  0  0  0  0
 23 24  1  0  0  0  0
 23 21  1  0  0  0  0
 25 24  1  0  0  0  0
M  END
>  <MODEL>
6

>  <REMARK>
 VINA RESULT:      -8.2      1.980      4.040
  Name = 
  8 active torsions:
  status: ('A' for Active; 'I' for Inactive)
    1  A    between atoms: C_1  and  C_5
    2  A    between atoms: C_2  and  C_7
    3  A    between atoms: C_2  and  C_21
    4  A    between atoms: C_5  and  N_10
    5  A    between atoms: C_6  and  C_15
    6  A    between atoms: C_6  and  C_23
    7  A    between atoms: N_10  and  C_11
    8  A    between atoms: C_15  and  C_21
                            x       y       z     vdW  Elec       q    Type
                         _______ _______ _______ _____ _____    ______ ____

>  <TORSDO>
F 8

$$$$
=
 OpenBabel11052412513D

 25 27  0  0  1  0  0  0  0  0999 V2000
  190.0930  177.8730  142.0020 C   0  0  0  0  0  0  0  0  0  0  0  0
  188.7790  178.1240  141.5440 C   0  0  0  0  0  0  0  0  0  0  0  0
  190.7840  177.3970  139.7200 C   0  0  0  0  0  3  0  0  0  0  0  0
  189.4920  177.6550  139.2620 C   0  0  0  0  0  3  0  0  0  0  0  0
  187.1750  178.2570  139.7040 C   0  0  0  0  0  0  0  0  0  0  0  0
  186.8640  178.1550  138.3520 O   0  0  0  0  0  1  0  0  0  0  0  0
  187.7520  178.4710  142.4360 C   0  0  0  0  0  3  0  0  0  0  0  0
  191.0790  177.5010  141.0790 C   0  0  0  0  0  3  0  0  0  0  0  0
  186.1700  178.6000  140.6110 C   0  0  0  0  0  3  0  0  0  0  0  0
  186.4570  178.7100  141.9730 C   0  0  0  0  0  0  0  0  0  0  0  0
  188.4810  178.0150  140.1610 C   0  0  0  0  0  0  0  0  0  0  0  0
  190.4640  177.9370  143.4640 C   0  0  0  0  0  0  0  0  0  0  0  0
  191.8110  178.5990  143.6820 C   0  0  0  0  0  2  0  0  0  0  0  0
  190.5500  179.2650  144.1970 C   0  0  0  0  0  2  0  0  0  0  0  0
  190.3430  176.7250  144.2840 N   0  0  0  0  0  2  0  0  0  0  0  0
  192.0550  174.9270  144.3510 C   0  0  0  0  0  1  0  0  0  0  0  0
  191.6150  176.2840  144.8730 C   0  0  0  0  0  3  0  0  0  0  0  0
  191.6210  176.3340  146.3940 C   0  0  0  0  0  1  0  0  0  0  0  0
  185.3760  179.0500  142.9370 C   0  0  0  0  0  2  0  0  0  0  0  0
  185.4720  178.1560  144.1680 C   0  0  0  0  0  2  0  0  0  0  0  0
  185.2640  178.9350  145.4610 C   0  0  1  0  0  3  0  0  0  0  0  0
  183.9040  179.0030  145.7760 O   0  0  0  0  0  1  0  0  0  0  0  0
  186.0470  178.3130  146.6070 C   0  0  0  0  0  2  0  0  0  0  0  0
  187.4150  177.8690  146.1280 C   0  0  0  0  0  2  0  0  0  0  0  0
  188.3160  177.6360  147.3230 C   0  0  0  0  0  1  0  0  0  0  0  0
  1 12  1  0  0  0  0
  2  1  1  0  0  0  0
  2  7  1  0  0  0  0
  3  8  1  0  0  0  0
  4  3  2  0  0  0  0
  4 11  1  0  0  0  0
  5 11  1  0  0  0  0
  5  9  2  0  0  0  0
  6  5  1  0  0  0  0
  8  1  2  0  0  0  0
  9 10  1  0  0  0  0
 10  7  2  0  0  0  0
 10 19  1  0  0  0  0
 11  2  2  0  0  0  0
 12 13  1  0  0  0  0
 12 14  1  0  0  0  0
 12 15  1  0  0  0  0
 13 14  1  0  0  0  0
 15 17  1  0  0  0  0
 16 17  1  0  0  0  0
 17 18  1  0  0  0  0
 19 20  1  0  0  0  0
 20 21  1  0  0  0  0
 21 22  1  1  0  0  0
 21 23  1  0  0  0  0
 24 23  1  0  0  0  0
 24 25  1  0  0  0  0
M  END
>  <MODEL>
7

>  <REMARK>
 VINA RESULT:      -8.1      2.343      5.647
  Name = 
  8 active torsions:
  status: ('A' for Active; 'I' for Inactive)
    1  A    between atoms: C_1  and  C_5
    2  A    between atoms: C_2  and  C_7
    3  A    between atoms: C_2  and  C_21
    4  A    between atoms: C_5  and  N_10
    5  A    between atoms: C_6  and  C_15
    6  A    between atoms: C_6  and  C_23
    7  A    between atoms: N_10  and  C_11
    8  A    between atoms: C_15  and  C_21
                            x       y       z     vdW  Elec       q    Type
                         _______ _______ _______ _____ _____    ______ ____

>  <TORSDO>
F 8

$$$$
=
 OpenBabel11052412513D

 25 27  0  0  1  0  0  0  0  0999 V2000
  187.6930  177.6180  144.5900 C   0  0  0  0  0  0  0  0  0  0  0  0
  186.4050  178.0250  144.1720 C   0  0  0  0  0  0  0  0  0  0  0  0
  187.0510  178.0030  146.9040 C   0  0  0  0  0  3  0  0  0  0  0  0
  185.7760  178.3950  146.4970 C   0  0  0  0  0  3  0  0  0  0  0  0
  184.1630  178.8260  144.7260 C   0  0  0  0  0  0  0  0  0  0  0  0
  183.2040  179.2110  145.6570 O   0  0  0  0  0  1  0  0  0  0  0  0
  186.0610  178.0640  142.8120 C   0  0  0  0  0  3  0  0  0  0  0  0
  188.0030  177.6230  145.9570 C   0  0  0  0  0  3  0  0  0  0  0  0
  183.8440  178.8560  143.3660 C   0  0  0  0  0  3  0  0  0  0  0  0
  184.7880  178.4730  142.4110 C   0  0  0  0  0  0  0  0  0  0  0  0
  185.4410  178.4130  145.1380 C   0  0  0  0  0  0  0  0  0  0  0  0
  188.7740  177.2270  143.6110 C   0  0  0  0  0  0  0  0  0  0  0  0
  189.6490  176.1100  144.1430 C   0  0  0  0  0  2  0  0  0  0  0  0
  188.7690  175.8680  142.9340 C   0  0  0  0  0  2  0  0  0  0  0  0
  189.5930  178.2800  142.9970 N   0  0  0  0  0  2  0  0  0  0  0  0
  191.5460  179.3850  144.0600 C   0  0  0  0  0  1  0  0  0  0  0  0
  191.0240  178.1710  143.3120 C   0  0  0  0  0  3  0  0  0  0  0  0
  191.8820  177.8430  142.0990 C   0  0  0  0  0  1  0  0  0  0  0  0
  184.4510  178.5330  140.9630 C   0  0  0  0  0  2  0  0  0  0  0  0
  183.3000  177.5830  140.6550 C   0  0  0  0  0  2  0  0  0  0  0  0
  182.0950  178.3110  140.0690 C   0  0  1  0  0  3  0  0  0  0  0  0
  181.1760  178.6210  141.0740 O   0  0  0  0  0  1  0  0  0  0  0  0
  182.5240  179.5710  139.3310 C   0  0  0  0  0  2  0  0  0  0  0  0
  181.8380  179.6470  137.9800 C   0  0  0  0  0  2  0  0  0  0  0  0
  181.2060  181.0120  137.8130 C   0  0  0  0  0  1  0  0  0  0  0  0
  1  8  1  0  0  0  0
  2  1  2  0  0  0  0
  2 11  1  0  0  0  0
  4  3  1  0  0  0  0
  5 11  1  0  0  0  0
  5  6  1  0  0  0  0
  7  2  1  0  0  0  0
  8  3  2  0  0  0  0
  9  5  2  0  0  0  0
 10  7  2  0  0  0  0
 10  9  1  0  0  0  0
 11  4  2  0  0  0  0
 12 13  1  0  0  0  0
 12  1  1  0  0  0  0
 14 12  1  0  0  0  0
 14 13  1  0  0  0  0
 15 17  1  0  0  0  0
 15 12  1  0  0  0  0
 17 16  1  0  0  0  0
 18 17  1  0  0  0  0
 19 10  1  0  0  0  0
 20 19  1  0  0  0  0
 21 20  1  0  0  0  0
 21 22  1  1  0  0  0
 23 21  1  0  0  0  0
 24 23  1  0  0  0  0
 25 24  1  0  0  0  0
M  END
>  <MODEL>
8

>  <REMARK>
 VINA RESULT:      -7.7      2.549      4.080
  Name = 
  8 active torsions:
  status: ('A' for Active; 'I' for Inactive)
    1  A    between atoms: C_1  and  C_5
    2  A    between atoms: C_2  and  C_7
    3  A    between atoms: C_2  and  C_21
    4  A    between atoms: C_5  and  N_10
    5  A    between atoms: C_6  and  C_15
    6  A    between atoms: C_6  and  C_23
    7  A    between atoms: N_10  and  C_11
    8  A    between atoms: C_15  and  C_21
                            x       y       z     vdW  Elec       q    Type
                         _______ _______ _______ _____ _____    ______ ____

>  <TORSDO>
F 8

$$$$
=
 OpenBabel11052412513D

 25 27  0  0  1  0  0  0  0  0999 V2000
  187.1560  177.9860  142.8980 C   0  0  0  0  0  0  0  0  0  0  0  0
  186.5150  178.1790  144.1440 C   0  0  0  0  0  0  0  0  0  0  0  0
  185.1460  178.7480  141.7600 C   0  0  0  0  0  3  0  0  0  0  0  0
  184.5130  178.9500  142.9870 C   0  0  0  0  0  3  0  0  0  0  0  0
  184.5400  178.8530  145.4180 C   0  0  0  0  0  0  0  0  0  0  0  0
  183.2350  179.3310  145.4780 O   0  0  0  0  0  1  0  0  0  0  0  0
  187.1670  177.8850  145.3510 C   0  0  0  0  0  3  0  0  0  0  0  0
  186.4540  178.2650  141.7180 C   0  0  0  0  0  3  0  0  0  0  0  0
  185.2110  178.5530  146.6060 C   0  0  0  0  0  3  0  0  0  0  0  0
  186.5220  178.0740  146.5740 C   0  0  0  0  0  0  0  0  0  0  0  0
  185.1830  178.6680  144.1830 C   0  0  0  0  0  0  0  0  0  0  0  0
  188.5570  177.4360  142.7890 C   0  0  0  0  0  0  0  0  0  0  0  0
  188.9250  176.5730  143.9800 C   0  0  0  0  0  2  0  0  0  0  0  0
  188.8070  175.9490  142.6030 C   0  0  0  0  0  2  0  0  0  0  0  0
  189.6560  178.3480  142.4500 N   0  0  0  0  0  2  0  0  0  0  0  0
  191.2990  179.4250  143.9710 C   0  0  0  0  0  1  0  0  0  0  0  0
  190.8590  178.1510  143.2710 C   0  0  0  0  0  3  0  0  0  0  0  0
  192.0050  177.5010  142.5090 C   0  0  0  0  0  1  0  0  0  0  0  0
  187.2220  177.7310  147.8420 C   0  0  0  0  0  2  0  0  0  0  0  0
  188.4440  176.8690  147.5480 C   0  0  0  0  0  2  0  0  0  0  0  0
  189.7390  177.6720  147.6050 C   0  0  1  0  0  3  0  0  0  0  0  0
  189.7070  178.5750  148.6700 O   0  0  0  0  0  1  0  0  0  0  0  0
  190.9470  176.7550  147.7190 C   0  0  0  0  0  2  0  0  0  0  0  0
  191.6770  176.6800  146.3920 C   0  0  0  0  0  2  0  0  0  0  0  0
  192.1240  175.2550  146.1420 C   0  0  0  0  0  1  0  0  0  0  0  0
  1  2  1  0  0  0  0
  2 11  2  0  0  0  0
  2  7  1  0  0  0  0
  3  4  2  0  0  0  0
  4 11  1  0  0  0  0
  5  6  1  0  0  0  0
  5  9  2  0  0  0  0
  7 10  2  0  0  0  0
  8  3  1  0  0  0  0
  8  1  2  0  0  0  0
 10  9  1  0  0  0  0
 10 19  1  0  0  0  0
 11  5  1  0  0  0  0
 12  1  1  0  0  0  0
 12 13  1  0  0  0  0
 14 12  1  0  0  0  0
 14 13  1  0  0  0  0
 15 12  1  0  0  0  0
 15 17  1  0  0  0  0
 17 16  1  0  0  0  0
 18 17  1  0  0  0  0
 20 21  1  0  0  0  0
 20 19  1  0  0  0  0
 21 23  1  0  0  0  0
 21 22  1  1  0  0  0
 24 23  1  0  0  0  0
 25 24  1  0  0  0  0
M  END
>  <MODEL>
9

>  <REMARK>
 VINA RESULT:      -7.7      1.758      5.883
  Name = 
  8 active torsions:
  status: ('A' for Active; 'I' for Inactive)
    1  A    between atoms: C_1  and  C_5
    2  A    between atoms: C_2  and  C_7
    3  A    between atoms: C_2  and  C_21
    4  A    between atoms: C_5  and  N_10
    5  A    between atoms: C_6  and  C_15
    6  A    between atoms: C_6  and  C_23
    7  A    between atoms: N_10  and  C_11
    8  A    between atoms: C_15  and  C_21
                            x       y       z     vdW  Elec       q    Type
                         _______ _______ _______ _____ _____    ______ ____

>  <TORSDO>
F 8

$$$$
