=
 OpenBabel11052413143D

 31 35  0  0  1  0  0  0  0  0999 V2000
  187.2450  177.9360  147.2790 C   0  0  0  0  0  0  0  0  0  0  0  0
  187.6810  177.8220  143.5850 C   0  0  0  0  0  0  0  0  0  0  0  0
  189.1590  177.5310  143.4240 C   0  0  2  0  0  3  0  0  0  0  0  0
  182.6530  178.9440  142.5530 O   0  0  0  0  0  0  0  0  0  0  0  0
  183.2700  178.7760  141.4660 C   0  0  0  0  0  0  0  0  0  0  0  0
  191.4900  178.3190  143.9070 C   0  0  0  0  0  2  0  0  0  0  0  0
  187.1090  177.9580  144.8650 C   0  0  0  0  0  0  0  0  0  0  0  0
  185.9230  178.2450  147.3550 N   0  0  0  0  0  0  0  0  0  0  0  0
  190.0230  178.7380  143.7910 C   0  0  0  0  0  2  0  0  0  0  0  0
  185.5030  178.3030  142.6080 C   0  0  0  0  0  0  0  0  0  0  0  0
  188.0370  177.7580  148.5240 C   0  0  0  0  0  1  0  0  0  0  0  0
  188.9330  177.8600  141.0530 C   0  0  0  0  0  2  0  0  0  0  0  0
  191.8420  177.0820  143.0720 C   0  0  1  0  0  3  0  0  0  0  0  0
  184.9850  178.4380  143.8590 N   0  0  0  0  0  0  0  0  0  0  0  0
  186.8650  177.9960  142.4460 C   0  0  0  0  0  0  0  0  0  0  0  0
  184.6670  178.4650  141.4530 N   0  0  0  0  0  2  0  0  0  0  0  0
  187.8610  177.7870  146.0350 C   0  0  0  0  0  3  0  0  0  0  0  0
  191.7590  175.8230  143.9160 C   0  0  0  0  0  1  0  0  0  0  0  0
  185.7400  178.2750  144.9740 C   0  0  0  0  0  0  0  0  0  0  0  0
  185.1650  178.4150  146.2380 C   0  0  0  0  0  3  0  0  0  0  0  0
  187.4160  177.7520  141.0680 C   0  0  0  0  0  2  0  0  0  0  0  0
  189.5040  176.9970  142.0840 N   0  0  1  0  0  0  0  0  0  0  0  0
  190.9560  176.9600  141.8210 C   0  0  0  0  0  2  0  0  0  0  0  0
  183.2550  176.7550  138.2620 C   0  0  1  0  0  3  0  0  0  0  0  0
  181.6130  177.7150  139.8990 C   0  0  0  0  0  2  0  0  0  0  0  0
  184.3700  180.1850  139.2190 O   0  0  0  0  0  1  0  0  0  0  0  0
  184.0230  175.5070  137.8810 C   0  0  0  0  0  1  0  0  0  0  0  0
  182.3940  176.4660  139.4870 C   0  0  0  0  0  2  0  0  0  0  0  0
  183.4760  179.1470  138.9550 C   0  0  2  0  0  3  0  0  0  0  0  0
  182.5460  178.9040  140.1560 C   0  0  2  0  0  3  0  0  0  0  0  0
  184.2370  177.8830  138.5610 C   0  0  0  0  0  2  0  0  0  0  0  0
  1  8  1  0  0  0  0
  1 11  1  0  0  0  0
  2  7  1  0  0  0  0
  3  2  1  0  0  0  0
  3  9  1  6  0  0  0
  5  4  2  0  0  0  0
  7 19  2  0  0  0  0
  7 17  1  0  0  0  0
  9  6  1  0  0  0  0
 10 14  2  0  0  0  0
 12 21  1  0  0  0  0
 13  6  1  0  0  0  0
 13 18  1  1  0  0  0
 14 19  1  0  0  0  0
 15 10  1  0  0  0  0
 15  2  2  0  0  0  0
 16  5  1  0  0  0  0
 16 10  1  0  0  0  0
 17  1  2  0  0  0  0
 19 20  1  0  0  0  0
 20  8  2  0  0  0  0
 21 15  1  0  0  0  0
 22 12  1  6  0  0  0
 22  3  1  0  0  0  0
 23 22  1  0  0  0  0
 23 13  1  0  0  0  0
 24 27  1  1  0  0  0
 24 31  1  0  0  0  0
 24 28  1  0  0  0  0
 25 30  1  0  0  0  0
 28 25  1  0  0  0  0
 29 26  1  1  0  0  0
 29 30  1  0  0  0  0
 30  5  1  1  0  0  0
 31 29  1  0  0  0  0
M  END
>  <MODEL>
1

>  <REMARK>
 VINA RESULT:     -11.1      0.000      0.000
  Name = 
  1 active torsions:
  status: ('A' for Active; 'I' for Inactive)
    1  A    between atoms: C_9  and  C_22
                            x       y       z     vdW  Elec       q    Type
                         _______ _______ _______ _____ _____    ______ ____

>  <TORSDO>
F 1

$$$$
=
 OpenBabel11052413143D

 31 35  0  0  1  0  0  0  0  0999 V2000
  187.2320  177.9480  147.3480 C   0  0  0  0  0  0  0  0  0  0  0  0
  187.6340  177.8410  143.6500 C   0  0  0  0  0  0  0  0  0  0  0  0
  189.1130  177.5630  143.4750 C   0  0  2  0  0  3  0  0  0  0  0  0
  182.5860  178.9200  142.6660 O   0  0  0  0  0  0  0  0  0  0  0  0
  183.1950  178.7590  141.5740 C   0  0  0  0  0  0  0  0  0  0  0  0
  191.4410  178.3720  143.9370 C   0  0  0  0  0  2  0  0  0  0  0  0
  187.0730  177.9710  144.9350 C   0  0  0  0  0  0  0  0  0  0  0  0
  185.9080  178.2450  147.4360 N   0  0  0  0  0  0  0  0  0  0  0  0
  189.9700  178.7780  143.8350 C   0  0  0  0  0  2  0  0  0  0  0  0
  185.4430  178.3050  142.6940 C   0  0  0  0  0  0  0  0  0  0  0  0
  188.0370  177.7750  148.5850 C   0  0  0  0  0  1  0  0  0  0  0  0
  188.8620  177.8930  141.1060 C   0  0  0  0  0  2  0  0  0  0  0  0
  191.7960  177.1390  143.0960 C   0  0  1  0  0  3  0  0  0  0  0  0
  184.9350  178.4340  143.9500 N   0  0  0  0  0  0  0  0  0  0  0  0
  186.8060  178.0090  142.5180 C   0  0  0  0  0  0  0  0  0  0  0  0
  184.5950  178.4600  141.5470 N   0  0  0  0  0  2  0  0  0  0  0  0
  187.8380  177.8060  146.0980 C   0  0  0  0  0  3  0  0  0  0  0  0
  191.7320  175.8780  143.9400 C   0  0  0  0  0  1  0  0  0  0  0  0
  185.7030  178.2760  145.0570 C   0  0  0  0  0  0  0  0  0  0  0  0
  185.1380  178.4100  146.3270 C   0  0  0  0  0  3  0  0  0  0  0  0
  187.3460  177.7710  141.1360 C   0  0  0  0  0  2  0  0  0  0  0  0
  189.4500  177.0340  142.1310 N   0  0  1  0  0  0  0  0  0  0  0  0
  190.8990  177.0100  141.8540 C   0  0  0  0  0  2  0  0  0  0  0  0
  180.8460  176.4860  139.6570 C   0  0  1  0  0  3  0  0  0  0  0  0
  180.9370  178.8590  140.4680 C   0  0  0  0  0  2  0  0  0  0  0  0
  184.2820  177.8270  139.0860 O   0  0  0  0  0  1  0  0  0  0  0  0
  180.3390  175.0960  139.9790 C   0  0  0  0  0  1  0  0  0  0  0  0
  180.4290  177.4480  140.7650 C   0  0  0  0  0  2  0  0  0  0  0  0
  182.8930  177.8530  139.2130 C   0  0  2  0  0  3  0  0  0  0  0  0
  182.4570  178.8820  140.2710 C   0  0  2  0  0  3  0  0  0  0  0  0
  182.3660  176.4550  139.5300 C   0  0  0  0  0  2  0  0  0  0  0  0
  1  8  1  0  0  0  0
  1 11  1  0  0  0  0
  2  7  1  0  0  0  0
  3  2  1  0  0  0  0
  3  9  1  6  0  0  0
  5  4  2  0  0  0  0
  7 19  2  0  0  0  0
  7 17  1  0  0  0  0
  9  6  1  0  0  0  0
 10 14  2  0  0  0  0
 12 21  1  0  0  0  0
 13  6  1  0  0  0  0
 13 18  1  1  0  0  0
 14 19  1  0  0  0  0
 15 10  1  0  0  0  0
 15  2  2  0  0  0  0
 16  5  1  0  0  0  0
 16 10  1  0  0  0  0
 17  1  2  0  0  0  0
 19 20  1  0  0  0  0
 20  8  2  0  0  0  0
 21 15  1  0  0  0  0
 22 12  1  6  0  0  0
 22  3  1  0  0  0  0
 23 22  1  0  0  0  0
 23 13  1  0  0  0  0
 24 27  1  1  0  0  0
 24 28  1  0  0  0  0
 25 28  1  0  0  0  0
 29 26  1  1  0  0  0
 29 31  1  0  0  0  0
 29 30  1  0  0  0  0
 30 25  1  0  0  0  0
 30  5  1  1  0  0  0
 31 24  1  0  0  0  0
M  END
>  <MODEL>
2

>  <REMARK>
 VINA RESULT:     -10.4      0.819      1.256
  Name = 
  1 active torsions:
  status: ('A' for Active; 'I' for Inactive)
    1  A    between atoms: C_9  and  C_22
                            x       y       z     vdW  Elec       q    Type
                         _______ _______ _______ _____ _____    ______ ____

>  <TORSDO>
F 1

$$$$
=
 OpenBabel11052413143D

 31 35  0  0  1  0  0  0  0  0999 V2000
  185.5990  178.3960  145.5700 C   0  0  0  0  0  0  0  0  0  0  0  0
  188.4250  177.5130  143.3150 C   0  0  0  0  0  0  0  0  0  0  0  0
  189.5300  177.1400  144.2830 C   0  0  2  0  0  3  0  0  0  0  0  0
  185.7750  178.5910  138.9090 O   0  0  0  0  0  0  0  0  0  0  0  0
  186.9280  178.1820  138.6070 C   0  0  0  0  0  0  0  0  0  0  0  0
  190.9790  177.9210  146.1740 C   0  0  0  0  0  2  0  0  0  0  0  0
  187.1650  177.9300  143.7880 C   0  0  0  0  0  0  0  0  0  0  0  0
  184.6660  178.7640  144.6520 N   0  0  0  0  0  0  0  0  0  0  0  0
  190.0950  178.3630  145.0070 C   0  0  0  0  0  2  0  0  0  0  0  0
  187.6410  177.8680  141.0380 C   0  0  0  0  0  0  0  0  0  0  0  0
  185.2730  178.4460  147.0190 C   0  0  0  0  0  1  0  0  0  0  0  0
  191.0560  176.9860  142.4300 C   0  0  0  0  0  2  0  0  0  0  0  0
  191.5910  176.5270  145.9860 C   0  0  1  0  0  3  0  0  0  0  0  0
  186.4380  178.2750  141.5280 N   0  0  0  0  0  0  0  0  0  0  0  0
  188.6610  177.4820  141.9240 C   0  0  0  0  0  0  0  0  0  0  0  0
  187.8710  177.8220  139.6220 N   0  0  0  0  0  2  0  0  0  0  0  0
  186.8640  177.9730  145.1560 C   0  0  0  0  0  3  0  0  0  0  0  0
  190.7370  175.4710  146.6650 C   0  0  0  0  0  1  0  0  0  0  0  0
  186.1780  178.3140  142.8590 C   0  0  0  0  0  0  0  0  0  0  0  0
  184.9270  178.7310  143.3170 C   0  0  0  0  0  3  0  0  0  0  0  0
  189.9550  176.9410  141.3810 C   0  0  0  0  0  2  0  0  0  0  0  0
  190.6030  176.3310  143.6550 N   0  0  1  0  0  0  0  0  0  0  0  0
  191.8030  176.1860  144.5020 C   0  0  0  0  0  2  0  0  0  0  0  0
  189.5950  176.2040  136.7820 C   0  0  1  0  0  3  0  0  0  0  0  0
  187.1310  176.6490  136.6230 C   0  0  0  0  0  2  0  0  0  0  0  0
  188.9760  179.8250  137.4440 O   0  0  0  0  0  1  0  0  0  0  0  0
  190.6390  175.2400  137.3070 C   0  0  0  0  0  1  0  0  0  0  0  0
  188.2040  175.6870  137.1350 C   0  0  0  0  0  2  0  0  0  0  0  0
  188.7680  178.5620  136.8870 C   0  0  2  0  0  3  0  0  0  0  0  0
  187.3390  178.0670  137.1670 C   0  0  2  0  0  3  0  0  0  0  0  0
  189.8200  177.5800  137.4020 C   0  0  0  0  0  2  0  0  0  0  0  0
  1 11  1  0  0  0  0
  2  7  1  0  0  0  0
  2  3  1  0  0  0  0
  3  9  1  6  0  0  0
  5  4  2  0  0  0  0
  5 16  1  0  0  0  0
  7 17  2  0  0  0  0
  8  1  2  0  0  0  0
  9  6  1  0  0  0  0
 10 14  2  0  0  0  0
 10 15  1  0  0  0  0
 13  6  1  0  0  0  0
 13 18  1  6  0  0  0
 14 19  1  0  0  0  0
 15  2  2  0  0  0  0
 16 10  1  0  0  0  0
 17  1  1  0  0  0  0
 19 20  2  0  0  0  0
 19  7  1  0  0  0  0
 20  8  1  0  0  0  0
 21 15  1  0  0  0  0
 21 12  1  0  0  0  0
 22 12  1  6  0  0  0
 22  3  1  0  0  0  0
 22 23  1  0  0  0  0
 23 13  1  0  0  0  0
 24 28  1  0  0  0  0
 24 27  1  1  0  0  0
 24 31  1  0  0  0  0
 25 28  1  0  0  0  0
 25 30  1  0  0  0  0
 29 30  1  0  0  0  0
 29 31  1  0  0  0  0
 29 26  1  1  0  0  0
 30  5  1  1  0  0  0
M  END
>  <MODEL>
3

>  <REMARK>
 VINA RESULT:      -9.8      2.544      3.870
  Name = 
  1 active torsions:
  status: ('A' for Active; 'I' for Inactive)
    1  A    between atoms: C_9  and  C_22
                            x       y       z     vdW  Elec       q    Type
                         _______ _______ _______ _____ _____    ______ ____

>  <TORSDO>
F 1

$$$$
=
 OpenBabel11052413143D

 31 35  0  0  1  0  0  0  0  0999 V2000
  190.8980  176.7530  145.8810 C   0  0  0  0  0  0  0  0  0  0  0  0
  188.2110  177.7490  143.5070 C   0  0  0  0  0  0  0  0  0  0  0  0
  187.0640  178.1200  144.4260 C   0  0  2  0  0  3  0  0  0  0  0  0
  191.0670  176.7310  139.2170 O   0  0  0  0  0  0  0  0  0  0  0  0
  189.9390  177.1700  138.8670 C   0  0  0  0  0  0  0  0  0  0  0  0
  185.5040  177.3210  146.2180 C   0  0  0  0  0  2  0  0  0  0  0  0
  189.4360  177.2960  144.0330 C   0  0  0  0  0  0  0  0  0  0  0  0
  191.8710  176.3910  145.0030 N   0  0  0  0  0  0  0  0  0  0  0  0
  186.4400  176.8910  145.0870 C   0  0  0  0  0  2  0  0  0  0  0  0
  189.1070  177.4370  141.2650 C   0  0  0  0  0  0  0  0  0  0  0  0
  191.1470  176.6600  147.3430 C   0  0  0  0  0  1  0  0  0  0  0  0
  185.6400  178.3510  142.5020 C   0  0  0  0  0  2  0  0  0  0  0  0
  184.9290  178.7310  146.0360 C   0  0  1  0  0  3  0  0  0  0  0  0
  190.2740  176.9940  141.8060 N   0  0  0  0  0  0  0  0  0  0  0  0
  188.0480  177.8210  142.1070 C   0  0  0  0  0  0  0  0  0  0  0  0
  188.9510  177.5240  139.8410 N   0  0  0  0  0  2  0  0  0  0  0  0
  189.6650  177.2120  145.4130 C   0  0  0  0  0  3  0  0  0  0  0  0
  185.7660  179.7520  146.7850 C   0  0  0  0  0  1  0  0  0  0  0  0
  190.4630  176.9160  143.1470 C   0  0  0  0  0  0  0  0  0  0  0  0
  191.6800  176.4620  143.6580 C   0  0  0  0  0  3  0  0  0  0  0  0
  186.7950  178.4010  141.5130 C   0  0  0  0  0  2  0  0  0  0  0  0
  186.0410  178.9660  143.7650 N   0  0  1  0  0  0  0  0  0  0  0  0
  184.8010  179.1130  144.5520 C   0  0  0  0  0  2  0  0  0  0  0  0
  186.6990  177.4670  136.9250 C   0  0  1  0  0  3  0  0  0  0  0  0
  188.8980  178.6600  137.1270 C   0  0  0  0  0  2  0  0  0  0  0  0
  189.4320  174.9340  137.1390 O   0  0  0  0  0  1  0  0  0  0  0  0
  185.2610  177.4520  137.4000 C   0  0  0  0  0  1  0  0  0  0  0  0
  187.4380  178.6280  137.5840 C   0  0  0  0  0  2  0  0  0  0  0  0
  188.8200  176.1470  136.8200 C   0  0  2  0  0  3  0  0  0  0  0  0
  189.6070  177.3310  137.4110 C   0  0  2  0  0  3  0  0  0  0  0  0
  187.3660  176.1440  137.2860 C   0  0  0  0  0  2  0  0  0  0  0  0
  1 11  1  0  0  0  0
  2  7  1  0  0  0  0
  2  3  1  0  0  0  0
  3  9  1  6  0  0  0
  5  4  2  0  0  0  0
  5 16  1  0  0  0  0
  7 17  2  0  0  0  0
  8  1  2  0  0  0  0
  9  6  1  0  0  0  0
 10 14  2  0  0  0  0
 10 15  1  0  0  0  0
 13  6  1  0  0  0  0
 13 18  1  1  0  0  0
 14 19  1  0  0  0  0
 15  2  2  0  0  0  0
 16 10  1  0  0  0  0
 17  1  1  0  0  0  0
 19 20  2  0  0  0  0
 19  7  1  0  0  0  0
 20  8  1  0  0  0  0
 21 15  1  0  0  0  0
 21 12  1  0  0  0  0
 22 12  1  6  0  0  0
 22  3  1  0  0  0  0
 22 23  1  0  0  0  0
 23 13  1  0  0  0  0
 24 31  1  0  0  0  0
 24 27  1  1  0  0  0
 24 28  1  0  0  0  0
 25 30  1  0  0  0  0
 25 28  1  0  0  0  0
 29 26  1  1  0  0  0
 29 31  1  0  0  0  0
 29 30  1  0  0  0  0
 30  5  1  1  0  0  0
M  END
>  <MODEL>
4

>  <REMARK>
 VINA RESULT:      -9.8      2.996      5.492
  Name = 
  1 active torsions:
  status: ('A' for Active; 'I' for Inactive)
    1  A    between atoms: C_9  and  C_22
                            x       y       z     vdW  Elec       q    Type
                         _______ _______ _______ _____ _____    ______ ____

>  <TORSDO>
F 1

$$$$
=
 OpenBabel11052413143D

 31 35  0  0  1  0  0  0  0  0999 V2000
  186.7720  178.0470  146.6270 C   0  0  0  0  0  0  0  0  0  0  0  0
  187.7660  177.9360  143.0420 C   0  0  0  0  0  0  0  0  0  0  0  0
  189.2430  177.6050  143.1080 C   0  0  2  0  0  3  0  0  0  0  0  0
  182.9880  179.2040  141.2620 O   0  0  0  0  0  0  0  0  0  0  0  0
  183.7590  179.0240  140.2810 C   0  0  0  0  0  0  0  0  0  0  0  0
  191.4930  178.3250  143.9490 C   0  0  0  0  0  2  0  0  0  0  0  0
  187.0090  178.0830  144.2210 C   0  0  0  0  0  0  0  0  0  0  0  0
  185.4630  178.3920  146.5020 N   0  0  0  0  0  0  0  0  0  0  0  0
  190.0730  178.7850  143.6130 C   0  0  0  0  0  2  0  0  0  0  0  0
  185.7780  178.4830  141.7480 C   0  0  0  0  0  0  0  0  0  0  0  0
  187.3590  177.8400  147.9770 C   0  0  0  0  0  1  0  0  0  0  0  0
  189.3930  177.9510  140.7320 C   0  0  0  0  0  2  0  0  0  0  0  0
  191.9350  177.0820  143.1660 C   0  0  1  0  0  3  0  0  0  0  0  0
  185.0780  178.6270  142.9060 N   0  0  0  0  0  0  0  0  0  0  0  0
  187.1400  178.1380  141.7930 C   0  0  0  0  0  0  0  0  0  0  0  0
  185.1340  178.6740  140.4800 N   0  0  0  0  0  2  0  0  0  0  0  0
  187.5680  177.8860  145.4910 C   0  0  0  0  0  3  0  0  0  0  0  0
  191.6890  175.8220  143.9760 C   0  0  0  0  0  1  0  0  0  0  0  0
  185.6490  178.4370  144.1220 C   0  0  0  0  0  0  0  0  0  0  0  0
  184.8900  178.5880  145.2840 C   0  0  0  0  0  3  0  0  0  0  0  0
  187.8880  177.8850  140.5140 C   0  0  0  0  0  2  0  0  0  0  0  0
  189.7750  177.0670  141.8320 N   0  0  1  0  0  0  0  0  0  0  0  0
  191.2480  176.9910  141.7930 C   0  0  0  0  0  2  0  0  0  0  0  0
  180.3070  179.0050  138.7220 C   0  0  1  0  0  3  0  0  0  0  0  0
  182.3750  180.4260  138.7180 C   0  0  0  0  0  2  0  0  0  0  0  0
  183.3000  176.7820  138.5480 O   0  0  0  0  0  1  0  0  0  0  0  0
  178.9420  178.8240  139.3520 C   0  0  0  0  0  1  0  0  0  0  0  0
  180.9890  180.2260  139.3320 C   0  0  0  0  0  2  0  0  0  0  0  0
  182.5300  177.9280  138.3390 C   0  0  2  0  0  3  0  0  0  0  0  0
  183.2490  179.1770  138.8770 C   0  0  2  0  0  3  0  0  0  0  0  0
  181.1470  177.7550  138.9630 C   0  0  0  0  0  2  0  0  0  0  0  0
  1 11  1  0  0  0  0
  2  3  1  0  0  0  0
  2  7  1  0  0  0  0
  3  9  1  6  0  0  0
  5 16  1  0  0  0  0
  5  4  2  0  0  0  0
  7 17  1  0  0  0  0
  8  1  1  0  0  0  0
  9  6  1  0  0  0  0
 10 15  1  0  0  0  0
 10 14  2  0  0  0  0
 13  6  1  0  0  0  0
 13 18  1  1  0  0  0
 14 19  1  0  0  0  0
 15  2  2  0  0  0  0
 16 10  1  0  0  0  0
 17  1  2  0  0  0  0
 19  7  2  0  0  0  0
 19 20  1  0  0  0  0
 20  8  2  0  0  0  0
 21 12  1  0  0  0  0
 21 15  1  0  0  0  0
 22 12  1  6  0  0  0
 22  3  1  0  0  0  0
 23 22  1  0  0  0  0
 23 13  1  0  0  0  0
 24 31  1  0  0  0  0
 24 28  1  0  0  0  0
 24 27  1  1  0  0  0
 25 30  1  0  0  0  0
 25 28  1  0  0  0  0
 29 26  1  1  0  0  0
 29 30  1  0  0  0  0
 29 31  1  0  0  0  0
 30  5  1  1  0  0  0
M  END
>  <MODEL>
5

>  <REMARK>
 VINA RESULT:      -9.6      1.277      1.967
  Name = 
  1 active torsions:
  status: ('A' for Active; 'I' for Inactive)
    1  A    between atoms: C_9  and  C_22
                            x       y       z     vdW  Elec       q    Type
                         _______ _______ _______ _____ _____    ______ ____

>  <TORSDO>
F 1

$$$$
=
 OpenBabel11052413143D

 31 35  0  0  1  0  0  0  0  0999 V2000
  185.5950  178.2410  145.5750 C   0  0  0  0  0  0  0  0  0  0  0  0
  188.6950  177.3990  143.6970 C   0  0  0  0  0  0  0  0  0  0  0  0
  189.6710  177.0300  144.7960 C   0  0  2  0  0  3  0  0  0  0  0  0
  186.6190  178.4800  138.9930 O   0  0  0  0  0  0  0  0  0  0  0  0
  187.8060  178.0840  138.8390 C   0  0  0  0  0  0  0  0  0  0  0  0
  190.8570  177.8120  146.8610 C   0  0  0  0  0  2  0  0  0  0  0  0
  187.3810  177.8000  144.0060 C   0  0  0  0  0  0  0  0  0  0  0  0
  184.7830  178.6050  144.5470 N   0  0  0  0  0  0  0  0  0  0  0  0
  190.1250  178.2530  145.5930 C   0  0  0  0  0  2  0  0  0  0  0  0
  188.2050  177.7600  141.3400 C   0  0  0  0  0  0  0  0  0  0  0  0
  185.0850  178.2780  146.9710 C   0  0  0  0  0  1  0  0  0  0  0  0
  191.4220  176.9020  143.1540 C   0  0  0  0  0  2  0  0  0  0  0  0
  191.5020  176.4260  146.7460 C   0  0  1  0  0  3  0  0  0  0  0  0
  186.9450  178.1530  141.6740 N   0  0  0  0  0  0  0  0  0  0  0  0
  189.1080  177.3780  142.3470 C   0  0  0  0  0  0  0  0  0  0  0  0
  188.6150  177.7260  139.9650 N   0  0  0  0  0  2  0  0  0  0  0  0
  186.9060  177.8320  145.3240 C   0  0  0  0  0  3  0  0  0  0  0  0
  190.5790  175.3570  147.3040 C   0  0  0  0  0  1  0  0  0  0  0  0
  186.5170  178.1810  142.9600 C   0  0  0  0  0  0  0  0  0  0  0  0
  185.2130  178.5840  143.2570 C   0  0  0  0  0  3  0  0  0  0  0  0
  190.4650  176.8530  141.9720 C   0  0  0  0  0  2  0  0  0  0  0  0
  190.8230  176.2350  144.3070 N   0  0  1  0  0  0  0  0  0  0  0  0
  191.9060  176.0960  145.3000 C   0  0  0  0  0  2  0  0  0  0  0  0
  186.9700  176.0390  135.7610 C   0  0  1  0  0  3  0  0  0  0  0  0
  187.4130  178.4300  136.3790 C   0  0  0  0  0  2  0  0  0  0  0  0
  189.8260  176.1580  138.1620 O   0  0  0  0  0  1  0  0  0  0  0  0
  185.8830  175.0110  135.5260 C   0  0  0  0  0  1  0  0  0  0  0  0
  186.3340  177.3760  136.1270 C   0  0  0  0  0  2  0  0  0  0  0  0
  188.9810  176.5940  137.1400 C   0  0  2  0  0  3  0  0  0  0  0  0
  188.3990  177.9810  137.4630 C   0  0  2  0  0  3  0  0  0  0  0  0
  187.8840  175.5620  136.8860 C   0  0  0  0  0  2  0  0  0  0  0  0
  1 11  1  0  0  0  0
  2  7  1  0  0  0  0
  2  3  1  0  0  0  0
  3  9  1  6  0  0  0
  5  4  2  0  0  0  0
  5 16  1  0  0  0  0
  7 17  2  0  0  0  0
  8  1  2  0  0  0  0
  9  6  1  0  0  0  0
 10 14  2  0  0  0  0
 10 15  1  0  0  0  0
 13  6  1  0  0  0  0
 13 18  1  6  0  0  0
 14 19  1  0  0  0  0
 15  2  2  0  0  0  0
 16 10  1  0  0  0  0
 17  1  1  0  0  0  0
 19 20  2  0  0  0  0
 19  7  1  0  0  0  0
 20  8  1  0  0  0  0
 21 15  1  0  0  0  0
 21 12  1  0  0  0  0
 22 12  1  6  0  0  0
 22  3  1  0  0  0  0
 22 23  1  0  0  0  0
 23 13  1  0  0  0  0
 24 27  1  1  0  0  0
 24 28  1  0  0  0  0
 24 31  1  0  0  0  0
 25 30  1  0  0  0  0
 28 25  1  0  0  0  0
 29 30  1  0  0  0  0
 29 26  1  1  0  0  0
 30  5  1  1  0  0  0
 31 29  1  0  0  0  0
M  END
>  <MODEL>
6

>  <REMARK>
 VINA RESULT:      -9.2      2.650      3.946
  Name = 
  1 active torsions:
  status: ('A' for Active; 'I' for Inactive)
    1  A    between atoms: C_9  and  C_22
                            x       y       z     vdW  Elec       q    Type
                         _______ _______ _______ _____ _____    ______ ____

>  <TORSDO>
F 1

$$$$
=
 OpenBabel11052413143D

 31 35  0  0  1  0  0  0  0  0999 V2000
  191.0770  176.7760  145.4540 C   0  0  0  0  0  0  0  0  0  0  0  0
  187.9130  177.7870  143.7760 C   0  0  0  0  0  0  0  0  0  0  0  0
  187.0070  178.1390  144.9390 C   0  0  2  0  0  3  0  0  0  0  0  0
  189.7090  176.8430  138.9300 O   0  0  0  0  0  0  0  0  0  0  0  0
  188.5290  177.2810  138.8540 C   0  0  0  0  0  0  0  0  0  0  0  0
  185.9030  177.3060  147.0310 C   0  0  0  0  0  2  0  0  0  0  0  0
  189.2280  177.3350  143.9990 C   0  0  0  0  0  0  0  0  0  0  0  0
  191.8230  176.4320  144.3700 N   0  0  0  0  0  0  0  0  0  0  0  0
  186.5550  176.8970  145.7090 C   0  0  0  0  0  2  0  0  0  0  0  0
  188.2700  177.5110  141.3840 C   0  0  0  0  0  0  0  0  0  0  0  0
  191.6560  176.6660  146.8180 C   0  0  0  0  0  1  0  0  0  0  0  0
  185.1780  178.3870  143.3970 C   0  0  0  0  0  2  0  0  0  0  0  0
  185.2980  178.7150  147.0050 C   0  0  1  0  0  3  0  0  0  0  0  0
  189.5320  177.0680  141.6350 N   0  0  0  0  0  0  0  0  0  0  0  0
  187.4320  177.8770  142.4510 C   0  0  0  0  0  0  0  0  0  0  0  0
  187.7910  177.6150  140.0350 N   0  0  0  0  0  2  0  0  0  0  0  0
  189.7680  177.2340  145.2880 C   0  0  0  0  0  3  0  0  0  0  0  0
  186.2820  179.7320  147.5570 C   0  0  0  0  0  1  0  0  0  0  0  0
  190.0250  176.9730  142.8950 C   0  0  0  0  0  0  0  0  0  0  0  0
  191.3280  176.5200  143.1060 C   0  0  0  0  0  3  0  0  0  0  0  0
  186.0740  178.4570  142.1700 C   0  0  0  0  0  2  0  0  0  0  0  0
  185.8570  178.9870  144.5430 N   0  0  1  0  0  0  0  0  0  0  0  0
  184.8310  179.1170  145.5970 C   0  0  0  0  0  2  0  0  0  0  0  0
  189.5080  176.3970  135.3030 C   0  0  1  0  0  3  0  0  0  0  0  0
  187.5530  176.1150  136.8510 C   0  0  0  0  0  2  0  0  0  0  0  0
  188.9940  179.5750  137.1920 O   0  0  0  0  0  1  0  0  0  0  0  0
  190.7540  175.7280  134.7620 C   0  0  0  0  0  1  0  0  0  0  0  0
  188.8120  175.4570  136.2820 C   0  0  0  0  0  2  0  0  0  0  0  0
  188.6470  178.3800  136.5600 C   0  0  2  0  0  3  0  0  0  0  0  0
  187.8700  177.4580  137.5160 C   0  0  2  0  0  3  0  0  0  0  0  0
  189.8940  177.6970  136.0020 C   0  0  0  0  0  2  0  0  0  0  0  0
  1 11  1  0  0  0  0
  2  7  1  0  0  0  0
  2  3  1  0  0  0  0
  3  9  1  6  0  0  0
  5  4  2  0  0  0  0
  5 16  1  0  0  0  0
  7 17  2  0  0  0  0
  8  1  2  0  0  0  0
  9  6  1  0  0  0  0
 10 14  2  0  0  0  0
 10 15  1  0  0  0  0
 13  6  1  0  0  0  0
 13 18  1  6  0  0  0
 14 19  1  0  0  0  0
 15  2  2  0  0  0  0
 16 10  1  0  0  0  0
 17  1  1  0  0  0  0
 19 20  2  0  0  0  0
 19  7  1  0  0  0  0
 20  8  1  0  0  0  0
 21 15  1  0  0  0  0
 21 12  1  0  0  0  0
 22 12  1  6  0  0  0
 22  3  1  0  0  0  0
 22 23  1  0  0  0  0
 23 13  1  0  0  0  0
 24 27  1  1  0  0  0
 24 31  1  0  0  0  0
 24 28  1  0  0  0  0
 25 30  1  0  0  0  0
 28 25  1  0  0  0  0
 29 26  1  1  0  0  0
 29 30  1  0  0  0  0
 30  5  1  1  0  0  0
 31 29  1  0  0  0  0
M  END
>  <MODEL>
7

>  <REMARK>
 VINA RESULT:      -9.1      3.138      5.543
  Name = 
  1 active torsions:
  status: ('A' for Active; 'I' for Inactive)
    1  A    between atoms: C_9  and  C_22
                            x       y       z     vdW  Elec       q    Type
                         _______ _______ _______ _____ _____    ______ ____

>  <TORSDO>
F 1

$$$$
=
 OpenBabel11052413143D

 31 35  0  0  1  0  0  0  0  0999 V2000
  190.4660  177.3650  142.7720 C   0  0  0  0  0  0  0  0  0  0  0  0
  187.1740  178.1180  144.3350 C   0  0  0  0  0  0  0  0  0  0  0  0
  187.4770  178.0550  145.8180 C   0  0  2  0  0  3  0  0  0  0  0  0
  184.6390  178.5290  139.7510 O   0  0  0  0  0  0  0  0  0  0  0  0
  183.8300  178.7550  140.6910 C   0  0  0  0  0  0  0  0  0  0  0  0
  188.3060  176.6250  147.7040 C   0  0  0  0  0  2  0  0  0  0  0  0
  188.1820  177.8710  143.3820 C   0  0  0  0  0  0  0  0  0  0  0  0
  190.1190  177.3900  141.4580 N   0  0  0  0  0  0  0  0  0  0  0  0
  187.7140  176.6210  146.2930 C   0  0  0  0  0  2  0  0  0  0  0  0
  185.5850  178.4090  142.5130 C   0  0  0  0  0  0  0  0  0  0  0  0
  191.8720  177.0810  143.1620 C   0  0  0  0  0  1  0  0  0  0  0  0
  185.1270  178.2840  146.2750 C   0  0  0  0  0  2  0  0  0  0  0  0
  187.9490  177.8780  148.5140 C   0  0  1  0  0  3  0  0  0  0  0  0
  186.5800  178.1560  141.6200 N   0  0  0  0  0  0  0  0  0  0  0  0
  185.8610  178.3910  143.8910 C   0  0  0  0  0  0  0  0  0  0  0  0
  184.2560  178.7010  142.0570 N   0  0  0  0  0  2  0  0  0  0  0  0
  189.5060  177.6050  143.7570 C   0  0  0  0  0  3  0  0  0  0  0  0
  189.0500  178.9180  148.4050 C   0  0  0  0  0  1  0  0  0  0  0  0
  187.8510  177.8930  142.0130 C   0  0  0  0  0  0  0  0  0  0  0  0
  188.8430  177.6460  141.0620 C   0  0  0  0  0  3  0  0  0  0  0  0
  184.7860  178.7650  144.8730 C   0  0  0  0  0  2  0  0  0  0  0  0
  186.4620  178.7470  146.6490 N   0  0  1  0  0  0  0  0  0  0  0  0
  186.5950  178.4710  148.0920 C   0  0  0  0  0  2  0  0  0  0  0  0
  181.3260  177.5240  138.1290 C   0  0  1  0  0  3  0  0  0  0  0  0
  181.4740  177.8780  140.6090 C   0  0  0  0  0  2  0  0  0  0  0  0
  183.0640  180.7610  138.7850 O   0  0  0  0  0  1  0  0  0  0  0  0
  181.4700  176.5000  137.0230 C   0  0  0  0  0  1  0  0  0  0  0  0
  181.6050  176.8610  139.4740 C   0  0  0  0  0  2  0  0  0  0  0  0
  182.1760  179.7060  139.0040 C   0  0  2  0  0  3  0  0  0  0  0  0
  182.3950  179.0840  140.3940 C   0  0  2  0  0  3  0  0  0  0  0  0
  182.3050  178.6690  137.8910 C   0  0  0  0  0  2  0  0  0  0  0  0
  1 11  1  0  0  0  0
  1 17  1  0  0  0  0
  2  3  1  0  0  0  0
  3  9  1  1  0  0  0
  3 22  1  0  0  0  0
  4  5  2  0  0  0  0
  5 16  1  0  0  0  0
  6 13  1  0  0  0  0
  7 17  2  0  0  0  0
  7  2  1  0  0  0  0
  8  1  2  0  0  0  0
  9  6  1  0  0  0  0
 10 15  1  0  0  0  0
 13 18  1  6  0  0  0
 14 19  1  0  0  0  0
 14 10  2  0  0  0  0
 15  2  2  0  0  0  0
 15 21  1  0  0  0  0
 16 10  1  0  0  0  0
 19  7  1  0  0  0  0
 20  8  1  0  0  0  0
 20 19  2  0  0  0  0
 21 12  1  0  0  0  0
 22 12  1  6  0  0  0
 22 23  1  0  0  0  0
 23 13  1  0  0  0  0
 24 27  1  6  0  0  0
 24 28  1  0  0  0  0
 28 25  1  0  0  0  0
 29 26  1  6  0  0  0
 29 30  1  0  0  0  0
 30 25  1  0  0  0  0
 30  5  1  6  0  0  0
 31 24  1  0  0  0  0
 31 29  1  0  0  0  0
M  END
>  <MODEL>
8

>  <REMARK>
 VINA RESULT:      -8.8      1.338      4.154
  Name = 
  1 active torsions:
  status: ('A' for Active; 'I' for Inactive)
    1  A    between atoms: C_9  and  C_22
                            x       y       z     vdW  Elec       q    Type
                         _______ _______ _______ _____ _____    ______ ____

>  <TORSDO>
F 1

$$$$
=
 OpenBabel11052413143D

 31 35  0  0  1  0  0  0  0  0999 V2000
  181.9450  178.9000  143.7750 C   0  0  0  0  0  0  0  0  0  0  0  0
  184.4210  178.4610  141.0310 C   0  0  0  0  0  0  0  0  0  0  0  0
  183.5550  178.4620  139.7870 C   0  0  2  0  0  3  0  0  0  0  0  0
  188.5480  178.1270  144.2650 O   0  0  0  0  0  0  0  0  0  0  0  0
  188.9500  178.0410  143.0720 C   0  0  0  0  0  0  0  0  0  0  0  0
  181.6670  177.3410  138.5760 C   0  0  0  0  0  2  0  0  0  0  0  0
  183.8440  178.5940  142.3090 C   0  0  0  0  0  0  0  0  0  0  0  0
  182.7710  178.8440  144.8540 N   0  0  0  0  0  0  0  0  0  0  0  0
  182.7350  177.1780  139.6590 C   0  0  0  0  0  2  0  0  0  0  0  0
  186.6050  178.2530  142.0860 C   0  0  0  0  0  0  0  0  0  0  0  0
  180.4840  179.0930  143.9690 C   0  0  0  0  0  1  0  0  0  0  0  0
  185.4880  177.8770  138.4810 C   0  0  0  0  0  2  0  0  0  0  0  0
  182.0330  178.3790  137.5070 C   0  0  1  0  0  3  0  0  0  0  0  0
  186.0140  178.3740  143.3060 N   0  0  0  0  0  0  0  0  0  0  0  0
  185.8180  178.2910  140.9220 C   0  0  0  0  0  0  0  0  0  0  0  0
  188.0270  178.0950  141.9790 N   0  0  0  0  0  2  0  0  0  0  0  0
  182.4650  178.7770  142.4850 C   0  0  0  0  0  3  0  0  0  0  0  0
  181.4280  179.7310  137.8420 C   0  0  0  0  0  1  0  0  0  0  0  0
  184.6750  178.5420  143.4450 C   0  0  0  0  0  0  0  0  0  0  0  0
  184.1130  178.6690  144.7160 C   0  0  0  0  0  3  0  0  0  0  0  0
  186.4790  178.2550  139.5720 C   0  0  0  0  0  2  0  0  0  0  0  0
  184.3190  178.7500  138.5480 N   0  0  1  0  0  0  0  0  0  0  0  0
  183.5540  178.4950  137.3120 C   0  0  0  0  0  2  0  0  0  0  0  0
  191.8410  176.4220  144.9080 C   0  0  1  0  0  3  0  0  0  0  0  0
  190.8060  176.4050  142.6220 C   0  0  0  0  0  2  0  0  0  0  0  0
  190.9300  179.9170  143.9690 O   0  0  0  0  0  1  0  0  0  0  0  0
  191.8850  175.7080  146.2430 C   0  0  0  0  0  1  0  0  0  0  0  0
  190.8750  175.6970  143.9760 C   0  0  0  0  0  2  0  0  0  0  0  0
  191.3340  178.5940  143.7790 C   0  0  2  0  0  3  0  0  0  0  0  0
  190.4130  177.8780  142.7760 C   0  0  2  0  0  3  0  0  0  0  0  0
  191.3900  177.8630  145.1190 C   0  0  0  0  0  2  0  0  0  0  0  0
  1 11  1  0  0  0  0
  1  8  1  0  0  0  0
  2  7  1  0  0  0  0
  3  9  1  6  0  0  0
  3  2  1  0  0  0  0
  5  4  2  0  0  0  0
  6  9  1  0  0  0  0
  7 17  1  0  0  0  0
  7 19  2  0  0  0  0
 10 14  2  0  0  0  0
 12 22  1  0  0  0  0
 12 21  1  0  0  0  0
 13 18  1  1  0  0  0
 13  6  1  0  0  0  0
 14 19  1  0  0  0  0
 15  2  2  0  0  0  0
 15 10  1  0  0  0  0
 16 10  1  0  0  0  0
 16  5  1  0  0  0  0
 17  1  2  0  0  0  0
 19 20  1  0  0  0  0
 20  8  2  0  0  0  0
 21 15  1  0  0  0  0
 22 23  1  6  0  0  0
 22  3  1  0  0  0  0
 23 13  1  0  0  0  0
 24 31  1  0  0  0  0
 24 27  1  1  0  0  0
 25 30  1  0  0  0  0
 25 28  1  0  0  0  0
 28 24  1  0  0  0  0
 29 26  1  1  0  0  0
 29 31  1  0  0  0  0
 30  5  1  1  0  0  0
 30 29  1  0  0  0  0
M  END
>  <MODEL>
9

>  <REMARK>
 VINA RESULT:      -8.2      2.588      7.489
  Name = 
  1 active torsions:
  status: ('A' for Active; 'I' for Inactive)
    1  A    between atoms: C_9  and  C_22
                            x       y       z     vdW  Elec       q    Type
                         _______ _______ _______ _____ _____    ______ ____

>  <TORSDO>
F 1

$$$$
