=
 OpenBabel11052414313D

 32 36  0  0  1  0  0  0  0  0999 V2000
  190.0520  177.7050  142.0740 C   0  0  1  0  0  3  0  0  0  0  0  0
  188.2860  177.1480  140.2560 C   0  0  0  0  0  2  0  0  0  0  0  0
  191.4020  177.6830  142.4720 O   0  0  0  0  0  0  0  0  0  0  0  0
  189.7070  177.5770  140.4840 C   0  0  2  0  0  0  0  0  0  0  0  0
  189.5190  176.5730  136.4200 C   0  0  0  0  0  2  0  0  0  0  0  0
  185.3530  178.2330  138.0100 C   0  0  0  0  0  1  0  0  0  0  0  0
  187.8330  177.9890  137.6130 C   0  0  1  0  0  3  0  0  0  0  0  0
  186.5860  177.5380  137.2970 C   0  0  2  0  0  3  0  0  0  0  0  0
  190.8110  177.2000  139.5150 C   0  0  2  0  0  3  0  0  0  0  0  0
  188.9040  177.7600  136.7500 O   0  0  0  0  0  0  0  0  0  0  0  0
  190.5580  175.9920  138.5940 C   0  0  0  0  0  2  0  0  0  0  0  0
  192.2190  177.0840  140.1490 C   0  0  0  0  0  2  0  0  0  0  0  0
  188.6020  178.6160  140.1200 C   0  0  1  0  0  3  0  0  0  0  0  0
  190.9000  176.4730  137.1600 C   0  0  1  0  0  3  0  0  0  0  0  0
  192.3650  177.8700  141.4630 C   0  0  0  0  0  2  0  0  0  0  0  0
  188.1380  178.9210  138.7320 O   0  0  0  0  0  0  0  0  0  0  0  0
  186.0160  177.5000  134.7220 C   0  0  0  0  0  1  0  0  0  0  0  0
  186.2590  176.6790  136.0490 C   0  0  0  0  0  2  0  0  0  0  0  0
  192.4930  175.8550  136.3830 S   0  0  0  0  0  0  0  0  0  0  0  0
  192.4860  174.4590  137.4720 C   0  0  0  0  0  1  0  0  0  0  0  0
  190.0620  175.3490  143.1800 C   0  0  0  0  0  1  0  0  0  0  0  0
  189.3070  176.6850  142.9200 C   0  0  1  0  0  3  0  0  0  0  0  0
  188.6340  177.3200  144.1940 C   0  0  2  0  0  3  0  0  0  0  0  0
  188.5280  177.3340  146.8820 C   0  0  0  0  0  1  0  0  0  0  0  0
  189.3970  177.0950  145.5770 C   0  0  2  0  0  3  0  0  0  0  0  0
  190.6070  177.7300  145.6260 O   0  0  0  0  0  1  0  0  0  0  0  0
  187.0940  177.2860  144.5510 C   0  0  0  0  0  2  0  0  0  0  0  0
  185.5070  177.8630  142.9690 C   0  0  0  0  0  2  0  0  0  0  0  0
  186.3650  178.5060  144.0380 C   0  0  2  0  0  0  0  0  0  0  0  0
  184.8780  179.0440  143.7870 C   0  0  2  0  0  3  0  0  0  0  0  0
  185.0540  178.0840  146.2290 C   0  0  0  0  0  1  0  0  0  0  0  0
  185.5290  179.1680  145.1530 C   0  0  1  0  0  3  0  0  0  0  0  0
  1  3  1  0  0  0  0
  1 22  1  1  0  0  0
  4  2  1  6  0  0  0
  4  1  1  0  0  0  0
  5 10  1  0  0  0  0
  5 14  1  0  0  0  0
  7  8  1  6  0  0  0
  7 16  1  0  0  0  0
  8  6  1  6  0  0  0
  9 11  1  1  0  0  0
  9 12  1  0  0  0  0
  9  4  1  0  0  0  0
 10  7  1  0  0  0  0
 12 15  1  0  0  0  0
 13  2  1  1  0  0  0
 13  4  1  0  0  0  0
 14 19  1  6  0  0  0
 14 11  1  0  0  0  0
 15  3  1  0  0  0  0
 16 13  1  0  0  0  0
 17 18  1  0  0  0  0
 18  8  1  0  0  0  0
 19 20  1  0  0  0  0
 22 21  1  1  0  0  0
 22 23  1  0  0  0  0
 23 27  1  1  0  0  0
 23 25  1  0  0  0  0
 25 26  1  0  0  0  0
 25 24  1  1  0  0  0
 28 29  1  0  0  0  0
 29 27  1  6  0  0  0
 29 32  1  0  0  0  0
 30 28  1  1  0  0  0
 30 29  1  0  0  0  0
 30 32  1  0  0  0  0
 32 31  1  1  0  0  0
M  END
>  <MODEL>
1

>  <REMARK>
 VINA RESULT:      -7.6      0.000      0.000
  Name = 
  7 active torsions:
  status: ('A' for Active; 'I' for Inactive)
    1  A    between atoms: C_1  and  C_27
    2  A    between atoms: C_7  and  C_20
    3  A    between atoms: C_12  and  C_31
    4  A    between atoms: S_13  and  C_29
    5  A    between atoms: C_16  and  C_20
    6  A    between atoms: C_16  and  C_22
    7  A    between atoms: C_16  and  C_27
                            x       y       z     vdW  Elec       q    Type
                         _______ _______ _______ _____ _____    ______ ____

>  <TORSDO>
F 7

$$$$
=
 OpenBabel11052414313D

 32 36  0  0  1  0  0  0  0  0999 V2000
  189.8920  177.6860  142.0900 C   0  0  1  0  0  3  0  0  0  0  0  0
  188.3960  177.0730  140.0590 C   0  0  0  0  0  2  0  0  0  0  0  0
  191.1820  177.7260  142.6510 O   0  0  0  0  0  0  0  0  0  0  0  0
  189.7530  177.5710  140.4680 C   0  0  2  0  0  0  0  0  0  0  0  0
  190.1220  176.6370  136.3990 C   0  0  0  0  0  2  0  0  0  0  0  0
  185.7080  178.0480  137.4810 C   0  0  0  0  0  1  0  0  0  0  0  0
  188.2270  177.9410  137.3920 C   0  0  1  0  0  3  0  0  0  0  0  0
  187.0550  177.4310  136.9170 C   0  0  2  0  0  3  0  0  0  0  0  0
  190.9870  177.2700  139.6390 C   0  0  2  0  0  3  0  0  0  0  0  0
  189.4070  177.7840  136.6650 O   0  0  0  0  0  0  0  0  0  0  0  0
  190.9150  176.0690  138.6780 C   0  0  0  0  0  2  0  0  0  0  0  0
  192.3100  177.2150  140.4410 C   0  0  0  0  0  2  0  0  0  0  0  0
  188.6470  178.5580  139.9820 C   0  0  1  0  0  3  0  0  0  0  0  0
  191.4040  176.5950  137.3030 C   0  0  1  0  0  3  0  0  0  0  0  0
  192.2510  177.9820  141.7720 C   0  0  0  0  0  2  0  0  0  0  0  0
  188.3410  178.8650  138.5520 O   0  0  0  0  0  0  0  0  0  0  0  0
  186.7830  175.0280  135.8680 C   0  0  0  0  0  1  0  0  0  0  0  0
  186.9310  176.5810  135.6280 C   0  0  0  0  0  2  0  0  0  0  0  0
  193.1120  176.0750  136.7220 S   0  0  0  0  0  0  0  0  0  0  0  0
  192.9280  174.5260  137.5580 C   0  0  0  0  0  1  0  0  0  0  0  0
  189.8410  175.2550  143.0190 C   0  0  0  0  0  1  0  0  0  0  0  0
  189.1040  176.6120  142.8230 C   0  0  1  0  0  3  0  0  0  0  0  0
  188.3760  177.1570  144.1080 C   0  0  2  0  0  3  0  0  0  0  0  0
  186.1040  178.1920  145.1110 C   0  0  0  0  0  1  0  0  0  0  0  0
  187.0570  178.0190  143.8550 C   0  0  2  0  0  3  0  0  0  0  0  0
  186.3800  177.6360  142.7300 O   0  0  0  0  0  1  0  0  0  0  0  0
  189.0710  177.8110  145.3680 C   0  0  0  0  0  2  0  0  0  0  0  0
  191.2250  177.2690  146.0180 C   0  0  0  0  0  2  0  0  0  0  0  0
  189.8010  176.7890  146.2080 C   0  0  2  0  0  0  0  0  0  0  0  0
  190.8350  176.7000  147.4280 C   0  0  2  0  0  3  0  0  0  0  0  0
  188.8680  178.3200  148.0730 C   0  0  0  0  0  1  0  0  0  0  0  0
  189.3460  176.8460  147.6810 C   0  0  1  0  0  3  0  0  0  0  0  0
  1  3  1  0  0  0  0
  1 22  1  1  0  0  0
  4  2  1  6  0  0  0
  4  1  1  0  0  0  0
  5 10  1  0  0  0  0
  5 14  1  0  0  0  0
  7  8  1  6  0  0  0
  7 16  1  0  0  0  0
  8  6  1  6  0  0  0
  9 11  1  1  0  0  0
  9 12  1  0  0  0  0
  9  4  1  0  0  0  0
 10  7  1  0  0  0  0
 12 15  1  0  0  0  0
 13  2  1  6  0  0  0
 13  4  1  0  0  0  0
 14 19  1  6  0  0  0
 14 11  1  0  0  0  0
 15  3  1  0  0  0  0
 16 13  1  0  0  0  0
 18 17  1  0  0  0  0
 18  8  1  0  0  0  0
 19 20  1  0  0  0  0
 22 21  1  1  0  0  0
 22 23  1  0  0  0  0
 23 27  1  6  0  0  0
 25 23  1  0  0  0  0
 25 24  1  1  0  0  0
 26 25  1  0  0  0  0
 28 29  1  0  0  0  0
 29 27  1  6  0  0  0
 29 30  1  0  0  0  0
 29 32  1  0  0  0  0
 30 28  1  6  0  0  0
 30 32  1  0  0  0  0
 32 31  1  6  0  0  0
M  END
>  <MODEL>
2

>  <REMARK>
 VINA RESULT:      -7.6      1.181      2.639
  Name = 
  7 active torsions:
  status: ('A' for Active; 'I' for Inactive)
    1  A    between atoms: C_1  and  C_27
    2  A    between atoms: C_7  and  C_20
    3  A    between atoms: C_12  and  C_31
    4  A    between atoms: S_13  and  C_29
    5  A    between atoms: C_16  and  C_20
    6  A    between atoms: C_16  and  C_22
    7  A    between atoms: C_16  and  C_27
                            x       y       z     vdW  Elec       q    Type
                         _______ _______ _______ _____ _____    ______ ____

>  <TORSDO>
F 7

$$$$
=
 OpenBabel11052414313D

 32 36  0  0  1  0  0  0  0  0999 V2000
  190.5810  177.5960  141.5470 C   0  0  1  0  0  3  0  0  0  0  0  0
  188.3990  177.1990  140.2000 C   0  0  0  0  0  2  0  0  0  0  0  0
  191.9770  177.4310  141.6330 O   0  0  0  0  0  0  0  0  0  0  0  0
  189.8720  177.4700  140.0830 C   0  0  2  0  0  0  0  0  0  0  0  0
  188.6570  176.3950  136.2190 C   0  0  0  0  0  2  0  0  0  0  0  0
  185.1620  178.5550  138.6180 C   0  0  0  0  0  1  0  0  0  0  0  0
  187.4460  178.0220  137.6880 C   0  0  1  0  0  3  0  0  0  0  0  0
  186.1190  177.7070  137.6820 C   0  0  2  0  0  3  0  0  0  0  0  0
  190.6800  176.9460  138.9110 C   0  0  2  0  0  3  0  0  0  0  0  0
  188.2610  177.6520  136.6190 O   0  0  0  0  0  0  0  0  0  0  0  0
  190.0980  175.7530  138.1310 C   0  0  0  0  0  2  0  0  0  0  0  0
  192.1750  176.6870  139.2190 C   0  0  0  0  0  2  0  0  0  0  0  0
  188.8280  178.6180  139.9250 C   0  0  1  0  0  3  0  0  0  0  0  0
  190.1520  176.1570  136.6340 C   0  0  1  0  0  3  0  0  0  0  0  0
  192.6990  177.4830  140.4250 C   0  0  0  0  0  2  0  0  0  0  0  0
  188.0940  178.9400  138.6630 O   0  0  0  0  0  0  0  0  0  0  0  0
  185.1200  175.3670  136.9900 C   0  0  0  0  0  1  0  0  0  0  0  0
  185.4280  176.8610  136.5830 C   0  0  0  0  0  2  0  0  0  0  0  0
  191.4520  175.3440  135.5520 S   0  0  0  0  0  0  0  0  0  0  0  0
  191.5210  173.9670  136.6640 C   0  0  0  0  0  1  0  0  0  0  0  0
  190.7430  175.3950  142.9260 C   0  0  0  0  0  1  0  0  0  0  0  0
  189.9460  176.6880  142.5870 C   0  0  1  0  0  3  0  0  0  0  0  0
  189.4060  177.4750  143.8400 C   0  0  2  0  0  3  0  0  0  0  0  0
  190.9990  179.6320  144.0550 C   0  0  0  0  0  1  0  0  0  0  0  0
  190.4950  178.2700  144.6930 C   0  0  2  0  0  3  0  0  0  0  0  0
  191.5240  177.4740  145.1150 O   0  0  0  0  0  1  0  0  0  0  0  0
  188.3500  176.9450  144.8910 C   0  0  0  0  0  2  0  0  0  0  0  0
  186.1770  177.5920  145.3520 C   0  0  0  0  0  2  0  0  0  0  0  0
  187.5980  178.0730  145.5580 C   0  0  2  0  0  0  0  0  0  0  0  0
  186.5040  178.3260  146.7000 C   0  0  2  0  0  3  0  0  0  0  0  0
  188.4020  176.7700  147.6440 C   0  0  0  0  0  1  0  0  0  0  0  0
  187.9750  178.1920  147.0490 C   0  0  1  0  0  3  0  0  0  0  0  0
  1  3  1  0  0  0  0
  1 22  1  1  0  0  0
  4  2  1  1  0  0  0
  4  1  1  0  0  0  0
  5 10  1  0  0  0  0
  5 14  1  0  0  0  0
  7  8  1  6  0  0  0
  7 16  1  0  0  0  0
  8  6  1  6  0  0  0
  9 11  1  1  0  0  0
  9 12  1  0  0  0  0
  9  4  1  0  0  0  0
 10  7  1  0  0  0  0
 12 15  1  0  0  0  0
 13  4  1  0  0  0  0
 13  2  1  1  0  0  0
 14 19  1  6  0  0  0
 14 11  1  0  0  0  0
 15  3  1  0  0  0  0
 16 13  1  0  0  0  0
 18 17  1  0  0  0  0
 18  8  1  0  0  0  0
 19 20  1  0  0  0  0
 22 21  1  1  0  0  0
 22 23  1  0  0  0  0
 23 25  1  0  0  0  0
 23 27  1  1  0  0  0
 25 24  1  6  0  0  0
 25 26  1  0  0  0  0
 28 29  1  0  0  0  0
 29 27  1  6  0  0  0
 29 30  1  0  0  0  0
 29 32  1  0  0  0  0
 30 28  1  1  0  0  0
 30 32  1  0  0  0  0
 32 31  1  1  0  0  0
M  END
>  <MODEL>
3

>  <REMARK>
 VINA RESULT:      -7.3      1.174      1.757
  Name = 
  7 active torsions:
  status: ('A' for Active; 'I' for Inactive)
    1  A    between atoms: C_1  and  C_27
    2  A    between atoms: C_7  and  C_20
    3  A    between atoms: C_12  and  C_31
    4  A    between atoms: S_13  and  C_29
    5  A    between atoms: C_16  and  C_20
    6  A    between atoms: C_16  and  C_22
    7  A    between atoms: C_16  and  C_27
                            x       y       z     vdW  Elec       q    Type
                         _______ _______ _______ _____ _____    ______ ____

>  <TORSDO>
F 7

$$$$
=
 OpenBabel11052414313D

 32 36  0  0  1  0  0  0  0  0999 V2000
  190.1080  177.6620  142.4220 C   0  0  1  0  0  3  0  0  0  0  0  0
  187.6280  177.4330  141.6910 C   0  0  0  0  0  2  0  0  0  0  0  0
  191.4670  177.5260  142.0840 O   0  0  0  0  0  0  0  0  0  0  0  0
  189.0140  177.7630  141.2150 C   0  0  2  0  0  0  0  0  0  0  0  0
  186.7430  177.3200  137.7200 C   0  0  0  0  0  2  0  0  0  0  0  0
  184.1040  178.9400  141.3320 C   0  0  0  0  0  1  0  0  0  0  0  0
  186.0250  178.6400  139.7240 C   0  0  1  0  0  3  0  0  0  0  0  0
  184.7440  178.2910  140.0350 C   0  0  2  0  0  3  0  0  0  0  0  0
  189.4500  177.4690  139.7930 C   0  0  2  0  0  3  0  0  0  0  0  0
  186.5000  178.4790  138.4230 O   0  0  0  0  0  0  0  0  0  0  0  0
  188.6500  176.4080  139.0150 C   0  0  0  0  0  2  0  0  0  0  0  0
  190.9660  177.2050  139.6210 C   0  0  0  0  0  2  0  0  0  0  0  0
  187.9890  178.8900  141.5530 C   0  0  1  0  0  3  0  0  0  0  0  0
  188.2900  177.0600  137.6540 C   0  0  1  0  0  3  0  0  0  0  0  0
  191.8230  177.8020  140.7510 C   0  0  0  0  0  2  0  0  0  0  0  0
  186.9380  179.3990  140.6210 O   0  0  0  0  0  0  0  0  0  0  0  0
  182.7220  176.6300  139.7080 C   0  0  0  0  0  1  0  0  0  0  0  0
  183.7560  177.6220  139.0460 C   0  0  0  0  0  2  0  0  0  0  0  0
  189.2180  176.4800  136.1300 S   0  0  0  0  0  0  0  0  0  0  0  0
  188.1830  177.4920  135.1110 C   0  0  0  0  0  1  0  0  0  0  0  0
  190.4700  175.2020  143.1900 C   0  0  0  0  0  1  0  0  0  0  0  0
  189.7720  176.5720  143.4270 C   0  0  1  0  0  3  0  0  0  0  0  0
  189.8100  177.0820  144.9170 C   0  0  2  0  0  3  0  0  0  0  0  0
  191.0510  176.5860  147.2510 C   0  0  0  0  0  1  0  0  0  0  0  0
  191.1860  176.8710  145.6970 C   0  0  2  0  0  3  0  0  0  0  0  0
  192.1090  177.8400  145.4170 O   0  0  0  0  0  1  0  0  0  0  0  0
  188.6760  176.8820  146.0000 C   0  0  0  0  0  2  0  0  0  0  0  0
  186.4570  177.3170  145.5080 C   0  0  0  0  0  2  0  0  0  0  0  0
  187.6940  178.0310  146.0130 C   0  0  2  0  0  0  0  0  0  0  0  0
  186.2580  178.4240  146.6020 C   0  0  2  0  0  3  0  0  0  0  0  0
  187.7570  177.4630  148.5370 C   0  0  0  0  0  1  0  0  0  0  0  0
  187.5150  178.5980  147.4370 C   0  0  1  0  0  3  0  0  0  0  0  0
  1 22  1  1  0  0  0
  3  1  1  0  0  0  0
  4 13  1  0  0  0  0
  4  2  1  1  0  0  0
  4  1  1  0  0  0  0
  5 10  1  0  0  0  0
  7  8  1  6  0  0  0
  7 16  1  0  0  0  0
  8  6  1  6  0  0  0
  9 11  1  1  0  0  0
  9  4  1  0  0  0  0
 10  7  1  0  0  0  0
 12  9  1  0  0  0  0
 12 15  1  0  0  0  0
 13  2  1  1  0  0  0
 14 19  1  6  0  0  0
 14  5  1  0  0  0  0
 14 11  1  0  0  0  0
 15  3  1  0  0  0  0
 16 13  1  0  0  0  0
 18 17  1  0  0  0  0
 18  8  1  0  0  0  0
 20 19  1  0  0  0  0
 22 21  1  1  0  0  0
 22 23  1  0  0  0  0
 23 25  1  0  0  0  0
 23 27  1  1  0  0  0
 25 24  1  1  0  0  0
 26 25  1  0  0  0  0
 28 29  1  0  0  0  0
 29 27  1  6  0  0  0
 29 30  1  0  0  0  0
 29 32  1  0  0  0  0
 30 28  1  1  0  0  0
 30 32  1  0  0  0  0
 32 31  1  1  0  0  0
M  END
>  <MODEL>
4

>  <REMARK>
 VINA RESULT:      -7.2      1.750      2.755
  Name = 
  7 active torsions:
  status: ('A' for Active; 'I' for Inactive)
    1  A    between atoms: C_1  and  C_27
    2  A    between atoms: C_7  and  C_20
    3  A    between atoms: C_12  and  C_31
    4  A    between atoms: S_13  and  C_29
    5  A    between atoms: C_16  and  C_20
    6  A    between atoms: C_16  and  C_22
    7  A    between atoms: C_16  and  C_27
                            x       y       z     vdW  Elec       q    Type
                         _______ _______ _______ _____ _____    ______ ____

>  <TORSDO>
F 7

$$$$
=
 OpenBabel11052414313D

 32 36  0  0  1  0  0  0  0  0999 V2000
  190.6680  176.1560  142.4040 C   0  0  1  0  0  3  0  0  0  0  0  0
  188.5140  177.5830  142.6500 C   0  0  0  0  0  2  0  0  0  0  0  0
  191.8560  175.6790  142.9910 O   0  0  0  0  0  0  0  0  0  0  0  0
  189.4810  176.6980  143.3840 C   0  0  2  0  0  0  0  0  0  0  0  0
  187.1690  178.4960  146.3810 C   0  0  0  0  0  2  0  0  0  0  0  0
  184.6920  177.9300  142.3580 C   0  0  0  0  0  1  0  0  0  0  0  0
  186.2400  177.4650  144.2950 C   0  0  1  0  0  3  0  0  0  0  0  0
  185.3460  178.3350  143.7430 C   0  0  2  0  0  3  0  0  0  0  0  0
  189.7710  176.8980  144.8590 C   0  0  2  0  0  3  0  0  0  0  0  0
  186.5190  177.5180  145.6610 O   0  0  0  0  0  0  0  0  0  0  0  0
  189.4590  178.2820  145.4570 C   0  0  0  0  0  2  0  0  0  0  0  0
  191.1810  176.4430  145.3100 C   0  0  0  0  0  2  0  0  0  0  0  0
  188.1130  176.1470  142.8740 C   0  0  1  0  0  3  0  0  0  0  0  0
  188.6200  178.0140  146.7340 C   0  0  1  0  0  3  0  0  0  0  0  0
  191.8190  175.4060  144.3710 C   0  0  0  0  0  2  0  0  0  0  0  0
  186.8120  176.2830  143.5980 O   0  0  0  0  0  0  0  0  0  0  0  0
  183.0880  179.3270  144.6760 C   0  0  0  0  0  1  0  0  0  0  0  0
  184.6520  179.4830  144.5190 C   0  0  0  0  0  2  0  0  0  0  0  0
  189.4550  178.2480  148.3980 S   0  0  0  0  0  0  0  0  0  0  0  0
  187.9310  177.8780  149.2190 C   0  0  0  0  0  1  0  0  0  0  0  0
  192.5630  177.5570  141.2980 C   0  0  0  0  0  1  0  0  0  0  0  0
  191.0570  177.1680  141.3380 C   0  0  1  0  0  3  0  0  0  0  0  0
  190.4200  176.8510  139.9330 C   0  0  2  0  0  3  0  0  0  0  0  0
  192.1680  176.8390  137.8890 C   0  0  0  0  0  1  0  0  0  0  0  0
  191.3200  175.9960  138.9320 C   0  0  2  0  0  3  0  0  0  0  0  0
  190.6340  174.9690  138.3440 O   0  0  0  0  0  1  0  0  0  0  0  0
  189.6210  177.8650  139.0210 C   0  0  0  0  0  2  0  0  0  0  0  0
  187.3620  178.2530  139.3470 C   0  0  0  0  0  2  0  0  0  0  0  0
  188.2810  177.3120  138.5960 C   0  0  2  0  0  0  0  0  0  0  0  0
  186.9050  177.7810  137.9230 C   0  0  2  0  0  3  0  0  0  0  0  0
  188.9200  178.6330  136.4650 C   0  0  0  0  0  1  0  0  0  0  0  0
  188.0990  177.4000  137.0660 C   0  0  1  0  0  3  0  0  0  0  0  0
  1 22  1  6  0  0  0
  1  3  1  0  0  0  0
  1  4  1  0  0  0  0
  3 15  1  0  0  0  0
  4  2  1  6  0  0  0
  4  9  1  0  0  0  0
  5 14  1  0  0  0  0
  7  8  1  1  0  0  0
  7 10  1  0  0  0  0
  8  6  1  1  0  0  0
  8 18  1  0  0  0  0
  9 12  1  6  0  0  0
  9 11  1  0  0  0  0
 10  5  1  0  0  0  0
 11 14  1  0  0  0  0
 13  2  1  6  0  0  0
 13  4  1  0  0  0  0
 13 16  1  0  0  0  0
 14 19  1  1  0  0  0
 15 12  1  0  0  0  0
 16  7  1  0  0  0  0
 18 17  1  0  0  0  0
 19 20  1  0  0  0  0
 22 21  1  6  0  0  0
 23 27  1  6  0  0  0
 23 22  1  0  0  0  0
 25 24  1  6  0  0  0
 25 23  1  0  0  0  0
 26 25  1  0  0  0  0
 29 27  1  1  0  0  0
 29 28  1  0  0  0  0
 30 29  1  0  0  0  0
 30 28  1  1  0  0  0
 32 31  1  1  0  0  0
 32 30  1  0  0  0  0
 32 29  1  0  0  0  0
M  END
>  <MODEL>
5

>  <REMARK>
 VINA RESULT:      -6.7      2.890      7.250
  Name = 
  7 active torsions:
  status: ('A' for Active; 'I' for Inactive)
    1  A    between atoms: C_1  and  C_27
    2  A    between atoms: C_7  and  C_20
    3  A    between atoms: C_12  and  C_31
    4  A    between atoms: S_13  and  C_29
    5  A    between atoms: C_16  and  C_20
    6  A    between atoms: C_16  and  C_22
    7  A    between atoms: C_16  and  C_27
                            x       y       z     vdW  Elec       q    Type
                         _______ _______ _______ _____ _____    ______ ____

>  <TORSDO>
F 7

$$$$
=
 OpenBabel11052414313D

 32 36  0  0  1  0  0  0  0  0999 V2000
  190.7230  176.4610  142.1750 C   0  0  1  0  0  3  0  0  0  0  0  0
  188.5450  177.8190  142.5600 C   0  0  0  0  0  2  0  0  0  0  0  0
  191.9200  175.9510  142.7100 O   0  0  0  0  0  0  0  0  0  0  0  0
  189.5290  176.8840  143.2040 C   0  0  2  0  0  0  0  0  0  0  0  0
  187.1950  178.3440  146.3640 C   0  0  0  0  0  2  0  0  0  0  0  0
  184.7160  178.1240  142.3090 C   0  0  0  0  0  1  0  0  0  0  0  0
  186.2780  177.5030  144.1900 C   0  0  1  0  0  3  0  0  0  0  0  0
  185.3680  178.4060  143.7260 C   0  0  2  0  0  3  0  0  0  0  0  0
  189.8210  176.9470  144.6910 C   0  0  2  0  0  3  0  0  0  0  0  0
  186.5610  177.4290  145.5540 O   0  0  0  0  0  0  0  0  0  0  0  0
  189.4860  178.2610  145.4200 C   0  0  0  0  0  2  0  0  0  0  0  0
  191.2400  176.4760  145.0940 C   0  0  0  0  0  2  0  0  0  0  0  0
  188.1700  176.3620  142.6460 C   0  0  1  0  0  3  0  0  0  0  0  0
  188.6560  177.8560  146.6670 C   0  0  1  0  0  3  0  0  0  0  0  0
  191.8930  175.5460  144.0580 C   0  0  0  0  0  2  0  0  0  0  0  0
  186.8690  176.4030  143.3810 O   0  0  0  0  0  0  0  0  0  0  0  0
  183.0970  179.2560  144.7640 C   0  0  0  0  0  1  0  0  0  0  0  0
  184.6550  179.4610  144.6100 C   0  0  0  0  0  2  0  0  0  0  0  0
  189.4930  177.9430  148.3440 S   0  0  0  0  0  0  0  0  0  0  0  0
  187.9100  177.9230  149.1380 C   0  0  0  0  0  1  0  0  0  0  0  0
  192.5480  178.1080  141.3220 C   0  0  0  0  0  1  0  0  0  0  0  0
  191.0900  177.5780  141.2110 C   0  0  1  0  0  3  0  0  0  0  0  0
  190.5980  177.3030  139.7400 C   0  0  2  0  0  3  0  0  0  0  0  0
  188.3690  176.7320  138.3480 C   0  0  0  0  0  1  0  0  0  0  0  0
  189.0720  177.6500  139.4340 C   0  0  2  0  0  3  0  0  0  0  0  0
  188.8640  178.9830  139.2090 O   0  0  0  0  0  1  0  0  0  0  0  0
  190.9220  176.0220  138.8720 C   0  0  0  0  0  2  0  0  0  0  0  0
  193.1260  176.1820  138.1820 C   0  0  0  0  0  2  0  0  0  0  0  0
  191.7240  176.3610  137.6370 C   0  0  2  0  0  0  0  0  0  0  0  0
  192.8670  175.7480  136.6970 C   0  0  2  0  0  3  0  0  0  0  0  0
  190.9740  173.9560  137.0430 C   0  0  0  0  0  1  0  0  0  0  0  0
  191.4080  175.3890  136.4810 C   0  0  1  0  0  3  0  0  0  0  0  0
  1 22  1  1  0  0  0
  1  3  1  0  0  0  0
  1  4  1  0  0  0  0
  3 15  1  0  0  0  0
  4  2  1  6  0  0  0
  4  9  1  0  0  0  0
  5 14  1  0  0  0  0
  7  8  1  1  0  0  0
  7 10  1  0  0  0  0
  8  6  1  1  0  0  0
  8 18  1  0  0  0  0
  9 12  1  6  0  0  0
  9 11  1  0  0  0  0
 10  5  1  0  0  0  0
 11 14  1  0  0  0  0
 13  2  1  6  0  0  0
 13  4  1  0  0  0  0
 13 16  1  0  0  0  0
 14 19  1  1  0  0  0
 15 12  1  0  0  0  0
 16  7  1  0  0  0  0
 18 17  1  0  0  0  0
 19 20  1  0  0  0  0
 22 21  1  6  0  0  0
 23 27  1  1  0  0  0
 23 22  1  0  0  0  0
 25 24  1  6  0  0  0
 25 23  1  0  0  0  0
 26 25  1  0  0  0  0
 29 28  1  0  0  0  0
 29 27  1  6  0  0  0
 30 29  1  0  0  0  0
 30 28  1  1  0  0  0
 32 30  1  0  0  0  0
 32 31  1  1  0  0  0
 32 29  1  0  0  0  0
M  END
>  <MODEL>
6

>  <REMARK>
 VINA RESULT:      -6.6      2.862      7.693
  Name = 
  7 active torsions:
  status: ('A' for Active; 'I' for Inactive)
    1  A    between atoms: C_1  and  C_27
    2  A    between atoms: C_7  and  C_20
    3  A    between atoms: C_12  and  C_31
    4  A    between atoms: S_13  and  C_29
    5  A    between atoms: C_16  and  C_20
    6  A    between atoms: C_16  and  C_22
    7  A    between atoms: C_16  and  C_27
                            x       y       z     vdW  Elec       q    Type
                         _______ _______ _______ _____ _____    ______ ____

>  <TORSDO>
F 7

$$$$
=
 OpenBabel11052414313D

 32 36  0  0  1  0  0  0  0  0999 V2000
  187.7390  178.3210  142.5910 C   0  0  1  0  0  3  0  0  0  0  0  0
  185.5540  177.8880  141.2600 C   0  0  0  0  0  2  0  0  0  0  0  0
  189.1470  178.3430  142.5980 O   0  0  0  0  0  0  0  0  0  0  0  0
  186.9680  178.3840  141.1550 C   0  0  2  0  0  0  0  0  0  0  0  0
  185.6820  177.9270  137.1920 C   0  0  0  0  0  2  0  0  0  0  0  0
  182.0770  179.0520  140.0870 C   0  0  0  0  0  1  0  0  0  0  0  0
  184.3530  179.0440  138.9980 C   0  0  1  0  0  3  0  0  0  0  0  0
  183.0820  178.5500  138.9690 C   0  0  2  0  0  3  0  0  0  0  0  0
  187.7680  178.2220  139.8770 C   0  0  2  0  0  3  0  0  0  0  0  0
  185.1460  179.0110  137.8510 O   0  0  0  0  0  0  0  0  0  0  0  0
  187.3060  177.1350  138.8890 C   0  0  0  0  0  2  0  0  0  0  0  0
  189.3000  178.1230  140.0790 C   0  0  0  0  0  2  0  0  0  0  0  0
  185.7720  179.3800  141.2650 C   0  0  1  0  0  3  0  0  0  0  0  0
  187.2180  177.8280  137.5040 C   0  0  1  0  0  3  0  0  0  0  0  0
  189.7830  178.7340  141.4050 C   0  0  0  0  0  2  0  0  0  0  0  0
  184.9290  179.8350  140.1180 O   0  0  0  0  0  0  0  0  0  0  0  0
  181.5910  178.7860  136.8070 C   0  0  0  0  0  1  0  0  0  0  0  0
  182.4470  177.8470  137.7430 C   0  0  0  0  0  2  0  0  0  0  0  0
  188.5480  177.4380  136.2400 S   0  0  0  0  0  0  0  0  0  0  0  0
  187.3800  177.6800  134.9320 C   0  0  0  0  0  1  0  0  0  0  0  0
  188.1400  175.8470  143.2940 C   0  0  0  0  0  1  0  0  0  0  0  0
  187.2940  177.1440  143.4450 C   0  0  1  0  0  3  0  0  0  0  0  0
  186.9740  177.5530  144.9320 C   0  0  2  0  0  3  0  0  0  0  0  0
  185.2230  178.6400  146.6600 C   0  0  0  0  0  1  0  0  0  0  0  0
  185.6640  178.4370  145.1500 C   0  0  2  0  0  3  0  0  0  0  0  0
  184.6250  178.0560  144.3450 O   0  0  0  0  0  1  0  0  0  0  0  0
  188.0150  178.0710  146.0020 C   0  0  0  0  0  2  0  0  0  0  0  0
  190.2710  177.5540  145.9640 C   0  0  0  0  0  2  0  0  0  0  0  0
  188.9580  176.9790  146.4520 C   0  0  2  0  0  0  0  0  0  0  0  0
  190.2850  176.7720  147.3240 C   0  0  2  0  0  3  0  0  0  0  0  0
  188.5490  178.1810  148.7070 C   0  0  0  0  0  1  0  0  0  0  0  0
  188.9180  176.8030  147.9850 C   0  0  1  0  0  3  0  0  0  0  0  0
  1  3  1  0  0  0  0
  1 22  1  6  0  0  0
  4  2  1  1  0  0  0
  4 13  1  0  0  0  0
  4  1  1  0  0  0  0
  5 14  1  0  0  0  0
  5 10  1  0  0  0  0
  7  8  1  6  0  0  0
  7 16  1  0  0  0  0
  8  6  1  6  0  0  0
  9 11  1  1  0  0  0
  9 12  1  0  0  0  0
  9  4  1  0  0  0  0
 10  7  1  0  0  0  0
 12 15  1  0  0  0  0
 13  2  1  1  0  0  0
 14 19  1  6  0  0  0
 14 11  1  0  0  0  0
 15  3  1  0  0  0  0
 16 13  1  0  0  0  0
 17 18  1  0  0  0  0
 18  8  1  0  0  0  0
 20 19  1  0  0  0  0
 22 21  1  1  0  0  0
 22 23  1  0  0  0  0
 23 25  1  0  0  0  0
 23 27  1  6  0  0  0
 25 24  1  1  0  0  0
 26 25  1  0  0  0  0
 28 29  1  0  0  0  0
 29 27  1  6  0  0  0
 29 30  1  0  0  0  0
 29 32  1  0  0  0  0
 30 28  1  1  0  0  0
 30 32  1  0  0  0  0
 32 31  1  1  0  0  0
M  END
>  <MODEL>
7

>  <REMARK>
 VINA RESULT:      -6.5      2.341      4.000
  Name = 
  7 active torsions:
  status: ('A' for Active; 'I' for Inactive)
    1  A    between atoms: C_1  and  C_27
    2  A    between atoms: C_7  and  C_20
    3  A    between atoms: C_12  and  C_31
    4  A    between atoms: S_13  and  C_29
    5  A    between atoms: C_16  and  C_20
    6  A    between atoms: C_16  and  C_22
    7  A    between atoms: C_16  and  C_27
                            x       y       z     vdW  Elec       q    Type
                         _______ _______ _______ _____ _____    ______ ____

>  <TORSDO>
F 7

$$$$
=
 OpenBabel11052414313D

 32 36  0  0  1  0  0  0  0  0999 V2000
  189.2900  177.7840  141.9600 C   0  0  1  0  0  3  0  0  0  0  0  0
  188.3160  177.1100  139.6510 C   0  0  0  0  0  2  0  0  0  0  0  0
  190.4020  177.8120  142.8230 O   0  0  0  0  0  0  0  0  0  0  0  0
  189.5510  177.5840  140.3610 C   0  0  2  0  0  0  0  0  0  0  0  0
  190.8700  176.4160  136.5590 C   0  0  0  0  0  2  0  0  0  0  0  0
  186.3950  178.0290  136.4440 C   0  0  0  0  0  1  0  0  0  0  0  0
  188.8500  177.8340  136.9890 C   0  0  1  0  0  3  0  0  0  0  0  0
  187.8100  177.3380  136.2610 C   0  0  2  0  0  3  0  0  0  0  0  0
  190.9360  177.1980  139.8800 C   0  0  2  0  0  3  0  0  0  0  0  0
  190.1650  177.5990  136.5870 O   0  0  0  0  0  0  0  0  0  0  0  0
  191.0490  175.9480  138.9870 C   0  0  0  0  0  2  0  0  0  0  0  0
  192.0160  177.1430  140.9880 C   0  0  0  0  0  2  0  0  0  0  0  0
  188.6450  178.5780  139.5720 C   0  0  1  0  0  3  0  0  0  0  0  0
  191.8860  176.3810  137.7550 C   0  0  1  0  0  3  0  0  0  0  0  0
  191.6650  177.9840  142.2260 C   0  0  0  0  0  2  0  0  0  0  0  0
  188.7160  178.8170  138.0980 O   0  0  0  0  0  0  0  0  0  0  0  0
  187.6900  174.8920  135.2850 C   0  0  0  0  0  1  0  0  0  0  0  0
  187.9690  176.4230  135.0210 C   0  0  0  0  0  2  0  0  0  0  0  0
  193.6590  175.7740  137.6410 S   0  0  0  0  0  0  0  0  0  0  0  0
  193.8430  176.5960  136.0840 C   0  0  0  0  0  1  0  0  0  0  0  0
  188.9230  175.5280  143.2060 C   0  0  0  0  0  1  0  0  0  0  0  0
  188.2980  176.7780  142.5220 C   0  0  1  0  0  3  0  0  0  0  0  0
  187.1300  177.4580  143.3330 C   0  0  2  0  0  3  0  0  0  0  0  0
  186.2210  179.7550  142.2700 C   0  0  0  0  0  1  0  0  0  0  0  0
  186.0120  178.1950  142.4670 C   0  0  2  0  0  3  0  0  0  0  0  0
  184.7410  177.8800  142.8610 O   0  0  0  0  0  1  0  0  0  0  0  0
  187.2870  178.3240  144.6450 C   0  0  0  0  0  2  0  0  0  0  0  0
  188.9260  177.8720  146.2170 C   0  0  0  0  0  2  0  0  0  0  0  0
  187.5090  177.4650  145.8690 C   0  0  2  0  0  0  0  0  0  0  0  0
  187.9410  177.5890  147.4060 C   0  0  2  0  0  3  0  0  0  0  0  0
  186.0500  179.3420  146.8920 C   0  0  0  0  0  1  0  0  0  0  0  0
  186.5000  177.8100  146.9840 C   0  0  1  0  0  3  0  0  0  0  0  0
  1 22  1  1  0  0  0
  1  3  1  0  0  0  0
  4  2  1  6  0  0  0
  4  1  1  0  0  0  0
  5 10  1  0  0  0  0
  5 14  1  0  0  0  0
  7  8  1  6  0  0  0
  7 16  1  0  0  0  0
  8  6  1  6  0  0  0
  9 11  1  1  0  0  0
  9  4  1  0  0  0  0
  9 12  1  0  0  0  0
 10  7  1  0  0  0  0
 12 15  1  0  0  0  0
 13  2  1  6  0  0  0
 13  4  1  0  0  0  0
 14 19  1  6  0  0  0
 14 11  1  0  0  0  0
 15  3  1  0  0  0  0
 16 13  1  0  0  0  0
 18 17  1  0  0  0  0
 18  8  1  0  0  0  0
 20 19  1  0  0  0  0
 22 21  1  1  0  0  0
 22 23  1  0  0  0  0
 23 27  1  1  0  0  0
 25 24  1  1  0  0  0
 25 26  1  0  0  0  0
 25 23  1  0  0  0  0
 29 27  1  6  0  0  0
 29 28  1  0  0  0  0
 29 32  1  0  0  0  0
 29 30  1  0  0  0  0
 30 28  1  6  0  0  0
 32 31  1  6  0  0  0
 32 30  1  0  0  0  0
M  END
>  <MODEL>
8

>  <REMARK>
 VINA RESULT:      -6.5      1.621      2.553
  Name = 
  7 active torsions:
  status: ('A' for Active; 'I' for Inactive)
    1  A    between atoms: C_1  and  C_27
    2  A    between atoms: C_7  and  C_20
    3  A    between atoms: C_12  and  C_31
    4  A    between atoms: S_13  and  C_29
    5  A    between atoms: C_16  and  C_20
    6  A    between atoms: C_16  and  C_22
    7  A    between atoms: C_16  and  C_27
                            x       y       z     vdW  Elec       q    Type
                         _______ _______ _______ _____ _____    ______ ____

>  <TORSDO>
F 7

$$$$
=
 OpenBabel11052414313D

 32 36  0  0  1  0  0  0  0  0999 V2000
  183.8030  178.6060  138.4850 C   0  0  1  0  0  3  0  0  0  0  0  0
  184.6480  177.8370  140.8160 C   0  0  0  0  0  2  0  0  0  0  0  0
  182.7370  179.0890  137.7030 O   0  0  0  0  0  0  0  0  0  0  0  0
  183.7200  178.7810  140.1060 C   0  0  2  0  0  0  0  0  0  0  0  0
  182.5810  178.9680  144.1350 C   0  0  0  0  0  2  0  0  0  0  0  0
  187.2260  178.0500  143.6660 C   0  0  0  0  0  1  0  0  0  0  0  0
  184.9470  179.0760  143.3200 C   0  0  1  0  0  3  0  0  0  0  0  0
  185.7010  178.2160  144.0630 C   0  0  2  0  0  3  0  0  0  0  0  0
  182.4150  179.2290  140.7360 C   0  0  2  0  0  3  0  0  0  0  0  0
  183.7660  179.6040  143.8400 O   0  0  0  0  0  0  0  0  0  0  0  0
  181.8330  178.3450  141.8550 C   0  0  0  0  0  2  0  0  0  0  0  0
  181.2980  179.5920  139.7270 C   0  0  0  0  0  2  0  0  0  0  0  0
  185.1060  179.2620  140.6350 C   0  0  1  0  0  3  0  0  0  0  0  0
  181.5150  179.3040  143.0320 C   0  0  1  0  0  3  0  0  0  0  0  0
  181.8310  179.9620  138.3330 C   0  0  0  0  0  2  0  0  0  0  0  0
  185.3830  179.6940  142.0390 O   0  0  0  0  0  0  0  0  0  0  0  0
  185.6390  178.6490  146.6630 C   0  0  0  0  0  1  0  0  0  0  0  0
  185.2950  177.6850  145.4610 C   0  0  0  0  0  2  0  0  0  0  0  0
  179.7150  179.7160  143.3670 S   0  0  0  0  0  0  0  0  0  0  0  0
  179.2120  178.3530  142.3550 C   0  0  0  0  0  1  0  0  0  0  0  0
  182.8190  176.3580  137.6190 C   0  0  0  0  0  1  0  0  0  0  0  0
  184.0700  177.1700  138.0630 C   0  0  1  0  0  3  0  0  0  0  0  0
  185.3170  177.0330  137.1110 C   0  0  2  0  0  3  0  0  0  0  0  0
  185.9600  174.7860  135.7810 C   0  0  0  0  0  1  0  0  0  0  0  0
  185.1140  176.1270  135.8140 C   0  0  2  0  0  3  0  0  0  0  0  0
  185.2070  176.8370  134.6490 O   0  0  0  0  0  1  0  0  0  0  0  0
  186.8130  176.7950  137.5620 C   0  0  0  0  0  2  0  0  0  0  0  0
  188.3430  177.5810  139.1110 C   0  0  0  0  0  2  0  0  0  0  0  0
  187.4980  178.0830  137.9590 C   0  0  2  0  0  0  0  0  0  0  0  0
  188.9650  178.6850  138.1850 C   0  0  2  0  0  3  0  0  0  0  0  0
  188.8780  177.4650  135.8580 C   0  0  0  0  0  1  0  0  0  0  0  0
  188.3470  178.6440  136.7990 C   0  0  1  0  0  3  0  0  0  0  0  0
  1 22  1  1  0  0  0
  1  4  1  0  0  0  0
  3 15  1  0  0  0  0
  3  1  1  0  0  0  0
  4 13  1  0  0  0  0
  4  9  1  0  0  0  0
  4  2  1  1  0  0  0
  7 10  1  0  0  0  0
  7  8  1  1  0  0  0
  8  6  1  1  0  0  0
  8 18  1  0  0  0  0
  9 12  1  6  0  0  0
  9 11  1  0  0  0  0
 10  5  1  0  0  0  0
 11 14  1  0  0  0  0
 13  2  1  1  0  0  0
 13 16  1  0  0  0  0
 14 19  1  1  0  0  0
 14  5  1  0  0  0  0
 15 12  1  0  0  0  0
 16  7  1  0  0  0  0
 18 17  1  0  0  0  0
 20 19  1  0  0  0  0
 22 21  1  6  0  0  0
 23 27  1  1  0  0  0
 23 22  1  0  0  0  0
 25 24  1  6  0  0  0
 25 23  1  0  0  0  0
 26 25  1  0  0  0  0
 29 27  1  1  0  0  0
 29 30  1  0  0  0  0
 29 28  1  0  0  0  0
 30 28  1  6  0  0  0
 32 31  1  6  0  0  0
 32 29  1  0  0  0  0
 32 30  1  0  0  0  0
M  END
>  <MODEL>
9

>  <REMARK>
 VINA RESULT:      -6.1      4.003      9.250
  Name = 
  7 active torsions:
  status: ('A' for Active; 'I' for Inactive)
    1  A    between atoms: C_1  and  C_27
    2  A    between atoms: C_7  and  C_20
    3  A    between atoms: C_12  and  C_31
    4  A    between atoms: S_13  and  C_29
    5  A    between atoms: C_16  and  C_20
    6  A    between atoms: C_16  and  C_22
    7  A    between atoms: C_16  and  C_27
                            x       y       z     vdW  Elec       q    Type
                         _______ _______ _______ _____ _____    ______ ____

>  <TORSDO>
F 7

$$$$
