=
 OpenBabel11052414093D

 34 39  0  0  1  0  0  0  0  0999 V2000
  188.3040  178.3510  139.2060 C   0  0  2  0  0  3  0  0  0  0  0  0
  186.5750  178.2580  137.3730 C   0  0  0  0  0  0  0  0  0  0  0  0
  185.8880  178.5480  139.9420 C   0  0  2  0  0  3  0  0  0  0  0  0
  183.5800  178.6340  140.9380 N   0  0  0  0  0  0  0  0  0  0  0  0
  189.0670  178.8380  136.9770 C   0  0  0  0  0  2  0  0  0  0  0  0
  187.6620  178.6760  136.4010 C   0  0  0  0  0  2  0  0  0  0  0  0
  183.8220  178.3180  138.5150 C   0  0  0  0  0  0  0  0  0  0  0  0
  186.8570  177.9390  138.8600 C   0  0  2  0  0  3  0  0  0  0  0  0
  184.1810  177.4350  137.3730 C   0  0  1  0  0  3  0  0  0  0  0  0
  182.2550  178.0280  140.8880 C   0  0  0  0  0  1  0  0  0  0  0  0
  189.2920  177.9160  138.1530 C   0  0  0  0  0  2  0  0  0  0  0  0
  186.4070  178.1990  141.3640 C   0  0  2  0  0  3  0  0  0  0  0  0
  188.7250  177.8860  140.5790 C   0  0  0  0  0  2  0  0  0  0  0  0
  185.4210  177.9800  136.7490 C   0  0  0  0  0  3  0  0  0  0  0  0
  184.1000  178.2450  142.2420 C   0  0  0  0  0  2  0  0  0  0  0  0
  185.5020  178.7870  142.4470 C   0  0  1  0  0  3  0  0  0  0  0  0
  183.1520  179.3210  138.3130 O   0  0  0  0  0  0  0  0  0  0  0  0
  184.4170  178.0490  139.8680 C   0  0  1  0  0  3  0  0  0  0  0  0
  187.8570  178.6170  141.5760 C   0  0  0  0  0  2  0  0  0  0  0  0
  184.3260  175.9530  137.7620 C   0  0  1  0  0  3  0  0  0  0  0  0
  181.0500  175.0600  136.6630 C   0  0  0  0  0  1  0  0  0  0  0  0
  183.0570  175.3360  137.9350 O   0  0  0  0  0  0  0  0  0  0  0  0
  182.5570  174.9170  136.6850 C   0  0  1  0  0  3  0  0  0  0  0  0
  184.0860  172.9600  137.2900 C   0  0  0  0  0  2  0  0  0  0  0  0
  185.4130  173.7060  137.0970 C   0  0  0  0  0  2  0  0  0  0  0  0
  185.2800  175.2040  136.8020 C   0  0  0  0  0  2  0  0  0  0  0  0
  182.9430  173.4600  136.3960 C   0  0  0  0  0  2  0  0  0  0  0  0
  185.9260  178.8050  146.2370 C   0  0  0  0  0  0  0  0  0  0  0  0
  186.8700  177.7870  146.4030 C   0  0  0  0  0  3  0  0  0  0  0  0
  185.9680  178.4510  143.8350 C   0  0  0  0  0  0  0  0  0  0  0  0
  187.3630  177.1020  145.2900 C   0  0  0  0  0  3  0  0  0  0  0  0
  185.4760  179.1380  144.9560 C   0  0  0  0  0  3  0  0  0  0  0  0
  186.9140  177.4350  144.0080 C   0  0  0  0  0  3  0  0  0  0  0  0
  185.4370  179.4860  147.3430 O   0  0  0  0  0  1  0  0  0  0  0  0
  1 11  1  6  0  0  0
  1 13  1  0  0  0  0
  2  8  1  0  0  0  0
  3 12  1  0  0  0  0
  4 15  1  0  0  0  0
  5 11  1  0  0  0  0
  6  5  1  0  0  0  0
  6  2  1  0  0  0  0
  7 18  1  0  0  0  0
  8  1  1  0  0  0  0
  8  3  1  0  0  0  0
  9 20  1  0  0  0  0
  9  7  1  0  0  0  0
 10  4  1  0  0  0  0
 12 19  1  0  0  0  0
 12 16  1  0  0  0  0
 13 19  1  0  0  0  0
 14  2  2  0  0  0  0
 14  9  1  0  0  0  0
 15 16  1  0  0  0  0
 16 30  1  0  0  0  0
 17  7  2  0  0  0  0
 18  3  1  0  0  0  0
 18  4  1  0  0  0  0
 20 22  1  0  0  0  0
 21 23  1  0  0  0  0
 23 22  1  0  0  0  0
 25 24  1  0  0  0  0
 26 25  1  0  0  0  0
 26 20  1  0  0  0  0
 27 23  1  0  0  0  0
 27 24  1  0  0  0  0
 28 29  1  0  0  0  0
 28 34  1  0  0  0  0
 30 33  2  0  0  0  0
 30 32  1  0  0  0  0
 31 29  2  0  0  0  0
 32 28  2  0  0  0  0
 33 31  1  0  0  0  0
M  END
>  <MODEL>
1

>  <REMARK>
 VINA RESULT:      -9.0      0.000      0.000
  Name = 
  2 active torsions:
  status: ('A' for Active; 'I' for Inactive)
    1  A    between atoms: C_3  and  C_17
    2  A    between atoms: C_12  and  C_28
                            x       y       z     vdW  Elec       q    Type
                         _______ _______ _______ _____ _____    ______ ____

>  <TORSDO>
F 2

$$$$
=
 OpenBabel11052414093D

 34 39  0  0  1  0  0  0  0  0999 V2000
  189.6970  177.5020  141.7420 C   0  0  2  0  0  3  0  0  0  0  0  0
  190.1340  177.3740  139.2630 C   0  0  0  0  0  0  0  0  0  0  0  0
  187.8190  178.2950  140.2380 C   0  0  2  0  0  3  0  0  0  0  0  0
  185.7690  179.0140  138.9710 N   0  0  0  0  0  0  0  0  0  0  0  0
  192.0000  177.3810  141.0570 C   0  0  0  0  0  2  0  0  0  0  0  0
  191.6170  177.3760  139.5790 C   0  0  0  0  0  2  0  0  0  0  0  0
  187.7120  178.1810  137.7220 C   0  0  0  0  0  0  0  0  0  0  0  0
  189.0430  177.3100  140.3580 C   0  0  2  0  0  3  0  0  0  0  0  0
  188.5650  177.0350  137.3040 C   0  0  1  0  0  3  0  0  0  0  0  0
  184.8990  178.6720  137.8520 C   0  0  0  0  0  1  0  0  0  0  0  0
  190.9560  176.6870  141.9010 C   0  0  0  0  0  2  0  0  0  0  0  0
  186.9040  178.1450  141.4850 C   0  0  2  0  0  3  0  0  0  0  0  0
  188.7340  177.2490  142.8770 C   0  0  0  0  0  2  0  0  0  0  0  0
  189.8970  177.2000  137.9540 C   0  0  0  0  0  3  0  0  0  0  0  0
  184.9360  178.8010  140.1470 C   0  0  0  0  0  2  0  0  0  0  0  0
  185.7110  179.0980  141.4180 C   0  0  1  0  0  3  0  0  0  0  0  0
  187.7670  179.2310  137.0990 O   0  0  0  0  0  0  0  0  0  0  0  0
  186.9160  178.0790  138.9910 C   0  0  1  0  0  3  0  0  0  0  0  0
  187.6670  178.3150  142.7940 C   0  0  0  0  0  2  0  0  0  0  0  0
  187.9380  175.6610  137.5980 C   0  0  1  0  0  3  0  0  0  0  0  0
  185.3100  176.0440  135.2140 C   0  0  0  0  0  1  0  0  0  0  0  0
  186.5750  175.6180  137.1990 O   0  0  0  0  0  0  0  0  0  0  0  0
  186.4900  175.3170  135.8250 C   0  0  1  0  0  3  0  0  0  0  0  0
  186.7320  172.9790  136.8300 C   0  0  0  0  0  2  0  0  0  0  0  0
  188.2030  173.1160  137.2440 C   0  0  0  0  0  2  0  0  0  0  0  0
  188.8080  174.5090  137.0420 C   0  0  0  0  0  2  0  0  0  0  0  0
  186.3420  173.8060  135.5980 C   0  0  0  0  0  2  0  0  0  0  0  0
  184.4070  178.9550  144.9980 C   0  0  0  0  0  0  0  0  0  0  0  0
  183.0500  178.7050  144.7770 C   0  0  0  0  0  3  0  0  0  0  0  0
  184.7960  178.9640  142.6020 C   0  0  0  0  0  0  0  0  0  0  0  0
  182.5650  178.5840  143.4720 C   0  0  0  0  0  3  0  0  0  0  0  0
  185.2800  179.0830  143.9140 C   0  0  0  0  0  3  0  0  0  0  0  0
  183.4370  178.7130  142.3870 C   0  0  0  0  0  3  0  0  0  0  0  0
  184.8890  179.0740  146.2950 O   0  0  0  0  0  1  0  0  0  0  0  0
  1 11  1  1  0  0  0
  1 13  1  0  0  0  0
  2  6  1  0  0  0  0
  2  8  1  0  0  0  0
  3  8  1  0  0  0  0
  3 12  1  0  0  0  0
  4 18  1  0  0  0  0
  4 15  1  0  0  0  0
  5 11  1  0  0  0  0
  6  5  1  0  0  0  0
  7 18  1  0  0  0  0
  8  1  1  0  0  0  0
  9 20  1  0  0  0  0
  9  7  1  0  0  0  0
  9 14  1  0  0  0  0
 10  4  1  0  0  0  0
 12 19  1  0  0  0  0
 14  2  2  0  0  0  0
 15 16  1  0  0  0  0
 16 12  1  0  0  0  0
 16 30  1  0  0  0  0
 17  7  2  0  0  0  0
 18  3  1  0  0  0  0
 19 13  1  0  0  0  0
 21 23  1  0  0  0  0
 22 20  1  0  0  0  0
 23 22  1  0  0  0  0
 24 25  1  0  0  0  0
 26 25  1  0  0  0  0
 26 20  1  0  0  0  0
 27 23  1  0  0  0  0
 27 24  1  0  0  0  0
 28 34  1  0  0  0  0
 29 28  1  0  0  0  0
 30 32  1  0  0  0  0
 31 29  2  0  0  0  0
 32 28  2  0  0  0  0
 33 30  2  0  0  0  0
 33 31  1  0  0  0  0
M  END
>  <MODEL>
2

>  <REMARK>
 VINA RESULT:      -9.0      2.167      3.491
  Name = 
  2 active torsions:
  status: ('A' for Active; 'I' for Inactive)
    1  A    between atoms: C_3  and  C_17
    2  A    between atoms: C_12  and  C_28
                            x       y       z     vdW  Elec       q    Type
                         _______ _______ _______ _____ _____    ______ ____

>  <TORSDO>
F 2

$$$$
=
 OpenBabel11052414093D

 34 39  0  0  1  0  0  0  0  0999 V2000
  190.1420  176.8040  137.9510 C   0  0  2  0  0  3  0  0  0  0  0  0
  188.1420  177.1090  136.4470 C   0  0  0  0  0  0  0  0  0  0  0  0
  188.1130  177.8960  139.0040 C   0  0  2  0  0  3  0  0  0  0  0  0
  186.2020  178.8760  140.3130 N   0  0  0  0  0  0  0  0  0  0  0  0
  190.5560  176.7530  135.5820 C   0  0  0  0  0  2  0  0  0  0  0  0
  189.0870  177.0200  135.2630 C   0  0  0  0  0  2  0  0  0  0  0  0
  185.8390  178.2330  137.9700 C   0  0  0  0  0  0  0  0  0  0  0  0
  188.6020  176.8770  137.9060 C   0  0  2  0  0  3  0  0  0  0  0  0
  185.6620  177.1610  136.9540 C   0  0  1  0  0  3  0  0  0  0  0  0
  184.7710  178.7590  140.5690 C   0  0  0  0  0  1  0  0  0  0  0  0
  190.7090  175.9440  136.8490 C   0  0  0  0  0  2  0  0  0  0  0  0
  188.7700  177.5470  140.3680 C   0  0  2  0  0  3  0  0  0  0  0  0
  190.6620  176.3760  139.3020 C   0  0  0  0  0  2  0  0  0  0  0  0
  186.8590  177.1760  136.0640 C   0  0  0  0  0  3  0  0  0  0  0  0
  186.8230  178.4770  141.5680 C   0  0  0  0  0  2  0  0  0  0  0  0
  188.3360  178.5250  141.4610 C   0  0  1  0  0  3  0  0  0  0  0  0
  185.4950  179.3770  137.7050 O   0  0  0  0  0  0  0  0  0  0  0  0
  186.5770  177.9260  139.2420 C   0  0  1  0  0  3  0  0  0  0  0  0
  190.2900  177.4640  140.2820 C   0  0  0  0  0  2  0  0  0  0  0  0
  185.4050  175.7710  137.5620 C   0  0  1  0  0  3  0  0  0  0  0  0
  181.9350  175.7460  136.7290 C   0  0  0  0  0  1  0  0  0  0  0  0
  184.0300  175.5880  137.8730 O   0  0  0  0  0  0  0  0  0  0  0  0
  183.3350  175.1670  136.7210 C   0  0  1  0  0  3  0  0  0  0  0  0
  184.2790  172.9490  137.5680 C   0  0  0  0  0  2  0  0  0  0  0  0
  185.7450  173.2340  137.2160 C   0  0  0  0  0  2  0  0  0  0  0  0
  186.0250  174.6480  136.6980 C   0  0  0  0  0  2  0  0  0  0  0  0
  183.2620  173.6360  136.6480 C   0  0  0  0  0  2  0  0  0  0  0  0
  190.7750  178.3160  144.3850 C   0  0  0  0  0  0  0  0  0  0  0  0
  190.0240  177.5780  145.3050 C   0  0  0  0  0  3  0  0  0  0  0  0
  188.9410  178.2030  142.7980 C   0  0  0  0  0  0  0  0  0  0  0  0
  188.7350  177.1520  144.9730 C   0  0  0  0  0  3  0  0  0  0  0  0
  190.2360  178.6280  143.1340 C   0  0  0  0  0  3  0  0  0  0  0  0
  188.1950  177.4630  143.7220 C   0  0  0  0  0  3  0  0  0  0  0  0
  192.0560  178.7380  144.7140 O   0  0  0  0  0  1  0  0  0  0  0  0
  1 11  1  6  0  0  0
  1 13  1  0  0  0  0
  2  8  1  0  0  0  0
  3 18  1  0  0  0  0
  3 12  1  0  0  0  0
  4 10  1  0  0  0  0
  4 15  1  0  0  0  0
  5 11  1  0  0  0  0
  6  5  1  0  0  0  0
  6  2  1  0  0  0  0
  7 18  1  0  0  0  0
  8  1  1  0  0  0  0
  8  3  1  0  0  0  0
  9 20  1  0  0  0  0
  9  7  1  0  0  0  0
 12 16  1  0  0  0  0
 13 19  1  0  0  0  0
 14  2  2  0  0  0  0
 14  9  1  0  0  0  0
 16 15  1  0  0  0  0
 16 30  1  0  0  0  0
 17  7  2  0  0  0  0
 18  4  1  0  0  0  0
 19 12  1  0  0  0  0
 20 22  1  0  0  0  0
 23 21  1  0  0  0  0
 23 22  1  0  0  0  0
 25 24  1  0  0  0  0
 26 25  1  0  0  0  0
 26 20  1  0  0  0  0
 27 23  1  0  0  0  0
 27 24  1  0  0  0  0
 28 34  1  0  0  0  0
 28 29  1  0  0  0  0
 30 32  1  0  0  0  0
 30 33  2  0  0  0  0
 31 29  2  0  0  0  0
 32 28  2  0  0  0  0
 33 31  1  0  0  0  0
M  END
>  <MODEL>
3

>  <REMARK>
 VINA RESULT:      -8.4      2.095      2.747
  Name = 
  2 active torsions:
  status: ('A' for Active; 'I' for Inactive)
    1  A    between atoms: C_3  and  C_17
    2  A    between atoms: C_12  and  C_28
                            x       y       z     vdW  Elec       q    Type
                         _______ _______ _______ _____ _____    ______ ____

>  <TORSDO>
F 2

$$$$
=
 OpenBabel11052414093D

 34 39  0  0  1  0  0  0  0  0999 V2000
  187.5110  178.3530  138.8610 C   0  0  2  0  0  3  0  0  0  0  0  0
  186.0930  177.8080  136.8490 C   0  0  0  0  0  0  0  0  0  0  0  0
  185.0060  178.3150  139.2400 C   0  0  2  0  0  3  0  0  0  0  0  0
  182.5820  178.2140  139.9040 N   0  0  0  0  0  0  0  0  0  0  0  0
  188.5330  178.6610  136.7050 C   0  0  0  0  0  2  0  0  0  0  0  0
  187.2560  178.2450  135.9790 C   0  0  0  0  0  2  0  0  0  0  0  0
  183.2130  177.6390  137.6020 C   0  0  0  0  0  0  0  0  0  0  0  0
  186.1880  177.7130  138.3900 C   0  0  2  0  0  3  0  0  0  0  0  0
  183.8360  176.6790  136.6510 C   0  0  1  0  0  3  0  0  0  0  0  0
  181.3580  177.4350  139.7660 C   0  0  0  0  0  1  0  0  0  0  0  0
  188.6870  177.9290  138.0180 C   0  0  0  0  0  2  0  0  0  0  0  0
  185.3470  178.2140  140.7530 C   0  0  2  0  0  3  0  0  0  0  0  0
  187.7760  178.1200  140.3290 C   0  0  0  0  0  2  0  0  0  0  0  0
  185.0840  177.3030  136.1250 C   0  0  0  0  0  3  0  0  0  0  0  0
  182.9460  178.0590  141.3060 C   0  0  0  0  0  2  0  0  0  0  0  0
  184.2320  178.8040  141.6150 C   0  0  1  0  0  3  0  0  0  0  0  0
  182.4700  178.5120  137.1760 O   0  0  0  0  0  0  0  0  0  0  0  0
  183.6300  177.6190  139.0450 C   0  0  1  0  0  3  0  0  0  0  0  0
  186.6930  178.8450  141.0920 C   0  0  0  0  0  2  0  0  0  0  0  0
  184.0910  175.2880  137.2590 C   0  0  1  0  0  3  0  0  0  0  0  0
  180.8900  174.0000  136.3480 C   0  0  0  0  0  1  0  0  0  0  0  0
  182.8710  174.6130  137.5390 O   0  0  0  0  0  0  0  0  0  0  0  0
  182.4040  173.9730  136.3730 C   0  0  1  0  0  3  0  0  0  0  0  0
  184.0740  172.2490  137.2490 C   0  0  0  0  0  2  0  0  0  0  0  0
  185.3420  173.0520  136.9290 C   0  0  0  0  0  2  0  0  0  0  0  0
  185.0970  174.4730  136.4120 C   0  0  0  0  0  2  0  0  0  0  0  0
  182.8970  172.5210  136.3040 C   0  0  0  0  0  2  0  0  0  0  0  0
  186.0070  178.1540  144.9270 C   0  0  0  0  0  0  0  0  0  0  0  0
  185.0190  178.5400  145.8380 C   0  0  0  0  0  3  0  0  0  0  0  0
  184.5240  178.7060  143.0860 C   0  0  0  0  0  0  0  0  0  0  0  0
  183.7860  179.0070  145.3760 C   0  0  0  0  0  3  0  0  0  0  0  0
  185.7610  178.2360  143.5530 C   0  0  0  0  0  3  0  0  0  0  0  0
  183.5390  179.0880  144.0020 C   0  0  0  0  0  3  0  0  0  0  0  0
  187.2320  177.6900  145.3860 O   0  0  0  0  0  1  0  0  0  0  0  0
  1 11  1  6  0  0  0
  1 13  1  0  0  0  0
  2  8  1  0  0  0  0
  3 12  1  0  0  0  0
  4 15  1  0  0  0  0
  5 11  1  0  0  0  0
  6  5  1  0  0  0  0
  6  2  1  0  0  0  0
  7 18  1  0  0  0  0
  8  1  1  0  0  0  0
  8  3  1  0  0  0  0
  9 20  1  0  0  0  0
  9  7  1  0  0  0  0
 10  4  1  0  0  0  0
 12 19  1  0  0  0  0
 12 16  1  0  0  0  0
 13 19  1  0  0  0  0
 14  9  1  0  0  0  0
 14  2  2  0  0  0  0
 15 16  1  0  0  0  0
 16 30  1  0  0  0  0
 17  7  2  0  0  0  0
 18  3  1  0  0  0  0
 18  4  1  0  0  0  0
 20 22  1  0  0  0  0
 21 23  1  0  0  0  0
 23 22  1  0  0  0  0
 25 24  1  0  0  0  0
 26 25  1  0  0  0  0
 26 20  1  0  0  0  0
 27 23  1  0  0  0  0
 27 24  1  0  0  0  0
 28 34  1  0  0  0  0
 28 29  1  0  0  0  0
 30 32  1  0  0  0  0
 30 33  2  0  0  0  0
 31 29  2  0  0  0  0
 32 28  2  0  0  0  0
 33 31  1  0  0  0  0
M  END
>  <MODEL>
4

>  <REMARK>
 VINA RESULT:      -8.2      1.162      1.582
  Name = 
  2 active torsions:
  status: ('A' for Active; 'I' for Inactive)
    1  A    between atoms: C_3  and  C_17
    2  A    between atoms: C_12  and  C_28
                            x       y       z     vdW  Elec       q    Type
                         _______ _______ _______ _____ _____    ______ ____

>  <TORSDO>
F 2

$$$$
=
 OpenBabel11052414093D

 34 39  0  0  1  0  0  0  0  0999 V2000
  190.3050  177.0340  140.1970 C   0  0  2  0  0  3  0  0  0  0  0  0
  189.5520  177.2020  137.7970 C   0  0  0  0  0  0  0  0  0  0  0  0
  188.0180  178.0540  139.8170 C   0  0  2  0  0  3  0  0  0  0  0  0
  185.6790  178.9750  139.7170 N   0  0  0  0  0  0  0  0  0  0  0  0
  192.0240  176.9400  138.5170 C   0  0  0  0  0  2  0  0  0  0  0  0
  191.0110  177.1280  137.3900 C   0  0  0  0  0  2  0  0  0  0  0  0
  186.7660  178.2540  137.6370 C   0  0  0  0  0  0  0  0  0  0  0  0
  189.0790  177.0310  139.2600 C   0  0  2  0  0  3  0  0  0  0  0  0
  187.2420  177.1480  136.7620 C   0  0  1  0  0  3  0  0  0  0  0  0
  184.3710  178.7970  139.0990 C   0  0  0  0  0  1  0  0  0  0  0  0
  191.4280  176.1730  139.6750 C   0  0  0  0  0  2  0  0  0  0  0  0
  187.7630  177.7740  141.3230 C   0  0  2  0  0  3  0  0  0  0  0  0
  189.9480  176.6670  141.6170 C   0  0  0  0  0  2  0  0  0  0  0  0
  188.7320  177.1970  136.7360 C   0  0  0  0  0  3  0  0  0  0  0  0
  185.4600  178.6400  141.1180 C   0  0  0  0  0  2  0  0  0  0  0  0
  186.7500  178.7580  141.9090 C   0  0  1  0  0  3  0  0  0  0  0  0
  186.6150  179.3720  137.1650 O   0  0  0  0  0  0  0  0  0  0  0  0
  186.6310  178.0170  139.1130 C   0  0  1  0  0  3  0  0  0  0  0  0
  189.0490  177.7620  142.1410 C   0  0  0  0  0  2  0  0  0  0  0  0
  186.7110  175.7640  137.1760 C   0  0  1  0  0  3  0  0  0  0  0  0
  183.7600  175.9960  135.1810 C   0  0  0  0  0  1  0  0  0  0  0  0
  185.3060  175.6670  136.9760 O   0  0  0  0  0  0  0  0  0  0  0  0
  185.0390  175.3240  135.6350 C   0  0  1  0  0  3  0  0  0  0  0  0
  185.5010  173.0250  136.6530 C   0  0  0  0  0  2  0  0  0  0  0  0
  187.0110  173.2190  136.8500 C   0  0  0  0  0  2  0  0  0  0  0  0
  187.5320  174.6240  136.5300 C   0  0  0  0  0  2  0  0  0  0  0  0
  184.9130  173.8030  135.4690 C   0  0  0  0  0  2  0  0  0  0  0  0
  185.0120  178.6290  145.3010 C   0  0  0  0  0  0  0  0  0  0  0  0
  185.9910  178.0020  146.0770 C   0  0  0  0  0  3  0  0  0  0  0  0
  186.4680  178.5020  143.3620 C   0  0  0  0  0  0  0  0  0  0  0  0
  187.2070  177.6260  145.4990 C   0  0  0  0  0  3  0  0  0  0  0  0
  185.2490  178.8790  143.9460 C   0  0  0  0  0  3  0  0  0  0  0  0
  187.4450  177.8760  144.1440 C   0  0  0  0  0  3  0  0  0  0  0  0
  183.8050  179.0030  145.8750 O   0  0  0  0  0  1  0  0  0  0  0  0
  1 11  1  6  0  0  0
  1 13  1  0  0  0  0
  2  8  1  0  0  0  0
  3 12  1  0  0  0  0
  4 15  1  0  0  0  0
  5 11  1  0  0  0  0
  6  2  1  0  0  0  0
  6  5  1  0  0  0  0
  7 18  1  0  0  0  0
  8  3  1  0  0  0  0
  8  1  1  0  0  0  0
  9 20  1  0  0  0  0
  9  7  1  0  0  0  0
 10  4  1  0  0  0  0
 12 16  1  0  0  0  0
 12 19  1  0  0  0  0
 13 19  1  0  0  0  0
 14  9  1  0  0  0  0
 14  2  2  0  0  0  0
 15 16  1  0  0  0  0
 16 30  1  0  0  0  0
 17  7  2  0  0  0  0
 18  4  1  0  0  0  0
 18  3  1  0  0  0  0
 21 23  1  0  0  0  0
 22 20  1  0  0  0  0
 23 22  1  0  0  0  0
 24 25  1  0  0  0  0
 26 25  1  0  0  0  0
 26 20  1  0  0  0  0
 27 23  1  0  0  0  0
 27 24  1  0  0  0  0
 28 34  1  0  0  0  0
 28 29  1  0  0  0  0
 30 32  1  0  0  0  0
 30 33  2  0  0  0  0
 31 29  2  0  0  0  0
 32 28  2  0  0  0  0
 33 31  1  0  0  0  0
M  END
>  <MODEL>
5

>  <REMARK>
 VINA RESULT:      -8.2      1.706      2.427
  Name = 
  2 active torsions:
  status: ('A' for Active; 'I' for Inactive)
    1  A    between atoms: C_3  and  C_17
    2  A    between atoms: C_12  and  C_28
                            x       y       z     vdW  Elec       q    Type
                         _______ _______ _______ _____ _____    ______ ____

>  <TORSDO>
F 2

$$$$
=
 OpenBabel11052414093D

 34 39  0  0  1  0  0  0  0  0999 V2000
  188.5620  177.3840  142.3100 C   0  0  2  0  0  3  0  0  0  0  0  0
  189.9110  177.3670  140.1800 C   0  0  0  0  0  0  0  0  0  0  0  0
  187.3970  178.2800  140.2460 C   0  0  2  0  0  3  0  0  0  0  0  0
  185.9830  179.0930  138.3320 N   0  0  0  0  0  0  0  0  0  0  0  0
  190.9530  177.2570  142.5470 C   0  0  0  0  0  2  0  0  0  0  0  0
  191.1630  177.3290  141.0360 C   0  0  0  0  0  2  0  0  0  0  0  0
  188.2570  178.2880  137.8760 C   0  0  0  0  0  0  0  0  0  0  0  0
  188.4860  177.2700  140.7730 C   0  0  2  0  0  3  0  0  0  0  0  0
  189.2080  177.1490  137.7570 C   0  0  1  0  0  3  0  0  0  0  0  0
  185.6060  178.8200  136.9500 C   0  0  0  0  0  1  0  0  0  0  0  0
  189.6680  176.5410  142.8940 C   0  0  0  0  0  2  0  0  0  0  0  0
  186.0770  178.0870  141.0420 C   0  0  2  0  0  3  0  0  0  0  0  0
  187.2400  177.0940  142.9780 C   0  0  0  0  0  2  0  0  0  0  0  0
  190.1920  177.2590  138.8730 C   0  0  0  0  0  3  0  0  0  0  0  0
  184.7650  178.8390  139.0900 C   0  0  0  0  0  2  0  0  0  0  0  0
  184.9970  179.0620  140.5730 C   0  0  1  0  0  3  0  0  0  0  0  0
  188.5440  179.3660  137.3750 O   0  0  0  0  0  0  0  0  0  0  0  0
  187.0380  178.1390  138.7400 C   0  0  1  0  0  3  0  0  0  0  0  0
  186.2830  178.1810  142.5490 C   0  0  0  0  0  2  0  0  0  0  0  0
  188.5200  175.7730  137.7200 C   0  0  1  0  0  3  0  0  0  0  0  0
  186.7520  176.4330  134.6910 C   0  0  0  0  0  1  0  0  0  0  0  0
  187.3440  175.8030  136.9220 O   0  0  0  0  0  0  0  0  0  0  0  0
  187.6860  175.6230  135.5660 C   0  0  1  0  0  3  0  0  0  0  0  0
  187.6040  173.2020  136.3820 C   0  0  0  0  0  2  0  0  0  0  0  0
  188.8780  173.2610  137.2370 C   0  0  0  0  0  2  0  0  0  0  0  0
  189.5170  174.6480  137.3560 C   0  0  0  0  0  2  0  0  0  0  0  0
  187.6130  174.1420  135.1700 C   0  0  0  0  0  2  0  0  0  0  0  0
  182.4240  178.7930  143.3750 C   0  0  0  0  0  0  0  0  0  0  0  0
  181.2580  178.5540  142.6430 C   0  0  0  0  0  3  0  0  0  0  0  0
  183.7000  178.8870  141.3120 C   0  0  0  0  0  0  0  0  0  0  0  0
  181.3110  178.4810  141.2480 C   0  0  0  0  0  3  0  0  0  0  0  0
  183.6440  178.9590  142.7120 C   0  0  0  0  0  3  0  0  0  0  0  0
  182.5300  178.6460  140.5840 C   0  0  0  0  0  3  0  0  0  0  0  0
  182.3710  178.8650  144.7610 O   0  0  0  0  0  1  0  0  0  0  0  0
  1 11  1  1  0  0  0
  1 13  1  0  0  0  0
  2  8  1  0  0  0  0
  2  6  1  0  0  0  0
  3  8  1  0  0  0  0
  3 12  1  0  0  0  0
  4 18  1  0  0  0  0
  4 15  1  0  0  0  0
  5 11  1  0  0  0  0
  6  5  1  0  0  0  0
  7 18  1  0  0  0  0
  8  1  1  0  0  0  0
  9  7  1  0  0  0  0
  9 14  1  0  0  0  0
 10  4  1  0  0  0  0
 12 19  1  0  0  0  0
 14  2  2  0  0  0  0
 15 16  1  0  0  0  0
 16 12  1  0  0  0  0
 16 30  1  0  0  0  0
 17  7  2  0  0  0  0
 18  3  1  0  0  0  0
 19 13  1  0  0  0  0
 20  9  1  0  0  0  0
 21 23  1  0  0  0  0
 22 20  1  0  0  0  0
 23 22  1  0  0  0  0
 24 25  1  0  0  0  0
 25 26  1  0  0  0  0
 26 20  1  0  0  0  0
 27 23  1  0  0  0  0
 27 24  1  0  0  0  0
 28 34  1  0  0  0  0
 29 28  2  0  0  0  0
 30 32  2  0  0  0  0
 31 29  1  0  0  0  0
 32 28  1  0  0  0  0
 33 31  2  0  0  0  0
 33 30  1  0  0  0  0
M  END
>  <MODEL>
6

>  <REMARK>
 VINA RESULT:      -6.7      2.748      4.463
  Name = 
  2 active torsions:
  status: ('A' for Active; 'I' for Inactive)
    1  A    between atoms: C_3  and  C_17
    2  A    between atoms: C_12  and  C_28
                            x       y       z     vdW  Elec       q    Type
                         _______ _______ _______ _____ _____    ______ ____

>  <TORSDO>
F 2

$$$$
=
 OpenBabel11052414093D

 34 39  0  0  1  0  0  0  0  0999 V2000
  180.6000  176.7670  140.1310 C   0  0  2  0  0  3  0  0  0  0  0  0
  181.9250  178.8260  140.7310 C   0  0  0  0  0  0  0  0  0  0  0  0
  182.7540  177.1190  138.8450 C   0  0  2  0  0  3  0  0  0  0  0  0
  184.8970  177.1700  137.5280 N   0  0  0  0  0  0  0  0  0  0  0  0
  179.4070  178.5310  141.2500 C   0  0  0  0  0  2  0  0  0  0  0  0
  180.6460  179.4230  141.2840 C   0  0  0  0  0  2  0  0  0  0  0  0
  184.4940  178.9050  139.2190 C   0  0  0  0  0  0  0  0  0  0  0  0
  182.0180  177.3710  140.2150 C   0  0  2  0  0  3  0  0  0  0  0  0
  184.4130  179.2950  140.6520 C   0  0  1  0  0  3  0  0  0  0  0  0
  186.3330  177.4010  137.6280 C   0  0  0  0  0  1  0  0  0  0  0  0
  179.7740  177.0690  141.3560 C   0  0  0  0  0  2  0  0  0  0  0  0
  182.6410  175.6180  138.4590 C   0  0  2  0  0  3  0  0  0  0  0  0
  180.6180  175.2880  139.8330 C   0  0  0  0  0  2  0  0  0  0  0  0
  182.9880  179.6130  140.9570 C   0  0  0  0  0  3  0  0  0  0  0  0
  184.7840  175.7470  137.2400 C   0  0  0  0  0  2  0  0  0  0  0  0
  183.3280  175.3330  137.1230 C   0  0  1  0  0  3  0  0  0  0  0  0
  184.6170  179.7720  138.3650 O   0  0  0  0  0  0  0  0  0  0  0  0
  184.2690  177.4710  138.8330 C   0  0  1  0  0  3  0  0  0  0  0  0
  181.1980  175.1250  138.4470 C   0  0  0  0  0  2  0  0  0  0  0  0
  184.9930  178.2410  141.6120 C   0  0  1  0  0  3  0  0  0  0  0  0
  188.3370  178.5960  140.4180 C   0  0  0  0  0  1  0  0  0  0  0  0
  186.2260  177.7240  141.1290 O   0  0  0  0  0  0  0  0  0  0  0  0
  187.2790  178.5840  141.5020 C   0  0  1  0  0  3  0  0  0  0  0  0
  187.0110  177.1810  143.6210 C   0  0  0  0  0  2  0  0  0  0  0  0
  185.6690  177.7810  144.0620 C   0  0  0  0  0  2  0  0  0  0  0  0
  185.0380  178.7610  143.0680 C   0  0  0  0  0  2  0  0  0  0  0  0
  187.9060  178.1450  142.8320 C   0  0  0  0  0  2  0  0  0  0  0  0
  182.2270  172.0710  135.4830 C   0  0  0  0  0  0  0  0  0  0  0  0
  183.1500  171.1750  136.0310 C   0  0  0  0  0  3  0  0  0  0  0  0
  183.2510  173.8850  136.7310 C   0  0  0  0  0  0  0  0  0  0  0  0
  184.1200  171.6300  136.9270 C   0  0  0  0  0  3  0  0  0  0  0  0
  182.2770  173.4240  135.8320 C   0  0  0  0  0  3  0  0  0  0  0  0
  184.1700  172.9830  137.2770 C   0  0  0  0  0  3  0  0  0  0  0  0
  181.2630  171.6190  134.5940 O   0  0  0  0  0  1  0  0  0  0  0  0
  1 13  1  1  0  0  0
  1  8  1  0  0  0  0
  1 11  1  0  0  0  0
  2 14  2  0  0  0  0
  2  6  1  0  0  0  0
  3  8  1  0  0  0  0
  4 10  1  0  0  0  0
  4 18  1  0  0  0  0
  5  6  1  0  0  0  0
  5 11  1  0  0  0  0
  7  9  1  0  0  0  0
  8  2  1  0  0  0  0
  9 14  1  0  0  0  0
  9 20  1  0  0  0  0
 12  3  1  0  0  0  0
 15  4  1  0  0  0  0
 16 15  1  0  0  0  0
 16 12  1  0  0  0  0
 17  7  2  0  0  0  0
 18  3  1  0  0  0  0
 18  7  1  0  0  0  0
 19 12  1  0  0  0  0
 19 13  1  0  0  0  0
 20 26  1  0  0  0  0
 21 23  1  0  0  0  0
 22 23  1  0  0  0  0
 22 20  1  0  0  0  0
 23 27  1  0  0  0  0
 24 25  1  0  0  0  0
 26 25  1  0  0  0  0
 27 24  1  0  0  0  0
 28 32  2  0  0  0  0
 28 29  1  0  0  0  0
 29 31  2  0  0  0  0
 30 16  1  0  0  0  0
 30 33  2  0  0  0  0
 31 33  1  0  0  0  0
 32 30  1  0  0  0  0
 34 28  1  0  0  0  0
M  END
>  <MODEL>
7

>  <REMARK>
 VINA RESULT:      -6.2      2.092      8.011
  Name = 
  2 active torsions:
  status: ('A' for Active; 'I' for Inactive)
    1  A    between atoms: C_3  and  C_17
    2  A    between atoms: C_12  and  C_28
                            x       y       z     vdW  Elec       q    Type
                         _______ _______ _______ _____ _____    ______ ____

>  <TORSDO>
F 2

$$$$
=
 OpenBabel11052414093D

 34 39  0  0  1  0  0  0  0  0999 V2000
  186.9830  176.8780  136.8360 C   0  0  2  0  0  3  0  0  0  0  0  0
  184.6880  177.8910  136.5890 C   0  0  0  0  0  0  0  0  0  0  0  0
  186.1380  178.2160  138.8140 C   0  0  2  0  0  3  0  0  0  0  0  0
  185.4830  179.3780  140.9470 N   0  0  0  0  0  0  0  0  0  0  0  0
  186.1520  177.1350  134.5940 C   0  0  0  0  0  2  0  0  0  0  0  0
  184.8620  177.7870  135.0870 C   0  0  0  0  0  2  0  0  0  0  0  0
  183.8550  179.2440  139.1120 C   0  0  0  0  0  0  0  0  0  0  0  0
  185.7120  177.3140  137.5950 C   0  0  2  0  0  3  0  0  0  0  0  0
  182.9060  178.4310  138.3050 C   0  0  1  0  0  3  0  0  0  0  0  0
  184.3960  179.5550  141.9020 C   0  0  0  0  0  1  0  0  0  0  0  0
  186.6660  176.1100  135.5780 C   0  0  0  0  0  2  0  0  0  0  0  0
  187.2460  177.4990  139.6330 C   0  0  2  0  0  3  0  0  0  0  0  0
  187.9480  176.1170  137.7130 C   0  0  0  0  0  2  0  0  0  0  0  0
  183.4620  178.3180  136.9260 C   0  0  0  0  0  3  0  0  0  0  0  0
  186.4940  178.6380  141.6900 C   0  0  0  0  0  2  0  0  0  0  0  0
  187.7020  178.3500  140.8190 C   0  0  1  0  0  3  0  0  0  0  0  0
  183.7700  180.4640  139.0930 O   0  0  0  0  0  0  0  0  0  0  0  0
  184.9970  178.5630  139.8110 C   0  0  1  0  0  3  0  0  0  0  0  0
  188.4320  177.0800  138.7720 C   0  0  0  0  0  2  0  0  0  0  0  0
  182.5930  177.0570  138.9230 C   0  0  1  0  0  3  0  0  0  0  0  0
  180.2440  178.3450  141.2810 C   0  0  0  0  0  1  0  0  0  0  0  0
  182.0560  177.1870  140.2330 O   0  0  0  0  0  0  0  0  0  0  0  0
  180.6690  177.4230  140.1560 C   0  0  1  0  0  3  0  0  0  0  0  0
  180.7490  174.8760  139.9630 C   0  0  0  0  0  2  0  0  0  0  0  0
  181.3470  174.8250  138.5510 C   0  0  0  0  0  2  0  0  0  0  0  0
  181.7490  176.1820  137.9650 C   0  0  0  0  0  2  0  0  0  0  0  0
  179.8790  176.1100  140.2370 C   0  0  0  0  0  2  0  0  0  0  0  0
  191.0850  177.1280  142.0840 C   0  0  0  0  0  0  0  0  0  0  0  0
  190.6980  176.3970  143.2110 C   0  0  0  0  0  3  0  0  0  0  0  0
  188.7610  177.6750  141.6420 C   0  0  0  0  0  0  0  0  0  0  0  0
  189.3470  176.3020  143.5540 C   0  0  0  0  0  3  0  0  0  0  0  0
  190.1190  177.7660  141.3000 C   0  0  0  0  0  3  0  0  0  0  0  0
  188.3800  176.9400  142.7700 C   0  0  0  0  0  3  0  0  0  0  0  0
  192.4280  177.2200  141.7430 O   0  0  0  0  0  1  0  0  0  0  0  0
  1 11  1  6  0  0  0
  1  8  1  0  0  0  0
  1 13  1  0  0  0  0
  2 14  2  0  0  0  0
  2  8  1  0  0  0  0
  3 12  1  0  0  0  0
  3 18  1  0  0  0  0
  4 15  1  0  0  0  0
  4 10  1  0  0  0  0
  5  6  1  0  0  0  0
  5 11  1  0  0  0  0
  6  2  1  0  0  0  0
  7 18  1  0  0  0  0
  8  3  1  0  0  0  0
  9 20  1  0  0  0  0
  9  7  1  0  0  0  0
 12 16  1  0  0  0  0
 13 19  1  0  0  0  0
 14  9  1  0  0  0  0
 16 30  1  0  0  0  0
 16 15  1  0  0  0  0
 17  7  2  0  0  0  0
 18  4  1  0  0  0  0
 19 12  1  0  0  0  0
 20 22  1  0  0  0  0
 23 22  1  0  0  0  0
 23 27  1  0  0  0  0
 23 21  1  0  0  0  0
 24 27  1  0  0  0  0
 25 24  1  0  0  0  0
 26 25  1  0  0  0  0
 26 20  1  0  0  0  0
 28 29  1  0  0  0  0
 29 31  2  0  0  0  0
 30 33  2  0  0  0  0
 32 30  1  0  0  0  0
 32 28  2  0  0  0  0
 33 31  1  0  0  0  0
 34 28  1  0  0  0  0
M  END
>  <MODEL>
8

>  <REMARK>
 VINA RESULT:      -6.1      2.566      3.855
  Name = 
  2 active torsions:
  status: ('A' for Active; 'I' for Inactive)
    1  A    between atoms: C_3  and  C_17
    2  A    between atoms: C_12  and  C_28
                            x       y       z     vdW  Elec       q    Type
                         _______ _______ _______ _____ _____    ______ ____

>  <TORSDO>
F 2

$$$$
