=
 OpenBabel11052413273D

 28 31  0  0  1  0  0  0  0  0999 V2000
  189.8790  177.0610  141.7250 C   0  0  0  0  0  0  0  0  0  0  0  0
  185.4720  178.4390  143.1820 C   0  0  0  0  0  2  0  0  0  0  0  0
  190.1100  178.5940  144.9440 O   0  0  0  0  0  1  0  0  0  0  0  0
  185.1530  178.6420  146.2870 C   0  0  0  0  0  3  0  0  0  0  0  0
  187.6830  177.5660  143.8770 C   0  0  2  0  0  3  0  0  0  0  0  0
  183.3880  178.9080  144.5160 C   0  0  0  0  0  0  0  0  0  0  0  0
  186.2850  177.9950  144.1390 C   0  0  1  0  0  3  0  0  0  0  0  0
  187.4660  178.0700  146.1450 O   0  0  0  0  0  0  0  0  0  0  0  0
  183.7680  178.7080  145.7800 C   0  0  0  0  0  3  0  0  0  0  0  0
  190.1680  176.2680  144.1840 C   0  0  2  0  0  3  0  0  0  0  0  0
  187.8710  176.3980  143.0330 N   0  0  0  0  0  2  0  0  0  0  0  0
  186.2300  178.3230  145.5650 C   0  0  0  0  0  0  0  0  0  0  0  0
  191.9740  177.5590  143.0100 C   0  0  0  0  0  2  0  0  0  0  0  0
  189.6930  177.2950  145.2520 C   0  0  2  0  0  3  0  0  0  0  0  0
  191.6670  176.3460  143.8870 C   0  0  0  0  0  2  0  0  0  0  0  0
  182.0640  178.8850  144.2310 F   0  0  0  0  0  0  0  0  0  0  0  0
  184.3240  179.3610  143.4410 C   0  0  0  0  0  2  0  0  0  0  0  0
  188.1850  177.2270  145.2600 C   0  0  2  0  0  3  0  0  0  0  0  0
  191.1110  177.5950  141.7790 C   0  0  0  0  0  3  0  0  0  0  0  0
  189.3290  176.2090  142.8540 C   0  0  1  0  0  3  0  0  0  0  0  0
  189.1410  177.1080  140.4200 C   0  0  0  0  0  2  0  0  0  0  0  0
  189.9850  177.7750  139.3380 C   0  0  0  0  0  2  0  0  0  0  0  0
  189.4890  177.3840  137.9500 C   0  0  2  0  0  3  0  0  0  0  0  0
  191.7660  176.3680  138.0750 C   0  0  0  0  0  1  0  0  0  0  0  0
  190.5930  176.6910  137.1650 C   0  0  0  0  0  2  0  0  0  0  0  0
  189.0280  178.6190  137.1910 C   0  0  0  0  0  2  0  0  0  0  0  0
  187.7230  178.9560  137.5570 O   0  0  0  0  0  0  0  0  0  0  0  0
  186.9440  177.8690  137.1530 C   0  0  0  0  0  1  0  0  0  0  0  0
  1 19  2  0  0  0  0
  2 17  1  0  0  0  0
  5 11  1  6  0  0  0
  5  7  1  0  0  0  0
  5 18  1  0  0  0  0
  6  9  2  0  0  0  0
  7  2  1  6  0  0  0
  7 12  1  0  0  0  0
  9  4  1  0  0  0  0
 10 15  1  6  0  0  0
 10 14  1  0  0  0  0
 12  8  1  0  0  0  0
 12  4  2  0  0  0  0
 13 15  1  0  0  0  0
 14  3  1  6  0  0  0
 14 18  1  0  0  0  0
 16  6  1  0  0  0  0
 17  6  1  0  0  0  0
 18  8  1  1  0  0  0
 19 13  1  0  0  0  0
 20  1  1  6  0  0  0
 20 11  1  0  0  0  0
 20 10  1  0  0  0  0
 21  1  1  0  0  0  0
 22 21  1  0  0  0  0
 23 25  1  6  0  0  0
 23 22  1  0  0  0  0
 25 24  1  0  0  0  0
 26 27  1  0  0  0  0
 26 23  1  0  0  0  0
 28 27  1  0  0  0  0
M  END
>  <MODEL>
1

>  <REMARK>
 VINA RESULT:      -8.8      0.000      0.000
  Name = 
  6 active torsions:
  status: ('A' for Active; 'I' for Inactive)
    1  A    between atoms: C_1  and  C_2
    2  A    between atoms: C_2  and  C_3
    3  A    between atoms: C_3  and  C_7
    4  A    between atoms: O_6  and  C_28
    5  A    between atoms: C_7  and  C_11
    6  A    between atoms: C_7  and  C_28
                            x       y       z     vdW  Elec       q    Type
                         _______ _______ _______ _____ _____    ______ ____

>  <TORSDO>
F 6

$$$$
=
 OpenBabel11052413273D

 28 31  0  0  1  0  0  0  0  0999 V2000
  189.8470  176.9350  141.5950 C   0  0  0  0  0  0  0  0  0  0  0  0
  185.4560  178.3150  143.0980 C   0  0  0  0  0  2  0  0  0  0  0  0
  190.1370  178.6490  144.7160 O   0  0  0  0  0  1  0  0  0  0  0  0
  185.2180  178.6860  146.1950 C   0  0  0  0  0  3  0  0  0  0  0  0
  187.7020  177.5210  143.7770 C   0  0  2  0  0  3  0  0  0  0  0  0
  183.4010  178.8230  144.4620 C   0  0  0  0  0  0  0  0  0  0  0  0
  186.3030  177.9400  144.0540 C   0  0  1  0  0  3  0  0  0  0  0  0
  187.5380  178.1470  146.0200 O   0  0  0  0  0  0  0  0  0  0  0  0
  183.8190  178.7000  145.7240 C   0  0  0  0  0  3  0  0  0  0  0  0
  190.2190  176.2850  144.0850 C   0  0  2  0  0  3  0  0  0  0  0  0
  187.8890  176.3110  142.9950 N   0  0  0  0  0  2  0  0  0  0  0  0
  186.2810  178.3460  145.4610 C   0  0  0  0  0  0  0  0  0  0  0  0
  191.9670  177.5400  142.7910 C   0  0  0  0  0  2  0  0  0  0  0  0
  189.7540  177.3630  145.1080 C   0  0  2  0  0  3  0  0  0  0  0  0
  191.7070  176.3740  143.7430 C   0  0  0  0  0  2  0  0  0  0  0  0
  182.0700  178.7600  144.2170 F   0  0  0  0  0  0  0  0  0  0  0  0
  184.2990  179.2310  143.3380 C   0  0  0  0  0  2  0  0  0  0  0  0
  188.2480  177.2690  145.1620 C   0  0  2  0  0  3  0  0  0  0  0  0
  191.0700  177.4930  141.5850 C   0  0  0  0  0  3  0  0  0  0  0  0
  189.3450  176.1390  142.7850 C   0  0  1  0  0  3  0  0  0  0  0  0
  189.0730  176.8970  140.3110 C   0  0  0  0  0  2  0  0  0  0  0  0
  189.0220  178.2760  139.6620 C   0  0  0  0  0  2  0  0  0  0  0  0
  189.6670  178.2470  138.2810 C   0  0  2  0  0  3  0  0  0  0  0  0
  187.4430  178.2440  137.1450 C   0  0  0  0  0  1  0  0  0  0  0  0
  188.7820  178.9530  137.2640 C   0  0  0  0  0  2  0  0  0  0  0  0
  189.8970  176.8100  137.8390 C   0  0  0  0  0  2  0  0  0  0  0  0
  191.1270  176.6930  137.1860 O   0  0  0  0  0  0  0  0  0  0  0  0
  191.9100  175.9060  138.0330 C   0  0  0  0  0  1  0  0  0  0  0  0
  2 17  1  0  0  0  0
  5 11  1  6  0  0  0
  5  7  1  0  0  0  0
  5 18  1  0  0  0  0
  6  9  2  0  0  0  0
  7  2  1  6  0  0  0
  7 12  1  0  0  0  0
  9  4  1  0  0  0  0
 10 15  1  6  0  0  0
 10 14  1  0  0  0  0
 12  8  1  0  0  0  0
 12  4  2  0  0  0  0
 13 15  1  0  0  0  0
 14  3  1  6  0  0  0
 14 18  1  0  0  0  0
 16  6  1  0  0  0  0
 17  6  1  0  0  0  0
 18  8  1  1  0  0  0
 19  1  2  0  0  0  0
 19 13  1  0  0  0  0
 20  1  1  6  0  0  0
 20 11  1  0  0  0  0
 20 10  1  0  0  0  0
 21  1  1  0  0  0  0
 22 21  1  0  0  0  0
 23 25  1  6  0  0  0
 23 22  1  0  0  0  0
 24 25  1  0  0  0  0
 26 23  1  0  0  0  0
 27 26  1  0  0  0  0
 27 28  1  0  0  0  0
M  END
>  <MODEL>
2

>  <REMARK>
 VINA RESULT:      -8.6      0.864      1.740
  Name = 
  6 active torsions:
  status: ('A' for Active; 'I' for Inactive)
    1  A    between atoms: C_1  and  C_2
    2  A    between atoms: C_2  and  C_3
    3  A    between atoms: C_3  and  C_7
    4  A    between atoms: O_6  and  C_28
    5  A    between atoms: C_7  and  C_11
    6  A    between atoms: C_7  and  C_28
                            x       y       z     vdW  Elec       q    Type
                         _______ _______ _______ _____ _____    ______ ____

>  <TORSDO>
F 6

$$$$
=
 OpenBabel11052413273D

 28 31  0  0  1  0  0  0  0  0999 V2000
  187.6430  177.8410  145.9030 C   0  0  0  0  0  0  0  0  0  0  0  0
  188.2710  177.9780  141.1040 C   0  0  0  0  0  2  0  0  0  0  0  0
  185.2510  180.0600  144.4480 O   0  0  0  0  0  1  0  0  0  0  0  0
  185.7060  178.7710  139.4970 C   0  0  0  0  0  3  0  0  0  0  0  0
  186.6370  178.0710  142.9630 C   0  0  2  0  0  3  0  0  0  0  0  0
  187.9370  178.0240  138.6080 C   0  0  0  0  0  0  0  0  0  0  0  0
  187.0100  178.0600  141.5250 C   0  0  1  0  0  3  0  0  0  0  0  0
  184.8790  178.9810  141.7270 O   0  0  0  0  0  0  0  0  0  0  0  0
  186.6300  178.2560  138.4660 C   0  0  0  0  0  3  0  0  0  0  0  0
  185.1110  177.7760  145.3170 C   0  0  2  0  0  3  0  0  0  0  0  0
  186.9220  176.8700  143.7300 N   0  0  0  0  0  2  0  0  0  0  0  0
  185.8820  178.6700  140.8170 C   0  0  0  0  0  0  0  0  0  0  0  0
  185.9930  179.2860  147.1190 C   0  0  0  0  0  2  0  0  0  0  0  0
  184.6740  178.8040  144.2330 C   0  0  2  0  0  3  0  0  0  0  0  0
  184.9080  178.2760  146.7480 C   0  0  0  0  0  2  0  0  0  0  0  0
  188.6140  177.4980  137.5590 F   0  0  0  0  0  0  0  0  0  0  0  0
  188.7320  178.5010  139.7810 C   0  0  0  0  0  2  0  0  0  0  0  0
  185.1380  178.2440  142.9110 C   0  0  2  0  0  3  0  0  0  0  0  0
  187.3730  178.7510  146.8550 C   0  0  0  0  0  3  0  0  0  0  0  0
  186.5380  177.1390  145.1350 C   0  0  1  0  0  3  0  0  0  0  0  0
  189.0510  177.3410  145.7770 C   0  0  0  0  0  2  0  0  0  0  0  0
  189.9050  178.3070  144.9630 C   0  0  0  0  0  2  0  0  0  0  0  0
  191.2540  177.6820  144.6240 C   0  0  2  0  0  3  0  0  0  0  0  0
  190.6510  175.8790  143.0050 C   0  0  0  0  0  1  0  0  0  0  0  0
  191.2890  177.2480  143.1660 C   0  0  0  0  0  2  0  0  0  0  0  0
  191.5130  176.4770  145.5150 C   0  0  0  0  0  2  0  0  0  0  0  0
  192.1250  176.8760  146.7060 O   0  0  0  0  0  0  0  0  0  0  0  0
  192.2060  175.7130  147.4760 C   0  0  0  0  0  1  0  0  0  0  0  0
  1 19  2  0  0  0  0
  4 12  2  0  0  0  0
  5 11  1  6  0  0  0
  6 17  1  0  0  0  0
  7  2  1  1  0  0  0
  7  5  1  0  0  0  0
  9  6  2  0  0  0  0
  9  4  1  0  0  0  0
 10 15  1  1  0  0  0
 12  7  1  0  0  0  0
 12  8  1  0  0  0  0
 14  3  1  1  0  0  0
 14 10  1  0  0  0  0
 15 13  1  0  0  0  0
 16  6  1  0  0  0  0
 17  2  1  0  0  0  0
 18  8  1  6  0  0  0
 18  5  1  0  0  0  0
 18 14  1  0  0  0  0
 19 13  1  0  0  0  0
 20 11  1  6  0  0  0
 20 10  1  0  0  0  0
 20  1  1  0  0  0  0
 21  1  1  0  0  0  0
 22 21  1  0  0  0  0
 23 25  1  6  0  0  0
 23 22  1  0  0  0  0
 23 26  1  0  0  0  0
 24 25  1  0  0  0  0
 26 27  1  0  0  0  0
 27 28  1  0  0  0  0
M  END
>  <MODEL>
3

>  <REMARK>
 VINA RESULT:      -8.3      2.694      6.406
  Name = 
  6 active torsions:
  status: ('A' for Active; 'I' for Inactive)
    1  A    between atoms: C_1  and  C_2
    2  A    between atoms: C_2  and  C_3
    3  A    between atoms: C_3  and  C_7
    4  A    between atoms: O_6  and  C_28
    5  A    between atoms: C_7  and  C_11
    6  A    between atoms: C_7  and  C_28
                            x       y       z     vdW  Elec       q    Type
                         _______ _______ _______ _____ _____    ______ ____

>  <TORSDO>
F 6

$$$$
=
 OpenBabel11052413273D

 28 31  0  0  1  0  0  0  0  0999 V2000
  187.6860  177.8660  143.1290 C   0  0  0  0  0  0  0  0  0  0  0  0
  187.7880  177.1330  138.3440 C   0  0  0  0  0  2  0  0  0  0  0  0
  190.4020  175.6940  142.3110 O   0  0  0  0  0  1  0  0  0  0  0  0
  190.6070  176.3690  137.2230 C   0  0  0  0  0  3  0  0  0  0  0  0
  189.1300  177.3840  140.4110 C   0  0  2  0  0  3  0  0  0  0  0  0
  188.4910  176.8290  135.9450 C   0  0  0  0  0  0  0  0  0  0  0  0
  188.9750  177.2000  138.9440 C   0  0  1  0  0  3  0  0  0  0  0  0
  191.1060  176.4810  139.5560 O   0  0  0  0  0  0  0  0  0  0  0  0
  189.8160  176.6860  136.0180 C   0  0  0  0  0  3  0  0  0  0  0  0
  190.2680  178.0670  142.9000 C   0  0  2  0  0  3  0  0  0  0  0  0
  188.6600  178.6380  140.9750 N   0  0  0  0  0  2  0  0  0  0  0  0
  190.2310  176.6050  138.4830 C   0  0  0  0  0  0  0  0  0  0  0  0
  189.2250  176.7070  144.7350 C   0  0  0  0  0  2  0  0  0  0  0  0
  190.9250  176.9590  142.0250 C   0  0  2  0  0  3  0  0  0  0  0  0
  190.2870  177.7510  144.3970 C   0  0  0  0  0  2  0  0  0  0  0  0
  187.9460  177.1750  134.7540 F   0  0  0  0  0  0  0  0  0  0  0  0
  187.5620  176.4260  137.0460 C   0  0  0  0  0  2  0  0  0  0  0  0
  190.6280  177.3250  140.5910 C   0  0  2  0  0  3  0  0  0  0  0  0
  187.8680  177.0960  144.2150 C   0  0  0  0  0  3  0  0  0  0  0  0
  188.8470  178.5620  142.4420 C   0  0  1  0  0  3  0  0  0  0  0  0
  186.2840  178.2350  142.7470 C   0  0  0  0  0  2  0  0  0  0  0  0
  185.2960  177.8340  143.8370 C   0  0  0  0  0  2  0  0  0  0  0  0
  184.8490  179.0530  144.6370 C   0  0  2  0  0  3  0  0  0  0  0  0
  185.9540  178.7470  146.8550 C   0  0  0  0  0  1  0  0  0  0  0  0
  184.6380  178.6850  146.0980 C   0  0  0  0  0  2  0  0  0  0  0  0
  183.5550  179.6100  144.0640 C   0  0  0  0  0  2  0  0  0  0  0  0
  182.4960  178.7340  144.3140 O   0  0  0  0  0  0  0  0  0  0  0  0
  181.5640  179.0000  143.3090 C   0  0  0  0  0  1  0  0  0  0  0  0
  1 19  2  0  0  0  0
  4 12  2  0  0  0  0
  5 18  1  0  0  0  0
  5 11  1  6  0  0  0
  6  9  2  0  0  0  0
  6 17  1  0  0  0  0
  7  2  1  1  0  0  0
  7  5  1  0  0  0  0
  9  4  1  0  0  0  0
 10 15  1  1  0  0  0
 12  7  1  0  0  0  0
 12  8  1  0  0  0  0
 14  3  1  1  0  0  0
 14 10  1  0  0  0  0
 15 13  1  0  0  0  0
 16  6  1  0  0  0  0
 17  2  1  0  0  0  0
 18  8  1  6  0  0  0
 18 14  1  0  0  0  0
 19 13  1  0  0  0  0
 20 11  1  6  0  0  0
 20 10  1  0  0  0  0
 20  1  1  0  0  0  0
 21  1  1  0  0  0  0
 21 22  1  0  0  0  0
 23 22  1  6  0  0  0
 23 25  1  0  0  0  0
 25 24  1  0  0  0  0
 26 27  1  0  0  0  0
 26 23  1  0  0  0  0
 28 27  1  0  0  0  0
M  END
>  <MODEL>
4

>  <REMARK>
 VINA RESULT:      -7.9      2.923      7.193
  Name = 
  6 active torsions:
  status: ('A' for Active; 'I' for Inactive)
    1  A    between atoms: C_1  and  C_2
    2  A    between atoms: C_2  and  C_3
    3  A    between atoms: C_3  and  C_7
    4  A    between atoms: O_6  and  C_28
    5  A    between atoms: C_7  and  C_11
    6  A    between atoms: C_7  and  C_28
                            x       y       z     vdW  Elec       q    Type
                         _______ _______ _______ _____ _____    ______ ____

>  <TORSDO>
F 6

$$$$
=
 OpenBabel11052413273D

 28 31  0  0  1  0  0  0  0  0999 V2000
  187.3360  177.8130  142.9390 C   0  0  0  0  0  0  0  0  0  0  0  0
  187.8350  177.0540  138.1830 C   0  0  0  0  0  2  0  0  0  0  0  0
  190.2790  175.8770  142.3410 O   0  0  0  0  0  1  0  0  0  0  0  0
  190.7800  176.5270  137.2700 C   0  0  0  0  0  3  0  0  0  0  0  0
  189.0030  177.4350  140.3340 C   0  0  2  0  0  3  0  0  0  0  0  0
  188.7270  176.7930  135.8430 C   0  0  0  0  0  0  0  0  0  0  0  0
  188.9670  177.2270  138.8630 C   0  0  1  0  0  3  0  0  0  0  0  0
  191.1030  176.7000  139.6300 O   0  0  0  0  0  0  0  0  0  0  0  0
  190.0510  176.7660  136.0090 C   0  0  0  0  0  3  0  0  0  0  0  0
  189.9020  178.2330  142.8850 C   0  0  2  0  0  3  0  0  0  0  0  0
  188.3890  178.6480  140.8470 N   0  0  0  0  0  2  0  0  0  0  0  0
  190.2980  176.7400  138.4970 C   0  0  0  0  0  0  0  0  0  0  0  0
  188.8520  176.8030  144.6630 C   0  0  0  0  0  2  0  0  0  0  0  0
  190.7100  177.1800  142.0730 C   0  0  2  0  0  3  0  0  0  0  0  0
  189.8430  177.9320  144.3850 C   0  0  0  0  0  2  0  0  0  0  0  0
  188.2390  177.0820  134.6120 F   0  0  0  0  0  0  0  0  0  0  0  0
  187.7620  176.3200  136.8820 C   0  0  0  0  0  2  0  0  0  0  0  0
  190.4840  177.5080  140.6170 C   0  0  2  0  0  3  0  0  0  0  0  0
  187.5070  177.0700  144.0460 C   0  0  0  0  0  3  0  0  0  0  0  0
  188.4780  178.6010  142.3240 C   0  0  1  0  0  3  0  0  0  0  0  0
  185.9380  178.0560  142.4560 C   0  0  0  0  0  2  0  0  0  0  0  0
  185.2820  179.1950  143.2300 C   0  0  0  0  0  2  0  0  0  0  0  0
  184.0570  178.6960  143.9900 C   0  0  2  0  0  3  0  0  0  0  0  0
  181.5610  178.6400  143.9800 C   0  0  0  0  0  1  0  0  0  0  0  0
  182.7940  179.3580  143.4600 C   0  0  0  0  0  2  0  0  0  0  0  0
  184.2010  179.0000  145.4730 C   0  0  0  0  0  2  0  0  0  0  0  0
  185.5310  179.3000  145.7810 O   0  0  0  0  0  0  0  0  0  0  0  0
  185.7840  178.6270  146.9790 C   0  0  0  0  0  1  0  0  0  0  0  0
  1 19  2  0  0  0  0
  4 12  2  0  0  0  0
  5 18  1  0  0  0  0
  5 11  1  6  0  0  0
  6  9  2  0  0  0  0
  6 17  1  0  0  0  0
  7  2  1  1  0  0  0
  7  5  1  0  0  0  0
  9  4  1  0  0  0  0
 10 15  1  1  0  0  0
 12  7  1  0  0  0  0
 12  8  1  0  0  0  0
 14  3  1  6  0  0  0
 14 10  1  0  0  0  0
 15 13  1  0  0  0  0
 16  6  1  0  0  0  0
 17  2  1  0  0  0  0
 18  8  1  6  0  0  0
 18 14  1  0  0  0  0
 19 13  1  0  0  0  0
 20 11  1  6  0  0  0
 20 10  1  0  0  0  0
 20  1  1  0  0  0  0
 21  1  1  0  0  0  0
 21 22  1  0  0  0  0
 23 22  1  6  0  0  0
 23 26  1  0  0  0  0
 25 24  1  0  0  0  0
 25 23  1  0  0  0  0
 26 27  1  0  0  0  0
 27 28  1  0  0  0  0
M  END
>  <MODEL>
5

>  <REMARK>
 VINA RESULT:      -7.9      2.811      7.390
  Name = 
  6 active torsions:
  status: ('A' for Active; 'I' for Inactive)
    1  A    between atoms: C_1  and  C_2
    2  A    between atoms: C_2  and  C_3
    3  A    between atoms: C_3  and  C_7
    4  A    between atoms: O_6  and  C_28
    5  A    between atoms: C_7  and  C_11
    6  A    between atoms: C_7  and  C_28
                            x       y       z     vdW  Elec       q    Type
                         _______ _______ _______ _____ _____    ______ ____

>  <TORSDO>
F 6

$$$$
=
 OpenBabel11052413273D

 28 31  0  0  1  0  0  0  0  0999 V2000
  188.8810  177.7820  145.1350 C   0  0  0  0  0  0  0  0  0  0  0  0
  188.0570  178.0820  140.3740 C   0  0  0  0  0  2  0  0  0  0  0  0
  191.0830  175.5680  143.4000 O   0  0  0  0  0  1  0  0  0  0  0  0
  190.5060  177.2900  138.5950 C   0  0  0  0  0  3  0  0  0  0  0  0
  189.7550  177.7460  142.1450 C   0  0  2  0  0  3  0  0  0  0  0  0
  188.2880  178.2280  137.8700 C   0  0  0  0  0  0  0  0  0  0  0  0
  189.3260  177.8970  140.7300 C   0  0  1  0  0  3  0  0  0  0  0  0
  191.4070  176.8500  140.7620 O   0  0  0  0  0  0  0  0  0  0  0  0
  189.5720  177.9380  137.6520 C   0  0  0  0  0  3  0  0  0  0  0  0
  191.3880  177.7600  144.4450 C   0  0  2  0  0  3  0  0  0  0  0  0
  189.5700  178.8920  143.0190 N   0  0  0  0  0  2  0  0  0  0  0  0
  190.3880  177.2890  139.9260 C   0  0  0  0  0  0  0  0  0  0  0  0
  190.4930  176.1540  146.1550 C   0  0  0  0  0  2  0  0  0  0  0  0
  191.7220  176.8040  143.2630 C   0  0  2  0  0  3  0  0  0  0  0  0
  191.6180  177.1310  145.8210 C   0  0  0  0  0  2  0  0  0  0  0  0
  187.6010  178.8750  136.8980 F   0  0  0  0  0  0  0  0  0  0  0  0
  187.5140  177.6970  139.0350 C   0  0  0  0  0  2  0  0  0  0  0  0
  191.2380  177.4970  142.0120 C   0  0  2  0  0  3  0  0  0  0  0  0
  189.1360  176.7830  145.9970 C   0  0  0  0  0  3  0  0  0  0  0  0
  189.9930  178.4850  144.3790 C   0  0  1  0  0  3  0  0  0  0  0  0
  187.5000  178.3660  145.1140 C   0  0  0  0  0  2  0  0  0  0  0  0
  186.5370  177.4650  144.3470 C   0  0  0  0  0  2  0  0  0  0  0  0
  185.3020  178.2450  143.9070 C   0  0  2  0  0  3  0  0  0  0  0  0
  184.4960  178.3750  141.5480 C   0  0  0  0  0  1  0  0  0  0  0  0
  185.5290  178.8770  142.5420 C   0  0  0  0  0  2  0  0  0  0  0  0
  184.9810  179.3330  144.9200 C   0  0  0  0  0  2  0  0  0  0  0  0
  183.8590  178.9810  145.6740 O   0  0  0  0  0  0  0  0  0  0  0  0
  182.8200  178.8800  144.7460 C   0  0  0  0  0  1  0  0  0  0  0  0
  1 19  2  0  0  0  0
  4 12  2  0  0  0  0
  5 11  1  1  0  0  0
  6 17  1  0  0  0  0
  7  2  1  1  0  0  0
  7  5  1  0  0  0  0
  9  6  2  0  0  0  0
  9  4  1  0  0  0  0
 10 15  1  1  0  0  0
 12  7  1  0  0  0  0
 12  8  1  0  0  0  0
 14  3  1  1  0  0  0
 14 10  1  0  0  0  0
 15 13  1  0  0  0  0
 16  6  1  0  0  0  0
 17  2  1  0  0  0  0
 18  8  1  6  0  0  0
 18  5  1  0  0  0  0
 18 14  1  0  0  0  0
 19 13  1  0  0  0  0
 20 11  1  6  0  0  0
 20 10  1  0  0  0  0
 20  1  1  0  0  0  0
 21  1  1  0  0  0  0
 22 21  1  0  0  0  0
 23 25  1  6  0  0  0
 23 22  1  0  0  0  0
 23 26  1  0  0  0  0
 24 25  1  0  0  0  0
 26 27  1  0  0  0  0
 28 27  1  0  0  0  0
M  END
>  <MODEL>
6

>  <REMARK>
 VINA RESULT:      -7.8      2.540      6.292
  Name = 
  6 active torsions:
  status: ('A' for Active; 'I' for Inactive)
    1  A    between atoms: C_1  and  C_2
    2  A    between atoms: C_2  and  C_3
    3  A    between atoms: C_3  and  C_7
    4  A    between atoms: O_6  and  C_28
    5  A    between atoms: C_7  and  C_11
    6  A    between atoms: C_7  and  C_28
                            x       y       z     vdW  Elec       q    Type
                         _______ _______ _______ _____ _____    ______ ____

>  <TORSDO>
F 6

$$$$
=
 OpenBabel11052413273D

 28 31  0  0  1  0  0  0  0  0999 V2000
  188.8700  177.5150  145.9660 C   0  0  0  0  0  0  0  0  0  0  0  0
  185.4250  178.2900  142.6540 C   0  0  0  0  0  2  0  0  0  0  0  0
  186.4200  179.7520  147.2920 O   0  0  0  0  0  1  0  0  0  0  0  0
  182.6580  179.1240  143.8530 C   0  0  0  0  0  3  0  0  0  0  0  0
  185.9360  178.0510  145.0660 C   0  0  2  0  0  3  0  0  0  0  0  0
  183.2360  178.6280  141.4560 C   0  0  0  0  0  0  0  0  0  0  0  0
  185.0110  178.2440  143.9190 C   0  0  1  0  0  3  0  0  0  0  0  0
  183.9560  179.0030  145.8530 O   0  0  0  0  0  0  0  0  0  0  0  0
  182.3550  178.7990  142.4450 C   0  0  0  0  0  3  0  0  0  0  0  0
  186.8820  177.3730  147.6350 C   0  0  2  0  0  3  0  0  0  0  0  0
  186.6410  176.7830  145.1430 N   0  0  0  0  0  2  0  0  0  0  0  0
  183.8100  178.8690  144.4780 C   0  0  0  0  0  0  0  0  0  0  0  0
  188.9470  178.6950  148.1780 C   0  0  0  0  0  2  0  0  0  0  0  0
  185.8220  178.5020  147.4720 C   0  0  2  0  0  3  0  0  0  0  0  0
  187.9360  177.6770  148.7020 C   0  0  0  0  0  2  0  0  0  0  0  0
  182.7690  178.2800  140.2330 F   0  0  0  0  0  0  0  0  0  0  0  0
  184.6790  179.0010  141.5710 C   0  0  0  0  0  2  0  0  0  0  0  0
  185.0080  178.1410  146.2530 C   0  0  2  0  0  3  0  0  0  0  0  0
  189.5280  178.2810  146.8540 C   0  0  0  0  0  3  0  0  0  0  0  0
  187.5500  176.8510  146.3100 C   0  0  1  0  0  3  0  0  0  0  0  0
  189.5810  177.1200  144.7070 C   0  0  0  0  0  2  0  0  0  0  0  0
  189.9070  178.3420  143.8550 C   0  0  0  0  0  2  0  0  0  0  0  0
  189.9200  177.9800  142.3730 C   0  0  2  0  0  3  0  0  0  0  0  0
  188.5140  177.8870  140.3120 C   0  0  0  0  0  1  0  0  0  0  0  0
  188.5010  177.8990  141.8310 C   0  0  0  0  0  2  0  0  0  0  0  0
  190.6170  176.6440  142.1660 C   0  0  0  0  0  2  0  0  0  0  0  0
  191.9900  176.8340  141.9860 O   0  0  0  0  0  0  0  0  0  0  0  0
  192.1020  177.5030  140.7640 C   0  0  0  0  0  1  0  0  0  0  0  0
  1 20  1  0  0  0  0
  1 19  2  0  0  0  0
  4 12  2  0  0  0  0
  5 11  1  6  0  0  0
  5 18  1  0  0  0  0
  6 17  1  0  0  0  0
  6  9  2  0  0  0  0
  7  2  1  6  0  0  0
  7 12  1  0  0  0  0
  7  5  1  0  0  0  0
  9  4  1  0  0  0  0
 10 15  1  1  0  0  0
 12  8  1  0  0  0  0
 13 15  1  0  0  0  0
 14  3  1  6  0  0  0
 14 10  1  0  0  0  0
 16  6  1  0  0  0  0
 17  2  1  0  0  0  0
 18  8  1  6  0  0  0
 18 14  1  0  0  0  0
 19 13  1  0  0  0  0
 20 11  1  6  0  0  0
 20 10  1  0  0  0  0
 21  1  1  0  0  0  0
 22 21  1  0  0  0  0
 23 25  1  1  0  0  0
 23 22  1  0  0  0  0
 24 25  1  0  0  0  0
 26 23  1  0  0  0  0
 27 26  1  0  0  0  0
 28 27  1  0  0  0  0
M  END
>  <MODEL>
7

>  <REMARK>
 VINA RESULT:      -7.7      2.456      4.328
  Name = 
  6 active torsions:
  status: ('A' for Active; 'I' for Inactive)
    1  A    between atoms: C_1  and  C_2
    2  A    between atoms: C_2  and  C_3
    3  A    between atoms: C_3  and  C_7
    4  A    between atoms: O_6  and  C_28
    5  A    between atoms: C_7  and  C_11
    6  A    between atoms: C_7  and  C_28
                            x       y       z     vdW  Elec       q    Type
                         _______ _______ _______ _____ _____    ______ ____

>  <TORSDO>
F 6

$$$$
=
 OpenBabel11052413273D

 28 31  0  0  1  0  0  0  0  0999 V2000
  186.6400  177.8760  145.2580 C   0  0  0  0  0  0  0  0  0  0  0  0
  189.9150  177.2700  141.7440 C   0  0  0  0  0  2  0  0  0  0  0  0
  186.0040  180.1980  142.6180 O   0  0  0  0  0  1  0  0  0  0  0  0
  188.9500  178.1980  138.9170 C   0  0  0  0  0  3  0  0  0  0  0  0
  187.5680  177.8480  142.2840 C   0  0  2  0  0  3  0  0  0  0  0  0
  191.0880  177.0250  139.5290 C   0  0  0  0  0  0  0  0  0  0  0  0
  188.6870  177.5890  141.3410 C   0  0  1  0  0  3  0  0  0  0  0  0
  187.0550  178.8250  140.2280 O   0  0  0  0  0  0  0  0  0  0  0  0
  190.1750  177.4210  138.6400 C   0  0  0  0  0  3  0  0  0  0  0  0
  184.9480  178.0960  143.2970 C   0  0  2  0  0  3  0  0  0  0  0  0
  187.1210  176.7330  143.1030 N   0  0  0  0  0  2  0  0  0  0  0  0
  188.3140  178.2530  140.0900 C   0  0  0  0  0  0  0  0  0  0  0  0
  184.9130  179.6940  145.2340 C   0  0  0  0  0  2  0  0  0  0  0  0
  185.4220  179.0210  142.1380 C   0  0  2  0  0  3  0  0  0  0  0  0
  184.0640  178.8100  144.3230 C   0  0  0  0  0  2  0  0  0  0  0  0
  192.1250  176.2700  139.0920 F   0  0  0  0  0  0  0  0  0  0  0  0
  191.1420  177.5380  140.9330 C   0  0  0  0  0  2  0  0  0  0  0  0
  186.4390  178.2260  141.3560 C   0  0  2  0  0  3  0  0  0  0  0  0
  186.0580  178.9360  145.8460 C   0  0  0  0  0  3  0  0  0  0  0  0
  186.0630  177.2430  144.0060 C   0  0  1  0  0  3  0  0  0  0  0  0
  187.7350  177.1670  145.9980 C   0  0  0  0  0  2  0  0  0  0  0  0
  189.0540  177.9250  145.8830 C   0  0  0  0  0  2  0  0  0  0  0  0
  190.2350  176.9610  145.9140 C   0  0  2  0  0  3  0  0  0  0  0  0
  191.9970  175.9400  147.3590 C   0  0  0  0  0  1  0  0  0  0  0  0
  190.7090  176.7440  147.3440 C   0  0  0  0  0  2  0  0  0  0  0  0
  191.3820  177.5100  145.0800 C   0  0  0  0  0  2  0  0  0  0  0  0
  190.9610  178.6230  144.3470 O   0  0  0  0  0  0  0  0  0  0  0  0
  192.0570  179.4880  144.3440 C   0  0  0  0  0  1  0  0  0  0  0  0
  1 19  2  0  0  0  0
  1 21  1  0  0  0  0
  4 12  2  0  0  0  0
  5 11  1  6  0  0  0
  6 17  1  0  0  0  0
  7  2  1  1  0  0  0
  7  5  1  0  0  0  0
  9  4  1  0  0  0  0
  9  6  2  0  0  0  0
 10 20  1  0  0  0  0
 10 15  1  1  0  0  0
 12  8  1  0  0  0  0
 12  7  1  0  0  0  0
 13 19  1  0  0  0  0
 14  3  1  1  0  0  0
 14 10  1  0  0  0  0
 15 13  1  0  0  0  0
 16  6  1  0  0  0  0
 17  2  1  0  0  0  0
 18  8  1  6  0  0  0
 18 14  1  0  0  0  0
 18  5  1  0  0  0  0
 20 11  1  6  0  0  0
 20  1  1  0  0  0  0
 22 23  1  0  0  0  0
 22 21  1  0  0  0  0
 23 26  1  6  0  0  0
 23 25  1  0  0  0  0
 25 24  1  0  0  0  0
 27 26  1  0  0  0  0
 28 27  1  0  0  0  0
M  END
>  <MODEL>
8

>  <REMARK>
 VINA RESULT:      -7.7      2.755      7.068
  Name = 
  6 active torsions:
  status: ('A' for Active; 'I' for Inactive)
    1  A    between atoms: C_1  and  C_2
    2  A    between atoms: C_2  and  C_3
    3  A    between atoms: C_3  and  C_7
    4  A    between atoms: O_6  and  C_28
    5  A    between atoms: C_7  and  C_11
    6  A    between atoms: C_7  and  C_28
                            x       y       z     vdW  Elec       q    Type
                         _______ _______ _______ _____ _____    ______ ____

>  <TORSDO>
F 6

$$$$
=
 OpenBabel11052413273D

 28 31  0  0  1  0  0  0  0  0999 V2000
  185.0660  178.0610  138.4800 C   0  0  0  0  0  0  0  0  0  0  0  0
  186.4170  177.9080  143.1260 C   0  0  0  0  0  2  0  0  0  0  0  0
  182.2160  177.4010  140.5310 O   0  0  0  0  0  1  0  0  0  0  0  0
  184.1280  178.5790  145.1510 C   0  0  0  0  0  3  0  0  0  0  0  0
  184.6280  178.5280  141.5290 C   0  0  2  0  0  3  0  0  0  0  0  0
  186.5640  178.1760  145.6260 C   0  0  0  0  0  0  0  0  0  0  0  0
  185.2170  178.4350  142.8900 C   0  0  1  0  0  3  0  0  0  0  0  0
  182.9090  178.6770  143.1000 O   0  0  0  0  0  0  0  0  0  0  0  0
  185.3560  178.6270  145.9690 C   0  0  0  0  0  3  0  0  0  0  0  0
  183.0280  179.4020  139.3780 C   0  0  2  0  0  3  0  0  0  0  0  0
  185.3070  179.3840  140.5710 N   0  0  0  0  0  2  0  0  0  0  0  0
  184.0860  178.5030  143.8180 C   0  0  0  0  0  0  0  0  0  0  0  0
  182.7350  177.5530  137.7040 C   0  0  0  0  0  2  0  0  0  0  0  0
  182.3590  178.7880  140.6420 C   0  0  2  0  0  3  0  0  0  0  0  0
  182.3530  178.9860  138.0690 C   0  0  0  0  0  2  0  0  0  0  0  0
  187.5890  178.3580  146.4940 F   0  0  0  0  0  0  0  0  0  0  0  0
  186.8050  177.3020  144.4370 C   0  0  0  0  0  2  0  0  0  0  0  0
  183.2670  179.1200  141.8010 C   0  0  2  0  0  3  0  0  0  0  0  0
  184.2250  177.3510  137.7080 C   0  0  0  0  0  3  0  0  0  0  0  0
  184.5910  179.2600  139.2800 C   0  0  1  0  0  3  0  0  0  0  0  0
  186.5370  177.8070  138.3480 C   0  0  0  0  0  2  0  0  0  0  0  0
  187.0770  178.3790  137.0410 C   0  0  0  0  0  2  0  0  0  0  0  0
  188.5950  178.5210  137.1000 C   0  0  2  0  0  3  0  0  0  0  0  0
  189.3020  177.5000  134.9330 C   0  0  0  0  0  1  0  0  0  0  0  0
  189.2680  177.3260  136.4420 C   0  0  0  0  0  2  0  0  0  0  0  0
  189.0560  178.6290  138.5450 C   0  0  0  0  0  2  0  0  0  0  0  0
  190.1190  177.7540  138.7820 O   0  0  0  0  0  0  0  0  0  0  0  0
  189.9890  177.3850  140.1230 C   0  0  0  0  0  1  0  0  0  0  0  0
  2 17  1  0  0  0  0
  4  9  1  0  0  0  0
  5 11  1  6  0  0  0
  5 18  1  0  0  0  0
  5  7  1  0  0  0  0
  6  9  2  0  0  0  0
  6 16  1  0  0  0  0
  7  2  1  6  0  0  0
  7 12  1  0  0  0  0
  8 12  1  0  0  0  0
 10 15  1  6  0  0  0
 10 14  1  0  0  0  0
 12  4  2  0  0  0  0
 13 19  1  0  0  0  0
 13 15  1  0  0  0  0
 14  3  1  6  0  0  0
 14 18  1  0  0  0  0
 17  6  1  0  0  0  0
 18  8  1  1  0  0  0
 19  1  2  0  0  0  0
 20  1  1  1  0  0  0
 20 10  1  0  0  0  0
 20 11  1  0  0  0  0
 21  1  1  0  0  0  0
 22 23  1  0  0  0  0
 22 21  1  0  0  0  0
 23 25  1  1  0  0  0
 23 26  1  0  0  0  0
 24 25  1  0  0  0  0
 26 27  1  0  0  0  0
 27 28  1  0  0  0  0
M  END
>  <MODEL>
9

>  <REMARK>
 VINA RESULT:      -7.6      3.044      5.636
  Name = 
  6 active torsions:
  status: ('A' for Active; 'I' for Inactive)
    1  A    between atoms: C_1  and  C_2
    2  A    between atoms: C_2  and  C_3
    3  A    between atoms: C_3  and  C_7
    4  A    between atoms: O_6  and  C_28
    5  A    between atoms: C_7  and  C_11
    6  A    between atoms: C_7  and  C_28
                            x       y       z     vdW  Elec       q    Type
                         _______ _______ _______ _____ _____    ______ ____

>  <TORSDO>
F 6

$$$$
