=
 OpenBabel11052414153D

 34 38  0  0  1  0  0  0  0  0999 V2000
  190.2220  177.5990  142.8470 C   0  0  2  0  0  3  0  0  0  0  0  0
  188.1690  177.8020  139.9840 C   0  0  0  0  0  2  0  0  0  0  0  0
  187.1040  177.9650  142.1810 N   0  0  1  0  0  0  0  0  0  0  0  0
  184.9260  178.3270  143.3620 C   0  0  2  0  0  3  0  0  0  0  0  0
  191.2110  177.6030  140.7140 O   0  0  0  0  0  0  0  0  0  0  0  0
  190.5760  177.2920  139.5060 C   0  0  0  0  0  2  0  0  0  0  0  0
  185.1140  178.6570  140.9070 C   0  0  0  0  0  1  0  0  0  0  0  0
  187.9870  178.6480  141.2320 C   0  0  0  0  0  2  0  0  0  0  0  0
  190.6270  176.7550  141.6570 C   0  0  1  0  0  3  0  0  0  0  0  0
  187.8150  177.9400  143.4840 C   0  0  1  0  0  3  0  0  0  0  0  0
  191.4390  176.7020  142.9330 C   0  0  0  0  0  2  0  0  0  0  0  0
  189.4140  178.2440  139.2300 C   0  0  0  0  0  2  0  0  0  0  0  0
  185.6460  178.3610  144.6920 C   0  0  0  0  0  2  0  0  0  0  0  0
  186.8960  177.5100  144.6420 C   0  0  2  0  0  3  0  0  0  0  0  0
  185.8670  178.7730  142.2340 C   0  0  2  0  0  3  0  0  0  0  0  0
  188.9910  176.9510  143.4460 C   0  0  0  0  0  2  0  0  0  0  0  0
  189.5230  177.2220  147.3880 C   0  0  0  0  0  0  0  0  0  0  0  0
  188.8650  177.8430  148.4530 C   0  0  0  0  0  3  0  0  0  0  0  0
  187.5860  177.6000  145.9720 C   0  0  0  0  0  0  0  0  0  0  0  0
  187.5710  178.3430  148.2800 C   0  0  0  0  0  3  0  0  0  0  0  0
  188.8870  177.1010  146.1500 C   0  0  0  0  0  3  0  0  0  0  0  0
  186.9340  178.2230  147.0420 C   0  0  0  0  0  3  0  0  0  0  0  0
  190.7790  176.7420  147.5530 F   0  0  0  0  0  0  0  0  0  0  0  0
  183.6750  179.2090  143.4500 C   0  0  0  0  0  2  0  0  0  0  0  0
  182.7630  178.7250  144.4760 N   0  0  0  0  0  2  0  0  0  0  0  0
  181.4220  178.7830  143.9170 C   0  0  0  0  0  2  0  0  0  0  0  0
  181.4980  178.9520  142.4090 C   0  0  0  0  0  2  0  0  0  0  0  0
  179.3350  176.8280  141.8100 O   0  0  0  0  0  0  0  0  0  0  0  0
  180.1040  179.0970  141.8090 C   0  0  2  0  0  3  0  0  0  0  0  0
  179.6810  177.8240  141.1230 C   0  0  0  0  0  0  0  0  0  0  0  0
  179.8480  178.8830  138.8350 C   0  0  0  0  0  2  0  0  0  0  0  0
  180.6820  179.9620  139.5070 C   0  0  0  0  0  2  0  0  0  0  0  0
  180.0620  180.2970  140.8590 C   0  0  0  0  0  2  0  0  0  0  0  0
  179.7340  177.7110  139.6960 N   0  0  0  0  0  2  0  0  0  0  0  0
  1 11  1  1  0  0  0
  1 16  1  0  0  0  0
  2  8  1  0  0  0  0
  3  8  1  6  0  0  0
  3 15  1  0  0  0  0
  3 10  1  0  0  0  0
  4 24  1  1  0  0  0
  4 13  1  0  0  0  0
  5  9  1  0  0  0  0
  6  5  1  0  0  0  0
  9  1  1  0  0  0  0
  9 11  1  1  0  0  0
 10 16  1  6  0  0  0
 10 14  1  0  0  0  0
 12  6  1  0  0  0  0
 12  2  1  0  0  0  0
 14 13  1  0  0  0  0
 14 19  1  1  0  0  0
 15  7  1  6  0  0  0
 15  4  1  0  0  0  0
 17 23  1  0  0  0  0
 17 18  1  0  0  0  0
 19 21  1  0  0  0  0
 19 22  2  0  0  0  0
 20 18  2  0  0  0  0
 21 17  2  0  0  0  0
 22 20  1  0  0  0  0
 24 25  1  0  0  0  0
 26 25  1  0  0  0  0
 27 26  1  0  0  0  0
 29 27  1  6  0  0  0
 30 29  1  0  0  0  0
 30 28  2  0  0  0  0
 31 32  1  0  0  0  0
 31 34  1  0  0  0  0
 32 33  1  0  0  0  0
 33 29  1  0  0  0  0
 34 30  1  0  0  0  0
M  END
>  <MODEL>
1

>  <REMARK>
 VINA RESULT:     -10.4      0.000      0.000
  Name = 
  6 active torsions:
  status: ('A' for Active; 'I' for Inactive)
    1  A    between atoms: C_3  and  C_13
    2  A    between atoms: C_3  and  C_17
    3  A    between atoms: C_5  and  C_18
    4  A    between atoms: C_12  and  C_28
    5  A    between atoms: C_17  and  N_29
    6  A    between atoms: C_18  and  N_29
                            x       y       z     vdW  Elec       q    Type
                         _______ _______ _______ _____ _____    ______ ____

>  <TORSDO>
F 6

$$$$
=
 OpenBabel11052414153D

 34 38  0  0  1  0  0  0  0  0999 V2000
  188.1340  177.7690  146.4280 C   0  0  2  0  0  3  0  0  0  0  0  0
  191.1430  176.7010  144.9250 C   0  0  0  0  0  2  0  0  0  0  0  0
  189.2800  177.3190  143.4650 N   0  0  1  0  0  0  0  0  0  0  0  0
  188.5770  177.6040  141.0780 C   0  0  2  0  0  3  0  0  0  0  0  0
  190.0010  177.3120  147.7810 O   0  0  0  0  0  0  0  0  0  0  0  0
  191.1100  176.5340  147.4270 C   0  0  0  0  0  2  0  0  0  0  0  0
  190.9570  177.2020  141.6660 C   0  0  0  0  0  1  0  0  0  0  0  0
  190.2790  177.8350  144.4030 C   0  0  0  0  0  2  0  0  0  0  0  0
  188.9150  176.6960  147.1560 C   0  0  1  0  0  3  0  0  0  0  0  0
  187.9610  177.8260  143.9210 C   0  0  1  0  0  3  0  0  0  0  0  0
  187.5990  177.1880  147.7200 C   0  0  0  0  0  2  0  0  0  0  0  0
  191.8330  177.1190  146.2150 C   0  0  0  0  0  2  0  0  0  0  0  0
  187.2520  178.1760  141.5310 C   0  0  0  0  0  2  0  0  0  0  0  0
  186.8560  177.6020  142.8730 C   0  0  2  0  0  3  0  0  0  0  0  0
  189.6580  177.8550  142.1390 C   0  0  2  0  0  3  0  0  0  0  0  0
  187.5180  177.1130  145.2090 C   0  0  0  0  0  2  0  0  0  0  0  0
  183.2450  178.8210  142.8300 C   0  0  0  0  0  0  0  0  0  0  0  0
  183.1180  179.3270  144.1260 C   0  0  0  0  0  3  0  0  0  0  0  0
  185.5530  178.2210  143.2900 C   0  0  0  0  0  0  0  0  0  0  0  0
  184.2040  179.2800  145.0040 C   0  0  0  0  0  3  0  0  0  0  0  0
  184.4580  178.2680  142.4120 C   0  0  0  0  0  3  0  0  0  0  0  0
  185.4180  178.7260  144.5880 C   0  0  0  0  0  3  0  0  0  0  0  0
  182.1920  178.8620  141.9780 F   0  0  0  0  0  0  0  0  0  0  0  0
  188.9480  178.2170  139.7230 C   0  0  0  0  0  2  0  0  0  0  0  0
  188.3260  177.4860  138.6280 N   0  0  0  0  0  2  0  0  0  0  0  0
  189.2470  176.4290  138.2430 C   0  0  0  0  0  2  0  0  0  0  0  0
  190.6310  177.0090  138.0080 C   0  0  0  0  0  2  0  0  0  0  0  0
  193.4770  177.0120  139.2120 O   0  0  0  0  0  0  0  0  0  0  0  0
  191.6920  175.9150  138.0510 C   0  0  2  0  0  3  0  0  0  0  0  0
  193.0730  176.5110  138.1310 C   0  0  0  0  0  0  0  0  0  0  0  0
  193.6340  175.7800  135.7780 C   0  0  0  0  0  2  0  0  0  0  0  0
  192.1350  175.6090  135.5830 C   0  0  0  0  0  2  0  0  0  0  0  0
  191.5410  174.9880  136.8420 C   0  0  0  0  0  2  0  0  0  0  0  0
  193.9090  176.5760  136.9700 N   0  0  0  0  0  2  0  0  0  0  0  0
  1 16  1  6  0  0  0
  1  9  1  0  0  0  0
  1 11  1  0  0  0  0
  2 12  1  0  0  0  0
  3 10  1  0  0  0  0
  3  8  1  1  0  0  0
  4 24  1  6  0  0  0
  4 13  1  0  0  0  0
  4 15  1  0  0  0  0
  6  5  1  0  0  0  0
  8  2  1  0  0  0  0
  9 11  1  1  0  0  0
  9  5  1  0  0  0  0
 10 16  1  1  0  0  0
 12  6  1  0  0  0  0
 13 14  1  0  0  0  0
 14 19  1  1  0  0  0
 14 10  1  0  0  0  0
 15  7  1  6  0  0  0
 15  3  1  0  0  0  0
 17 18  1  0  0  0  0
 18 20  2  0  0  0  0
 19 22  2  0  0  0  0
 21 17  2  0  0  0  0
 21 19  1  0  0  0  0
 22 20  1  0  0  0  0
 23 17  1  0  0  0  0
 25 24  1  0  0  0  0
 26 25  1  0  0  0  0
 27 26  1  0  0  0  0
 29 27  1  6  0  0  0
 29 30  1  0  0  0  0
 30 28  2  0  0  0  0
 31 34  1  0  0  0  0
 32 31  1  0  0  0  0
 32 33  1  0  0  0  0
 33 29  1  0  0  0  0
 34 30  1  0  0  0  0
M  END
>  <MODEL>
2

>  <REMARK>
 VINA RESULT:     -10.3      3.895      8.302
  Name = 
  6 active torsions:
  status: ('A' for Active; 'I' for Inactive)
    1  A    between atoms: C_3  and  C_13
    2  A    between atoms: C_3  and  C_17
    3  A    between atoms: C_5  and  C_18
    4  A    between atoms: C_12  and  C_28
    5  A    between atoms: C_17  and  N_29
    6  A    between atoms: C_18  and  N_29
                            x       y       z     vdW  Elec       q    Type
                         _______ _______ _______ _____ _____    ______ ____

>  <TORSDO>
F 6

$$$$
=
 OpenBabel11052414153D

 34 38  0  0  1  0  0  0  0  0999 V2000
  188.1150  177.7690  146.4410 C   0  0  2  0  0  3  0  0  0  0  0  0
  191.1130  176.7520  144.8820 C   0  0  0  0  0  2  0  0  0  0  0  0
  189.2210  177.3660  143.4560 N   0  0  1  0  0  0  0  0  0  0  0  0
  188.4790  177.6700  141.0850 C   0  0  2  0  0  3  0  0  0  0  0  0
  190.0070  177.3170  147.7610 O   0  0  0  0  0  0  0  0  0  0  0  0
  191.1190  176.5560  147.3810 C   0  0  0  0  0  2  0  0  0  0  0  0
  190.8710  177.2880  141.6310 C   0  0  0  0  0  1  0  0  0  0  0  0
  190.2280  177.8820  144.3860 C   0  0  0  0  0  2  0  0  0  0  0  0
  188.9190  176.6970  147.1460 C   0  0  1  0  0  3  0  0  0  0  0  0
  187.9040  177.8530  143.9390 C   0  0  1  0  0  3  0  0  0  0  0  0
  187.6070  177.1680  147.7350 C   0  0  0  0  0  2  0  0  0  0  0  0
  191.8170  177.1630  146.1660 C   0  0  0  0  0  2  0  0  0  0  0  0
  187.1540  178.2220  141.5640 C   0  0  0  0  0  2  0  0  0  0  0  0
  186.7850  177.6290  142.9050 C   0  0  2  0  0  3  0  0  0  0  0  0
  189.5720  177.9210  142.1320 C   0  0  2  0  0  3  0  0  0  0  0  0
  187.4880  177.1210  145.2250 C   0  0  0  0  0  2  0  0  0  0  0  0
  183.1720  178.8430  142.9170 C   0  0  0  0  0  0  0  0  0  0  0  0
  183.0470  179.2960  144.2330 C   0  0  0  0  0  3  0  0  0  0  0  0
  185.4820  178.2280  143.3480 C   0  0  0  0  0  0  0  0  0  0  0  0
  184.1350  179.2160  145.1070 C   0  0  0  0  0  3  0  0  0  0  0  0
  184.3850  178.3090  142.4750 C   0  0  0  0  0  3  0  0  0  0  0  0
  185.3490  178.6810  144.6660 C   0  0  0  0  0  3  0  0  0  0  0  0
  182.1170  178.9150  142.0700 F   0  0  0  0  0  0  0  0  0  0  0  0
  188.8220  178.3030  139.7310 C   0  0  0  0  0  2  0  0  0  0  0  0
  187.6340  178.4440  138.9010 N   0  0  0  0  0  2  0  0  0  0  0  0
  187.9450  177.8570  137.6070 C   0  0  0  0  0  2  0  0  0  0  0  0
  188.1260  176.3550  137.7520 C   0  0  0  0  0  2  0  0  0  0  0  0
  188.5440  173.4900  136.6700 O   0  0  0  0  0  0  0  0  0  0  0  0
  189.0940  175.8220  136.7020 C   0  0  2  0  0  3  0  0  0  0  0  0
  189.4030  174.3680  136.9480 C   0  0  0  0  0  0  0  0  0  0  0  0
  191.7760  174.8840  137.6430 C   0  0  0  0  0  2  0  0  0  0  0  0
  191.3030  176.3190  137.8220 C   0  0  0  0  0  2  0  0  0  0  0  0
  190.3640  176.6770  136.6750 C   0  0  0  0  0  2  0  0  0  0  0  0
  190.6380  173.9760  137.5570 N   0  0  0  0  0  2  0  0  0  0  0  0
  1 16  1  6  0  0  0
  1  9  1  0  0  0  0
  1 11  1  0  0  0  0
  2 12  1  0  0  0  0
  3 10  1  0  0  0  0
  3  8  1  1  0  0  0
  4 24  1  6  0  0  0
  4 13  1  0  0  0  0
  4 15  1  0  0  0  0
  6  5  1  0  0  0  0
  8  2  1  0  0  0  0
  9 11  1  1  0  0  0
  9  5  1  0  0  0  0
 10 16  1  1  0  0  0
 12  6  1  0  0  0  0
 13 14  1  0  0  0  0
 14 19  1  1  0  0  0
 14 10  1  0  0  0  0
 15  7  1  6  0  0  0
 15  3  1  0  0  0  0
 17 18  1  0  0  0  0
 18 20  2  0  0  0  0
 19 22  2  0  0  0  0
 21 17  2  0  0  0  0
 21 19  1  0  0  0  0
 22 20  1  0  0  0  0
 23 17  1  0  0  0  0
 25 24  1  0  0  0  0
 26 27  1  0  0  0  0
 26 25  1  0  0  0  0
 28 30  2  0  0  0  0
 29 30  1  0  0  0  0
 29 27  1  1  0  0  0
 30 34  1  0  0  0  0
 31 32  1  0  0  0  0
 33 29  1  0  0  0  0
 33 32  1  0  0  0  0
 34 31  1  0  0  0  0
M  END
>  <MODEL>
3

>  <REMARK>
 VINA RESULT:     -10.2      3.878      7.446
  Name = 
  6 active torsions:
  status: ('A' for Active; 'I' for Inactive)
    1  A    between atoms: C_3  and  C_13
    2  A    between atoms: C_3  and  C_17
    3  A    between atoms: C_5  and  C_18
    4  A    between atoms: C_12  and  C_28
    5  A    between atoms: C_17  and  N_29
    6  A    between atoms: C_18  and  N_29
                            x       y       z     vdW  Elec       q    Type
                         _______ _______ _______ _____ _____    ______ ____

>  <TORSDO>
F 6

$$$$
=
 OpenBabel11052414153D

 34 38  0  0  1  0  0  0  0  0999 V2000
  188.3220  177.8340  146.5370 C   0  0  2  0  0  3  0  0  0  0  0  0
  191.3500  176.6240  145.1870 C   0  0  0  0  0  2  0  0  0  0  0  0
  189.5450  177.2020  143.6390 N   0  0  1  0  0  0  0  0  0  0  0  0
  188.9190  177.3730  141.2200 C   0  0  2  0  0  3  0  0  0  0  0  0
  190.1380  177.4110  147.9690 O   0  0  0  0  0  0  0  0  0  0  0  0
  191.2390  176.5930  147.6910 C   0  0  0  0  0  2  0  0  0  0  0  0
  191.2710  176.9540  141.9000 C   0  0  0  0  0  1  0  0  0  0  0  0
  190.5270  177.7470  144.5790 C   0  0  0  0  0  2  0  0  0  0  0  0
  189.0580  176.7860  147.3450 C   0  0  1  0  0  3  0  0  0  0  0  0
  188.2250  177.7600  144.0270 C   0  0  1  0  0  3  0  0  0  0  0  0
  187.7370  177.3340  147.8410 C   0  0  0  0  0  2  0  0  0  0  0  0
  192.0100  177.0970  146.4730 C   0  0  0  0  0  2  0  0  0  0  0  0
  187.5940  177.9960  141.6010 C   0  0  0  0  0  2  0  0  0  0  0  0
  187.1460  177.5030  142.9590 C   0  0  2  0  0  3  0  0  0  0  0  0
  189.9730  177.6580  142.2990 C   0  0  2  0  0  3  0  0  0  0  0  0
  187.7280  177.1270  145.3360 C   0  0  0  0  0  2  0  0  0  0  0  0
  183.5890  178.8510  142.7150 C   0  0  0  0  0  0  0  0  0  0  0  0
  183.4110  179.3680  144.0010 C   0  0  0  0  0  3  0  0  0  0  0  0
  185.8460  178.1700  143.3020 C   0  0  0  0  0  0  0  0  0  0  0  0
  184.4450  179.2860  144.9370 C   0  0  0  0  0  3  0  0  0  0  0  0
  184.8020  178.2520  142.3650 C   0  0  0  0  0  3  0  0  0  0  0  0
  185.6590  178.6870  144.5890 C   0  0  0  0  0  3  0  0  0  0  0  0
  182.5860  178.9250  141.8080 F   0  0  0  0  0  0  0  0  0  0  0  0
  189.3440  177.9050  139.8470 C   0  0  0  0  0  2  0  0  0  0  0  0
  188.3090  178.7510  139.2690 N   0  0  0  0  0  2  0  0  0  0  0  0
  188.0470  178.2520  137.9290 C   0  0  0  0  0  2  0  0  0  0  0  0
  186.9000  177.2550  137.9640 C   0  0  0  0  0  2  0  0  0  0  0  0
  185.0190  179.3820  139.1830 O   0  0  0  0  0  0  0  0  0  0  0  0
  185.6220  177.8800  137.4170 C   0  0  2  0  0  3  0  0  0  0  0  0
  184.7280  178.3410  138.5390 C   0  0  0  0  0  0  0  0  0  0  0  0
  183.0320  176.5290  138.0670 C   0  0  0  0  0  2  0  0  0  0  0  0
  184.1370  175.8420  137.2790 C   0  0  0  0  0  2  0  0  0  0  0  0
  184.9090  176.8930  136.4890 C   0  0  0  0  0  2  0  0  0  0  0  0
  183.5860  177.5700  138.9270 N   0  0  0  0  0  2  0  0  0  0  0  0
  1 16  1  6  0  0  0
  1  9  1  0  0  0  0
  1 11  1  0  0  0  0
  2 12  1  0  0  0  0
  3 10  1  0  0  0  0
  3  8  1  1  0  0  0
  4 24  1  6  0  0  0
  4 13  1  0  0  0  0
  4 15  1  0  0  0  0
  6  5  1  0  0  0  0
  8  2  1  0  0  0  0
  9 11  1  1  0  0  0
  9  5  1  0  0  0  0
 10 16  1  1  0  0  0
 12  6  1  0  0  0  0
 13 14  1  0  0  0  0
 14 19  1  1  0  0  0
 14 10  1  0  0  0  0
 15  7  1  6  0  0  0
 15  3  1  0  0  0  0
 17 18  1  0  0  0  0
 18 20  2  0  0  0  0
 19 22  2  0  0  0  0
 21 17  2  0  0  0  0
 21 19  1  0  0  0  0
 22 20  1  0  0  0  0
 23 17  1  0  0  0  0
 25 24  1  0  0  0  0
 26 27  1  0  0  0  0
 26 25  1  0  0  0  0
 29 27  1  1  0  0  0
 29 30  1  0  0  0  0
 30 34  1  0  0  0  0
 30 28  2  0  0  0  0
 31 34  1  0  0  0  0
 32 31  1  0  0  0  0
 33 32  1  0  0  0  0
 33 29  1  0  0  0  0
M  END
>  <MODEL>
4

>  <REMARK>
 VINA RESULT:      -9.9      3.291      5.981
  Name = 
  6 active torsions:
  status: ('A' for Active; 'I' for Inactive)
    1  A    between atoms: C_3  and  C_13
    2  A    between atoms: C_3  and  C_17
    3  A    between atoms: C_5  and  C_18
    4  A    between atoms: C_12  and  C_28
    5  A    between atoms: C_17  and  N_29
    6  A    between atoms: C_18  and  N_29
                            x       y       z     vdW  Elec       q    Type
                         _______ _______ _______ _____ _____    ______ ____

>  <TORSDO>
F 6

$$$$
=
 OpenBabel11052414153D

 34 38  0  0  1  0  0  0  0  0999 V2000
  191.2820  176.9080  138.5500 C   0  0  2  0  0  3  0  0  0  0  0  0
  188.4330  177.1010  136.4760 C   0  0  0  0  0  2  0  0  0  0  0  0
  188.1420  177.4820  138.8760 N   0  0  1  0  0  0  0  0  0  0  0  0
  186.4820  178.0880  140.6500 C   0  0  2  0  0  3  0  0  0  0  0  0
  191.5330  176.7030  136.2210 O   0  0  0  0  0  0  0  0  0  0  0  0
  190.5260  176.3710  135.3060 C   0  0  0  0  0  2  0  0  0  0  0  0
  185.8900  178.2520  138.2430 C   0  0  0  0  0  1  0  0  0  0  0  0
  188.7100  178.0330  137.6430 C   0  0  0  0  0  2  0  0  0  0  0  0
  191.2350  175.9640  137.3670 C   0  0  1  0  0  3  0  0  0  0  0  0
  189.2310  177.4790  139.8850 C   0  0  1  0  0  3  0  0  0  0  0  0
  192.4090  175.9240  138.3220 C   0  0  0  0  0  2  0  0  0  0  0  0
  189.3930  177.3940  135.3330 C   0  0  0  0  0  2  0  0  0  0  0  0
  187.5920  178.1450  141.6760 C   0  0  0  0  0  2  0  0  0  0  0  0
  188.7090  177.1950  141.3050 C   0  0  2  0  0  3  0  0  0  0  0  0
  187.0340  178.3870  139.2490 C   0  0  2  0  0  3  0  0  0  0  0  0
  190.2740  176.3990  139.5590 C   0  0  0  0  0  2  0  0  0  0  0  0
  191.2280  178.6480  143.7700 C   0  0  0  0  0  0  0  0  0  0  0  0
  191.7780  177.4820  144.3070 C   0  0  0  0  0  3  0  0  0  0  0  0
  189.7940  177.3100  142.3360 C   0  0  0  0  0  0  0  0  0  0  0  0
  191.3390  176.2320  143.8640 C   0  0  0  0  0  3  0  0  0  0  0  0
  190.2380  178.5640  142.7870 C   0  0  0  0  0  3  0  0  0  0  0  0
  190.3470  176.1460  142.8810 C   0  0  0  0  0  3  0  0  0  0  0  0
  191.6490  179.8610  144.2020 F   0  0  0  0  0  0  0  0  0  0  0  0
  185.3780  179.0710  141.0550 C   0  0  0  0  0  2  0  0  0  0  0  0
  184.5380  178.5130  142.1050 N   0  0  0  0  0  2  0  0  0  0  0  0
  184.5220  179.4740  143.1960 C   0  0  0  0  0  2  0  0  0  0  0  0
  185.7570  179.2930  144.0620 C   0  0  0  0  0  2  0  0  0  0  0  0
  184.1640  178.7560  146.6550 O   0  0  0  0  0  0  0  0  0  0  0  0
  185.6420  178.0340  144.9130 C   0  0  2  0  0  3  0  0  0  0  0  0
  185.3250  178.3820  146.3440 C   0  0  0  0  0  0  0  0  0  0  0  0
  187.6200  177.6770  147.1310 C   0  0  0  0  0  2  0  0  0  0  0  0
  188.0370  177.7720  145.6710 C   0  0  0  0  0  2  0  0  0  0  0  0
  186.9230  177.2030  144.8000 C   0  0  0  0  0  2  0  0  0  0  0  0
  186.3480  178.3580  147.3460 N   0  0  0  0  0  2  0  0  0  0  0  0
  1 11  1  1  0  0  0
  1 16  1  0  0  0  0
  2  8  1  0  0  0  0
  3  8  1  6  0  0  0
  3 15  1  0  0  0  0
  3 10  1  0  0  0  0
  4 24  1  1  0  0  0
  4 13  1  0  0  0  0
  5  9  1  0  0  0  0
  6 12  1  0  0  0  0
  6  5  1  0  0  0  0
  9 11  1  1  0  0  0
  9  1  1  0  0  0  0
 10 16  1  6  0  0  0
 10 14  1  0  0  0  0
 12  2  1  0  0  0  0
 14 13  1  0  0  0  0
 14 19  1  1  0  0  0
 15  7  1  6  0  0  0
 15  4  1  0  0  0  0
 17 23  1  0  0  0  0
 17 18  1  0  0  0  0
 19 21  1  0  0  0  0
 19 22  2  0  0  0  0
 20 18  2  0  0  0  0
 21 17  2  0  0  0  0
 22 20  1  0  0  0  0
 24 25  1  0  0  0  0
 25 26  1  0  0  0  0
 26 27  1  0  0  0  0
 29 27  1  6  0  0  0
 29 30  1  0  0  0  0
 30 28  2  0  0  0  0
 30 34  1  0  0  0  0
 31 34  1  0  0  0  0
 32 31  1  0  0  0  0
 33 29  1  0  0  0  0
 33 32  1  0  0  0  0
M  END
>  <MODEL>
5

>  <REMARK>
 VINA RESULT:      -9.7      3.097      5.471
  Name = 
  6 active torsions:
  status: ('A' for Active; 'I' for Inactive)
    1  A    between atoms: C_3  and  C_13
    2  A    between atoms: C_3  and  C_17
    3  A    between atoms: C_5  and  C_18
    4  A    between atoms: C_12  and  C_28
    5  A    between atoms: C_17  and  N_29
    6  A    between atoms: C_18  and  N_29
                            x       y       z     vdW  Elec       q    Type
                         _______ _______ _______ _____ _____    ______ ____

>  <TORSDO>
F 6

$$$$
=
 OpenBabel11052414153D

 34 38  0  0  1  0  0  0  0  0999 V2000
  186.7060  177.7250  146.0400 C   0  0  2  0  0  3  0  0  0  0  0  0
  185.2240  178.9570  143.0840 C   0  0  0  0  0  2  0  0  0  0  0  0
  187.5110  178.0980  142.9570 N   0  0  1  0  0  0  0  0  0  0  0  0
  189.4170  177.6160  141.4060 C   0  0  2  0  0  3  0  0  0  0  0  0
  184.4600  178.4180  146.0770 O   0  0  0  0  0  0  0  0  0  0  0  0
  183.8400  179.2650  145.1520 C   0  0  0  0  0  2  0  0  0  0  0  0
  187.1860  178.2530  140.5210 C   0  0  0  0  0  1  0  0  0  0  0  0
  186.1090  177.7240  143.1520 C   0  0  0  0  0  2  0  0  0  0  0  0
  185.7640  178.9010  146.1900 C   0  0  1  0  0  3  0  0  0  0  0  0
  188.2720  177.5080  144.0870 C   0  0  1  0  0  3  0  0  0  0  0  0
  186.4640  178.3320  147.4060 C   0  0  0  0  0  2  0  0  0  0  0  0
  183.8820  178.6740  143.7440 C   0  0  0  0  0  2  0  0  0  0  0  0
  190.1790  176.9600  142.5370 C   0  0  0  0  0  2  0  0  0  0  0  0
  189.7940  177.5750  143.8640 C   0  0  2  0  0  3  0  0  0  0  0  0
  187.9050  177.5200  141.6540 C   0  0  2  0  0  3  0  0  0  0  0  0
  187.9710  178.2540  145.3970 C   0  0  0  0  0  2  0  0  0  0  0  0
  192.0560  175.1170  145.7000 C   0  0  0  0  0  0  0  0  0  0  0  0
  192.0060  175.6280  146.9990 C   0  0  0  0  0  3  0  0  0  0  0  0
  190.5530  176.8730  144.9520 C   0  0  0  0  0  0  0  0  0  0  0  0
  191.2340  176.7590  147.2770 C   0  0  0  0  0  3  0  0  0  0  0  0
  191.3330  175.7370  144.6780 C   0  0  0  0  0  3  0  0  0  0  0  0
  190.5110  177.3810  146.2550 C   0  0  0  0  0  3  0  0  0  0  0  0
  192.8070  174.0230  145.4280 F   0  0  0  0  0  0  0  0  0  0  0  0
  189.8260  176.9590  140.0830 C   0  0  0  0  0  2  0  0  0  0  0  0
  191.2100  177.2650  139.7500 N   0  0  0  0  0  2  0  0  0  0  0  0
  191.4040  176.9020  138.3550 C   0  0  0  0  0  2  0  0  0  0  0  0
  190.0590  176.6520  137.6950 C   0  0  0  0  0  2  0  0  0  0  0  0
  189.0560  179.5720  137.8170 O   0  0  0  0  0  0  0  0  0  0  0  0
  189.8050  177.6620  136.5810 C   0  0  2  0  0  3  0  0  0  0  0  0
  188.7610  178.6650  136.9960 C   0  0  0  0  0  0  0  0  0  0  0  0
  187.0690  177.7290  135.3700 C   0  0  0  0  0  2  0  0  0  0  0  0
  187.9570  176.4940  135.3150 C   0  0  0  0  0  2  0  0  0  0  0  0
  189.4160  176.9350  135.2900 C   0  0  0  0  0  2  0  0  0  0  0  0
  187.4150  178.5590  136.5180 N   0  0  0  0  0  2  0  0  0  0  0  0
  1 16  1  6  0  0  0
  1  9  1  0  0  0  0
  1 11  1  0  0  0  0
  2  8  1  0  0  0  0
  2 12  1  0  0  0  0
  3  8  1  1  0  0  0
  3 10  1  0  0  0  0
  4 24  1  6  0  0  0
  4 15  1  0  0  0  0
  4 13  1  0  0  0  0
  5  9  1  0  0  0  0
  6  5  1  0  0  0  0
  9 11  1  1  0  0  0
 10 16  1  1  0  0  0
 12  6  1  0  0  0  0
 13 14  1  0  0  0  0
 14 10  1  0  0  0  0
 14 19  1  1  0  0  0
 15  7  1  6  0  0  0
 15  3  1  0  0  0  0
 17 18  1  0  0  0  0
 18 20  2  0  0  0  0
 19 22  2  0  0  0  0
 21 19  1  0  0  0  0
 21 17  2  0  0  0  0
 22 20  1  0  0  0  0
 23 17  1  0  0  0  0
 25 24  1  0  0  0  0
 26 25  1  0  0  0  0
 27 26  1  0  0  0  0
 29 30  1  0  0  0  0
 29 27  1  1  0  0  0
 30 28  2  0  0  0  0
 31 34  1  0  0  0  0
 32 31  1  0  0  0  0
 33 32  1  0  0  0  0
 33 29  1  0  0  0  0
 34 30  1  0  0  0  0
M  END
>  <MODEL>
6

>  <REMARK>
 VINA RESULT:      -9.7      3.285      6.872
  Name = 
  6 active torsions:
  status: ('A' for Active; 'I' for Inactive)
    1  A    between atoms: C_3  and  C_13
    2  A    between atoms: C_3  and  C_17
    3  A    between atoms: C_5  and  C_18
    4  A    between atoms: C_12  and  C_28
    5  A    between atoms: C_17  and  N_29
    6  A    between atoms: C_18  and  N_29
                            x       y       z     vdW  Elec       q    Type
                         _______ _______ _______ _____ _____    ______ ____

>  <TORSDO>
F 6

$$$$
=
 OpenBabel11052414153D

 34 38  0  0  1  0  0  0  0  0999 V2000
  186.5060  178.5960  146.0850 C   0  0  2  0  0  3  0  0  0  0  0  0
  189.6970  177.3190  146.8870 C   0  0  0  0  0  2  0  0  0  0  0  0
  189.0340  177.3710  144.5330 N   0  0  1  0  0  0  0  0  0  0  0  0
  189.8010  176.9060  142.1950 C   0  0  2  0  0  3  0  0  0  0  0  0
  187.2500  178.6660  148.3130 O   0  0  0  0  0  0  0  0  0  0  0  0
  188.2720  177.8870  148.8700 C   0  0  0  0  0  2  0  0  0  0  0  0
  191.3970  176.8360  144.0970 C   0  0  0  0  0  1  0  0  0  0  0  0
  189.4020  178.1980  145.6840 C   0  0  0  0  0  2  0  0  0  0  0  0
  186.6260  177.8310  147.3860 C   0  0  1  0  0  3  0  0  0  0  0  0
  187.7510  177.9090  144.0120 C   0  0  1  0  0  3  0  0  0  0  0  0
  185.2850  178.3850  146.9550 C   0  0  0  0  0  2  0  0  0  0  0  0
  189.6040  178.1360  148.1670 C   0  0  0  0  0  2  0  0  0  0  0  0
  188.5230  177.5040  141.6500 C   0  0  0  0  0  2  0  0  0  0  0  0
  187.3890  177.3240  142.6350 C   0  0  2  0  0  3  0  0  0  0  0  0
  190.1380  177.5200  143.5610 C   0  0  2  0  0  3  0  0  0  0  0  0
  186.5930  177.5770  144.9670 C   0  0  0  0  0  2  0  0  0  0  0  0
  184.9690  179.0170  140.2260 C   0  0  0  0  0  0  0  0  0  0  0  0
  183.8120  179.0750  141.0070 C   0  0  0  0  0  3  0  0  0  0  0  0
  186.1540  177.9570  142.0620 C   0  0  0  0  0  0  0  0  0  0  0  0
  183.8230  178.5760  142.3120 C   0  0  0  0  0  3  0  0  0  0  0  0
  186.1380  178.4580  140.7500 C   0  0  0  0  0  3  0  0  0  0  0  0
  184.9910  178.0160  142.8380 C   0  0  0  0  0  3  0  0  0  0  0  0
  184.9590  179.4960  138.9590 F   0  0  0  0  0  0  0  0  0  0  0  0
  190.9250  177.1190  141.1750 C   0  0  0  0  0  2  0  0  0  0  0  0
  190.7930  176.2050  140.0490 N   0  0  0  0  0  2  0  0  0  0  0  0
  191.2810  176.9030  138.8720 C   0  0  0  0  0  2  0  0  0  0  0  0
  190.3550  176.6440  137.6960 C   0  0  0  0  0  2  0  0  0  0  0  0
  187.8370  174.9240  137.1930 O   0  0  0  0  0  0  0  0  0  0  0  0
  188.9000  176.8730  138.0910 C   0  0  2  0  0  3  0  0  0  0  0  0
  187.9690  176.1740  137.1360 C   0  0  0  0  0  0  0  0  0  0  0  0
  187.1600  178.3610  136.1630 C   0  0  0  0  0  2  0  0  0  0  0  0
  188.3990  178.9810  136.7920 C   0  0  0  0  0  2  0  0  0  0  0  0
  188.6080  178.3740  138.1750 C   0  0  0  0  0  2  0  0  0  0  0  0
  187.2810  176.9080  136.1170 N   0  0  0  0  0  2  0  0  0  0  0  0
  1 16  1  6  0  0  0
  1 11  1  0  0  0  0
  1  9  1  0  0  0  0
  2 12  1  0  0  0  0
  3  8  1  1  0  0  0
  4 24  1  6  0  0  0
  4 15  1  0  0  0  0
  5  6  1  0  0  0  0
  8  2  1  0  0  0  0
  9 11  1  1  0  0  0
  9  5  1  0  0  0  0
 10  3  1  0  0  0  0
 10 16  1  1  0  0  0
 12  6  1  0  0  0  0
 13  4  1  0  0  0  0
 13 14  1  0  0  0  0
 14 19  1  6  0  0  0
 14 10  1  0  0  0  0
 15  7  1  1  0  0  0
 15  3  1  0  0  0  0
 17 21  2  0  0  0  0
 17 18  1  0  0  0  0
 18 20  2  0  0  0  0
 19 22  2  0  0  0  0
 20 22  1  0  0  0  0
 21 19  1  0  0  0  0
 23 17  1  0  0  0  0
 25 24  1  0  0  0  0
 26 25  1  0  0  0  0
 27 26  1  0  0  0  0
 29 27  1  6  0  0  0
 29 33  1  0  0  0  0
 30 28  2  0  0  0  0
 30 29  1  0  0  0  0
 31 32  1  0  0  0  0
 32 33  1  0  0  0  0
 34 31  1  0  0  0  0
 34 30  1  0  0  0  0
M  END
>  <MODEL>
7

>  <REMARK>
 VINA RESULT:      -9.6      3.770      7.561
  Name = 
  6 active torsions:
  status: ('A' for Active; 'I' for Inactive)
    1  A    between atoms: C_3  and  C_13
    2  A    between atoms: C_3  and  C_17
    3  A    between atoms: C_5  and  C_18
    4  A    between atoms: C_12  and  C_28
    5  A    between atoms: C_17  and  N_29
    6  A    between atoms: C_18  and  N_29
                            x       y       z     vdW  Elec       q    Type
                         _______ _______ _______ _____ _____    ______ ____

>  <TORSDO>
F 6

$$$$
=
 OpenBabel11052414153D

 34 38  0  0  1  0  0  0  0  0999 V2000
  189.9950  176.8140  144.3610 C   0  0  2  0  0  3  0  0  0  0  0  0
  187.1390  178.2150  145.8900 C   0  0  0  0  0  2  0  0  0  0  0  0
  187.2880  178.2760  143.4490 N   0  0  1  0  0  0  0  0  0  0  0  0
  186.0810  178.9330  141.3550 C   0  0  2  0  0  3  0  0  0  0  0  0
  189.7320  176.6440  146.6910 O   0  0  0  0  0  0  0  0  0  0  0  0
  188.9060  177.4420  147.4920 C   0  0  0  0  0  2  0  0  0  0  0  0
  184.9280  178.9710  143.5550 C   0  0  0  0  0  1  0  0  0  0  0  0
  187.1140  177.4000  144.6100 C   0  0  0  0  0  2  0  0  0  0  0  0
  190.2030  177.4990  145.6950 C   0  0  1  0  0  3  0  0  0  0  0  0
  188.3920  177.7000  142.6400 C   0  0  1  0  0  3  0  0  0  0  0  0
  191.3830  176.8990  144.9600 C   0  0  0  0  0  2  0  0  0  0  0  0
  187.4420  177.3140  147.0780 C   0  0  0  0  0  2  0  0  0  0  0  0
  187.1720  178.2990  140.5210 C   0  0  0  0  0  2  0  0  0  0  0  0
  188.4970  178.3510  141.2490 C   0  0  2  0  0  3  0  0  0  0  0  0
  185.9970  178.2530  142.7290 C   0  0  2  0  0  3  0  0  0  0  0  0
  189.7450  177.9050  143.3400 C   0  0  0  0  0  2  0  0  0  0  0  0
  191.8520  177.1280  139.9160 C   0  0  0  0  0  0  0  0  0  0  0  0
  191.4420  176.3800  138.8080 C   0  0  0  0  0  3  0  0  0  0  0  0
  189.5370  177.6870  140.3940 C   0  0  0  0  0  0  0  0  0  0  0  0
  190.0840  176.2830  138.4930 C   0  0  0  0  0  3  0  0  0  0  0  0
  190.9030  177.7790  140.7080 C   0  0  0  0  0  3  0  0  0  0  0  0
  189.1330  176.9340  139.2860 C   0  0  0  0  0  3  0  0  0  0  0  0
  193.1670  177.2180  140.2250 F   0  0  0  0  0  0  0  0  0  0  0  0
  184.7560  178.8490  140.5900 C   0  0  0  0  0  2  0  0  0  0  0  0
  184.9570  179.0780  139.1660 N   0  0  0  0  0  2  0  0  0  0  0  0
  184.1750  178.0770  138.4570 C   0  0  0  0  0  2  0  0  0  0  0  0
  184.8090  177.7880  137.1070 C   0  0  0  0  0  2  0  0  0  0  0  0
  187.4470  179.3770  136.8430 O   0  0  0  0  0  0  0  0  0  0  0  0
  186.2580  177.3420  137.2730 C   0  0  2  0  0  3  0  0  0  0  0  0
  187.1820  178.2090  136.4580 C   0  0  0  0  0  0  0  0  0  0  0  0
  187.6820  176.3320  134.8420 C   0  0  0  0  0  2  0  0  0  0  0  0
  186.4370  175.6580  135.3990 C   0  0  0  0  0  2  0  0  0  0  0  0
  186.3970  175.8610  136.9090 C   0  0  0  0  0  2  0  0  0  0  0  0
  187.7100  177.7430  135.2110 N   0  0  0  0  0  2  0  0  0  0  0  0
  1 16  1  6  0  0  0
  1 11  1  0  0  0  0
  1  9  1  0  0  0  0
  2 12  1  0  0  0  0
  3  8  1  1  0  0  0
  4 24  1  6  0  0  0
  4 15  1  0  0  0  0
  5  6  1  0  0  0  0
  8  2  1  0  0  0  0
  9 11  1  1  0  0  0
  9  5  1  0  0  0  0
 10 16  1  1  0  0  0
 10  3  1  0  0  0  0
 12  6  1  0  0  0  0
 13 14  1  0  0  0  0
 13  4  1  0  0  0  0
 14 19  1  6  0  0  0
 14 10  1  0  0  0  0
 15  3  1  0  0  0  0
 15  7  1  1  0  0  0
 17 23  1  0  0  0  0
 17 21  1  0  0  0  0
 18 17  2  0  0  0  0
 19 21  2  0  0  0  0
 20 18  1  0  0  0  0
 20 22  2  0  0  0  0
 22 19  1  0  0  0  0
 25 24  1  0  0  0  0
 26 25  1  0  0  0  0
 27 26  1  0  0  0  0
 29 27  1  6  0  0  0
 30 28  2  0  0  0  0
 30 29  1  0  0  0  0
 31 34  1  0  0  0  0
 31 32  1  0  0  0  0
 32 33  1  0  0  0  0
 33 29  1  0  0  0  0
 34 30  1  0  0  0  0
M  END
>  <MODEL>
8

>  <REMARK>
 VINA RESULT:      -9.5      3.454      6.490
  Name = 
  6 active torsions:
  status: ('A' for Active; 'I' for Inactive)
    1  A    between atoms: C_3  and  C_13
    2  A    between atoms: C_3  and  C_17
    3  A    between atoms: C_5  and  C_18
    4  A    between atoms: C_12  and  C_28
    5  A    between atoms: C_17  and  N_29
    6  A    between atoms: C_18  and  N_29
                            x       y       z     vdW  Elec       q    Type
                         _______ _______ _______ _____ _____    ______ ____

>  <TORSDO>
F 6

$$$$
=
 OpenBabel11052414153D

 34 38  0  0  1  0  0  0  0  0999 V2000
  189.9570  176.9850  144.3030 C   0  0  2  0  0  3  0  0  0  0  0  0
  187.3580  178.0230  146.4530 C   0  0  0  0  0  2  0  0  0  0  0  0
  187.0160  178.2420  144.0400 N   0  0  1  0  0  0  0  0  0  0  0  0
  185.3710  178.9070  142.2730 C   0  0  2  0  0  3  0  0  0  0  0  0
  190.1740  176.6530  146.6210 O   0  0  0  0  0  0  0  0  0  0  0  0
  189.4620  177.3230  147.6230 C   0  0  0  0  0  2  0  0  0  0  0  0
  184.6760  178.7080  144.6500 C   0  0  0  0  0  1  0  0  0  0  0  0
  187.1450  177.2860  145.1430 C   0  0  0  0  0  2  0  0  0  0  0  0
  190.3700  177.6070  145.6200 C   0  0  1  0  0  3  0  0  0  0  0  0
  187.9810  177.8200  142.9940 C   0  0  1  0  0  3  0  0  0  0  0  0
  191.4240  177.1620  144.6300 C   0  0  0  0  0  2  0  0  0  0  0  0
  187.9590  177.0850  147.4890 C   0  0  0  0  0  2  0  0  0  0  0  0
  186.3220  178.4270  141.1990 C   0  0  0  0  0  2  0  0  0  0  0  0
  187.7570  178.5590  141.6620 C   0  0  2  0  0  3  0  0  0  0  0  0
  185.6140  178.1420  143.5820 C   0  0  2  0  0  3  0  0  0  0  0  0
  189.4250  178.1070  143.4350 C   0  0  0  0  0  2  0  0  0  0  0  0
  189.5050  178.1370  138.3020 C   0  0  0  0  0  0  0  0  0  0  0  0
  190.3960  177.1000  138.5930 C   0  0  0  0  0  3  0  0  0  0  0  0
  188.6560  178.0460  140.5750 C   0  0  0  0  0  0  0  0  0  0  0  0
  190.4200  176.5360  139.8710 C   0  0  0  0  0  3  0  0  0  0  0  0
  188.6380  178.6100  139.2900 C   0  0  0  0  0  3  0  0  0  0  0  0
  189.5530  177.0100  140.8610 C   0  0  0  0  0  3  0  0  0  0  0  0
  189.4850  178.6880  137.0640 F   0  0  0  0  0  0  0  0  0  0  0  0
  183.9320  178.7460  141.7720 C   0  0  0  0  0  2  0  0  0  0  0  0
  183.8090  177.5960  140.8880 N   0  0  0  0  0  2  0  0  0  0  0  0
  182.5010  177.6780  140.2590 C   0  0  0  0  0  2  0  0  0  0  0  0
  181.9570  179.0920  140.3800 C   0  0  0  0  0  2  0  0  0  0  0  0
  179.8290  181.3090  140.0550 O   0  0  0  0  0  0  0  0  0  0  0  0
  180.4560  179.0740  140.6470 C   0  0  2  0  0  3  0  0  0  0  0  0
  179.9540  180.4570  140.9720 C   0  0  0  0  0  0  0  0  0  0  0  0
  179.5280  179.8440  143.3860 C   0  0  0  0  0  2  0  0  0  0  0  0
  180.4380  178.6500  143.1370 C   0  0  0  0  0  2  0  0  0  0  0  0
  180.1310  178.0730  141.7590 C   0  0  0  0  0  2  0  0  0  0  0  0
  179.6800  180.8350  142.3260 N   0  0  0  0  0  2  0  0  0  0  0  0
  1 16  1  6  0  0  0
  1 11  1  0  0  0  0
  1  9  1  0  0  0  0
  2 12  1  0  0  0  0
  3  8  1  1  0  0  0
  4 24  1  6  0  0  0
  4 15  1  0  0  0  0
  5  6  1  0  0  0  0
  8  2  1  0  0  0  0
  9 11  1  6  0  0  0
  9  5  1  0  0  0  0
 10 16  1  1  0  0  0
 10  3  1  0  0  0  0
 12  6  1  0  0  0  0
 13 14  1  0  0  0  0
 13  4  1  0  0  0  0
 14 19  1  6  0  0  0
 14 10  1  0  0  0  0
 15  3  1  0  0  0  0
 15  7  1  1  0  0  0
 17 18  2  0  0  0  0
 17 21  1  0  0  0  0
 18 20  1  0  0  0  0
 19 22  1  0  0  0  0
 20 22  2  0  0  0  0
 21 19  2  0  0  0  0
 23 17  1  0  0  0  0
 25 24  1  0  0  0  0
 26 27  1  0  0  0  0
 26 25  1  0  0  0  0
 28 30  2  0  0  0  0
 29 27  1  1  0  0  0
 29 30  1  0  0  0  0
 29 33  1  0  0  0  0
 30 34  1  0  0  0  0
 32 31  1  0  0  0  0
 33 32  1  0  0  0  0
 34 31  1  0  0  0  0
M  END
>  <MODEL>
9

>  <REMARK>
 VINA RESULT:      -9.5      2.711      5.264
  Name = 
  6 active torsions:
  status: ('A' for Active; 'I' for Inactive)
    1  A    between atoms: C_3  and  C_13
    2  A    between atoms: C_3  and  C_17
    3  A    between atoms: C_5  and  C_18
    4  A    between atoms: C_12  and  C_28
    5  A    between atoms: C_17  and  N_29
    6  A    between atoms: C_18  and  N_29
                            x       y       z     vdW  Elec       q    Type
                         _______ _______ _______ _____ _____    ______ ____

>  <TORSDO>
F 6

$$$$
