=
 OpenBabel11052414253D

 34 39  0  0  1  0  0  0  0  0999 V2000
  190.0060  177.1580  146.6310 C   0  0  0  0  0  0  0  0  0  0  0  0
  191.4610  175.8750  145.1730 C   0  0  0  0  0  0  0  0  0  0  0  0
  189.4950  177.1780  144.2390 C   0  0  0  0  0  0  0  0  0  0  0  0
  188.9140  177.5540  141.8890 C   0  0  0  0  0  0  0  0  0  0  0  0
  190.8670  176.9120  147.7010 C   0  0  0  0  0  3  0  0  0  0  0  0
  192.3160  175.6460  146.2540 C   0  0  0  0  0  3  0  0  0  0  0  0
  191.2300  177.1870  142.4570 C   0  0  0  0  0  3  0  0  0  0  0  0
  190.3490  176.7540  145.3110 C   0  0  0  0  0  0  0  0  0  0  0  0
  191.5820  177.2880  141.1100 C   0  0  0  0  0  3  0  0  0  0  0  0
  189.2650  177.6390  140.5390 C   0  0  0  0  0  3  0  0  0  0  0  0
  192.0390  176.1860  147.5070 C   0  0  0  0  0  3  0  0  0  0  0  0
  188.1930  177.6500  144.5690 C   0  0  0  0  0  0  0  0  0  0  0  0
  188.8090  177.7390  146.8820 N   0  0  0  0  0  0  0  0  0  0  0  0
  191.6760  175.1270  144.0230 O   0  0  0  0  0  1  0  0  0  0  0  0
  187.6390  177.8260  142.2510 N   0  0  0  0  0  0  0  0  0  0  0  0
  187.2430  177.8950  143.5470 C   0  0  0  0  0  0  0  0  0  0  0  0
  190.6000  177.4920  140.1400 C   0  0  0  0  0  0  0  0  0  0  0  0
  189.8890  177.2590  142.8700 C   0  0  0  0  0  0  0  0  0  0  0  0
  187.9000  177.9500  145.9030 C   0  0  0  0  0  3  0  0  0  0  0  0
  183.5670  178.6120  142.9790 C   0  0  0  0  0  0  0  0  0  0  0  0
  183.1150  178.8460  144.2800 C   0  0  0  0  0  3  0  0  0  0  0  0
  185.8240  178.2540  143.8160 C   0  0  0  0  0  0  0  0  0  0  0  0
  184.0080  178.7770  145.3500 C   0  0  0  0  0  3  0  0  0  0  0  0
  184.9130  178.3110  142.7500 C   0  0  0  0  0  3  0  0  0  0  0  0
  185.3540  178.4770  145.1200 C   0  0  0  0  0  3  0  0  0  0  0  0
  182.6790  178.6740  141.9130 O   0  0  0  0  0  1  0  0  0  0  0  0
  190.9780  177.5650  138.7980 O   0  0  0  0  0  0  0  0  0  0  0  0
  190.3150  176.8340  137.7740 C   0  0  0  0  0  2  0  0  0  0  0  0
  189.4180  179.0990  137.2270 F   0  0  0  0  0  0  0  0  0  0  0  0
  187.2300  175.4450  137.1140 O   0  0  0  0  0  1  0  0  0  0  0  0
  187.5920  177.0950  137.0660 P   0  0  2  0  0  0  0  0  0  0  0  0
  188.9030  177.2920  135.7650 C   0  0  0  0  0  2  0  0  0  0  0  0
  189.3170  177.7300  137.0690 C   0  0  2  0  0  0  0  0  0  0  0  0
  186.4510  178.0010  136.6650 O   0  0  0  0  0  0  0  0  0  0  0  0
  1 13  1  0  0  0  0
  1  5  2  0  0  0  0
  2  8  2  0  0  0  0
  2  6  1  0  0  0  0
  3 12  1  0  0  0  0
  3  8  1  0  0  0  0
  4 15  2  0  0  0  0
  4 18  1  0  0  0  0
  6 11  2  0  0  0  0
  7 18  1  0  0  0  0
  8  1  1  0  0  0  0
  9  7  2  0  0  0  0
 10  4  1  0  0  0  0
 11  5  1  0  0  0  0
 12 19  1  0  0  0  0
 14  2  1  0  0  0  0
 15 16  1  0  0  0  0
 16 22  1  0  0  0  0
 16 12  2  0  0  0  0
 17 10  2  0  0  0  0
 17  9  1  0  0  0  0
 18  3  2  0  0  0  0
 19 13  2  0  0  0  0
 20 21  1  0  0  0  0
 21 23  2  0  0  0  0
 22 25  2  0  0  0  0
 24 20  2  0  0  0  0
 24 22  1  0  0  0  0
 25 23  1  0  0  0  0
 26 20  1  0  0  0  0
 27 17  1  0  0  0  0
 28 27  1  0  0  0  0
 31 34  2  1  0  0  0
 31 33  1  0  0  0  0
 31 30  1  0  0  0  0
 32 31  1  0  0  0  0
 32 33  1  0  0  0  0
 33 29  1  1  0  0  0
 33 28  1  0  0  0  0
M  END
>  <MODEL>
1

>  <REMARK>
 VINA RESULT:     -11.2      0.000      0.000
  Name = 
  4 active torsions:
  status: ('A' for Active; 'I' for Inactive)
    1  A    between atoms: O_3  and  C_13
    2  A    between atoms: O_3  and  C_29
    3  A    between atoms: C_12  and  C_28
    4  A    between atoms: C_13  and  C_33
                            x       y       z     vdW  Elec       q    Type
                         _______ _______ _______ _____ _____    ______ ____

>  <TORSDO>
F 4

$$$$
=
 OpenBabel11052414253D

 34 39  0  0  1  0  0  0  0  0999 V2000
  189.8000  177.2710  146.5070 C   0  0  0  0  0  0  0  0  0  0  0  0
  191.3040  175.9930  145.0960 C   0  0  0  0  0  0  0  0  0  0  0  0
  189.3460  177.2640  144.1040 C   0  0  0  0  0  0  0  0  0  0  0  0
  188.8150  177.6130  141.7380 C   0  0  0  0  0  0  0  0  0  0  0  0
  190.6400  177.0450  147.5990 C   0  0  0  0  0  3  0  0  0  0  0  0
  192.1370  175.7830  146.1990 C   0  0  0  0  0  3  0  0  0  0  0  0
  191.1220  177.2780  142.3640 C   0  0  0  0  0  3  0  0  0  0  0  0
  190.1790  176.8600  145.2000 C   0  0  0  0  0  0  0  0  0  0  0  0
  191.5040  177.3710  141.0240 C   0  0  0  0  0  3  0  0  0  0  0  0
  189.1970  177.6900  140.3960 C   0  0  0  0  0  3  0  0  0  0  0  0
  191.8240  176.3310  147.4390 C   0  0  0  0  0  3  0  0  0  0  0  0
  188.0310  177.7240  144.4000 C   0  0  0  0  0  0  0  0  0  0  0  0
  188.5920  177.8400  146.7250 N   0  0  0  0  0  0  0  0  0  0  0  0
  191.5550  175.2370  143.9580 O   0  0  0  0  0  1  0  0  0  0  0  0
  187.5300  177.8730  142.0680 N   0  0  0  0  0  0  0  0  0  0  0  0
  187.1020  177.9480  143.3540 C   0  0  0  0  0  0  0  0  0  0  0  0
  190.5430  177.5550  140.0300 C   0  0  0  0  0  0  0  0  0  0  0  0
  189.7700  177.3380  142.7450 C   0  0  0  0  0  0  0  0  0  0  0  0
  187.7030  178.0320  145.7240 C   0  0  0  0  0  3  0  0  0  0  0  0
  183.4290  178.6040  142.6960 C   0  0  0  0  0  0  0  0  0  0  0  0
  182.9480  178.8580  143.9820 C   0  0  0  0  0  3  0  0  0  0  0  0
  185.6740  178.2930  143.5860 C   0  0  0  0  0  0  0  0  0  0  0  0
  183.8200  178.8220  145.0720 C   0  0  0  0  0  3  0  0  0  0  0  0
  184.7840  178.3170  142.5000 C   0  0  0  0  0  3  0  0  0  0  0  0
  185.1730  178.5360  144.8750 C   0  0  0  0  0  3  0  0  0  0  0  0
  182.5630  178.6320  141.6110 O   0  0  0  0  0  1  0  0  0  0  0  0
  190.9510  177.6200  138.6960 O   0  0  0  0  0  0  0  0  0  0  0  0
  190.2170  177.0150  137.6390 C   0  0  0  0  0  2  0  0  0  0  0  0
  190.0670  174.5260  137.7580 F   0  0  0  0  0  0  0  0  0  0  0  0
  193.6460  176.8020  137.3560 O   0  0  0  0  0  0  0  0  0  0  0  0
  192.5970  175.4940  137.5710 P   0  0  2  0  0  0  0  0  0  0  0  0
  191.4680  175.4990  136.0970 C   0  0  0  0  0  2  0  0  0  0  0  0
  190.7780  175.6380  137.3500 C   0  0  2  0  0  0  0  0  0  0  0  0
  193.2530  174.1330  137.6050 O   0  0  0  0  0  1  0  0  0  0  0  0
  1 13  1  0  0  0  0
  1  5  2  0  0  0  0
  2  8  2  0  0  0  0
  2  6  1  0  0  0  0
  3 12  1  0  0  0  0
  3  8  1  0  0  0  0
  4 15  2  0  0  0  0
  4 18  1  0  0  0  0
  6 11  2  0  0  0  0
  7 18  1  0  0  0  0
  8  1  1  0  0  0  0
  9  7  2  0  0  0  0
 10  4  1  0  0  0  0
 11  5  1  0  0  0  0
 12 19  1  0  0  0  0
 14  2  1  0  0  0  0
 15 16  1  0  0  0  0
 16 22  1  0  0  0  0
 16 12  2  0  0  0  0
 17 10  2  0  0  0  0
 17  9  1  0  0  0  0
 18  3  2  0  0  0  0
 19 13  2  0  0  0  0
 20 21  1  0  0  0  0
 21 23  2  0  0  0  0
 22 25  2  0  0  0  0
 24 20  2  0  0  0  0
 24 22  1  0  0  0  0
 25 23  1  0  0  0  0
 26 20  1  0  0  0  0
 27 17  1  0  0  0  0
 28 27  1  0  0  0  0
 31 30  2  1  0  0  0
 31 34  1  0  0  0  0
 32 33  1  0  0  0  0
 32 31  1  0  0  0  0
 33 31  1  0  0  0  0
 33 28  1  0  0  0  0
 33 29  1  1  0  0  0
M  END
>  <MODEL>
2

>  <REMARK>
 VINA RESULT:     -11.1      1.747      2.255
  Name = 
  4 active torsions:
  status: ('A' for Active; 'I' for Inactive)
    1  A    between atoms: O_3  and  C_13
    2  A    between atoms: O_3  and  C_29
    3  A    between atoms: C_12  and  C_28
    4  A    between atoms: C_13  and  C_33
                            x       y       z     vdW  Elec       q    Type
                         _______ _______ _______ _____ _____    ______ ____

>  <TORSDO>
F 4

$$$$
=
 OpenBabel11052414253D

 34 39  0  0  1  0  0  0  0  0999 V2000
  188.5330  177.1970  146.2130 C   0  0  0  0  0  0  0  0  0  0  0  0
  186.8010  178.6410  147.1100 C   0  0  0  0  0  0  0  0  0  0  0  0
  186.8870  178.0860  144.6360 C   0  0  0  0  0  0  0  0  0  0  0  0
  185.2440  178.6430  142.9070 C   0  0  0  0  0  0  0  0  0  0  0  0
  188.9620  176.9130  147.5100 C   0  0  0  0  0  3  0  0  0  0  0  0
  187.2400  178.3390  148.4020 C   0  0  0  0  0  3  0  0  0  0  0  0
  184.4820  178.4010  145.1830 C   0  0  0  0  0  3  0  0  0  0  0  0
  187.3580  177.9670  145.9870 C   0  0  0  0  0  0  0  0  0  0  0  0
  183.1810  178.7120  144.7860 C   0  0  0  0  0  3  0  0  0  0  0  0
  183.9440  178.9700  142.5130 C   0  0  0  0  0  3  0  0  0  0  0  0
  188.2960  177.4550  148.6050 C   0  0  0  0  0  3  0  0  0  0  0  0
  187.7860  177.7540  143.5840 C   0  0  0  0  0  0  0  0  0  0  0  0
  189.2870  176.7740  145.1720 N   0  0  0  0  0  0  0  0  0  0  0  0
  185.9040  179.6920  146.9740 O   0  0  0  0  0  1  0  0  0  0  0  0
  186.1940  178.4800  141.9570 N   0  0  0  0  0  0  0  0  0  0  0  0
  187.4460  178.0370  142.2380 C   0  0  0  0  0  0  0  0  0  0  0  0
  182.9070  179.0210  143.4530 C   0  0  0  0  0  0  0  0  0  0  0  0
  185.5490  178.4160  144.2690 C   0  0  0  0  0  0  0  0  0  0  0  0
  188.9650  177.0670  143.8920 C   0  0  0  0  0  3  0  0  0  0  0  0
  189.1180  178.5020  138.8710 C   0  0  0  0  0  0  0  0  0  0  0  0
  190.1760  177.5930  138.9480 C   0  0  0  0  0  3  0  0  0  0  0  0
  188.3820  177.8500  141.0980 C   0  0  0  0  0  0  0  0  0  0  0  0
  190.3470  176.8180  140.0970 C   0  0  0  0  0  3  0  0  0  0  0  0
  188.2310  178.6340  139.9440 C   0  0  0  0  0  3  0  0  0  0  0  0
  189.4580  176.9500  141.1670 C   0  0  0  0  0  3  0  0  0  0  0  0
  188.9500  179.2780  137.7330 O   0  0  0  0  0  1  0  0  0  0  0  0
  181.6000  179.3520  143.0880 O   0  0  0  0  0  0  0  0  0  0  0  0
  180.6120  178.3700  142.8020 C   0  0  0  0  0  2  0  0  0  0  0  0
  181.1950  177.1940  140.6770 F   0  0  0  0  0  0  0  0  0  0  0  0
  179.7910  181.2020  141.0180 O   0  0  0  0  0  1  0  0  0  0  0  0
  180.4100  179.7750  140.3580 P   0  0  2  0  0  0  0  0  0  0  0  0
  179.1730  178.4490  140.7610 C   0  0  0  0  0  2  0  0  0  0  0  0
  180.4810  178.1980  141.3020 C   0  0  2  0  0  0  0  0  0  0  0  0
  180.5730  179.7680  138.8560 O   0  0  0  0  0  0  0  0  0  0  0  0
  1  5  2  0  0  0  0
  2  6  1  0  0  0  0
  3  8  1  0  0  0  0
  4 18  1  0  0  0  0
  5 11  1  0  0  0  0
  6 11  2  0  0  0  0
  8  1  1  0  0  0  0
  8  2  2  0  0  0  0
  9  7  1  0  0  0  0
 10  4  2  0  0  0  0
 10 17  1  0  0  0  0
 12 19  1  0  0  0  0
 12  3  2  0  0  0  0
 13  1  1  0  0  0  0
 14  2  1  0  0  0  0
 15 16  2  0  0  0  0
 15  4  1  0  0  0  0
 16 12  1  0  0  0  0
 17  9  2  0  0  0  0
 18  3  1  0  0  0  0
 18  7  2  0  0  0  0
 19 13  2  0  0  0  0
 20 21  2  0  0  0  0
 20 24  1  0  0  0  0
 21 23  1  0  0  0  0
 22 25  1  0  0  0  0
 22 16  1  0  0  0  0
 23 25  2  0  0  0  0
 24 22  2  0  0  0  0
 26 20  1  0  0  0  0
 27 17  1  0  0  0  0
 28 27  1  0  0  0  0
 31 34  2  6  0  0  0
 31 32  1  0  0  0  0
 31 30  1  0  0  0  0
 31 33  1  0  0  0  0
 32 33  1  0  0  0  0
 33 29  1  6  0  0  0
 33 28  1  0  0  0  0
M  END
>  <MODEL>
3

>  <REMARK>
 VINA RESULT:     -11.1      3.151      6.746
  Name = 
  4 active torsions:
  status: ('A' for Active; 'I' for Inactive)
    1  A    between atoms: O_3  and  C_13
    2  A    between atoms: O_3  and  C_29
    3  A    between atoms: C_12  and  C_28
    4  A    between atoms: C_13  and  C_33
                            x       y       z     vdW  Elec       q    Type
                         _______ _______ _______ _____ _____    ______ ____

>  <TORSDO>
F 4

$$$$
=
 OpenBabel11052414253D

 34 39  0  0  1  0  0  0  0  0999 V2000
  185.7970  178.5060  146.1240 C   0  0  0  0  0  0  0  0  0  0  0  0
  187.5220  177.3250  144.8930 C   0  0  0  0  0  0  0  0  0  0  0  0
  185.5120  178.3150  143.7030 C   0  0  0  0  0  0  0  0  0  0  0  0
  185.1110  178.4720  141.2910 C   0  0  0  0  0  0  0  0  0  0  0  0
  186.5780  178.4350  147.2790 C   0  0  0  0  0  3  0  0  0  0  0  0
  188.2940  177.2710  146.0560 C   0  0  0  0  0  3  0  0  0  0  0  0
  187.3920  178.4290  142.0790 C   0  0  0  0  0  3  0  0  0  0  0  0
  186.3060  178.0670  144.8710 C   0  0  0  0  0  0  0  0  0  0  0  0
  187.8530  178.4890  140.7630 C   0  0  0  0  0  3  0  0  0  0  0  0
  185.5740  178.5160  139.9730 C   0  0  0  0  0  3  0  0  0  0  0  0
  187.8400  177.8490  147.2380 C   0  0  0  0  0  3  0  0  0  0  0  0
  184.1380  178.6420  143.8860 C   0  0  0  0  0  0  0  0  0  0  0  0
  184.5220  178.9490  146.2300 N   0  0  0  0  0  0  0  0  0  0  0  0
  187.9290  176.5410  143.8220 O   0  0  0  0  0  1  0  0  0  0  0  0
  183.7850  178.6060  141.5230 N   0  0  0  0  0  0  0  0  0  0  0  0
  183.2650  178.7040  142.7730 C   0  0  0  0  0  0  0  0  0  0  0  0
  186.9480  178.5100  139.7000 C   0  0  0  0  0  0  0  0  0  0  0  0
  186.0180  178.3600  142.3700 C   0  0  0  0  0  0  0  0  0  0  0  0
  183.6890  178.9860  145.1660 C   0  0  0  0  0  3  0  0  0  0  0  0
  179.6760  179.4990  141.8540 C   0  0  0  0  0  0  0  0  0  0  0  0
  179.0040  179.2100  143.0440 C   0  0  0  0  0  3  0  0  0  0  0  0
  181.7950  178.9010  142.8930 C   0  0  0  0  0  0  0  0  0  0  0  0
  179.7190  178.7580  144.1560 C   0  0  0  0  0  3  0  0  0  0  0  0
  181.0630  179.3390  141.7780 C   0  0  0  0  0  3  0  0  0  0  0  0
  181.1050  178.6000  144.0790 C   0  0  0  0  0  3  0  0  0  0  0  0
  178.9670  179.9420  140.7460 O   0  0  0  0  0  1  0  0  0  0  0  0
  187.4380  178.5460  138.3940 O   0  0  0  0  0  0  0  0  0  0  0  0
  188.7980  178.2770  138.0760 C   0  0  0  0  0  2  0  0  0  0  0  0
  187.8000  176.0720  137.4600 F   0  0  0  0  0  0  0  0  0  0  0  0
  191.8740  176.7780  138.4910 O   0  0  0  0  0  1  0  0  0  0  0  0
  190.4380  175.9760  138.1010 P   0  0  2  0  0  0  0  0  0  0  0  0
  189.8810  176.6900  136.4790 C   0  0  0  0  0  2  0  0  0  0  0  0
  188.9290  176.8650  137.5420 C   0  0  2  0  0  0  0  0  0  0  0  0
  190.5610  174.4850  137.8930 O   0  0  0  0  0  0  0  0  0  0  0  0
  1 13  1  0  0  0  0
  1  5  2  0  0  0  0
  2  6  1  0  0  0  0
  3 12  1  0  0  0  0
  3  8  1  0  0  0  0
  4 15  2  0  0  0  0
  4 18  1  0  0  0  0
  6 11  2  0  0  0  0
  7 18  1  0  0  0  0
  8  2  2  0  0  0  0
  8  1  1  0  0  0  0
  9  7  2  0  0  0  0
 10  4  1  0  0  0  0
 11  5  1  0  0  0  0
 12 19  1  0  0  0  0
 14  2  1  0  0  0  0
 15 16  1  0  0  0  0
 16 22  1  0  0  0  0
 16 12  2  0  0  0  0
 17 10  2  0  0  0  0
 17  9  1  0  0  0  0
 18  3  2  0  0  0  0
 19 13  2  0  0  0  0
 20 21  1  0  0  0  0
 21 23  2  0  0  0  0
 22 25  2  0  0  0  0
 24 20  2  0  0  0  0
 24 22  1  0  0  0  0
 25 23  1  0  0  0  0
 26 20  1  0  0  0  0
 27 17  1  0  0  0  0
 28 27  1  0  0  0  0
 31 34  2  1  0  0  0
 31 30  1  0  0  0  0
 32 33  1  0  0  0  0
 32 31  1  0  0  0  0
 33 29  1  6  0  0  0
 33 28  1  0  0  0  0
 33 31  1  0  0  0  0
M  END
>  <MODEL>
4

>  <REMARK>
 VINA RESULT:     -11.1      2.687      4.053
  Name = 
  4 active torsions:
  status: ('A' for Active; 'I' for Inactive)
    1  A    between atoms: O_3  and  C_13
    2  A    between atoms: O_3  and  C_29
    3  A    between atoms: C_12  and  C_28
    4  A    between atoms: C_13  and  C_33
                            x       y       z     vdW  Elec       q    Type
                         _______ _______ _______ _____ _____    ______ ____

>  <TORSDO>
F 4

$$$$
=
 OpenBabel11052414253D

 34 39  0  0  1  0  0  0  0  0999 V2000
  187.0530  178.4390  147.1680 C   0  0  0  0  0  0  0  0  0  0  0  0
  188.9870  177.1470  146.4750 C   0  0  0  0  0  0  0  0  0  0  0  0
  187.3110  178.0040  144.7740 C   0  0  0  0  0  0  0  0  0  0  0  0
  187.4610  177.9160  142.3310 C   0  0  0  0  0  0  0  0  0  0  0  0
  187.5560  178.4870  148.4680 C   0  0  0  0  0  3  0  0  0  0  0  0
  189.4790  177.2130  147.7810 C   0  0  0  0  0  3  0  0  0  0  0  0
  189.5070  177.9620  143.6090 C   0  0  0  0  0  3  0  0  0  0  0  0
  187.8200  177.8780  146.1100 C   0  0  0  0  0  0  0  0  0  0  0  0
  190.2510  177.8910  142.4300 C   0  0  0  0  0  3  0  0  0  0  0  0
  188.2060  177.8290  141.1520 C   0  0  0  0  0  3  0  0  0  0  0  0
  188.7840  177.9050  148.7690 C   0  0  0  0  0  3  0  0  0  0  0  0
  185.9370  178.3420  144.6130 C   0  0  0  0  0  0  0  0  0  0  0  0
  185.7950  178.8850  146.9420 N   0  0  0  0  0  0  0  0  0  0  0  0
  189.6080  176.2600  145.6060 O   0  0  0  0  0  1  0  0  0  0  0  0
  186.1190  178.0670  142.2460 N   0  0  0  0  0  0  0  0  0  0  0  0
  185.3350  178.2890  143.3320 C   0  0  0  0  0  0  0  0  0  0  0  0
  189.6060  177.8010  141.1960 C   0  0  0  0  0  0  0  0  0  0  0  0
  188.1020  177.9170  143.5910 C   0  0  0  0  0  0  0  0  0  0  0  0
  185.2210  178.8110  145.7200 C   0  0  0  0  0  3  0  0  0  0  0  0
  182.0110  178.6280  141.5460 C   0  0  0  0  0  0  0  0  0  0  0  0
  181.1260  178.7850  142.6150 C   0  0  0  0  0  3  0  0  0  0  0  0
  183.8800  178.4910  143.1010 C   0  0  0  0  0  0  0  0  0  0  0  0
  181.6080  178.7880  143.9250 C   0  0  0  0  0  3  0  0  0  0  0  0
  183.3800  178.4750  141.7890 C   0  0  0  0  0  3  0  0  0  0  0  0
  182.9760  178.6360  144.1660 C   0  0  0  0  0  3  0  0  0  0  0  0
  181.5330  178.6190  140.2430 O   0  0  0  0  0  1  0  0  0  0  0  0
  190.3750  177.7080  140.0340 O   0  0  0  0  0  0  0  0  0  0  0  0
  189.9640  176.9550  138.9000 C   0  0  0  0  0  2  0  0  0  0  0  0
  189.4300  179.2440  138.0540 F   0  0  0  0  0  0  0  0  0  0  0  0
  187.2800  175.6770  137.1550 O   0  0  0  0  0  1  0  0  0  0  0  0
  187.7060  177.3110  137.2380 P   0  0  2  0  0  0  0  0  0  0  0  0
  189.4100  177.4300  136.5110 C   0  0  0  0  0  2  0  0  0  0  0  0
  189.3350  177.8770  137.8740 C   0  0  2  0  0  0  0  0  0  0  0  0
  186.8320  178.2530  136.4430 O   0  0  0  0  0  0  0  0  0  0  0  0
  1  5  2  0  0  0  0
  2  6  1  0  0  0  0
  3  8  1  0  0  0  0
  4 18  1  0  0  0  0
  5 11  1  0  0  0  0
  6 11  2  0  0  0  0
  8  2  2  0  0  0  0
  8  1  1  0  0  0  0
  9  7  2  0  0  0  0
 10 17  2  0  0  0  0
 10  4  1  0  0  0  0
 12  3  1  0  0  0  0
 12 19  1  0  0  0  0
 13  1  1  0  0  0  0
 14  2  1  0  0  0  0
 15  4  2  0  0  0  0
 15 16  1  0  0  0  0
 16 12  2  0  0  0  0
 17  9  1  0  0  0  0
 18  7  1  0  0  0  0
 18  3  2  0  0  0  0
 19 13  2  0  0  0  0
 20 24  2  0  0  0  0
 20 21  1  0  0  0  0
 21 23  2  0  0  0  0
 22 16  1  0  0  0  0
 22 25  2  0  0  0  0
 23 25  1  0  0  0  0
 24 22  1  0  0  0  0
 26 20  1  0  0  0  0
 27 17  1  0  0  0  0
 28 27  1  0  0  0  0
 30 31  1  0  0  0  0
 31 34  2  6  0  0  0
 31 33  1  0  0  0  0
 32 31  1  0  0  0  0
 32 33  1  0  0  0  0
 33 29  1  1  0  0  0
 33 28  1  0  0  0  0
M  END
>  <MODEL>
5

>  <REMARK>
 VINA RESULT:     -10.9      1.562      2.280
  Name = 
  4 active torsions:
  status: ('A' for Active; 'I' for Inactive)
    1  A    between atoms: O_3  and  C_13
    2  A    between atoms: O_3  and  C_29
    3  A    between atoms: C_12  and  C_28
    4  A    between atoms: C_13  and  C_33
                            x       y       z     vdW  Elec       q    Type
                         _______ _______ _______ _____ _____    ______ ____

>  <TORSDO>
F 4

$$$$
=
 OpenBabel11052414253D

 34 39  0  0  1  0  0  0  0  0999 V2000
  191.0140  176.2940  144.9930 C   0  0  0  0  0  0  0  0  0  0  0  0
  189.7000  177.5750  146.5810 C   0  0  0  0  0  0  0  0  0  0  0  0
  188.9510  177.3190  144.1700 C   0  0  0  0  0  0  0  0  0  0  0  0
  186.8350  178.0330  143.1630 C   0  0  0  0  0  0  0  0  0  0  0  0
  191.8460  175.8700  146.0300 C   0  0  0  0  0  3  0  0  0  0  0  0
  190.5390  177.1340  147.6080 C   0  0  0  0  0  3  0  0  0  0  0  0
  186.8690  177.5030  145.5180 C   0  0  0  0  0  3  0  0  0  0  0  0
  189.8420  177.0540  145.2630 C   0  0  0  0  0  0  0  0  0  0  0  0
  185.5140  177.8240  145.6140 C   0  0  0  0  0  3  0  0  0  0  0  0
  185.4820  178.3690  143.2650 C   0  0  0  0  0  3  0  0  0  0  0  0
  191.5900  176.2610  147.3410 C   0  0  0  0  0  3  0  0  0  0  0  0
  189.4440  177.1380  142.8470 C   0  0  0  0  0  0  0  0  0  0  0  0
  191.3740  176.0170  143.7180 N   0  0  0  0  0  0  0  0  0  0  0  0
  188.8230  178.6100  146.8770 O   0  0  0  0  0  1  0  0  0  0  0  0
  187.4120  178.0080  141.9400 N   0  0  0  0  0  0  0  0  0  0  0  0
  188.6800  177.5690  141.7350 C   0  0  0  0  0  0  0  0  0  0  0  0
  184.8170  178.2810  144.4950 C   0  0  0  0  0  0  0  0  0  0  0  0
  187.5720  177.6540  144.3100 C   0  0  0  0  0  0  0  0  0  0  0  0
  190.6490  176.4510  142.6620 C   0  0  0  0  0  3  0  0  0  0  0  0
  189.2270  178.5390  138.1140 C   0  0  0  0  0  0  0  0  0  0  0  0
  190.1630  177.5870  137.7000 C   0  0  0  0  0  3  0  0  0  0  0  0
  189.1820  177.5430  140.3350 C   0  0  0  0  0  0  0  0  0  0  0  0
  190.6170  176.6200  138.5990 C   0  0  0  0  0  3  0  0  0  0  0  0
  188.7450  178.5190  139.4270 C   0  0  0  0  0  3  0  0  0  0  0  0
  190.1330  176.6010  139.9100 C   0  0  0  0  0  3  0  0  0  0  0  0
  188.7790  179.5060  137.2250 O   0  0  0  0  0  1  0  0  0  0  0  0
  183.4690  178.6180  144.6270 O   0  0  0  0  0  0  0  0  0  0  0  0
  182.7870  179.4370  143.6850 C   0  0  0  0  0  2  0  0  0  0  0  0
  180.8540  178.0210  144.3870 F   0  0  0  0  0  0  0  0  0  0  0  0
  181.6830  179.3420  140.4220 O   0  0  0  0  0  0  0  0  0  0  0  0
  180.9690  178.5310  141.7210 P   0  0  2  0  0  0  0  0  0  0  0  0
  180.4460  179.8510  142.9190 C   0  0  0  0  0  2  0  0  0  0  0  0
  181.3820  178.9120  143.4720 C   0  0  2  0  0  0  0  0  0  0  0  0
  179.7270  177.7360  141.3900 O   0  0  0  0  0  1  0  0  0  0  0  0
  1  8  1  0  0  0  0
  1  5  2  0  0  0  0
  2 14  1  0  0  0  0
  2  6  1  0  0  0  0
  3 18  1  0  0  0  0
  3  8  1  0  0  0  0
  4 10  2  0  0  0  0
  4 18  1  0  0  0  0
  5 11  1  0  0  0  0
  7  9  1  0  0  0  0
  8  2  2  0  0  0  0
 10 17  1  0  0  0  0
 11  6  2  0  0  0  0
 12  3  2  0  0  0  0
 13  1  1  0  0  0  0
 15  4  1  0  0  0  0
 16 15  2  0  0  0  0
 16 12  1  0  0  0  0
 17 27  1  0  0  0  0
 17  9  2  0  0  0  0
 18  7  2  0  0  0  0
 19 12  1  0  0  0  0
 19 13  2  0  0  0  0
 20 24  1  0  0  0  0
 21 20  2  0  0  0  0
 21 23  1  0  0  0  0
 22 16  1  0  0  0  0
 23 25  2  0  0  0  0
 24 22  2  0  0  0  0
 25 22  1  0  0  0  0
 26 20  1  0  0  0  0
 28 27  1  0  0  0  0
 31 30  2  6  0  0  0
 31 32  1  0  0  0  0
 31 33  1  0  0  0  0
 32 33  1  0  0  0  0
 33 28  1  0  0  0  0
 33 29  1  1  0  0  0
 34 31  1  0  0  0  0
M  END
>  <MODEL>
6

>  <REMARK>
 VINA RESULT:     -10.9      3.004      6.482
  Name = 
  4 active torsions:
  status: ('A' for Active; 'I' for Inactive)
    1  A    between atoms: O_3  and  C_13
    2  A    between atoms: O_3  and  C_29
    3  A    between atoms: C_12  and  C_28
    4  A    between atoms: C_13  and  C_33
                            x       y       z     vdW  Elec       q    Type
                         _______ _______ _______ _____ _____    ______ ____

>  <TORSDO>
F 4

$$$$
=
 OpenBabel11052414253D

 34 39  0  0  1  0  0  0  0  0999 V2000
  185.9110  178.4510  146.1080 C   0  0  0  0  0  0  0  0  0  0  0  0
  187.5990  177.2560  144.8390 C   0  0  0  0  0  0  0  0  0  0  0  0
  185.5770  178.2690  143.6910 C   0  0  0  0  0  0  0  0  0  0  0  0
  185.1300  178.4360  141.2880 C   0  0  0  0  0  0  0  0  0  0  0  0
  186.7140  178.3690  147.2460 C   0  0  0  0  0  3  0  0  0  0  0  0
  188.3940  177.1900  145.9870 C   0  0  0  0  0  3  0  0  0  0  0  0
  187.4260  178.3680  142.0310 C   0  0  0  0  0  3  0  0  0  0  0  0
  186.3910  178.0100  144.8440 C   0  0  0  0  0  0  0  0  0  0  0  0
  187.8610  178.4270  140.7070 C   0  0  0  0  0  3  0  0  0  0  0  0
  185.5680  178.4790  139.9620 C   0  0  0  0  0  3  0  0  0  0  0  0
  187.9690  177.7700  147.1790 C   0  0  0  0  0  3  0  0  0  0  0  0
  184.2110  178.6100  143.9030 C   0  0  0  0  0  0  0  0  0  0  0  0
  184.6430  178.9070  146.2400 N   0  0  0  0  0  0  0  0  0  0  0  0
  187.9780  176.4700  143.7590 O   0  0  0  0  0  1  0  0  0  0  0  0
  183.8110  178.5830  141.5470 N   0  0  0  0  0  0  0  0  0  0  0  0
  183.3160  178.6840  142.8070 C   0  0  0  0  0  0  0  0  0  0  0  0
  186.9360  178.4600  139.6620 C   0  0  0  0  0  0  0  0  0  0  0  0
  186.0570  178.3130  142.3500 C   0  0  0  0  0  0  0  0  0  0  0  0
  183.7900  178.9540  145.1920 C   0  0  0  0  0  3  0  0  0  0  0  0
  179.7250  179.5580  141.9720 C   0  0  0  0  0  0  0  0  0  0  0  0
  179.0670  179.2350  143.1610 C   0  0  0  0  0  3  0  0  0  0  0  0
  181.8510  178.8960  142.9560 C   0  0  0  0  0  0  0  0  0  0  0  0
  179.7920  178.7350  144.2450 C   0  0  0  0  0  3  0  0  0  0  0  0
  181.1090  179.3830  141.8690 C   0  0  0  0  0  3  0  0  0  0  0  0
  181.1740  178.5610  144.1410 C   0  0  0  0  0  3  0  0  0  0  0  0
  179.0060  180.0500  140.8910 O   0  0  0  0  0  1  0  0  0  0  0  0
  187.4000  178.4950  138.3460 O   0  0  0  0  0  0  0  0  0  0  0  0
  186.5350  178.3700  137.2240 C   0  0  0  0  0  2  0  0  0  0  0  0
  187.6310  177.2600  135.2730 F   0  0  0  0  0  0  0  0  0  0  0  0
  184.3930  175.6900  137.5550 O   0  0  0  0  0  1  0  0  0  0  0  0
  185.5580  175.8680  136.3440 P   0  0  2  0  0  0  0  0  0  0  0  0
  187.1930  175.9600  137.2200 C   0  0  0  0  0  2  0  0  0  0  0  0
  186.8960  177.1270  136.4360 C   0  0  2  0  0  0  0  0  0  0  0  0
  185.6600  174.7230  135.3640 O   0  0  0  0  0  0  0  0  0  0  0  0
  1 13  1  0  0  0  0
  1  5  2  0  0  0  0
  2  8  2  0  0  0  0
  2  6  1  0  0  0  0
  3 12  1  0  0  0  0
  3  8  1  0  0  0  0
  4 15  2  0  0  0  0
  4 18  1  0  0  0  0
  6 11  2  0  0  0  0
  7 18  1  0  0  0  0
  8  1  1  0  0  0  0
  9  7  2  0  0  0  0
 10  4  1  0  0  0  0
 11  5  1  0  0  0  0
 12 19  1  0  0  0  0
 14  2  1  0  0  0  0
 15 16  1  0  0  0  0
 16 22  1  0  0  0  0
 16 12  2  0  0  0  0
 17 10  2  0  0  0  0
 17  9  1  0  0  0  0
 18  3  2  0  0  0  0
 19 13  2  0  0  0  0
 20 21  1  0  0  0  0
 21 23  2  0  0  0  0
 22 25  2  0  0  0  0
 24 20  2  0  0  0  0
 24 22  1  0  0  0  0
 25 23  1  0  0  0  0
 26 20  1  0  0  0  0
 27 17  1  0  0  0  0
 28 27  1  0  0  0  0
 31 34  2  6  0  0  0
 31 33  1  0  0  0  0
 31 32  1  0  0  0  0
 31 30  1  0  0  0  0
 33 29  1  6  0  0  0
 33 32  1  0  0  0  0
 33 28  1  0  0  0  0
M  END
>  <MODEL>
7

>  <REMARK>
 VINA RESULT:     -10.4      2.751      3.930
  Name = 
  4 active torsions:
  status: ('A' for Active; 'I' for Inactive)
    1  A    between atoms: O_3  and  C_13
    2  A    between atoms: O_3  and  C_29
    3  A    between atoms: C_12  and  C_28
    4  A    between atoms: C_13  and  C_33
                            x       y       z     vdW  Elec       q    Type
                         _______ _______ _______ _____ _____    ______ ____

>  <TORSDO>
F 4

$$$$
=
 OpenBabel11052414253D

 34 39  0  0  1  0  0  0  0  0999 V2000
  182.6210  178.7350  141.4000 C   0  0  0  0  0  0  0  0  0  0  0  0
  183.5230  179.7520  139.3900 C   0  0  0  0  0  0  0  0  0  0  0  0
  185.0530  178.7330  141.1390 C   0  0  0  0  0  0  0  0  0  0  0  0
  187.4750  178.3900  141.0100 C   0  0  0  0  0  0  0  0  0  0  0  0
  181.3310  178.8770  140.8880 C   0  0  0  0  0  3  0  0  0  0  0  0
  182.2250  179.8780  138.8890 C   0  0  0  0  0  3  0  0  0  0  0  0
  186.2060  178.4230  138.9570 C   0  0  0  0  0  3  0  0  0  0  0  0
  183.7580  179.0520  140.6070 C   0  0  0  0  0  0  0  0  0  0  0  0
  187.3790  178.2390  138.2230 C   0  0  0  0  0  3  0  0  0  0  0  0
  188.6510  178.2210  140.2730 C   0  0  0  0  0  3  0  0  0  0  0  0
  181.1340  179.4160  139.6200 C   0  0  0  0  0  3  0  0  0  0  0  0
  185.1550  178.4680  142.5340 C   0  0  0  0  0  0  0  0  0  0  0  0
  182.7680  178.3450  142.6880 N   0  0  0  0  0  0  0  0  0  0  0  0
  184.5310  180.4320  138.7200 O   0  0  0  0  0  1  0  0  0  0  0  0
  187.5340  178.3190  142.3590 N   0  0  0  0  0  0  0  0  0  0  0  0
  186.4270  178.3420  143.1450 C   0  0  0  0  0  0  0  0  0  0  0  0
  188.6110  178.1600  138.8740 C   0  0  0  0  0  0  0  0  0  0  0  0
  186.2320  178.5610  140.3560 C   0  0  0  0  0  0  0  0  0  0  0  0
  183.9850  178.2480  143.2690 C   0  0  0  0  0  3  0  0  0  0  0  0
  187.9990  177.4580  146.4760 C   0  0  0  0  0  0  0  0  0  0  0  0
  187.0780  177.9920  147.3800 C   0  0  0  0  0  3  0  0  0  0  0  0
  186.6220  178.2050  144.6130 C   0  0  0  0  0  0  0  0  0  0  0  0
  185.9340  178.6390  146.9080 C   0  0  0  0  0  3  0  0  0  0  0  0
  187.7750  177.5700  145.1000 C   0  0  0  0  0  3  0  0  0  0  0  0
  185.7110  178.7500  145.5330 C   0  0  0  0  0  3  0  0  0  0  0  0
  189.1400  176.8190  146.9430 O   0  0  0  0  0  1  0  0  0  0  0  0
  189.7700  177.9980  138.1120 O   0  0  0  0  0  0  0  0  0  0  0  0
  190.0750  176.7910  137.4260 C   0  0  0  0  0  2  0  0  0  0  0  0
  191.0600  176.0050  139.5820 F   0  0  0  0  0  0  0  0  0  0  0  0
  193.1230  176.3740  135.8720 O   0  0  0  0  0  0  0  0  0  0  0  0
  192.8200  176.1240  137.5160 P   0  0  2  0  0  0  0  0  0  0  0  0
  191.5440  174.7780  137.5990 C   0  0  0  0  0  2  0  0  0  0  0  0
  191.1170  176.0110  138.2010 C   0  0  2  0  0  0  0  0  0  0  0  0
  194.0000  175.6490  138.3310 O   0  0  0  0  0  1  0  0  0  0  0  0
  1 13  1  0  0  0  0
  2  8  1  0  0  0  0
  3 12  1  0  0  0  0
  4 15  2  0  0  0  0
  5  1  1  0  0  0  0
  6  2  2  0  0  0  0
  6 11  1  0  0  0  0
  7 18  1  0  0  0  0
  8  3  1  0  0  0  0
  8  1  2  0  0  0  0
  9 17  1  0  0  0  0
  9  7  2  0  0  0  0
 10  4  1  0  0  0  0
 11  5  2  0  0  0  0
 12 16  2  0  0  0  0
 12 19  1  0  0  0  0
 13 19  2  0  0  0  0
 14  2  1  0  0  0  0
 15 16  1  0  0  0  0
 16 22  1  0  0  0  0
 17 10  2  0  0  0  0
 18  4  1  0  0  0  0
 18  3  2  0  0  0  0
 20 26  1  0  0  0  0
 20 21  1  0  0  0  0
 22 24  1  0  0  0  0
 22 25  2  0  0  0  0
 23 21  2  0  0  0  0
 24 20  2  0  0  0  0
 25 23  1  0  0  0  0
 27 17  1  0  0  0  0
 28 27  1  0  0  0  0
 28 33  1  0  0  0  0
 31 30  2  6  0  0  0
 31 32  1  0  0  0  0
 31 33  1  0  0  0  0
 31 34  1  0  0  0  0
 32 33  1  0  0  0  0
 33 29  1  1  0  0  0
M  END
>  <MODEL>
8

>  <REMARK>
 VINA RESULT:      -9.8      2.820      6.484
  Name = 
  4 active torsions:
  status: ('A' for Active; 'I' for Inactive)
    1  A    between atoms: O_3  and  C_13
    2  A    between atoms: O_3  and  C_29
    3  A    between atoms: C_12  and  C_28
    4  A    between atoms: C_13  and  C_33
                            x       y       z     vdW  Elec       q    Type
                         _______ _______ _______ _____ _____    ______ ____

>  <TORSDO>
F 4

$$$$
=
 OpenBabel11052414253D

 34 39  0  0  1  0  0  0  0  0999 V2000
  189.0480  177.0830  146.1760 C   0  0  0  0  0  0  0  0  0  0  0  0
  187.1550  178.5270  146.6450 C   0  0  0  0  0  0  0  0  0  0  0  0
  187.7390  177.8680  144.2650 C   0  0  0  0  0  0  0  0  0  0  0  0
  186.4670  178.3150  142.2200 C   0  0  0  0  0  0  0  0  0  0  0  0
  189.2140  176.8640  147.5450 C   0  0  0  0  0  3  0  0  0  0  0  0
  187.3310  178.2900  148.0100 C   0  0  0  0  0  3  0  0  0  0  0  0
  185.2690  178.1540  144.3090 C   0  0  0  0  0  3  0  0  0  0  0  0
  187.9330  177.8170  145.6860 C   0  0  0  0  0  0  0  0  0  0  0  0
  184.0700  178.4210  143.6470 C   0  0  0  0  0  3  0  0  0  0  0  0
  185.2670  178.5970  141.5610 C   0  0  0  0  0  3  0  0  0  0  0  0
  188.3370  177.4380  148.4600 C   0  0  0  0  0  3  0  0  0  0  0  0
  188.8340  177.5100  143.4290 C   0  0  0  0  0  0  0  0  0  0  0  0
  190.0010  176.6320  145.3270 N   0  0  0  0  0  0  0  0  0  0  0  0
  186.2900  179.5510  146.2840 O   0  0  0  0  0  1  0  0  0  0  0  0
  187.5880  178.1320  141.4860 N   0  0  0  0  0  0  0  0  0  0  0  0
  188.7650  177.7280  142.0310 C   0  0  0  0  0  0  0  0  0  0  0  0
  184.0630  178.6660  142.2730 C   0  0  0  0  0  0  0  0  0  0  0  0
  186.4970  178.1530  143.6250 C   0  0  0  0  0  0  0  0  0  0  0  0
  189.9360  176.8620  143.9960 C   0  0  0  0  0  3  0  0  0  0  0  0
  190.7270  176.9940  138.8740 C   0  0  0  0  0  0  0  0  0  0  0  0
  192.0430  177.1740  139.3060 C   0  0  0  0  0  3  0  0  0  0  0  0
  189.9120  177.5120  141.1090 C   0  0  0  0  0  0  0  0  0  0  0  0
  192.2990  177.5300  140.6310 C   0  0  0  0  0  3  0  0  0  0  0  0
  189.6670  177.1690  139.7700 C   0  0  0  0  0  3  0  0  0  0  0  0
  191.2400  177.7040  141.5260 C   0  0  0  0  0  3  0  0  0  0  0  0
  190.4690  176.6460  137.5550 O   0  0  0  0  0  1  0  0  0  0  0  0
  182.8510  178.9530  141.6420 O   0  0  0  0  0  0  0  0  0  0  0  0
  182.7140  178.9910  140.2260 C   0  0  0  0  0  2  0  0  0  0  0  0
  180.8370  177.3950  140.6290 F   0  0  0  0  0  0  0  0  0  0  0  0
  184.0310  176.8570  137.8620 O   0  0  0  0  0  0  0  0  0  0  0  0
  182.6610  176.5510  138.8030 P   0  0  2  0  0  0  0  0  0  0  0  0
  181.4440  177.8880  138.3800 C   0  0  0  0  0  2  0  0  0  0  0  0
  181.8110  177.8640  139.7690 C   0  0  2  0  0  0  0  0  0  0  0  0
  181.9660  175.2370  138.5330 O   0  0  0  0  0  1  0  0  0  0  0  0
  1  5  2  0  0  0  0
  2  6  1  0  0  0  0
  3  8  1  0  0  0  0
  4 18  1  0  0  0  0
  5 11  1  0  0  0  0
  6 11  2  0  0  0  0
  8  1  1  0  0  0  0
  8  2  2  0  0  0  0
  9  7  1  0  0  0  0
 10  4  2  0  0  0  0
 10 17  1  0  0  0  0
 12 19  1  0  0  0  0
 12  3  2  0  0  0  0
 13  1  1  0  0  0  0
 14  2  1  0  0  0  0
 15 16  2  0  0  0  0
 15  4  1  0  0  0  0
 16 12  1  0  0  0  0
 17  9  2  0  0  0  0
 18  3  1  0  0  0  0
 18  7  2  0  0  0  0
 19 13  2  0  0  0  0
 20 21  2  0  0  0  0
 20 24  1  0  0  0  0
 21 23  1  0  0  0  0
 22 25  1  0  0  0  0
 22 16  1  0  0  0  0
 23 25  2  0  0  0  0
 24 22  2  0  0  0  0
 26 20  1  0  0  0  0
 27 17  1  0  0  0  0
 28 27  1  0  0  0  0
 31 30  2  6  0  0  0
 31 33  1  0  0  0  0
 32 31  1  0  0  0  0
 32 33  1  0  0  0  0
 33 28  1  0  0  0  0
 33 29  1  1  0  0  0
 34 31  1  0  0  0  0
M  END
>  <MODEL>
9

>  <REMARK>
 VINA RESULT:      -9.8      2.815      6.061
  Name = 
  4 active torsions:
  status: ('A' for Active; 'I' for Inactive)
    1  A    between atoms: O_3  and  C_13
    2  A    between atoms: O_3  and  C_29
    3  A    between atoms: C_12  and  C_28
    4  A    between atoms: C_13  and  C_33
                            x       y       z     vdW  Elec       q    Type
                         _______ _______ _______ _____ _____    ______ ____

>  <TORSDO>
F 4

$$$$
