=
 OpenBabel11052416483D

 32 36  0  0  1  0  0  0  0  0999 V2000
  187.0230  177.8470  144.0580 C   0  0  0  0  0  0  0  0  0  0  0  0
  187.4020  178.1330  148.8900 C   0  0  0  0  0  2  0  0  0  0  0  0
  188.9180  178.0250  148.8330 C   0  0  0  0  0  2  0  0  0  0  0  0
  189.2370  177.6610  142.8270 C   0  0  1  0  0  3  0  0  0  0  0  0
  188.9710  176.6070  141.7430 C   0  0  0  0  0  2  0  0  0  0  0  0
  184.9120  178.2320  142.8520 C   0  0  0  0  0  0  0  0  0  0  0  0
  185.0910  178.6870  145.3900 C   0  0  0  0  0  2  0  0  0  0  0  0
  191.6610  176.7840  142.5370 C   0  0  0  0  0  2  0  0  0  0  0  0
  183.0070  178.5620  144.2500 O   0  0  0  0  0  0  0  0  0  0  0  0
  186.8960  178.8480  147.6450 C   0  0  0  0  0  2  0  0  0  0  0  0
  186.5160  178.1920  145.2600 C   0  0  0  0  0  0  0  0  0  0  0  0
  187.3660  178.1740  146.4320 N   0  0  0  0  0  0  0  0  0  0  0  0
  189.1090  176.9650  145.1460 C   0  0  2  0  0  3  0  0  0  0  0  0
  191.9430  177.3080  141.1200 C   0  0  0  0  0  2  0  0  0  0  0  0
  184.2600  178.4910  144.1550 C   0  0  0  0  0  0  0  0  0  0  0  0
  190.7350  177.9270  140.4120 C   0  0  0  0  0  2  0  0  0  0  0  0
  189.3200  177.2190  147.6060 C   0  0  0  0  0  2  0  0  0  0  0  0
  188.8120  177.8870  146.3260 C   0  0  2  0  0  3  0  0  0  0  0  0
  190.5840  177.0090  144.7690 C   0  0  0  0  0  2  0  0  0  0  0  0
  186.2070  177.9240  142.8310 C   0  0  0  0  0  3  0  0  0  0  0  0
  189.5090  177.0110  140.3650 C   0  0  0  0  0  2  0  0  0  0  0  0
  191.1950  179.0480  143.5250 C   0  0  0  0  0  1  0  0  0  0  0  0
  188.3840  177.4050  143.9720 N   0  0  0  0  0  0  0  0  0  0  0  0
  190.6790  177.6250  143.3760 C   0  0  2  0  0  0  0  0  0  0  0  0
  184.2270  178.2720  141.6300 O   0  0  0  0  0  0  0  0  0  0  0  0
  184.6820  178.9790  140.4810 C   0  0  0  0  0  2  0  0  0  0  0  0
  186.1930  178.1970  137.9090 C   0  0  0  0  0  0  0  0  0  0  0  0
  182.7790  178.2850  139.2470 O   0  0  0  0  0  0  0  0  0  0  0  0
  184.7710  178.1230  138.0680 N   0  0  0  0  0  2  0  0  0  0  0  0
  186.9430  178.5220  138.8670 O   0  0  0  0  0  0  0  0  0  0  0  0
  186.7950  177.8720  136.5900 C   0  0  0  0  0  1  0  0  0  0  0  0
  184.0260  178.4370  139.2510 C   0  0  0  0  0  0  0  0  0  0  0  0
  1 11  2  0  0  0  0
  3  2  1  0  0  0  0
  4  5  1  6  0  0  0
  4 24  1  0  0  0  0
  4 23  1  0  0  0  0
  6 15  1  0  0  0  0
  8 24  1  0  0  0  0
 10  2  1  0  0  0  0
 11  7  1  0  0  0  0
 11 12  1  0  0  0  0
 12 10  1  0  0  0  0
 13 19  1  6  0  0  0
 13 18  1  0  0  0  0
 14  8  1  0  0  0  0
 15  9  2  0  0  0  0
 15  7  1  0  0  0  0
 16 14  1  0  0  0  0
 17  3  1  0  0  0  0
 18 12  1  0  0  0  0
 18 17  1  1  0  0  0
 20  6  2  0  0  0  0
 20  1  1  0  0  0  0
 21 16  1  0  0  0  0
 21  5  1  0  0  0  0
 23  1  1  0  0  0  0
 23 13  1  0  0  0  0
 24 22  1  1  0  0  0
 24 19  1  0  0  0  0
 25  6  1  0  0  0  0
 26 25  1  0  0  0  0
 27 29  1  0  0  0  0
 27 30  2  0  0  0  0
 28 32  2  0  0  0  0
 29 32  1  0  0  0  0
 31 27  1  0  0  0  0
 32 26  1  0  0  0  0
M  END
>  <MODEL>
1

>  <REMARK>
 VINA RESULT:      -9.9      0.000      0.000
  Name = 
  3 active torsions:
  status: ('A' for Active; 'I' for Inactive)
    1  A    between atoms: C_8  and  O_23
    2  A    between atoms: C_19  and  O_23
    3  A    between atoms: C_19  and  C_24
                            x       y       z     vdW  Elec       q    Type
                         _______ _______ _______ _____ _____    ______ ____

>  <TORSDO>
F 3

$$$$
=
 OpenBabel11052416483D

 32 36  0  0  1  0  0  0  0  0999 V2000
  188.3600  178.0020  141.1820 C   0  0  0  0  0  0  0  0  0  0  0  0
  190.6020  176.8290  137.0390 C   0  0  0  0  0  2  0  0  0  0  0  0
  191.7920  176.2430  137.7840 C   0  0  0  0  0  2  0  0  0  0  0  0
  189.6140  177.3500  143.2910 C   0  0  1  0  0  3  0  0  0  0  0  0
  189.4410  178.5630  144.2160 C   0  0  0  0  0  2  0  0  0  0  0  0
  186.0360  178.8120  141.2680 C   0  0  0  0  0  0  0  0  0  0  0  0
  187.0540  177.9380  139.0600 C   0  0  0  0  0  2  0  0  0  0  0  0
  191.7640  177.0610  144.7140 C   0  0  0  0  0  2  0  0  0  0  0  0
  185.0220  179.1710  139.1380 O   0  0  0  0  0  0  0  0  0  0  0  0
  189.3370  176.6250  137.8600 C   0  0  0  0  0  2  0  0  0  0  0  0
  188.3270  177.7430  139.8580 C   0  0  0  0  0  0  0  0  0  0  0  0
  189.4940  177.1910  139.2030 N   0  0  0  0  0  0  0  0  0  0  0  0
  190.8480  177.6580  141.2270 C   0  0  2  0  0  3  0  0  0  0  0  0
  191.1200  176.6940  146.0600 C   0  0  0  0  0  2  0  0  0  0  0  0
  185.9770  178.6780  139.7950 C   0  0  0  0  0  0  0  0  0  0  0  0
  189.5940  176.8100  146.0950 C   0  0  0  0  0  2  0  0  0  0  0  0
  191.9520  176.9580  139.1170 C   0  0  0  0  0  2  0  0  0  0  0  0
  190.6930  176.8020  139.9730 C   0  0  2  0  0  3  0  0  0  0  0  0
  191.7950  177.0070  142.2260 C   0  0  0  0  0  2  0  0  0  0  0  0
  187.1670  178.4960  141.8970 C   0  0  0  0  0  3  0  0  0  0  0  0
  189.0670  178.1780  145.6520 C   0  0  0  0  0  2  0  0  0  0  0  0
  190.7600  175.1350  143.4510 C   0  0  0  0  0  1  0  0  0  0  0  0
  189.5760  177.7840  141.9080 N   0  0  0  0  0  0  0  0  0  0  0  0
  190.9740  176.6400  143.4600 C   0  0  2  0  0  0  0  0  0  0  0  0
  184.9640  179.2780  142.0410 O   0  0  0  0  0  0  0  0  0  0  0  0
  184.0770  178.4350  142.7670 C   0  0  0  0  0  2  0  0  0  0  0  0
  185.1070  178.5420  145.6720 C   0  0  0  0  0  0  0  0  0  0  0  0
  182.3760  179.8590  143.6080 O   0  0  0  0  0  0  0  0  0  0  0  0
  183.9180  179.1930  145.2090 N   0  0  0  0  0  2  0  0  0  0  0  0
  185.8700  177.9300  144.8780 O   0  0  0  0  0  0  0  0  0  0  0  0
  185.4530  178.5980  147.1160 C   0  0  0  0  0  1  0  0  0  0  0  0
  183.4190  179.2060  143.8660 C   0  0  0  0  0  0  0  0  0  0  0  0
  1 20  1  0  0  0  0
  1 23  1  0  0  0  0
  2  3  1  0  0  0  0
  2 10  1  0  0  0  0
  3 17  1  0  0  0  0
  4 24  1  0  0  0  0
  4  5  1  1  0  0  0
  5 21  1  0  0  0  0
  6 20  2  0  0  0  0
  6 25  1  0  0  0  0
  7 15  1  0  0  0  0
  7 11  1  0  0  0  0
  8 14  1  0  0  0  0
  9 15  2  0  0  0  0
 10 12  1  0  0  0  0
 11  1  2  0  0  0  0
 12 11  1  0  0  0  0
 12 18  1  0  0  0  0
 13 23  1  0  0  0  0
 13 19  1  1  0  0  0
 14 16  1  0  0  0  0
 15  6  1  0  0  0  0
 18 17  1  6  0  0  0
 18 13  1  0  0  0  0
 19 24  1  0  0  0  0
 21 16  1  0  0  0  0
 23  4  1  0  0  0  0
 24 22  1  1  0  0  0
 24  8  1  0  0  0  0
 25 26  1  0  0  0  0
 26 32  1  0  0  0  0
 27 31  1  0  0  0  0
 28 32  2  0  0  0  0
 29 27  1  0  0  0  0
 30 27  2  0  0  0  0
 32 29  1  0  0  0  0
M  END
>  <MODEL>
2

>  <REMARK>
 VINA RESULT:      -9.7      2.015      6.102
  Name = 
  3 active torsions:
  status: ('A' for Active; 'I' for Inactive)
    1  A    between atoms: C_8  and  O_23
    2  A    between atoms: C_19  and  O_23
    3  A    between atoms: C_19  and  C_24
                            x       y       z     vdW  Elec       q    Type
                         _______ _______ _______ _____ _____    ______ ____

>  <TORSDO>
F 3

$$$$
=
 OpenBabel11052416483D

 32 36  0  0  1  0  0  0  0  0999 V2000
  187.0220  177.8230  143.9870 C   0  0  0  0  0  0  0  0  0  0  0  0
  187.2610  178.1220  148.8260 C   0  0  0  0  0  2  0  0  0  0  0  0
  188.7790  178.0200  148.8130 C   0  0  0  0  0  2  0  0  0  0  0  0
  189.2700  177.6440  142.8200 C   0  0  1  0  0  3  0  0  0  0  0  0
  189.0400  176.5870  141.7310 C   0  0  0  0  0  2  0  0  0  0  0  0
  184.9440  178.1960  142.7200 C   0  0  0  0  0  0  0  0  0  0  0  0
  185.0480  178.6570  145.2610 C   0  0  0  0  0  2  0  0  0  0  0  0
  191.7050  176.7780  142.6010 C   0  0  0  0  0  2  0  0  0  0  0  0
  182.9980  178.5210  144.0630 O   0  0  0  0  0  0  0  0  0  0  0  0
  186.7880  178.8320  147.5660 C   0  0  0  0  0  2  0  0  0  0  0  0
  186.4790  178.1680  145.1730 C   0  0  0  0  0  0  0  0  0  0  0  0
  187.2950  178.1560  146.3690 N   0  0  0  0  0  0  0  0  0  0  0  0
  189.0800  176.9530  145.1360 C   0  0  2  0  0  3  0  0  0  0  0  0
  192.0250  177.2990  141.1910 C   0  0  0  0  0  2  0  0  0  0  0  0
  184.2540  178.4550  144.0040 C   0  0  0  0  0  0  0  0  0  0  0  0
  190.8360  177.9110  140.4470 C   0  0  0  0  0  2  0  0  0  0  0  0
  189.2190  177.2130  147.6000 C   0  0  0  0  0  2  0  0  0  0  0  0
  188.7450  177.8760  146.3050 C   0  0  2  0  0  3  0  0  0  0  0  0
  190.5640  177.0030  144.8000 C   0  0  0  0  0  2  0  0  0  0  0  0
  186.2400  177.8940  142.7360 C   0  0  0  0  0  3  0  0  0  0  0  0
  189.6150  176.9900  140.3680 C   0  0  0  0  0  2  0  0  0  0  0  0
  191.2010  179.0410  143.5690 C   0  0  0  0  0  1  0  0  0  0  0  0
  188.3860  177.3870  143.9410 N   0  0  0  0  0  0  0  0  0  0  0  0
  190.6960  177.6160  143.4090 C   0  0  2  0  0  0  0  0  0  0  0  0
  184.2940  178.2310  141.4790 O   0  0  0  0  0  0  0  0  0  0  0  0
  184.5140  179.2290  140.4890 C   0  0  0  0  0  2  0  0  0  0  0  0
  182.9900  178.2040  138.0110 C   0  0  0  0  0  0  0  0  0  0  0  0
  186.4210  178.5210  139.2680 O   0  0  0  0  0  0  0  0  0  0  0  0
  184.4110  178.1310  138.1760 N   0  0  0  0  0  2  0  0  0  0  0  0
  182.2610  178.7790  138.8610 O   0  0  0  0  0  0  0  0  0  0  0  0
  182.3650  177.5970  136.8080 C   0  0  0  0  0  1  0  0  0  0  0  0
  185.1690  178.6260  139.2870 C   0  0  0  0  0  0  0  0  0  0  0  0
  1 11  2  0  0  0  0
  3  2  1  0  0  0  0
  4  5  1  6  0  0  0
  4 24  1  0  0  0  0
  4 23  1  0  0  0  0
  6 20  2  0  0  0  0
  6 15  1  0  0  0  0
  8 24  1  0  0  0  0
 10  2  1  0  0  0  0
 11  7  1  0  0  0  0
 11 12  1  0  0  0  0
 12 10  1  0  0  0  0
 13 19  1  6  0  0  0
 13 18  1  0  0  0  0
 14  8  1  0  0  0  0
 15  9  2  0  0  0  0
 15  7  1  0  0  0  0
 16 14  1  0  0  0  0
 17  3  1  0  0  0  0
 18 12  1  0  0  0  0
 18 17  1  1  0  0  0
 20  1  1  0  0  0  0
 21 16  1  0  0  0  0
 21  5  1  0  0  0  0
 23  1  1  0  0  0  0
 23 13  1  0  0  0  0
 24 22  1  1  0  0  0
 24 19  1  0  0  0  0
 25  6  1  0  0  0  0
 26 25  1  0  0  0  0
 27 29  1  0  0  0  0
 27 30  2  0  0  0  0
 28 32  2  0  0  0  0
 29 32  1  0  0  0  0
 31 27  1  0  0  0  0
 32 26  1  0  0  0  0
M  END
>  <MODEL>
3

>  <REMARK>
 VINA RESULT:      -9.6      0.720      1.449
  Name = 
  3 active torsions:
  status: ('A' for Active; 'I' for Inactive)
    1  A    between atoms: C_8  and  O_23
    2  A    between atoms: C_19  and  O_23
    3  A    between atoms: C_19  and  C_24
                            x       y       z     vdW  Elec       q    Type
                         _______ _______ _______ _____ _____    ______ ____

>  <TORSDO>
F 3

$$$$
=
 OpenBabel11052416483D

 32 36  0  0  1  0  0  0  0  0999 V2000
  186.7550  178.1660  141.9770 C   0  0  0  0  0  0  0  0  0  0  0  0
  184.2970  178.6280  146.1380 C   0  0  0  0  0  2  0  0  0  0  0  0
  185.5520  178.4020  146.9680 C   0  0  0  0  0  2  0  0  0  0  0  0
  189.2470  177.7590  142.2530 C   0  0  1  0  0  3  0  0  0  0  0  0
  189.5650  176.6830  141.2050 C   0  0  0  0  0  2  0  0  0  0  0  0
  185.7710  178.6600  139.7750 C   0  0  0  0  0  0  0  0  0  0  0  0
  184.4910  179.2070  141.9520 C   0  0  0  0  0  2  0  0  0  0  0  0
  191.3060  176.6880  143.4120 C   0  0  0  0  0  2  0  0  0  0  0  0
  183.4460  179.1940  139.8150 O   0  0  0  0  0  0  0  0  0  0  0  0
  184.6670  179.3260  144.8370 C   0  0  0  0  0  2  0  0  0  0  0  0
  185.6800  178.6000  142.6670 C   0  0  0  0  0  0  0  0  0  0  0  0
  185.6910  178.5660  144.1150 N   0  0  0  0  0  0  0  0  0  0  0  0
  187.7440  177.1740  144.0640 C   0  0  2  0  0  3  0  0  0  0  0  0
  192.3990  177.1280  142.4240 C   0  0  0  0  0  2  0  0  0  0  0  0
  184.5120  179.0230  140.4630 C   0  0  0  0  0  0  0  0  0  0  0  0
  191.8810  177.8070  141.1540 C   0  0  0  0  0  2  0  0  0  0  0  0
  186.5160  177.5160  146.1940 C   0  0  0  0  0  2  0  0  0  0  0  0
  186.9010  178.1660  144.8620 C   0  0  2  0  0  3  0  0  0  0  0  0
  189.1620  177.0900  144.6100 C   0  0  0  0  0  2  0  0  0  0  0  0
  186.8080  178.2530  140.5040 C   0  0  0  0  0  3  0  0  0  0  0  0
  190.8330  176.9860  140.3970 C   0  0  0  0  0  2  0  0  0  0  0  0
  190.5540  179.0210  143.9690 C   0  0  0  0  0  1  0  0  0  0  0  0
  187.8710  177.6180  142.6910 N   0  0  0  0  0  0  0  0  0  0  0  0
  190.0980  177.6360  143.5350 C   0  0  2  0  0  0  0  0  0  0  0  0
  185.9240  178.7000  138.3830 O   0  0  0  0  0  0  0  0  0  0  0  0
  186.6060  177.7070  137.6240 C   0  0  0  0  0  2  0  0  0  0  0  0
  189.0000  175.7920  137.2930 C   0  0  0  0  0  0  0  0  0  0  0  0
  188.2390  179.3790  137.2180 O   0  0  0  0  0  0  0  0  0  0  0  0
  189.0900  177.2200  137.2270 N   0  0  0  0  0  2  0  0  0  0  0  0
  187.8900  175.2100  137.4170 O   0  0  0  0  0  0  0  0  0  0  0  0
  190.2410  174.9800  137.2030 C   0  0  0  0  0  1  0  0  0  0  0  0
  188.0040  178.1500  137.3360 C   0  0  0  0  0  0  0  0  0  0  0  0
  1 11  2  0  0  0  0
  1 23  1  0  0  0  0
  2  3  1  0  0  0  0
  4  5  1  6  0  0  0
  4 23  1  0  0  0  0
  4 24  1  0  0  0  0
  6 15  1  0  0  0  0
  6 20  2  0  0  0  0
  7 11  1  0  0  0  0
  8 24  1  0  0  0  0
  9 15  2  0  0  0  0
 10  2  1  0  0  0  0
 11 12  1  0  0  0  0
 12 10  1  0  0  0  0
 12 18  1  0  0  0  0
 13 19  1  1  0  0  0
 13 18  1  0  0  0  0
 14  8  1  0  0  0  0
 15  7  1  0  0  0  0
 16 14  1  0  0  0  0
 17  3  1  0  0  0  0
 18 17  1  1  0  0  0
 20  1  1  0  0  0  0
 21 16  1  0  0  0  0
 21  5  1  0  0  0  0
 23 13  1  0  0  0  0
 24 22  1  1  0  0  0
 24 19  1  0  0  0  0
 25  6  1  0  0  0  0
 26 25  1  0  0  0  0
 27 30  2  0  0  0  0
 28 32  2  0  0  0  0
 29 27  1  0  0  0  0
 29 32  1  0  0  0  0
 31 27  1  0  0  0  0
 32 26  1  0  0  0  0
M  END
>  <MODEL>
4

>  <REMARK>
 VINA RESULT:      -9.4      1.847      3.117
  Name = 
  3 active torsions:
  status: ('A' for Active; 'I' for Inactive)
    1  A    between atoms: C_8  and  O_23
    2  A    between atoms: C_19  and  O_23
    3  A    between atoms: C_19  and  C_24
                            x       y       z     vdW  Elec       q    Type
                         _______ _______ _______ _____ _____    ______ ____

>  <TORSDO>
F 3

$$$$
=
 OpenBabel11052416483D

 32 36  0  0  1  0  0  0  0  0999 V2000
  187.3140  178.0050  141.8650 C   0  0  0  0  0  0  0  0  0  0  0  0
  184.1070  178.6880  138.2850 C   0  0  0  0  0  2  0  0  0  0  0  0
  182.9970  179.0240  139.2690 C   0  0  0  0  0  2  0  0  0  0  0  0
  186.3990  178.3990  144.2020 C   0  0  1  0  0  3  0  0  0  0  0  0
  186.9890  177.2480  145.0290 C   0  0  0  0  0  2  0  0  0  0  0  0
  189.7210  177.6800  141.4670 C   0  0  0  0  0  0  0  0  0  0  0  0
  188.1330  178.3240  139.5330 C   0  0  0  0  0  2  0  0  0  0  0  0
  184.5610  178.2530  146.0260 C   0  0  0  0  0  2  0  0  0  0  0  0
  190.3430  177.5250  139.1680 O   0  0  0  0  0  0  0  0  0  0  0  0
  185.4440  179.1450  138.8510 C   0  0  0  0  0  2  0  0  0  0  0  0
  187.0320  178.2600  140.5710 C   0  0  0  0  0  0  0  0  0  0  0  0
  185.6720  178.5640  140.1770 N   0  0  0  0  0  0  0  0  0  0  0  0
  184.8660  177.8410  142.4080 C   0  0  2  0  0  3  0  0  0  0  0  0
  185.3740  178.7480  147.2330 C   0  0  0  0  0  2  0  0  0  0  0  0
  189.4600  177.8180  140.0170 C   0  0  0  0  0  0  0  0  0  0  0  0
  186.8680  178.9410  146.9650 C   0  0  0  0  0  2  0  0  0  0  0  0
  183.2490  178.2970  140.5820 C   0  0  0  0  0  2  0  0  0  0  0  0
  184.5970  178.7070  141.1800 C   0  0  2  0  0  3  0  0  0  0  0  0
  184.0270  178.2910  143.5960 C   0  0  0  0  0  2  0  0  0  0  0  0
  188.6990  177.7640  142.3150 C   0  0  0  0  0  3  0  0  0  0  0  0
  187.5570  177.7060  146.3790 C   0  0  0  0  0  2  0  0  0  0  0  0
  184.8930  180.3380  144.6620 C   0  0  0  0  0  1  0  0  0  0  0  0
  186.2470  177.9760  142.8230 N   0  0  0  0  0  0  0  0  0  0  0  0
  184.9860  178.8200  144.6580 C   0  0  2  0  0  0  0  0  0  0  0  0
  190.9970  177.4430  141.9980 O   0  0  0  0  0  0  0  0  0  0  0  0
  191.2370  176.7930  143.2410 C   0  0  0  0  0  2  0  0  0  0  0  0
  191.9580  176.0970  146.1570 C   0  0  0  0  0  0  0  0  0  0  0  0
  191.3860  179.0260  144.0250 O   0  0  0  0  0  0  0  0  0  0  0  0
  191.7750  177.4300  145.6630 N   0  0  0  0  0  2  0  0  0  0  0  0
  191.9090  175.1010  145.3890 O   0  0  0  0  0  0  0  0  0  0  0  0
  192.2200  175.8880  147.6050 C   0  0  0  0  0  1  0  0  0  0  0  0
  191.4790  177.8060  144.3130 C   0  0  0  0  0  0  0  0  0  0  0  0
  1 20  1  0  0  0  0
  1 23  1  0  0  0  0
  2 10  1  0  0  0  0
  2  3  1  0  0  0  0
  3 17  1  0  0  0  0
  4 24  1  0  0  0  0
  4  5  1  1  0  0  0
  5 21  1  0  0  0  0
  6 25  1  0  0  0  0
  6 20  2  0  0  0  0
  7 15  1  0  0  0  0
  7 11  1  0  0  0  0
  8 14  1  0  0  0  0
  9 15  2  0  0  0  0
 10 12  1  0  0  0  0
 11  1  2  0  0  0  0
 12 11  1  0  0  0  0
 12 18  1  0  0  0  0
 13 23  1  0  0  0  0
 13 19  1  1  0  0  0
 15  6  1  0  0  0  0
 16 14  1  0  0  0  0
 18 17  1  6  0  0  0
 18 13  1  0  0  0  0
 19 24  1  0  0  0  0
 21 16  1  0  0  0  0
 23  4  1  0  0  0  0
 24 22  1  1  0  0  0
 24  8  1  0  0  0  0
 25 26  1  0  0  0  0
 26 32  1  0  0  0  0
 27 31  1  0  0  0  0
 28 32  2  0  0  0  0
 29 27  1  0  0  0  0
 30 27  2  0  0  0  0
 32 29  1  0  0  0  0
M  END
>  <MODEL>
5

>  <REMARK>
 VINA RESULT:      -9.0      2.894      7.685
  Name = 
  3 active torsions:
  status: ('A' for Active; 'I' for Inactive)
    1  A    between atoms: C_8  and  O_23
    2  A    between atoms: C_19  and  O_23
    3  A    between atoms: C_19  and  C_24
                            x       y       z     vdW  Elec       q    Type
                         _______ _______ _______ _____ _____    ______ ____

>  <TORSDO>
F 3

$$$$
=
 OpenBabel11052416483D

 32 36  0  0  1  0  0  0  0  0999 V2000
  188.5090  177.9820  141.1290 C   0  0  0  0  0  0  0  0  0  0  0  0
  191.0160  176.7530  137.1580 C   0  0  0  0  0  2  0  0  0  0  0  0
  192.1570  176.1840  137.9880 C   0  0  0  0  0  2  0  0  0  0  0  0
  189.6260  177.3680  143.3250 C   0  0  1  0  0  3  0  0  0  0  0  0
  189.3910  178.5950  144.2170 C   0  0  0  0  0  2  0  0  0  0  0  0
  186.1820  178.7840  141.0530 C   0  0  0  0  0  0  0  0  0  0  0  0
  187.3430  177.8800  138.9290 C   0  0  0  0  0  2  0  0  0  0  0  0
  191.6810  177.1100  144.8880 C   0  0  0  0  0  2  0  0  0  0  0  0
  185.3070  179.1070  138.8570 O   0  0  0  0  0  0  0  0  0  0  0  0
  189.7020  176.5570  137.9000 C   0  0  0  0  0  2  0  0  0  0  0  0
  188.5620  177.7030  139.8100 C   0  0  0  0  0  0  0  0  0  0  0  0
  189.7700  177.1450  139.2400 N   0  0  0  0  0  0  0  0  0  0  0  0
  190.9900  177.6480  141.3410 C   0  0  2  0  0  3  0  0  0  0  0  0
  190.9520  176.7610  146.1950 C   0  0  0  0  0  2  0  0  0  0  0  0
  186.2180  178.6280  139.5820 C   0  0  0  0  0  0  0  0  0  0  0  0
  189.4270  176.8720  146.1300 C   0  0  0  0  0  2  0  0  0  0  0  0
  192.2300  176.9200  139.3180 C   0  0  0  0  0  2  0  0  0  0  0  0
  190.9180  176.7720  140.0930 C   0  0  2  0  0  3  0  0  0  0  0  0
  191.8720  177.0170  142.4090 C   0  0  0  0  0  2  0  0  0  0  0  0
  187.2700  178.4830  141.7580 C   0  0  0  0  0  3  0  0  0  0  0  0
  188.9260  178.2310  145.6330 C   0  0  0  0  0  2  0  0  0  0  0  0
  190.7650  175.1600  143.5930 C   0  0  0  0  0  1  0  0  0  0  0  0
  189.6760  177.7800  141.9360 N   0  0  0  0  0  0  0  0  0  0  0  0
  190.9750  176.6670  143.5920 C   0  0  2  0  0  0  0  0  0  0  0  0
  185.0610  179.2580  141.7470 O   0  0  0  0  0  0  0  0  0  0  0  0
  183.9550  178.4470  142.1280 C   0  0  0  0  0  2  0  0  0  0  0  0
  181.1200  178.7560  143.3010 C   0  0  0  0  0  0  0  0  0  0  0  0
  184.6190  178.6600  144.3950 O   0  0  0  0  0  0  0  0  0  0  0  0
  182.3260  178.8040  144.0730 N   0  0  0  0  0  2  0  0  0  0  0  0
  181.1410  178.4990  142.0690 O   0  0  0  0  0  0  0  0  0  0  0  0
  179.8170  179.0040  143.9710 C   0  0  0  0  0  1  0  0  0  0  0  0
  183.6610  178.6280  143.5830 C   0  0  0  0  0  0  0  0  0  0  0  0
  1 20  1  0  0  0  0
  1 23  1  0  0  0  0
  2 10  1  0  0  0  0
  2  3  1  0  0  0  0
  3 17  1  0  0  0  0
  4 24  1  0  0  0  0
  4  5  1  1  0  0  0
  5 21  1  0  0  0  0
  6 25  1  0  0  0  0
  6 20  2  0  0  0  0
  7 15  1  0  0  0  0
  7 11  1  0  0  0  0
  8 14  1  0  0  0  0
  9 15  2  0  0  0  0
 10 12  1  0  0  0  0
 11  1  2  0  0  0  0
 12 11  1  0  0  0  0
 12 18  1  0  0  0  0
 13 23  1  0  0  0  0
 13 19  1  1  0  0  0
 15  6  1  0  0  0  0
 16 14  1  0  0  0  0
 18 17  1  6  0  0  0
 18 13  1  0  0  0  0
 19 24  1  0  0  0  0
 21 16  1  0  0  0  0
 23  4  1  0  0  0  0
 24 22  1  1  0  0  0
 24  8  1  0  0  0  0
 25 26  1  0  0  0  0
 26 32  1  0  0  0  0
 27 31  1  0  0  0  0
 27 29  1  0  0  0  0
 30 27  2  0  0  0  0
 32 29  1  0  0  0  0
 32 28  2  0  0  0  0
M  END
>  <MODEL>
6

>  <REMARK>
 VINA RESULT:      -9.0      2.335      6.095
  Name = 
  3 active torsions:
  status: ('A' for Active; 'I' for Inactive)
    1  A    between atoms: C_8  and  O_23
    2  A    between atoms: C_19  and  O_23
    3  A    between atoms: C_19  and  C_24
                            x       y       z     vdW  Elec       q    Type
                         _______ _______ _______ _____ _____    ______ ____

>  <TORSDO>
F 3

$$$$
=
 OpenBabel11052416483D

 32 36  0  0  1  0  0  0  0  0999 V2000
  187.8520  177.6990  142.4430 C   0  0  0  0  0  0  0  0  0  0  0  0
  183.3160  179.0030  143.5810 C   0  0  0  0  0  2  0  0  0  0  0  0
  183.6070  178.9170  145.0720 C   0  0  0  0  0  2  0  0  0  0  0  0
  189.3770  177.3050  144.4350 C   0  0  1  0  0  3  0  0  0  0  0  0
  190.1620  176.0410  144.0570 C   0  0  0  0  0  2  0  0  0  0  0  0
  188.7350  177.7780  140.1460 C   0  0  0  0  0  0  0  0  0  0  0  0
  186.4120  178.7600  140.7070 C   0  0  0  0  0  2  0  0  0  0  0  0
  189.8900  176.4370  146.8260 C   0  0  0  0  0  2  0  0  0  0  0  0
  187.1310  178.3550  138.4770 O   0  0  0  0  0  0  0  0  0  0  0  0
  184.5760  179.4300  142.8420 C   0  0  0  0  0  2  0  0  0  0  0  0
  186.6780  178.2790  142.1190 C   0  0  0  0  0  0  0  0  0  0  0  0
  185.6880  178.5250  143.1470 N   0  0  0  0  0  0  0  0  0  0  0  0
  186.9780  177.1100  144.7240 C   0  0  2  0  0  3  0  0  0  0  0  0
  191.4110  176.6570  146.8450 C   0  0  0  0  0  2  0  0  0  0  0  0
  187.4210  178.2910  139.7010 C   0  0  0  0  0  0  0  0  0  0  0  0
  192.0150  177.0880  145.5060 C   0  0  0  0  0  2  0  0  0  0  0  0
  184.6930  177.8800  145.3150 C   0  0  0  0  0  2  0  0  0  0  0  0
  185.9770  178.2530  144.5700 C   0  0  2  0  0  3  0  0  0  0  0  0
  187.6010  177.1040  146.1120 C   0  0  0  0  0  2  0  0  0  0  0  0
  188.9130  177.4990  141.4360 C   0  0  0  0  0  3  0  0  0  0  0  0
  191.6650  176.1570  144.3410 C   0  0  0  0  0  2  0  0  0  0  0  0
  189.3200  178.8480  146.4000 C   0  0  0  0  0  1  0  0  0  0  0  0
  188.0760  177.2770  143.7950 N   0  0  0  0  0  0  0  0  0  0  0  0
  189.0860  177.4150  145.9470 C   0  0  2  0  0  0  0  0  0  0  0  0
  189.8050  177.5460  139.2710 O   0  0  0  0  0  0  0  0  0  0  0  0
  190.7610  176.5040  139.4360 C   0  0  0  0  0  2  0  0  0  0  0  0
  193.1660  176.1350  137.5410 C   0  0  0  0  0  0  0  0  0  0  0  0
  189.7170  174.9600  137.9670 O   0  0  0  0  0  0  0  0  0  0  0  0
  191.8920  175.5020  137.3670 N   0  0  0  0  0  2  0  0  0  0  0  0
  193.4130  176.8410  138.5540 O   0  0  0  0  0  0  0  0  0  0  0  0
  194.2200  175.9440  136.5120 C   0  0  0  0  0  1  0  0  0  0  0  0
  190.7590  175.6110  138.2370 C   0  0  0  0  0  0  0  0  0  0  0  0
  1 23  1  0  0  0  0
  2  3  1  0  0  0  0
  3 17  1  0  0  0  0
  4  5  1  1  0  0  0
  4 24  1  0  0  0  0
  5 21  1  0  0  0  0
  6 20  2  0  0  0  0
  7 11  1  0  0  0  0
  8 14  1  0  0  0  0
  9 15  2  0  0  0  0
 10 12  1  0  0  0  0
 10  2  1  0  0  0  0
 11  1  2  0  0  0  0
 11 12  1  0  0  0  0
 12 18  1  0  0  0  0
 13 19  1  1  0  0  0
 15  6  1  0  0  0  0
 15  7  1  0  0  0  0
 16 14  1  0  0  0  0
 18 13  1  0  0  0  0
 18 17  1  1  0  0  0
 20  1  1  0  0  0  0
 21 16  1  0  0  0  0
 23  4  1  0  0  0  0
 23 13  1  0  0  0  0
 24 19  1  0  0  0  0
 24 22  1  1  0  0  0
 24  8  1  0  0  0  0
 25 26  1  0  0  0  0
 25  6  1  0  0  0  0
 27 30  2  0  0  0  0
 28 32  2  0  0  0  0
 29 27  1  0  0  0  0
 29 32  1  0  0  0  0
 31 27  1  0  0  0  0
 32 26  1  0  0  0  0
M  END
>  <MODEL>
7

>  <REMARK>
 VINA RESULT:      -8.7      2.710      5.246
  Name = 
  3 active torsions:
  status: ('A' for Active; 'I' for Inactive)
    1  A    between atoms: C_8  and  O_23
    2  A    between atoms: C_19  and  O_23
    3  A    between atoms: C_19  and  C_24
                            x       y       z     vdW  Elec       q    Type
                         _______ _______ _______ _____ _____    ______ ____

>  <TORSDO>
F 3

$$$$
=
 OpenBabel11052416483D

 32 36  0  0  1  0  0  0  0  0999 V2000
  187.1750  177.8200  144.0840 C   0  0  0  0  0  0  0  0  0  0  0  0
  187.5670  178.1250  148.9130 C   0  0  0  0  0  2  0  0  0  0  0  0
  189.0830  178.0140  148.8530 C   0  0  0  0  0  2  0  0  0  0  0  0
  189.3850  177.6260  142.8480 C   0  0  1  0  0  3  0  0  0  0  0  0
  189.1150  176.5680  141.7690 C   0  0  0  0  0  2  0  0  0  0  0  0
  185.0620  178.2030  142.8810 C   0  0  0  0  0  0  0  0  0  0  0  0
  185.2470  178.6680  145.4170 C   0  0  0  0  0  2  0  0  0  0  0  0
  191.8070  176.7440  142.5550 C   0  0  0  0  0  2  0  0  0  0  0  0
  183.1600  178.5420  144.2830 O   0  0  0  0  0  0  0  0  0  0  0  0
  187.0580  178.8360  147.6670 C   0  0  0  0  0  2  0  0  0  0  0  0
  186.6720  178.1700  145.2860 C   0  0  0  0  0  0  0  0  0  0  0  0
  187.5250  178.1550  146.4560 N   0  0  0  0  0  0  0  0  0  0  0  0
  189.2630  176.9390  145.1700 C   0  0  2  0  0  3  0  0  0  0  0  0
  192.0860  177.2610  141.1350 C   0  0  0  0  0  2  0  0  0  0  0  0
  184.4140  178.4690  144.1850 C   0  0  0  0  0  0  0  0  0  0  0  0
  190.8780  177.8790  140.4270 C   0  0  0  0  0  2  0  0  0  0  0  0
  189.4800  177.2020  147.6290 C   0  0  0  0  0  2  0  0  0  0  0  0
  188.9700  177.8660  146.3470 C   0  0  2  0  0  3  0  0  0  0  0  0
  190.7360  176.9800  144.7890 C   0  0  0  0  0  2  0  0  0  0  0  0
  186.3560  177.8930  142.8580 C   0  0  0  0  0  3  0  0  0  0  0  0
  189.6500  176.9650  140.3870 C   0  0  0  0  0  2  0  0  0  0  0  0
  191.3470  179.0120  143.5350 C   0  0  0  0  0  1  0  0  0  0  0  0
  188.5350  177.3750  143.9960 N   0  0  0  0  0  0  0  0  0  0  0  0
  190.8290  177.5890  143.3930 C   0  0  2  0  0  0  0  0  0  0  0  0
  184.3730  178.2400  141.6610 O   0  0  0  0  0  0  0  0  0  0  0  0
  183.2270  179.0460  141.4140 C   0  0  0  0  0  2  0  0  0  0  0  0
  180.3550  179.2340  142.5210 C   0  0  0  0  0  0  0  0  0  0  0  0
  182.2980  177.3400  140.0520 O   0  0  0  0  0  0  0  0  0  0  0  0
  180.7800  178.2960  141.5240 N   0  0  0  0  0  2  0  0  0  0  0  0
  181.1350  180.1180  142.9630 O   0  0  0  0  0  0  0  0  0  0  0  0
  178.9620  179.1680  143.0350 C   0  0  0  0  0  1  0  0  0  0  0  0
  182.0890  178.1950  140.9510 C   0  0  0  0  0  0  0  0  0  0  0  0
  1 11  2  0  0  0  0
  3  2  1  0  0  0  0
  4  5  1  6  0  0  0
  4 24  1  0  0  0  0
  4 23  1  0  0  0  0
  6 15  1  0  0  0  0
  8 24  1  0  0  0  0
 10  2  1  0  0  0  0
 11  7  1  0  0  0  0
 11 12  1  0  0  0  0
 12 10  1  0  0  0  0
 13 19  1  6  0  0  0
 13 18  1  0  0  0  0
 14  8  1  0  0  0  0
 15  9  2  0  0  0  0
 15  7  1  0  0  0  0
 16 14  1  0  0  0  0
 17  3  1  0  0  0  0
 18 12  1  0  0  0  0
 18 17  1  1  0  0  0
 20  6  2  0  0  0  0
 20  1  1  0  0  0  0
 21 16  1  0  0  0  0
 21  5  1  0  0  0  0
 23  1  1  0  0  0  0
 23 13  1  0  0  0  0
 24 22  1  1  0  0  0
 24 19  1  0  0  0  0
 25  6  1  0  0  0  0
 26 25  1  0  0  0  0
 27 30  2  0  0  0  0
 27 31  1  0  0  0  0
 28 32  2  0  0  0  0
 29 27  1  0  0  0  0
 32 26  1  0  0  0  0
 32 29  1  0  0  0  0
M  END
>  <MODEL>
8

>  <REMARK>
 VINA RESULT:      -8.6      1.736      2.817
  Name = 
  3 active torsions:
  status: ('A' for Active; 'I' for Inactive)
    1  A    between atoms: C_8  and  O_23
    2  A    between atoms: C_19  and  O_23
    3  A    between atoms: C_19  and  C_24
                            x       y       z     vdW  Elec       q    Type
                         _______ _______ _______ _____ _____    ______ ____

>  <TORSDO>
F 3

$$$$
=
 OpenBabel11052416483D

 32 36  0  0  1  0  0  0  0  0999 V2000
  185.3130  178.5810  140.8950 C   0  0  0  0  0  0  0  0  0  0  0  0
  188.1490  178.3870  136.9600 C   0  0  0  0  0  2  0  0  0  0  0  0
  189.3690  178.0150  137.7890 C   0  0  0  0  0  2  0  0  0  0  0  0
  186.4820  178.0180  143.0780 C   0  0  1  0  0  3  0  0  0  0  0  0
  185.9390  179.0580  144.0680 C   0  0  0  0  0  2  0  0  0  0  0  0
  182.8660  178.8250  140.7760 C   0  0  0  0  0  0  0  0  0  0  0  0
  184.2660  178.4400  138.6380 C   0  0  0  0  0  2  0  0  0  0  0  0
  188.4960  178.0840  144.7120 C   0  0  0  0  0  2  0  0  0  0  0  0
  182.0000  179.1610  138.5780 O   0  0  0  0  0  0  0  0  0  0  0  0
  186.8970  177.8160  137.6110 C   0  0  0  0  0  2  0  0  0  0  0  0
  185.4670  178.4600  139.5600 C   0  0  0  0  0  0  0  0  0  0  0  0
  186.7880  178.2600  139.0030 N   0  0  0  0  0  0  0  0  0  0  0  0
  187.7960  178.8130  141.2010 C   0  0  2  0  0  3  0  0  0  0  0  0
  187.8340  177.4420  145.9420 C   0  0  0  0  0  2  0  0  0  0  0  0
  182.9780  178.8340  139.3000 C   0  0  0  0  0  0  0  0  0  0  0  0
  186.3280  177.2010  145.8090 C   0  0  0  0  0  2  0  0  0  0  0  0
  189.2280  178.6060  139.1840 C   0  0  0  0  0  2  0  0  0  0  0  0
  187.9680  178.0780  139.8740 C   0  0  2  0  0  3  0  0  0  0  0  0
  188.7720  178.2960  142.2490 C   0  0  0  0  0  2  0  0  0  0  0  0
  183.9740  178.7130  141.5040 C   0  0  0  0  0  3  0  0  0  0  0  0
  185.5340  178.4510  145.4180 C   0  0  0  0  0  2  0  0  0  0  0  0
  188.1030  176.1200  143.1940 C   0  0  0  0  0  1  0  0  0  0  0  0
  186.4720  178.5730  141.7380 N   0  0  0  0  0  0  0  0  0  0  0  0
  187.9510  177.6260  143.3460 C   0  0  2  0  0  0  0  0  0  0  0  0
  181.6450  178.9500  141.4530 O   0  0  0  0  0  0  0  0  0  0  0  0
  180.3780  178.6570  140.8770 C   0  0  0  0  0  2  0  0  0  0  0  0
  179.8180  175.6680  140.3640 C   0  0  0  0  0  0  0  0  0  0  0  0
  179.1100  178.2750  142.8450 O   0  0  0  0  0  0  0  0  0  0  0  0
  179.3240  176.4030  141.4900 N   0  0  0  0  0  2  0  0  0  0  0  0
  180.6000  176.1950  139.5290 O   0  0  0  0  0  0  0  0  0  0  0  0
  179.4080  174.2510  140.1840 C   0  0  0  0  0  1  0  0  0  0  0  0
  179.5870  177.7790  141.7930 C   0  0  0  0  0  0  0  0  0  0  0  0
  1 20  1  0  0  0  0
  1 23  1  0  0  0  0
  2 10  1  0  0  0  0
  2  3  1  0  0  0  0
  3 17  1  0  0  0  0
  4 24  1  0  0  0  0
  4  5  1  1  0  0  0
  5 21  1  0  0  0  0
  6 25  1  0  0  0  0
  6 20  2  0  0  0  0
  7 15  1  0  0  0  0
  7 11  1  0  0  0  0
  8 14  1  0  0  0  0
  9 15  2  0  0  0  0
 10 12  1  0  0  0  0
 11  1  2  0  0  0  0
 12 11  1  0  0  0  0
 12 18  1  0  0  0  0
 13 23  1  0  0  0  0
 13 19  1  1  0  0  0
 15  6  1  0  0  0  0
 16 14  1  0  0  0  0
 18 17  1  6  0  0  0
 18 13  1  0  0  0  0
 19 24  1  0  0  0  0
 21 16  1  0  0  0  0
 23  4  1  0  0  0  0
 24 22  1  6  0  0  0
 24  8  1  0  0  0  0
 26 25  1  0  0  0  0
 26 32  1  0  0  0  0
 27 29  1  0  0  0  0
 29 32  1  0  0  0  0
 30 27  2  0  0  0  0
 31 27  1  0  0  0  0
 32 28  2  0  0  0  0
M  END
>  <MODEL>
9

>  <REMARK>
 VINA RESULT:      -8.6      2.792      6.261
  Name = 
  3 active torsions:
  status: ('A' for Active; 'I' for Inactive)
    1  A    between atoms: C_8  and  O_23
    2  A    between atoms: C_19  and  O_23
    3  A    between atoms: C_19  and  C_24
                            x       y       z     vdW  Elec       q    Type
                         _______ _______ _______ _____ _____    ______ ____

>  <TORSDO>
F 3

$$$$
