=
 OpenBabel11052416473D

 32 37  0  0  1  0  0  0  0  0999 V2000
  183.0640  178.7790  144.7110 C   0  0  0  0  0  3  0  0  0  0  0  0
  187.2240  178.6010  141.7130 C   0  0  2  0  0  3  0  0  0  0  0  0
  190.8220  176.8890  144.8070 C   0  0  0  0  0  2  0  0  0  0  0  0
  191.5210  176.1950  143.6470 C   0  0  0  0  0  2  0  0  0  0  0  0
  187.7000  177.7690  139.2620 C   0  0  0  0  0  0  0  0  0  0  0  0
  186.6250  178.0850  138.4200 C   0  0  0  0  0  0  0  0  0  0  0  0
  184.8350  178.6240  142.5460 C   0  0  0  0  0  0  0  0  0  0  0  0
  186.7770  178.3180  144.1440 C   0  0  0  0  0  2  0  0  0  0  0  0
  188.4920  176.1590  137.6590 C   0  0  0  0  0  0  0  0  0  0  0  0
  184.4250  178.5650  144.9390 C   0  0  0  0  0  3  0  0  0  0  0  0
  189.3260  176.9600  144.5300 C   0  0  0  0  0  2  0  0  0  0  0  0
  187.5500  177.7490  142.9460 C   0  0  2  0  0  3  0  0  0  0  0  0
  189.0460  177.7480  143.2420 C   0  0  2  0  0  3  0  0  0  0  0  0
  189.5880  177.8280  140.7540 C   0  0  1  0  0  3  0  0  0  0  0  0
  187.3960  176.4050  136.8870 N   0  0  0  0  0  0  0  0  0  0  0  0
  185.3130  178.4700  143.8630 C   0  0  0  0  0  0  0  0  0  0  0  0
  186.4760  177.3550  137.2310 C   0  0  0  0  0  3  0  0  0  0  0  0
  183.4700  178.8270  142.3250 C   0  0  0  0  0  3  0  0  0  0  0  0
  182.5840  178.9120  143.4040 C   0  0  0  0  0  0  0  0  0  0  0  0
  191.2710  176.9700  142.3590 C   0  0  0  0  0  2  0  0  0  0  0  0
  189.7710  177.0810  142.0730 C   0  0  1  0  0  3  0  0  0  0  0  0
  189.7990  176.8760  139.6660 N   0  0  0  0  0  2  0  0  0  0  0  0
  185.7400  178.4650  141.3610 C   0  0  0  0  0  2  0  0  0  0  0  0
  185.7820  179.1110  138.6870 F   0  0  0  0  0  0  0  0  0  0  0  0
  189.5110  175.1700  137.2120 C   0  0  0  0  0  1  0  0  0  0  0  0
  188.1880  178.4740  140.4960 C   0  0  2  0  0  3  0  0  0  0  0  0
  188.6470  176.8710  138.8490 C   0  0  0  0  0  0  0  0  0  0  0  0
  181.1260  179.1140  143.1590 C   0  0  0  0  0  2  0  0  0  0  0  0
  180.8040  179.0500  141.6710 C   0  0  0  0  0  2  0  0  0  0  0  0
  180.1220  177.7670  141.3150 C   0  0  0  0  0  0  0  0  0  0  0  0
  179.3000  177.2770  142.0720 O   0  0  0  0  0  0  0  0  0  0  0  0
  180.4630  177.0740  140.0420 C   0  0  0  0  0  1  0  0  0  0  0  0
  1 10  1  0  0  0  0
  2 23  1  6  0  0  0
  2 12  1  0  0  0  0
  4  3  1  0  0  0  0
  6 24  1  0  0  0  0
  6  5  2  0  0  0  0
  7 16  1  0  0  0  0
  9 27  2  0  0  0  0
 11  3  1  0  0  0  0
 12 13  1  0  0  0  0
 12  8  1  1  0  0  0
 13 11  1  1  0  0  0
 14 22  1  6  0  0  0
 14 21  1  0  0  0  0
 15 17  2  0  0  0  0
 15  9  1  0  0  0  0
 16  8  1  0  0  0  0
 16 10  2  0  0  0  0
 17  6  1  0  0  0  0
 18  7  2  0  0  0  0
 18 19  1  0  0  0  0
 19  1  2  0  0  0  0
 20  4  1  0  0  0  0
 21 20  1  1  0  0  0
 21 13  1  0  0  0  0
 23  7  1  0  0  0  0
 25  9  1  0  0  0  0
 26  5  1  6  0  0  0
 26 14  1  0  0  0  0
 26  2  1  0  0  0  0
 27  5  1  0  0  0  0
 27 22  1  0  0  0  0
 28 19  1  0  0  0  0
 29 28  1  0  0  0  0
 30 29  1  0  0  0  0
 30 31  2  0  0  0  0
 32 30  1  0  0  0  0
M  END
>  <MODEL>
1

>  <REMARK>
 VINA RESULT:     -10.1      0.000      0.000
  Name = 
  3 active torsions:
  status: ('A' for Active; 'I' for Inactive)
    1  A    between atoms: C_1  and  C_10
    2  A    between atoms: C_10  and  C_19
    3  A    between atoms: C_19  and  C_24
                            x       y       z     vdW  Elec       q    Type
                         _______ _______ _______ _____ _____    ______ ____

>  <TORSDO>
F 3

$$$$
=
 OpenBabel11052416473D

 32 37  0  0  1  0  0  0  0  0999 V2000
  189.8650  177.1740  144.8470 C   0  0  0  0  0  3  0  0  0  0  0  0
  188.5360  178.2100  140.0000 C   0  0  2  0  0  3  0  0  0  0  0  0
  192.2090  176.0540  137.2950 C   0  0  0  0  0  2  0  0  0  0  0  0
  191.2380  175.7720  136.1580 C   0  0  0  0  0  2  0  0  0  0  0  0
  186.2820  178.1290  138.6450 C   0  0  0  0  0  0  0  0  0  0  0  0
  185.2150  178.5640  139.4440 C   0  0  0  0  0  0  0  0  0  0  0  0
  188.4730  177.7840  142.4930 C   0  0  0  0  0  0  0  0  0  0  0  0
  190.5300  177.2310  141.1210 C   0  0  0  0  0  2  0  0  0  0  0  0
  184.7310  177.1010  137.1200 C   0  0  0  0  0  0  0  0  0  0  0  0
  190.4950  177.0330  143.6080 C   0  0  0  0  0  3  0  0  0  0  0  0
  191.4550  176.0600  138.6190 C   0  0  0  0  0  2  0  0  0  0  0  0
  189.5780  177.0870  139.9260 C   0  0  2  0  0  3  0  0  0  0  0  0
  190.3650  177.1420  138.6210 C   0  0  2  0  0  3  0  0  0  0  0  0
  188.3070  177.9500  137.3570 C   0  0  1  0  0  3  0  0  0  0  0  0
  183.7040  177.4480  137.9470 N   0  0  0  0  0  0  0  0  0  0  0  0
  189.8010  177.3190  142.4280 C   0  0  0  0  0  0  0  0  0  0  0  0
  183.9150  178.1770  139.0830 C   0  0  0  0  0  3  0  0  0  0  0  0
  187.8450  177.9130  143.7350 C   0  0  0  0  0  3  0  0  0  0  0  0
  188.5390  177.6160  144.9130 C   0  0  0  0  0  0  0  0  0  0  0  0
  190.1550  176.8440  136.1300 C   0  0  0  0  0  2  0  0  0  0  0  0
  189.4010  176.8910  137.4620 C   0  0  1  0  0  3  0  0  0  0  0  0
  187.1730  177.3570  136.6510 N   0  0  0  0  0  2  0  0  0  0  0  0
  187.6710  178.0390  141.2520 C   0  0  0  0  0  2  0  0  0  0  0  0
  185.3990  179.3950  140.4980 F   0  0  0  0  0  0  0  0  0  0  0  0
  184.4520  176.3710  135.8540 C   0  0  0  0  0  1  0  0  0  0  0  0
  187.7330  178.5110  138.6990 C   0  0  2  0  0  3  0  0  0  0  0  0
  186.0300  177.4700  137.4730 C   0  0  0  0  0  0  0  0  0  0  0  0
  187.8570  177.7430  146.2330 C   0  0  0  0  0  2  0  0  0  0  0  0
  186.3660  177.4530  146.1130 C   0  0  0  0  0  2  0  0  0  0  0  0
  185.5580  178.7090  146.2010 C   0  0  0  0  0  0  0  0  0  0  0  0
  185.7010  179.4670  147.1460 O   0  0  0  0  0  0  0  0  0  0  0  0
  184.5610  179.0250  145.1400 C   0  0  0  0  0  1  0  0  0  0  0  0
  1 19  1  0  0  0  0
  2 23  1  1  0  0  0
  3 11  1  0  0  0  0
  4  3  1  0  0  0  0
  5  6  1  0  0  0  0
  6 24  1  0  0  0  0
  7 18  1  0  0  0  0
  8 16  1  0  0  0  0
  9 27  1  0  0  0  0
  9 15  2  0  0  0  0
 10  1  2  0  0  0  0
 12  2  1  0  0  0  0
 12  8  1  1  0  0  0
 13 11  1  1  0  0  0
 13 12  1  0  0  0  0
 14 22  1  1  0  0  0
 14 21  1  0  0  0  0
 14 26  1  0  0  0  0
 15 17  1  0  0  0  0
 16  7  2  0  0  0  0
 16 10  1  0  0  0  0
 17  6  2  0  0  0  0
 18 19  2  0  0  0  0
 19 28  1  0  0  0  0
 20  4  1  0  0  0  0
 21 20  1  6  0  0  0
 21 13  1  0  0  0  0
 22 27  1  0  0  0  0
 23  7  1  0  0  0  0
 25  9  1  0  0  0  0
 26  5  1  1  0  0  0
 26  2  1  0  0  0  0
 27  5  2  0  0  0  0
 29 30  1  0  0  0  0
 29 28  1  0  0  0  0
 30 31  2  0  0  0  0
 32 30  1  0  0  0  0
M  END
>  <MODEL>
2

>  <REMARK>
 VINA RESULT:      -9.7      2.561      5.245
  Name = 
  3 active torsions:
  status: ('A' for Active; 'I' for Inactive)
    1  A    between atoms: C_1  and  C_10
    2  A    between atoms: C_10  and  C_19
    3  A    between atoms: C_19  and  C_24
                            x       y       z     vdW  Elec       q    Type
                         _______ _______ _______ _____ _____    ______ ____

>  <TORSDO>
F 3

$$$$
=
 OpenBabel11052416473D

 32 37  0  0  1  0  0  0  0  0999 V2000
  190.2460  176.8800  144.1000 C   0  0  0  0  0  3  0  0  0  0  0  0
  188.8060  178.0040  139.3050 C   0  0  2  0  0  3  0  0  0  0  0  0
  192.4190  175.9050  136.4780 C   0  0  0  0  0  2  0  0  0  0  0  0
  191.4230  175.6430  135.3580 C   0  0  0  0  0  2  0  0  0  0  0  0
  186.5220  177.9460  138.0010 C   0  0  0  0  0  0  0  0  0  0  0  0
  185.4720  178.3630  138.8320 C   0  0  0  0  0  0  0  0  0  0  0  0
  188.8000  177.5310  141.7910 C   0  0  0  0  0  0  0  0  0  0  0  0
  190.8260  177.0080  140.3620 C   0  0  0  0  0  2  0  0  0  0  0  0
  184.9380  176.9430  136.4920 C   0  0  0  0  0  0  0  0  0  0  0  0
  190.8480  176.7630  142.8450 C   0  0  0  0  0  3  0  0  0  0  0  0
  191.6950  175.8860  137.8180 C   0  0  0  0  0  2  0  0  0  0  0  0
  189.8470  176.8840  139.1870 C   0  0  2  0  0  3  0  0  0  0  0  0
  190.6040  176.9650  137.8650 C   0  0  2  0  0  3  0  0  0  0  0  0
  188.5170  177.7940  136.6630 C   0  0  1  0  0  3  0  0  0  0  0  0
  183.9300  177.2730  137.3490 N   0  0  0  0  0  0  0  0  0  0  0  0
  190.1270  177.0700  141.6870 C   0  0  0  0  0  0  0  0  0  0  0  0
  184.1660  177.9810  138.4930 C   0  0  0  0  0  3  0  0  0  0  0  0
  188.2000  177.6360  143.0490 C   0  0  0  0  0  3  0  0  0  0  0  0
  188.9220  177.3190  144.2050 C   0  0  0  0  0  0  0  0  0  0  0  0
  190.3380  176.7140  135.3740 C   0  0  0  0  0  2  0  0  0  0  0  0
  189.6150  176.7340  136.7230 C   0  0  1  0  0  3  0  0  0  0  0  0
  187.3690  177.2120  135.9730 N   0  0  0  0  0  2  0  0  0  0  0  0
  187.9700  177.8090  140.5730 C   0  0  0  0  0  2  0  0  0  0  0  0
  185.6800  179.1750  139.8960 F   0  0  0  0  0  0  0  0  0  0  0  0
  184.6310  176.2370  135.2190 C   0  0  0  0  0  1  0  0  0  0  0  0
  187.9740  178.3280  138.0290 C   0  0  2  0  0  3  0  0  0  0  0  0
  186.2440  177.3080  136.8220 C   0  0  0  0  0  0  0  0  0  0  0  0
  188.2700  177.4190  145.5420 C   0  0  0  0  0  2  0  0  0  0  0  0
  189.2820  177.2220  146.6650 C   0  0  0  0  0  2  0  0  0  0  0  0
  188.8690  177.9490  147.9050 C   0  0  0  0  0  0  0  0  0  0  0  0
  189.6990  178.2530  148.7450 O   0  0  0  0  0  0  0  0  0  0  0  0
  187.4350  178.2860  148.1240 C   0  0  0  0  0  1  0  0  0  0  0  0
  1 19  1  0  0  0  0
  2 23  1  1  0  0  0
  3 11  1  0  0  0  0
  4 20  1  0  0  0  0
  4  3  1  0  0  0  0
  5  6  1  0  0  0  0
  6 24  1  0  0  0  0
  7 18  1  0  0  0  0
  8 16  1  0  0  0  0
  9 27  1  0  0  0  0
  9 15  2  0  0  0  0
 10  1  2  0  0  0  0
 12  2  1  0  0  0  0
 12  8  1  1  0  0  0
 13 11  1  1  0  0  0
 13 12  1  0  0  0  0
 14 22  1  1  0  0  0
 14 21  1  0  0  0  0
 14 26  1  0  0  0  0
 15 17  1  0  0  0  0
 16  7  2  0  0  0  0
 16 10  1  0  0  0  0
 17  6  2  0  0  0  0
 18 19  2  0  0  0  0
 19 28  1  0  0  0  0
 21 20  1  6  0  0  0
 21 13  1  0  0  0  0
 22 27  1  0  0  0  0
 23  7  1  0  0  0  0
 25  9  1  0  0  0  0
 26  5  1  1  0  0  0
 26  2  1  0  0  0  0
 27  5  2  0  0  0  0
 28 29  1  0  0  0  0
 29 30  1  0  0  0  0
 30 32  1  0  0  0  0
 30 31  2  0  0  0  0
M  END
>  <MODEL>
3

>  <REMARK>
 VINA RESULT:      -9.0      3.586      6.283
  Name = 
  3 active torsions:
  status: ('A' for Active; 'I' for Inactive)
    1  A    between atoms: C_1  and  C_10
    2  A    between atoms: C_10  and  C_19
    3  A    between atoms: C_19  and  C_24
                            x       y       z     vdW  Elec       q    Type
                         _______ _______ _______ _____ _____    ______ ____

>  <TORSDO>
F 3

$$$$
=
 OpenBabel11052416473D

 32 37  0  0  1  0  0  0  0  0999 V2000
  190.5740  177.5600  138.7060 C   0  0  0  0  0  3  0  0  0  0  0  0
  188.4230  176.7500  143.2940 C   0  0  2  0  0  3  0  0  0  0  0  0
  192.3840  176.0020  146.3260 C   0  0  0  0  0  2  0  0  0  0  0  0
  191.6300  176.6110  147.4990 C   0  0  0  0  0  2  0  0  0  0  0  0
  186.4780  177.8930  144.6490 C   0  0  0  0  0  0  0  0  0  0  0  0
  185.4360  178.2670  143.7900 C   0  0  0  0  0  0  0  0  0  0  0  0
  188.8550  177.5050  140.9180 C   0  0  0  0  0  0  0  0  0  0  0  0
  190.7210  176.5770  142.3580 C   0  0  0  0  0  2  0  0  0  0  0  0
  185.6270  179.3780  146.3400 C   0  0  0  0  0  0  0  0  0  0  0  0
  191.0490  177.1300  139.9480 C   0  0  0  0  0  3  0  0  0  0  0  0
  191.8900  176.6240  145.0270 C   0  0  0  0  0  2  0  0  0  0  0  0
  189.9010  177.0560  143.5630 C   0  0  2  0  0  3  0  0  0  0  0  0
  190.3880  176.3690  144.8340 C   0  0  2  0  0  3  0  0  0  0  0  0
  188.1180  176.6940  145.9410 C   0  0  1  0  0  3  0  0  0  0  0  0
  184.6700  179.8040  145.4680 N   0  0  0  0  0  0  0  0  0  0  0  0
  190.2020  177.1160  141.0590 C   0  0  0  0  0  0  0  0  0  0  0  0
  184.5470  179.2640  144.2190 C   0  0  0  0  0  3  0  0  0  0  0  0
  188.3890  177.9430  139.6750 C   0  0  0  0  0  3  0  0  0  0  0  0
  189.2420  177.9650  138.5670 C   0  0  0  0  0  0  0  0  0  0  0  0
  190.1360  176.3550  147.3390 C   0  0  0  0  0  2  0  0  0  0  0  0
  189.6210  176.9450  146.0240 C   0  0  1  0  0  3  0  0  0  0  0  0
  187.4470  177.7120  146.7460 N   0  0  0  0  0  2  0  0  0  0  0  0
  187.9290  177.5670  142.0960 C   0  0  0  0  0  2  0  0  0  0  0  0
  185.2270  177.6470  142.6030 F   0  0  0  0  0  0  0  0  0  0  0  0
  185.6800  179.9370  147.7190 C   0  0  0  0  0  1  0  0  0  0  0  0
  187.4650  176.7670  144.5220 C   0  0  2  0  0  3  0  0  0  0  0  0
  186.5240  178.3930  145.9220 C   0  0  0  0  0  0  0  0  0  0  0  0
  188.7410  178.4480  137.2480 C   0  0  0  0  0  2  0  0  0  0  0  0
  187.4810  177.6990  136.8290 C   0  0  0  0  0  2  0  0  0  0  0  0
  187.7890  176.2870  136.4450 C   0  0  0  0  0  0  0  0  0  0  0  0
  188.5160  176.0530  135.4940 O   0  0  0  0  0  0  0  0  0  0  0  0
  187.1900  175.1620  137.2150 C   0  0  0  0  0  1  0  0  0  0  0  0
  1 10  1  0  0  0  0
  2 23  1  6  0  0  0
  2 12  1  0  0  0  0
  2 26  1  0  0  0  0
  3  4  1  0  0  0  0
  5 27  1  0  0  0  0
  6 17  1  0  0  0  0
  6  5  2  0  0  0  0
  7 16  1  0  0  0  0
  7 23  1  0  0  0  0
  9 25  1  0  0  0  0
 10 16  2  0  0  0  0
 11  3  1  0  0  0  0
 12  8  1  6  0  0  0
 12 13  1  0  0  0  0
 13 11  1  1  0  0  0
 13 21  1  0  0  0  0
 14 21  1  0  0  0  0
 14 22  1  1  0  0  0
 15  9  1  0  0  0  0
 16  8  1  0  0  0  0
 17 15  2  0  0  0  0
 18  7  2  0  0  0  0
 19  1  2  0  0  0  0
 19 18  1  0  0  0  0
 20  4  1  0  0  0  0
 21 20  1  1  0  0  0
 24  6  1  0  0  0  0
 26  5  1  1  0  0  0
 26 14  1  0  0  0  0
 27  9  2  0  0  0  0
 27 22  1  0  0  0  0
 28 19  1  0  0  0  0
 29 28  1  0  0  0  0
 30 29  1  0  0  0  0
 30 32  1  0  0  0  0
 31 30  2  0  0  0  0
M  END
>  <MODEL>
4

>  <REMARK>
 VINA RESULT:      -8.9      3.733      6.854
  Name = 
  3 active torsions:
  status: ('A' for Active; 'I' for Inactive)
    1  A    between atoms: C_1  and  C_10
    2  A    between atoms: C_10  and  C_19
    3  A    between atoms: C_19  and  C_24
                            x       y       z     vdW  Elec       q    Type
                         _______ _______ _______ _____ _____    ______ ____

>  <TORSDO>
F 3

$$$$
=
 OpenBabel11052416473D

 32 37  0  0  1  0  0  0  0  0999 V2000
  191.1790  176.8480  144.1730 C   0  0  0  0  0  3  0  0  0  0  0  0
  187.5720  178.5380  140.9380 C   0  0  2  0  0  3  0  0  0  0  0  0
  189.0830  176.7540  136.4680 C   0  0  0  0  0  2  0  0  0  0  0  0
  187.6390  176.6330  136.0020 C   0  0  0  0  0  2  0  0  0  0  0  0
  184.9430  178.6510  140.9990 C   0  0  0  0  0  0  0  0  0  0  0  0
  184.4970  178.9780  142.2870 C   0  0  0  0  0  0  0  0  0  0  0  0
  188.8040  177.7770  143.0140 C   0  0  0  0  0  0  0  0  0  0  0  0
  189.7750  177.4070  140.7030 C   0  0  0  0  0  2  0  0  0  0  0  0
  182.7480  177.8460  140.4340 C   0  0  0  0  0  0  0  0  0  0  0  0
  191.0460  176.8730  142.7830 C   0  0  0  0  0  3  0  0  0  0  0  0
  189.1450  176.5830  137.9800 C   0  0  0  0  0  2  0  0  0  0  0  0
  188.3280  177.4310  140.1940 C   0  0  2  0  0  3  0  0  0  0  0  0
  188.3070  177.6590  138.6870 C   0  0  2  0  0  3  0  0  0  0  0  0
  185.9600  178.6410  138.8180 C   0  0  1  0  0  3  0  0  0  0  0  0
  182.3440  178.0820  141.7140 N   0  0  0  0  0  0  0  0  0  0  0  0
  189.8570  177.3200  142.1970 C   0  0  0  0  0  0  0  0  0  0  0  0
  183.1780  178.6490  142.6350 C   0  0  0  0  0  3  0  0  0  0  0  0
  188.9400  177.7390  144.4040 C   0  0  0  0  0  3  0  0  0  0  0  0
  190.1270  177.2830  144.9860 C   0  0  0  0  0  0  0  0  0  0  0  0
  186.7900  177.7040  136.6780 C   0  0  0  0  0  2  0  0  0  0  0  0
  186.8600  177.5720  138.2010 C   0  0  1  0  0  3  0  0  0  0  0  0
  184.5840  178.1540  138.7650 N   0  0  0  0  0  2  0  0  0  0  0  0
  187.4890  178.2020  142.4310 C   0  0  0  0  0  2  0  0  0  0  0  0
  185.2740  179.6580  143.1650 F   0  0  0  0  0  0  0  0  0  0  0  0
  181.7870  177.2960  139.4400 C   0  0  0  0  0  1  0  0  0  0  0  0
  186.2280  179.0160  140.3120 C   0  0  2  0  0  3  0  0  0  0  0  0
  184.0600  178.1590  140.0770 C   0  0  0  0  0  0  0  0  0  0  0  0
  190.2580  177.2310  146.4710 C   0  0  0  0  0  2  0  0  0  0  0  0
  188.9580  176.7770  147.1240 C   0  0  0  0  0  2  0  0  0  0  0  0
  188.3180  177.8870  147.8940 C   0  0  0  0  0  0  0  0  0  0  0  0
  188.8920  178.3840  148.8490 O   0  0  0  0  0  0  0  0  0  0  0  0
  186.9660  178.3760  147.5060 C   0  0  0  0  0  1  0  0  0  0  0  0
  1 19  1  0  0  0  0
  2 23  1  1  0  0  0
  3 11  1  0  0  0  0
  4  3  1  0  0  0  0
  4 20  1  0  0  0  0
  5  6  1  0  0  0  0
  6 17  2  0  0  0  0
  6 24  1  0  0  0  0
  7 18  1  0  0  0  0
  8 16  1  0  0  0  0
  9 15  2  0  0  0  0
 10  1  2  0  0  0  0
 12  8  1  1  0  0  0
 12  2  1  0  0  0  0
 13 11  1  6  0  0  0
 13 12  1  0  0  0  0
 14 22  1  1  0  0  0
 14 26  1  0  0  0  0
 15 17  1  0  0  0  0
 16 10  1  0  0  0  0
 16  7  2  0  0  0  0
 18 19  2  0  0  0  0
 19 28  1  0  0  0  0
 21 20  1  6  0  0  0
 21 13  1  0  0  0  0
 21 14  1  0  0  0  0
 22 27  1  0  0  0  0
 23  7  1  0  0  0  0
 25  9  1  0  0  0  0
 26  2  1  0  0  0  0
 26  5  1  1  0  0  0
 27  9  1  0  0  0  0
 27  5  2  0  0  0  0
 28 29  1  0  0  0  0
 29 30  1  0  0  0  0
 30 31  2  0  0  0  0
 32 30  1  0  0  0  0
M  END
>  <MODEL>
5

>  <REMARK>
 VINA RESULT:      -8.8      3.005      6.766
  Name = 
  3 active torsions:
  status: ('A' for Active; 'I' for Inactive)
    1  A    between atoms: C_1  and  C_10
    2  A    between atoms: C_10  and  C_19
    3  A    between atoms: C_19  and  C_24
                            x       y       z     vdW  Elec       q    Type
                         _______ _______ _______ _____ _____    ______ ____

>  <TORSDO>
F 3

$$$$
=
 OpenBabel11052416473D

 32 37  0  0  1  0  0  0  0  0999 V2000
  182.9560  178.7550  143.0070 C   0  0  0  0  0  3  0  0  0  0  0  0
  187.7000  178.4130  141.0830 C   0  0  2  0  0  3  0  0  0  0  0  0
  190.4880  177.0960  145.0750 C   0  0  0  0  0  2  0  0  0  0  0  0
  191.4420  176.3170  144.1810 C   0  0  0  0  0  2  0  0  0  0  0  0
  188.7380  177.3700  138.9010 C   0  0  0  0  0  0  0  0  0  0  0  0
  187.8860  177.5770  137.8060 C   0  0  0  0  0  0  0  0  0  0  0  0
  185.1830  178.4490  141.3350 C   0  0  0  0  0  0  0  0  0  0  0  0
  186.7020  178.3460  143.3600 C   0  0  0  0  0  2  0  0  0  0  0  0
  189.8890  175.6400  137.6880 C   0  0  0  0  0  0  0  0  0  0  0  0
  184.2280  178.6010  143.5620 C   0  0  0  0  0  3  0  0  0  0  0  0
  189.0980  177.1000  144.4540 C   0  0  0  0  0  2  0  0  0  0  0  0
  187.7340  177.6900  142.4340 C   0  0  2  0  0  3  0  0  0  0  0  0
  189.1210  177.7570  143.0660 C   0  0  2  0  0  3  0  0  0  0  0  0
  190.2260  177.6200  140.7760 C   0  0  1  0  0  3  0  0  0  0  0  0
  189.0010  175.7840  136.6630 N   0  0  0  0  0  0  0  0  0  0  0  0
  185.3420  178.4320  142.7350 C   0  0  0  0  0  0  0  0  0  0  0  0
  188.0220  176.7360  136.6920 C   0  0  0  0  0  3  0  0  0  0  0  0
  183.9050  178.5930  140.7860 C   0  0  0  0  0  3  0  0  0  0  0  0
  182.7920  178.7540  141.6180 C   0  0  0  0  0  0  0  0  0  0  0  0
  191.4940  176.9620  142.8010 C   0  0  0  0  0  2  0  0  0  0  0  0
  190.1020  177.0040  142.1680 C   0  0  1  0  0  3  0  0  0  0  0  0
  190.6900  176.5770  139.8630 N   0  0  0  0  0  2  0  0  0  0  0  0
  186.3390  178.2050  140.4120 C   0  0  0  0  0  2  0  0  0  0  0  0
  186.9980  178.6010  137.7710 F   0  0  0  0  0  0  0  0  0  0  0  0
  190.9880  174.6430  137.5860 C   0  0  0  0  0  1  0  0  0  0  0  0
  188.9210  178.2000  140.1390 C   0  0  2  0  0  3  0  0  0  0  0  0
  189.7590  176.4640  138.8070 C   0  0  0  0  0  0  0  0  0  0  0  0
  181.4310  178.8920  141.0240 C   0  0  0  0  0  2  0  0  0  0  0  0
  181.3390  178.1740  139.6820 C   0  0  0  0  0  2  0  0  0  0  0  0
  180.0220  177.4850  139.5210 C   0  0  0  0  0  0  0  0  0  0  0  0
  179.1800  177.9380  138.7630 O   0  0  0  0  0  0  0  0  0  0  0  0
  179.7280  176.2530  140.3050 C   0  0  0  0  0  1  0  0  0  0  0  0
  1 10  1  0  0  0  0
  2 23  1  6  0  0  0
  2 12  1  0  0  0  0
  4  3  1  0  0  0  0
  6  5  2  0  0  0  0
  7 16  1  0  0  0  0
  9 27  2  0  0  0  0
 11  3  1  0  0  0  0
 12 13  1  0  0  0  0
 12  8  1  1  0  0  0
 13 11  1  1  0  0  0
 14 22  1  6  0  0  0
 14 21  1  0  0  0  0
 15 17  2  0  0  0  0
 15  9  1  0  0  0  0
 16  8  1  0  0  0  0
 16 10  2  0  0  0  0
 17  6  1  0  0  0  0
 18  7  2  0  0  0  0
 18 19  1  0  0  0  0
 19  1  2  0  0  0  0
 20  4  1  0  0  0  0
 21 20  1  1  0  0  0
 21 13  1  0  0  0  0
 23  7  1  0  0  0  0
 24  6  1  0  0  0  0
 25  9  1  0  0  0  0
 26  5  1  6  0  0  0
 26 14  1  0  0  0  0
 26  2  1  0  0  0  0
 27  5  1  0  0  0  0
 27 22  1  0  0  0  0
 28 19  1  0  0  0  0
 29 28  1  0  0  0  0
 30 29  1  0  0  0  0
 30 32  1  0  0  0  0
 31 30  2  0  0  0  0
M  END
>  <MODEL>
6

>  <REMARK>
 VINA RESULT:      -8.8      1.192      1.412
  Name = 
  3 active torsions:
  status: ('A' for Active; 'I' for Inactive)
    1  A    between atoms: C_1  and  C_10
    2  A    between atoms: C_10  and  C_19
    3  A    between atoms: C_19  and  C_24
                            x       y       z     vdW  Elec       q    Type
                         _______ _______ _______ _____ _____    ______ ____

>  <TORSDO>
F 3

$$$$
=
 OpenBabel11052416473D

 32 37  0  0  1  0  0  0  0  0999 V2000
  191.0690  177.0000  144.2980 C   0  0  0  0  0  3  0  0  0  0  0  0
  188.7600  178.2310  139.8830 C   0  0  2  0  0  3  0  0  0  0  0  0
  191.6770  176.0510  136.3920 C   0  0  0  0  0  2  0  0  0  0  0  0
  190.4730  175.8360  135.4870 C   0  0  0  0  0  2  0  0  0  0  0  0
  186.2640  178.2630  139.0510 C   0  0  0  0  0  0  0  0  0  0  0  0
  185.4120  178.7040  140.0730 C   0  0  0  0  0  0  0  0  0  0  0  0
  189.2220  177.7270  142.3190 C   0  0  0  0  0  0  0  0  0  0  0  0
  190.9110  177.1560  140.5190 C   0  0  0  0  0  2  0  0  0  0  0  0
  184.3820  177.3320  137.8750 C   0  0  0  0  0  0  0  0  0  0  0  0
  191.4090  176.8790  142.9480 C   0  0  0  0  0  3  0  0  0  0  0  0
  191.2280  176.0380  137.8470 C   0  0  0  0  0  2  0  0  0  0  0  0
  189.7180  177.0790  139.5570 C   0  0  2  0  0  3  0  0  0  0  0  0
  190.2050  177.1520  138.1140 C   0  0  2  0  0  3  0  0  0  0  0  0
  187.9530  178.0640  137.3480 C   0  0  1  0  0  3  0  0  0  0  0  0
  183.5730  177.6840  138.9140 N   0  0  0  0  0  0  0  0  0  0  0  0
  190.4880  177.2250  141.9560 C   0  0  0  0  0  0  0  0  0  0  0  0
  184.0520  178.3700  139.9940 C   0  0  0  0  0  3  0  0  0  0  0  0
  188.8840  177.8360  143.6710 C   0  0  0  0  0  3  0  0  0  0  0  0
  189.8060  177.4810  144.6620 C   0  0  0  0  0  0  0  0  0  0  0  0
  189.4500  176.9410  135.7220 C   0  0  0  0  0  2  0  0  0  0  0  0
  189.0050  176.9680  137.1860 C   0  0  1  0  0  3  0  0  0  0  0  0
  186.6730  177.5290  136.8920 N   0  0  0  0  0  2  0  0  0  0  0  0
  188.1810  178.0470  141.2890 C   0  0  0  0  0  2  0  0  0  0  0  0
  185.8520  179.4960  141.0820 F   0  0  0  0  0  0  0  0  0  0  0  0
  183.8090  176.6520  136.6820 C   0  0  0  0  0  1  0  0  0  0  0  0
  187.7060  178.5980  138.7960 C   0  0  2  0  0  3  0  0  0  0  0  0
  185.7390  177.6500  137.9450 C   0  0  0  0  0  0  0  0  0  0  0  0
  189.4320  177.5850  146.1020 C   0  0  0  0  0  2  0  0  0  0  0  0
  189.9170  176.3720  146.8870 C   0  0  0  0  0  2  0  0  0  0  0  0
  191.2560  176.6220  147.5040 C   0  0  0  0  0  0  0  0  0  0  0  0
  191.4740  177.6640  148.1000 O   0  0  0  0  0  0  0  0  0  0  0  0
  192.3350  175.6040  147.3730 C   0  0  0  0  0  1  0  0  0  0  0  0
  1 19  1  0  0  0  0
  2 23  1  1  0  0  0
  3 11  1  0  0  0  0
  4 20  1  0  0  0  0
  4  3  1  0  0  0  0
  5  6  1  0  0  0  0
  6 24  1  0  0  0  0
  7 18  1  0  0  0  0
  8 16  1  0  0  0  0
  9 27  1  0  0  0  0
  9 15  2  0  0  0  0
 10  1  2  0  0  0  0
 12  2  1  0  0  0  0
 12  8  1  1  0  0  0
 13 11  1  1  0  0  0
 13 12  1  0  0  0  0
 14 22  1  1  0  0  0
 14 26  1  0  0  0  0
 15 17  1  0  0  0  0
 16  7  2  0  0  0  0
 16 10  1  0  0  0  0
 17  6  2  0  0  0  0
 18 19  2  0  0  0  0
 19 28  1  0  0  0  0
 21 20  1  6  0  0  0
 21 14  1  0  0  0  0
 21 13  1  0  0  0  0
 22 27  1  0  0  0  0
 23  7  1  0  0  0  0
 25  9  1  0  0  0  0
 26  5  1  1  0  0  0
 26  2  1  0  0  0  0
 27  5  2  0  0  0  0
 28 29  1  0  0  0  0
 29 30  1  0  0  0  0
 30 31  2  0  0  0  0
 32 30  1  0  0  0  0
M  END
>  <MODEL>
7

>  <REMARK>
 VINA RESULT:      -8.7      3.469      6.849
  Name = 
  3 active torsions:
  status: ('A' for Active; 'I' for Inactive)
    1  A    between atoms: C_1  and  C_10
    2  A    between atoms: C_10  and  C_19
    3  A    between atoms: C_19  and  C_24
                            x       y       z     vdW  Elec       q    Type
                         _______ _______ _______ _____ _____    ______ ____

>  <TORSDO>
F 3

$$$$
=
 OpenBabel11052416473D

 32 37  0  0  1  0  0  0  0  0999 V2000
  189.4590  177.1450  145.2270 C   0  0  0  0  0  3  0  0  0  0  0  0
  186.7590  178.6460  141.1300 C   0  0  2  0  0  3  0  0  0  0  0  0
  189.8390  177.6320  137.2660 C   0  0  0  0  0  2  0  0  0  0  0  0
  188.6480  177.3540  136.3600 C   0  0  0  0  0  2  0  0  0  0  0  0
  184.2580  178.3640  140.3610 C   0  0  0  0  0  0  0  0  0  0  0  0
  183.3930  178.4700  141.4590 C   0  0  0  0  0  0  0  0  0  0  0  0
  187.4200  177.8420  143.4360 C   0  0  0  0  0  0  0  0  0  0  0  0
  189.0930  177.8880  141.5340 C   0  0  0  0  0  2  0  0  0  0  0  0
  182.5130  177.3140  139.0790 C   0  0  0  0  0  0  0  0  0  0  0  0
  189.7490  177.3110  143.8710 C   0  0  0  0  0  3  0  0  0  0  0  0
  189.4700  177.2990  138.7060 C   0  0  0  0  0  2  0  0  0  0  0  0
  187.8870  177.7560  140.5950 C   0  0  2  0  0  3  0  0  0  0  0  0
  188.2830  178.1510  139.1760 C   0  0  2  0  0  3  0  0  0  0  0  0
  185.8720  178.7550  138.6190 C   0  0  1  0  0  3  0  0  0  0  0  0
  181.7060  177.3390  140.1780 N   0  0  0  0  0  0  0  0  0  0  0  0
  188.7340  177.6420  142.9690 C   0  0  0  0  0  0  0  0  0  0  0  0
  182.1100  177.9130  141.3500 C   0  0  0  0  0  3  0  0  0  0  0  0
  187.1340  177.6640  144.7930 C   0  0  0  0  0  3  0  0  0  0  0  0
  188.1510  177.3230  145.6910 C   0  0  0  0  0  0  0  0  0  0  0  0
  187.4600  178.2030  136.7980 C   0  0  0  0  0  2  0  0  0  0  0  0
  187.0890  177.9080  138.2530 C   0  0  1  0  0  3  0  0  0  0  0  0
  184.6840  178.0800  138.1020 N   0  0  0  0  0  2  0  0  0  0  0  0
  186.2900  178.1330  142.4940 C   0  0  0  0  0  2  0  0  0  0  0  0
  183.7360  179.1520  142.5800 F   0  0  0  0  0  0  0  0  0  0  0  0
  182.0100  176.7480  137.7990 C   0  0  0  0  0  1  0  0  0  0  0  0
  185.6050  178.9910  140.1410 C   0  0  2  0  0  3  0  0  0  0  0  0
  183.7960  177.8560  139.1770 C   0  0  0  0  0  0  0  0  0  0  0  0
  187.8340  177.1210  147.1340 C   0  0  0  0  0  2  0  0  0  0  0  0
  187.5550  178.4490  147.8290 C   0  0  0  0  0  2  0  0  0  0  0  0
  186.1850  178.9550  147.5070 C   0  0  0  0  0  0  0  0  0  0  0  0
  185.9700  180.1540  147.4490 O   0  0  0  0  0  0  0  0  0  0  0  0
  185.0740  177.9900  147.2740 C   0  0  0  0  0  1  0  0  0  0  0  0
  1 19  1  0  0  0  0
  2 23  1  1  0  0  0
  3 11  1  0  0  0  0
  4 20  1  0  0  0  0
  4  3  1  0  0  0  0
  5  6  1  0  0  0  0
  6 24  1  0  0  0  0
  7 18  1  0  0  0  0
  8 16  1  0  0  0  0
  9 27  1  0  0  0  0
  9 15  2  0  0  0  0
 10  1  2  0  0  0  0
 12  2  1  0  0  0  0
 12  8  1  1  0  0  0
 13 11  1  6  0  0  0
 13 12  1  0  0  0  0
 14 22  1  1  0  0  0
 14 26  1  0  0  0  0
 15 17  1  0  0  0  0
 16  7  2  0  0  0  0
 16 10  1  0  0  0  0
 17  6  2  0  0  0  0
 18 19  2  0  0  0  0
 19 28  1  0  0  0  0
 21 20  1  6  0  0  0
 21 14  1  0  0  0  0
 21 13  1  0  0  0  0
 22 27  1  0  0  0  0
 23  7  1  0  0  0  0
 25  9  1  0  0  0  0
 26  5  1  1  0  0  0
 26  2  1  0  0  0  0
 27  5  2  0  0  0  0
 28 29  1  0  0  0  0
 30 29  1  0  0  0  0
 31 30  2  0  0  0  0
 32 30  1  0  0  0  0
M  END
>  <MODEL>
8

>  <REMARK>
 VINA RESULT:      -8.3      2.781      5.893
  Name = 
  3 active torsions:
  status: ('A' for Active; 'I' for Inactive)
    1  A    between atoms: C_1  and  C_10
    2  A    between atoms: C_10  and  C_19
    3  A    between atoms: C_19  and  C_24
                            x       y       z     vdW  Elec       q    Type
                         _______ _______ _______ _____ _____    ______ ____

>  <TORSDO>
F 3

$$$$
=
 OpenBabel11052416473D

 32 37  0  0  1  0  0  0  0  0999 V2000
  189.5000  176.9000  137.6270 C   0  0  0  0  0  3  0  0  0  0  0  0
  188.7210  178.4130  142.4680 C   0  0  2  0  0  3  0  0  0  0  0  0
  183.6990  178.7560  142.7910 C   0  0  0  0  0  2  0  0  0  0  0  0
  183.7450  178.3730  144.2630 C   0  0  0  0  0  2  0  0  0  0  0  0
  189.7090  177.7120  144.8040 C   0  0  0  0  0  0  0  0  0  0  0  0
  191.0800  177.4410  144.6940 C   0  0  0  0  0  0  0  0  0  0  0  0
  189.7240  177.4090  140.3730 C   0  0  0  0  0  0  0  0  0  0  0  0
  187.2990  178.1380  140.4460 C   0  0  0  0  0  2  0  0  0  0  0  0
  189.6350  176.5250  146.8950 C   0  0  0  0  0  0  0  0  0  0  0  0
  188.3890  177.3460  138.3460 C   0  0  0  0  0  3  0  0  0  0  0  0
  184.8750  178.1190  142.0630 C   0  0  0  0  0  2  0  0  0  0  0  0
  187.3700  177.8960  141.9600 C   0  0  2  0  0  3  0  0  0  0  0  0
  186.2090  178.5970  142.6570 C   0  0  2  0  0  3  0  0  0  0  0  0
  187.5290  178.7320  144.8300 C   0  0  1  0  0  3  0  0  0  0  0  0
  190.9460  176.1890  146.7390 N   0  0  0  0  0  0  0  0  0  0  0  0
  188.4880  177.5870  139.7190 C   0  0  0  0  0  0  0  0  0  0  0  0
  191.6790  176.6390  145.6770 C   0  0  0  0  0  3  0  0  0  0  0  0
  190.8300  176.9530  139.6490 C   0  0  0  0  0  3  0  0  0  0  0  0
  190.7230  176.7050  138.2770 C   0  0  0  0  0  0  0  0  0  0  0  0
  185.0540  178.8530  144.8790 C   0  0  0  0  0  2  0  0  0  0  0  0
  186.2530  178.2490  144.1440 C   0  0  1  0  0  3  0  0  0  0  0  0
  187.7430  177.9030  146.0140 N   0  0  0  0  0  2  0  0  0  0  0  0
  189.8600  177.5920  141.8550 C   0  0  0  0  0  2  0  0  0  0  0  0
  191.8440  177.9890  143.7180 F   0  0  0  0  0  0  0  0  0  0  0  0
  188.8910  176.0780  148.1040 C   0  0  0  0  0  1  0  0  0  0  0  0
  188.8530  178.6500  144.0020 C   0  0  2  0  0  3  0  0  0  0  0  0
  189.0240  177.3150  145.9200 C   0  0  0  0  0  0  0  0  0  0  0  0
  191.9040  176.2030  137.5150 C   0  0  0  0  0  2  0  0  0  0  0  0
  193.1860  176.3520  138.3260 C   0  0  0  0  0  2  0  0  0  0  0  0
  194.1010  175.1880  138.1160 C   0  0  0  0  0  0  0  0  0  0  0  0
  195.1610  175.1230  138.7170 O   0  0  0  0  0  0  0  0  0  0  0  0
  193.7260  174.1130  137.1550 C   0  0  0  0  0  1  0  0  0  0  0  0
  1 19  2  0  0  0  0
  1 10  1  0  0  0  0
  2 23  1  1  0  0  0
  2 26  1  0  0  0  0
  3  4  1  0  0  0  0
  4 20  1  0  0  0  0
  5 27  1  0  0  0  0
  6  5  2  0  0  0  0
  6 17  1  0  0  0  0
  7 23  1  0  0  0  0
  9 25  1  0  0  0  0
 10 16  2  0  0  0  0
 11  3  1  0  0  0  0
 12  8  1  6  0  0  0
 12  2  1  0  0  0  0
 12 13  1  0  0  0  0
 13 11  1  6  0  0  0
 13 21  1  0  0  0  0
 14 22  1  1  0  0  0
 15  9  1  0  0  0  0
 16  7  1  0  0  0  0
 16  8  1  0  0  0  0
 17 15  2  0  0  0  0
 18  7  2  0  0  0  0
 19 18  1  0  0  0  0
 21 14  1  0  0  0  0
 21 20  1  1  0  0  0
 24  6  1  0  0  0  0
 26  5  1  1  0  0  0
 26 14  1  0  0  0  0
 27 22  1  0  0  0  0
 27  9  2  0  0  0  0
 28 19  1  0  0  0  0
 28 29  1  0  0  0  0
 30 29  1  0  0  0  0
 30 31  2  0  0  0  0
 32 30  1  0  0  0  0
M  END
>  <MODEL>
9

>  <REMARK>
 VINA RESULT:      -8.1      4.136      8.557
  Name = 
  3 active torsions:
  status: ('A' for Active; 'I' for Inactive)
    1  A    between atoms: C_1  and  C_10
    2  A    between atoms: C_10  and  C_19
    3  A    between atoms: C_19  and  C_24
                            x       y       z     vdW  Elec       q    Type
                         _______ _______ _______ _____ _____    ______ ____

>  <TORSDO>
F 3

$$$$
