=
 OpenBabel11052412173D

 30 34  0  0  1  0  0  0  0  0999 V2000
  185.9330  178.5570  141.5720 C   0  0  0  0  0  0  0  0  0  0  0  0
  187.1160  178.2320  142.2870 C   0  0  0  0  0  0  0  0  0  0  0  0
  185.9480  178.6330  140.1690 C   0  0  0  0  0  3  0  0  0  0  0  0
  189.5440  177.8970  139.0650 S   0  0  0  0  0  0  0  0  0  0  0  0
  189.8850  178.5780  143.5610 C   0  0  1  0  0  3  0  0  0  0  0  0
  188.2940  178.0820  140.1810 C   0  0  0  0  0  0  0  0  0  0  0  0
  187.2530  178.4490  138.1370 N   0  0  0  0  0  0  0  0  0  0  0  0
  189.2060  177.9620  144.7770 C   0  0  2  0  0  3  0  0  0  0  0  0
  187.1330  178.3860  139.4880 C   0  0  0  0  0  0  0  0  0  0  0  0
  188.3330  178.0150  141.5820 C   0  0  0  0  0  0  0  0  0  0  0  0
  190.2250  177.0040  145.3530 C   0  0  0  0  0  2  0  0  0  0  0  0
  191.3700  178.5930  143.8980 C   0  0  0  0  0  2  0  0  0  0  0  0
  188.9640  178.2020  136.3330 C   0  0  0  0  0  1  0  0  0  0  0  0
  188.5260  178.1980  137.7530 C   0  0  0  0  0  0  0  0  0  0  0  0
  187.0350  178.1330  143.6850 O   0  0  0  0  0  0  0  0  0  0  0  0
  187.8630  177.2820  144.4740 C   0  0  2  0  0  3  0  0  0  0  0  0
  191.5720  177.6350  145.0620 C   0  0  0  0  0  2  0  0  0  0  0  0
  190.4490  176.9740  141.8530 O   0  0  0  0  0  0  0  0  0  0  0  0
  189.6110  177.8090  142.2920 C   0  0  0  0  0  0  0  0  0  0  0  0
  183.4600  178.1940  141.8290 C   0  0  0  0  0  0  0  0  0  0  0  0
  182.2600  178.4260  142.5100 C   0  0  0  0  0  3  0  0  0  0  0  0
  183.4440  177.3710  140.6650 N   0  0  0  0  0  1  0  0  0  0  0  0
  184.6230  179.6090  143.4270 C   0  0  0  0  0  0  0  0  0  0  0  0
  182.2390  179.2420  143.6420 C   0  0  0  0  0  3  0  0  0  0  0  0
  184.6560  178.7910  142.2810 C   0  0  0  0  0  0  0  0  0  0  0  0
  183.4190  179.8310  144.0990 C   0  0  0  0  0  3  0  0  0  0  0  0
  185.7590  180.1730  143.9090 F   0  0  0  0  0  0  0  0  0  0  0  0
  185.5880  177.4920  145.8170 O   0  0  0  0  0  0  0  0  0  0  0  0
  186.9620  176.8570  145.9880 S   0  0  2  0  0  0  0  0  0  0  0  0
  187.7310  177.8350  147.2890 C   0  0  0  0  0  1  0  0  0  0  0  0
  1 25  1  0  0  0  0
  1  2  1  0  0  0  0
  2 15  1  0  0  0  0
  3  1  2  0  0  0  0
  4  6  1  0  0  0  0
  5 12  1  1  0  0  0
  5  8  1  0  0  0  0
  6 10  1  0  0  0  0
  7  9  1  0  0  0  0
  8 11  1  6  0  0  0
  9  3  1  0  0  0  0
  9  6  2  0  0  0  0
 10  2  2  0  0  0  0
 10 19  1  0  0  0  0
 12 17  1  0  0  0  0
 13 14  1  0  0  0  0
 14  7  2  0  0  0  0
 14  4  1  0  0  0  0
 15 16  1  0  0  0  0
 16  8  1  0  0  0  0
 16 29  1  1  0  0  0
 17 11  1  0  0  0  0
 18 19  2  0  0  0  0
 19  5  1  0  0  0  0
 20 25  2  0  0  0  0
 20 21  1  0  0  0  0
 21 24  2  0  0  0  0
 22 20  1  0  0  0  0
 23 27  1  0  0  0  0
 23 26  2  0  0  0  0
 24 26  1  0  0  0  0
 25 23  1  0  0  0  0
 28 29  2  0  0  0  0
 29 30  1  1  0  0  0
M  END
>  <MODEL>
1

>  <REMARK>
 VINA RESULT:      -8.9      0.000      0.000
  Name = 
  2 active torsions:
  status: ('A' for Active; 'I' for Inactive)
    1  A    between atoms: C_1  and  C_22
    2  A    between atoms: S_11  and  C_25
                            x       y       z     vdW  Elec       q    Type
                         _______ _______ _______ _____ _____    ______ ____

>  <TORSDO>
F 2

$$$$
=
 OpenBabel11052412173D

 30 34  0  0  1  0  0  0  0  0999 V2000
  185.7790  178.3560  142.2300 C   0  0  0  0  0  0  0  0  0  0  0  0
  184.5550  178.2660  141.5170 C   0  0  0  0  0  0  0  0  0  0  0  0
  186.9990  178.4590  141.5400 C   0  0  0  0  0  3  0  0  0  0  0  0
  186.1590  178.3620  137.8010 S   0  0  0  0  0  0  0  0  0  0  0  0
  182.2970  177.0460  139.8370 C   0  0  1  0  0  3  0  0  0  0  0  0
  185.8040  178.3700  139.4490 C   0  0  0  0  0  0  0  0  0  0  0  0
  188.1190  178.5530  139.3940 N   0  0  0  0  0  0  0  0  0  0  0  0
  181.4080  177.6580  140.9110 C   0  0  2  0  0  3  0  0  0  0  0  0
  186.9940  178.4720  140.1510 C   0  0  0  0  0  0  0  0  0  0  0  0
  184.5640  178.2450  140.0940 C   0  0  0  0  0  0  0  0  0  0  0  0
  180.2260  178.2330  140.1620 C   0  0  0  0  0  2  0  0  0  0  0  0
  181.3440  176.5990  138.7370 C   0  0  0  0  0  2  0  0  0  0  0  0
  188.8450  178.5720  137.0040 C   0  0  0  0  0  1  0  0  0  0  0  0
  187.8180  178.5090  138.0760 C   0  0  0  0  0  0  0  0  0  0  0  0
  183.3640  178.2030  142.2570 O   0  0  0  0  0  0  0  0  0  0  0  0
  182.1100  178.6990  141.7950 C   0  0  2  0  0  3  0  0  0  0  0  0
  180.0220  177.3140  138.9760 C   0  0  0  0  0  2  0  0  0  0  0  0
  183.1320  178.6510  138.2440 O   0  0  0  0  0  0  0  0  0  0  0  0
  183.3300  178.0160  139.3170 C   0  0  0  0  0  0  0  0  0  0  0  0
  186.5460  177.4250  144.4350 C   0  0  0  0  0  0  0  0  0  0  0  0
  186.5530  177.4570  145.8330 C   0  0  0  0  0  3  0  0  0  0  0  0
  187.2800  176.4020  143.7650 N   0  0  0  0  0  1  0  0  0  0  0  0
  185.0760  179.3600  144.4120 C   0  0  0  0  0  0  0  0  0  0  0  0
  185.8290  178.4340  146.5180 C   0  0  0  0  0  3  0  0  0  0  0  0
  185.7990  178.3770  143.7090 C   0  0  0  0  0  0  0  0  0  0  0  0
  185.0930  179.3840  145.8080 C   0  0  0  0  0  3  0  0  0  0  0  0
  184.3730  180.3120  143.7470 F   0  0  0  0  0  0  0  0  0  0  0  0
  180.2240  177.9350  143.4930 O   0  0  0  0  0  0  0  0  0  0  0  0
  181.1100  179.1480  143.2380 S   0  0  2  0  0  0  0  0  0  0  0  0
  179.9630  180.4050  142.6480 C   0  0  0  0  0  1  0  0  0  0  0  0
  1 25  1  0  0  0  0
  2  1  2  0  0  0  0
  2 15  1  0  0  0  0
  3  1  1  0  0  0  0
  4 14  1  0  0  0  0
  4  6  1  0  0  0  0
  5 12  1  6  0  0  0
  5  8  1  0  0  0  0
  6 10  2  0  0  0  0
  6  9  1  0  0  0  0
  7  9  1  0  0  0  0
  8 11  1  6  0  0  0
  8 16  1  0  0  0  0
  9  3  2  0  0  0  0
 10  2  1  0  0  0  0
 12 17  1  0  0  0  0
 13 14  1  0  0  0  0
 14  7  2  0  0  0  0
 16 15  1  0  0  0  0
 16 29  1  1  0  0  0
 17 11  1  0  0  0  0
 18 19  2  0  0  0  0
 19  5  1  0  0  0  0
 19 10  1  0  0  0  0
 20 21  1  0  0  0  0
 21 24  2  0  0  0  0
 22 20  1  0  0  0  0
 23 26  2  0  0  0  0
 25 23  1  0  0  0  0
 25 20  2  0  0  0  0
 26 24  1  0  0  0  0
 27 23  1  0  0  0  0
 29 30  1  6  0  0  0
 29 28  2  0  0  0  0
M  END
>  <MODEL>
2

>  <REMARK>
 VINA RESULT:      -8.8      3.112      6.010
  Name = 
  2 active torsions:
  status: ('A' for Active; 'I' for Inactive)
    1  A    between atoms: C_1  and  C_22
    2  A    between atoms: S_11  and  C_25
                            x       y       z     vdW  Elec       q    Type
                         _______ _______ _______ _____ _____    ______ ____

>  <TORSDO>
F 2

$$$$
=
 OpenBabel11052412173D

 30 34  0  0  1  0  0  0  0  0999 V2000
  183.6260  179.2110  139.2150 C   0  0  0  0  0  0  0  0  0  0  0  0
  183.7810  179.0350  140.6150 C   0  0  0  0  0  0  0  0  0  0  0  0
  184.7120  179.0060  138.3470 C   0  0  0  0  0  3  0  0  0  0  0  0
  187.7110  178.0640  140.5410 S   0  0  0  0  0  0  0  0  0  0  0  0
  184.6190  179.6280  143.5050 C   0  0  1  0  0  3  0  0  0  0  0  0
  186.1020  178.4680  140.2410 C   0  0  0  0  0  0  0  0  0  0  0  0
  187.0510  178.4210  138.1220 N   0  0  0  0  0  0  0  0  0  0  0  0
  183.1710  179.2670  143.8110 C   0  0  2  0  0  3  0  0  0  0  0  0
  185.9400  178.6280  138.8740 C   0  0  0  0  0  0  0  0  0  0  0  0
  185.0530  178.6820  141.1480 C   0  0  0  0  0  0  0  0  0  0  0  0
  183.2310  178.4430  145.0780 C   0  0  0  0  0  2  0  0  0  0  0  0
  185.3050  179.7110  144.8620 C   0  0  0  0  0  2  0  0  0  0  0  0
  189.4640  177.8190  138.3590 C   0  0  0  0  0  1  0  0  0  0  0  0
  188.1090  178.0980  138.9010 C   0  0  0  0  0  0  0  0  0  0  0  0
  182.6530  179.2170  141.4310 O   0  0  0  0  0  0  0  0  0  0  0  0
  182.4470  178.5400  142.6690 C   0  0  2  0  0  3  0  0  0  0  0  0
  184.4010  179.0040  145.8620 C   0  0  0  0  0  2  0  0  0  0  0  0
  186.0240  177.7160  143.0860 O   0  0  0  0  0  0  0  0  0  0  0  0
  185.2900  178.6220  142.6040 C   0  0  0  0  0  0  0  0  0  0  0  0
  181.3600  178.5920  138.3210 C   0  0  0  0  0  0  0  0  0  0  0  0
  180.1270  178.9600  137.7730 C   0  0  0  0  0  3  0  0  0  0  0  0
  181.6380  177.2100  138.5290 N   0  0  0  0  0  1  0  0  0  0  0  0
  182.0050  180.9350  138.3990 C   0  0  0  0  0  0  0  0  0  0  0  0
  179.8310  180.3040  137.5390 C   0  0  0  0  0  3  0  0  0  0  0  0
  182.3160  179.5810  138.6350 C   0  0  0  0  0  0  0  0  0  0  0  0
  180.7690  181.2890  137.8530 C   0  0  0  0  0  3  0  0  0  0  0  0
  182.8870  181.9150  138.7190 F   0  0  0  0  0  0  0  0  0  0  0  0
  180.1030  177.7480  141.7180 O   0  0  0  0  0  0  0  0  0  0  0  0
  180.6630  178.4260  142.9630 S   0  0  2  0  0  0  0  0  0  0  0  0
  180.0520  180.1150  142.8460 C   0  0  0  0  0  1  0  0  0  0  0  0
  1  2  1  0  0  0  0
  2 10  2  0  0  0  0
  2 15  1  0  0  0  0
  3  9  1  0  0  0  0
  3  1  2  0  0  0  0
  5  8  1  0  0  0  0
  5 12  1  1  0  0  0
  6  4  1  0  0  0  0
  6 10  1  0  0  0  0
  7  9  1  0  0  0  0
  7 14  2  0  0  0  0
  8 11  1  1  0  0  0
  9  6  2  0  0  0  0
 10 19  1  0  0  0  0
 11 17  1  0  0  0  0
 12 17  1  0  0  0  0
 13 14  1  0  0  0  0
 14  4  1  0  0  0  0
 15 16  1  0  0  0  0
 16 29  1  1  0  0  0
 16  8  1  0  0  0  0
 19 18  2  0  0  0  0
 19  5  1  0  0  0  0
 20 22  1  0  0  0  0
 20 25  1  0  0  0  0
 21 20  2  0  0  0  0
 23 25  2  0  0  0  0
 23 27  1  0  0  0  0
 24 21  1  0  0  0  0
 24 26  2  0  0  0  0
 25  1  1  0  0  0  0
 26 23  1  0  0  0  0
 28 29  2  0  0  0  0
 29 30  1  6  0  0  0
M  END
>  <MODEL>
3

>  <REMARK>
 VINA RESULT:      -8.6      3.459      5.136
  Name = 
  2 active torsions:
  status: ('A' for Active; 'I' for Inactive)
    1  A    between atoms: C_1  and  C_22
    2  A    between atoms: S_11  and  C_25
                            x       y       z     vdW  Elec       q    Type
                         _______ _______ _______ _____ _____    ______ ____

>  <TORSDO>
F 2

$$$$
=
 OpenBabel11052412173D

 30 34  0  0  1  0  0  0  0  0999 V2000
  189.4770  177.4330  142.3100 C   0  0  0  0  0  0  0  0  0  0  0  0
  188.1330  177.8550  142.4830 C   0  0  0  0  0  0  0  0  0  0  0  0
  190.0650  177.4340  141.0350 C   0  0  0  0  0  3  0  0  0  0  0  0
  187.3760  178.6410  138.5840 S   0  0  0  0  0  0  0  0  0  0  0  0
  185.0670  177.7650  142.4170 C   0  0  1  0  0  3  0  0  0  0  0  0
  187.9990  178.2530  140.1010 C   0  0  0  0  0  0  0  0  0  0  0  0
  189.7890  177.8760  138.6690 N   0  0  0  0  0  0  0  0  0  0  0  0
  185.2000  178.2330  143.8610 C   0  0  2  0  0  3  0  0  0  0  0  0
  189.3170  177.8530  139.9420 C   0  0  0  0  0  0  0  0  0  0  0  0
  187.3630  178.2490  141.3520 C   0  0  0  0  0  0  0  0  0  0  0  0
  184.1150  179.2710  144.0400 C   0  0  0  0  0  2  0  0  0  0  0  0
  183.5870  177.9050  142.0880 C   0  0  0  0  0  2  0  0  0  0  0  0
  189.0560  178.4170  136.3430 C   0  0  0  0  0  1  0  0  0  0  0  0
  188.8340  178.2940  137.8070 C   0  0  0  0  0  0  0  0  0  0  0  0
  187.6080  177.8690  143.7850 O   0  0  0  0  0  0  0  0  0  0  0  0
  186.5930  178.7670  144.2260 C   0  0  2  0  0  3  0  0  0  0  0  0
  182.9800  178.8170  143.1440 C   0  0  0  0  0  2  0  0  0  0  0  0
  185.4320  179.5130  140.7990 O   0  0  0  0  0  0  0  0  0  0  0  0
  185.9260  178.5640  141.4680 C   0  0  0  0  0  0  0  0  0  0  0  0
  190.8010  177.9670  144.3790 C   0  0  0  0  0  0  0  0  0  0  0  0
  191.5760  177.5550  145.4670 C   0  0  0  0  0  3  0  0  0  0  0  0
  190.5550  179.3590  144.1950 N   0  0  0  0  0  1  0  0  0  0  0  0
  190.5770  175.6500  143.6800 C   0  0  0  0  0  0  0  0  0  0  0  0
  191.8500  176.2000  145.6650 C   0  0  0  0  0  3  0  0  0  0  0  0
  190.2980  177.0140  143.4680 C   0  0  0  0  0  0  0  0  0  0  0  0
  191.3500  175.2510  144.7730 C   0  0  0  0  0  3  0  0  0  0  0  0
  190.0830  174.7030  142.8440 F   0  0  0  0  0  0  0  0  0  0  0  0
  187.9130  178.0660  146.4150 O   0  0  0  0  0  0  0  0  0  0  0  0
  186.7810  179.0030  146.0130 S   0  0  2  0  0  0  0  0  0  0  0  0
  185.3180  178.2530  146.7480 C   0  0  0  0  0  1  0  0  0  0  0  0
  1  2  1  0  0  0  0
  1 25  1  0  0  0  0
  2 15  1  0  0  0  0
  3  1  2  0  0  0  0
  4  6  1  0  0  0  0
  5 12  1  6  0  0  0
  5  8  1  0  0  0  0
  6 10  1  0  0  0  0
  7  9  1  0  0  0  0
  8 11  1  6  0  0  0
  8 16  1  0  0  0  0
  9  6  2  0  0  0  0
  9  3  1  0  0  0  0
 10 19  1  0  0  0  0
 10  2  2  0  0  0  0
 12 17  1  0  0  0  0
 13 14  1  0  0  0  0
 14  4  1  0  0  0  0
 14  7  2  0  0  0  0
 15 16  1  0  0  0  0
 16 29  1  1  0  0  0
 17 11  1  0  0  0  0
 18 19  2  0  0  0  0
 19  5  1  0  0  0  0
 20 21  1  0  0  0  0
 21 24  2  0  0  0  0
 22 20  1  0  0  0  0
 23 26  2  0  0  0  0
 25 23  1  0  0  0  0
 25 20  2  0  0  0  0
 26 24  1  0  0  0  0
 27 23  1  0  0  0  0
 29 28  2  0  0  0  0
 29 30  1  1  0  0  0
M  END
>  <MODEL>
4

>  <REMARK>
 VINA RESULT:      -8.5      2.389      5.488
  Name = 
  2 active torsions:
  status: ('A' for Active; 'I' for Inactive)
    1  A    between atoms: C_1  and  C_22
    2  A    between atoms: S_11  and  C_25
                            x       y       z     vdW  Elec       q    Type
                         _______ _______ _______ _____ _____    ______ ____

>  <TORSDO>
F 2

$$$$
=
 OpenBabel11052412173D

 30 34  0  0  1  0  0  0  0  0999 V2000
  187.2310  177.7850  142.4460 C   0  0  0  0  0  0  0  0  0  0  0  0
  187.4730  177.9290  143.8370 C   0  0  0  0  0  0  0  0  0  0  0  0
  185.9470  178.0080  141.9200 C   0  0  0  0  0  3  0  0  0  0  0  0
  183.6820  178.8920  144.8840 S   0  0  0  0  0  0  0  0  0  0  0  0
  187.4710  177.2690  146.8320 C   0  0  1  0  0  3  0  0  0  0  0  0
  185.1420  178.4990  144.1380 C   0  0  0  0  0  0  0  0  0  0  0  0
  183.6400  178.5920  142.3690 N   0  0  0  0  0  0  0  0  0  0  0  0
  188.9490  177.6270  146.7300 C   0  0  2  0  0  3  0  0  0  0  0  0
  184.9160  178.3710  142.7770 C   0  0  0  0  0  0  0  0  0  0  0  0
  186.4020  178.2670  144.7110 C   0  0  0  0  0  0  0  0  0  0  0  0
  189.2480  178.4210  147.9820 C   0  0  0  0  0  2  0  0  0  0  0  0
  187.1910  177.1540  148.3250 C   0  0  0  0  0  2  0  0  0  0  0  0
  181.3910  179.1830  143.2840 C   0  0  0  0  0  1  0  0  0  0  0  0
  182.8430  178.8950  143.4190 C   0  0  0  0  0  0  0  0  0  0  0  0
  188.7830  177.7320  144.3020 O   0  0  0  0  0  0  0  0  0  0  0  0
  189.3290  178.3800  145.4480 C   0  0  2  0  0  3  0  0  0  0  0  0
  188.3400  177.8400  149.0480 C   0  0  0  0  0  2  0  0  0  0  0  0
  186.0130  179.1870  146.8650 O   0  0  0  0  0  0  0  0  0  0  0  0
  186.5800  178.2940  146.1770 C   0  0  0  0  0  0  0  0  0  0  0  0
  188.3800  177.9880  140.2200 C   0  0  0  0  0  0  0  0  0  0  0  0
  189.4210  177.6410  139.3520 C   0  0  0  0  0  3  0  0  0  0  0  0
  187.3710  178.8850  139.7630 N   0  0  0  0  0  1  0  0  0  0  0  0
  189.3350  176.5370  141.9210 C   0  0  0  0  0  0  0  0  0  0  0  0
  190.4140  176.7510  139.7640 C   0  0  0  0  0  3  0  0  0  0  0  0
  188.3250  177.4310  141.5150 C   0  0  0  0  0  0  0  0  0  0  0  0
  190.3710  176.2010  141.0460 C   0  0  0  0  0  3  0  0  0  0  0  0
  189.3330  176.0080  143.1700 F   0  0  0  0  0  0  0  0  0  0  0  0
  191.3260  178.7950  143.7560 O   0  0  0  0  0  0  0  0  0  0  0  0
  191.1250  178.4920  145.2350 S   0  0  2  0  0  0  0  0  0  0  0  0
  191.7310  176.8070  145.4180 C   0  0  0  0  0  1  0  0  0  0  0  0
  1  2  1  0  0  0  0
  2 15  1  0  0  0  0
  2 10  2  0  0  0  0
  3  1  2  0  0  0  0
  3  9  1  0  0  0  0
  5 12  1  1  0  0  0
  6 10  1  0  0  0  0
  6  4  1  0  0  0  0
  7  9  1  0  0  0  0
  7 14  2  0  0  0  0
  8  5  1  0  0  0  0
  8 11  1  1  0  0  0
  9  6  2  0  0  0  0
 10 19  1  0  0  0  0
 11 17  1  0  0  0  0
 12 17  1  0  0  0  0
 13 14  1  0  0  0  0
 14  4  1  0  0  0  0
 15 16  1  0  0  0  0
 16 29  1  6  0  0  0
 16  8  1  0  0  0  0
 19  5  1  0  0  0  0
 19 18  2  0  0  0  0
 20 25  1  0  0  0  0
 21 24  1  0  0  0  0
 21 20  2  0  0  0  0
 22 20  1  0  0  0  0
 23 27  1  0  0  0  0
 24 26  2  0  0  0  0
 25 23  2  0  0  0  0
 25  1  1  0  0  0  0
 26 23  1  0  0  0  0
 28 29  2  0  0  0  0
 29 30  1  6  0  0  0
M  END
>  <MODEL>
5

>  <REMARK>
 VINA RESULT:      -8.5      2.283      5.604
  Name = 
  2 active torsions:
  status: ('A' for Active; 'I' for Inactive)
    1  A    between atoms: C_1  and  C_22
    2  A    between atoms: S_11  and  C_25
                            x       y       z     vdW  Elec       q    Type
                         _______ _______ _______ _____ _____    ______ ____

>  <TORSDO>
F 2

$$$$
=
 OpenBabel11052412173D

 30 34  0  0  1  0  0  0  0  0999 V2000
  188.6050  177.2820  139.3930 C   0  0  0  0  0  0  0  0  0  0  0  0
  188.4540  177.4390  140.7960 C   0  0  0  0  0  0  0  0  0  0  0  0
  187.5990  177.7210  138.5160 C   0  0  0  0  0  3  0  0  0  0  0  0
  184.7850  179.1490  140.6930 S   0  0  0  0  0  0  0  0  0  0  0  0
  187.4500  176.9220  143.6480 C   0  0  1  0  0  3  0  0  0  0  0  0
  186.2940  178.4530  140.4050 C   0  0  0  0  0  0  0  0  0  0  0  0
  185.4210  178.7530  138.2730 N   0  0  0  0  0  0  0  0  0  0  0  0
  188.9320  176.9880  143.9910 C   0  0  2  0  0  3  0  0  0  0  0  0
  186.4540  178.3110  139.0350 C   0  0  0  0  0  0  0  0  0  0  0  0
  187.2610  178.0120  141.3210 C   0  0  0  0  0  0  0  0  0  0  0  0
  189.0020  177.7650  145.2860 C   0  0  0  0  0  2  0  0  0  0  0  0
  186.7290  176.9280  144.9890 C   0  0  0  0  0  2  0  0  0  0  0  0
  183.1630  179.8000  138.4930 C   0  0  0  0  0  1  0  0  0  0  0  0
  184.4270  179.2470  139.0460 C   0  0  0  0  0  0  0  0  0  0  0  0
  189.5060  177.0160  141.6240 O   0  0  0  0  0  0  0  0  0  0  0  0
  189.8090  177.5980  142.8890 C   0  0  2  0  0  3  0  0  0  0  0  0
  187.7280  177.4140  146.0290 C   0  0  0  0  0  2  0  0  0  0  0  0
  186.4470  179.0820  143.2770 O   0  0  0  0  0  0  0  0  0  0  0  0
  187.0050  178.0680  142.7730 C   0  0  0  0  0  0  0  0  0  0  0  0
  189.7570  175.6020  137.9210 C   0  0  0  0  0  0  0  0  0  0  0  0
  190.9270  175.0500  137.3900 C   0  0  0  0  0  3  0  0  0  0  0  0
  188.5000  175.0360  137.5580 N   0  0  0  0  0  1  0  0  0  0  0  0
  191.0960  177.2060  139.1640 C   0  0  0  0  0  0  0  0  0  0  0  0
  192.1740  175.5700  137.7410 C   0  0  0  0  0  3  0  0  0  0  0  0
  189.8320  176.6860  138.8210 C   0  0  0  0  0  0  0  0  0  0  0  0
  192.2570  176.6460  138.6250 C   0  0  0  0  0  3  0  0  0  0  0  0
  191.2050  178.2680  140.0010 F   0  0  0  0  0  0  0  0  0  0  0  0
  191.6350  176.2110  144.2170 O   0  0  0  0  0  0  0  0  0  0  0  0
  191.5750  177.3580  143.2160 S   0  0  2  0  0  0  0  0  0  0  0  0
  192.0810  178.7950  144.1750 C   0  0  0  0  0  1  0  0  0  0  0  0
  1  2  1  0  0  0  0
  2 10  2  0  0  0  0
  2 15  1  0  0  0  0
  3  9  1  0  0  0  0
  3  1  2  0  0  0  0
  5  8  1  0  0  0  0
  5 12  1  1  0  0  0
  6  4  1  0  0  0  0
  6 10  1  0  0  0  0
  7  9  1  0  0  0  0
  7 14  2  0  0  0  0
  8 11  1  1  0  0  0
  9  6  2  0  0  0  0
 10 19  1  0  0  0  0
 11 17  1  0  0  0  0
 12 17  1  0  0  0  0
 13 14  1  0  0  0  0
 14  4  1  0  0  0  0
 15 16  1  0  0  0  0
 16 29  1  1  0  0  0
 16  8  1  0  0  0  0
 19 18  2  0  0  0  0
 19  5  1  0  0  0  0
 20 25  1  0  0  0  0
 21 24  1  0  0  0  0
 21 20  2  0  0  0  0
 22 20  1  0  0  0  0
 23 27  1  0  0  0  0
 24 26  2  0  0  0  0
 25 23  2  0  0  0  0
 25  1  1  0  0  0  0
 26 23  1  0  0  0  0
 29 30  1  1  0  0  0
 29 28  2  0  0  0  0
M  END
>  <MODEL>
6

>  <REMARK>
 VINA RESULT:      -8.3      2.793      5.657
  Name = 
  2 active torsions:
  status: ('A' for Active; 'I' for Inactive)
    1  A    between atoms: C_1  and  C_22
    2  A    between atoms: S_11  and  C_25
                            x       y       z     vdW  Elec       q    Type
                         _______ _______ _______ _____ _____    ______ ____

>  <TORSDO>
F 2

$$$$
=
 OpenBabel11052412173D

 30 34  0  0  1  0  0  0  0  0999 V2000
  186.9560  177.7890  138.7190 C   0  0  0  0  0  0  0  0  0  0  0  0
  187.1700  177.8830  140.1200 C   0  0  0  0  0  0  0  0  0  0  0  0
  185.7280  178.1790  138.1600 C   0  0  0  0  0  3  0  0  0  0  0  0
  183.5000  179.3050  141.0680 S   0  0  0  0  0  0  0  0  0  0  0  0
  186.9900  177.1890  143.1020 C   0  0  1  0  0  3  0  0  0  0  0  0
  184.9220  178.7390  140.3600 C   0  0  0  0  0  0  0  0  0  0  0  0
  183.5000  179.0450  138.5490 N   0  0  0  0  0  0  0  0  0  0  0  0
  188.5030  177.3590  143.0500 C   0  0  2  0  0  3  0  0  0  0  0  0
  184.7240  178.6580  138.9910 C   0  0  0  0  0  0  0  0  0  0  0  0
  186.1230  178.3430  140.9670 C   0  0  0  0  0  0  0  0  0  0  0  0
  188.8600  178.0930  144.3240 C   0  0  0  0  0  2  0  0  0  0  0  0
  186.6500  177.0920  144.5830 C   0  0  0  0  0  2  0  0  0  0  0  0
  181.3160  179.9040  139.4060 C   0  0  0  0  0  1  0  0  0  0  0  0
  182.7140  179.4330  139.5800 C   0  0  0  0  0  0  0  0  0  0  0  0
  188.4290  177.5150  140.6210 O   0  0  0  0  0  0  0  0  0  0  0  0
  189.0160  178.0750  141.7930 C   0  0  2  0  0  3  0  0  0  0  0  0
  187.8530  177.6180  145.3520 C   0  0  0  0  0  2  0  0  0  0  0  0
  185.7850  179.2770  143.1230 O   0  0  0  0  0  0  0  0  0  0  0  0
  186.2560  178.3270  142.4370 C   0  0  0  0  0  0  0  0  0  0  0  0
  189.0490  178.1820  137.3840 C   0  0  0  0  0  0  0  0  0  0  0  0
  190.0520  177.7140  136.5300 C   0  0  0  0  0  3  0  0  0  0  0  0
  189.0650  179.5500  137.7840 N   0  0  0  0  0  1  0  0  0  0  0  0
  188.0400  175.9700  137.3860 C   0  0  0  0  0  0  0  0  0  0  0  0
  190.0540  176.3840  136.1060 C   0  0  0  0  0  3  0  0  0  0  0  0
  188.0260  177.3110  137.8160 C   0  0  0  0  0  0  0  0  0  0  0  0
  189.0500  175.5140  136.5340 C   0  0  0  0  0  3  0  0  0  0  0  0
  187.0920  175.0960  137.8070 F   0  0  0  0  0  0  0  0  0  0  0  0
  191.0570  177.4720  140.2130 O   0  0  0  0  0  0  0  0  0  0  0  0
  190.8170  177.9610  141.6360 S   0  0  2  0  0  0  0  0  0  0  0  0
  191.2970  176.5610  142.6610 C   0  0  0  0  0  1  0  0  0  0  0  0
  1  2  1  0  0  0  0
  2 15  1  0  0  0  0
  2 10  2  0  0  0  0
  3  1  2  0  0  0  0
  3  9  1  0  0  0  0
  5 12  1  1  0  0  0
  6 10  1  0  0  0  0
  6  4  1  0  0  0  0
  7  9  1  0  0  0  0
  7 14  2  0  0  0  0
  8  5  1  0  0  0  0
  8 11  1  1  0  0  0
  9  6  2  0  0  0  0
 10 19  1  0  0  0  0
 11 17  1  0  0  0  0
 12 17  1  0  0  0  0
 13 14  1  0  0  0  0
 14  4  1  0  0  0  0
 15 16  1  0  0  0  0
 16 29  1  6  0  0  0
 16  8  1  0  0  0  0
 19  5  1  0  0  0  0
 19 18  2  0  0  0  0
 20 22  1  0  0  0  0
 20 25  1  0  0  0  0
 21 20  2  0  0  0  0
 23 27  1  0  0  0  0
 23 25  2  0  0  0  0
 24 21  1  0  0  0  0
 24 26  2  0  0  0  0
 25  1  1  0  0  0  0
 26 23  1  0  0  0  0
 28 29  2  0  0  0  0
 29 30  1  1  0  0  0
M  END
>  <MODEL>
7

>  <REMARK>
 VINA RESULT:      -8.2      2.705      5.903
  Name = 
  2 active torsions:
  status: ('A' for Active; 'I' for Inactive)
    1  A    between atoms: C_1  and  C_22
    2  A    between atoms: S_11  and  C_25
                            x       y       z     vdW  Elec       q    Type
                         _______ _______ _______ _____ _____    ______ ____

>  <TORSDO>
F 2

$$$$
=
 OpenBabel11052412173D

 30 34  0  0  1  0  0  0  0  0999 V2000
  188.3790  177.8900  142.1940 C   0  0  0  0  0  0  0  0  0  0  0  0
  187.0270  178.1840  141.8730 C   0  0  0  0  0  0  0  0  0  0  0  0
  189.3380  177.7540  141.1760 C   0  0  0  0  0  3  0  0  0  0  0  0
  187.4950  178.2530  137.8520 S   0  0  0  0  0  0  0  0  0  0  0  0
  184.1490  177.7480  140.9080 C   0  0  1  0  0  3  0  0  0  0  0  0
  187.6290  178.1820  139.5310 C   0  0  0  0  0  0  0  0  0  0  0  0
  189.7970  177.7820  138.7980 N   0  0  0  0  0  0  0  0  0  0  0  0
  183.7940  178.4510  142.2120 C   0  0  2  0  0  3  0  0  0  0  0  0
  188.9500  177.9090  139.8520 C   0  0  0  0  0  0  0  0  0  0  0  0
  186.6330  178.3060  140.5110 C   0  0  0  0  0  0  0  0  0  0  0  0
  182.6520  179.3780  141.8610 C   0  0  0  0  0  2  0  0  0  0  0  0
  182.8430  177.6700  140.1290 C   0  0  0  0  0  2  0  0  0  0  0  0
  189.8050  177.8620  136.3010 C   0  0  0  0  0  1  0  0  0  0  0  0
  189.1400  177.9500  137.6270 C   0  0  0  0  0  0  0  0  0  0  0  0
  186.1190  178.3470  142.9320 O   0  0  0  0  0  0  0  0  0  0  0  0
  184.9690  179.1860  142.8730 C   0  0  2  0  0  3  0  0  0  0  0  0
  181.8840  178.6660  140.7660 C   0  0  0  0  0  2  0  0  0  0  0  0
  184.9070  179.2470  139.1790 O   0  0  0  0  0  0  0  0  0  0  0  0
  185.2170  178.4750  140.1290 C   0  0  0  0  0  0  0  0  0  0  0  0
  189.9090  178.4970  144.0930 C   0  0  0  0  0  0  0  0  0  0  0  0
  190.3090  178.3550  145.4260 C   0  0  0  0  0  3  0  0  0  0  0  0
  190.6400  179.3780  143.2440 N   0  0  0  0  0  1  0  0  0  0  0  0
  188.1310  176.8830  144.4710 C   0  0  0  0  0  0  0  0  0  0  0  0
  189.6260  177.4860  146.2780 C   0  0  0  0  0  3  0  0  0  0  0  0
  188.8150  177.7530  143.6010 C   0  0  0  0  0  0  0  0  0  0  0  0
  188.5390  176.7530  145.8010 C   0  0  0  0  0  3  0  0  0  0  0  0
  187.0540  176.1770  144.0420 F   0  0  0  0  0  0  0  0  0  0  0  0
  185.7570  179.2720  145.4030 O   0  0  0  0  0  0  0  0  0  0  0  0
  184.5710  179.7220  144.5580 S   0  0  2  0  0  0  0  0  0  0  0  0
  183.2270  178.6490  145.0930 C   0  0  0  0  0  1  0  0  0  0  0  0
  1 25  1  0  0  0  0
  2  1  1  0  0  0  0
  2 15  1  0  0  0  0
  3  1  2  0  0  0  0
  4  6  1  0  0  0  0
  5 12  1  6  0  0  0
  5  8  1  0  0  0  0
  6  9  2  0  0  0  0
  6 10  1  0  0  0  0
  7  9  1  0  0  0  0
  8 11  1  6  0  0  0
  8 16  1  0  0  0  0
  9  3  1  0  0  0  0
 10  2  2  0  0  0  0
 12 17  1  0  0  0  0
 13 14  1  0  0  0  0
 14  4  1  0  0  0  0
 14  7  2  0  0  0  0
 16 15  1  0  0  0  0
 16 29  1  1  0  0  0
 17 11  1  0  0  0  0
 18 19  2  0  0  0  0
 19 10  1  0  0  0  0
 19  5  1  0  0  0  0
 20 21  1  0  0  0  0
 21 24  2  0  0  0  0
 22 20  1  0  0  0  0
 23 26  2  0  0  0  0
 25 20  2  0  0  0  0
 25 23  1  0  0  0  0
 26 24  1  0  0  0  0
 27 23  1  0  0  0  0
 29 30  1  1  0  0  0
 29 28  2  0  0  0  0
M  END
>  <MODEL>
8

>  <REMARK>
 VINA RESULT:      -8.2      2.190      5.383
  Name = 
  2 active torsions:
  status: ('A' for Active; 'I' for Inactive)
    1  A    between atoms: C_1  and  C_22
    2  A    between atoms: S_11  and  C_25
                            x       y       z     vdW  Elec       q    Type
                         _______ _______ _______ _____ _____    ______ ____

>  <TORSDO>
F 2

$$$$
=
 OpenBabel11052412173D

 30 34  0  0  1  0  0  0  0  0999 V2000
  188.3750  176.7490  137.6130 C   0  0  0  0  0  0  0  0  0  0  0  0
  188.9140  176.9800  138.9060 C   0  0  0  0  0  0  0  0  0  0  0  0
  187.0910  177.2170  137.2840 C   0  0  0  0  0  3  0  0  0  0  0  0
  185.7070  178.9340  140.4190 S   0  0  0  0  0  0  0  0  0  0  0  0
  189.3650  176.6640  141.9230 C   0  0  1  0  0  3  0  0  0  0  0  0
  186.8700  178.1230  139.5060 C   0  0  0  0  0  0  0  0  0  0  0  0
  185.1020  178.3840  138.0220 N   0  0  0  0  0  0  0  0  0  0  0  0
  190.8340  176.6430  141.5210 C   0  0  2  0  0  3  0  0  0  0  0  0
  186.3550  177.9070  138.2370 C   0  0  0  0  0  0  0  0  0  0  0  0
  188.1370  177.6570  139.8870 C   0  0  0  0  0  0  0  0  0  0  0  0
  191.5410  177.4720  142.5710 C   0  0  0  0  0  2  0  0  0  0  0  0
  189.3690  176.7820  143.4420 C   0  0  0  0  0  2  0  0  0  0  0  0
  183.2620  179.5950  139.2030 C   0  0  0  0  0  1  0  0  0  0  0  0
  184.6150  178.9810  139.1340 C   0  0  0  0  0  0  0  0  0  0  0  0
  190.2160  176.5230  139.1680 O   0  0  0  0  0  0  0  0  0  0  0  0
  191.1060  177.1400  140.0950 C   0  0  2  0  0  3  0  0  0  0  0  0
  190.7600  177.2440  143.8490 C   0  0  0  0  0  2  0  0  0  0  0  0
  188.3930  178.8690  141.9120 O   0  0  0  0  0  0  0  0  0  0  0  0
  188.6040  177.7970  141.2810 C   0  0  0  0  0  0  0  0  0  0  0  0
  189.1950  174.6340  136.5310 C   0  0  0  0  0  0  0  0  0  0  0  0
  189.9420  173.9830  135.5450 C   0  0  0  0  0  3  0  0  0  0  0  0
  188.4990  173.8510  137.4980 N   0  0  0  0  0  1  0  0  0  0  0  0
  189.8730  176.7780  135.6090 C   0  0  0  0  0  0  0  0  0  0  0  0
  190.6500  174.7210  134.5950 C   0  0  0  0  0  3  0  0  0  0  0  0
  189.1590  176.0440  136.5750 C   0  0  0  0  0  0  0  0  0  0  0  0
  190.6140  176.1160  134.6270 C   0  0  0  0  0  3  0  0  0  0  0  0
  189.8360  178.1350  135.6010 F   0  0  0  0  0  0  0  0  0  0  0  0
  193.5150  178.1390  139.6250 O   0  0  0  0  0  0  0  0  0  0  0  0
  192.8040  176.7930  139.5680 S   0  0  2  0  0  0  0  0  0  0  0  0
  192.6930  176.4370  137.8060 C   0  0  0  0  0  1  0  0  0  0  0  0
  1  2  1  0  0  0  0
  2 15  1  0  0  0  0
  2 10  2  0  0  0  0
  3  1  2  0  0  0  0
  3  9  1  0  0  0  0
  5 12  1  1  0  0  0
  6 10  1  0  0  0  0
  6  4  1  0  0  0  0
  7  9  1  0  0  0  0
  7 14  2  0  0  0  0
  8  5  1  0  0  0  0
  8 11  1  1  0  0  0
  9  6  2  0  0  0  0
 10 19  1  0  0  0  0
 11 17  1  0  0  0  0
 12 17  1  0  0  0  0
 14 13  1  0  0  0  0
 14  4  1  0  0  0  0
 15 16  1  0  0  0  0
 16 29  1  6  0  0  0
 16  8  1  0  0  0  0
 19 18  2  0  0  0  0
 19  5  1  0  0  0  0
 20 25  1  0  0  0  0
 20 22  1  0  0  0  0
 21 20  2  0  0  0  0
 23 25  2  0  0  0  0
 24 26  2  0  0  0  0
 24 21  1  0  0  0  0
 25  1  1  0  0  0  0
 26 23  1  0  0  0  0
 27 23  1  0  0  0  0
 29 30  1  6  0  0  0
 29 28  2  0  0  0  0
M  END
>  <MODEL>
9

>  <REMARK>
 VINA RESULT:      -7.8      3.372      6.769
  Name = 
  2 active torsions:
  status: ('A' for Active; 'I' for Inactive)
    1  A    between atoms: C_1  and  C_22
    2  A    between atoms: S_11  and  C_25
                            x       y       z     vdW  Elec       q    Type
                         _______ _______ _______ _____ _____    ______ ____

>  <TORSDO>
F 2

$$$$
