=
 OpenBabel11052414473D

 32 34  0  0  1  0  0  0  0  0999 V2000
  188.9580  178.3170  143.3620 O   0  0  0  0  0  0  0  0  0  0  0  0
  190.1930  177.8950  142.8630 C   0  0  0  0  0  2  0  0  0  0  0  0
  190.0140  176.7600  141.8620 C   0  0  2  0  0  3  0  0  0  0  0  0
  190.3220  175.5260  142.4430 O   0  0  0  0  0  1  0  0  0  0  0  0
  190.7870  176.9870  140.5570 C   0  0  2  0  0  3  0  0  0  0  0  0
  192.0120  177.6030  140.8160 O   0  0  0  0  0  1  0  0  0  0  0  0
  190.0080  177.7320  139.4640 C   0  0  0  0  0  2  0  0  0  0  0  0
  190.2050  177.1520  138.0660 C   0  0  2  0  0  3  0  0  0  0  0  0
  188.8560  177.0580  137.3630 C   0  0  1  0  0  3  0  0  0  0  0  0
  188.2220  178.4300  137.2610 C   0  0  0  0  0  2  0  0  0  0  0  0
  188.9130  177.8290  136.0570 C   0  0  2  0  0  3  0  0  0  0  0  0
  187.9550  177.3160  135.1850 O   0  0  0  0  0  1  0  0  0  0  0  0
  190.8260  175.7670  138.1720 C   0  0  0  0  0  2  0  0  0  0  0  0
  192.0020  175.6350  137.2210 C   0  0  0  0  0  2  0  0  0  0  0  0
  194.0410  176.7780  136.7400 O   0  0  0  0  0  1  0  0  0  0  0  0
  193.2130  176.3570  137.7810 C   0  0  0  0  0  2  0  0  0  0  0  0
  188.7420  177.5470  144.5100 C   0  0  2  0  0  3  0  0  0  0  0  0
  187.2520  177.4790  144.8380 C   0  0  1  0  0  3  0  0  0  0  0  0
  186.9190  178.1930  146.1870 C   0  0  0  0  0  2  0  0  0  0  0  0
  183.0560  178.9700  143.8480 C   0  0  0  0  0  0  0  0  0  0  0  0
  186.4150  177.9890  143.6420 C   0  0  0  0  0  2  0  0  0  0  0  0
  183.4340  179.2120  145.1660 O   0  0  0  0  0  0  0  0  0  0  0  0
  184.8180  178.9470  145.2070 C   0  0  1  0  0  3  0  0  0  0  0  0
  185.4040  178.3280  146.4530 C   0  0  0  0  0  2  0  0  0  0  0  0
  183.9460  178.3410  143.1470 N   0  0  0  0  0  0  0  0  0  0  0  0
  181.7660  179.4350  143.2750 C   0  0  0  0  0  1  0  0  0  0  0  0
  184.9750  177.9580  144.0950 C   0  0  1  0  0  3  0  0  0  0  0  0
  189.5150  178.1320  145.6900 C   0  0  0  0  0  2  0  0  0  0  0  0
  190.2340  177.0700  146.4610 C   0  0  0  0  0  0  0  0  0  0  0  0
  189.6820  176.5410  147.5540 C   0  0  0  0  0  2  0  0  0  0  0  0
  192.2500  175.7520  147.0420 C   0  0  0  0  0  1  0  0  0  0  0  0
  191.5660  176.5920  145.9800 C   0  0  0  0  0  2  0  0  0  0  0  0
  1 17  1  0  0  0  0
  2  1  1  0  0  0  0
  3  4  1  1  0  0  0
  3  2  1  0  0  0  0
  5  6  1  1  0  0  0
  5  3  1  0  0  0  0
  7  5  1  0  0  0  0
  8 13  1  1  0  0  0
  8  7  1  0  0  0  0
  9  8  1  1  0  0  0
 10  9  1  0  0  0  0
 11 12  1  6  0  0  0
 11 10  1  0  0  0  0
 11  9  1  0  0  0  0
 14 16  1  0  0  0  0
 14 13  1  0  0  0  0
 15 16  1  0  0  0  0
 17 28  1  1  0  0  0
 18 17  1  6  0  0  0
 18 19  1  0  0  0  0
 19 24  1  0  0  0  0
 20 22  1  0  0  0  0
 21 18  1  0  0  0  0
 22 23  1  0  0  0  0
 23 24  1  1  0  0  0
 25 20  2  0  0  0  0
 25 27  1  0  0  0  0
 26 20  1  0  0  0  0
 27 21  1  6  0  0  0
 27 23  1  0  0  0  0
 28 29  1  0  0  0  0
 29 30  2  0  0  0  0
 32 29  1  0  0  0  0
 32 31  1  0  0  0  0
M  END
>  <MODEL>
1

>  <REMARK>
 VINA RESULT:      -7.7      0.000      0.000
  Name = 
  14 active torsions:
  status: ('A' for Active; 'I' for Inactive)
    1  A    between atoms: C_1  and  C_4
    2  A    between atoms: C_1  and  O_5
    3  A    between atoms: C_2  and  C_14
    4  A    between atoms: C_3  and  C_20
    5  A    between atoms: C_4  and  C_24
    6  A    between atoms: O_5  and  C_14
    7  A    between atoms: C_13  and  C_29
    8  A    between atoms: C_13  and  C_30
    9  A    between atoms: C_14  and  C_30
   10  A    between atoms: C_15  and  C_20
   11  A    between atoms: C_15  and  C_26
   12  A    between atoms: C_16  and  C_20
   13  A    between atoms: C_16  and  C_24
   14  A    between atoms: C_19  and  C_26
                            x       y       z     vdW  Elec       q    Type
                         _______ _______ _______ _____ _____    ______ ____

>  <TORSDO>
F 14

$$$$
=
 OpenBabel11052414473D

 32 34  0  0  1  0  0  0  0  0999 V2000
  188.4700  176.8330  142.1990 O   0  0  0  0  0  0  0  0  0  0  0  0
  188.8980  177.4150  141.0030 C   0  0  0  0  0  2  0  0  0  0  0  0
  190.2380  176.8340  140.5670 C   0  0  2  0  0  3  0  0  0  0  0  0
  191.2990  177.5190  141.1660 O   0  0  0  0  0  1  0  0  0  0  0  0
  190.3900  176.7620  139.0420 C   0  0  2  0  0  3  0  0  0  0  0  0
  191.7370  176.8150  138.6830 O   0  0  0  0  0  1  0  0  0  0  0  0
  189.5630  177.7930  138.2590 C   0  0  0  0  0  2  0  0  0  0  0  0
  188.7790  177.1930  137.0960 C   0  0  2  0  0  3  0  0  0  0  0  0
  187.3560  176.8890  137.5490 C   0  0  1  0  0  3  0  0  0  0  0  0
  186.6920  178.1470  138.0710 C   0  0  0  0  0  2  0  0  0  0  0  0
  186.3750  177.6510  136.6770 C   0  0  2  0  0  3  0  0  0  0  0  0
  185.1480  176.9900  136.6920 O   0  0  0  0  0  1  0  0  0  0  0  0
  189.4550  175.9120  136.6320 C   0  0  0  0  0  2  0  0  0  0  0  0
  188.4810  174.7470  136.6810 C   0  0  0  0  0  2  0  0  0  0  0  0
  190.4290  173.6440  137.5070 O   0  0  0  0  0  1  0  0  0  0  0  0
  189.2350  173.4380  136.8150 C   0  0  0  0  0  2  0  0  0  0  0  0
  187.8820  177.8740  142.9250 C   0  0  2  0  0  3  0  0  0  0  0  0
  188.5840  178.0540  144.2700 C   0  0  1  0  0  3  0  0  0  0  0  0
  187.6230  177.7790  145.4700 C   0  0  0  0  0  2  0  0  0  0  0  0
  191.6090  176.3830  147.2470 C   0  0  0  0  0  0  0  0  0  0  0  0
  189.8850  177.2200  144.3120 C   0  0  0  0  0  2  0  0  0  0  0  0
  190.3340  176.5410  147.7820 O   0  0  0  0  0  0  0  0  0  0  0  0
  189.4970  176.7900  146.6750 C   0  0  1  0  0  3  0  0  0  0  0  0
  188.3400  177.7460  146.8370 C   0  0  0  0  0  2  0  0  0  0  0  0
  191.7190  176.7630  146.0130 N   0  0  0  0  0  0  0  0  0  0  0  0
  192.7390  175.7820  148.0040 C   0  0  0  0  0  1  0  0  0  0  0  0
  190.4530  177.4010  145.6990 C   0  0  1  0  0  3  0  0  0  0  0  0
  186.3960  177.5940  143.1400 C   0  0  0  0  0  2  0  0  0  0  0  0
  185.5460  178.7350  142.6780 C   0  0  0  0  0  0  0  0  0  0  0  0
  185.4390  179.0130  141.3780 C   0  0  0  0  0  2  0  0  0  0  0  0
  183.6130  178.7700  144.2300 C   0  0  0  0  0  1  0  0  0  0  0  0
  184.7990  179.5460  143.6880 C   0  0  0  0  0  2  0  0  0  0  0  0
  1 17  1  0  0  0  0
  2  1  1  0  0  0  0
  3  2  1  0  0  0  0
  3  4  1  6  0  0  0
  5  6  1  1  0  0  0
  5  3  1  0  0  0  0
  7  5  1  0  0  0  0
  8 13  1  1  0  0  0
  8  7  1  0  0  0  0
  9  8  1  6  0  0  0
  9 10  1  0  0  0  0
 11 12  1  1  0  0  0
 11  9  1  0  0  0  0
 11 10  1  0  0  0  0
 13 14  1  0  0  0  0
 14 16  1  0  0  0  0
 16 15  1  0  0  0  0
 17 28  1  1  0  0  0
 18 17  1  6  0  0  0
 18 21  1  0  0  0  0
 18 19  1  0  0  0  0
 19 24  1  0  0  0  0
 20 22  1  0  0  0  0
 20 26  1  0  0  0  0
 23 24  1  1  0  0  0
 23 22  1  0  0  0  0
 25 20  2  0  0  0  0
 27 21  1  6  0  0  0
 27 25  1  0  0  0  0
 27 23  1  0  0  0  0
 29 28  1  0  0  0  0
 29 32  1  0  0  0  0
 30 29  2  0  0  0  0
 32 31  1  0  0  0  0
M  END
>  <MODEL>
2

>  <REMARK>
 VINA RESULT:      -7.3      2.473      5.181
  Name = 
  14 active torsions:
  status: ('A' for Active; 'I' for Inactive)
    1  A    between atoms: C_1  and  C_4
    2  A    between atoms: C_1  and  O_5
    3  A    between atoms: C_2  and  C_14
    4  A    between atoms: C_3  and  C_20
    5  A    between atoms: C_4  and  C_24
    6  A    between atoms: O_5  and  C_14
    7  A    between atoms: C_13  and  C_29
    8  A    between atoms: C_13  and  C_30
    9  A    between atoms: C_14  and  C_30
   10  A    between atoms: C_15  and  C_20
   11  A    between atoms: C_15  and  C_26
   12  A    between atoms: C_16  and  C_20
   13  A    between atoms: C_16  and  C_24
   14  A    between atoms: C_19  and  C_26
                            x       y       z     vdW  Elec       q    Type
                         _______ _______ _______ _____ _____    ______ ____

>  <TORSDO>
F 14

$$$$
=
 OpenBabel11052414473D

 32 34  0  0  1  0  0  0  0  0999 V2000
  189.0190  178.4840  142.4880 O   0  0  0  0  0  0  0  0  0  0  0  0
  189.2060  177.7900  141.2890 C   0  0  0  0  0  2  0  0  0  0  0  0
  188.7220  178.6160  140.1040 C   0  0  2  0  0  3  0  0  0  0  0  0
  187.3500  178.4470  139.9030 O   0  0  0  0  0  1  0  0  0  0  0  0
  189.5260  178.3520  138.8240 C   0  0  2  0  0  3  0  0  0  0  0  0
  189.0380  179.1290  137.7730 O   0  0  0  0  0  1  0  0  0  0  0  0
  189.6360  176.8750  138.4210 C   0  0  0  0  0  2  0  0  0  0  0  0
  189.5380  176.6410  136.9160 C   0  0  2  0  0  3  0  0  0  0  0  0
  188.4450  175.6170  136.6340 C   0  0  1  0  0  3  0  0  0  0  0  0
  187.0980  176.1520  137.0750 C   0  0  0  0  0  2  0  0  0  0  0  0
  187.4770  176.1800  135.6110 C   0  0  2  0  0  3  0  0  0  0  0  0
  186.8490  175.1250  134.9520 O   0  0  0  0  0  1  0  0  0  0  0  0
  190.8700  176.1280  136.3920 C   0  0  0  0  0  2  0  0  0  0  0  0
  191.7420  175.6420  137.5370 C   0  0  0  0  0  2  0  0  0  0  0  0
  193.4530  176.8890  138.6390 O   0  0  0  0  0  1  0  0  0  0  0  0
  193.1260  176.2560  137.4400 C   0  0  0  0  0  2  0  0  0  0  0  0
  189.0410  177.5040  143.4870 C   0  0  2  0  0  3  0  0  0  0  0  0
  187.6640  177.3630  144.1310 C   0  0  1  0  0  3  0  0  0  0  0  0
  187.6420  177.9220  145.5900 C   0  0  0  0  0  2  0  0  0  0  0  0
  183.3500  178.8380  144.2750 C   0  0  0  0  0  0  0  0  0  0  0  0
  186.5770  177.9730  143.2160 C   0  0  0  0  0  2  0  0  0  0  0  0
  184.0140  178.9500  145.4920 O   0  0  0  0  0  0  0  0  0  0  0  0
  185.3730  178.7190  145.1930 C   0  0  1  0  0  3  0  0  0  0  0  0
  186.2260  177.9890  146.2020 C   0  0  0  0  0  2  0  0  0  0  0  0
  184.0600  178.3100  143.3270 N   0  0  0  0  0  0  0  0  0  0  0  0
  181.9620  179.3260  144.0580 C   0  0  0  0  0  1  0  0  0  0  0  0
  185.2770  177.8560  143.9740 C   0  0  1  0  0  3  0  0  0  0  0  0
  190.0850  177.8560  144.5460 C   0  0  0  0  0  2  0  0  0  0  0  0
  191.0870  176.7590  144.7180 C   0  0  0  0  0  0  0  0  0  0  0  0
  191.3990  175.9640  143.6930 C   0  0  0  0  0  2  0  0  0  0  0  0
  190.7420  176.6780  147.1710 C   0  0  0  0  0  1  0  0  0  0  0  0
  191.7540  176.5790  146.0440 C   0  0  0  0  0  2  0  0  0  0  0  0
  1 17  1  0  0  0  0
  2  1  1  0  0  0  0
  3  4  1  6  0  0  0
  3  2  1  0  0  0  0
  5  6  1  6  0  0  0
  5  3  1  0  0  0  0
  7  5  1  0  0  0  0
  8 13  1  1  0  0  0
  8  7  1  0  0  0  0
  9  8  1  1  0  0  0
  9 10  1  0  0  0  0
 11 12  1  6  0  0  0
 11  9  1  0  0  0  0
 11 10  1  0  0  0  0
 13 14  1  0  0  0  0
 16 14  1  0  0  0  0
 16 15  1  0  0  0  0
 17 28  1  1  0  0  0
 18 17  1  6  0  0  0
 18 19  1  0  0  0  0
 19 24  1  0  0  0  0
 20 22  1  0  0  0  0
 21 18  1  0  0  0  0
 23 22  1  0  0  0  0
 23 24  1  1  0  0  0
 25 27  1  0  0  0  0
 25 20  2  0  0  0  0
 26 20  1  0  0  0  0
 27 21  1  6  0  0  0
 27 23  1  0  0  0  0
 28 29  1  0  0  0  0
 29 32  1  0  0  0  0
 30 29  2  0  0  0  0
 32 31  1  0  0  0  0
M  END
>  <MODEL>
3

>  <REMARK>
 VINA RESULT:      -7.3      1.518      1.999
  Name = 
  14 active torsions:
  status: ('A' for Active; 'I' for Inactive)
    1  A    between atoms: C_1  and  C_4
    2  A    between atoms: C_1  and  O_5
    3  A    between atoms: C_2  and  C_14
    4  A    between atoms: C_3  and  C_20
    5  A    between atoms: C_4  and  C_24
    6  A    between atoms: O_5  and  C_14
    7  A    between atoms: C_13  and  C_29
    8  A    between atoms: C_13  and  C_30
    9  A    between atoms: C_14  and  C_30
   10  A    between atoms: C_15  and  C_20
   11  A    between atoms: C_15  and  C_26
   12  A    between atoms: C_16  and  C_20
   13  A    between atoms: C_16  and  C_24
   14  A    between atoms: C_19  and  C_26
                            x       y       z     vdW  Elec       q    Type
                         _______ _______ _______ _____ _____    ______ ____

>  <TORSDO>
F 14

$$$$
=
 OpenBabel11052414473D

 32 34  0  0  1  0  0  0  0  0999 V2000
  189.0830  178.2550  142.8370 O   0  0  0  0  0  0  0  0  0  0  0  0
  190.0510  177.6460  142.0350 C   0  0  0  0  0  2  0  0  0  0  0  0
  189.4450  177.1780  140.7170 C   0  0  2  0  0  3  0  0  0  0  0  0
  190.3190  176.3230  140.0400 O   0  0  0  0  0  1  0  0  0  0  0  0
  188.9760  178.3380  139.8290 C   0  0  2  0  0  3  0  0  0  0  0  0
  187.5850  178.4400  139.8540 O   0  0  0  0  0  1  0  0  0  0  0  0
  189.5080  178.3080  138.3890 C   0  0  0  0  0  2  0  0  0  0  0  0
  188.5900  177.5790  137.4120 C   0  0  2  0  0  3  0  0  0  0  0  0
  189.4230  176.9760  136.2890 C   0  0  1  0  0  3  0  0  0  0  0  0
  190.7240  176.4250  136.8380 C   0  0  0  0  0  2  0  0  0  0  0  0
  189.5820  175.4850  136.5220 C   0  0  2  0  0  3  0  0  0  0  0  0
  189.8260  174.8580  135.3010 O   0  0  0  0  0  1  0  0  0  0  0  0
  187.5800  178.5590  136.8330 C   0  0  0  0  0  2  0  0  0  0  0  0
  186.4240  177.8140  136.1880 C   0  0  0  0  0  2  0  0  0  0  0  0
  184.5070  177.4480  137.5610 O   0  0  0  0  0  1  0  0  0  0  0  0
  185.7460  176.9160  137.2050 C   0  0  0  0  0  2  0  0  0  0  0  0
  189.0150  177.4690  143.9930 C   0  0  2  0  0  3  0  0  0  0  0  0
  187.5750  177.3760  144.4950 C   0  0  1  0  0  3  0  0  0  0  0  0
  187.4110  178.0100  145.9130 C   0  0  0  0  0  2  0  0  0  0  0  0
  183.2950  178.9040  144.1100 C   0  0  0  0  0  0  0  0  0  0  0  0
  186.6000  177.9500  143.4410 C   0  0  0  0  0  2  0  0  0  0  0  0
  183.8300  179.0710  145.3830 O   0  0  0  0  0  0  0  0  0  0  0  0
  185.2090  178.8110  145.2410 C   0  0  1  0  0  3  0  0  0  0  0  0
  185.9400  178.1240  146.3690 C   0  0  0  0  0  2  0  0  0  0  0  0
  184.0910  178.3200  143.2700 N   0  0  0  0  0  0  0  0  0  0  0  0
  181.9460  179.3950  143.7250 C   0  0  0  0  0  1  0  0  0  0  0  0
  185.2270  177.8870  144.0630 C   0  0  1  0  0  3  0  0  0  0  0  0
  189.9160  178.0520  145.0800 C   0  0  0  0  0  2  0  0  0  0  0  0
  190.8240  177.0140  145.6600 C   0  0  0  0  0  0  0  0  0  0  0  0
  191.6530  176.3280  144.8710 C   0  0  0  0  0  2  0  0  0  0  0  0
  192.0030  175.9310  147.5520 C   0  0  0  0  0  1  0  0  0  0  0  0
  190.8090  176.7700  147.1350 C   0  0  0  0  0  2  0  0  0  0  0  0
  1 17  1  0  0  0  0
  2  1  1  0  0  0  0
  3  4  1  6  0  0  0
  3  2  1  0  0  0  0
  5  6  1  6  0  0  0
  5  3  1  0  0  0  0
  7  5  1  0  0  0  0
  8 13  1  6  0  0  0
  8  7  1  0  0  0  0
  9 11  1  0  0  0  0
  9 10  1  0  0  0  0
  9  8  1  1  0  0  0
 11 12  1  6  0  0  0
 11 10  1  0  0  0  0
 14 13  1  0  0  0  0
 14 16  1  0  0  0  0
 16 15  1  0  0  0  0
 17 28  1  1  0  0  0
 18 17  1  6  0  0  0
 18 19  1  0  0  0  0
 19 24  1  0  0  0  0
 20 22  1  0  0  0  0
 21 18  1  0  0  0  0
 23 22  1  0  0  0  0
 23 24  1  1  0  0  0
 25 27  1  0  0  0  0
 25 20  2  0  0  0  0
 26 20  1  0  0  0  0
 27 21  1  6  0  0  0
 27 23  1  0  0  0  0
 28 29  1  0  0  0  0
 29 32  1  0  0  0  0
 30 29  2  0  0  0  0
 32 31  1  0  0  0  0
M  END
>  <MODEL>
4

>  <REMARK>
 VINA RESULT:      -7.3      1.579      3.018
  Name = 
  14 active torsions:
  status: ('A' for Active; 'I' for Inactive)
    1  A    between atoms: C_1  and  C_4
    2  A    between atoms: C_1  and  O_5
    3  A    between atoms: C_2  and  C_14
    4  A    between atoms: C_3  and  C_20
    5  A    between atoms: C_4  and  C_24
    6  A    between atoms: O_5  and  C_14
    7  A    between atoms: C_13  and  C_29
    8  A    between atoms: C_13  and  C_30
    9  A    between atoms: C_14  and  C_30
   10  A    between atoms: C_15  and  C_20
   11  A    between atoms: C_15  and  C_26
   12  A    between atoms: C_16  and  C_20
   13  A    between atoms: C_16  and  C_24
   14  A    between atoms: C_19  and  C_26
                            x       y       z     vdW  Elec       q    Type
                         _______ _______ _______ _____ _____    ______ ____

>  <TORSDO>
F 14

$$$$
=
 OpenBabel11052414473D

 32 34  0  0  1  0  0  0  0  0999 V2000
  186.9430  177.5740  144.7760 O   0  0  0  0  0  0  0  0  0  0  0  0
  186.1540  178.0860  145.8090 C   0  0  0  0  0  2  0  0  0  0  0  0
  185.1250  179.0710  145.2670 C   0  0  2  0  0  3  0  0  0  0  0  0
  183.9930  179.1140  146.0850 O   0  0  0  0  0  1  0  0  0  0  0  0
  184.7610  178.8070  143.8000 C   0  0  2  0  0  3  0  0  0  0  0  0
  185.1060  179.9020  143.0070 O   0  0  0  0  0  1  0  0  0  0  0  0
  183.3050  178.3820  143.5600 C   0  0  0  0  0  2  0  0  0  0  0  0
  182.7610  178.8000  142.1960 C   0  0  2  0  0  3  0  0  0  0  0  0
  181.2640  178.5210  142.1420 C   0  0  1  0  0  3  0  0  0  0  0  0
  180.6200  178.8530  143.4720 C   0  0  0  0  0  2  0  0  0  0  0  0
  180.5010  179.8210  142.3150 C   0  0  2  0  0  3  0  0  0  0  0  0
  179.2420  179.6890  141.7320 O   0  0  0  0  0  1  0  0  0  0  0  0
  183.4700  178.0150  141.1030 C   0  0  0  0  0  2  0  0  0  0  0  0
  182.9870  178.4560  139.7320 C   0  0  0  0  0  2  0  0  0  0  0  0
  185.1020  179.5620  139.7070 O   0  0  0  0  0  1  0  0  0  0  0  0
  183.7850  179.6550  139.2550 C   0  0  0  0  0  2  0  0  0  0  0  0
  188.2630  177.8390  145.1550 C   0  0  2  0  0  3  0  0  0  0  0  0
  189.1710  177.9060  143.9280 C   0  0  1  0  0  3  0  0  0  0  0  0
  190.2270  176.7550  143.9210 C   0  0  0  0  0  2  0  0  0  0  0  0
  189.5470  177.2990  139.4230 C   0  0  0  0  0  0  0  0  0  0  0  0
  188.3240  177.9800  142.6370 C   0  0  0  0  0  2  0  0  0  0  0  0
  190.4410  176.5310  140.1620 O   0  0  0  0  0  0  0  0  0  0  0  0
  189.9990  176.6330  141.4980 C   0  0  1  0  0  3  0  0  0  0  0  0
  191.0260  176.6620  142.6040 C   0  0  0  0  0  2  0  0  0  0  0  0
  188.7900  178.0700  140.1390 N   0  0  0  0  0  0  0  0  0  0  0  0
  189.4300  177.2120  137.9440 C   0  0  0  0  0  1  0  0  0  0  0  0
  189.3060  177.9600  141.4910 C   0  0  1  0  0  3  0  0  0  0  0  0
  188.7600  176.7650  146.1200 C   0  0  0  0  0  2  0  0  0  0  0  0
  189.5580  177.3550  147.2400 C   0  0  0  0  0  0  0  0  0  0  0  0
  190.8240  176.9810  147.4350 C   0  0  0  0  0  2  0  0  0  0  0  0
  187.8470  177.7630  148.9860 C   0  0  0  0  0  1  0  0  0  0  0  0
  188.9290  178.3850  148.1220 C   0  0  0  0  0  2  0  0  0  0  0  0
  1 17  1  0  0  0  0
  1  2  1  0  0  0  0
  3  2  1  0  0  0  0
  3  4  1  1  0  0  0
  5  6  1  6  0  0  0
  5  3  1  0  0  0  0
  7  5  1  0  0  0  0
  8 13  1  6  0  0  0
  8  7  1  0  0  0  0
  9  8  1  1  0  0  0
  9 11  1  0  0  0  0
  9 10  1  0  0  0  0
 11 12  1  6  0  0  0
 11 10  1  0  0  0  0
 14 13  1  0  0  0  0
 16 15  1  0  0  0  0
 16 14  1  0  0  0  0
 17 28  1  1  0  0  0
 18 17  1  1  0  0  0
 19 18  1  0  0  0  0
 20 25  2  0  0  0  0
 20 22  1  0  0  0  0
 21 18  1  0  0  0  0
 22 23  1  0  0  0  0
 23 24  1  1  0  0  0
 24 19  1  0  0  0  0
 25 27  1  0  0  0  0
 26 20  1  0  0  0  0
 27 23  1  0  0  0  0
 27 21  1  1  0  0  0
 28 29  1  0  0  0  0
 29 30  2  0  0  0  0
 29 32  1  0  0  0  0
 32 31  1  0  0  0  0
M  END
>  <MODEL>
5

>  <REMARK>
 VINA RESULT:      -7.2      2.468      7.136
  Name = 
  14 active torsions:
  status: ('A' for Active; 'I' for Inactive)
    1  A    between atoms: C_1  and  C_4
    2  A    between atoms: C_1  and  O_5
    3  A    between atoms: C_2  and  C_14
    4  A    between atoms: C_3  and  C_20
    5  A    between atoms: C_4  and  C_24
    6  A    between atoms: O_5  and  C_14
    7  A    between atoms: C_13  and  C_29
    8  A    between atoms: C_13  and  C_30
    9  A    between atoms: C_14  and  C_30
   10  A    between atoms: C_15  and  C_20
   11  A    between atoms: C_15  and  C_26
   12  A    between atoms: C_16  and  C_20
   13  A    between atoms: C_16  and  C_24
   14  A    between atoms: C_19  and  C_26
                            x       y       z     vdW  Elec       q    Type
                         _______ _______ _______ _____ _____    ______ ____

>  <TORSDO>
F 14

$$$$
=
 OpenBabel11052414473D

 32 34  0  0  1  0  0  0  0  0999 V2000
  188.9450  178.3890  142.5200 O   0  0  0  0  0  0  0  0  0  0  0  0
  189.1830  177.6230  141.3770 C   0  0  0  0  0  2  0  0  0  0  0  0
  188.7910  178.3900  140.1200 C   0  0  2  0  0  3  0  0  0  0  0  0
  187.4060  178.5620  140.0490 O   0  0  0  0  0  1  0  0  0  0  0  0
  189.3570  177.7650  138.8380 C   0  0  2  0  0  3  0  0  0  0  0  0
  190.6950  177.4120  139.0170 O   0  0  0  0  0  1  0  0  0  0  0  0
  189.1670  178.6080  137.5680 C   0  0  0  0  0  2  0  0  0  0  0  0
  188.6980  177.8000  136.3610 C   0  0  2  0  0  3  0  0  0  0  0  0
  187.4710  176.9840  136.7460 C   0  0  1  0  0  3  0  0  0  0  0  0
  186.2870  177.8980  136.9860 C   0  0  0  0  0  2  0  0  0  0  0  0
  186.4030  177.1440  135.6800 C   0  0  2  0  0  3  0  0  0  0  0  0
  185.5590  176.0350  135.7110 O   0  0  0  0  0  1  0  0  0  0  0  0
  189.8120  176.8680  135.9070 C   0  0  0  0  0  2  0  0  0  0  0  0
  189.4210  175.4190  136.1340 C   0  0  0  0  0  2  0  0  0  0  0  0
  190.0810  173.5250  137.4280 O   0  0  0  0  0  1  0  0  0  0  0  0
  190.5660  174.6610  136.7780 C   0  0  0  0  0  2  0  0  0  0  0  0
  188.9380  177.4760  143.5810 C   0  0  2  0  0  3  0  0  0  0  0  0
  187.5430  177.3760  144.1950 C   0  0  1  0  0  3  0  0  0  0  0  0
  187.4970  177.9760  145.6360 C   0  0  0  0  0  2  0  0  0  0  0  0
  183.2540  178.9280  144.1920 C   0  0  0  0  0  0  0  0  0  0  0  0
  186.4900  177.9790  143.2360 C   0  0  0  0  0  2  0  0  0  0  0  0
  183.8910  179.0620  145.4220 O   0  0  0  0  0  0  0  0  0  0  0  0
  185.2520  178.8000  145.1630 C   0  0  1  0  0  3  0  0  0  0  0  0
  186.0680  178.0840  146.2110 C   0  0  0  0  0  2  0  0  0  0  0  0
  183.9770  178.3620  143.2770 N   0  0  0  0  0  0  0  0  0  0  0  0
  181.8810  179.4330  143.9290 C   0  0  0  0  0  1  0  0  0  0  0  0
  185.1700  177.9060  143.9660 C   0  0  1  0  0  3  0  0  0  0  0  0
  189.9530  177.8940  144.6430 C   0  0  0  0  0  2  0  0  0  0  0  0
  191.0130  176.8560  144.8330 C   0  0  0  0  0  0  0  0  0  0  0  0
  191.3960  176.0890  143.8100 C   0  0  0  0  0  2  0  0  0  0  0  0
  190.6070  176.6610  147.2700 C   0  0  0  0  0  1  0  0  0  0  0  0
  191.6560  176.7030  146.1740 C   0  0  0  0  0  2  0  0  0  0  0  0
  1 17  1  0  0  0  0
  2  1  1  0  0  0  0
  3  4  1  6  0  0  0
  3  2  1  0  0  0  0
  5  6  1  1  0  0  0
  5  3  1  0  0  0  0
  7  5  1  0  0  0  0
  8 13  1  1  0  0  0
  8  7  1  0  0  0  0
  9  8  1  6  0  0  0
  9 10  1  0  0  0  0
 11 12  1  1  0  0  0
 11  9  1  0  0  0  0
 11 10  1  0  0  0  0
 13 14  1  0  0  0  0
 14 16  1  0  0  0  0
 16 15  1  0  0  0  0
 17 28  1  1  0  0  0
 18 17  1  6  0  0  0
 18 19  1  0  0  0  0
 19 24  1  0  0  0  0
 20 22  1  0  0  0  0
 21 18  1  0  0  0  0
 23 22  1  0  0  0  0
 23 24  1  1  0  0  0
 25 27  1  0  0  0  0
 25 20  2  0  0  0  0
 26 20  1  0  0  0  0
 27 21  1  6  0  0  0
 27 23  1  0  0  0  0
 28 29  1  0  0  0  0
 29 32  1  0  0  0  0
 30 29  2  0  0  0  0
 32 31  1  0  0  0  0
M  END
>  <MODEL>
6

>  <REMARK>
 VINA RESULT:      -7.1      1.701      2.231
  Name = 
  14 active torsions:
  status: ('A' for Active; 'I' for Inactive)
    1  A    between atoms: C_1  and  C_4
    2  A    between atoms: C_1  and  O_5
    3  A    between atoms: C_2  and  C_14
    4  A    between atoms: C_3  and  C_20
    5  A    between atoms: C_4  and  C_24
    6  A    between atoms: O_5  and  C_14
    7  A    between atoms: C_13  and  C_29
    8  A    between atoms: C_13  and  C_30
    9  A    between atoms: C_14  and  C_30
   10  A    between atoms: C_15  and  C_20
   11  A    between atoms: C_15  and  C_26
   12  A    between atoms: C_16  and  C_20
   13  A    between atoms: C_16  and  C_24
   14  A    between atoms: C_19  and  C_26
                            x       y       z     vdW  Elec       q    Type
                         _______ _______ _______ _____ _____    ______ ____

>  <TORSDO>
F 14

$$$$
=
 OpenBabel11052414473D

 32 34  0  0  1  0  0  0  0  0999 V2000
  186.9310  178.5520  140.3270 O   0  0  0  0  0  0  0  0  0  0  0  0
  186.2130  178.5980  139.1290 C   0  0  0  0  0  2  0  0  0  0  0  0
  184.7220  178.7590  139.3960 C   0  0  2  0  0  3  0  0  0  0  0  0
  184.3320  180.0950  139.2720 O   0  0  0  0  0  1  0  0  0  0  0  0
  184.2880  178.1580  140.7390 C   0  0  2  0  0  3  0  0  0  0  0  0
  183.2000  177.3020  140.5620 O   0  0  0  0  0  1  0  0  0  0  0  0
  184.0160  179.1830  141.8500 C   0  0  0  0  0  2  0  0  0  0  0  0
  183.5220  178.5590  143.1520 C   0  0  2  0  0  3  0  0  0  0  0  0
  182.2480  179.2660  143.6000 C   0  0  1  0  0  3  0  0  0  0  0  0
  181.2920  179.4130  142.4340 C   0  0  0  0  0  2  0  0  0  0  0  0
  181.0700  178.3210  143.4570 C   0  0  2  0  0  3  0  0  0  0  0  0
  180.0640  178.7130  144.3380 O   0  0  0  0  0  1  0  0  0  0  0  0
  184.5920  178.7020  144.2240 C   0  0  0  0  0  2  0  0  0  0  0  0
  183.9600  178.7720  145.6030 C   0  0  0  0  0  2  0  0  0  0  0  0
  185.6390  179.3310  147.2040 O   0  0  0  0  0  1  0  0  0  0  0  0
  184.9300  178.2630  146.6520 C   0  0  0  0  0  2  0  0  0  0  0  0
  188.0570  177.7690  140.0520 C   0  0  2  0  0  3  0  0  0  0  0  0
  188.6200  177.1670  141.3380 C   0  0  1  0  0  3  0  0  0  0  0  0
  190.1400  177.4790  141.5110 C   0  0  0  0  0  2  0  0  0  0  0  0
  188.7990  177.3830  145.8910 C   0  0  0  0  0  0  0  0  0  0  0  0
  187.7570  177.5880  142.5500 C   0  0  0  0  0  2  0  0  0  0  0  0
  190.0450  177.4910  145.2820 O   0  0  0  0  0  0  0  0  0  0  0  0
  189.7710  177.6820  143.9110 C   0  0  1  0  0  3  0  0  0  0  0  0
  190.6990  177.0700  142.8900 C   0  0  0  0  0  2  0  0  0  0  0  0
  187.8150  177.2120  145.0640 N   0  0  0  0  0  0  0  0  0  0  0  0
  188.5990  177.5050  147.3590 C   0  0  0  0  0  1  0  0  0  0  0  0
  188.4390  177.0150  143.7690 C   0  0  1  0  0  3  0  0  0  0  0  0
  189.1240  178.6070  139.3510 C   0  0  0  0  0  2  0  0  0  0  0  0
  189.4570  178.0600  137.9990 C   0  0  0  0  0  0  0  0  0  0  0  0
  189.0740  178.7080  136.8970 C   0  0  0  0  0  2  0  0  0  0  0  0
  189.3930  175.6800  137.3080 C   0  0  0  0  0  1  0  0  0  0  0  0
  190.2420  176.7920  137.8960 C   0  0  0  0  0  2  0  0  0  0  0  0
  2  3  1  0  0  0  0
  2  1  1  0  0  0  0
  3  4  1  1  0  0  0
  3  5  1  0  0  0  0
  5  6  1  6  0  0  0
  5  7  1  0  0  0  0
  8  7  1  6  0  0  0
  8 13  1  0  0  0  0
  9  8  1  6  0  0  0
 10 11  1  0  0  0  0
 10  9  1  0  0  0  0
 11  9  1  0  0  0  0
 11 12  1  1  0  0  0
 13 14  1  0  0  0  0
 14 16  1  0  0  0  0
 16 15  1  0  0  0  0
 17 28  1  1  0  0  0
 17  1  1  0  0  0  0
 18 17  1  6  0  0  0
 18 19  1  0  0  0  0
 18 21  1  0  0  0  0
 19 24  1  0  0  0  0
 20 26  1  0  0  0  0
 22 20  1  0  0  0  0
 23 24  1  6  0  0  0
 23 22  1  0  0  0  0
 25 20  2  0  0  0  0
 27 21  1  6  0  0  0
 27 23  1  0  0  0  0
 27 25  1  0  0  0  0
 29 28  1  0  0  0  0
 30 29  2  0  0  0  0
 31 32  1  0  0  0  0
 32 29  1  0  0  0  0
M  END
>  <MODEL>
7

>  <REMARK>
 VINA RESULT:      -7.1      2.707      8.120
  Name = 
  14 active torsions:
  status: ('A' for Active; 'I' for Inactive)
    1  A    between atoms: C_1  and  C_4
    2  A    between atoms: C_1  and  O_5
    3  A    between atoms: C_2  and  C_14
    4  A    between atoms: C_3  and  C_20
    5  A    between atoms: C_4  and  C_24
    6  A    between atoms: O_5  and  C_14
    7  A    between atoms: C_13  and  C_29
    8  A    between atoms: C_13  and  C_30
    9  A    between atoms: C_14  and  C_30
   10  A    between atoms: C_15  and  C_20
   11  A    between atoms: C_15  and  C_26
   12  A    between atoms: C_16  and  C_20
   13  A    between atoms: C_16  and  C_24
   14  A    between atoms: C_19  and  C_26
                            x       y       z     vdW  Elec       q    Type
                         _______ _______ _______ _____ _____    ______ ____

>  <TORSDO>
F 14

$$$$
=
 OpenBabel11052414473D

 32 34  0  0  1  0  0  0  0  0999 V2000
  190.4140  177.6600  140.9190 O   0  0  0  0  0  0  0  0  0  0  0  0
  191.5780  177.1460  141.4960 C   0  0  0  0  0  2  0  0  0  0  0  0
  191.5180  177.2470  143.0160 C   0  0  2  0  0  3  0  0  0  0  0  0
  191.6850  175.9920  143.6080 O   0  0  0  0  0  1  0  0  0  0  0  0
  190.2540  177.9550  143.5180 C   0  0  2  0  0  3  0  0  0  0  0  0
  190.5880  179.1270  144.1970 O   0  0  0  0  0  1  0  0  0  0  0  0
  189.3080  177.0780  144.3520 C   0  0  0  0  0  2  0  0  0  0  0  0
  188.4050  177.8720  145.2920 C   0  0  2  0  0  3  0  0  0  0  0  0
  188.4180  177.2240  146.6710 C   0  0  1  0  0  3  0  0  0  0  0  0
  189.8430  177.0410  147.1520 C   0  0  0  0  0  2  0  0  0  0  0  0
  189.0130  178.1910  147.6780 C   0  0  2  0  0  3  0  0  0  0  0  0
  188.5380  177.8730  148.9490 O   0  0  0  0  0  1  0  0  0  0  0  0
  186.9860  177.8870  144.7450 C   0  0  0  0  0  2  0  0  0  0  0  0
  185.9930  177.5000  145.8270 C   0  0  0  0  0  2  0  0  0  0  0  0
  185.6830  179.5630  146.9850 O   0  0  0  0  0  1  0  0  0  0  0  0
  185.0610  178.6590  146.1230 C   0  0  0  0  0  2  0  0  0  0  0  0
  190.5980  177.5250  139.5380 C   0  0  2  0  0  3  0  0  0  0  0  0
  189.4120  178.1170  138.7780 C   0  0  1  0  0  3  0  0  0  0  0  0
  189.2650  177.4970  137.3520 C   0  0  0  0  0  2  0  0  0  0  0  0
  184.8760  178.3370  138.3590 C   0  0  0  0  0  0  0  0  0  0  0  0
  188.1260  178.0240  139.6320 C   0  0  0  0  0  2  0  0  0  0  0  0
  185.5180  177.8960  137.2060 O   0  0  0  0  0  0  0  0  0  0  0  0
  186.8450  177.6290  137.6020 C   0  0  1  0  0  3  0  0  0  0  0  0
  187.9650  177.9130  136.6320 C   0  0  0  0  0  2  0  0  0  0  0  0
  185.6770  178.6350  139.3340 N   0  0  0  0  0  0  0  0  0  0  0  0
  183.3970  178.4160  138.4860 C   0  0  0  0  0  1  0  0  0  0  0  0
  187.0100  178.5550  138.7660 C   0  0  1  0  0  3  0  0  0  0  0  0
  190.7770  176.0530  139.1710 C   0  0  0  0  0  2  0  0  0  0  0  0
  191.8990  175.8590  138.2010 C   0  0  0  0  0  0  0  0  0  0  0  0
  192.8880  176.7510  138.1270 C   0  0  0  0  0  2  0  0  0  0  0  0
  190.5060  174.1050  137.1390 C   0  0  0  0  0  1  0  0  0  0  0  0
  191.9120  174.6420  137.3320 C   0  0  0  0  0  2  0  0  0  0  0  0
  1  2  1  0  0  0  0
  2  3  1  0  0  0  0
  3  5  1  0  0  0  0
  3  4  1  1  0  0  0
  5  6  1  1  0  0  0
  5  7  1  0  0  0  0
  8  7  1  6  0  0  0
  9  8  1  6  0  0  0
  9 10  1  0  0  0  0
  9 11  1  0  0  0  0
 10 11  1  0  0  0  0
 11 12  1  1  0  0  0
 13  8  1  0  0  0  0
 13 14  1  0  0  0  0
 14 16  1  0  0  0  0
 16 15  1  0  0  0  0
 17 28  1  1  0  0  0
 17  1  1  0  0  0  0
 18 17  1  1  0  0  0
 18 21  1  0  0  0  0
 19 18  1  0  0  0  0
 20 26  1  0  0  0  0
 20 25  2  0  0  0  0
 22 23  1  0  0  0  0
 22 20  1  0  0  0  0
 23 24  1  6  0  0  0
 23 27  1  0  0  0  0
 24 19  1  0  0  0  0
 27 25  1  0  0  0  0
 27 21  1  1  0  0  0
 29 28  1  0  0  0  0
 30 29  2  0  0  0  0
 31 32  1  0  0  0  0
 32 29  1  0  0  0  0
M  END
>  <MODEL>
8

>  <REMARK>
 VINA RESULT:      -7.1      2.160      8.031
  Name = 
  14 active torsions:
  status: ('A' for Active; 'I' for Inactive)
    1  A    between atoms: C_1  and  C_4
    2  A    between atoms: C_1  and  O_5
    3  A    between atoms: C_2  and  C_14
    4  A    between atoms: C_3  and  C_20
    5  A    between atoms: C_4  and  C_24
    6  A    between atoms: O_5  and  C_14
    7  A    between atoms: C_13  and  C_29
    8  A    between atoms: C_13  and  C_30
    9  A    between atoms: C_14  and  C_30
   10  A    between atoms: C_15  and  C_20
   11  A    between atoms: C_15  and  C_26
   12  A    between atoms: C_16  and  C_20
   13  A    between atoms: C_16  and  C_24
   14  A    between atoms: C_19  and  C_26
                            x       y       z     vdW  Elec       q    Type
                         _______ _______ _______ _____ _____    ______ ____

>  <TORSDO>
F 14

$$$$
=
 OpenBabel11052414473D

 32 34  0  0  1  0  0  0  0  0999 V2000
  188.3020  177.1940  142.1420 O   0  0  0  0  0  0  0  0  0  0  0  0
  188.3230  177.8670  140.9180 C   0  0  0  0  0  2  0  0  0  0  0  0
  189.2060  177.1380  139.9130 C   0  0  2  0  0  3  0  0  0  0  0  0
  190.1820  176.3780  140.5630 O   0  0  0  0  0  1  0  0  0  0  0  0
  189.8150  178.0750  138.8620 C   0  0  2  0  0  3  0  0  0  0  0  0
  189.0550  179.2400  138.7490 O   0  0  0  0  0  1  0  0  0  0  0  0
  190.0630  177.4350  137.4890 C   0  0  0  0  0  2  0  0  0  0  0  0
  188.8020  176.8710  136.8390 C   0  0  2  0  0  3  0  0  0  0  0  0
  189.1020  175.4930  136.2640 C   0  0  1  0  0  3  0  0  0  0  0  0
  189.9570  174.6970  137.2290 C   0  0  0  0  0  2  0  0  0  0  0  0
  188.4700  174.4300  137.1430 C   0  0  2  0  0  3  0  0  0  0  0  0
  188.2510  173.2830  136.3820 O   0  0  0  0  0  1  0  0  0  0  0  0
  188.3410  177.8020  135.7280 C   0  0  0  0  0  2  0  0  0  0  0  0
  187.1230  178.5950  136.1670 C   0  0  0  0  0  2  0  0  0  0  0  0
  185.9770  178.6200  138.2610 O   0  0  0  0  0  1  0  0  0  0  0  0
  186.3200  177.8040  137.1820 C   0  0  0  0  0  2  0  0  0  0  0  0
  187.6640  178.0660  143.0310 C   0  0  2  0  0  3  0  0  0  0  0  0
  188.4460  178.1660  144.3400 C   0  0  1  0  0  3  0  0  0  0  0  0
  187.5490  177.8560  145.5800 C   0  0  0  0  0  2  0  0  0  0  0  0
  191.5930  176.2880  147.0560 C   0  0  0  0  0  0  0  0  0  0  0  0
  189.7260  177.3020  144.2670 C   0  0  0  0  0  2  0  0  0  0  0  0
  190.3560  176.4490  147.6710 O   0  0  0  0  0  0  0  0  0  0  0  0
  189.4630  176.7690  146.6260 C   0  0  1  0  0  3  0  0  0  0  0  0
  188.3420  177.7420  146.8990 C   0  0  0  0  0  2  0  0  0  0  0  0
  191.6420  176.7240  145.8360 N   0  0  0  0  0  0  0  0  0  0  0  0
  192.7490  175.6270  147.7160 C   0  0  0  0  0  1  0  0  0  0  0  0
  190.3770  177.4040  145.6250 C   0  0  1  0  0  3  0  0  0  0  0  0
  186.2390  177.5900  143.3040 C   0  0  0  0  0  2  0  0  0  0  0  0
  185.2340  178.6610  143.0150 C   0  0  0  0  0  0  0  0  0  0  0  0
  184.6760  179.3490  144.0120 C   0  0  0  0  0  2  0  0  0  0  0  0
  183.7260  178.0980  141.1300 C   0  0  0  0  0  1  0  0  0  0  0  0
  184.8800  178.9670  141.5950 C   0  0  0  0  0  2  0  0  0  0  0  0
  1 17  1  0  0  0  0
  2  1  1  0  0  0  0
  3  4  1  1  0  0  0
  3  2  1  0  0  0  0
  5  6  1  6  0  0  0
  5  3  1  0  0  0  0
  7  5  1  0  0  0  0
  8 13  1  6  0  0  0
  8  7  1  0  0  0  0
  9  8  1  1  0  0  0
  9 11  1  0  0  0  0
  9 10  1  0  0  0  0
 11 12  1  6  0  0  0
 11 10  1  0  0  0  0
 13 14  1  0  0  0  0
 14 16  1  0  0  0  0
 16 15  1  0  0  0  0
 17 28  1  1  0  0  0
 18 17  1  6  0  0  0
 18 19  1  0  0  0  0
 19 24  1  0  0  0  0
 20 22  1  0  0  0  0
 20 26  1  0  0  0  0
 21 18  1  0  0  0  0
 23 24  1  1  0  0  0
 23 22  1  0  0  0  0
 25 20  2  0  0  0  0
 27 21  1  6  0  0  0
 27 25  1  0  0  0  0
 27 23  1  0  0  0  0
 29 28  1  0  0  0  0
 29 30  2  0  0  0  0
 31 32  1  0  0  0  0
 32 29  1  0  0  0  0
M  END
>  <MODEL>
9

>  <REMARK>
 VINA RESULT:      -7.1      2.648      5.640
  Name = 
  14 active torsions:
  status: ('A' for Active; 'I' for Inactive)
    1  A    between atoms: C_1  and  C_4
    2  A    between atoms: C_1  and  O_5
    3  A    between atoms: C_2  and  C_14
    4  A    between atoms: C_3  and  C_20
    5  A    between atoms: C_4  and  C_24
    6  A    between atoms: O_5  and  C_14
    7  A    between atoms: C_13  and  C_29
    8  A    between atoms: C_13  and  C_30
    9  A    between atoms: C_14  and  C_30
   10  A    between atoms: C_15  and  C_20
   11  A    between atoms: C_15  and  C_26
   12  A    between atoms: C_16  and  C_20
   13  A    between atoms: C_16  and  C_24
   14  A    between atoms: C_19  and  C_26
                            x       y       z     vdW  Elec       q    Type
                         _______ _______ _______ _____ _____    ______ ____

>  <TORSDO>
F 14

$$$$
