=
 OpenBabel11052415493D

 34 39  0  0  1  0  0  0  0  0999 V2000
  186.7190  178.2340  144.2380 C   0  0  0  0  0  0  0  0  0  0  0  0
  188.0150  177.9160  147.6600 C   0  0  0  0  0  3  0  0  0  0  0  0
  185.9280  178.2120  146.8600 O   0  0  0  0  0  0  0  0  0  0  0  0
  186.2570  178.5760  141.9180 C   0  0  0  0  0  0  0  0  0  0  0  0
  187.1020  178.2450  142.9280 N   0  0  0  0  0  0  0  0  0  0  0  0
  184.4910  178.9080  143.5290 C   0  0  0  0  0  0  0  0  0  0  0  0
  183.0640  179.2820  143.7600 C   0  0  0  0  0  1  0  0  0  0  0  0
  184.9400  178.9150  142.2100 C   0  0  0  0  0  3  0  0  0  0  0  0
  186.6930  178.5860  140.5530 N   0  0  0  0  0  2  0  0  0  0  0  0
  185.0170  178.4840  145.9350 C   0  0  0  0  0  0  0  0  0  0  0  0
  185.3850  178.5580  144.5740 C   0  0  0  0  0  0  0  0  0  0  0  0
  183.8320  178.6920  146.3050 O   0  0  0  0  0  0  0  0  0  0  0  0
  189.5050  177.9540  147.6300 C   0  0  0  0  0  2  0  0  0  0  0  0
  190.1020  176.8000  146.9090 C   0  0  0  0  0  0  0  0  0  0  0  0
  189.8020  176.5590  145.6350 C   0  0  0  0  0  3  0  0  0  0  0  0
  187.2070  177.9660  146.5950 C   0  0  0  0  0  0  0  0  0  0  0  0
  188.7740  177.2500  144.8370 C   0  0  0  0  0  3  0  0  0  0  0  0
  187.6330  177.8510  145.2420 C   0  0  0  0  0  0  0  0  0  0  0  0
  190.2400  177.3300  140.5090 C   0  0  0  0  0  3  0  0  0  0  0  0
  188.1830  178.2320  138.7290 C   0  0  0  0  0  3  0  0  0  0  0  0
  191.4990  176.1760  137.1570 N   0  0  0  0  0  0  0  0  0  0  0  0
  192.6030  175.4290  136.6260 C   0  0  0  0  0  0  0  0  0  0  0  0
  191.3930  176.3950  138.5750 C   0  0  0  0  0  3  0  0  0  0  0  0
  192.6650  175.1740  135.3950 O   0  0  0  0  0  0  0  0  0  0  0  0
  190.4220  177.1690  139.0610 C   0  0  0  0  0  0  0  0  0  0  0  0
  193.6440  174.9710  137.4850 N   0  0  0  0  0  1  0  0  0  0  0  0
  189.4450  177.3690  136.7500 C   0  0  0  0  0  3  0  0  0  0  0  0
  189.5350  177.9580  138.1300 C   0  0  1  0  0  3  0  0  0  0  0  0
  190.4140  176.5690  136.2970 C   0  0  0  0  0  3  0  0  0  0  0  0
  187.9940  178.2440  140.0570 C   0  0  0  0  0  0  0  0  0  0  0  0
  189.0990  177.8500  140.9700 C   0  0  0  0  0  3  0  0  0  0  0  0
  191.1090  175.9360  147.6060 C   0  0  2  0  0  3  0  0  0  0  0  0
  192.1620  176.7460  148.2210 C   0  0  0  0  0  2  0  0  0  0  0  0
  192.4240  176.0620  146.9490 N   0  0  0  0  0  2  0  0  0  0  0  0
  1 11  2  0  0  0  0
  1 18  1  0  0  0  0
  4  8  1  0  0  0  0
  4  5  2  0  0  0  0
  5  1  1  0  0  0  0
  6  7  1  0  0  0  0
  6 11  1  0  0  0  0
  8  6  2  0  0  0  0
  9  4  1  0  0  0  0
 10 12  2  0  0  0  0
 10  3  1  0  0  0  0
 11 10  1  0  0  0  0
 13  2  1  0  0  0  0
 14 13  1  0  0  0  0
 15 14  2  0  0  0  0
 16  3  1  0  0  0  0
 16  2  2  0  0  0  0
 17 18  2  0  0  0  0
 17 15  1  0  0  0  0
 18 16  1  0  0  0  0
 19 31  2  0  0  0  0
 20 30  2  0  0  0  0
 21 23  1  0  0  0  0
 22 21  1  0  0  0  0
 22 26  1  0  0  0  0
 23 25  2  0  0  0  0
 24 22  2  0  0  0  0
 25 19  1  0  0  0  0
 28 27  1  6  0  0  0
 28 20  1  0  0  0  0
 28 25  1  0  0  0  0
 29 27  2  0  0  0  0
 29 21  1  0  0  0  0
 30  9  1  0  0  0  0
 30 31  1  0  0  0  0
 32 14  1  6  0  0  0
 32 33  1  0  0  0  0
 34 32  1  0  0  0  0
 34 33  1  0  0  0  0
M  END
>  <MODEL>
1

>  <REMARK>
 VINA RESULT:     -11.9      0.000      0.000
  Name = 
  2 active torsions:
  status: ('A' for Active; 'I' for Inactive)
    1  A    between atoms: C_3  and  C_25
    2  A    between atoms: N_18  and  C_30
                            x       y       z     vdW  Elec       q    Type
                         _______ _______ _______ _____ _____    ______ ____

>  <TORSDO>
F 2

$$$$
=
 OpenBabel11052415493D

 34 39  0  0  1  0  0  0  0  0999 V2000
  188.2720  177.8230  145.0880 C   0  0  0  0  0  0  0  0  0  0  0  0
  191.4700  177.3150  143.3540 C   0  0  0  0  0  3  0  0  0  0  0  0
  190.8870  177.1370  145.5240 O   0  0  0  0  0  0  0  0  0  0  0  0
  186.1010  178.4040  145.8990 C   0  0  0  0  0  0  0  0  0  0  0  0
  186.9670  178.1610  144.8820 N   0  0  0  0  0  0  0  0  0  0  0  0
  187.8630  177.9470  147.4830 C   0  0  0  0  0  0  0  0  0  0  0  0
  188.2600  177.8570  148.9200 C   0  0  0  0  0  1  0  0  0  0  0  0
  186.5430  178.3020  147.2150 C   0  0  0  0  0  3  0  0  0  0  0  0
  184.7370  178.7670  145.6500 N   0  0  0  0  0  2  0  0  0  0  0  0
  190.0980  177.2920  146.5790 C   0  0  0  0  0  0  0  0  0  0  0  0
  188.7560  177.6950  146.4100 C   0  0  0  0  0  0  0  0  0  0  0  0
  190.5830  177.0900  147.7240 O   0  0  0  0  0  0  0  0  0  0  0  0
  191.3450  177.7780  141.9420 C   0  0  0  0  0  2  0  0  0  0  0  0
  190.3740  176.9780  141.1510 C   0  0  0  0  0  0  0  0  0  0  0  0
  189.1010  176.8800  141.5260 C   0  0  0  0  0  3  0  0  0  0  0  0
  190.4920  177.3120  144.2680 C   0  0  0  0  0  0  0  0  0  0  0  0
  188.5260  177.3750  142.7900 C   0  0  0  0  0  3  0  0  0  0  0  0
  189.1170  177.5520  143.9920 C   0  0  0  0  0  0  0  0  0  0  0  0
  184.2870  178.8710  141.9140 C   0  0  0  0  0  3  0  0  0  0  0  0
  182.7550  178.8970  144.3350 C   0  0  0  0  0  3  0  0  0  0  0  0
  180.8150  178.1080  140.6870 N   0  0  0  0  0  0  0  0  0  0  0  0
  180.1610  177.7870  139.4510 C   0  0  0  0  0  0  0  0  0  0  0  0
  182.2350  178.3340  140.7140 C   0  0  0  0  0  3  0  0  0  0  0  0
  178.9310  177.5190  139.4320 O   0  0  0  0  0  0  0  0  0  0  0  0
  182.8290  178.7250  141.8420 C   0  0  0  0  0  0  0  0  0  0  0  0
  180.8950  177.7700  138.2300 N   0  0  0  0  0  1  0  0  0  0  0  0
  180.6450  178.4630  143.0650 C   0  0  0  0  0  3  0  0  0  0  0  0
  182.0050  179.1020  143.0490 C   0  0  1  0  0  3  0  0  0  0  0  0
  180.0850  178.0470  141.9260 C   0  0  0  0  0  3  0  0  0  0  0  0
  184.0950  178.8950  144.3730 C   0  0  0  0  0  0  0  0  0  0  0  0
  184.8760  178.9650  143.1100 C   0  0  0  0  0  3  0  0  0  0  0  0
  190.8190  176.3300  139.8740 C   0  0  2  0  0  3  0  0  0  0  0  0
  191.9380  177.0600  139.2760 C   0  0  0  0  0  2  0  0  0  0  0  0
  190.5850  177.2420  138.7380 N   0  0  0  0  0  2  0  0  0  0  0  0
  1 11  2  0  0  0  0
  2 16  2  0  0  0  0
  3 10  1  0  0  0  0
  4  8  1  0  0  0  0
  5  1  1  0  0  0  0
  5  4  2  0  0  0  0
  6  7  1  0  0  0  0
  8  6  2  0  0  0  0
  9  4  1  0  0  0  0
 10 12  2  0  0  0  0
 11 10  1  0  0  0  0
 11  6  1  0  0  0  0
 13  2  1  0  0  0  0
 14 15  2  0  0  0  0
 14 13  1  0  0  0  0
 15 17  1  0  0  0  0
 16  3  1  0  0  0  0
 17 18  2  0  0  0  0
 18 16  1  0  0  0  0
 18  1  1  0  0  0  0
 19 31  2  0  0  0  0
 20 30  2  0  0  0  0
 21 23  1  0  0  0  0
 21 29  1  0  0  0  0
 22 21  1  0  0  0  0
 23 25  2  0  0  0  0
 24 22  2  0  0  0  0
 25 19  1  0  0  0  0
 25 28  1  0  0  0  0
 26 22  1  0  0  0  0
 28 27  1  1  0  0  0
 28 20  1  0  0  0  0
 29 27  2  0  0  0  0
 30  9  1  0  0  0  0
 31 30  1  0  0  0  0
 32 14  1  1  0  0  0
 33 32  1  0  0  0  0
 34 33  1  0  0  0  0
 34 32  1  0  0  0  0
M  END
>  <MODEL>
2

>  <REMARK>
 VINA RESULT:     -11.9      3.232      7.632
  Name = 
  2 active torsions:
  status: ('A' for Active; 'I' for Inactive)
    1  A    between atoms: C_3  and  C_25
    2  A    between atoms: N_18  and  C_30
                            x       y       z     vdW  Elec       q    Type
                         _______ _______ _______ _____ _____    ______ ____

>  <TORSDO>
F 2

$$$$
=
 OpenBabel11052415493D

 34 39  0  0  1  0  0  0  0  0999 V2000
  184.8760  178.5220  142.8480 C   0  0  0  0  0  0  0  0  0  0  0  0
  185.2100  178.6460  146.5030 C   0  0  0  0  0  3  0  0  0  0  0  0
  183.4040  178.5840  145.1560 O   0  0  0  0  0  0  0  0  0  0  0  0
  185.0320  178.6210  140.4650 C   0  0  0  0  0  0  0  0  0  0  0  0
  185.6000  178.4880  141.6920 N   0  0  0  0  0  0  0  0  0  0  0  0
  182.8660  178.8200  141.5100 C   0  0  0  0  0  0  0  0  0  0  0  0
  181.3970  179.0060  141.3160 C   0  0  0  0  0  1  0  0  0  0  0  0
  183.6550  178.7920  140.3620 C   0  0  0  0  0  3  0  0  0  0  0  0
  185.8210  178.5900  139.2690 N   0  0  0  0  0  2  0  0  0  0  0  0
  182.7560  178.6560  144.0000 C   0  0  0  0  0  0  0  0  0  0  0  0
  183.4730  178.6790  142.7850 C   0  0  0  0  0  0  0  0  0  0  0  0
  181.4990  178.7210  144.0220 O   0  0  0  0  0  0  0  0  0  0  0  0
  186.6370  178.8910  146.8610 C   0  0  0  0  0  2  0  0  0  0  0  0
  187.5370  177.7810  146.4530 C   0  0  0  0  0  0  0  0  0  0  0  0
  187.6290  177.4060  145.1800 C   0  0  0  0  0  3  0  0  0  0  0  0
  184.7260  178.5020  145.2650 C   0  0  0  0  0  0  0  0  0  0  0  0
  186.7860  177.8840  144.0690 C   0  0  0  0  0  3  0  0  0  0  0  0
  185.5170  178.3470  144.0920 C   0  0  0  0  0  0  0  0  0  0  0  0
  189.3750  177.9130  140.3080 C   0  0  0  0  0  3  0  0  0  0  0  0
  187.7770  178.2520  137.9530 C   0  0  0  0  0  3  0  0  0  0  0  0
  191.6140  176.5640  137.6040 N   0  0  0  0  0  0  0  0  0  0  0  0
  192.9020  175.9400  137.4900 C   0  0  0  0  0  0  0  0  0  0  0  0
  191.1070  176.9390  138.8960 C   0  0  0  0  0  3  0  0  0  0  0  0
  193.3220  175.5470  136.3700 O   0  0  0  0  0  0  0  0  0  0  0  0
  189.9560  177.6040  138.9960 C   0  0  0  0  0  0  0  0  0  0  0  0
  193.7210  175.7630  138.6420 N   0  0  0  0  0  1  0  0  0  0  0  0
  189.6160  177.3590  136.5140 C   0  0  0  0  0  3  0  0  0  0  0  0
  189.2620  178.1210  137.7590 C   0  0  1  0  0  3  0  0  0  0  0  0
  190.7600  176.6710  136.4500 C   0  0  0  0  0  3  0  0  0  0  0  0
  187.2390  178.3980  139.1730 C   0  0  0  0  0  0  0  0  0  0  0  0
  188.0980  178.3010  140.3820 C   0  0  0  0  0  3  0  0  0  0  0  0
  188.4080  177.1220  147.4810 C   0  0  2  0  0  3  0  0  0  0  0  0
  188.3960  177.8710  148.7390 C   0  0  0  0  0  2  0  0  0  0  0  0
  189.5380  178.0040  147.8260 N   0  0  0  0  0  2  0  0  0  0  0  0
  1 18  1  0  0  0  0
  2 13  1  0  0  0  0
  3 16  1  0  0  0  0
  4  5  2  0  0  0  0
  5  1  1  0  0  0  0
  6 11  1  0  0  0  0
  7  6  1  0  0  0  0
  8  4  1  0  0  0  0
  8  6  2  0  0  0  0
  9  4  1  0  0  0  0
 10 12  2  0  0  0  0
 10  3  1  0  0  0  0
 11  1  2  0  0  0  0
 11 10  1  0  0  0  0
 14 13  1  0  0  0  0
 15 14  2  0  0  0  0
 16  2  2  0  0  0  0
 17 18  2  0  0  0  0
 17 15  1  0  0  0  0
 18 16  1  0  0  0  0
 19 31  2  0  0  0  0
 20 30  2  0  0  0  0
 21 23  1  0  0  0  0
 22 21  1  0  0  0  0
 22 26  1  0  0  0  0
 23 25  2  0  0  0  0
 24 22  2  0  0  0  0
 25 19  1  0  0  0  0
 28 27  1  6  0  0  0
 28 20  1  0  0  0  0
 28 25  1  0  0  0  0
 29 27  2  0  0  0  0
 29 21  1  0  0  0  0
 30  9  1  0  0  0  0
 30 31  1  0  0  0  0
 32 14  1  6  0  0  0
 32 34  1  0  0  0  0
 32 33  1  0  0  0  0
 34 33  1  0  0  0  0
M  END
>  <MODEL>
3

>  <REMARK>
 VINA RESULT:     -11.6      1.547      2.251
  Name = 
  2 active torsions:
  status: ('A' for Active; 'I' for Inactive)
    1  A    between atoms: C_3  and  C_25
    2  A    between atoms: N_18  and  C_30
                            x       y       z     vdW  Elec       q    Type
                         _______ _______ _______ _____ _____    ______ ____

>  <TORSDO>
F 2

$$$$
=
 OpenBabel11052415493D

 34 39  0  0  1  0  0  0  0  0999 V2000
  186.2060  178.2380  143.4790 C   0  0  0  0  0  0  0  0  0  0  0  0
  182.7200  178.5880  142.3740 C   0  0  0  0  0  3  0  0  0  0  0  0
  183.6740  178.6980  144.4140 O   0  0  0  0  0  0  0  0  0  0  0  0
  188.5220  177.7830  143.8530 C   0  0  0  0  0  0  0  0  0  0  0  0
  187.4720  178.0110  143.0230 N   0  0  0  0  0  0  0  0  0  0  0  0
  187.0490  178.0220  145.7510 C   0  0  0  0  0  0  0  0  0  0  0  0
  186.9140  178.0070  147.2380 C   0  0  0  0  0  1  0  0  0  0  0  0
  188.3200  177.7830  145.2300 C   0  0  0  0  0  3  0  0  0  0  0  0
  189.8390  177.5390  143.3430 N   0  0  0  0  0  2  0  0  0  0  0  0
  184.6500  178.5500  145.3010 C   0  0  0  0  0  0  0  0  0  0  0  0
  185.9620  178.2600  144.8710 C   0  0  0  0  0  0  0  0  0  0  0  0
  184.3680  178.6550  146.5230 O   0  0  0  0  0  0  0  0  0  0  0  0
  182.6170  178.2090  140.9360 C   0  0  0  0  0  2  0  0  0  0  0  0
  183.3740  179.1210  140.0390 C   0  0  0  0  0  0  0  0  0  0  0  0
  184.6850  179.2960  140.1880 C   0  0  0  0  0  3  0  0  0  0  0  0
  183.8450  178.6190  143.0990 C   0  0  0  0  0  0  0  0  0  0  0  0
  185.5110  178.7820  141.2950 C   0  0  0  0  0  3  0  0  0  0  0  0
  185.1600  178.4990  142.5690 C   0  0  0  0  0  0  0  0  0  0  0  0
  192.0490  177.2190  140.3130 C   0  0  0  0  0  3  0  0  0  0  0  0
  189.2910  177.5350  141.0260 C   0  0  0  0  0  3  0  0  0  0  0  0
  190.2770  176.3510  137.1110 N   0  0  0  0  0  0  0  0  0  0  0  0
  190.6090  175.8960  135.7920 C   0  0  0  0  0  0  0  0  0  0  0  0
  191.3160  176.5660  138.0820 C   0  0  0  0  0  3  0  0  0  0  0  0
  189.6990  175.6390  134.9590 O   0  0  0  0  0  0  0  0  0  0  0  0
  191.0200  177.0790  139.2770 C   0  0  0  0  0  0  0  0  0  0  0  0
  191.9710  175.7340  135.4060 N   0  0  0  0  0  1  0  0  0  0  0  0
  188.5720  176.9770  138.6970 C   0  0  0  0  0  3  0  0  0  0  0  0
  189.6310  177.5990  139.5630 C   0  0  1  0  0  3  0  0  0  0  0  0
  188.8990  176.4390  137.5180 C   0  0  0  0  0  3  0  0  0  0  0  0
  190.2450  177.5260  141.9680 C   0  0  0  0  0  0  0  0  0  0  0  0
  191.6770  177.4430  141.5770 C   0  0  0  0  0  3  0  0  0  0  0  0
  182.6640  179.7970  138.9050 C   0  0  2  0  0  3  0  0  0  0  0  0
  181.3130  179.2600  138.7350 C   0  0  0  0  0  2  0  0  0  0  0  0
  182.3850  178.8250  137.8320 N   0  0  0  0  0  2  0  0  0  0  0  0
  1 11  2  0  0  0  0
  2 16  2  0  0  0  0
  3 10  1  0  0  0  0
  4  8  1  0  0  0  0
  5  1  1  0  0  0  0
  5  4  2  0  0  0  0
  6  7  1  0  0  0  0
  8  6  2  0  0  0  0
  9  4  1  0  0  0  0
 10 12  2  0  0  0  0
 11 10  1  0  0  0  0
 11  6  1  0  0  0  0
 13  2  1  0  0  0  0
 14 15  2  0  0  0  0
 14 13  1  0  0  0  0
 15 17  1  0  0  0  0
 16  3  1  0  0  0  0
 17 18  2  0  0  0  0
 18 16  1  0  0  0  0
 18  1  1  0  0  0  0
 19 31  2  0  0  0  0
 20 30  2  0  0  0  0
 21 29  1  0  0  0  0
 21 23  1  0  0  0  0
 22 21  1  0  0  0  0
 23 25  2  0  0  0  0
 24 22  2  0  0  0  0
 25 28  1  0  0  0  0
 25 19  1  0  0  0  0
 26 22  1  0  0  0  0
 28 27  1  6  0  0  0
 28 20  1  0  0  0  0
 29 27  2  0  0  0  0
 30  9  1  0  0  0  0
 31 30  1  0  0  0  0
 32 14  1  1  0  0  0
 33 32  1  0  0  0  0
 34 33  1  0  0  0  0
 34 32  1  0  0  0  0
M  END
>  <MODEL>
4

>  <REMARK>
 VINA RESULT:     -11.0      2.014      5.705
  Name = 
  2 active torsions:
  status: ('A' for Active; 'I' for Inactive)
    1  A    between atoms: C_3  and  C_25
    2  A    between atoms: N_18  and  C_30
                            x       y       z     vdW  Elec       q    Type
                         _______ _______ _______ _____ _____    ______ ____

>  <TORSDO>
F 2

$$$$
=
 OpenBabel11052415493D

 34 39  0  0  1  0  0  0  0  0999 V2000
  184.6670  178.6440  142.2290 C   0  0  0  0  0  0  0  0  0  0  0  0
  185.6220  178.1290  138.7200 C   0  0  0  0  0  3  0  0  0  0  0  0
  183.6920  178.7980  139.6750 O   0  0  0  0  0  0  0  0  0  0  0  0
  184.3440  178.7040  144.5960 C   0  0  0  0  0  0  0  0  0  0  0  0
  185.1430  178.5730  143.5060 N   0  0  0  0  0  0  0  0  0  0  0  0
  182.4440  179.0230  143.1430 C   0  0  0  0  0  0  0  0  0  0  0  0
  180.9740  179.2640  143.0430 C   0  0  0  0  0  1  0  0  0  0  0  0
  182.9820  178.9280  144.4250 C   0  0  0  0  0  3  0  0  0  0  0  0
  184.8740  178.6160  145.9250 N   0  0  0  0  0  2  0  0  0  0  0  0
  182.8490  179.0030  140.6780 C   0  0  0  0  0  0  0  0  0  0  0  0
  183.2910  178.8850  142.0130 C   0  0  0  0  0  0  0  0  0  0  0  0
  181.6520  179.2840  140.4060 O   0  0  0  0  0  0  0  0  0  0  0  0
  186.9590  177.4730  138.6630 C   0  0  0  0  0  2  0  0  0  0  0  0
  188.0480  178.3220  139.2130 C   0  0  0  0  0  0  0  0  0  0  0  0
  188.0060  178.7610  140.4680 C   0  0  0  0  0  3  0  0  0  0  0  0
  184.9780  178.5040  139.8320 C   0  0  0  0  0  0  0  0  0  0  0  0
  186.8710  178.6280  141.3990 C   0  0  0  0  0  3  0  0  0  0  0  0
  185.5500  178.5310  141.1350 C   0  0  0  0  0  0  0  0  0  0  0  0
  187.9060  178.0910  148.0930 C   0  0  0  0  0  3  0  0  0  0  0  0
  187.1260  178.1180  145.3360 C   0  0  0  0  0  3  0  0  0  0  0  0
  190.8200  176.4130  146.4080 N   0  0  0  0  0  0  0  0  0  0  0  0
  192.0550  175.7850  146.7780 C   0  0  0  0  0  0  0  0  0  0  0  0
  189.9520  176.9490  147.4220 C   0  0  0  0  0  3  0  0  0  0  0  0
  192.7860  175.2520  145.9010 O   0  0  0  0  0  0  0  0  0  0  0  0
  188.8520  177.6180  147.0760 C   0  0  0  0  0  0  0  0  0  0  0  0
  192.4720  175.7590  148.1400 N   0  0  0  0  0  1  0  0  0  0  0  0
  189.2870  177.0540  144.6610 C   0  0  0  0  0  3  0  0  0  0  0  0
  188.5930  177.9690  145.6310 C   0  0  1  0  0  3  0  0  0  0  0  0
  190.3680  176.3680  145.0420 C   0  0  0  0  0  3  0  0  0  0  0  0
  186.2440  178.4180  146.2990 C   0  0  0  0  0  0  0  0  0  0  0  0
  186.6830  178.4800  147.7180 C   0  0  0  0  0  3  0  0  0  0  0  0
  189.2450  178.6280  138.3640 C   0  0  2  0  0  3  0  0  0  0  0  0
  189.3220  177.7230  137.2170 C   0  0  0  0  0  2  0  0  0  0  0  0
  190.1820  177.4890  138.3820 N   0  0  0  0  0  2  0  0  0  0  0  0
  1  5  1  0  0  0  0
  2 16  2  0  0  0  0
  3 16  1  0  0  0  0
  3 10  1  0  0  0  0
  4  9  1  0  0  0  0
  5  4  2  0  0  0  0
  6  8  2  0  0  0  0
  7  6  1  0  0  0  0
  8  4  1  0  0  0  0
  9 30  1  0  0  0  0
 10 11  1  0  0  0  0
 11  1  2  0  0  0  0
 11  6  1  0  0  0  0
 12 10  2  0  0  0  0
 13  2  1  0  0  0  0
 13 14  1  0  0  0  0
 14 15  2  0  0  0  0
 15 17  1  0  0  0  0
 16 18  1  0  0  0  0
 18 17  2  0  0  0  0
 18  1  1  0  0  0  0
 20 28  1  0  0  0  0
 20 30  2  0  0  0  0
 21 22  1  0  0  0  0
 21 23  1  0  0  0  0
 22 26  1  0  0  0  0
 24 22  2  0  0  0  0
 25 23  2  0  0  0  0
 25 19  1  0  0  0  0
 27 29  2  0  0  0  0
 28 27  1  6  0  0  0
 28 25  1  0  0  0  0
 29 21  1  0  0  0  0
 30 31  1  0  0  0  0
 31 19  2  0  0  0  0
 32 34  1  0  0  0  0
 32 14  1  1  0  0  0
 33 32  1  0  0  0  0
 33 34  1  0  0  0  0
M  END
>  <MODEL>
5

>  <REMARK>
 VINA RESULT:     -11.0      3.000      7.368
  Name = 
  2 active torsions:
  status: ('A' for Active; 'I' for Inactive)
    1  A    between atoms: C_3  and  C_25
    2  A    between atoms: N_18  and  C_30
                            x       y       z     vdW  Elec       q    Type
                         _______ _______ _______ _____ _____    ______ ____

>  <TORSDO>
F 2

$$$$
=
 OpenBabel11052415493D

 34 39  0  0  1  0  0  0  0  0999 V2000
  188.8500  177.6870  144.7170 C   0  0  0  0  0  0  0  0  0  0  0  0
  191.6850  177.3720  142.4030 C   0  0  0  0  0  3  0  0  0  0  0  0
  191.5500  177.2360  144.6490 O   0  0  0  0  0  0  0  0  0  0  0  0
  186.8330  178.1220  145.9230 C   0  0  0  0  0  0  0  0  0  0  0  0
  187.5040  177.9090  144.7620 N   0  0  0  0  0  0  0  0  0  0  0  0
  188.9010  177.8750  147.1420 C   0  0  0  0  0  0  0  0  0  0  0  0
  189.5740  177.8770  148.4750 C   0  0  0  0  0  1  0  0  0  0  0  0
  187.5270  178.1100  147.1280 C   0  0  0  0  0  3  0  0  0  0  0  0
  185.4200  178.3610  145.9360 N   0  0  0  0  0  2  0  0  0  0  0  0
  190.9680  177.3690  145.8340 C   0  0  0  0  0  0  0  0  0  0  0  0
  189.5890  177.6530  145.9210 C   0  0  0  0  0  0  0  0  0  0  0  0
  191.6800  177.2540  146.8660 O   0  0  0  0  0  0  0  0  0  0  0  0
  191.2500  177.7650  141.0320 C   0  0  0  0  0  2  0  0  0  0  0  0
  190.2190  176.8560  140.4660 C   0  0  0  0  0  0  0  0  0  0  0  0
  189.0560  176.6700  141.0850 C   0  0  0  0  0  3  0  0  0  0  0  0
  190.9060  177.3260  143.4900 C   0  0  0  0  0  0  0  0  0  0  0  0
  188.6940  177.1680  142.4250 C   0  0  0  0  0  3  0  0  0  0  0  0
  189.4880  177.4410  143.4830 C   0  0  0  0  0  0  0  0  0  0  0  0
  182.2880  178.8600  143.9080 C   0  0  0  0  0  3  0  0  0  0  0  0
  185.0650  178.2330  143.5850 C   0  0  0  0  0  3  0  0  0  0  0  0
  182.8240  179.4160  140.2270 N   0  0  0  0  0  0  0  0  0  0  0  0
  182.0740  179.8700  139.0910 C   0  0  0  0  0  0  0  0  0  0  0  0
  182.2030  179.3560  141.5230 C   0  0  0  0  0  3  0  0  0  0  0  0
  182.6300  179.9910  137.9680 O   0  0  0  0  0  0  0  0  0  0  0  0
  182.8680  178.8450  142.5600 C   0  0  0  0  0  0  0  0  0  0  0  0
  180.6900  180.1850  139.2200 N   0  0  0  0  0  1  0  0  0  0  0  0
  184.9210  178.6330  141.1200 C   0  0  0  0  0  3  0  0  0  0  0  0
  184.2020  178.1690  142.3550 C   0  0  1  0  0  3  0  0  0  0  0  0
  184.2380  179.1730  140.1080 C   0  0  0  0  0  3  0  0  0  0  0  0
  184.5360  178.3840  144.8070 C   0  0  0  0  0  0  0  0  0  0  0  0
  183.0770  178.6280  144.9620 C   0  0  0  0  0  3  0  0  0  0  0  0
  190.4640  176.1950  139.1430 C   0  0  2  0  0  3  0  0  0  0  0  0
  191.6470  176.7540  138.4870 C   0  0  0  0  0  2  0  0  0  0  0  0
  190.3100  177.1760  138.0520 N   0  0  0  0  0  2  0  0  0  0  0  0
  1  5  1  0  0  0  0
  1 11  2  0  0  0  0
  2 16  2  0  0  0  0
  3 10  1  0  0  0  0
  4  9  1  0  0  0  0
  4  8  1  0  0  0  0
  5  4  2  0  0  0  0
  6  7  1  0  0  0  0
  8  6  2  0  0  0  0
 10 11  1  0  0  0  0
 10 12  2  0  0  0  0
 11  6  1  0  0  0  0
 13  2  1  0  0  0  0
 14 13  1  0  0  0  0
 14 15  2  0  0  0  0
 15 17  1  0  0  0  0
 16  3  1  0  0  0  0
 17 18  2  0  0  0  0
 18 16  1  0  0  0  0
 18  1  1  0  0  0  0
 19 31  2  0  0  0  0
 20 30  2  0  0  0  0
 21 23  1  0  0  0  0
 22 26  1  0  0  0  0
 22 21  1  0  0  0  0
 23 25  2  0  0  0  0
 24 22  2  0  0  0  0
 25 19  1  0  0  0  0
 28 27  1  6  0  0  0
 28 25  1  0  0  0  0
 28 20  1  0  0  0  0
 29 21  1  0  0  0  0
 29 27  2  0  0  0  0
 30 31  1  0  0  0  0
 30  9  1  0  0  0  0
 32 14  1  1  0  0  0
 33 32  1  0  0  0  0
 34 33  1  0  0  0  0
 34 32  1  0  0  0  0
M  END
>  <MODEL>
6

>  <REMARK>
 VINA RESULT:     -10.8      3.123      7.405
  Name = 
  2 active torsions:
  status: ('A' for Active; 'I' for Inactive)
    1  A    between atoms: C_3  and  C_25
    2  A    between atoms: N_18  and  C_30
                            x       y       z     vdW  Elec       q    Type
                         _______ _______ _______ _____ _____    ______ ____

>  <TORSDO>
F 2

$$$$
=
 OpenBabel11052415493D

 34 39  0  0  1  0  0  0  0  0999 V2000
  182.9470  178.5740  141.8840 C   0  0  0  0  0  0  0  0  0  0  0  0
  183.2070  177.9150  138.2800 C   0  0  0  0  0  3  0  0  0  0  0  0
  181.4820  178.5800  139.5710 O   0  0  0  0  0  0  0  0  0  0  0  0
  183.0960  178.7400  144.2640 C   0  0  0  0  0  0  0  0  0  0  0  0
  183.6680  178.5770  143.0430 N   0  0  0  0  0  0  0  0  0  0  0  0
  180.9370  178.9390  143.2050 C   0  0  0  0  0  0  0  0  0  0  0  0
  179.4680  179.1390  143.3890 C   0  0  0  0  0  1  0  0  0  0  0  0
  181.7200  178.9200  144.3580 C   0  0  0  0  0  3  0  0  0  0  0  0
  183.8800  178.7290  145.4640 N   0  0  0  0  0  2  0  0  0  0  0  0
  180.8470  178.8110  140.7120 C   0  0  0  0  0  0  0  0  0  0  0  0
  181.5480  178.7690  141.9360 C   0  0  0  0  0  0  0  0  0  0  0  0
  179.6110  179.0490  140.6720 O   0  0  0  0  0  0  0  0  0  0  0  0
  184.5290  177.2910  137.9860 C   0  0  0  0  0  2  0  0  0  0  0  0
  185.6750  178.1920  138.2730 C   0  0  0  0  0  0  0  0  0  0  0  0
  185.8670  178.6910  139.4920 C   0  0  0  0  0  3  0  0  0  0  0  0
  182.7840  178.3260  139.4810 C   0  0  0  0  0  0  0  0  0  0  0  0
  184.9430  178.5740  140.6340 C   0  0  0  0  0  3  0  0  0  0  0  0
  183.6000  178.4310  140.6420 C   0  0  0  0  0  0  0  0  0  0  0  0
  187.2910  178.3280  147.0040 C   0  0  0  0  0  3  0  0  0  0  0  0
  185.9940  178.3110  144.4490 C   0  0  0  0  0  3  0  0  0  0  0  0
  189.8860  176.7510  144.7850 N   0  0  0  0  0  0  0  0  0  0  0  0
  191.1920  176.1700  144.9090 C   0  0  0  0  0  0  0  0  0  0  0  0
  189.2110  177.2600  145.9490 C   0  0  0  0  0  3  0  0  0  0  0  0
  191.7600  175.6600  143.9070 O   0  0  0  0  0  0  0  0  0  0  0  0
  188.0400  177.8850  145.8230 C   0  0  0  0  0  0  0  0  0  0  0  0
  191.8650  176.1680  146.1650 N   0  0  0  0  0  1  0  0  0  0  0  0
  188.0220  177.3240  143.3690 C   0  0  0  0  0  3  0  0  0  0  0  0
  187.4950  178.2190  144.4550 C   0  0  1  0  0  3  0  0  0  0  0  0
  189.1810  176.6810  143.5320 C   0  0  0  0  0  3  0  0  0  0  0  0
  185.3030  178.5840  145.5660 C   0  0  0  0  0  0  0  0  0  0  0  0
  186.0060  178.6700  146.8730 C   0  0  0  0  0  3  0  0  0  0  0  0
  186.6700  178.4880  137.1900 C   0  0  2  0  0  3  0  0  0  0  0  0
  186.6500  177.4490  136.1600 C   0  0  0  0  0  2  0  0  0  0  0  0
  187.7160  177.4490  137.1690 N   0  0  0  0  0  2  0  0  0  0  0  0
  1 11  2  0  0  0  0
  1  5  1  0  0  0  0
  2 16  2  0  0  0  0
  3 10  1  0  0  0  0
  4  8  1  0  0  0  0
  4  9  1  0  0  0  0
  5  4  2  0  0  0  0
  6  7  1  0  0  0  0
  6  8  2  0  0  0  0
  9 30  1  0  0  0  0
 10 11  1  0  0  0  0
 11  6  1  0  0  0  0
 12 10  2  0  0  0  0
 13 14  1  0  0  0  0
 13  2  1  0  0  0  0
 14 15  2  0  0  0  0
 15 17  1  0  0  0  0
 16  3  1  0  0  0  0
 16 18  1  0  0  0  0
 17 18  2  0  0  0  0
 18  1  1  0  0  0  0
 20 28  1  0  0  0  0
 20 30  2  0  0  0  0
 21 22  1  0  0  0  0
 21 23  1  0  0  0  0
 22 26  1  0  0  0  0
 24 22  2  0  0  0  0
 25 23  2  0  0  0  0
 25 19  1  0  0  0  0
 27 29  2  0  0  0  0
 28 27  1  6  0  0  0
 28 25  1  0  0  0  0
 29 21  1  0  0  0  0
 30 31  1  0  0  0  0
 31 19  2  0  0  0  0
 32 14  1  1  0  0  0
 33 34  1  0  0  0  0
 33 32  1  0  0  0  0
 34 32  1  0  0  0  0
M  END
>  <MODEL>
7

>  <REMARK>
 VINA RESULT:     -10.7      3.612      7.630
  Name = 
  2 active torsions:
  status: ('A' for Active; 'I' for Inactive)
    1  A    between atoms: C_3  and  C_25
    2  A    between atoms: N_18  and  C_30
                            x       y       z     vdW  Elec       q    Type
                         _______ _______ _______ _____ _____    ______ ____

>  <TORSDO>
F 2

$$$$
=
 OpenBabel11052415493D

 34 39  0  0  1  0  0  0  0  0999 V2000
  185.8940  178.2080  143.6320 C   0  0  0  0  0  0  0  0  0  0  0  0
  182.2710  178.6140  143.1800 C   0  0  0  0  0  3  0  0  0  0  0  0
  183.5900  178.7730  145.0010 O   0  0  0  0  0  0  0  0  0  0  0  0
  188.2290  177.7030  143.5890 C   0  0  0  0  0  0  0  0  0  0  0  0
  187.0480  177.9290  142.9590 N   0  0  0  0  0  0  0  0  0  0  0  0
  187.1420  178.0550  145.7150 C   0  0  0  0  0  0  0  0  0  0  0  0
  187.2860  178.0990  147.2000 C   0  0  0  0  0  1  0  0  0  0  0  0
  188.2880  177.7600  144.9780 C   0  0  0  0  0  3  0  0  0  0  0  0
  189.4230  177.4030  142.8540 N   0  0  0  0  0  2  0  0  0  0  0  0
  184.7110  178.6320  145.6960 C   0  0  0  0  0  0  0  0  0  0  0  0
  185.9140  178.2900  145.0430 C   0  0  0  0  0  0  0  0  0  0  0  0
  184.6650  178.7910  146.9440 O   0  0  0  0  0  0  0  0  0  0  0  0
  181.8940  178.1840  141.8030 C   0  0  0  0  0  2  0  0  0  0  0  0
  182.4890  179.0400  140.7430 C   0  0  0  0  0  0  0  0  0  0  0  0
  183.8070  179.1840  140.6390 C   0  0  0  0  0  3  0  0  0  0  0  0
  183.5120  178.6400  143.6810 C   0  0  0  0  0  0  0  0  0  0  0  0
  184.8150  178.6900  141.5940 C   0  0  0  0  0  3  0  0  0  0  0  0
  184.7020  178.4640  142.9220 C   0  0  0  0  0  0  0  0  0  0  0  0
  190.7120  176.3370  139.4820 C   0  0  0  0  0  3  0  0  0  0  0  0
  188.6200  177.8970  140.6670 C   0  0  0  0  0  3  0  0  0  0  0  0
  188.3040  176.7730  136.6260 N   0  0  0  0  0  0  0  0  0  0  0  0
  188.1690  176.3460  135.2630 C   0  0  0  0  0  0  0  0  0  0  0  0
  189.4380  176.3520  137.4040 C   0  0  0  0  0  3  0  0  0  0  0  0
  187.1450  176.6530  134.5970 O   0  0  0  0  0  0  0  0  0  0  0  0
  189.6140  176.8240  138.6380 C   0  0  0  0  0  0  0  0  0  0  0  0
  189.1940  175.5730  134.6440 N   0  0  0  0  0  1  0  0  0  0  0  0
  187.3920  177.9980  138.4910 C   0  0  0  0  0  3  0  0  0  0  0  0
  188.7320  177.9290  139.1680 C   0  0  1  0  0  3  0  0  0  0  0  0
  187.2310  177.4870  137.2670 C   0  0  0  0  0  3  0  0  0  0  0  0
  189.5650  177.3270  141.4290 C   0  0  0  0  0  0  0  0  0  0  0  0
  190.6890  176.5900  140.7940 C   0  0  0  0  0  3  0  0  0  0  0  0
  181.5930  179.6930  139.7330 C   0  0  2  0  0  3  0  0  0  0  0  0
  180.2440  179.1270  139.7830 C   0  0  0  0  0  2  0  0  0  0  0  0
  181.1680  178.7060  138.7230 N   0  0  0  0  0  2  0  0  0  0  0  0
  1 11  2  0  0  0  0
  2 16  2  0  0  0  0
  3 10  1  0  0  0  0
  4  8  1  0  0  0  0
  5  4  2  0  0  0  0
  5  1  1  0  0  0  0
  6  7  1  0  0  0  0
  8  6  2  0  0  0  0
  9  4  1  0  0  0  0
 10 12  2  0  0  0  0
 11 10  1  0  0  0  0
 11  6  1  0  0  0  0
 13  2  1  0  0  0  0
 14 13  1  0  0  0  0
 15 14  2  0  0  0  0
 15 17  1  0  0  0  0
 16  3  1  0  0  0  0
 17 18  2  0  0  0  0
 18  1  1  0  0  0  0
 18 16  1  0  0  0  0
 19 31  2  0  0  0  0
 20 30  2  0  0  0  0
 21 29  1  0  0  0  0
 21 23  1  0  0  0  0
 22 21  1  0  0  0  0
 23 25  2  0  0  0  0
 24 22  2  0  0  0  0
 25 28  1  0  0  0  0
 25 19  1  0  0  0  0
 26 22  1  0  0  0  0
 28 27  1  6  0  0  0
 28 20  1  0  0  0  0
 29 27  2  0  0  0  0
 30  9  1  0  0  0  0
 31 30  1  0  0  0  0
 32 33  1  0  0  0  0
 32 14  1  1  0  0  0
 34 32  1  0  0  0  0
 34 33  1  0  0  0  0
M  END
>  <MODEL>
8

>  <REMARK>
 VINA RESULT:     -10.5      2.431      5.946
  Name = 
  2 active torsions:
  status: ('A' for Active; 'I' for Inactive)
    1  A    between atoms: C_3  and  C_25
    2  A    between atoms: N_18  and  C_30
                            x       y       z     vdW  Elec       q    Type
                         _______ _______ _______ _____ _____    ______ ____

>  <TORSDO>
F 2

$$$$
=
 OpenBabel11052415493D

 34 39  0  0  1  0  0  0  0  0999 V2000
  188.6080  177.5220  144.6060 C   0  0  0  0  0  0  0  0  0  0  0  0
  185.3800  178.0450  146.2790 C   0  0  0  0  0  3  0  0  0  0  0  0
  187.4790  177.8570  147.0790 O   0  0  0  0  0  0  0  0  0  0  0  0
  190.4840  177.0060  143.2180 C   0  0  0  0  0  0  0  0  0  0  0  0
  189.1820  177.3560  143.3800 N   0  0  0  0  0  0  0  0  0  0  0  0
  190.7550  176.9800  145.6160 C   0  0  0  0  0  0  0  0  0  0  0  0
  191.6790  176.7530  146.7670 C   0  0  0  0  0  1  0  0  0  0  0  0
  191.2850  176.8100  144.3380 C   0  0  0  0  0  3  0  0  0  0  0  0
  191.0540  176.8300  141.9150 N   0  0  0  0  0  2  0  0  0  0  0  0
  188.7750  177.5790  147.0160 C   0  0  0  0  0  0  0  0  0  0  0  0
  189.3930  177.3470  145.7690 C   0  0  0  0  0  0  0  0  0  0  0  0
  189.4250  177.5100  148.0930 O   0  0  0  0  0  0  0  0  0  0  0  0
  184.2780  177.8760  145.2890 C   0  0  0  0  0  2  0  0  0  0  0  0
  184.2990  178.9020  144.2140 C   0  0  0  0  0  0  0  0  0  0  0  0
  185.3610  179.0480  143.4260 C   0  0  0  0  0  3  0  0  0  0  0  0
  186.6900  177.9660  146.0150 C   0  0  0  0  0  0  0  0  0  0  0  0
  186.6630  178.3760  143.5890 C   0  0  0  0  0  3  0  0  0  0  0  0
  187.2580  177.9160  144.7120 C   0  0  0  0  0  0  0  0  0  0  0  0
  190.1950  176.3660  138.2800 C   0  0  0  0  0  3  0  0  0  0  0  0
  189.2680  177.7310  140.6230 C   0  0  0  0  0  3  0  0  0  0  0  0
  186.7020  177.3670  137.3100 N   0  0  0  0  0  0  0  0  0  0  0  0
  185.8070  177.1980  136.2000 C   0  0  0  0  0  0  0  0  0  0  0  0
  188.0170  176.7870  137.2690 C   0  0  0  0  0  3  0  0  0  0  0  0
  184.6300  177.6430  136.2580 O   0  0  0  0  0  0  0  0  0  0  0  0
  188.8830  177.0230  138.2550 C   0  0  0  0  0  0  0  0  0  0  0  0
  186.2400  176.5280  135.0200 N   0  0  0  0  0  1  0  0  0  0  0  0
  187.0860  178.2520  139.5190 C   0  0  0  0  0  3  0  0  0  0  0  0
  188.5600  178.0320  139.3310 C   0  0  1  0  0  3  0  0  0  0  0  0
  186.2340  177.9760  138.5270 C   0  0  0  0  0  3  0  0  0  0  0  0
  190.3990  177.0110  140.6520 C   0  0  0  0  0  0  0  0  0  0  0  0
  190.9110  176.3770  139.4080 C   0  0  0  0  0  3  0  0  0  0  0  0
  183.0780  179.7370  143.9680 C   0  0  2  0  0  3  0  0  0  0  0  0
  181.8580  178.9890  144.2750 C   0  0  0  0  0  2  0  0  0  0  0  0
  182.2770  179.1510  142.8770 N   0  0  0  0  0  2  0  0  0  0  0  0
  1 18  1  0  0  0  0
  1 11  2  0  0  0  0
  4  5  2  0  0  0  0
  4  8  1  0  0  0  0
  5  1  1  0  0  0  0
  6 11  1  0  0  0  0
  6  7  1  0  0  0  0
  8  6  2  0  0  0  0
  9  4  1  0  0  0  0
 10  3  1  0  0  0  0
 10 12  2  0  0  0  0
 11 10  1  0  0  0  0
 13  2  1  0  0  0  0
 14 13  1  0  0  0  0
 15 17  1  0  0  0  0
 15 14  2  0  0  0  0
 16  2  2  0  0  0  0
 16  3  1  0  0  0  0
 17 18  2  0  0  0  0
 18 16  1  0  0  0  0
 19 31  2  0  0  0  0
 20 30  2  0  0  0  0
 21 29  1  0  0  0  0
 22 24  2  0  0  0  0
 22 21  1  0  0  0  0
 23 21  1  0  0  0  0
 23 25  2  0  0  0  0
 25 19  1  0  0  0  0
 25 28  1  0  0  0  0
 26 22  1  0  0  0  0
 28 27  1  1  0  0  0
 28 20  1  0  0  0  0
 29 27  2  0  0  0  0
 30  9  1  0  0  0  0
 31 30  1  0  0  0  0
 32 14  1  1  0  0  0
 32 33  1  0  0  0  0
 34 32  1  0  0  0  0
 34 33  1  0  0  0  0
M  END
>  <MODEL>
9

>  <REMARK>
 VINA RESULT:     -10.5      2.583      5.640
  Name = 
  2 active torsions:
  status: ('A' for Active; 'I' for Inactive)
    1  A    between atoms: C_3  and  C_25
    2  A    between atoms: N_18  and  C_30
                            x       y       z     vdW  Elec       q    Type
                         _______ _______ _______ _____ _____    ______ ____

>  <TORSDO>
F 2

$$$$
