=
 OpenBabel11052414363D

 32 37  0  0  1  0  0  0  0  0999 V2000
  189.5770  177.2750  142.8560 C   0  0  0  0  0  0  0  0  0  0  0  0
  187.7980  177.7130  144.4580 N   0  0  0  0  0  0  0  0  0  0  0  0
  190.9730  176.8680  142.5890 C   0  0  0  0  0  3  0  0  0  0  0  0
  189.1530  177.3680  144.1870 C   0  0  1  0  0  3  0  0  0  0  0  0
  187.3360  177.8040  145.8090 C   0  0  0  0  0  0  0  0  0  0  0  0
  183.3060  178.8700  143.0530 C   0  0  0  0  0  3  0  0  0  0  0  0
  186.8940  177.9550  143.3850 C   0  0  0  0  0  0  0  0  0  0  0  0
  183.8800  178.6880  145.4000 C   0  0  0  0  0  3  0  0  0  0  0  0
  185.1960  178.3590  145.0660 C   0  0  0  0  0  0  0  0  0  0  0  0
  190.0120  177.1230  145.2660 C   0  0  0  0  0  0  0  0  0  0  0  0
  186.0690  178.1210  146.0450 O   0  0  0  0  0  0  0  0  0  0  0  0
  189.5380  177.2230  146.5400 N   0  0  0  0  0  0  0  0  0  0  0  0
  191.4580  176.7660  145.0410 C   0  0  0  0  0  3  0  0  0  0  0  0
  187.3820  177.8520  142.0800 C   0  0  0  0  0  3  0  0  0  0  0  0
  188.6880  177.5270  141.8340 N   0  0  0  0  0  0  0  0  0  0  0  0
  185.5720  178.2850  143.6980 C   0  0  0  0  0  0  0  0  0  0  0  0
  188.2470  177.5500  146.8400 C   0  0  0  0  0  0  0  0  0  0  0  0
  191.8320  176.6300  143.5850 C   0  0  0  0  0  3  0  0  0  0  0  0
  182.9370  178.9420  144.3990 C   0  0  0  0  0  3  0  0  0  0  0  0
  184.6180  178.5420  142.7010 C   0  0  0  0  0  3  0  0  0  0  0  0
  188.7470  177.9700  138.1110 C   0  0  0  0  0  0  0  0  0  0  0  0
  188.0240  178.5610  137.1290 F   0  0  0  0  0  0  0  0  0  0  0  0
  189.0940  177.4490  140.4590 C   0  0  0  0  0  0  0  0  0  0  0  0
  189.9050  177.2620  137.7830 C   0  0  0  0  0  3  0  0  0  0  0  0
  190.2500  176.7330  140.1160 C   0  0  0  0  0  3  0  0  0  0  0  0
  188.3350  178.0610  139.4450 C   0  0  0  0  0  0  0  0  0  0  0  0
  187.1670  178.7490  139.7590 O   0  0  0  0  0  1  0  0  0  0  0  0
  190.6630  176.6360  138.7850 C   0  0  0  0  0  0  0  0  0  0  0  0
  192.6980  176.2770  137.4260 C   0  0  0  0  0  1  0  0  0  0  0  0
  191.8230  175.9170  138.4860 O   0  0  0  0  0  0  0  0  0  0  0  0
  187.8200  177.6340  148.2410 C   0  0  0  0  0  3  0  0  0  0  0  0
  188.5310  178.2210  149.0990 O   0  0  0  0  0  0  0  0  0  0  0  0
  2  5  1  0  0  0  0
  3  1  2  0  0  0  0
  3 18  1  0  0  0  0
  4  1  1  6  0  0  0
  4  2  1  0  0  0  0
  4 10  1  0  0  0  0
  5 11  1  0  0  0  0
  5 17  2  0  0  0  0
  6 19  1  0  0  0  0
  7 16  1  0  0  0  0
  7  2  1  0  0  0  0
  9  8  1  0  0  0  0
  9 11  1  0  0  0  0
 10 12  2  0  0  0  0
 12 17  1  0  0  0  0
 13 10  1  0  0  0  0
 14  7  2  0  0  0  0
 15 14  1  0  0  0  0
 15  1  1  0  0  0  0
 16  9  2  0  0  0  0
 17 31  1  0  0  0  0
 18 13  2  0  0  0  0
 19  8  2  0  0  0  0
 20  6  2  0  0  0  0
 20 16  1  0  0  0  0
 21 26  1  0  0  0  0
 22 21  1  0  0  0  0
 23 15  1  0  0  0  0
 24 21  2  0  0  0  0
 24 28  1  0  0  0  0
 25 23  1  0  0  0  0
 26 27  1  0  0  0  0
 26 23  2  0  0  0  0
 28 25  2  0  0  0  0
 29 30  1  0  0  0  0
 30 28  1  0  0  0  0
 31 32  2  0  0  0  0
M  END
>  <MODEL>
1

>  <REMARK>
 VINA RESULT:     -11.3      0.000      0.000
  Name = 
  3 active torsions:
  status: ('A' for Active; 'I' for Inactive)
    1  A    between atoms: C_13  and  CA_29
    2  A    between atoms: O_15  and  C_26
    3  A    between atoms: C_16  and  N_27
                            x       y       z     vdW  Elec       q    Type
                         _______ _______ _______ _____ _____    ______ ____

>  <TORSDO>
F 3

$$$$
=
 OpenBabel11052414363D

 32 37  0  0  1  0  0  0  0  0999 V2000
  187.2340  177.9870  143.9300 C   0  0  0  0  0  0  0  0  0  0  0  0
  186.9800  178.2540  141.5240 N   0  0  0  0  0  0  0  0  0  0  0  0
  186.6340  178.0190  145.2810 C   0  0  0  0  0  3  0  0  0  0  0  0
  186.4290  178.3260  142.8360 C   0  0  1  0  0  3  0  0  0  0  0  0
  186.1770  178.5840  140.3890 C   0  0  0  0  0  0  0  0  0  0  0  0
  190.6090  177.3370  138.4440 C   0  0  0  0  0  3  0  0  0  0  0  0
  188.3310  177.8410  141.3390 C   0  0  0  0  0  0  0  0  0  0  0  0
  188.4420  178.0750  137.6490 C   0  0  0  0  0  3  0  0  0  0  0  0
  187.9640  178.1290  138.9610 C   0  0  0  0  0  0  0  0  0  0  0  0
  185.0950  178.7230  142.9820 C   0  0  0  0  0  0  0  0  0  0  0  0
  186.7040  178.5070  139.1720 O   0  0  0  0  0  0  0  0  0  0  0  0
  184.3600  179.0340  141.8770 N   0  0  0  0  0  0  0  0  0  0  0  0
  184.4610  178.8290  144.3450 C   0  0  0  0  0  3  0  0  0  0  0  0
  189.0810  177.5220  142.4730 C   0  0  0  0  0  3  0  0  0  0  0  0
  188.5420  177.6030  143.7270 N   0  0  0  0  0  0  0  0  0  0  0  0
  188.8280  177.7790  140.0330 C   0  0  0  0  0  0  0  0  0  0  0  0
  184.8520  178.9770  140.6040 C   0  0  0  0  0  0  0  0  0  0  0  0
  185.3670  178.3980  145.4720 C   0  0  0  0  0  3  0  0  0  0  0  0
  189.7580  177.6800  137.3900 C   0  0  0  0  0  3  0  0  0  0  0  0
  190.1470  177.3850  139.7620 C   0  0  0  0  0  3  0  0  0  0  0  0
  191.3400  176.1120  145.7300 C   0  0  0  0  0  0  0  0  0  0  0  0
  192.4310  175.3270  145.5560 F   0  0  0  0  0  0  0  0  0  0  0  0
  189.3950  177.2580  144.8300 C   0  0  0  0  0  0  0  0  0  0  0  0
  191.0300  176.5890  147.0050 C   0  0  0  0  0  3  0  0  0  0  0  0
  189.0890  177.7230  146.1170 C   0  0  0  0  0  3  0  0  0  0  0  0
  190.5230  176.4380  144.6410 C   0  0  0  0  0  0  0  0  0  0  0  0
  190.8270  175.9390  143.3790 O   0  0  0  0  0  1  0  0  0  0  0  0
  189.9000  177.3960  147.2070 C   0  0  0  0  0  0  0  0  0  0  0  0
  188.2250  178.1800  148.8490 C   0  0  0  0  0  1  0  0  0  0  0  0
  189.5620  177.8830  148.4720 O   0  0  0  0  0  0  0  0  0  0  0  0
  183.9900  179.3280  139.4700 C   0  0  0  0  0  3  0  0  0  0  0  0
  184.0650  180.4620  138.9290 O   0  0  0  0  0  0  0  0  0  0  0  0
  1  3  2  0  0  0  0
  2  4  1  0  0  0  0
  3 18  1  0  0  0  0
  4 10  1  6  0  0  0
  4  1  1  0  0  0  0
  5 17  2  0  0  0  0
  5  2  1  0  0  0  0
  6 20  1  0  0  0  0
  7  2  1  0  0  0  0
  7 14  2  0  0  0  0
  8  9  2  0  0  0  0
  9 11  1  0  0  0  0
  9 16  1  0  0  0  0
 10 13  1  0  0  0  0
 11  5  1  0  0  0  0
 12 10  2  0  0  0  0
 13 18  2  0  0  0  0
 14 15  1  0  0  0  0
 15  1  1  0  0  0  0
 15 23  1  0  0  0  0
 16  7  1  0  0  0  0
 17 12  1  0  0  0  0
 19  8  1  0  0  0  0
 19  6  2  0  0  0  0
 20 16  2  0  0  0  0
 21 24  1  0  0  0  0
 22 21  1  0  0  0  0
 23 25  2  0  0  0  0
 24 28  2  0  0  0  0
 25 28  1  0  0  0  0
 26 23  1  0  0  0  0
 26 21  2  0  0  0  0
 27 26  1  0  0  0  0
 28 30  1  0  0  0  0
 30 29  1  0  0  0  0
 31 17  1  0  0  0  0
 32 31  2  0  0  0  0
M  END
>  <MODEL>
2

>  <REMARK>
 VINA RESULT:     -11.2      2.542      7.268
  Name = 
  3 active torsions:
  status: ('A' for Active; 'I' for Inactive)
    1  A    between atoms: C_13  and  CA_29
    2  A    between atoms: O_15  and  C_26
    3  A    between atoms: C_16  and  N_27
                            x       y       z     vdW  Elec       q    Type
                         _______ _______ _______ _____ _____    ______ ____

>  <TORSDO>
F 3

$$$$
=
 OpenBabel11052414363D

 32 37  0  0  0  0  0  0  0  0999 V2000
  189.3660  177.0270  138.2140 C   0  0  0  0  0  0  0  0  0  0  0  0
  188.6740  177.5730  140.4820 N   0  0  0  0  0  0  0  0  0  0  0  0
  189.1040  177.0800  136.7590 C   0  0  0  0  0  3  0  0  0  0  0  0
  188.4130  177.5740  139.0810 C   0  0  0  0  0  0  0  0  0  0  0  0
  187.7230  178.1350  141.3900 C   0  0  0  0  0  0  0  0  0  0  0  0
  191.4540  176.5710  144.3240 C   0  0  0  0  0  3  0  0  0  0  0  0
  189.8890  177.0240  140.9820 C   0  0  0  0  0  0  0  0  0  0  0  0
  189.3040  177.6570  144.5790 C   0  0  0  0  0  3  0  0  0  0  0  0
  189.1070  177.6220  143.1960 C   0  0  0  0  0  0  0  0  0  0  0  0
  187.2150  178.1340  138.6220 C   0  0  0  0  0  0  0  0  0  0  0  0
  187.9830  178.1310  142.6920 O   0  0  0  0  0  0  0  0  0  0  0  0
  186.3300  178.6570  139.5170 N   0  0  0  0  0  0  0  0  0  0  0  0
  186.8790  178.1530  137.1540 C   0  0  0  0  0  2  0  0  0  0  0  0
  190.7950  176.4890  140.0630 C   0  0  0  0  0  3  0  0  0  0  0  0
  190.5290  176.4900  138.7210 N   0  0  0  0  0  0  0  0  0  0  0  0
  190.1060  177.0500  142.3630 C   0  0  0  0  0  0  0  0  0  0  0  0
  186.5440  178.6750  140.8660 C   0  0  0  0  0  0  0  0  0  0  0  0
  187.9720  177.5980  136.2730 C   0  0  0  0  0  3  0  0  0  0  0  0
  190.4720  177.1340  145.1420 C   0  0  0  0  0  3  0  0  0  0  0  0
  191.2740  176.5280  142.9390 C   0  0  0  0  0  3  0  0  0  0  0  0
  192.3590  174.0590  136.5290 C   0  0  0  0  0  0  0  0  0  0  0  0
  192.2270  172.7980  136.0500 F   0  0  0  0  0  0  0  0  0  0  0  0
  191.5210  175.9140  137.8570 C   0  0  0  0  0  0  0  0  0  0  0  0
  193.4840  174.8130  136.1870 C   0  0  0  0  0  3  0  0  0  0  0  0
  192.6590  176.6570  137.5140 C   0  0  0  0  0  3  0  0  0  0  0  0
  191.3790  174.6020  137.3680 C   0  0  0  0  0  0  0  0  0  0  0  0
  190.2740  173.8350  137.7210 O   0  0  0  0  0  1  0  0  0  0  0  0
  193.6420  176.1170  136.6800 C   0  0  0  0  0  0  0  0  0  0  0  0
  195.1810  177.1140  135.0210 C   0  0  0  0  0  1  0  0  0  0  0  0
  194.7590  176.8930  136.3590 O   0  0  0  0  0  0  0  0  0  0  0  0
  185.5370  179.2600  141.7590 C   0  0  0  0  0  3  0  0  0  0  0  0
  184.6420  178.5440  142.2800 O   0  0  0  0  0  0  0  0  0  0  0  0
  1 15  1  0  0  0  0
  1  4  2  0  0  0  0
  2  7  1  0  0  0  0
  2  5  1  0  0  0  0
  3  1  1  0  0  0  0
  4  2  1  0  0  0  0
  5 11  1  0  0  0  0
  6 19  1  0  0  0  0
  7 16  1  0  0  0  0
  8 19  2  0  0  0  0
  9  8  1  0  0  0  0
 10  4  1  0  0  0  0
 10 12  2  0  0  0  0
 11  9  1  0  0  0  0
 12 17  1  0  0  0  0
 13 10  1  0  0  0  0
 14  7  2  0  0  0  0
 15 14  1  0  0  0  0
 16 20  1  0  0  0  0
 16  9  2  0  0  0  0
 17  5  2  0  0  0  0
 17 31  1  0  0  0  0
 18  3  2  0  0  0  0
 18 13  1  0  0  0  0
 20  6  2  0  0  0  0
 21 26  1  0  0  0  0
 22 21  1  0  0  0  0
 23 15  1  0  0  0  0
 24 21  2  0  0  0  0
 24 28  1  0  0  0  0
 25 23  1  0  0  0  0
 26 27  1  0  0  0  0
 26 23  2  0  0  0  0
 28 25  2  0  0  0  0
 29 30  1  0  0  0  0
 30 28  1  0  0  0  0
 31 32  2  0  0  0  0
M  END
>  <MODEL>
3

>  <REMARK>
 VINA RESULT:     -10.8      2.945      5.856
  Name = 
  3 active torsions:
  status: ('A' for Active; 'I' for Inactive)
    1  A    between atoms: C_13  and  CA_29
    2  A    between atoms: O_15  and  C_26
    3  A    between atoms: C_16  and  N_27
                            x       y       z     vdW  Elec       q    Type
                         _______ _______ _______ _____ _____    ______ ____

>  <TORSDO>
F 3

$$$$
=
 OpenBabel11052414363D

 32 37  0  0  0  0  0  0  0  0999 V2000
  187.2660  178.1370  141.6740 C   0  0  0  0  0  0  0  0  0  0  0  0
  187.6040  177.8740  144.0700 N   0  0  0  0  0  0  0  0  0  0  0  0
  186.3930  178.5470  140.5530 C   0  0  0  0  0  3  0  0  0  0  0  0
  186.7590  178.2200  142.9760 C   0  0  0  0  0  0  0  0  0  0  0  0
  187.1160  177.9600  145.4110 C   0  0  0  0  0  0  0  0  0  0  0  0
  191.8310  176.3850  145.9160 C   0  0  0  0  0  3  0  0  0  0  0  0
  188.9430  177.4520  143.8310 C   0  0  0  0  0  0  0  0  0  0  0  0
  189.9520  176.9150  147.3500 C   0  0  0  0  0  3  0  0  0  0  0  0
  189.1740  177.2360  146.2340 C   0  0  0  0  0  0  0  0  0  0  0  0
  185.4520  178.6430  143.2460 C   0  0  0  0  0  0  0  0  0  0  0  0
  187.9170  177.6390  146.4190 O   0  0  0  0  0  0  0  0  0  0  0  0
  185.0190  178.7090  144.5370 N   0  0  0  0  0  0  0  0  0  0  0  0
  184.5090  179.0110  142.1310 C   0  0  0  0  0  2  0  0  0  0  0  0
  189.3850  177.3860  142.5080 C   0  0  0  0  0  3  0  0  0  0  0  0
  188.5610  177.7140  141.4670 N   0  0  0  0  0  0  0  0  0  0  0  0
  189.7390  177.1280  144.9350 C   0  0  0  0  0  0  0  0  0  0  0  0
  185.7980  178.3870  145.6110 C   0  0  0  0  0  0  0  0  0  0  0  0
  185.1370  178.9510  140.7590 C   0  0  0  0  0  3  0  0  0  0  0  0
  191.2750  176.4920  147.1930 C   0  0  0  0  0  3  0  0  0  0  0  0
  191.0680  176.7010  144.7890 C   0  0  0  0  0  3  0  0  0  0  0  0
  190.7110  176.6730  138.5770 C   0  0  0  0  0  0  0  0  0  0  0  0
  191.7540  175.8500  138.3080 F   0  0  0  0  0  0  0  0  0  0  0  0
  189.1060  177.6100  140.1430 C   0  0  0  0  0  0  0  0  0  0  0  0
  190.1590  177.4430  137.5510 C   0  0  0  0  0  3  0  0  0  0  0  0
  188.5670  178.3850  139.1060 C   0  0  0  0  0  3  0  0  0  0  0  0
  190.1920  176.7570  139.8740 C   0  0  0  0  0  0  0  0  0  0  0  0
  190.7640  176.0030  140.8940 O   0  0  0  0  0  1  0  0  0  0  0  0
  189.0840  178.3070  137.8110 C   0  0  0  0  0  0  0  0  0  0  0  0
  187.4180  178.6560  136.0180 C   0  0  0  0  0  1  0  0  0  0  0  0
  188.5150  179.0940  136.8060 O   0  0  0  0  0  0  0  0  0  0  0  0
  185.2510  178.4880  146.9680 C   0  0  0  0  0  3  0  0  0  0  0  0
  185.6180  179.4080  147.7460 O   0  0  0  0  0  0  0  0  0  0  0  0
  1  4  2  0  0  0  0
  2  5  1  0  0  0  0
  3 18  2  0  0  0  0
  3  1  1  0  0  0  0
  4 10  1  0  0  0  0
  4  2  1  0  0  0  0
  5 17  2  0  0  0  0
  5 11  1  0  0  0  0
  6 19  1  0  0  0  0
  7  2  1  0  0  0  0
  7 16  1  0  0  0  0
  9 11  1  0  0  0  0
  9  8  1  0  0  0  0
 10 12  2  0  0  0  0
 12 17  1  0  0  0  0
 13 10  1  0  0  0  0
 14  7  2  0  0  0  0
 15  1  1  0  0  0  0
 15 14  1  0  0  0  0
 16  9  2  0  0  0  0
 17 31  1  0  0  0  0
 18 13  1  0  0  0  0
 19  8  2  0  0  0  0
 20 16  1  0  0  0  0
 20  6  2  0  0  0  0
 21 26  1  0  0  0  0
 22 21  1  0  0  0  0
 23 15  1  0  0  0  0
 24 28  1  0  0  0  0
 24 21  2  0  0  0  0
 25 23  1  0  0  0  0
 26 23  2  0  0  0  0
 26 27  1  0  0  0  0
 28 25  2  0  0  0  0
 29 30  1  0  0  0  0
 30 28  1  0  0  0  0
 31 32  2  0  0  0  0
M  END
>  <MODEL>
4

>  <REMARK>
 VINA RESULT:     -10.7      1.749      4.643
  Name = 
  3 active torsions:
  status: ('A' for Active; 'I' for Inactive)
    1  A    between atoms: C_13  and  CA_29
    2  A    between atoms: O_15  and  C_26
    3  A    between atoms: C_16  and  N_27
                            x       y       z     vdW  Elec       q    Type
                         _______ _______ _______ _____ _____    ______ ____

>  <TORSDO>
F 3

$$$$
=
 OpenBabel11052414363D

 32 37  0  0  0  0  0  0  0  0999 V2000
  189.5010  177.6590  142.6560 C   0  0  0  0  0  0  0  0  0  0  0  0
  187.7310  178.0910  141.0430 N   0  0  0  0  0  0  0  0  0  0  0  0
  190.9360  177.4390  142.9380 C   0  0  0  0  0  3  0  0  0  0  0  0
  189.1030  177.8310  141.3250 C   0  0  0  0  0  0  0  0  0  0  0  0
  187.2980  178.2800  139.6940 C   0  0  0  0  0  0  0  0  0  0  0  0
  183.1340  178.7970  142.4070 C   0  0  0  0  0  3  0  0  0  0  0  0
  186.7870  178.1750  142.1060 C   0  0  0  0  0  0  0  0  0  0  0  0
  183.7760  178.8710  140.0720 C   0  0  0  0  0  3  0  0  0  0  0  0
  185.1050  178.6080  140.4160 C   0  0  0  0  0  0  0  0  0  0  0  0
  190.0070  177.7670  140.2580 C   0  0  0  0  0  0  0  0  0  0  0  0
  186.0180  178.5270  139.4470 O   0  0  0  0  0  0  0  0  0  0  0  0
  189.5580  177.9490  138.9840 N   0  0  0  0  0  0  0  0  0  0  0  0
  191.4680  177.4840  140.4940 C   0  0  0  0  0  2  0  0  0  0  0  0
  187.2490  177.9890  143.4110 C   0  0  0  0  0  3  0  0  0  0  0  0
  188.5680  177.7320  143.6670 N   0  0  0  0  0  0  0  0  0  0  0  0
  185.4520  178.4380  141.7830 C   0  0  0  0  0  0  0  0  0  0  0  0
  188.2520  178.2010  138.6730 C   0  0  0  0  0  0  0  0  0  0  0  0
  191.8360  177.3640  141.9530 C   0  0  0  0  0  3  0  0  0  0  0  0
  182.7940  178.9650  141.0620 C   0  0  0  0  0  3  0  0  0  0  0  0
  184.4570  178.5340  142.7680 C   0  0  0  0  0  3  0  0  0  0  0  0
  188.3910  177.5320  147.4070 C   0  0  0  0  0  0  0  0  0  0  0  0
  187.4890  177.6760  148.4080 F   0  0  0  0  0  0  0  0  0  0  0  0
  188.9440  177.5520  145.0410 C   0  0  0  0  0  0  0  0  0  0  0  0
  189.7160  177.2110  147.7140 C   0  0  0  0  0  3  0  0  0  0  0  0
  190.2730  177.2390  145.3620 C   0  0  0  0  0  3  0  0  0  0  0  0
  188.0030  177.7090  146.0750 C   0  0  0  0  0  0  0  0  0  0  0  0
  186.6870  178.0510  145.7810 O   0  0  0  0  0  1  0  0  0  0  0  0
  190.6660  177.0650  146.6920 C   0  0  0  0  0  0  0  0  0  0  0  0
  192.3750  175.6240  147.7490 C   0  0  0  0  0  1  0  0  0  0  0  0
  191.9990  176.7500  146.9690 O   0  0  0  0  0  0  0  0  0  0  0  0
  187.8560  178.3850  137.2730 C   0  0  0  0  0  3  0  0  0  0  0  0
  187.6110  179.5330  136.8160 O   0  0  0  0  0  0  0  0  0  0  0  0
  1  3  1  0  0  0  0
  1 15  1  0  0  0  0
  2  4  1  0  0  0  0
  2  7  1  0  0  0  0
  4  1  2  0  0  0  0
  5  2  1  0  0  0  0
  6 20  1  0  0  0  0
  7 14  2  0  0  0  0
  8  9  2  0  0  0  0
  8 19  1  0  0  0  0
  9 16  1  0  0  0  0
 10 13  1  0  0  0  0
 10  4  1  0  0  0  0
 11  5  1  0  0  0  0
 11  9  1  0  0  0  0
 12 10  2  0  0  0  0
 13 18  1  0  0  0  0
 14 15  1  0  0  0  0
 15 23  1  0  0  0  0
 16  7  1  0  0  0  0
 16 20  2  0  0  0  0
 17 12  1  0  0  0  0
 17  5  2  0  0  0  0
 18  3  2  0  0  0  0
 19  6  2  0  0  0  0
 21 24  1  0  0  0  0
 21 22  1  0  0  0  0
 23 25  2  0  0  0  0
 23 26  1  0  0  0  0
 25 28  1  0  0  0  0
 26 21  2  0  0  0  0
 27 26  1  0  0  0  0
 28 30  1  0  0  0  0
 28 24  2  0  0  0  0
 30 29  1  0  0  0  0
 31 17  1  0  0  0  0
 32 31  2  0  0  0  0
M  END
>  <MODEL>
5

>  <REMARK>
 VINA RESULT:     -10.6      2.751      6.397
  Name = 
  3 active torsions:
  status: ('A' for Active; 'I' for Inactive)
    1  A    between atoms: C_13  and  CA_29
    2  A    between atoms: O_15  and  C_26
    3  A    between atoms: C_16  and  N_27
                            x       y       z     vdW  Elec       q    Type
                         _______ _______ _______ _____ _____    ______ ____

>  <TORSDO>
F 3

$$$$
=
 OpenBabel11052414363D

 32 37  0  0  1  0  0  0  0  0999 V2000
  185.2650  178.4220  143.7050 C   0  0  0  0  0  0  0  0  0  0  0  0
  187.6430  177.9160  143.6050 N   0  0  0  0  0  0  0  0  0  0  0  0
  184.0630  178.7190  144.5140 C   0  0  0  0  0  3  0  0  0  0  0  0
  186.4670  178.1570  144.3710 C   0  0  1  0  0  3  0  0  0  0  0  0
  188.8860  177.6530  144.2600 C   0  0  0  0  0  0  0  0  0  0  0  0
  189.9980  177.4800  139.3910 C   0  0  0  0  0  3  0  0  0  0  0  0
  187.5870  177.9480  142.1820 C   0  0  0  0  0  0  0  0  0  0  0  0
  191.1490  177.2130  141.5060 C   0  0  0  0  0  3  0  0  0  0  0  0
  189.9590  177.4530  142.1990 C   0  0  0  0  0  0  0  0  0  0  0  0
  186.5590  178.1310  145.7680 C   0  0  0  0  0  0  0  0  0  0  0  0
  189.9740  177.4350  143.5320 O   0  0  0  0  0  0  0  0  0  0  0  0
  187.7600  177.8730  146.3590 N   0  0  0  0  0  0  0  0  0  0  0  0
  185.3470  178.3660  146.6310 C   0  0  0  0  0  3  0  0  0  0  0  0
  186.3550  178.2130  141.5790 C   0  0  0  0  0  3  0  0  0  0  0  0
  185.2320  178.4350  142.3280 N   0  0  0  0  0  0  0  0  0  0  0  0
  188.7670  177.7110  141.4700 C   0  0  0  0  0  0  0  0  0  0  0  0
  188.9090  177.6380  145.6590 C   0  0  0  0  0  0  0  0  0  0  0  0
  184.1000  178.7000  145.8490 C   0  0  0  0  0  3  0  0  0  0  0  0
  191.1700  177.2270  140.1080 C   0  0  0  0  0  3  0  0  0  0  0  0
  188.8000  177.7220  140.0670 C   0  0  0  0  0  3  0  0  0  0  0  0
  182.8360  179.4760  139.6370 C   0  0  0  0  0  0  0  0  0  0  0  0
  182.8500  179.9850  138.3810 F   0  0  0  0  0  0  0  0  0  0  0  0
  184.0120  178.6960  141.6150 C   0  0  0  0  0  0  0  0  0  0  0  0
  181.6140  179.2090  140.2590 C   0  0  0  0  0  3  0  0  0  0  0  0
  182.7790  178.4390  142.2320 C   0  0  0  0  0  3  0  0  0  0  0  0
  184.0360  179.2280  140.3130 C   0  0  0  0  0  0  0  0  0  0  0  0
  185.2470  179.5200  139.6940 O   0  0  0  0  0  1  0  0  0  0  0  0
  181.5790  178.6900  141.5620 C   0  0  0  0  0  0  0  0  0  0  0  0
  180.2180  178.5140  143.6200 C   0  0  0  0  0  1  0  0  0  0  0  0
  180.3720  178.4170  142.2110 O   0  0  0  0  0  0  0  0  0  0  0  0
  190.1600  177.3690  146.3760 C   0  0  0  0  0  3  0  0  0  0  0  0
  190.2070  176.5120  147.2960 O   0  0  0  0  0  0  0  0  0  0  0  0
  1  3  2  0  0  0  0
  2  5  1  0  0  0  0
  2  4  1  0  0  0  0
  3 18  1  0  0  0  0
  4  1  1  1  0  0  0
  4 10  1  0  0  0  0
  5 17  2  0  0  0  0
  6 20  2  0  0  0  0
  6 19  1  0  0  0  0
  7  2  1  0  0  0  0
  8  9  1  0  0  0  0
  9 11  1  0  0  0  0
 10 12  2  0  0  0  0
 10 13  1  0  0  0  0
 11  5  1  0  0  0  0
 14  7  2  0  0  0  0
 14 15  1  0  0  0  0
 15  1  1  0  0  0  0
 16  7  1  0  0  0  0
 16  9  2  0  0  0  0
 17 12  1  0  0  0  0
 17 31  1  0  0  0  0
 18 13  2  0  0  0  0
 19  8  2  0  0  0  0
 20 16  1  0  0  0  0
 21 24  2  0  0  0  0
 21 26  1  0  0  0  0
 22 21  1  0  0  0  0
 23 25  1  0  0  0  0
 23 15  1  0  0  0  0
 24 28  1  0  0  0  0
 26 23  2  0  0  0  0
 27 26  1  0  0  0  0
 28 30  1  0  0  0  0
 28 25  2  0  0  0  0
 30 29  1  0  0  0  0
 31 32  2  0  0  0  0
M  END
>  <MODEL>
6

>  <REMARK>
 VINA RESULT:     -10.5      2.440      6.319
  Name = 
  3 active torsions:
  status: ('A' for Active; 'I' for Inactive)
    1  A    between atoms: C_13  and  CA_29
    2  A    between atoms: O_15  and  C_26
    3  A    between atoms: C_16  and  N_27
                            x       y       z     vdW  Elec       q    Type
                         _______ _______ _______ _____ _____    ______ ____

>  <TORSDO>
F 3

$$$$
=
 OpenBabel11052414363D

 32 37  0  0  0  0  0  0  0  0999 V2000
  185.8740  178.4930  139.5380 C   0  0  0  0  0  0  0  0  0  0  0  0
  186.8960  178.2410  141.7320 N   0  0  0  0  0  0  0  0  0  0  0  0
  186.0040  178.4530  138.0650 C   0  0  0  0  0  3  0  0  0  0  0  0
  187.0150  178.2530  140.3130 C   0  0  0  0  0  0  0  0  0  0  0  0
  188.0430  177.9880  142.5480 C   0  0  0  0  0  0  0  0  0  0  0  0
  184.3210  178.6280  145.8200 C   0  0  0  0  0  3  0  0  0  0  0  0
  185.6300  178.4700  142.3440 C   0  0  0  0  0  0  0  0  0  0  0  0
  186.6970  178.1600  145.8730 C   0  0  0  0  0  3  0  0  0  0  0  0
  186.7470  178.1890  144.4760 C   0  0  0  0  0  0  0  0  0  0  0  0
  188.2710  178.0110  139.7430 C   0  0  0  0  0  0  0  0  0  0  0  0
  187.9140  177.9750  143.8690 O   0  0  0  0  0  0  0  0  0  0  0  0
  189.3440  177.7780  140.5510 N   0  0  0  0  0  0  0  0  0  0  0  0
  188.4610  178.0230  138.2490 C   0  0  0  0  0  2  0  0  0  0  0  0
  184.5330  178.7080  141.5140 C   0  0  0  0  0  3  0  0  0  0  0  0
  184.6630  178.7240  140.1520 N   0  0  0  0  0  0  0  0  0  0  0  0
  185.5590  178.4430  143.7410 C   0  0  0  0  0  0  0  0  0  0  0  0
  189.2690  177.7580  141.9150 C   0  0  0  0  0  0  0  0  0  0  0  0
  187.1820  178.2330  137.4750 C   0  0  0  0  0  3  0  0  0  0  0  0
  185.4900  178.3780  146.5440 C   0  0  0  0  0  3  0  0  0  0  0  0
  184.3530  178.6610  144.4240 C   0  0  0  0  0  3  0  0  0  0  0  0
  181.5360  178.1970  138.1510 C   0  0  0  0  0  0  0  0  0  0  0  0
  180.7670  177.1840  137.6830 F   0  0  0  0  0  0  0  0  0  0  0  0
  183.4770  178.9820  139.3850 C   0  0  0  0  0  0  0  0  0  0  0  0
  181.1780  179.5190  137.8750 C   0  0  0  0  0  3  0  0  0  0  0  0
  183.1120  180.3040  139.0940 C   0  0  0  0  0  3  0  0  0  0  0  0
  182.6870  177.9240  138.8990 C   0  0  0  0  0  0  0  0  0  0  0  0
  183.0480  176.6040  139.1480 O   0  0  0  0  0  1  0  0  0  0  0  0
  181.9660  180.5810  138.3430 C   0  0  0  0  0  0  0  0  0  0  0  0
  180.5970  182.2820  137.1820 C   0  0  0  0  0  1  0  0  0  0  0  0
  181.6350  181.9130  138.0790 O   0  0  0  0  0  0  0  0  0  0  0  0
  190.4740  177.4970  142.7090 C   0  0  0  0  0  3  0  0  0  0  0  0
  191.6150  177.5030  142.1750 O   0  0  0  0  0  0  0  0  0  0  0  0
  1 15  1  0  0  0  0
  1  4  2  0  0  0  0
  2  7  1  0  0  0  0
  2  5  1  0  0  0  0
  3  1  1  0  0  0  0
  4  2  1  0  0  0  0
  5 11  1  0  0  0  0
  6 19  1  0  0  0  0
  7 16  1  0  0  0  0
  8 19  2  0  0  0  0
  9  8  1  0  0  0  0
 10  4  1  0  0  0  0
 10 12  2  0  0  0  0
 11  9  1  0  0  0  0
 12 17  1  0  0  0  0
 13 10  1  0  0  0  0
 14  7  2  0  0  0  0
 15 14  1  0  0  0  0
 16 20  1  0  0  0  0
 16  9  2  0  0  0  0
 17  5  2  0  0  0  0
 17 31  1  0  0  0  0
 18  3  2  0  0  0  0
 18 13  1  0  0  0  0
 20  6  2  0  0  0  0
 21 26  1  0  0  0  0
 22 21  1  0  0  0  0
 23 15  1  0  0  0  0
 24 21  2  0  0  0  0
 24 28  1  0  0  0  0
 25 23  1  0  0  0  0
 26 27  1  0  0  0  0
 26 23  2  0  0  0  0
 28 25  2  0  0  0  0
 29 30  1  0  0  0  0
 30 28  1  0  0  0  0
 32 31  2  0  0  0  0
M  END
>  <MODEL>
7

>  <REMARK>
 VINA RESULT:     -10.4      3.489      6.262
  Name = 
  3 active torsions:
  status: ('A' for Active; 'I' for Inactive)
    1  A    between atoms: C_13  and  CA_29
    2  A    between atoms: O_15  and  C_26
    3  A    between atoms: C_16  and  N_27
                            x       y       z     vdW  Elec       q    Type
                         _______ _______ _______ _____ _____    ______ ____

>  <TORSDO>
F 3

$$$$
=
 OpenBabel11052414363D

 32 37  0  0  0  0  0  0  0  0999 V2000
  188.4850  177.7740  143.0130 C   0  0  0  0  0  0  0  0  0  0  0  0
  186.3750  178.2330  141.8890 N   0  0  0  0  0  0  0  0  0  0  0  0
  189.9460  177.5600  142.9320 C   0  0  0  0  0  3  0  0  0  0  0  0
  187.7750  177.9770  141.8230 C   0  0  0  0  0  0  0  0  0  0  0  0
  185.6290  178.4540  140.6900 C   0  0  0  0  0  0  0  0  0  0  0  0
  182.2440  178.8620  144.3440 C   0  0  0  0  0  3  0  0  0  0  0  0
  185.7170  178.2800  143.1500 C   0  0  0  0  0  0  0  0  0  0  0  0
  182.3020  179.0030  141.9260 C   0  0  0  0  0  3  0  0  0  0  0  0
  183.6750  178.7440  141.9300 C   0  0  0  0  0  0  0  0  0  0  0  0
  188.3940  177.9500  140.5670 C   0  0  0  0  0  0  0  0  0  0  0  0
  184.3260  178.6960  140.7680 O   0  0  0  0  0  0  0  0  0  0  0  0
  187.6500  178.1610  139.4450 N   0  0  0  0  0  0  0  0  0  0  0  0
  189.8690  177.6730  140.4350 C   0  0  0  0  0  2  0  0  0  0  0  0
  186.4810  178.0640  144.2990 C   0  0  0  0  0  3  0  0  0  0  0  0
  187.8240  177.8130  144.2210 N   0  0  0  0  0  0  0  0  0  0  0  0
  184.3430  178.5400  143.1670 C   0  0  0  0  0  0  0  0  0  0  0  0
  186.3070  178.4100  139.4670 C   0  0  0  0  0  0  0  0  0  0  0  0
  190.5800  177.5190  141.7570 C   0  0  0  0  0  3  0  0  0  0  0  0
  181.5880  179.0630  143.1260 C   0  0  0  0  0  3  0  0  0  0  0  0
  183.6160  178.6010  144.3660 C   0  0  0  0  0  3  0  0  0  0  0  0
  188.6060  177.6660  147.8850 C   0  0  0  0  0  0  0  0  0  0  0  0
  188.0190  177.9270  149.0790 F   0  0  0  0  0  0  0  0  0  0  0  0
  188.5220  177.6000  145.4580 C   0  0  0  0  0  0  0  0  0  0  0  0
  189.9190  177.1900  147.8530 C   0  0  0  0  0  3  0  0  0  0  0  0
  189.8440  177.1310  145.4370 C   0  0  0  0  0  3  0  0  0  0  0  0
  187.9070  177.8780  146.6920 C   0  0  0  0  0  0  0  0  0  0  0  0
  186.6080  178.3740  146.7340 O   0  0  0  0  0  1  0  0  0  0  0  0
  190.5470  176.9220  146.6260 C   0  0  0  0  0  0  0  0  0  0  0  0
  192.4300  175.6280  147.5710 C   0  0  0  0  0  1  0  0  0  0  0  0
  191.8600  176.4500  146.5630 O   0  0  0  0  0  0  0  0  0  0  0  0
  185.5830  178.6270  138.2100 C   0  0  0  0  0  3  0  0  0  0  0  0
  185.9290  178.0350  137.1540 O   0  0  0  0  0  0  0  0  0  0  0  0
  1 15  1  0  0  0  0
  2  7  1  0  0  0  0
  3  1  1  0  0  0  0
  4  2  1  0  0  0  0
  4  1  2  0  0  0  0
  5 11  1  0  0  0  0
  5  2  1  0  0  0  0
  6 20  1  0  0  0  0
  7 16  1  0  0  0  0
  7 14  2  0  0  0  0
  8  9  2  0  0  0  0
  8 19  1  0  0  0  0
  9 16  1  0  0  0  0
 10  4  1  0  0  0  0
 11  9  1  0  0  0  0
 12 17  1  0  0  0  0
 12 10  2  0  0  0  0
 13 10  1  0  0  0  0
 13 18  1  0  0  0  0
 15 14  1  0  0  0  0
 15 23  1  0  0  0  0
 16 20  2  0  0  0  0
 17  5  2  0  0  0  0
 18  3  2  0  0  0  0
 19  6  2  0  0  0  0
 21 22  1  0  0  0  0
 23 26  1  0  0  0  0
 24 21  1  0  0  0  0
 25 23  2  0  0  0  0
 25 28  1  0  0  0  0
 26 27  1  0  0  0  0
 26 21  2  0  0  0  0
 28 24  2  0  0  0  0
 30 28  1  0  0  0  0
 30 29  1  0  0  0  0
 31 17  1  0  0  0  0
 32 31  2  0  0  0  0
M  END
>  <MODEL>
8

>  <REMARK>
 VINA RESULT:     -10.4      2.948      6.338
  Name = 
  3 active torsions:
  status: ('A' for Active; 'I' for Inactive)
    1  A    between atoms: C_13  and  CA_29
    2  A    between atoms: O_15  and  C_26
    3  A    between atoms: C_16  and  N_27
                            x       y       z     vdW  Elec       q    Type
                         _______ _______ _______ _____ _____    ______ ____

>  <TORSDO>
F 3

$$$$
=
 OpenBabel11052414363D

 32 37  0  0  0  0  0  0  0  0999 V2000
  185.8480  178.2860  139.7040 C   0  0  0  0  0  0  0  0  0  0  0  0
  186.9530  178.1690  141.8690 N   0  0  0  0  0  0  0  0  0  0  0  0
  185.9340  178.2140  138.2290 C   0  0  0  0  0  3  0  0  0  0  0  0
  187.0270  178.1490  140.4460 C   0  0  0  0  0  0  0  0  0  0  0  0
  188.1390  178.0210  142.6520 C   0  0  0  0  0  0  0  0  0  0  0  0
  184.4850  178.4910  146.0290 C   0  0  0  0  0  3  0  0  0  0  0  0
  185.6940  178.3260  142.5160 C   0  0  0  0  0  0  0  0  0  0  0  0
  186.8890  178.1920  146.0140 C   0  0  0  0  0  3  0  0  0  0  0  0
  186.8940  178.1850  144.6170 C   0  0  0  0  0  0  0  0  0  0  0  0
  188.2780  177.9800  139.8420 C   0  0  0  0  0  0  0  0  0  0  0  0
  188.0530  178.0360  143.9770 O   0  0  0  0  0  0  0  0  0  0  0  0
  189.3890  177.8450  140.6200 N   0  0  0  0  0  0  0  0  0  0  0  0
  188.4200  177.9620  138.3420 C   0  0  0  0  0  2  0  0  0  0  0  0
  184.5570  178.4630  141.7170 C   0  0  0  0  0  3  0  0  0  0  0  0
  184.6430  178.4500  140.3520 N   0  0  0  0  0  0  0  0  0  0  0  0
  185.6680  178.3340  143.9150 C   0  0  0  0  0  0  0  0  0  0  0  0
  189.3590  177.8590  141.9860 C   0  0  0  0  0  0  0  0  0  0  0  0
  187.1060  178.0600  137.6060 C   0  0  0  0  0  3  0  0  0  0  0  0
  185.6910  178.3430  146.7190 C   0  0  0  0  0  3  0  0  0  0  0  0
  184.4710  178.4860  144.6320 C   0  0  0  0  0  3  0  0  0  0  0  0
  181.9350  179.9220  138.2170 C   0  0  0  0  0  0  0  0  0  0  0  0
  181.6560  181.0640  137.5420 F   0  0  0  0  0  0  0  0  0  0  0  0
  183.4180  178.6020  139.6170 C   0  0  0  0  0  0  0  0  0  0  0  0
  181.0110  178.8740  138.2090 C   0  0  0  0  0  3  0  0  0  0  0  0
  182.4790  177.5610  139.6090 C   0  0  0  0  0  3  0  0  0  0  0  0
  183.1350  179.7930  138.9240 C   0  0  0  0  0  0  0  0  0  0  0  0
  184.0380  180.8510  138.9450 O   0  0  0  0  0  1  0  0  0  0  0  0
  181.2780  177.6870  138.9080 C   0  0  0  0  0  0  0  0  0  0  0  0
  180.5940  175.4340  139.6640 C   0  0  0  0  0  1  0  0  0  0  0  0
  180.3710  176.6240  138.9210 O   0  0  0  0  0  0  0  0  0  0  0  0
  190.6040  177.7050  142.7460 C   0  0  0  0  0  3  0  0  0  0  0  0
  191.6990  177.4990  142.1590 O   0  0  0  0  0  0  0  0  0  0  0  0
  1 15  1  0  0  0  0
  1  4  2  0  0  0  0
  2  7  1  0  0  0  0
  2  5  1  0  0  0  0
  3  1  1  0  0  0  0
  4  2  1  0  0  0  0
  5 11  1  0  0  0  0
  6 19  1  0  0  0  0
  7 16  1  0  0  0  0
  8 19  2  0  0  0  0
  9  8  1  0  0  0  0
 10  4  1  0  0  0  0
 10 12  2  0  0  0  0
 11  9  1  0  0  0  0
 12 17  1  0  0  0  0
 13 10  1  0  0  0  0
 14  7  2  0  0  0  0
 15 14  1  0  0  0  0
 16  9  2  0  0  0  0
 16 20  1  0  0  0  0
 17  5  2  0  0  0  0
 17 31  1  0  0  0  0
 18  3  2  0  0  0  0
 18 13  1  0  0  0  0
 20  6  2  0  0  0  0
 21 26  1  0  0  0  0
 22 21  1  0  0  0  0
 23 15  1  0  0  0  0
 24 21  2  0  0  0  0
 24 28  1  0  0  0  0
 25 23  1  0  0  0  0
 26 27  1  0  0  0  0
 26 23  2  0  0  0  0
 28 30  1  0  0  0  0
 28 25  2  0  0  0  0
 30 29  1  0  0  0  0
 32 31  2  0  0  0  0
M  END
>  <MODEL>
9

>  <REMARK>
 VINA RESULT:     -10.3      3.285      6.088
  Name = 
  3 active torsions:
  status: ('A' for Active; 'I' for Inactive)
    1  A    between atoms: C_13  and  CA_29
    2  A    between atoms: O_15  and  C_26
    3  A    between atoms: C_16  and  N_27
                            x       y       z     vdW  Elec       q    Type
                         _______ _______ _______ _____ _____    ______ ____

>  <TORSDO>
F 3

$$$$
