=
 OpenBabel11052414193D

 34 40  0  0  1  0  0  0  0  0999 V2000
  187.5720  177.9180  141.6620 C   0  0  0  0  0  0  0  0  0  0  0  0
  187.7890  176.6440  143.7110 C   0  0  0  0  0  0  0  0  0  0  0  0
  185.8810  178.1100  143.4070 C   0  0  0  0  0  0  0  0  0  0  0  0
  184.7960  178.9300  145.5150 C   0  0  1  0  0  3  0  0  0  0  0  0
  189.4390  176.4820  141.9560 C   0  0  0  0  0  3  0  0  0  0  0  0
  188.9760  176.0960  143.2170 C   0  0  0  0  0  3  0  0  0  0  0  0
  186.3100  177.1240  145.6570 N   0  0  1  0  0  0  0  0  0  0  0  0
  187.0690  177.5480  142.9290 C   0  0  0  0  0  0  0  0  0  0  0  0
  186.0050  179.4190  146.2900 C   0  0  0  0  0  2  0  0  0  0  0  0
  188.7350  177.3770  141.2110 N   0  0  0  0  0  0  0  0  0  0  0  0
  185.2050  179.0610  142.6260 C   0  0  0  0  0  0  0  0  0  0  0  0
  186.8770  178.8440  140.8820 C   0  0  0  0  0  3  0  0  0  0  0  0
  187.2500  176.1780  145.0290 C   0  0  0  0  0  2  0  0  0  0  0  0
  184.1730  180.0650  144.6760 C   0  0  0  0  0  2  0  0  0  0  0  0
  183.9990  179.7530  143.1830 C   0  0  2  0  0  3  0  0  0  0  0  0
  186.9890  178.2530  146.2930 C   0  0  1  0  0  3  0  0  0  0  0  0
  185.3090  177.7070  144.7560 C   0  0  2  0  0  3  0  0  0  0  0  0
  185.6980  179.4210  141.3660 C   0  0  0  0  0  3  0  0  0  0  0  0
  180.5750  178.1970  143.6450 C   0  0  0  0  0  0  0  0  0  0  0  0
  180.3000  177.7120  142.3630 C   0  0  0  0  0  3  0  0  0  0  0  0
  182.7180  179.0340  142.8740 C   0  0  0  0  0  0  0  0  0  0  0  0
  181.2290  177.8870  141.3350 C   0  0  0  0  0  3  0  0  0  0  0  0
  181.7810  178.8570  143.8990 C   0  0  0  0  0  3  0  0  0  0  0  0
  182.4360  178.5460  141.5890 C   0  0  0  0  0  3  0  0  0  0  0  0
  179.6730  178.0280  144.6410 F   0  0  0  0  0  0  0  0  0  0  0  0
  187.3470  177.9160  147.7310 C   0  0  0  0  0  2  0  0  0  0  0  0
  188.7580  178.1700  147.9660 N   0  0  0  0  0  2  0  0  0  0  0  0
  189.4880  177.0750  147.3540 C   0  0  0  0  0  2  0  0  0  0  0  0
  190.9380  177.4780  147.1260 C   0  0  2  0  0  3  0  0  0  0  0  0
  191.3580  177.1770  145.6830 C   0  0  0  0  0  2  0  0  0  0  0  0
  192.4310  175.2530  146.1860 C   0  0  0  0  0  2  0  0  0  0  0  0
  192.0960  175.2990  147.6760 C   0  0  0  0  0  2  0  0  0  0  0  0
  191.8790  176.7530  148.0940 C   0  0  0  0  0  2  0  0  0  0  0  0
  191.3630  175.7890  145.4440 O   0  0  0  0  0  0  0  0  0  0  0  0
  1  8  1  0  0  0  0
  2 13  1  0  0  0  0
  4 14  1  6  0  0  0
  4  9  1  0  0  0  0
  5  6  2  0  0  0  0
  6  2  1  0  0  0  0
  7 13  1  6  0  0  0
  7 16  1  0  0  0  0
  8  3  1  0  0  0  0
  8  2  2  0  0  0  0
  9 16  1  0  0  0  0
 10  1  2  0  0  0  0
 10  5  1  0  0  0  0
 11 15  1  0  0  0  0
 11  3  2  0  0  0  0
 12 18  2  0  0  0  0
 12  1  1  0  0  0  0
 15 21  1  1  0  0  0
 15 14  1  0  0  0  0
 16 26  1  1  0  0  0
 17  3  1  6  0  0  0
 17  4  1  0  0  0  0
 17  7  1  0  0  0  0
 18 11  1  0  0  0  0
 19 23  1  0  0  0  0
 19 25  1  0  0  0  0
 20 19  2  0  0  0  0
 21 23  2  0  0  0  0
 22 24  2  0  0  0  0
 22 20  1  0  0  0  0
 24 21  1  0  0  0  0
 26 27  1  0  0  0  0
 28 27  1  0  0  0  0
 29 28  1  6  0  0  0
 29 33  1  0  0  0  0
 30 29  1  0  0  0  0
 31 32  1  0  0  0  0
 32 33  1  0  0  0  0
 34 30  1  0  0  0  0
 34 31  1  0  0  0  0
M  END
>  <MODEL>
1

>  <REMARK>
 VINA RESULT:      -7.2      0.000      0.000
  Name = 
  5 active torsions:
  status: ('A' for Active; 'I' for Inactive)
    1  A    between atoms: N_3  and  C_13
    2  A    between atoms: N_3  and  C_17
    3  A    between atoms: C_11  and  C_13
    4  A    between atoms: C_12  and  C_28
    5  A    between atoms: C_17  and  C_29
                            x       y       z     vdW  Elec       q    Type
                         _______ _______ _______ _____ _____    ______ ____

>  <TORSDO>
F 5

$$$$
=
 OpenBabel11052414193D

 34 40  0  0  1  0  0  0  0  0999 V2000
  180.4820  178.1170  142.0730 C   0  0  0  0  0  0  0  0  0  0  0  0
  181.3430  176.7840  140.2430 C   0  0  0  0  0  0  0  0  0  0  0  0
  182.8770  178.0500  141.6300 C   0  0  0  0  0  0  0  0  0  0  0  0
  185.0630  178.6550  140.5580 C   0  0  1  0  0  3  0  0  0  0  0  0
  178.9780  176.8780  140.7200 C   0  0  0  0  0  3  0  0  0  0  0  0
  180.0360  176.3890  139.9470 C   0  0  0  0  0  3  0  0  0  0  0  0
  183.7150  177.0170  139.5200 N   0  0  1  0  0  0  0  0  0  0  0  0
  181.5770  177.6400  141.3200 C   0  0  0  0  0  0  0  0  0  0  0  0
  184.5860  179.2370  139.2400 C   0  0  0  0  0  2  0  0  0  0  0  0
  179.2190  177.7240  141.7570 N   0  0  0  0  0  0  0  0  0  0  0  0
  183.0830  178.9570  142.6820 C   0  0  0  0  0  0  0  0  0  0  0  0
  180.7000  178.9970  143.1360 C   0  0  0  0  0  3  0  0  0  0  0  0
  182.4870  176.2060  139.4660 C   0  0  0  0  0  2  0  0  0  0  0  0
  185.2120  179.7530  141.6300 C   0  0  0  0  0  2  0  0  0  0  0  0
  184.4580  179.4900  142.9420 C   0  0  2  0  0  3  0  0  0  0  0  0
  183.6590  178.1830  138.6390 C   0  0  1  0  0  3  0  0  0  0  0  0
  184.0720  177.5300  140.8490 C   0  0  2  0  0  3  0  0  0  0  0  0
  181.9980  179.4220  143.4360 C   0  0  0  0  0  3  0  0  0  0  0  0
  187.0530  177.0970  144.3170 C   0  0  0  0  0  0  0  0  0  0  0  0
  186.7380  177.0760  145.6790 C   0  0  0  0  0  3  0  0  0  0  0  0
  185.2360  178.6530  143.9150 C   0  0  0  0  0  0  0  0  0  0  0  0
  185.6750  177.8430  146.1620 C   0  0  0  0  0  3  0  0  0  0  0  0
  186.3040  177.8840  143.4380 C   0  0  0  0  0  3  0  0  0  0  0  0
  184.9250  178.6300  145.2830 C   0  0  0  0  0  3  0  0  0  0  0  0
  188.0850  176.3540  143.8490 F   0  0  0  0  0  0  0  0  0  0  0  0
  184.1600  177.8230  137.2490 C   0  0  0  0  0  2  0  0  0  0  0  0
  185.3700  177.0260  137.3480 N   0  0  0  0  0  2  0  0  0  0  0  0
  186.3540  177.6490  136.4810 C   0  0  0  0  0  2  0  0  0  0  0  0
  187.7280  177.0470  136.7350 C   0  0  2  0  0  3  0  0  0  0  0  0
  187.9210  176.7590  138.2290 C   0  0  0  0  0  2  0  0  0  0  0  0
  189.1430  178.6160  138.6330 C   0  0  0  0  0  2  0  0  0  0  0  0
  189.0530  179.1490  137.2040 C   0  0  0  0  0  2  0  0  0  0  0  0
  188.8450  177.9760  136.2460 C   0  0  0  0  0  2  0  0  0  0  0  0
  187.9470  177.9560  138.9690 O   0  0  0  0  0  0  0  0  0  0  0  0
  1 12  1  0  0  0  0
  2  8  1  0  0  0  0
  3 11  2  0  0  0  0
  4  9  1  6  0  0  0
  4 17  1  0  0  0  0
  4 14  1  0  0  0  0
  5 10  2  0  0  0  0
  6  2  2  0  0  0  0
  6  5  1  0  0  0  0
  7 13  1  1  0  0  0
  7 17  1  0  0  0  0
  8  3  1  0  0  0  0
  8  1  2  0  0  0  0
 10  1  1  0  0  0  0
 11 15  1  0  0  0  0
 11 18  1  0  0  0  0
 12 18  2  0  0  0  0
 13  2  1  0  0  0  0
 14 15  1  0  0  0  0
 15 21  1  1  0  0  0
 16 26  1  6  0  0  0
 16  9  1  0  0  0  0
 16  7  1  0  0  0  0
 17  3  1  6  0  0  0
 19 20  1  0  0  0  0
 20 22  2  0  0  0  0
 21 24  2  0  0  0  0
 23 21  1  0  0  0  0
 23 19  2  0  0  0  0
 24 22  1  0  0  0  0
 25 19  1  0  0  0  0
 26 27  1  0  0  0  0
 28 27  1  0  0  0  0
 29 28  1  1  0  0  0
 29 30  1  0  0  0  0
 30 34  1  0  0  0  0
 31 34  1  0  0  0  0
 32 31  1  0  0  0  0
 33 29  1  0  0  0  0
 33 32  1  0  0  0  0
M  END
>  <MODEL>
2

>  <REMARK>
 VINA RESULT:      -7.2      3.849      7.716
  Name = 
  5 active torsions:
  status: ('A' for Active; 'I' for Inactive)
    1  A    between atoms: N_3  and  C_13
    2  A    between atoms: N_3  and  C_17
    3  A    between atoms: C_11  and  C_13
    4  A    between atoms: C_12  and  C_28
    5  A    between atoms: C_17  and  C_29
                            x       y       z     vdW  Elec       q    Type
                         _______ _______ _______ _____ _____    ______ ____

>  <TORSDO>
F 5

$$$$
=
 OpenBabel11052414193D

 34 40  0  0  1  0  0  0  0  0999 V2000
  187.7710  176.9950  137.1030 C   0  0  0  0  0  0  0  0  0  0  0  0
  188.7740  174.8760  136.4920 C   0  0  0  0  0  0  0  0  0  0  0  0
  189.8130  176.2470  138.2030 C   0  0  0  0  0  0  0  0  0  0  0  0
  192.2700  175.8780  138.5450 C   0  0  1  0  0  3  0  0  0  0  0  0
  186.7510  175.6550  135.4300 C   0  0  0  0  0  3  0  0  0  0  0  0
  187.7430  174.6790  135.5710 C   0  0  0  0  0  3  0  0  0  0  0  0
  191.0560  174.2830  137.2980 N   0  0  1  0  0  0  0  0  0  0  0  0
  188.7870  176.0300  137.2770 C   0  0  0  0  0  0  0  0  0  0  0  0
  192.7740  175.9490  137.1160 C   0  0  0  0  0  2  0  0  0  0  0  0
  186.7850  176.7820  136.1910 N   0  0  0  0  0  0  0  0  0  0  0  0
  189.8360  177.4410  138.9400 C   0  0  0  0  0  0  0  0  0  0  0  0
  187.7880  178.1670  137.8610 C   0  0  0  0  0  3  0  0  0  0  0  0
  189.7980  173.8010  136.7010 C   0  0  0  0  0  2  0  0  0  0  0  0
  192.3180  177.2620  139.2230 C   0  0  0  0  0  2  0  0  0  0  0  0
  190.9940  177.7310  139.8440 C   0  0  2  0  0  3  0  0  0  0  0  0
  191.9150  174.9630  136.3290 C   0  0  1  0  0  3  0  0  0  0  0  0
  190.9020  175.2100  138.4250 C   0  0  2  0  0  3  0  0  0  0  0  0
  188.8230  178.3940  138.7740 C   0  0  0  0  0  3  0  0  0  0  0  0
  189.2890  176.2750  142.8980 C   0  0  0  0  0  0  0  0  0  0  0  0
  190.3270  176.2620  143.8340 C   0  0  0  0  0  3  0  0  0  0  0  0
  190.7850  177.2270  141.2430 C   0  0  0  0  0  0  0  0  0  0  0  0
  191.5940  176.7300  143.4780 C   0  0  0  0  0  3  0  0  0  0  0  0
  189.5180  176.7550  141.6060 C   0  0  0  0  0  3  0  0  0  0  0  0
  191.8230  177.2110  142.1850 C   0  0  0  0  0  3  0  0  0  0  0  0
  188.0600  175.8200  143.2430 F   0  0  0  0  0  0  0  0  0  0  0  0
  192.8250  173.9650  135.6330 C   0  0  0  0  0  2  0  0  0  0  0  0
  193.2680  172.9530  136.5760 N   0  0  0  0  0  2  0  0  0  0  0  0
  194.6930  172.7770  136.3630 C   0  0  0  0  0  2  0  0  0  0  0  0
  195.3830  172.4610  137.6820 C   0  0  2  0  0  3  0  0  0  0  0  0
  195.3140  173.6660  138.6270 C   0  0  0  0  0  2  0  0  0  0  0  0
  197.4180  174.3720  138.2000 C   0  0  0  0  0  2  0  0  0  0  0  0
  197.7180  173.2850  137.1700 C   0  0  0  0  0  2  0  0  0  0  0  0
  196.8470  172.0640  137.4660 C   0  0  0  0  0  2  0  0  0  0  0  0
  196.0640  174.7430  138.1170 O   0  0  0  0  0  0  0  0  0  0  0  0
  1  8  2  0  0  0  0
  1 12  1  0  0  0  0
  2 13  1  0  0  0  0
  2  8  1  0  0  0  0
  3 11  2  0  0  0  0
  4  9  1  6  0  0  0
  4 14  1  0  0  0  0
  5  6  1  0  0  0  0
  5 10  2  0  0  0  0
  6  2  2  0  0  0  0
  7 13  1  6  0  0  0
  7 17  1  0  0  0  0
  8  3  1  0  0  0  0
 10  1  1  0  0  0  0
 11 15  1  0  0  0  0
 12 18  2  0  0  0  0
 14 15  1  0  0  0  0
 15 21  1  1  0  0  0
 16 26  1  1  0  0  0
 16  9  1  0  0  0  0
 16  7  1  0  0  0  0
 17  3  1  6  0  0  0
 17  4  1  0  0  0  0
 18 11  1  0  0  0  0
 19 25  1  0  0  0  0
 19 20  1  0  0  0  0
 21 23  1  0  0  0  0
 21 24  2  0  0  0  0
 22 20  2  0  0  0  0
 23 19  2  0  0  0  0
 24 22  1  0  0  0  0
 26 27  1  0  0  0  0
 28 27  1  0  0  0  0
 29 28  1  6  0  0  0
 29 30  1  0  0  0  0
 32 33  1  0  0  0  0
 32 31  1  0  0  0  0
 33 29  1  0  0  0  0
 34 31  1  0  0  0  0
 34 30  1  0  0  0  0
M  END
>  <MODEL>
3

>  <REMARK>
 VINA RESULT:      -7.1      5.938      9.413
  Name = 
  5 active torsions:
  status: ('A' for Active; 'I' for Inactive)
    1  A    between atoms: N_3  and  C_13
    2  A    between atoms: N_3  and  C_17
    3  A    between atoms: C_11  and  C_13
    4  A    between atoms: C_12  and  C_28
    5  A    between atoms: C_17  and  C_29
                            x       y       z     vdW  Elec       q    Type
                         _______ _______ _______ _____ _____    ______ ____

>  <TORSDO>
F 5

$$$$
=
 OpenBabel11052414193D

 34 40  0  0  1  0  0  0  0  0999 V2000
  179.8290  175.7890  140.0250 C   0  0  0  0  0  0  0  0  0  0  0  0
  181.4220  174.7620  138.5160 C   0  0  0  0  0  0  0  0  0  0  0  0
  182.0300  176.7850  139.7090 C   0  0  0  0  0  0  0  0  0  0  0  0
  183.8220  178.1780  138.6400 C   0  0  1  0  0  3  0  0  0  0  0  0
  179.2320  173.8080  138.8610 C   0  0  0  0  0  3  0  0  0  0  0  0
  180.4840  173.7640  138.2420 C   0  0  0  0  0  3  0  0  0  0  0  0
  183.5030  175.9690  137.8690 N   0  0  1  0  0  0  0  0  0  0  0  0
  181.1060  175.7750  139.4230 C   0  0  0  0  0  0  0  0  0  0  0  0
  183.3040  178.2710  137.2170 C   0  0  0  0  0  2  0  0  0  0  0  0
  178.9310  174.8100  139.7310 N   0  0  0  0  0  0  0  0  0  0  0  0
  181.6680  177.8240  140.5810 C   0  0  0  0  0  0  0  0  0  0  0  0
  179.4890  176.8120  140.9120 C   0  0  0  0  0  3  0  0  0  0  0  0
  182.7920  174.6800  137.9130 C   0  0  0  0  0  2  0  0  0  0  0  0
  183.3220  179.3610  139.4940 C   0  0  0  0  0  2  0  0  0  0  0  0
  182.6090  178.9700  140.7970 C   0  0  2  0  0  3  0  0  0  0  0  0
  183.0380  176.8320  136.7830 C   0  0  1  0  0  3  0  0  0  0  0  0
  183.4190  176.7760  139.0920 C   0  0  2  0  0  3  0  0  0  0  0  0
  180.4050  177.8330  141.1850 C   0  0  0  0  0  3  0  0  0  0  0  0
  183.9270  178.7160  144.3400 C   0  0  0  0  0  0  0  0  0  0  0  0
  185.2540  178.3300  144.1310 C   0  0  0  0  0  3  0  0  0  0  0  0
  183.5510  178.7440  141.9430 C   0  0  0  0  0  0  0  0  0  0  0  0
  185.7320  178.1490  142.8310 C   0  0  0  0  0  3  0  0  0  0  0  0
  183.0780  178.9220  143.2490 C   0  0  0  0  0  3  0  0  0  0  0  0
  184.8830  178.3560  141.7390 C   0  0  0  0  0  3  0  0  0  0  0  0
  183.4630  178.8900  145.6010 F   0  0  0  0  0  0  0  0  0  0  0  0
  183.8180  176.5500  135.5090 C   0  0  0  0  0  2  0  0  0  0  0  0
  184.9830  177.4140  135.4380 N   0  0  0  0  0  2  0  0  0  0  0  0
  186.1480  176.5590  135.5810 C   0  0  0  0  0  2  0  0  0  0  0  0
  187.4030  177.4080  135.7290 C   0  0  2  0  0  3  0  0  0  0  0  0
  188.6150  176.5250  136.0430 C   0  0  0  0  0  2  0  0  0  0  0  0
  188.5970  176.9460  138.2620 C   0  0  0  0  0  2  0  0  0  0  0  0
  187.3570  177.8370  138.2200 C   0  0  0  0  0  2  0  0  0  0  0  0
  187.2380  178.4610  136.8300 C   0  0  0  0  0  2  0  0  0  0  0  0
  188.4780  175.9210  137.3070 O   0  0  0  0  0  0  0  0  0  0  0  0
  1 12  1  0  0  0  0
  2  8  1  0  0  0  0
  3 11  2  0  0  0  0
  4  9  1  6  0  0  0
  4 17  1  0  0  0  0
  4 14  1  0  0  0  0
  5 10  2  0  0  0  0
  6  2  2  0  0  0  0
  6  5  1  0  0  0  0
  7 13  1  1  0  0  0
  7 17  1  0  0  0  0
  8  3  1  0  0  0  0
  8  1  2  0  0  0  0
 10  1  1  0  0  0  0
 11 15  1  0  0  0  0
 11 18  1  0  0  0  0
 12 18  2  0  0  0  0
 13  2  1  0  0  0  0
 14 15  1  0  0  0  0
 15 21  1  1  0  0  0
 16 26  1  6  0  0  0
 16  9  1  0  0  0  0
 16  7  1  0  0  0  0
 17  3  1  6  0  0  0
 19 25  1  0  0  0  0
 20 19  1  0  0  0  0
 21 23  1  0  0  0  0
 22 20  2  0  0  0  0
 23 19  2  0  0  0  0
 24 21  2  0  0  0  0
 24 22  1  0  0  0  0
 27 26  1  0  0  0  0
 27 28  1  0  0  0  0
 29 28  1  1  0  0  0
 29 30  1  0  0  0  0
 29 33  1  0  0  0  0
 30 34  1  0  0  0  0
 32 31  1  0  0  0  0
 33 32  1  0  0  0  0
 34 31  1  0  0  0  0
M  END
>  <MODEL>
4

>  <REMARK>
 VINA RESULT:      -7.1      4.710      8.332
  Name = 
  5 active torsions:
  status: ('A' for Active; 'I' for Inactive)
    1  A    between atoms: N_3  and  C_13
    2  A    between atoms: N_3  and  C_17
    3  A    between atoms: C_11  and  C_13
    4  A    between atoms: C_12  and  C_28
    5  A    between atoms: C_17  and  C_29
                            x       y       z     vdW  Elec       q    Type
                         _______ _______ _______ _____ _____    ______ ____

>  <TORSDO>
F 5

$$$$
=
 OpenBabel11052414193D

 34 40  0  0  1  0  0  0  0  0999 V2000
  191.2980  177.3980  143.5890 C   0  0  0  0  0  0  0  0  0  0  0  0
  189.0180  176.8920  144.2320 C   0  0  0  0  0  0  0  0  0  0  0  0
  189.5430  177.3060  141.9010 C   0  0  0  0  0  0  0  0  0  0  0  0
  187.6330  178.1050  140.4840 C   0  0  1  0  0  3  0  0  0  0  0  0
  190.7880  176.9900  145.8710 C   0  0  0  0  0  3  0  0  0  0  0  0
  189.4410  176.7800  145.5590 C   0  0  0  0  0  3  0  0  0  0  0  0
  187.1530  177.1900  142.6070 N   0  0  1  0  0  0  0  0  0  0  0  0
  189.9470  177.1860  143.2340 C   0  0  0  0  0  0  0  0  0  0  0  0
  187.0880  179.2300  141.3430 C   0  0  0  0  0  2  0  0  0  0  0  0
  191.6800  177.2930  144.8900 N   0  0  0  0  0  0  0  0  0  0  0  0
  190.4860  177.6600  140.9220 C   0  0  0  0  0  0  0  0  0  0  0  0
  192.2330  177.7220  142.6040 C   0  0  0  0  0  3  0  0  0  0  0  0
  187.5910  176.5940  143.8810 C   0  0  0  0  0  2  0  0  0  0  0  0
  188.6810  178.6280  139.4800 C   0  0  0  0  0  2  0  0  0  0  0  0
  190.0350  177.9050  139.5150 C   0  0  2  0  0  3  0  0  0  0  0  0
  186.8640  178.6190  142.7240 C   0  0  1  0  0  3  0  0  0  0  0  0
  188.1000  177.0580  141.4930 C   0  0  2  0  0  3  0  0  0  0  0  0
  191.8260  177.8600  141.2730 C   0  0  0  0  0  3  0  0  0  0  0  0
  191.3390  174.8040  137.7720 C   0  0  0  0  0  0  0  0  0  0  0  0
  190.2000  174.3430  137.1060 C   0  0  0  0  0  3  0  0  0  0  0  0
  190.0690  176.6680  138.6660 C   0  0  0  0  0  0  0  0  0  0  0  0
  188.9940  175.0400  137.2190 C   0  0  0  0  0  3  0  0  0  0  0  0
  191.2730  175.9630  138.5500 C   0  0  0  0  0  3  0  0  0  0  0  0
  188.9280  176.2000  137.9970 C   0  0  0  0  0  3  0  0  0  0  0  0
  192.5080  174.1280  137.6630 F   0  0  0  0  0  0  0  0  0  0  0  0
  185.4150  178.8370  143.1290 C   0  0  0  0  0  2  0  0  0  0  0  0
  184.6520  179.3360  141.9990 N   0  0  0  0  0  2  0  0  0  0  0  0
  183.7860  178.2530  141.5680 C   0  0  0  0  0  2  0  0  0  0  0  0
  182.9500  178.6970  140.3760 C   0  0  2  0  0  3  0  0  0  0  0  0
  182.1730  177.5110  139.7930 C   0  0  0  0  0  2  0  0  0  0  0  0
  183.6130  177.1470  138.0910 C   0  0  0  0  0  2  0  0  0  0  0  0
  184.5850  178.2530  138.4990 C   0  0  0  0  0  2  0  0  0  0  0  0
  183.8240  179.3220  139.2830 C   0  0  0  0  0  2  0  0  0  0  0  0
  183.0520  176.5610  139.2400 O   0  0  0  0  0  0  0  0  0  0  0  0
  1 10  2  0  0  0  0
  2  6  1  0  0  0  0
  3  8  1  0  0  0  0
  4 14  1  1  0  0  0
  4  9  1  0  0  0  0
  4 17  1  0  0  0  0
  6  5  2  0  0  0  0
  7 16  1  0  0  0  0
  7 13  1  1  0  0  0
  8  1  1  0  0  0  0
  8  2  2  0  0  0  0
  9 16  1  0  0  0  0
 10  5  1  0  0  0  0
 11 18  1  0  0  0  0
 11  3  2  0  0  0  0
 12  1  1  0  0  0  0
 13  2  1  0  0  0  0
 14 15  1  0  0  0  0
 15 21  1  6  0  0  0
 15 11  1  0  0  0  0
 16 26  1  6  0  0  0
 17  3  1  1  0  0  0
 17  7  1  0  0  0  0
 18 12  2  0  0  0  0
 19 23  1  0  0  0  0
 20 22  1  0  0  0  0
 20 19  2  0  0  0  0
 22 24  2  0  0  0  0
 23 21  2  0  0  0  0
 24 21  1  0  0  0  0
 25 19  1  0  0  0  0
 27 26  1  0  0  0  0
 28 27  1  0  0  0  0
 29 28  1  1  0  0  0
 30 29  1  0  0  0  0
 31 32  1  0  0  0  0
 31 34  1  0  0  0  0
 32 33  1  0  0  0  0
 33 29  1  0  0  0  0
 34 30  1  0  0  0  0
M  END
>  <MODEL>
5

>  <REMARK>
 VINA RESULT:      -6.9      4.181      8.062
  Name = 
  5 active torsions:
  status: ('A' for Active; 'I' for Inactive)
    1  A    between atoms: N_3  and  C_13
    2  A    between atoms: N_3  and  C_17
    3  A    between atoms: C_11  and  C_13
    4  A    between atoms: C_12  and  C_28
    5  A    between atoms: C_17  and  C_29
                            x       y       z     vdW  Elec       q    Type
                         _______ _______ _______ _____ _____    ______ ____

>  <TORSDO>
F 5

$$$$
=
 OpenBabel11052414193D

 34 40  0  0  1  0  0  0  0  0999 V2000
  186.0590  178.6270  139.6710 C   0  0  0  0  0  0  0  0  0  0  0  0
  186.6340  177.9610  141.9280 C   0  0  0  0  0  0  0  0  0  0  0  0
  184.3060  178.2820  141.3290 C   0  0  0  0  0  0  0  0  0  0  0  0
  182.7620  178.8250  143.2290 C   0  0  1  0  0  3  0  0  0  0  0  0
  188.3380  178.3110  140.2530 C   0  0  0  0  0  3  0  0  0  0  0  0
  187.9820  177.9650  141.5600 C   0  0  0  0  0  3  0  0  0  0  0  0
  184.9160  177.9980  143.7300 N   0  0  1  0  0  0  0  0  0  0  0  0
  185.6600  178.2770  140.9800 C   0  0  0  0  0  0  0  0  0  0  0  0
  183.5250  179.9460  143.9090 C   0  0  0  0  0  2  0  0  0  0  0  0
  187.3790  178.6330  139.3440 N   0  0  0  0  0  0  0  0  0  0  0  0
  183.3490  178.6590  140.3740 C   0  0  0  0  0  0  0  0  0  0  0  0
  185.0960  178.9740  138.7210 C   0  0  0  0  0  3  0  0  0  0  0  0
  186.2420  177.5180  143.3050 C   0  0  0  0  0  2  0  0  0  0  0  0
  181.7730  179.3780  142.1830 C   0  0  0  0  0  2  0  0  0  0  0  0
  181.9110  178.7800  140.7750 C   0  0  2  0  0  3  0  0  0  0  0  0
  184.9300  179.4000  144.1460 C   0  0  1  0  0  3  0  0  0  0  0  0
  183.8530  177.8840  142.7240 C   0  0  2  0  0  3  0  0  0  0  0  0
  183.7430  178.9960  139.0730 C   0  0  0  0  0  3  0  0  0  0  0  0
  180.9130  175.3670  139.4680 C   0  0  0  0  0  0  0  0  0  0  0  0
  179.7650  175.0920  140.2160 C   0  0  0  0  0  3  0  0  0  0  0  0
  181.1430  177.5030  140.5950 C   0  0  0  0  0  0  0  0  0  0  0  0
  179.3040  176.0190  141.1550 C   0  0  0  0  0  3  0  0  0  0  0  0
  181.6010  176.5690  139.6580 C   0  0  0  0  0  3  0  0  0  0  0  0
  179.9910  177.2220  141.3440 C   0  0  0  0  0  3  0  0  0  0  0  0
  181.3610  174.4680  138.5590 F   0  0  0  0  0  0  0  0  0  0  0  0
  185.2580  179.5120  145.6260 C   0  0  0  0  0  2  0  0  0  0  0  0
  185.5810  178.2030  146.1650 N   0  0  0  0  0  2  0  0  0  0  0  0
  186.8720  178.3260  146.8190 C   0  0  0  0  0  2  0  0  0  0  0  0
  187.6600  177.0330  146.6630 C   0  0  2  0  0  3  0  0  0  0  0  0
  188.4850  176.7520  147.9240 C   0  0  0  0  0  2  0  0  0  0  0  0
  190.4270  177.5260  147.0660 C   0  0  0  0  0  2  0  0  0  0  0  0
  189.8240  177.9440  145.7260 C   0  0  0  0  0  2  0  0  0  0  0  0
  188.5890  177.0890  145.4460 C   0  0  0  0  0  2  0  0  0  0  0  0
  189.4870  177.7270  148.0930 O   0  0  0  0  0  0  0  0  0  0  0  0
  1  8  1  0  0  0  0
  2 13  1  0  0  0  0
  4 14  1  6  0  0  0
  4  9  1  0  0  0  0
  5  6  2  0  0  0  0
  6  2  1  0  0  0  0
  7 13  1  6  0  0  0
  7 16  1  0  0  0  0
  8  3  1  0  0  0  0
  8  2  2  0  0  0  0
  9 16  1  0  0  0  0
 10  1  2  0  0  0  0
 10  5  1  0  0  0  0
 11 15  1  0  0  0  0
 11  3  2  0  0  0  0
 12 18  2  0  0  0  0
 12  1  1  0  0  0  0
 15 21  1  1  0  0  0
 15 14  1  0  0  0  0
 16 26  1  1  0  0  0
 17  3  1  6  0  0  0
 17  4  1  0  0  0  0
 17  7  1  0  0  0  0
 18 11  1  0  0  0  0
 19 23  2  0  0  0  0
 19 20  1  0  0  0  0
 20 22  2  0  0  0  0
 21 24  2  0  0  0  0
 22 24  1  0  0  0  0
 23 21  1  0  0  0  0
 25 19  1  0  0  0  0
 26 27  1  0  0  0  0
 27 28  1  0  0  0  0
 29 28  1  1  0  0  0
 29 30  1  0  0  0  0
 30 34  1  0  0  0  0
 31 34  1  0  0  0  0
 32 31  1  0  0  0  0
 33 32  1  0  0  0  0
 33 29  1  0  0  0  0
M  END
>  <MODEL>
6

>  <REMARK>
 VINA RESULT:      -6.8      2.184      3.436
  Name = 
  5 active torsions:
  status: ('A' for Active; 'I' for Inactive)
    1  A    between atoms: N_3  and  C_13
    2  A    between atoms: N_3  and  C_17
    3  A    between atoms: C_11  and  C_13
    4  A    between atoms: C_12  and  C_28
    5  A    between atoms: C_17  and  C_29
                            x       y       z     vdW  Elec       q    Type
                         _______ _______ _______ _____ _____    ______ ____

>  <TORSDO>
F 5

$$$$
=
 OpenBabel11052414193D

 34 40  0  0  1  0  0  0  0  0999 V2000
  186.6740  178.5820  146.7270 C   0  0  0  0  0  0  0  0  0  0  0  0
  185.6720  177.7720  144.6750 C   0  0  0  0  0  0  0  0  0  0  0  0
  188.0880  177.8880  144.8670 C   0  0  0  0  0  0  0  0  0  0  0  0
  189.3400  178.0720  142.7010 C   0  0  1  0  0  3  0  0  0  0  0  0
  184.3110  178.4670  146.5440 C   0  0  0  0  0  3  0  0  0  0  0  0
  184.4100  177.9610  145.2440 C   0  0  0  0  0  3  0  0  0  0  0  0
  187.0640  177.4460  142.6360 N   0  0  1  0  0  0  0  0  0  0  0  0
  186.8160  178.0660  145.4200 C   0  0  0  0  0  0  0  0  0  0  0  0
  188.5840  179.2020  142.0270 C   0  0  0  0  0  2  0  0  0  0  0  0
  185.4330  178.7650  147.2520 N   0  0  0  0  0  0  0  0  0  0  0  0
  189.2210  178.2450  145.6140 C   0  0  0  0  0  0  0  0  0  0  0  0
  187.8100  178.9080  147.4720 C   0  0  0  0  0  3  0  0  0  0  0  0
  185.7870  177.1600  143.3120 C   0  0  0  0  0  2  0  0  0  0  0  0
  190.5370  178.6090  143.5130 C   0  0  0  0  0  2  0  0  0  0  0  0
  190.5770  178.1670  144.9840 C   0  0  2  0  0  3  0  0  0  0  0  0
  187.1140  178.7960  142.0730 C   0  0  1  0  0  3  0  0  0  0  0  0
  188.2630  177.3110  143.4720 C   0  0  2  0  0  3  0  0  0  0  0  0
  189.0820  178.7460  146.9140 C   0  0  0  0  0  3  0  0  0  0  0  0
  192.2760  175.2450  146.6950 C   0  0  0  0  0  0  0  0  0  0  0  0
  192.4740  174.3580  145.6310 C   0  0  0  0  0  3  0  0  0  0  0  0
  191.2400  176.8350  145.1840 C   0  0  0  0  0  0  0  0  0  0  0  0
  192.0560  174.7070  144.3450 C   0  0  0  0  0  3  0  0  0  0  0  0
  191.6600  176.4790  146.4710 C   0  0  0  0  0  3  0  0  0  0  0  0
  191.4400  175.9420  144.1210 C   0  0  0  0  0  3  0  0  0  0  0  0
  192.6810  174.9060  147.9430 F   0  0  0  0  0  0  0  0  0  0  0  0
  186.5570  178.8030  140.6590 C   0  0  0  0  0  2  0  0  0  0  0  0
  185.2240  179.3780  140.6520 N   0  0  0  0  0  2  0  0  0  0  0  0
  184.4050  178.5290  139.8050 C   0  0  0  0  0  2  0  0  0  0  0  0
  183.4390  177.7200  140.6570 C   0  0  2  0  0  3  0  0  0  0  0  0
  182.6760  176.7090  139.7920 C   0  0  0  0  0  2  0  0  0  0  0  0
  180.8020  177.9600  139.6330 C   0  0  0  0  0  2  0  0  0  0  0  0
  181.3570  179.1370  140.4330 C   0  0  0  0  0  2  0  0  0  0  0  0
  182.4400  178.6270  141.3840 C   0  0  0  0  0  2  0  0  0  0  0  0
  181.8320  177.3700  138.8800 O   0  0  0  0  0  0  0  0  0  0  0  0
  1 10  1  0  0  0  0
  1 12  1  0  0  0  0
  2  6  2  0  0  0  0
  2  8  1  0  0  0  0
  3  8  1  0  0  0  0
  3 11  2  0  0  0  0
  4  9  1  1  0  0  0
  4 17  1  0  0  0  0
  4 14  1  0  0  0  0
  5 10  2  0  0  0  0
  6  5  1  0  0  0  0
  7 13  1  1  0  0  0
  7 17  1  0  0  0  0
  8  1  2  0  0  0  0
  9 16  1  0  0  0  0
 11 18  1  0  0  0  0
 13  2  1  0  0  0  0
 14 15  1  0  0  0  0
 15 21  1  6  0  0  0
 15 11  1  0  0  0  0
 16 26  1  6  0  0  0
 16  7  1  0  0  0  0
 17  3  1  1  0  0  0
 18 12  2  0  0  0  0
 19 25  1  0  0  0  0
 20 19  2  0  0  0  0
 21 23  2  0  0  0  0
 22 20  1  0  0  0  0
 23 19  1  0  0  0  0
 24 22  2  0  0  0  0
 24 21  1  0  0  0  0
 27 26  1  0  0  0  0
 28 27  1  0  0  0  0
 29 28  1  6  0  0  0
 29 33  1  0  0  0  0
 30 29  1  0  0  0  0
 31 32  1  0  0  0  0
 32 33  1  0  0  0  0
 34 31  1  0  0  0  0
 34 30  1  0  0  0  0
M  END
>  <MODEL>
7

>  <REMARK>
 VINA RESULT:      -6.7      3.516      8.529
  Name = 
  5 active torsions:
  status: ('A' for Active; 'I' for Inactive)
    1  A    between atoms: N_3  and  C_13
    2  A    between atoms: N_3  and  C_17
    3  A    between atoms: C_11  and  C_13
    4  A    between atoms: C_12  and  C_28
    5  A    between atoms: C_17  and  C_29
                            x       y       z     vdW  Elec       q    Type
                         _______ _______ _______ _____ _____    ______ ____

>  <TORSDO>
F 5

$$$$
=
 OpenBabel11052414193D

 34 40  0  0  1  0  0  0  0  0999 V2000
  180.0350  175.0290  139.0210 C   0  0  0  0  0  0  0  0  0  0  0  0
  181.1850  175.9510  137.0990 C   0  0  0  0  0  0  0  0  0  0  0  0
  181.0930  177.2190  139.1650 C   0  0  0  0  0  0  0  0  0  0  0  0
  181.3400  179.7040  138.9250 C   0  0  1  0  0  3  0  0  0  0  0  0
  180.1260  173.7840  137.0030 C   0  0  0  0  0  3  0  0  0  0  0  0
  180.8650  174.7960  136.3820 C   0  0  0  0  0  3  0  0  0  0  0  0
  181.9140  178.3330  137.0900 N   0  0  1  0  0  0  0  0  0  0  0  0
  180.7850  176.0690  138.4310 C   0  0  0  0  0  0  0  0  0  0  0  0
  180.3370  179.9880  137.8230 C   0  0  0  0  0  2  0  0  0  0  0  0
  179.7280  173.9190  138.2970 N   0  0  0  0  0  0  0  0  0  0  0  0
  180.6310  177.3400  140.4850 C   0  0  0  0  0  0  0  0  0  0  0  0
  179.6030  175.1470  140.3440 C   0  0  0  0  0  3  0  0  0  0  0  0
  182.0410  177.0050  136.4640 C   0  0  0  0  0  2  0  0  0  0  0  0
  180.6910  179.8380  140.3170 C   0  0  0  0  0  2  0  0  0  0  0  0
  180.8550  178.6170  141.2340 C   0  0  2  0  0  3  0  0  0  0  0  0
  180.6930  179.0310  136.6880 C   0  0  1  0  0  3  0  0  0  0  0  0
  181.9210  178.3400  138.5580 C   0  0  2  0  0  3  0  0  0  0  0  0
  179.8950  176.3040  141.0730 C   0  0  0  0  0  3  0  0  0  0  0  0
  183.2950  179.0110  144.1050 C   0  0  0  0  0  0  0  0  0  0  0  0
  184.5080  178.6490  143.5100 C   0  0  0  0  0  3  0  0  0  0  0  0
  182.1420  178.6240  142.0060 C   0  0  0  0  0  0  0  0  0  0  0  0
  184.5400  178.2720  142.1650 C   0  0  0  0  0  3  0  0  0  0  0  0
  182.1160  178.9980  143.3550 C   0  0  0  0  0  3  0  0  0  0  0  0
  183.3610  178.2600  141.4140 C   0  0  0  0  0  3  0  0  0  0  0  0
  183.2640  179.3750  145.4100 F   0  0  0  0  0  0  0  0  0  0  0  0
  180.9340  179.8370  135.4220 C   0  0  0  0  0  2  0  0  0  0  0  0
  179.9990  180.9470  135.3530 N   0  0  0  0  0  2  0  0  0  0  0  0
  180.7830  182.1380  135.0820 C   0  0  0  0  0  2  0  0  0  0  0  0
  179.9140  183.3790  135.2320 C   0  0  2  0  0  3  0  0  0  0  0  0
  180.7850  184.6370  135.3240 C   0  0  0  0  0  2  0  0  0  0  0  0
  180.6520  184.8070  137.5720 C   0  0  0  0  0  2  0  0  0  0  0  0
  179.8100  183.5450  137.7530 C   0  0  0  0  0  2  0  0  0  0  0  0
  179.0180  183.2860  136.4720 C   0  0  0  0  0  2  0  0  0  0  0  0
  181.5500  184.6300  136.5050 O   0  0  0  0  0  0  0  0  0  0  0  0
  1 12  1  0  0  0  0
  2  8  1  0  0  0  0
  3 11  2  0  0  0  0
  4  9  1  6  0  0  0
  4 14  1  0  0  0  0
  5 10  2  0  0  0  0
  6  5  1  0  0  0  0
  6  2  2  0  0  0  0
  7 13  1  1  0  0  0
  7 17  1  0  0  0  0
  8  1  2  0  0  0  0
  8  3  1  0  0  0  0
 10  1  1  0  0  0  0
 11 18  1  0  0  0  0
 11 15  1  0  0  0  0
 12 18  2  0  0  0  0
 13  2  1  0  0  0  0
 14 15  1  0  0  0  0
 15 21  1  6  0  0  0
 16 26  1  6  0  0  0
 16  7  1  0  0  0  0
 16  9  1  0  0  0  0
 17  4  1  0  0  0  0
 17  3  1  1  0  0  0
 19 25  1  0  0  0  0
 20 19  1  0  0  0  0
 21 23  1  0  0  0  0
 22 20  2  0  0  0  0
 23 19  2  0  0  0  0
 24 21  2  0  0  0  0
 24 22  1  0  0  0  0
 27 26  1  0  0  0  0
 28 27  1  0  0  0  0
 29 28  1  1  0  0  0
 29 30  1  0  0  0  0
 29 33  1  0  0  0  0
 30 34  1  0  0  0  0
 31 32  1  0  0  0  0
 33 32  1  0  0  0  0
 34 31  1  0  0  0  0
M  END
>  <MODEL>
8

>  <REMARK>
 VINA RESULT:      -6.7      5.948     10.659
  Name = 
  5 active torsions:
  status: ('A' for Active; 'I' for Inactive)
    1  A    between atoms: N_3  and  C_13
    2  A    between atoms: N_3  and  C_17
    3  A    between atoms: C_11  and  C_13
    4  A    between atoms: C_12  and  C_28
    5  A    between atoms: C_17  and  C_29
                            x       y       z     vdW  Elec       q    Type
                         _______ _______ _______ _____ _____    ______ ____

>  <TORSDO>
F 5

$$$$
=
 OpenBabel11052414193D

 34 40  0  0  1  0  0  0  0  0999 V2000
  188.4030  177.7570  141.2770 C   0  0  0  0  0  0  0  0  0  0  0  0
  188.3330  176.5090  143.3530 C   0  0  0  0  0  0  0  0  0  0  0  0
  186.4400  177.8850  142.7150 C   0  0  0  0  0  0  0  0  0  0  0  0
  184.9850  178.6690  144.6020 C   0  0  1  0  0  3  0  0  0  0  0  0
  190.2560  176.4100  141.8970 C   0  0  0  0  0  3  0  0  0  0  0  0
  189.6080  176.0120  143.0700 C   0  0  0  0  0  3  0  0  0  0  0  0
  186.5320  176.9360  145.0200 N   0  0  1  0  0  0  0  0  0  0  0  0
  187.7140  177.3740  142.4490 C   0  0  0  0  0  0  0  0  0  0  0  0
  186.0260  179.2200  145.5590 C   0  0  0  0  0  2  0  0  0  0  0  0
  189.6480  177.2660  141.0330 N   0  0  0  0  0  0  0  0  0  0  0  0
  185.8610  178.7980  141.8190 C   0  0  0  0  0  0  0  0  0  0  0  0
  187.8070  178.6440  140.3790 C   0  0  0  0  0  3  0  0  0  0  0  0
  187.6030  176.0290  144.5700 C   0  0  0  0  0  2  0  0  0  0  0  0
  184.4610  179.7690  143.6550 C   0  0  0  0  0  2  0  0  0  0  0  0
  184.5510  179.4380  142.1580 C   0  0  2  0  0  3  0  0  0  0  0  0
  187.0460  178.0990  145.7430 C   0  0  1  0  0  3  0  0  0  0  0  0
  185.6700  177.4660  143.9570 C   0  0  2  0  0  3  0  0  0  0  0  0
  186.5410  179.1700  140.6530 C   0  0  0  0  0  3  0  0  0  0  0  0
  182.5020  176.9500  140.1660 C   0  0  0  0  0  0  0  0  0  0  0  0
  181.2150  177.1620  140.6690 C   0  0  0  0  0  3  0  0  0  0  0  0
  183.3710  178.6590  141.6520 C   0  0  0  0  0  0  0  0  0  0  0  0
  181.0030  178.1190  141.6640 C   0  0  0  0  0  3  0  0  0  0  0  0
  183.5770  177.6970  140.6570 C   0  0  0  0  0  3  0  0  0  0  0  0
  182.0780  178.8670  142.1550 C   0  0  0  0  0  3  0  0  0  0  0  0
  182.7080  176.0210  139.2020 F   0  0  0  0  0  0  0  0  0  0  0  0
  187.1750  177.7900  147.2250 C   0  0  0  0  0  2  0  0  0  0  0  0
  188.5060  178.1340  147.6920 N   0  0  0  0  0  2  0  0  0  0  0  0
  189.3780  177.0340  147.3200 C   0  0  0  0  0  2  0  0  0  0  0  0
  190.8110  177.5270  147.1860 C   0  0  2  0  0  3  0  0  0  0  0  0
  191.3320  177.2860  145.7650 C   0  0  0  0  0  2  0  0  0  0  0  0
  192.4870  175.4170  146.2920 C   0  0  0  0  0  2  0  0  0  0  0  0
  192.0640  175.4070  147.7600 C   0  0  0  0  0  2  0  0  0  0  0  0
  191.7360  176.8360  148.1940 C   0  0  0  0  0  2  0  0  0  0  0  0
  191.4350  175.9080  145.4980 O   0  0  0  0  0  0  0  0  0  0  0  0
  1  8  1  0  0  0  0
  2 13  1  0  0  0  0
  4 14  1  6  0  0  0
  4  9  1  0  0  0  0
  5  6  2  0  0  0  0
  6  2  1  0  0  0  0
  7 13  1  6  0  0  0
  7 16  1  0  0  0  0
  8  3  1  0  0  0  0
  8  2  2  0  0  0  0
  9 16  1  0  0  0  0
 10  1  2  0  0  0  0
 10  5  1  0  0  0  0
 11 15  1  0  0  0  0
 11  3  2  0  0  0  0
 12 18  2  0  0  0  0
 12  1  1  0  0  0  0
 15 21  1  1  0  0  0
 15 14  1  0  0  0  0
 16 26  1  1  0  0  0
 17  3  1  6  0  0  0
 17  4  1  0  0  0  0
 17  7  1  0  0  0  0
 18 11  1  0  0  0  0
 19 23  2  0  0  0  0
 19 20  1  0  0  0  0
 20 22  2  0  0  0  0
 21 24  2  0  0  0  0
 22 24  1  0  0  0  0
 23 21  1  0  0  0  0
 25 19  1  0  0  0  0
 26 27  1  0  0  0  0
 28 27  1  0  0  0  0
 29 28  1  6  0  0  0
 29 33  1  0  0  0  0
 30 29  1  0  0  0  0
 31 32  1  0  0  0  0
 32 33  1  0  0  0  0
 34 30  1  0  0  0  0
 34 31  1  0  0  0  0
M  END
>  <MODEL>
9

>  <REMARK>
 VINA RESULT:      -6.7      1.383      1.692
  Name = 
  5 active torsions:
  status: ('A' for Active; 'I' for Inactive)
    1  A    between atoms: N_3  and  C_13
    2  A    between atoms: N_3  and  C_17
    3  A    between atoms: C_11  and  C_13
    4  A    between atoms: C_12  and  C_28
    5  A    between atoms: C_17  and  C_29
                            x       y       z     vdW  Elec       q    Type
                         _______ _______ _______ _____ _____    ______ ____

>  <TORSDO>
F 5

$$$$
