=
 OpenBabel11052412523D

 25 28  0  0  1  0  0  0  0  0999 V2000
  187.0760  178.1650  142.1700 C   0  0  0  0  0  0  0  0  0  0  0  0
  188.1600  177.9910  141.2970 C   0  0  0  0  0  0  0  0  0  0  0  0
  185.7020  178.9130  140.3660 N   0  0  0  0  0  0  0  0  0  0  0  0
  187.0170  177.9420  143.5560 C   0  0  0  0  0  0  0  0  0  0  0  0
  190.6920  177.5620  141.1030 C   0  0  2  0  0  3  0  0  0  0  0  0
  186.5150  177.6230  146.2860 C   0  0  0  0  0  3  0  0  0  0  0  0
  186.7170  178.7400  139.5170 N   0  0  0  0  0  0  0  0  0  0  0  0
  185.7630  178.2370  144.0940 C   0  0  0  0  0  0  0  0  0  0  0  0
  185.4890  178.0860  145.4510 C   0  0  0  0  0  3  0  0  0  0  0  0
  189.0310  178.0780  138.8870 C   0  0  2  0  0  3  0  0  0  0  0  0
  188.5530  178.3350  137.4660 C   0  0  0  0  0  1  0  0  0  0  0  0
  189.4180  177.5210  141.8100 N   0  0  0  0  0  2  0  0  0  0  0  0
  187.7840  177.3220  145.7580 C   0  0  0  0  0  3  0  0  0  0  0  0
  185.8690  178.6280  141.6750 C   0  0  0  0  0  0  0  0  0  0  0  0
  184.7110  178.7760  142.8900 S   0  0  0  0  0  0  0  0  0  0  0  0
  189.5740  176.6590  138.9790 C   0  0  0  0  0  2  0  0  0  0  0  0
  188.0410  177.4800  144.3870 C   0  0  0  0  0  3  0  0  0  0  0  0
  190.7460  176.5530  139.9530 C   0  0  0  0  0  2  0  0  0  0  0  0
  187.9450  178.2820  139.9190 C   0  0  0  0  0  0  0  0  0  0  0  0
  191.8550  177.3650  142.0750 C   0  0  0  0  0  2  0  0  0  0  0  0
  191.5140  176.7380  144.4940 C   0  0  0  0  0  0  0  0  0  0  0  0
  191.1620  177.0860  145.7570 F   0  0  0  0  0  0  0  0  0  0  0  0
  191.8720  175.5530  144.2590 O   0  0  0  0  0  0  0  0  0  0  0  0
  191.2670  179.1120  143.7720 C   0  0  0  0  0  1  0  0  0  0  0  0
  191.4890  177.7140  143.4440 N   0  0  0  0  0  0  0  0  0  0  0  0
  1  4  1  0  0  0  0
  2 12  1  0  0  0  0
  2  1  1  0  0  0  0
  3 14  1  0  0  0  0
  4  8  2  0  0  0  0
  4 17  1  0  0  0  0
  5 12  1  0  0  0  0
  5 20  1  1  0  0  0
  7 19  1  0  0  0  0
  7  3  2  0  0  0  0
  8  9  1  0  0  0  0
  9  6  2  0  0  0  0
 10 11  1  6  0  0  0
 10 16  1  0  0  0  0
 10 19  1  0  0  0  0
 13  6  1  0  0  0  0
 14  1  2  0  0  0  0
 14 15  1  0  0  0  0
 15  8  1  0  0  0  0
 16 18  1  0  0  0  0
 17 13  2  0  0  0  0
 18  5  1  0  0  0  0
 19  2  2  0  0  0  0
 20 25  1  0  0  0  0
 21 22  1  0  0  0  0
 23 21  2  0  0  0  0
 25 24  1  0  0  0  0
 25 21  1  0  0  0  0
M  END
>  <MODEL>
1

>  <REMARK>
 VINA RESULT:      -9.8      0.000      0.000
  Name = 
  2 active torsions:
  status: ('A' for Active; 'I' for Inactive)
    1  A    between atoms: C_6  and  C_15
    2  A    between atoms: C_15  and  N_25
                            x       y       z     vdW  Elec       q    Type
                         _______ _______ _______ _____ _____    ______ ____

>  <TORSDO>
F 2

$$$$
=
 OpenBabel11052412523D

 25 28  0  0  1  0  0  0  0  0999 V2000
  187.0850  177.8960  145.2420 C   0  0  0  0  0  0  0  0  0  0  0  0
  188.3160  177.5030  144.6970 C   0  0  0  0  0  0  0  0  0  0  0  0
  187.9670  177.7070  147.4530 N   0  0  0  0  0  0  0  0  0  0  0  0
  185.8920  178.2250  144.5770 C   0  0  0  0  0  0  0  0  0  0  0  0
  189.5610  176.7410  142.5750 C   0  0  2  0  0  3  0  0  0  0  0  0
  183.3650  178.9370  143.6220 C   0  0  0  0  0  3  0  0  0  0  0  0
  189.1510  177.3460  146.9530 N   0  0  0  0  0  0  0  0  0  0  0  0
  184.8630  178.5610  145.4560 C   0  0  0  0  0  0  0  0  0  0  0  0
  183.5940  178.9200  145.0050 C   0  0  0  0  0  3  0  0  0  0  0  0
  190.7610  176.8570  145.1200 C   0  0  2  0  0  3  0  0  0  0  0  0
  191.7730  176.7350  146.2490 C   0  0  0  0  0  1  0  0  0  0  0  0
  188.4610  177.3990  143.2700 N   0  0  0  0  0  2  0  0  0  0  0  0
  184.3930  178.6000  142.7230 C   0  0  0  0  0  3  0  0  0  0  0  0
  186.9450  177.9850  146.6160 C   0  0  0  0  0  0  0  0  0  0  0  0
  185.3900  178.4610  147.0560 S   0  0  0  0  0  0  0  0  0  0  0  0
  191.2590  177.8880  144.1170 C   0  0  0  0  0  2  0  0  0  0  0  0
  185.6650  178.2420  143.1970 C   0  0  0  0  0  3  0  0  0  0  0  0
  190.8670  177.5320  142.6840 C   0  0  0  0  0  2  0  0  0  0  0  0
  189.3810  177.2370  145.6060 C   0  0  0  0  0  0  0  0  0  0  0  0
  189.1910  176.4710  141.1170 C   0  0  0  0  0  2  0  0  0  0  0  0
  189.7190  178.0040  139.1850 C   0  0  0  0  0  0  0  0  0  0  0  0
  189.5000  179.1620  138.5140 F   0  0  0  0  0  0  0  0  0  0  0  0
  190.5810  177.1950  138.7500 O   0  0  0  0  0  0  0  0  0  0  0  0
  187.8500  178.5530  140.7410 C   0  0  0  0  0  1  0  0  0  0  0  0
  188.9700  177.7050  140.3700 N   0  0  0  0  0  0  0  0  0  0  0  0
  1 14  1  0  0  0  0
  2  1  2  0  0  0  0
  2 19  1  0  0  0  0
  4  1  1  0  0  0  0
  4  8  1  0  0  0  0
  5 20  1  6  0  0  0
  5 18  1  0  0  0  0
  5 12  1  0  0  0  0
  6  9  1  0  0  0  0
  7  3  1  0  0  0  0
  8 15  1  0  0  0  0
  9  8  2  0  0  0  0
 10 19  1  0  0  0  0
 10 11  1  1  0  0  0
 12  2  1  0  0  0  0
 13 17  1  0  0  0  0
 13  6  2  0  0  0  0
 14 15  1  0  0  0  0
 14  3  2  0  0  0  0
 16 10  1  0  0  0  0
 17  4  2  0  0  0  0
 18 16  1  0  0  0  0
 19  7  2  0  0  0  0
 21 25  1  0  0  0  0
 22 21  1  0  0  0  0
 23 21  2  0  0  0  0
 25 24  1  0  0  0  0
 25 20  1  0  0  0  0
M  END
>  <MODEL>
2

>  <REMARK>
 VINA RESULT:      -9.4      2.828      5.027
  Name = 
  2 active torsions:
  status: ('A' for Active; 'I' for Inactive)
    1  A    between atoms: C_6  and  C_15
    2  A    between atoms: C_15  and  N_25
                            x       y       z     vdW  Elec       q    Type
                         _______ _______ _______ _____ _____    ______ ____

>  <TORSDO>
F 2

$$$$
=
 OpenBabel11052412523D

 25 28  0  0  1  0  0  0  0  0999 V2000
  186.2880  178.4690  142.0460 C   0  0  0  0  0  0  0  0  0  0  0  0
  187.6740  178.2500  142.0590 C   0  0  0  0  0  0  0  0  0  0  0  0
  186.2770  178.4590  139.6580 N   0  0  0  0  0  0  0  0  0  0  0  0
  185.4110  178.6210  143.1320 C   0  0  0  0  0  0  0  0  0  0  0  0
  189.8120  178.2180  143.4930 C   0  0  2  0  0  3  0  0  0  0  0  0
  183.3760  178.9720  145.0150 C   0  0  0  0  0  3  0  0  0  0  0  0
  187.5930  178.2360  139.6500 N   0  0  0  0  0  0  0  0  0  0  0  0
  184.0920  178.8350  142.7310 C   0  0  0  0  0  0  0  0  0  0  0  0
  183.0600  179.0120  143.6500 C   0  0  0  0  0  3  0  0  0  0  0  0
  189.8090  177.8280  140.7030 C   0  0  2  0  0  3  0  0  0  0  0  0
  190.2770  177.6070  139.2730 C   0  0  0  0  0  1  0  0  0  0  0  0
  188.3670  178.1550  143.3140 N   0  0  0  0  0  2  0  0  0  0  0  0
  184.7020  178.7580  145.4350 C   0  0  0  0  0  3  0  0  0  0  0  0
  185.6250  178.5700  140.8360 C   0  0  0  0  0  0  0  0  0  0  0  0
  183.9760  178.8430  141.0480 S   0  0  0  0  0  0  0  0  0  0  0  0
  190.1530  176.5990  141.5330 C   0  0  0  0  0  2  0  0  0  0  0  0
  185.7280  178.5810  144.4930 C   0  0  0  0  0  3  0  0  0  0  0  0
  190.5130  176.9590  142.9740 C   0  0  0  0  0  2  0  0  0  0  0  0
  188.3280  178.1170  140.8000 C   0  0  0  0  0  0  0  0  0  0  0  0
  190.1640  178.4900  144.9550 C   0  0  0  0  0  2  0  0  0  0  0  0
  190.8580  176.6320  146.5140 C   0  0  0  0  0  0  0  0  0  0  0  0
  190.5290  175.5780  147.3020 F   0  0  0  0  0  0  0  0  0  0  0  0
  192.0680  176.9680  146.4100 O   0  0  0  0  0  0  0  0  0  0  0  0
  188.4400  177.0800  146.1030 C   0  0  0  0  0  1  0  0  0  0  0  0
  189.8370  177.3580  145.8170 N   0  0  0  0  0  0  0  0  0  0  0  0
  1  2  1  0  0  0  0
  1  4  1  0  0  0  0
  2 12  1  0  0  0  0
  3 14  1  0  0  0  0
  4 17  1  0  0  0  0
  5 20  1  1  0  0  0
  6 13  1  0  0  0  0
  7  3  2  0  0  0  0
  7 19  1  0  0  0  0
  8  4  2  0  0  0  0
  8  9  1  0  0  0  0
  9  6  2  0  0  0  0
 10 11  1  6  0  0  0
 10 19  1  0  0  0  0
 10 16  1  0  0  0  0
 12  5  1  0  0  0  0
 14 15  1  0  0  0  0
 14  1  2  0  0  0  0
 15  8  1  0  0  0  0
 16 18  1  0  0  0  0
 17 13  2  0  0  0  0
 18  5  1  0  0  0  0
 19  2  2  0  0  0  0
 20 25  1  0  0  0  0
 21 22  1  0  0  0  0
 23 21  2  0  0  0  0
 25 24  1  0  0  0  0
 25 21  1  0  0  0  0
M  END
>  <MODEL>
3

>  <REMARK>
 VINA RESULT:      -8.9      1.664      2.461
  Name = 
  2 active torsions:
  status: ('A' for Active; 'I' for Inactive)
    1  A    between atoms: C_6  and  C_15
    2  A    between atoms: C_15  and  N_25
                            x       y       z     vdW  Elec       q    Type
                         _______ _______ _______ _____ _____    ______ ____

>  <TORSDO>
F 2

$$$$
=
 OpenBabel11052412523D

 25 28  0  0  1  0  0  0  0  0999 V2000
  185.2160  178.2660  144.3880 C   0  0  0  0  0  0  0  0  0  0  0  0
  186.4810  177.8340  144.8110 C   0  0  0  0  0  0  0  0  0  0  0  0
  184.5460  178.6280  146.6510 N   0  0  0  0  0  0  0  0  0  0  0  0
  184.7120  178.3670  143.0800 C   0  0  0  0  0  0  0  0  0  0  0  0
  188.6840  176.6940  144.1210 C   0  0  2  0  0  3  0  0  0  0  0  0
  183.3680  178.6970  140.6520 C   0  0  0  0  0  3  0  0  0  0  0  0
  185.7500  178.2350  147.0730 N   0  0  0  0  0  0  0  0  0  0  0  0
  183.3960  178.8290  143.0460 C   0  0  0  0  0  0  0  0  0  0  0  0
  182.7040  179.0020  141.8490 C   0  0  0  0  0  3  0  0  0  0  0  0
  188.0900  177.4450  146.7690 C   0  0  2  0  0  3  0  0  0  0  0  0
  188.1880  177.6380  148.2750 C   0  0  0  0  0  1  0  0  0  0  0  0
  187.4550  177.4240  143.8360 N   0  0  0  0  0  2  0  0  0  0  0  0
  184.6940  178.2300  140.6710 C   0  0  0  0  0  3  0  0  0  0  0  0
  184.2760  178.6510  145.3280 C   0  0  0  0  0  0  0  0  0  0  0  0
  182.8270  179.1200  144.6080 S   0  0  0  0  0  0  0  0  0  0  0  0
  189.1880  178.2530  146.0930 C   0  0  0  0  0  2  0  0  0  0  0  0
  185.3750  178.0620  141.8880 C   0  0  0  0  0  3  0  0  0  0  0  0
  189.7200  177.5640  144.8370 C   0  0  0  0  0  2  0  0  0  0  0  0
  186.7420  177.8410  146.2120 C   0  0  0  0  0  0  0  0  0  0  0  0
  189.2570  176.0830  142.8420 C   0  0  0  0  0  2  0  0  0  0  0  0
  191.3300  177.2700  142.0320 C   0  0  0  0  0  0  0  0  0  0  0  0
  191.9100  178.2120  141.2470 F   0  0  0  0  0  0  0  0  0  0  0  0
  192.0540  176.5590  142.7780 O   0  0  0  0  0  0  0  0  0  0  0  0
  189.1180  177.7710  140.9970 C   0  0  0  0  0  1  0  0  0  0  0  0
  189.9090  177.0820  142.0020 N   0  0  0  0  0  0  0  0  0  0  0  0
  1  2  2  0  0  0  0
  1 14  1  0  0  0  0
  2 19  1  0  0  0  0
  3  7  1  0  0  0  0
  4  1  1  0  0  0  0
  5 20  1  6  0  0  0
  5 18  1  0  0  0  0
  6 13  2  0  0  0  0
  6  9  1  0  0  0  0
  8  4  1  0  0  0  0
  8 15  1  0  0  0  0
  9  8  2  0  0  0  0
 10 11  1  1  0  0  0
 12  5  1  0  0  0  0
 12  2  1  0  0  0  0
 13 17  1  0  0  0  0
 14  3  2  0  0  0  0
 15 14  1  0  0  0  0
 16 10  1  0  0  0  0
 17  4  2  0  0  0  0
 18 16  1  0  0  0  0
 19 10  1  0  0  0  0
 19  7  2  0  0  0  0
 21 23  2  0  0  0  0
 22 21  1  0  0  0  0
 24 25  1  0  0  0  0
 25 21  1  0  0  0  0
 25 20  1  0  0  0  0
M  END
>  <MODEL>
4

>  <REMARK>
 VINA RESULT:      -8.9      2.671      5.120
  Name = 
  2 active torsions:
  status: ('A' for Active; 'I' for Inactive)
    1  A    between atoms: C_6  and  C_15
    2  A    between atoms: C_15  and  N_25
                            x       y       z     vdW  Elec       q    Type
                         _______ _______ _______ _____ _____    ______ ____

>  <TORSDO>
F 2

$$$$
=
 OpenBabel11052412523D

 25 28  0  0  1  0  0  0  0  0999 V2000
  187.7710  177.8110  145.6870 C   0  0  0  0  0  0  0  0  0  0  0  0
  187.0320  178.2240  144.5690 C   0  0  0  0  0  0  0  0  0  0  0  0
  185.8990  178.2110  147.1140 N   0  0  0  0  0  0  0  0  0  0  0  0
  189.1050  177.3730  145.7480 C   0  0  0  0  0  0  0  0  0  0  0  0
  187.1190  178.8840  142.0820 C   0  0  2  0  0  3  0  0  0  0  0  0
  191.6960  176.4640  146.2660 C   0  0  0  0  0  3  0  0  0  0  0  0
  185.1740  178.5930  146.0600 N   0  0  0  0  0  0  0  0  0  0  0  0
  189.5060  177.0530  147.0450 C   0  0  0  0  0  0  0  0  0  0  0  0
  190.7920  176.5980  147.3290 C   0  0  0  0  0  3  0  0  0  0  0  0
  184.7790  179.0220  143.6420 C   0  0  2  0  0  3  0  0  0  0  0  0
  183.3450  179.2800  144.0800 C   0  0  0  0  0  1  0  0  0  0  0  0
  187.6480  178.2260  143.2700 N   0  0  0  0  0  2  0  0  0  0  0  0
  191.3060  176.7840  144.9530 C   0  0  0  0  0  3  0  0  0  0  0  0
  187.1790  177.8190  146.9380 C   0  0  0  0  0  0  0  0  0  0  0  0
  188.2440  177.3010  148.1370 S   0  0  0  0  0  0  0  0  0  0  0  0
  184.7830  177.9450  142.5660 C   0  0  0  0  0  2  0  0  0  0  0  0
  190.0050  177.2410  144.6860 C   0  0  0  0  0  3  0  0  0  0  0  0
  185.8820  178.1710  141.5300 C   0  0  0  0  0  2  0  0  0  0  0  0
  185.6780  178.6110  144.7860 C   0  0  0  0  0  0  0  0  0  0  0  0
  188.2050  179.0250  141.0150 C   0  0  0  0  0  2  0  0  0  0  0  0
  188.0180  177.5680  138.9640 C   0  0  0  0  0  0  0  0  0  0  0  0
  188.2520  176.3880  138.3390 F   0  0  0  0  0  0  0  0  0  0  0  0
  187.4240  178.4870  138.3400 O   0  0  0  0  0  0  0  0  0  0  0  0
  189.3040  176.7740  140.9470 C   0  0  0  0  0  1  0  0  0  0  0  0
  188.4520  177.7680  140.3160 N   0  0  0  0  0  0  0  0  0  0  0  0
  1  4  1  0  0  0  0
  1 14  2  0  0  0  0
  2 19  2  0  0  0  0
  2  1  1  0  0  0  0
  4  8  1  0  0  0  0
  5 20  1  6  0  0  0
  5 12  1  0  0  0  0
  6  9  1  0  0  0  0
  7  3  2  0  0  0  0
  8  9  2  0  0  0  0
  8 15  1  0  0  0  0
 10 11  1  1  0  0  0
 10 19  1  0  0  0  0
 12  2  1  0  0  0  0
 13  6  2  0  0  0  0
 14  3  1  0  0  0  0
 14 15  1  0  0  0  0
 16 10  1  0  0  0  0
 17 13  1  0  0  0  0
 17  4  2  0  0  0  0
 18  5  1  0  0  0  0
 18 16  1  0  0  0  0
 19  7  1  0  0  0  0
 21 25  1  0  0  0  0
 22 21  1  0  0  0  0
 23 21  2  0  0  0  0
 25 24  1  0  0  0  0
 25 20  1  0  0  0  0
M  END
>  <MODEL>
5

>  <REMARK>
 VINA RESULT:      -8.9      3.425      5.498
  Name = 
  2 active torsions:
  status: ('A' for Active; 'I' for Inactive)
    1  A    between atoms: C_6  and  C_15
    2  A    between atoms: C_15  and  N_25
                            x       y       z     vdW  Elec       q    Type
                         _______ _______ _______ _____ _____    ______ ____

>  <TORSDO>
F 2

$$$$
=
 OpenBabel11052412523D

 25 28  0  0  1  0  0  0  0  0999 V2000
  187.6360  178.1050  141.8680 C   0  0  0  0  0  0  0  0  0  0  0  0
  186.8480  178.1060  143.0280 C   0  0  0  0  0  0  0  0  0  0  0  0
  185.7670  178.8060  140.5590 N   0  0  0  0  0  0  0  0  0  0  0  0
  188.9940  177.7740  141.7260 C   0  0  0  0  0  0  0  0  0  0  0  0
  186.6990  177.4110  145.5030 C   0  0  2  0  0  3  0  0  0  0  0  0
  191.6430  177.1940  141.0510 C   0  0  0  0  0  3  0  0  0  0  0  0
  185.0040  178.8280  141.6540 N   0  0  0  0  0  0  0  0  0  0  0  0
  189.4380  177.8800  140.4070 C   0  0  0  0  0  0  0  0  0  0  0  0
  190.7530  177.5960  140.0450 C   0  0  0  0  0  3  0  0  0  0  0  0
  184.5650  178.5860  144.0900 C   0  0  2  0  0  3  0  0  0  0  0  0
  183.1920  179.1410  143.7420 C   0  0  0  0  0  1  0  0  0  0  0  0
  187.4350  177.7320  144.2860 N   0  0  0  0  0  2  0  0  0  0  0  0
  191.2100  177.0820  142.3850 C   0  0  0  0  0  3  0  0  0  0  0  0
  187.0670  178.4550  140.6560 C   0  0  0  0  0  0  0  0  0  0  0  0
  188.1820  178.3750  139.3950 S   0  0  0  0  0  0  0  0  0  0  0  0
  185.1940  179.4590  145.1670 C   0  0  0  0  0  2  0  0  0  0  0  0
  189.8810  177.3730  142.7300 C   0  0  0  0  0  3  0  0  0  0  0  0
  186.0580  178.6500  146.1330 C   0  0  0  0  0  2  0  0  0  0  0  0
  185.4860  178.5000  142.8950 C   0  0  0  0  0  0  0  0  0  0  0  0
  187.5980  176.6790  146.4990 C   0  0  0  0  0  2  0  0  0  0  0  0
  188.6730  178.0660  148.3130 C   0  0  0  0  0  0  0  0  0  0  0  0
  189.6880  178.8580  148.7360 F   0  0  0  0  0  0  0  0  0  0  0  0
  187.7280  177.8020  149.1030 O   0  0  0  0  0  0  0  0  0  0  0  0
  189.8700  177.6810  146.1600 C   0  0  0  0  0  1  0  0  0  0  0  0
  188.6830  177.5280  146.9840 N   0  0  0  0  0  0  0  0  0  0  0  0
  1  2  2  0  0  0  0
  2 12  1  0  0  0  0
  3 14  2  0  0  0  0
  3  7  1  0  0  0  0
  4  1  1  0  0  0  0
  4 17  1  0  0  0  0
  5 18  1  0  0  0  0
  5 20  1  1  0  0  0
  6 13  1  0  0  0  0
  7 19  2  0  0  0  0
  8  4  2  0  0  0  0
  9  8  1  0  0  0  0
  9  6  2  0  0  0  0
 10 11  1  6  0  0  0
 10 16  1  0  0  0  0
 12  5  1  0  0  0  0
 13 17  2  0  0  0  0
 14  1  1  0  0  0  0
 15  8  1  0  0  0  0
 15 14  1  0  0  0  0
 16 18  1  0  0  0  0
 19  2  1  0  0  0  0
 19 10  1  0  0  0  0
 20 25  1  0  0  0  0
 21 22  1  0  0  0  0
 21 23  2  0  0  0  0
 24 25  1  0  0  0  0
 25 21  1  0  0  0  0
M  END
>  <MODEL>
6

>  <REMARK>
 VINA RESULT:      -8.3      2.501      5.190
  Name = 
  2 active torsions:
  status: ('A' for Active; 'I' for Inactive)
    1  A    between atoms: C_6  and  C_15
    2  A    between atoms: C_15  and  N_25
                            x       y       z     vdW  Elec       q    Type
                         _______ _______ _______ _____ _____    ______ ____

>  <TORSDO>
F 2

$$$$
=
 OpenBabel11052412523D

 25 28  0  0  1  0  0  0  0  0999 V2000
  185.8020  178.3540  144.4700 C   0  0  0  0  0  0  0  0  0  0  0  0
  186.9550  177.8890  145.1190 C   0  0  0  0  0  0  0  0  0  0  0  0
  184.6930  178.6270  146.5670 N   0  0  0  0  0  0  0  0  0  0  0  0
  185.5710  178.5160  143.0940 C   0  0  0  0  0  0  0  0  0  0  0  0
  189.2480  176.7520  144.8360 C   0  0  2  0  0  3  0  0  0  0  0  0
  184.7440  178.9650  140.4630 C   0  0  0  0  0  3  0  0  0  0  0  0
  185.7860  178.2020  147.2040 N   0  0  0  0  0  0  0  0  0  0  0  0
  184.2910  178.9950  142.8170 C   0  0  0  0  0  0  0  0  0  0  0  0
  183.8540  179.2270  141.5140 C   0  0  0  0  0  3  0  0  0  0  0  0
  188.1360  177.3980  147.3410 C   0  0  2  0  0  3  0  0  0  0  0  0
  187.9300  177.5260  148.8430 C   0  0  0  0  0  1  0  0  0  0  0  0
  188.1040  177.5080  144.3430 N   0  0  0  0  0  2  0  0  0  0  0  0
  186.0380  178.4810  140.7260 C   0  0  0  0  0  3  0  0  0  0  0  0
  184.6940  178.7100  145.2190 C   0  0  0  0  0  0  0  0  0  0  0  0
  183.4210  179.2260  144.2440 S   0  0  0  0  0  0  0  0  0  0  0  0
  189.3510  178.2210  146.9350 C   0  0  0  0  0  2  0  0  0  0  0  0
  186.4590  178.2540  142.0460 C   0  0  0  0  0  3  0  0  0  0  0  0
  190.1220  177.5790  145.7830 C   0  0  0  0  0  2  0  0  0  0  0  0
  186.9290  177.8340  146.5430 C   0  0  0  0  0  0  0  0  0  0  0  0
  190.0640  176.1890  143.6720 C   0  0  0  0  0  2  0  0  0  0  0  0
  189.9840  177.2780  141.3980 C   0  0  0  0  0  0  0  0  0  0  0  0
  190.3960  178.2530  140.5500 F   0  0  0  0  0  0  0  0  0  0  0  0
  189.1530  176.4220  140.9940 O   0  0  0  0  0  0  0  0  0  0  0  0
  191.2830  178.3350  143.2450 C   0  0  0  0  0  1  0  0  0  0  0  0
  190.4830  177.2320  142.7410 N   0  0  0  0  0  0  0  0  0  0  0  0
  1  2  2  0  0  0  0
  1 14  1  0  0  0  0
  2 19  1  0  0  0  0
  3  7  1  0  0  0  0
  4  1  1  0  0  0  0
  5 20  1  6  0  0  0
  5 18  1  0  0  0  0
  6 13  2  0  0  0  0
  6  9  1  0  0  0  0
  8  4  1  0  0  0  0
  8 15  1  0  0  0  0
  9  8  2  0  0  0  0
 10 11  1  1  0  0  0
 12  5  1  0  0  0  0
 12  2  1  0  0  0  0
 13 17  1  0  0  0  0
 14  3  2  0  0  0  0
 15 14  1  0  0  0  0
 16 10  1  0  0  0  0
 17  4  2  0  0  0  0
 18 16  1  0  0  0  0
 19  7  2  0  0  0  0
 19 10  1  0  0  0  0
 21 25  1  0  0  0  0
 22 21  1  0  0  0  0
 23 21  2  0  0  0  0
 25 24  1  0  0  0  0
 25 20  1  0  0  0  0
M  END
>  <MODEL>
7

>  <REMARK>
 VINA RESULT:      -8.1      2.737      5.247
  Name = 
  2 active torsions:
  status: ('A' for Active; 'I' for Inactive)
    1  A    between atoms: C_6  and  C_15
    2  A    between atoms: C_15  and  N_25
                            x       y       z     vdW  Elec       q    Type
                         _______ _______ _______ _____ _____    ______ ____

>  <TORSDO>
F 2

$$$$
=
 OpenBabel11052412523D

 25 28  0  0  1  0  0  0  0  0999 V2000
  188.0500  177.5150  141.8710 C   0  0  0  0  0  0  0  0  0  0  0  0
  188.3460  177.5350  140.5000 C   0  0  0  0  0  0  0  0  0  0  0  0
  190.0350  176.2650  142.3140 N   0  0  0  0  0  0  0  0  0  0  0  0
  186.9460  178.0680  142.5410 C   0  0  0  0  0  0  0  0  0  0  0  0
  187.4650  178.0570  138.1370 C   0  0  2  0  0  3  0  0  0  0  0  0
  184.9160  179.0160  144.2110 C   0  0  0  0  0  3  0  0  0  0  0  0
  190.3430  176.2870  141.0150 N   0  0  0  0  0  0  0  0  0  0  0  0
  186.9840  177.8380  143.9170 C   0  0  0  0  0  0  0  0  0  0  0  0
  185.9840  178.3000  144.7700 C   0  0  0  0  0  3  0  0  0  0  0  0
  189.9910  176.9140  138.6340 C   0  0  2  0  0  3  0  0  0  0  0  0
  191.3610  176.2870  138.4260 C   0  0  0  0  0  1  0  0  0  0  0  0
  187.4500  178.1930  139.5890 N   0  0  0  0  0  2  0  0  0  0  0  0
  184.8650  179.2550  142.8260 C   0  0  0  0  0  3  0  0  0  0  0  0
  188.9090  176.8730  142.7450 C   0  0  0  0  0  0  0  0  0  0  0  0
  188.3610  176.9570  144.3360 S   0  0  0  0  0  0  0  0  0  0  0  0
  190.0140  178.3420  138.1090 C   0  0  0  0  0  2  0  0  0  0  0  0
  185.8820  178.7810  141.9820 C   0  0  0  0  0  3  0  0  0  0  0  0
  188.6720  178.7550  137.5060 C   0  0  0  0  0  2  0  0  0  0  0  0
  189.5520  176.9030  140.0810 C   0  0  0  0  0  0  0  0  0  0  0  0
  186.1530  178.5570  137.5350 C   0  0  0  0  0  2  0  0  0  0  0  0
  184.1440  178.8610  139.0300 C   0  0  0  0  0  0  0  0  0  0  0  0
  183.0740  178.3360  139.6770 F   0  0  0  0  0  0  0  0  0  0  0  0
  184.3790  180.0940  139.1300 O   0  0  0  0  0  0  0  0  0  0  0  0
  184.5910  176.6470  137.9740 C   0  0  0  0  0  1  0  0  0  0  0  0
  184.9890  178.0200  138.2340 N   0  0  0  0  0  0  0  0  0  0  0  0
  1  4  1  0  0  0  0
  1 14  2  0  0  0  0
  2  1  1  0  0  0  0
  3 14  1  0  0  0  0
  4  8  1  0  0  0  0
  5 20  1  6  0  0  0
  5 12  1  0  0  0  0
  6  9  1  0  0  0  0
  7  3  2  0  0  0  0
  8 15  1  0  0  0  0
  8  9  2  0  0  0  0
 10 11  1  1  0  0  0
 10 19  1  0  0  0  0
 12  2  1  0  0  0  0
 13  6  2  0  0  0  0
 14 15  1  0  0  0  0
 16 10  1  0  0  0  0
 17  4  2  0  0  0  0
 17 13  1  0  0  0  0
 18 16  1  0  0  0  0
 18  5  1  0  0  0  0
 19  2  2  0  0  0  0
 19  7  1  0  0  0  0
 20 25  1  0  0  0  0
 21 23  2  0  0  0  0
 21 22  1  0  0  0  0
 24 25  1  0  0  0  0
 25 21  1  0  0  0  0
M  END
>  <MODEL>
8

>  <REMARK>
 VINA RESULT:      -8.0      3.398      5.300
  Name = 
  2 active torsions:
  status: ('A' for Active; 'I' for Inactive)
    1  A    between atoms: C_6  and  C_15
    2  A    between atoms: C_15  and  N_25
                            x       y       z     vdW  Elec       q    Type
                         _______ _______ _______ _____ _____    ______ ____

>  <TORSDO>
F 2

$$$$
=
 OpenBabel11052412523D

 25 28  0  0  1  0  0  0  0  0999 V2000
  186.2960  178.1850  145.0280 C   0  0  0  0  0  0  0  0  0  0  0  0
  185.3950  178.4300  143.9810 C   0  0  0  0  0  0  0  0  0  0  0  0
  184.6270  178.7460  146.6400 N   0  0  0  0  0  0  0  0  0  0  0  0
  187.6400  177.7800  144.9560 C   0  0  0  0  0  0  0  0  0  0  0  0
  185.1150  178.7480  141.4410 C   0  0  2  0  0  3  0  0  0  0  0  0
  190.3070  176.9900  145.2180 C   0  0  0  0  0  3  0  0  0  0  0  0
  183.7500  178.9700  145.6580 N   0  0  0  0  0  0  0  0  0  0  0  0
  188.2270  177.6450  146.2150 C   0  0  0  0  0  0  0  0  0  0  0  0
  189.5550  177.2530  146.3710 C   0  0  0  0  0  3  0  0  0  0  0  0
  183.0090  179.0600  143.2850 C   0  0  2  0  0  3  0  0  0  0  0  0
  181.6420  179.3530  143.8830 C   0  0  0  0  0  1  0  0  0  0  0  0
  185.8250  178.2660  142.6190 N   0  0  0  0  0  2  0  0  0  0  0  0
  189.7280  177.1220  143.9430 C   0  0  0  0  0  3  0  0  0  0  0  0
  185.8830  178.3540  146.3370 C   0  0  0  0  0  0  0  0  0  0  0  0
  187.1200  178.0190  147.4320 S   0  0  0  0  0  0  0  0  0  0  0  0
  182.9020  177.8470  142.3720 C   0  0  0  0  0  2  0  0  0  0  0  0
  188.3880  177.5180  143.8050 C   0  0  0  0  0  3  0  0  0  0  0  0
  183.8390  177.9470  141.1690 C   0  0  0  0  0  2  0  0  0  0  0  0
  184.0720  178.8220  144.3340 C   0  0  0  0  0  0  0  0  0  0  0  0
  186.0380  178.7590  140.2230 C   0  0  0  0  0  2  0  0  0  0  0  0
  185.6030  177.8680  137.9030 C   0  0  0  0  0  0  0  0  0  0  0  0
  184.8980  177.9080  136.7450 F   0  0  0  0  0  0  0  0  0  0  0  0
  186.5270  177.0210  138.0330 O   0  0  0  0  0  0  0  0  0  0  0  0
  184.1010  179.6040  138.8760 C   0  0  0  0  0  1  0  0  0  0  0  0
  185.2900  178.7740  138.9690 N   0  0  0  0  0  0  0  0  0  0  0  0
  1 14  2  0  0  0  0
  2 19  2  0  0  0  0
  2  1  1  0  0  0  0
  4  1  1  0  0  0  0
  4  8  1  0  0  0  0
  5 20  1  6  0  0  0
  5 12  1  0  0  0  0
  6  9  1  0  0  0  0
  7  3  2  0  0  0  0
  8  9  2  0  0  0  0
  8 15  1  0  0  0  0
 10 11  1  1  0  0  0
 10 19  1  0  0  0  0
 12  2  1  0  0  0  0
 13  6  2  0  0  0  0
 14  3  1  0  0  0  0
 14 15  1  0  0  0  0
 16 10  1  0  0  0  0
 17 13  1  0  0  0  0
 17  4  2  0  0  0  0
 18  5  1  0  0  0  0
 18 16  1  0  0  0  0
 19  7  1  0  0  0  0
 21 23  2  0  0  0  0
 21 25  1  0  0  0  0
 22 21  1  0  0  0  0
 24 25  1  0  0  0  0
 25 20  1  0  0  0  0
M  END
>  <MODEL>
9

>  <REMARK>
 VINA RESULT:      -8.0      3.893      6.311
  Name = 
  2 active torsions:
  status: ('A' for Active; 'I' for Inactive)
    1  A    between atoms: C_6  and  C_15
    2  A    between atoms: C_15  and  N_25
                            x       y       z     vdW  Elec       q    Type
                         _______ _______ _______ _____ _____    ______ ____

>  <TORSDO>
F 2

$$$$
