=
 OpenBabel11052416073D

 43 48  0  0  1  0  0  0  0  0999 V2000
  191.7350  176.2600  147.2530 C   0  0  0  0  0  0  0  0  0  0  0  0
  188.9160  177.0340  143.1620 C   0  0  0  0  0  0  0  0  0  0  0  0
  186.4330  178.0190  144.0500 C   0  0  0  0  0  0  0  0  0  0  0  0
  190.9050  176.3670  144.9830 C   0  0  0  0  0  0  0  0  0  0  0  0
  190.5450  176.8300  147.7180 C   0  0  0  0  0  3  0  0  0  0  0  0
  192.8080  175.8970  148.2150 C   0  0  0  0  0  1  0  0  0  0  0  0
  189.7030  176.9460  145.4470 C   0  0  0  0  0  0  0  0  0  0  0  0
  191.9150  176.0260  145.8860 C   0  0  0  0  0  3  0  0  0  0  0  0
  189.5310  177.1720  146.8180 C   0  0  0  0  0  3  0  0  0  0  0  0
  187.4840  177.8140  144.9480 O   0  0  0  0  0  0  0  0  0  0  0  0
  188.7000  177.2740  144.5260 C   0  0  0  0  0  0  0  0  0  0  0  0
  190.0850  176.4760  142.7440 N   0  0  0  0  0  0  0  0  0  0  0  0
  187.8790  177.4500  142.1540 C   0  0  1  0  0  3  0  0  0  0  0  0
  186.6000  177.8180  142.7760 N   0  0  0  0  0  0  0  0  0  0  0  0
  191.0710  176.1380  143.6170 C   0  0  0  0  0  3  0  0  0  0  0  0
  185.1020  178.4700  144.5470 C   0  0  1  0  0  3  0  0  0  0  0  0
  185.2250  179.0010  145.9640 C   0  0  0  0  0  1  0  0  0  0  0  0
  184.5500  179.5440  143.6230 C   0  0  0  0  0  2  0  0  0  0  0  0
  183.1880  179.2170  143.2150 N   0  0  0  0  0  0  0  0  0  0  0  0
  182.4920  178.6280  144.3520 C   0  0  0  0  0  1  0  0  0  0  0  0
  183.2140  178.2590  142.1020 C   0  0  0  0  0  2  0  0  0  0  0  0
  182.4590  178.7320  140.8550 C   0  0  2  0  0  3  0  0  0  0  0  0
  180.7420  177.5260  139.6420 C   0  0  0  0  0  2  0  0  0  0  0  0
  181.1380  179.1720  141.2080 N   0  0  0  0  0  0  0  0  0  0  0  0
  182.2430  177.5560  139.9090 C   0  0  1  0  0  3  0  0  0  0  0  0
  180.2170  178.5510  140.5800 C   0  0  0  0  0  3  0  0  0  0  0  0
  183.4450  176.6050  137.8710 N   0  0  0  0  0  0  0  0  0  0  0  0
  183.0170  177.7420  138.6370 C   0  0  0  0  0  0  0  0  0  0  0  0
  184.4790  175.2590  135.7100 S   0  0  0  0  0  0  0  0  0  0  0  0
  182.3280  174.4760  137.2960 C   0  0  0  0  0  2  0  0  0  0  0  0
  182.7220  174.7930  135.8510 C   0  0  0  0  0  2  0  0  0  0  0  0
  183.1410  175.2510  138.3350 C   0  0  0  0  0  2  0  0  0  0  0  0
  184.2120  176.8140  136.6380 C   0  0  0  0  0  2  0  0  0  0  0  0
  183.2990  178.9080  138.2470 O   0  0  0  0  0  0  0  0  0  0  0  0
  188.4100  178.6250  141.3370 C   0  0  0  0  0  2  0  0  0  0  0  0
  187.6240  177.8870  137.7050 C   0  0  0  0  0  3  0  0  0  0  0  0
  188.8790  177.5160  137.2120 C   0  0  0  0  0  0  0  0  0  0  0  0
  189.8350  177.8770  139.4170 C   0  0  0  0  0  3  0  0  0  0  0  0
  187.4720  178.2520  139.0470 C   0  0  0  0  0  3  0  0  0  0  0  0
  188.5790  178.2510  139.9030 C   0  0  0  0  0  0  0  0  0  0  0  0
  189.9870  177.5120  138.0760 C   0  0  0  0  0  3  0  0  0  0  0  0
  187.8730  176.9770  135.0180 C   0  0  0  0  0  1  0  0  0  0  0  0
  188.9970  177.1560  135.8670 O   0  0  0  0  0  0  0  0  0  0  0  0
  1  5  1  0  0  0  0
  1  6  1  0  0  0  0
  2 11  1  0  0  0  0
  3 16  1  0  0  0  0
  3 10  1  0  0  0  0
  4  7  1  0  0  0  0
  4  8  1  0  0  0  0
  7  9  1  0  0  0  0
  8  1  2  0  0  0  0
  9  5  2  0  0  0  0
 11 10  1  0  0  0  0
 11  7  2  0  0  0  0
 12  2  2  0  0  0  0
 12 15  1  0  0  0  0
 13 35  1  1  0  0  0
 13 14  1  0  0  0  0
 13  2  1  0  0  0  0
 14  3  2  0  0  0  0
 15  4  2  0  0  0  0
 16 17  1  1  0  0  0
 18 16  1  0  0  0  0
 19 18  1  0  0  0  0
 19 20  1  0  0  0  0
 21 19  1  0  0  0  0
 22 24  1  0  0  0  0
 22 21  1  1  0  0  0
 23 25  1  0  0  0  0
 23 26  1  0  0  0  0
 25 28  1  6  0  0  0
 25 22  1  0  0  0  0
 26 24  2  0  0  0  0
 27 32  1  0  0  0  0
 27 28  1  0  0  0  0
 29 31  1  0  0  0  0
 29 33  1  0  0  0  0
 30 32  1  0  0  0  0
 31 30  1  0  0  0  0
 33 27  1  0  0  0  0
 34 28  2  0  0  0  0
 36 39  1  0  0  0  0
 37 36  2  0  0  0  0
 37 41  1  0  0  0  0
 38 40  1  0  0  0  0
 39 40  2  0  0  0  0
 40 35  1  0  0  0  0
 41 38  2  0  0  0  0
 42 43  1  0  0  0  0
 43 37  1  0  0  0  0
M  END
>  <MODEL>
1

>  <REMARK>
 VINA RESULT:      -9.3      0.000      0.000
  Name = 
  9 active torsions:
  status: ('A' for Active; 'I' for Inactive)
    1  A    between atoms: C_1  and  C_34
    2  A    between atoms: C_1  and  C_35
    3  A    between atoms: C_2  and  C_6
    4  A    between atoms: C_2  and  C_13
    5  A    between atoms: C_3  and  C_4
    6  A    between atoms: C_3  and  N_12
    7  A    between atoms: C_6  and  N_12
    8  A    between atoms: C_14  and  C_22
    9  A    between atoms: C_19  and  O_37
                            x       y       z     vdW  Elec       q    Type
                         _______ _______ _______ _____ _____    ______ ____

>  <TORSDO>
F 9

$$$$
=
 OpenBabel11052416073D

 43 48  0  0  1  0  0  0  0  0999 V2000
  187.6380  177.6930  147.1710 C   0  0  0  0  0  0  0  0  0  0  0  0
  185.5490  178.8350  142.7410 C   0  0  0  0  0  0  0  0  0  0  0  0
  187.4810  178.3100  140.7620 C   0  0  0  0  0  0  0  0  0  0  0  0
  186.1330  178.4380  145.4270 C   0  0  0  0  0  0  0  0  0  0  0  0
  188.5850  177.3400  146.2040 C   0  0  0  0  0  3  0  0  0  0  0  0
  187.9350  177.4870  148.6110 C   0  0  0  0  0  1  0  0  0  0  0  0
  187.0860  178.0800  144.4480 C   0  0  0  0  0  0  0  0  0  0  0  0
  186.4120  178.2440  146.7830 C   0  0  0  0  0  3  0  0  0  0  0  0
  188.3120  177.5330  144.8470 C   0  0  0  0  0  3  0  0  0  0  0  0
  187.7190  177.9820  142.1000 O   0  0  0  0  0  0  0  0  0  0  0  0
  186.7900  178.2880  143.0960 C   0  0  0  0  0  0  0  0  0  0  0  0
  184.6490  179.1700  143.7060 N   0  0  0  0  0  0  0  0  0  0  0  0
  185.1870  178.9950  141.2890 C   0  0  1  0  0  3  0  0  0  0  0  0
  186.3370  178.8080  140.3950 N   0  0  0  0  0  0  0  0  0  0  0  0
  184.9150  178.9880  145.0280 C   0  0  0  0  0  3  0  0  0  0  0  0
  188.5430  178.0940  139.7390 C   0  0  1  0  0  3  0  0  0  0  0  0
  189.7260  177.3680  140.3570 C   0  0  0  0  0  1  0  0  0  0  0  0
  187.9770  177.2930  138.5770 C   0  0  0  0  0  2  0  0  0  0  0  0
  188.8820  177.3390  137.4340 N   0  0  0  0  0  0  0  0  0  0  0  0
  188.8100  178.6680  136.8400 C   0  0  0  0  0  1  0  0  0  0  0  0
  188.4870  176.3330  136.4400 C   0  0  0  0  0  2  0  0  0  0  0  0
  188.1850  174.9530  137.0360 C   0  0  2  0  0  3  0  0  0  0  0  0
  187.5630  172.9460  135.8290 C   0  0  0  0  0  2  0  0  0  0  0  0
  189.3020  174.0710  136.8420 N   0  0  0  0  0  0  0  0  0  0  0  0
  187.0350  174.3060  136.2730 C   0  0  1  0  0  3  0  0  0  0  0  0
  188.9970  173.0050  136.2100 C   0  0  0  0  0  3  0  0  0  0  0  0
  184.7520  175.1090  137.0770 N   0  0  0  0  0  0  0  0  0  0  0  0
  185.8270  174.1580  137.1510 C   0  0  0  0  0  0  0  0  0  0  0  0
  182.2500  176.1370  137.5620 S   0  0  0  0  0  0  0  0  0  0  0  0
  183.6650  176.2400  135.1660 C   0  0  0  0  0  2  0  0  0  0  0  0
  182.3470  175.7610  135.7800 C   0  0  0  0  0  2  0  0  0  0  0  0
  184.8350  176.2400  136.1530 C   0  0  0  0  0  2  0  0  0  0  0  0
  183.5880  174.9500  137.9560 C   0  0  0  0  0  2  0  0  0  0  0  0
  185.7620  173.1960  137.9640 O   0  0  0  0  0  0  0  0  0  0  0  0
  184.0880  178.0000  140.9290 C   0  0  0  0  0  2  0  0  0  0  0  0
  181.7590  180.1390  138.8430 C   0  0  0  0  0  3  0  0  0  0  0  0
  180.5660  180.0530  139.5690 C   0  0  0  0  0  0  0  0  0  0  0  0
  181.6730  178.6130  141.1860 C   0  0  0  0  0  3  0  0  0  0  0  0
  182.9040  179.4670  139.2840 C   0  0  0  0  0  3  0  0  0  0  0  0
  182.8600  178.7010  140.4530 C   0  0  0  0  0  0  0  0  0  0  0  0
  180.5280  179.2850  140.7460 C   0  0  0  0  0  3  0  0  0  0  0  0
  179.2040  182.1090  139.3800 C   0  0  0  0  0  1  0  0  0  0  0  0
  179.4390  180.7350  139.1030 O   0  0  0  0  0  0  0  0  0  0  0  0
  1  6  1  0  0  0  0
  2 11  2  0  0  0  0
  2 12  1  0  0  0  0
  3 10  1  0  0  0  0
  4  8  2  0  0  0  0
  5  1  2  0  0  0  0
  7  9  2  0  0  0  0
  7  4  1  0  0  0  0
  8  1  1  0  0  0  0
  9  5  1  0  0  0  0
 10 11  1  0  0  0  0
 11  7  1  0  0  0  0
 12 15  2  0  0  0  0
 13 35  1  6  0  0  0
 13  2  1  0  0  0  0
 14  3  2  0  0  0  0
 14 13  1  0  0  0  0
 15  4  1  0  0  0  0
 16 17  1  1  0  0  0
 16  3  1  0  0  0  0
 18 16  1  0  0  0  0
 19 18  1  0  0  0  0
 20 19  1  0  0  0  0
 21 19  1  0  0  0  0
 22 21  1  6  0  0  0
 23 26  1  0  0  0  0
 23 25  1  0  0  0  0
 24 22  1  0  0  0  0
 25 22  1  0  0  0  0
 25 28  1  1  0  0  0
 26 24  2  0  0  0  0
 27 28  1  0  0  0  0
 27 33  1  0  0  0  0
 28 34  2  0  0  0  0
 29 33  1  0  0  0  0
 30 31  1  0  0  0  0
 30 32  1  0  0  0  0
 31 29  1  0  0  0  0
 32 27  1  0  0  0  0
 36 39  2  0  0  0  0
 36 37  1  0  0  0  0
 37 41  2  0  0  0  0
 39 40  1  0  0  0  0
 40 35  1  0  0  0  0
 40 38  2  0  0  0  0
 41 38  1  0  0  0  0
 43 42  1  0  0  0  0
 43 37  1  0  0  0  0
M  END
>  <MODEL>
2

>  <REMARK>
 VINA RESULT:      -9.2      2.569      6.409
  Name = 
  9 active torsions:
  status: ('A' for Active; 'I' for Inactive)
    1  A    between atoms: C_1  and  C_34
    2  A    between atoms: C_1  and  C_35
    3  A    between atoms: C_2  and  C_6
    4  A    between atoms: C_2  and  C_13
    5  A    between atoms: C_3  and  C_4
    6  A    between atoms: C_3  and  N_12
    7  A    between atoms: C_6  and  N_12
    8  A    between atoms: C_14  and  C_22
    9  A    between atoms: C_19  and  O_37
                            x       y       z     vdW  Elec       q    Type
                         _______ _______ _______ _____ _____    ______ ____

>  <TORSDO>
F 9

$$$$
=
 OpenBabel11052416073D

 43 48  0  0  1  0  0  0  0  0999 V2000
  191.5510  176.2660  146.9700 C   0  0  0  0  0  0  0  0  0  0  0  0
  187.7830  178.0300  144.1450 C   0  0  0  0  0  0  0  0  0  0  0  0
  188.6990  178.0690  141.4840 C   0  0  0  0  0  0  0  0  0  0  0  0
  189.4490  177.1870  146.2020 C   0  0  0  0  0  0  0  0  0  0  0  0
  192.0020  176.1900  145.6480 C   0  0  0  0  0  3  0  0  0  0  0  0
  192.4300  175.8190  148.0810 C   0  0  0  0  0  1  0  0  0  0  0  0
  189.8990  177.1090  144.8660 C   0  0  0  0  0  0  0  0  0  0  0  0
  190.2740  176.7660  147.2470 C   0  0  0  0  0  3  0  0  0  0  0  0
  191.1810  176.6110  144.5980 C   0  0  0  0  0  3  0  0  0  0  0  0
  189.4820  177.5160  142.5020 O   0  0  0  0  0  0  0  0  0  0  0  0
  189.0600  177.5420  143.8330 C   0  0  0  0  0  0  0  0  0  0  0  0
  187.3740  178.0920  145.4430 N   0  0  0  0  0  0  0  0  0  0  0  0
  186.8410  178.4290  143.0410 C   0  0  1  0  0  3  0  0  0  0  0  0
  187.5060  178.5210  141.7350 N   0  0  0  0  0  0  0  0  0  0  0  0
  188.1730  177.6880  146.4660 C   0  0  0  0  0  3  0  0  0  0  0  0
  189.2310  178.1490  140.0930 C   0  0  1  0  0  3  0  0  0  0  0  0
  190.1970  177.0060  139.8360 C   0  0  0  0  0  1  0  0  0  0  0  0
  188.0780  178.1020  139.1040 C   0  0  0  0  0  2  0  0  0  0  0  0
  188.4750  177.4020  137.8880 N   0  0  0  0  0  0  0  0  0  0  0  0
  188.3630  178.3240  136.7650 C   0  0  0  0  0  1  0  0  0  0  0  0
  187.5980  176.2450  137.6640 C   0  0  0  0  0  2  0  0  0  0  0  0
  188.1030  175.2810  136.5840 C   0  0  2  0  0  3  0  0  0  0  0  0
  189.4660  173.3050  136.9130 C   0  0  0  0  0  2  0  0  0  0  0  0
  187.3180  174.0780  136.5850 N   0  0  0  0  0  0  0  0  0  0  0  0
  189.5190  174.8290  136.9210 C   0  0  1  0  0  3  0  0  0  0  0  0
  188.0160  173.0230  136.7550 C   0  0  0  0  0  3  0  0  0  0  0  0
  191.8900  175.4810  136.2470 N   0  0  0  0  0  0  0  0  0  0  0  0
  190.5000  175.3430  135.9100 C   0  0  0  0  0  0  0  0  0  0  0  0
  194.5680  175.9010  135.8000 S   0  0  0  0  0  0  0  0  0  0  0  0
  193.4340  174.0450  137.5380 C   0  0  0  0  0  2  0  0  0  0  0  0
  194.3720  174.1690  136.3350 C   0  0  0  0  0  2  0  0  0  0  0  0
  192.3580  175.1320  137.5880 C   0  0  0  0  0  2  0  0  0  0  0  0
  192.8270  175.9990  135.2440 C   0  0  0  0  0  2  0  0  0  0  0  0
  190.0960  175.6650  134.7590 O   0  0  0  0  0  0  0  0  0  0  0  0
  185.6960  177.4240  142.9660 C   0  0  0  0  0  2  0  0  0  0  0  0
  182.6140  179.2860  144.1430 C   0  0  0  0  0  3  0  0  0  0  0  0
  181.8700  179.3810  142.9620 C   0  0  0  0  0  0  0  0  0  0  0  0
  183.6330  178.2010  141.7750 C   0  0  0  0  0  3  0  0  0  0  0  0
  183.8610  178.6530  144.1430 C   0  0  0  0  0  3  0  0  0  0  0  0
  184.3730  178.1130  142.9580 C   0  0  0  0  0  0  0  0  0  0  0  0
  182.3870  178.8340  141.7750 C   0  0  0  0  0  3  0  0  0  0  0  0
  179.4120  179.3230  143.2320 C   0  0  0  0  0  1  0  0  0  0  0  0
  180.6270  180.0190  142.9950 O   0  0  0  0  0  0  0  0  0  0  0  0
  1  8  1  0  0  0  0
  1  6  1  0  0  0  0
  2 12  1  0  0  0  0
  3 14  2  0  0  0  0
  3 10  1  0  0  0  0
  4 15  1  0  0  0  0
  4  8  2  0  0  0  0
  5  1  2  0  0  0  0
  7  4  1  0  0  0  0
  9  7  2  0  0  0  0
  9  5  1  0  0  0  0
 10 11  1  0  0  0  0
 11  2  2  0  0  0  0
 11  7  1  0  0  0  0
 12 15  2  0  0  0  0
 13 35  1  6  0  0  0
 13  2  1  0  0  0  0
 14 13  1  0  0  0  0
 16 17  1  6  0  0  0
 16  3  1  0  0  0  0
 18 16  1  0  0  0  0
 19 18  1  0  0  0  0
 20 19  1  0  0  0  0
 21 19  1  0  0  0  0
 22 24  1  0  0  0  0
 22 25  1  0  0  0  0
 22 21  1  1  0  0  0
 23 25  1  0  0  0  0
 24 26  2  0  0  0  0
 25 28  1  6  0  0  0
 26 23  1  0  0  0  0
 27 32  1  0  0  0  0
 28 27  1  0  0  0  0
 29 31  1  0  0  0  0
 30 32  1  0  0  0  0
 31 30  1  0  0  0  0
 33 29  1  0  0  0  0
 33 27  1  0  0  0  0
 34 28  2  0  0  0  0
 36 39  1  0  0  0  0
 37 43  1  0  0  0  0
 37 36  2  0  0  0  0
 38 40  1  0  0  0  0
 40 35  1  0  0  0  0
 40 39  2  0  0  0  0
 41 38  2  0  0  0  0
 41 37  1  0  0  0  0
 43 42  1  0  0  0  0
M  END
>  <MODEL>
3

>  <REMARK>
 VINA RESULT:      -9.2      3.170      7.168
  Name = 
  9 active torsions:
  status: ('A' for Active; 'I' for Inactive)
    1  A    between atoms: C_1  and  C_34
    2  A    between atoms: C_1  and  C_35
    3  A    between atoms: C_2  and  C_6
    4  A    between atoms: C_2  and  C_13
    5  A    between atoms: C_3  and  C_4
    6  A    between atoms: C_3  and  N_12
    7  A    between atoms: C_6  and  N_12
    8  A    between atoms: C_14  and  C_22
    9  A    between atoms: C_19  and  O_37
                            x       y       z     vdW  Elec       q    Type
                         _______ _______ _______ _____ _____    ______ ____

>  <TORSDO>
F 9

$$$$
=
 OpenBabel11052416073D

 43 48  0  0  1  0  0  0  0  0999 V2000
  184.4180  178.9560  143.6600 C   0  0  0  0  0  0  0  0  0  0  0  0
  188.8680  176.8260  142.6830 C   0  0  0  0  0  0  0  0  0  0  0  0
  189.3980  177.2460  139.9510 C   0  0  0  0  0  0  0  0  0  0  0  0
  186.5060  177.7430  143.8230 C   0  0  0  0  0  0  0  0  0  0  0  0
  184.6950  179.2560  142.3220 C   0  0  0  0  0  3  0  0  0  0  0  0
  183.1600  179.4380  144.2830 C   0  0  0  0  0  1  0  0  0  0  0  0
  186.7910  178.0470  142.4730 C   0  0  0  0  0  0  0  0  0  0  0  0
  185.3230  178.1970  144.4100 C   0  0  0  0  0  3  0  0  0  0  0  0
  185.8780  178.8030  141.7290 C   0  0  0  0  0  3  0  0  0  0  0  0
  188.2800  177.8240  140.5600 O   0  0  0  0  0  0  0  0  0  0  0  0
  187.9790  177.5760  141.9010 C   0  0  0  0  0  0  0  0  0  0  0  0
  188.5680  176.5500  143.9820 N   0  0  0  0  0  0  0  0  0  0  0  0
  190.1830  176.3780  142.1050 C   0  0  1  0  0  3  0  0  0  0  0  0
  190.2500  176.5540  140.6480 N   0  0  0  0  0  0  0  0  0  0  0  0
  187.4160  176.9850  144.5600 C   0  0  0  0  0  3  0  0  0  0  0  0
  189.6230  177.4170  138.4870 C   0  0  1  0  0  3  0  0  0  0  0  0
  190.9710  176.8380  138.0940 C   0  0  0  0  0  1  0  0  0  0  0  0
  188.5060  176.7340  137.7160 C   0  0  0  0  0  2  0  0  0  0  0  0
  187.7060  177.7170  136.9950 N   0  0  0  0  0  0  0  0  0  0  0  0
  188.4930  178.9340  136.8440 C   0  0  0  0  0  1  0  0  0  0  0  0
  186.4790  178.0150  137.7460 C   0  0  0  0  0  2  0  0  0  0  0  0
  185.3360  177.0250  137.4910 C   0  0  2  0  0  3  0  0  0  0  0  0
  183.3440  177.4040  136.1650 C   0  0  0  0  0  2  0  0  0  0  0  0
  185.4490  176.4620  136.1750 N   0  0  0  0  0  0  0  0  0  0  0  0
  184.0050  177.7680  137.4900 C   0  0  1  0  0  3  0  0  0  0  0  0
  184.4100  176.6480  135.4580 C   0  0  0  0  0  3  0  0  0  0  0  0
  182.4790  178.3280  139.4540 N   0  0  0  0  0  0  0  0  0  0  0  0
  183.1560  177.3470  138.6530 C   0  0  0  0  0  0  0  0  0  0  0  0
  180.7270  179.2690  141.3510 S   0  0  0  0  0  0  0  0  0  0  0  0
  181.2670  180.4010  138.8650 C   0  0  0  0  0  2  0  0  0  0  0  0
  180.1310  179.8460  139.7270 C   0  0  0  0  0  2  0  0  0  0  0  0
  182.6230  179.7520  139.1490 C   0  0  0  0  0  2  0  0  0  0  0  0
  181.6650  177.8910  140.5940 C   0  0  0  0  0  2  0  0  0  0  0  0
  183.0470  176.1210  138.9310 O   0  0  0  0  0  0  0  0  0  0  0  0
  191.3180  177.1520  142.7690 C   0  0  0  0  0  2  0  0  0  0  0  0
  191.6650  177.0300  146.5390 C   0  0  0  0  0  3  0  0  0  0  0  0
  192.1040  175.7170  146.7430 C   0  0  0  0  0  0  0  0  0  0  0  0
  192.0220  175.3350  144.3440 C   0  0  0  0  0  3  0  0  0  0  0  0
  191.4050  177.4950  145.2460 C   0  0  0  0  0  3  0  0  0  0  0  0
  191.5800  176.6470  144.1480 C   0  0  0  0  0  0  0  0  0  0  0  0
  192.2820  174.8690  145.6360 C   0  0  0  0  0  3  0  0  0  0  0  0
  193.1800  176.0030  148.9510 C   0  0  0  0  0  1  0  0  0  0  0  0
  192.3560  175.2820  148.0470 O   0  0  0  0  0  0  0  0  0  0  0  0
  1  6  1  0  0  0  0
  1  8  1  0  0  0  0
  2 12  1  0  0  0  0
  3 10  1  0  0  0  0
  3 14  2  0  0  0  0
  4  8  2  0  0  0  0
  4 15  1  0  0  0  0
  5  1  2  0  0  0  0
  7  4  1  0  0  0  0
  9  5  1  0  0  0  0
  9  7  2  0  0  0  0
 10 11  1  0  0  0  0
 11  7  1  0  0  0  0
 11  2  2  0  0  0  0
 12 15  2  0  0  0  0
 13  2  1  0  0  0  0
 13 35  1  1  0  0  0
 14 13  1  0  0  0  0
 16 17  1  6  0  0  0
 16  3  1  0  0  0  0
 18 16  1  0  0  0  0
 19 18  1  0  0  0  0
 19 21  1  0  0  0  0
 20 19  1  0  0  0  0
 22 21  1  6  0  0  0
 23 25  1  0  0  0  0
 24 22  1  0  0  0  0
 25 22  1  0  0  0  0
 25 28  1  1  0  0  0
 26 23  1  0  0  0  0
 26 24  2  0  0  0  0
 27 33  1  0  0  0  0
 28 34  2  0  0  0  0
 28 27  1  0  0  0  0
 30 32  1  0  0  0  0
 30 31  1  0  0  0  0
 31 29  1  0  0  0  0
 32 27  1  0  0  0  0
 33 29  1  0  0  0  0
 35 40  1  0  0  0  0
 36 37  1  0  0  0  0
 37 43  1  0  0  0  0
 38 41  1  0  0  0  0
 39 36  2  0  0  0  0
 40 38  2  0  0  0  0
 40 39  1  0  0  0  0
 41 37  2  0  0  0  0
 43 42  1  0  0  0  0
M  END
>  <MODEL>
4

>  <REMARK>
 VINA RESULT:      -9.1      2.293      6.888
  Name = 
  9 active torsions:
  status: ('A' for Active; 'I' for Inactive)
    1  A    between atoms: C_1  and  C_34
    2  A    between atoms: C_1  and  C_35
    3  A    between atoms: C_2  and  C_6
    4  A    between atoms: C_2  and  C_13
    5  A    between atoms: C_3  and  C_4
    6  A    between atoms: C_3  and  N_12
    7  A    between atoms: C_6  and  N_12
    8  A    between atoms: C_14  and  C_22
    9  A    between atoms: C_19  and  O_37
                            x       y       z     vdW  Elec       q    Type
                         _______ _______ _______ _____ _____    ______ ____

>  <TORSDO>
F 9

$$$$
=
 OpenBabel11052416073D

 43 48  0  0  1  0  0  0  0  0999 V2000
  187.5870  177.7520  147.3150 C   0  0  0  0  0  0  0  0  0  0  0  0
  185.2970  178.8540  142.9750 C   0  0  0  0  0  0  0  0  0  0  0  0
  187.1690  178.4040  140.9220 C   0  0  0  0  0  0  0  0  0  0  0  0
  185.9950  178.4590  145.6350 C   0  0  0  0  0  0  0  0  0  0  0  0
  188.5080  177.4350  146.3110 C   0  0  0  0  0  3  0  0  0  0  0  0
  187.9450  177.5460  148.7420 C   0  0  0  0  0  1  0  0  0  0  0  0
  186.9210  178.1380  144.6190 C   0  0  0  0  0  0  0  0  0  0  0  0
  186.3310  178.2650  146.9780 C   0  0  0  0  0  3  0  0  0  0  0  0
  188.1780  177.6280  144.9660 C   0  0  0  0  0  3  0  0  0  0  0  0
  187.4680  178.0750  142.2470 O   0  0  0  0  0  0  0  0  0  0  0  0
  186.5680  178.3450  143.2790 C   0  0  0  0  0  0  0  0  0  0  0  0
  184.4250  179.1530  143.9770 N   0  0  0  0  0  0  0  0  0  0  0  0
  184.8760  179.0120  141.5400 C   0  0  1  0  0  3  0  0  0  0  0  0
  185.9980  178.8670  140.6010 N   0  0  0  0  0  0  0  0  0  0  0  0
  184.7450  178.9720  145.2860 C   0  0  0  0  0  3  0  0  0  0  0  0
  188.1990  178.2290  139.8580 C   0  0  1  0  0  3  0  0  0  0  0  0
  189.1930  177.1550  140.2640 C   0  0  0  0  0  1  0  0  0  0  0  0
  187.5210  177.8580  138.5490 C   0  0  0  0  0  2  0  0  0  0  0  0
  188.4590  177.9670  137.4370 N   0  0  0  0  0  0  0  0  0  0  0  0
  188.9990  179.3210  137.4190 C   0  0  0  0  0  1  0  0  0  0  0  0
  187.7700  177.6940  136.1690 C   0  0  0  0  0  2  0  0  0  0  0  0
  187.9740  176.2690  135.6430 C   0  0  2  0  0  3  0  0  0  0  0  0
  188.3780  174.2720  136.9550 C   0  0  0  0  0  2  0  0  0  0  0  0
  186.7790  175.4940  135.8270 N   0  0  0  0  0  0  0  0  0  0  0  0
  189.0360  175.5620  136.4770 C   0  0  1  0  0  3  0  0  0  0  0  0
  186.9690  174.4350  136.5150 C   0  0  0  0  0  3  0  0  0  0  0  0
  191.5440  175.7680  136.0660 N   0  0  0  0  0  0  0  0  0  0  0  0
  190.2590  175.2750  135.6560 C   0  0  0  0  0  0  0  0  0  0  0  0
  194.2810  176.0190  136.0360 S   0  0  0  0  0  0  0  0  0  0  0  0
  192.6340  175.9210  138.2790 C   0  0  0  0  0  2  0  0  0  0  0  0
  193.8250  175.2260  137.6140 C   0  0  0  0  0  2  0  0  0  0  0  0
  191.6690  176.5680  137.2840 C   0  0  0  0  0  2  0  0  0  0  0  0
  192.7220  175.4850  135.2380 C   0  0  0  0  0  2  0  0  0  0  0  0
  190.1500  174.6030  134.5940 O   0  0  0  0  0  0  0  0  0  0  0  0
  183.7970  177.9840  141.2130 C   0  0  0  0  0  2  0  0  0  0  0  0
  180.2660  179.3440  141.0150 C   0  0  0  0  0  3  0  0  0  0  0  0
  180.2290  179.8510  139.7120 C   0  0  0  0  0  0  0  0  0  0  0  0
  182.5330  179.1460  139.3890 C   0  0  0  0  0  3  0  0  0  0  0  0
  181.4290  178.7400  141.5050 C   0  0  0  0  0  3  0  0  0  0  0  0
  182.5640  178.6440  140.6930 C   0  0  0  0  0  0  0  0  0  0  0  0
  181.3710  179.7490  138.8990 C   0  0  0  0  0  3  0  0  0  0  0  0
  179.0460  181.4850  138.2810 C   0  0  0  0  0  1  0  0  0  0  0  0
  179.0530  180.4490  139.2520 O   0  0  0  0  0  0  0  0  0  0  0  0
  1  6  1  0  0  0  0
  2 11  2  0  0  0  0
  2 12  1  0  0  0  0
  3 10  1  0  0  0  0
  4  8  2  0  0  0  0
  5  1  2  0  0  0  0
  7  9  2  0  0  0  0
  7  4  1  0  0  0  0
  8  1  1  0  0  0  0
  9  5  1  0  0  0  0
 10 11  1  0  0  0  0
 11  7  1  0  0  0  0
 12 15  2  0  0  0  0
 13 35  1  6  0  0  0
 13  2  1  0  0  0  0
 14  3  2  0  0  0  0
 14 13  1  0  0  0  0
 15  4  1  0  0  0  0
 16 17  1  1  0  0  0
 16  3  1  0  0  0  0
 18 16  1  0  0  0  0
 19 18  1  0  0  0  0
 20 19  1  0  0  0  0
 21 19  1  0  0  0  0
 22 24  1  0  0  0  0
 22 21  1  1  0  0  0
 22 25  1  0  0  0  0
 24 26  2  0  0  0  0
 25 28  1  6  0  0  0
 25 23  1  0  0  0  0
 26 23  1  0  0  0  0
 27 32  1  0  0  0  0
 28 27  1  0  0  0  0
 29 31  1  0  0  0  0
 31 30  1  0  0  0  0
 32 30  1  0  0  0  0
 33 29  1  0  0  0  0
 33 27  1  0  0  0  0
 34 28  2  0  0  0  0
 36 39  1  0  0  0  0
 37 36  2  0  0  0  0
 38 40  1  0  0  0  0
 40 35  1  0  0  0  0
 40 39  2  0  0  0  0
 41 38  2  0  0  0  0
 41 37  1  0  0  0  0
 42 43  1  0  0  0  0
 43 37  1  0  0  0  0
M  END
>  <MODEL>
5

>  <REMARK>
 VINA RESULT:      -9.0      3.049      7.300
  Name = 
  9 active torsions:
  status: ('A' for Active; 'I' for Inactive)
    1  A    between atoms: C_1  and  C_34
    2  A    between atoms: C_1  and  C_35
    3  A    between atoms: C_2  and  C_6
    4  A    between atoms: C_2  and  C_13
    5  A    between atoms: C_3  and  C_4
    6  A    between atoms: C_3  and  N_12
    7  A    between atoms: C_6  and  N_12
    8  A    between atoms: C_14  and  C_22
    9  A    between atoms: C_19  and  O_37
                            x       y       z     vdW  Elec       q    Type
                         _______ _______ _______ _____ _____    ______ ____

>  <TORSDO>
F 9

$$$$
=
 OpenBabel11052416073D

 43 48  0  0  1  0  0  0  0  0999 V2000
  187.8330  177.5210  146.9030 C   0  0  0  0  0  0  0  0  0  0  0  0
  185.6280  178.6570  142.5280 C   0  0  0  0  0  0  0  0  0  0  0  0
  187.5670  178.3100  140.5170 C   0  0  0  0  0  0  0  0  0  0  0  0
  186.2660  178.2200  145.1960 C   0  0  0  0  0  0  0  0  0  0  0  0
  188.7900  177.2540  145.9180 C   0  0  0  0  0  3  0  0  0  0  0  0
  188.1590  177.2920  148.3340 C   0  0  0  0  0  1  0  0  0  0  0  0
  187.2280  177.9500  144.1980 C   0  0  0  0  0  0  0  0  0  0  0  0
  186.5710  178.0050  146.5430 C   0  0  0  0  0  3  0  0  0  0  0  0
  188.4900  177.4690  144.5690 C   0  0  0  0  0  3  0  0  0  0  0  0
  187.8400  177.9580  141.8420 O   0  0  0  0  0  0  0  0  0  0  0  0
  186.9050  178.1780  142.8550 C   0  0  0  0  0  0  0  0  0  0  0  0
  184.7200  178.9070  143.5120 N   0  0  0  0  0  0  0  0  0  0  0  0
  185.2410  178.8360  141.0850 C   0  0  1  0  0  3  0  0  0  0  0  0
  186.3900  178.7460  140.1750 N   0  0  0  0  0  0  0  0  0  0  0  0
  185.0110  178.7040  144.8240 C   0  0  0  0  0  3  0  0  0  0  0  0
  188.6290  178.1890  139.4780 C   0  0  1  0  0  3  0  0  0  0  0  0
  189.8130  177.4140  140.0280 C   0  0  0  0  0  1  0  0  0  0  0  0
  188.0640  177.4940  138.2490 C   0  0  0  0  0  2  0  0  0  0  0  0
  188.3690  178.2570  137.0440 N   0  0  0  0  0  0  0  0  0  0  0  0
  187.1400  178.8810  136.5670 C   0  0  0  0  0  1  0  0  0  0  0  0
  188.9020  177.3650  136.0060 C   0  0  0  0  0  2  0  0  0  0  0  0
  189.6920  176.1720  136.5560 C   0  0  2  0  0  3  0  0  0  0  0  0
  190.6820  174.3640  135.2830 C   0  0  0  0  0  2  0  0  0  0  0  0
  191.1000  176.3660  136.3470 N   0  0  0  0  0  0  0  0  0  0  0  0
  189.3450  174.9170  135.7630 C   0  0  1  0  0  3  0  0  0  0  0  0
  191.6430  175.4240  135.6790 C   0  0  0  0  0  3  0  0  0  0  0  0
  187.1880  173.8500  136.6070 N   0  0  0  0  0  0  0  0  0  0  0  0
  188.6230  173.9220  136.6230 C   0  0  0  0  0  0  0  0  0  0  0  0
  184.7050  172.8030  137.1450 S   0  0  0  0  0  0  0  0  0  0  0  0
  185.5410  173.9870  134.7680 C   0  0  0  0  0  2  0  0  0  0  0  0
  184.9620  172.6930  135.3430 C   0  0  0  0  0  2  0  0  0  0  0  0
  186.4170  174.7580  135.7580 C   0  0  0  0  0  2  0  0  0  0  0  0
  186.5060  172.8770  137.4670 C   0  0  0  0  0  2  0  0  0  0  0  0
  189.2840  173.1520  137.3720 O   0  0  0  0  0  0  0  0  0  0  0  0
  184.2020  177.7850  140.7060 C   0  0  0  0  0  2  0  0  0  0  0  0
  182.4300  177.8530  137.3580 C   0  0  0  0  0  3  0  0  0  0  0  0
  181.8200  179.1120  137.3840 C   0  0  0  0  0  0  0  0  0  0  0  0
  182.7600  179.5040  139.5910 C   0  0  0  0  0  3  0  0  0  0  0  0
  183.2020  177.4200  138.4410 C   0  0  0  0  0  3  0  0  0  0  0  0
  183.3640  178.2430  139.5600 C   0  0  0  0  0  0  0  0  0  0  0  0
  181.9890  179.9370  138.5090 C   0  0  0  0  0  3  0  0  0  0  0  0
  180.7080  178.6360  135.2270 C   0  0  0  0  0  1  0  0  0  0  0  0
  181.0560  179.5160  136.2860 O   0  0  0  0  0  0  0  0  0  0  0  0
  1  6  1  0  0  0  0
  2 11  2  0  0  0  0
  2 12  1  0  0  0  0
  3 10  1  0  0  0  0
  4  8  2  0  0  0  0
  5  1  2  0  0  0  0
  7  9  2  0  0  0  0
  7  4  1  0  0  0  0
  8  1  1  0  0  0  0
  9  5  1  0  0  0  0
 10 11  1  0  0  0  0
 11  7  1  0  0  0  0
 12 15  2  0  0  0  0
 13 35  1  6  0  0  0
 13  2  1  0  0  0  0
 14  3  2  0  0  0  0
 14 13  1  0  0  0  0
 15  4  1  0  0  0  0
 16 17  1  1  0  0  0
 16  3  1  0  0  0  0
 18 16  1  0  0  0  0
 19 18  1  0  0  0  0
 20 19  1  0  0  0  0
 21 19  1  0  0  0  0
 22 21  1  6  0  0  0
 23 26  1  0  0  0  0
 23 25  1  0  0  0  0
 24 22  1  0  0  0  0
 25 22  1  0  0  0  0
 25 28  1  1  0  0  0
 26 24  2  0  0  0  0
 27 28  1  0  0  0  0
 27 33  1  0  0  0  0
 28 34  2  0  0  0  0
 29 33  1  0  0  0  0
 30 31  1  0  0  0  0
 30 32  1  0  0  0  0
 31 29  1  0  0  0  0
 32 27  1  0  0  0  0
 36 37  2  0  0  0  0
 36 39  1  0  0  0  0
 37 41  1  0  0  0  0
 39 40  2  0  0  0  0
 40 38  1  0  0  0  0
 40 35  1  0  0  0  0
 41 38  2  0  0  0  0
 42 43  1  0  0  0  0
 43 37  1  0  0  0  0
M  END
>  <MODEL>
6

>  <REMARK>
 VINA RESULT:      -8.8      2.691      6.479
  Name = 
  9 active torsions:
  status: ('A' for Active; 'I' for Inactive)
    1  A    between atoms: C_1  and  C_34
    2  A    between atoms: C_1  and  C_35
    3  A    between atoms: C_2  and  C_6
    4  A    between atoms: C_2  and  C_13
    5  A    between atoms: C_3  and  C_4
    6  A    between atoms: C_3  and  N_12
    7  A    between atoms: C_6  and  N_12
    8  A    between atoms: C_14  and  C_22
    9  A    between atoms: C_19  and  O_37
                            x       y       z     vdW  Elec       q    Type
                         _______ _______ _______ _____ _____    ______ ____

>  <TORSDO>
F 9

$$$$
=
 OpenBabel11052416073D

 43 48  0  0  1  0  0  0  0  0999 V2000
  187.9190  177.5070  146.6250 C   0  0  0  0  0  0  0  0  0  0  0  0
  185.4590  178.7270  142.4120 C   0  0  0  0  0  0  0  0  0  0  0  0
  187.1860  178.1670  140.2610 C   0  0  0  0  0  0  0  0  0  0  0  0
  186.2790  178.2990  145.0310 C   0  0  0  0  0  0  0  0  0  0  0  0
  188.7640  177.1360  145.5740 C   0  0  0  0  0  3  0  0  0  0  0  0
  188.3430  177.2850  148.0310 C   0  0  0  0  0  1  0  0  0  0  0  0
  187.1270  177.9240  143.9670 C   0  0  0  0  0  0  0  0  0  0  0  0
  186.6770  178.0900  146.3540 C   0  0  0  0  0  3  0  0  0  0  0  0
  188.3710  177.3440  144.2480 C   0  0  0  0  0  3  0  0  0  0  0  0
  187.5390  177.8240  141.5690 O   0  0  0  0  0  0  0  0  0  0  0  0
  186.7140  178.1480  142.6480 C   0  0  0  0  0  0  0  0  0  0  0  0
  184.6610  179.0770  143.4580 N   0  0  0  0  0  0  0  0  0  0  0  0
  184.9680  178.9050  141.0010 C   0  0  1  0  0  3  0  0  0  0  0  0
  186.0260  178.6950  140.0030 N   0  0  0  0  0  0  0  0  0  0  0  0
  185.0420  178.8810  144.7480 C   0  0  0  0  0  3  0  0  0  0  0  0
  188.1430  177.9310  139.1430 C   0  0  1  0  0  3  0  0  0  0  0  0
  187.8500  178.8800  137.9940 C   0  0  0  0  0  1  0  0  0  0  0  0
  189.5670  178.1240  139.6410 C   0  0  0  0  0  2  0  0  0  0  0  0
  190.2820  176.8530  139.6530 N   0  0  0  0  0  0  0  0  0  0  0  0
  190.6460  176.5400  141.0290 C   0  0  0  0  0  1  0  0  0  0  0  0
  191.4960  176.9520  138.8330 C   0  0  0  0  0  2  0  0  0  0  0  0
  191.4070  176.2070  137.4960 C   0  0  2  0  0  3  0  0  0  0  0  0
  191.4080  173.8070  137.1590 C   0  0  0  0  0  2  0  0  0  0  0  0
  190.0820  175.6890  137.3010 N   0  0  0  0  0  0  0  0  0  0  0  0
  192.3100  174.9790  137.5330 C   0  0  1  0  0  3  0  0  0  0  0  0
  190.0580  174.4260  137.1200 C   0  0  0  0  0  3  0  0  0  0  0  0
  194.8030  174.9440  137.0000 N   0  0  0  0  0  0  0  0  0  0  0  0
  193.4460  175.1200  136.5630 C   0  0  0  0  0  0  0  0  0  0  0  0
  197.5210  174.6340  136.7390 S   0  0  0  0  0  0  0  0  0  0  0  0
  195.8540  173.3200  138.5400 C   0  0  0  0  0  2  0  0  0  0  0  0
  196.8590  173.0750  137.4130 C   0  0  0  0  0  2  0  0  0  0  0  0
  195.0900  174.6390  138.4020 C   0  0  0  0  0  2  0  0  0  0  0  0
  195.8970  175.1010  136.0340 C   0  0  0  0  0  2  0  0  0  0  0  0
  193.2030  175.4040  135.3580 O   0  0  0  0  0  0  0  0  0  0  0  0
  183.8160  177.9390  140.7400 C   0  0  0  0  0  2  0  0  0  0  0  0
  181.1710  180.1560  139.1780 C   0  0  0  0  0  3  0  0  0  0  0  0
  180.1440  180.0850  140.1260 C   0  0  0  0  0  0  0  0  0  0  0  0
  181.5150  178.6010  141.4770 C   0  0  0  0  0  3  0  0  0  0  0  0
  182.3640  179.4530  139.3760 C   0  0  0  0  0  3  0  0  0  0  0  0
  182.5360  178.6730  140.5240 C   0  0  0  0  0  0  0  0  0  0  0  0
  180.3230  179.3030  141.2800 C   0  0  0  0  0  3  0  0  0  0  0  0
  178.9370  182.2110  139.7500 C   0  0  0  0  0  1  0  0  0  0  0  0
  178.9640  180.7980  139.8990 O   0  0  0  0  0  0  0  0  0  0  0  0
  1  6  1  0  0  0  0
  2 11  2  0  0  0  0
  2 12  1  0  0  0  0
  3 10  1  0  0  0  0
  4  8  2  0  0  0  0
  5  1  2  0  0  0  0
  7  9  2  0  0  0  0
  7  4  1  0  0  0  0
  8  1  1  0  0  0  0
  9  5  1  0  0  0  0
 10 11  1  0  0  0  0
 11  7  1  0  0  0  0
 12 15  2  0  0  0  0
 13 35  1  6  0  0  0
 13  2  1  0  0  0  0
 14  3  2  0  0  0  0
 14 13  1  0  0  0  0
 15  4  1  0  0  0  0
 16 17  1  6  0  0  0
 16 18  1  0  0  0  0
 16  3  1  0  0  0  0
 18 19  1  0  0  0  0
 19 20  1  0  0  0  0
 21 19  1  0  0  0  0
 22 25  1  0  0  0  0
 22 21  1  1  0  0  0
 23 25  1  0  0  0  0
 24 22  1  0  0  0  0
 25 28  1  6  0  0  0
 26 23  1  0  0  0  0
 26 24  2  0  0  0  0
 27 32  1  0  0  0  0
 28 27  1  0  0  0  0
 29 31  1  0  0  0  0
 31 30  1  0  0  0  0
 32 30  1  0  0  0  0
 33 29  1  0  0  0  0
 33 27  1  0  0  0  0
 34 28  2  0  0  0  0
 36 39  2  0  0  0  0
 36 37  1  0  0  0  0
 37 41  2  0  0  0  0
 39 40  1  0  0  0  0
 40 35  1  0  0  0  0
 40 38  2  0  0  0  0
 41 38  1  0  0  0  0
 42 43  1  0  0  0  0
 43 37  1  0  0  0  0
M  END
>  <MODEL>
7

>  <REMARK>
 VINA RESULT:      -8.7      3.930      8.518
  Name = 
  9 active torsions:
  status: ('A' for Active; 'I' for Inactive)
    1  A    between atoms: C_1  and  C_34
    2  A    between atoms: C_1  and  C_35
    3  A    between atoms: C_2  and  C_6
    4  A    between atoms: C_2  and  C_13
    5  A    between atoms: C_3  and  C_4
    6  A    between atoms: C_3  and  N_12
    7  A    between atoms: C_6  and  N_12
    8  A    between atoms: C_14  and  C_22
    9  A    between atoms: C_19  and  O_37
                            x       y       z     vdW  Elec       q    Type
                         _______ _______ _______ _____ _____    ______ ____

>  <TORSDO>
F 9

$$$$
=
 OpenBabel11052416073D

 43 48  0  0  1  0  0  0  0  0999 V2000
  190.1130  176.7520  135.8860 C   0  0  0  0  0  0  0  0  0  0  0  0
  189.0770  177.7040  140.7140 C   0  0  0  0  0  0  0  0  0  0  0  0
  186.4140  178.6100  140.8200 C   0  0  0  0  0  0  0  0  0  0  0  0
  190.2540  177.0540  138.2830 C   0  0  0  0  0  0  0  0  0  0  0  0
  188.7620  177.1140  135.9180 C   0  0  0  0  0  3  0  0  0  0  0  0
  190.7570  176.4020  134.5940 C   0  0  0  0  0  1  0  0  0  0  0  0
  188.8900  177.4170  138.3200 C   0  0  0  0  0  0  0  0  0  0  0  0
  190.8600  176.7240  137.0680 C   0  0  0  0  0  3  0  0  0  0  0  0
  188.1510  177.4460  137.1310 C   0  0  0  0  0  3  0  0  0  0  0  0
  186.9660  178.1500  139.6210 O   0  0  0  0  0  0  0  0  0  0  0  0
  188.3020  177.7510  139.5470 C   0  0  0  0  0  0  0  0  0  0  0  0
  190.3900  177.3490  140.6480 N   0  0  0  0  0  0  0  0  0  0  0  0
  188.4420  177.9870  142.0480 C   0  0  1  0  0  3  0  0  0  0  0  0
  187.0990  178.5710  141.9240 N   0  0  0  0  0  0  0  0  0  0  0  0
  190.9880  177.0300  139.4690 C   0  0  0  0  0  3  0  0  0  0  0  0
  185.0270  179.1560  140.8430 C   0  0  1  0  0  3  0  0  0  0  0  0
  184.4610  179.2060  139.4340 C   0  0  0  0  0  1  0  0  0  0  0  0
  184.1530  178.2890  141.7350 C   0  0  0  0  0  2  0  0  0  0  0  0
  183.4760  179.1050  142.7360 N   0  0  0  0  0  0  0  0  0  0  0  0
  184.0870  178.8470  144.0350 C   0  0  0  0  0  1  0  0  0  0  0  0
  182.0500  178.7590  142.7860 C   0  0  0  0  0  2  0  0  0  0  0  0
  181.2380  179.2910  141.5990 C   0  0  2  0  0  3  0  0  0  0  0  0
  178.9410  178.7560  141.0440 C   0  0  0  0  0  2  0  0  0  0  0  0
  180.3250  180.3100  142.0360 N   0  0  0  0  0  0  0  0  0  0  0  0
  180.3530  178.1800  141.0440 C   0  0  1  0  0  3  0  0  0  0  0  0
  179.1090  180.0500  141.7530 C   0  0  0  0  0  3  0  0  0  0  0  0
  180.6900  176.4300  139.2210 N   0  0  0  0  0  0  0  0  0  0  0  0
  180.7820  177.7950  139.6590 C   0  0  0  0  0  0  0  0  0  0  0  0
  180.7370  174.3410  137.4360 S   0  0  0  0  0  0  0  0  0  0  0  0
  178.9590  174.6960  139.5490 C   0  0  0  0  0  2  0  0  0  0  0  0
  179.0220  174.5090  138.0310 C   0  0  0  0  0  2  0  0  0  0  0  0
  180.1880  175.4000  140.1290 C   0  0  0  0  0  2  0  0  0  0  0  0
  181.1290  176.0780  137.8660 C   0  0  0  0  0  2  0  0  0  0  0  0
  181.2360  178.6780  138.8810 O   0  0  0  0  0  0  0  0  0  0  0  0
  188.3680  176.6960  142.8580 C   0  0  0  0  0  2  0  0  0  0  0  0
  189.1860  177.3220  146.5030 C   0  0  0  0  0  3  0  0  0  0  0  0
  187.9110  177.4800  147.0580 C   0  0  0  0  0  0  0  0  0  0  0  0
  186.9300  177.1340  144.8620 C   0  0  0  0  0  3  0  0  0  0  0  0
  189.3340  177.0710  145.1350 C   0  0  0  0  0  3  0  0  0  0  0  0
  188.2070  176.9800  144.3130 C   0  0  0  0  0  0  0  0  0  0  0  0
  186.7810  177.3840  146.2290 C   0  0  0  0  0  3  0  0  0  0  0  0
  188.7870  178.4310  149.1670 C   0  0  0  0  0  1  0  0  0  0  0  0
  187.7970  177.7300  148.4280 O   0  0  0  0  0  0  0  0  0  0  0  0
  1  5  2  0  0  0  0
  1  8  1  0  0  0  0
  2 13  1  0  0  0  0
  3 16  1  0  0  0  0
  3 14  2  0  0  0  0
  4  7  1  0  0  0  0
  4 15  1  0  0  0  0
  5  9  1  0  0  0  0
  6  1  1  0  0  0  0
  7 11  1  0  0  0  0
  8  4  2  0  0  0  0
  9  7  2  0  0  0  0
 10  3  1  0  0  0  0
 11 10  1  0  0  0  0
 11  2  2  0  0  0  0
 12  2  1  0  0  0  0
 13 35  1  1  0  0  0
 14 13  1  0  0  0  0
 15 12  2  0  0  0  0
 16 17  1  6  0  0  0
 16 18  1  0  0  0  0
 18 19  1  0  0  0  0
 19 21  1  0  0  0  0
 19 20  1  0  0  0  0
 22 24  1  0  0  0  0
 22 21  1  1  0  0  0
 23 25  1  0  0  0  0
 23 26  1  0  0  0  0
 25 28  1  6  0  0  0
 25 22  1  0  0  0  0
 26 24  2  0  0  0  0
 27 28  1  0  0  0  0
 27 32  1  0  0  0  0
 29 33  1  0  0  0  0
 29 31  1  0  0  0  0
 30 32  1  0  0  0  0
 31 30  1  0  0  0  0
 33 27  1  0  0  0  0
 34 28  2  0  0  0  0
 35 40  1  0  0  0  0
 36 37  1  0  0  0  0
 37 43  1  0  0  0  0
 38 41  1  0  0  0  0
 39 36  2  0  0  0  0
 40 38  2  0  0  0  0
 40 39  1  0  0  0  0
 41 37  2  0  0  0  0
 43 42  1  0  0  0  0
M  END
>  <MODEL>
8

>  <REMARK>
 VINA RESULT:      -8.7      2.058      6.371
  Name = 
  9 active torsions:
  status: ('A' for Active; 'I' for Inactive)
    1  A    between atoms: C_1  and  C_34
    2  A    between atoms: C_1  and  C_35
    3  A    between atoms: C_2  and  C_6
    4  A    between atoms: C_2  and  C_13
    5  A    between atoms: C_3  and  C_4
    6  A    between atoms: C_3  and  N_12
    7  A    between atoms: C_6  and  N_12
    8  A    between atoms: C_14  and  C_22
    9  A    between atoms: C_19  and  O_37
                            x       y       z     vdW  Elec       q    Type
                         _______ _______ _______ _____ _____    ______ ____

>  <TORSDO>
F 9

$$$$
=
 OpenBabel11052416073D

 43 48  0  0  1  0  0  0  0  0999 V2000
  185.2190  178.6350  145.3230 C   0  0  0  0  0  0  0  0  0  0  0  0
  182.2330  178.6120  141.2770 C   0  0  0  0  0  0  0  0  0  0  0  0
  183.8140  177.7990  139.0940 C   0  0  0  0  0  0  0  0  0  0  0  0
  183.3450  178.8650  143.8100 C   0  0  0  0  0  0  0  0  0  0  0  0
  186.0060  178.1430  144.2760 C   0  0  0  0  0  3  0  0  0  0  0  0
  185.7990  178.7760  146.6840 C   0  0  0  0  0  1  0  0  0  0  0  0
  184.1340  178.3670  142.7510 C   0  0  0  0  0  0  0  0  0  0  0  0
  183.8890  178.9970  145.0900 C   0  0  0  0  0  3  0  0  0  0  0  0
  185.4670  178.0090  142.9930 C   0  0  0  0  0  3  0  0  0  0  0  0
  184.3310  177.7940  140.3930 O   0  0  0  0  0  0  0  0  0  0  0  0
  183.5730  178.2480  141.4740 C   0  0  0  0  0  0  0  0  0  0  0  0
  181.4960  179.0890  142.3170 N   0  0  0  0  0  0  0  0  0  0  0  0
  181.5940  178.4200  139.9280 C   0  0  1  0  0  3  0  0  0  0  0  0
  182.5730  178.1210  138.8750 N   0  0  0  0  0  0  0  0  0  0  0  0
  182.0190  179.2250  143.5650 C   0  0  0  0  0  3  0  0  0  0  0  0
  184.6870  177.4360  137.9410 C   0  0  1  0  0  3  0  0  0  0  0  0
  183.8770  177.4210  136.6560 C   0  0  0  0  0  1  0  0  0  0  0  0
  185.8320  178.4310  137.8360 C   0  0  0  0  0  2  0  0  0  0  0  0
  187.1090  177.7330  137.7390 N   0  0  0  0  0  0  0  0  0  0  0  0
  186.8470  176.3100  137.5640 C   0  0  0  0  0  1  0  0  0  0  0  0
  187.8900  177.9430  138.9650 C   0  0  0  0  0  2  0  0  0  0  0  0
  189.4050  177.9980  138.7360 C   0  0  2  0  0  3  0  0  0  0  0  0
  190.9070  176.1210  138.4390 C   0  0  0  0  0  2  0  0  0  0  0  0
  189.7090  177.7640  137.3520 N   0  0  0  0  0  0  0  0  0  0  0  0
  190.0800  176.8560  139.4870 C   0  0  1  0  0  3  0  0  0  0  0  0
  190.5010  176.7790  137.1720 C   0  0  0  0  0  3  0  0  0  0  0  0
  190.4100  177.5790  141.9100 N   0  0  0  0  0  0  0  0  0  0  0  0
  190.9470  177.3820  140.5930 C   0  0  0  0  0  0  0  0  0  0  0  0
  190.4620  178.0860  144.6110 S   0  0  0  0  0  0  0  0  0  0  0  0
  188.8580  176.2340  143.2880 C   0  0  0  0  0  2  0  0  0  0  0  0
  189.9100  176.3620  144.3920 C   0  0  0  0  0  2  0  0  0  0  0  0
  189.0030  177.2810  142.1810 C   0  0  0  0  0  2  0  0  0  0  0  0
  191.2760  178.1060  142.9710 C   0  0  0  0  0  2  0  0  0  0  0  0
  192.1550  177.6590  140.3570 O   0  0  0  0  0  0  0  0  0  0  0  0
  180.5670  177.2940  140.0110 C   0  0  0  0  0  2  0  0  0  0  0  0
  179.8510  176.1300  136.4780 C   0  0  0  0  0  3  0  0  0  0  0  0
  180.5370  174.9120  136.4350 C   0  0  0  0  0  0  0  0  0  0  0  0
  181.2540  175.2520  138.7330 C   0  0  0  0  0  3  0  0  0  0  0  0
  179.8650  176.9080  137.6410 C   0  0  0  0  0  3  0  0  0  0  0  0
  180.5690  176.4710  138.7680 C   0  0  0  0  0  0  0  0  0  0  0  0
  181.2400  174.4750  137.5710 C   0  0  0  0  0  3  0  0  0  0  0  0
  180.5890  172.7400  135.2520 C   0  0  0  0  0  1  0  0  0  0  0  0
  180.5040  174.1580  135.2590 O   0  0  0  0  0  0  0  0  0  0  0  0
  1  6  1  0  0  0  0
  2 11  2  0  0  0  0
  2 12  1  0  0  0  0
  3 10  1  0  0  0  0
  4  8  2  0  0  0  0
  5  1  2  0  0  0  0
  7  9  2  0  0  0  0
  7  4  1  0  0  0  0
  8  1  1  0  0  0  0
  9  5  1  0  0  0  0
 10 11  1  0  0  0  0
 11  7  1  0  0  0  0
 12 15  2  0  0  0  0
 13 35  1  1  0  0  0
 13  2  1  0  0  0  0
 14  3  2  0  0  0  0
 14 13  1  0  0  0  0
 15  4  1  0  0  0  0
 16 17  1  6  0  0  0
 16  3  1  0  0  0  0
 18 16  1  0  0  0  0
 19 18  1  0  0  0  0
 19 21  1  0  0  0  0
 20 19  1  0  0  0  0
 22 21  1  6  0  0  0
 22 25  1  0  0  0  0
 23 25  1  0  0  0  0
 24 22  1  0  0  0  0
 25 28  1  1  0  0  0
 26 24  2  0  0  0  0
 26 23  1  0  0  0  0
 27 32  1  0  0  0  0
 27 33  1  0  0  0  0
 28 27  1  0  0  0  0
 30 31  1  0  0  0  0
 31 29  1  0  0  0  0
 32 30  1  0  0  0  0
 33 29  1  0  0  0  0
 34 28  2  0  0  0  0
 36 39  1  0  0  0  0
 37 36  2  0  0  0  0
 37 41  1  0  0  0  0
 38 40  1  0  0  0  0
 39 40  2  0  0  0  0
 40 35  1  0  0  0  0
 41 38  2  0  0  0  0
 42 43  1  0  0  0  0
 43 37  1  0  0  0  0
M  END
>  <MODEL>
9

>  <REMARK>
 VINA RESULT:      -8.7      2.754      8.156
  Name = 
  9 active torsions:
  status: ('A' for Active; 'I' for Inactive)
    1  A    between atoms: C_1  and  C_34
    2  A    between atoms: C_1  and  C_35
    3  A    between atoms: C_2  and  C_6
    4  A    between atoms: C_2  and  C_13
    5  A    between atoms: C_3  and  C_4
    6  A    between atoms: C_3  and  N_12
    7  A    between atoms: C_6  and  N_12
    8  A    between atoms: C_14  and  C_22
    9  A    between atoms: C_19  and  O_37
                            x       y       z     vdW  Elec       q    Type
                         _______ _______ _______ _____ _____    ______ ____

>  <TORSDO>
F 9

$$$$
