=
 OpenBabel11052415523D

 34 38  0  0  0  0  0  0  0  0999 V2000
  186.8560  177.6450  143.9920 C   0  0  0  0  0  0  0  0  0  0  0  0
  188.1170  177.9940  147.6250 C   0  0  0  0  0  3  0  0  0  0  0  0
  186.0250  178.4720  146.5590 C   0  0  0  0  0  3  0  0  0  0  0  0
  184.4290  178.3140  143.2860 C   0  0  0  0  0  2  0  0  0  0  0  0
  183.4370  178.8550  144.1560 O   0  0  0  0  0  0  0  0  0  0  0  0
  185.1680  178.5250  145.4730 C   0  0  0  0  0  0  0  0  0  0  0  0
  185.5600  178.1170  144.2320 C   0  0  0  0  0  0  0  0  0  0  0  0
  183.9260  178.9650  145.4560 C   0  0  0  0  0  3  0  0  0  0  0  0
  189.3540  177.5850  147.8690 C   0  0  0  0  0  3  0  0  0  0  0  0
  190.3300  176.9620  146.9690 C   0  0  0  0  0  0  0  0  0  0  0  0
  190.1220  176.7180  145.6770 C   0  0  0  0  0  3  0  0  0  0  0  0
  187.3240  177.9680  146.3890 C   0  0  0  0  0  0  0  0  0  0  0  0
  188.9520  176.9870  144.8360 C   0  0  0  0  0  3  0  0  0  0  0  0
  187.7520  177.5220  145.0980 C   0  0  0  0  0  0  0  0  0  0  0  0
  191.6370  176.5840  147.5440 C   0  0  0  0  0  0  0  0  0  0  0  0
  192.1590  177.2840  148.4520 O   0  0  0  0  0  0  0  0  0  0  0  0
  192.3290  175.4250  147.0820 N   0  0  0  0  0  1  0  0  0  0  0  0
  187.2770  177.3060  142.5810 C   0  0  0  0  0  2  0  0  0  0  0  0
  187.7550  178.5410  141.8140 C   0  0  0  0  0  2  0  0  0  0  0  0
  187.7300  178.3720  140.2920 C   0  0  0  0  0  2  0  0  0  0  0  0
  191.3110  177.1850  140.1320 C   0  0  0  0  0  3  0  0  0  0  0  0
  189.0850  177.2860  138.4130 C   0  0  0  0  0  0  0  0  0  0  0  0
  192.8370  175.9310  137.0090 C   0  0  0  0  0  0  0  0  0  0  0  0
  192.6830  176.3360  138.3410 C   0  0  0  0  0  3  0  0  0  0  0  0
  191.4430  176.7790  138.8060 C   0  0  0  0  0  0  0  0  0  0  0  0
  187.8840  177.2910  137.5130 C   0  0  0  0  0  1  0  0  0  0  0  0
  190.4900  176.4080  136.6040 C   0  0  0  0  0  3  0  0  0  0  0  0
  190.3280  176.8210  137.9350 C   0  0  0  0  0  0  0  0  0  0  0  0
  191.7340  175.9680  136.1450 C   0  0  0  0  0  3  0  0  0  0  0  0
  188.9840  177.7550  139.7420 C   0  0  0  0  0  0  0  0  0  0  0  0
  190.0880  177.6710  140.5950 C   0  0  0  0  0  3  0  0  0  0  0  0
  194.1500  175.4700  136.5260 C   0  0  0  0  0  0  0  0  0  0  0  0
  195.1240  176.3930  136.1630 O   0  0  0  0  0  0  0  0  0  0  0  0
  194.4010  174.2390  136.4360 O   0  0  0  0  0  1  0  0  0  0  0  0
  1  7  2  0  0  0  0
  1 14  1  0  0  0  0
  2  9  2  0  0  0  0
  4  5  1  0  0  0  0
  4  7  1  0  0  0  0
  5  8  1  0  0  0  0
  6  3  1  0  0  0  0
  7  6  1  0  0  0  0
  8  6  2  0  0  0  0
 10 15  1  0  0  0  0
 10  9  1  0  0  0  0
 11 10  2  0  0  0  0
 12  3  2  0  0  0  0
 12  2  1  0  0  0  0
 13 14  2  0  0  0  0
 13 11  1  0  0  0  0
 14 12  1  0  0  0  0
 15 16  2  0  0  0  0
 17 15  1  0  0  0  0
 18  1  1  0  0  0  0
 19 18  1  0  0  0  0
 20 19  1  0  0  0  0
 21 31  1  0  0  0  0
 22 30  1  0  0  0  0
 23 24  2  0  0  0  0
 24 25  1  0  0  0  0
 25 21  2  0  0  0  0
 26 22  1  0  0  0  0
 27 28  1  0  0  0  0
 28 22  2  0  0  0  0
 28 25  1  0  0  0  0
 29 27  2  0  0  0  0
 29 23  1  0  0  0  0
 30 20  1  0  0  0  0
 30 31  2  0  0  0  0
 32 23  1  0  0  0  0
 33 32  2  0  0  0  0
 34 32  1  0  0  0  0
M  END
>  <MODEL>
1

>  <REMARK>
 VINA RESULT:     -11.0      0.000      0.000
  Name = 
  6 active torsions:
  status: ('A' for Active; 'I' for Inactive)
    1  A    between atoms: C_1  and  C_9
    2  A    between atoms: C_3  and  C_25
    3  A    between atoms: C_7  and  C_11
    4  A    between atoms: C_8  and  C_9
    5  A    between atoms: C_8  and  C_18
    6  A    between atoms: C_18  and  C_30
                            x       y       z     vdW  Elec       q    Type
                         _______ _______ _______ _____ _____    ______ ____

>  <TORSDO>
F 6

$$$$
=
 OpenBabel11052415523D

 34 38  0  0  0  0  0  0  0  0999 V2000
  185.2040  178.8700  140.4070 C   0  0  0  0  0  0  0  0  0  0  0  0
  187.6270  177.3050  137.8390 C   0  0  0  0  0  3  0  0  0  0  0  0
  185.3010  177.8800  137.7660 C   0  0  0  0  0  3  0  0  0  0  0  0
  182.6870  179.3190  139.8590 C   0  0  0  0  0  2  0  0  0  0  0  0
  182.0450  179.0120  138.6240 O   0  0  0  0  0  0  0  0  0  0  0  0
  184.1290  178.3840  138.3030 C   0  0  0  0  0  0  0  0  0  0  0  0
  184.0780  178.8740  139.5760 C   0  0  0  0  0  0  0  0  0  0  0  0
  182.9480  178.4510  137.7230 C   0  0  0  0  0  3  0  0  0  0  0  0
  188.8890  177.1630  138.2190 C   0  0  0  0  0  3  0  0  0  0  0  0
  189.5400  177.5570  139.4730 C   0  0  0  0  0  0  0  0  0  0  0  0
  188.9210  178.1330  140.5000 C   0  0  0  0  0  3  0  0  0  0  0  0
  186.4750  177.8890  138.5380 C   0  0  0  0  0  0  0  0  0  0  0  0
  187.5140  178.5050  140.6740 C   0  0  0  0  0  3  0  0  0  0  0  0
  186.4460  178.4110  139.8700 C   0  0  0  0  0  0  0  0  0  0  0  0
  190.9880  177.2900  139.5970 C   0  0  0  0  0  0  0  0  0  0  0  0
  191.6430  176.8680  138.6080 O   0  0  0  0  0  0  0  0  0  0  0  0
  191.6650  177.5030  140.8350 N   0  0  0  0  0  1  0  0  0  0  0  0
  185.0730  179.3230  141.8420 C   0  0  0  0  0  2  0  0  0  0  0  0
  184.4430  178.2460  142.7280 C   0  0  0  0  0  2  0  0  0  0  0  0
  184.6840  178.4570  144.2260 C   0  0  0  0  0  2  0  0  0  0  0  0
  188.1950  177.0800  144.0600 C   0  0  0  0  0  3  0  0  0  0  0  0
  186.5440  178.3160  145.9760 C   0  0  0  0  0  0  0  0  0  0  0  0
  190.3800  176.8830  147.0340 C   0  0  0  0  0  0  0  0  0  0  0  0
  189.9110  176.7510  145.7210 C   0  0  0  0  0  3  0  0  0  0  0  0
  188.6470  177.2280  145.3700 C   0  0  0  0  0  0  0  0  0  0  0  0
  185.6830  179.0210  146.9820 C   0  0  0  0  0  1  0  0  0  0  0  0
  188.3060  177.9860  147.6510 C   0  0  0  0  0  3  0  0  0  0  0  0
  187.8260  177.8520  146.3400 C   0  0  0  0  0  0  0  0  0  0  0  0
  189.5710  177.5040  147.9950 C   0  0  0  0  0  3  0  0  0  0  0  0
  186.0760  178.1000  144.6600 C   0  0  0  0  0  0  0  0  0  0  0  0
  186.9170  177.5130  143.7100 C   0  0  0  0  0  3  0  0  0  0  0  0
  191.7130  176.3720  147.3960 C   0  0  0  0  0  0  0  0  0  0  0  0
  192.4080  176.9270  148.4630 O   0  0  0  0  0  1  0  0  0  0  0  0
  192.2340  175.4300  146.7420 O   0  0  0  0  0  0  0  0  0  0  0  0
  1 18  1  0  0  0  0
  2  9  2  0  0  0  0
  2 12  1  0  0  0  0
  3  6  1  0  0  0  0
  3 12  2  0  0  0  0
  5  4  1  0  0  0  0
  6  7  1  0  0  0  0
  7  4  1  0  0  0  0
  7  1  2  0  0  0  0
  8  6  2  0  0  0  0
  8  5  1  0  0  0  0
  9 10  1  0  0  0  0
 10 15  1  0  0  0  0
 10 11  2  0  0  0  0
 11 13  1  0  0  0  0
 12 14  1  0  0  0  0
 14  1  1  0  0  0  0
 14 13  2  0  0  0  0
 15 17  1  0  0  0  0
 16 15  2  0  0  0  0
 18 19  1  0  0  0  0
 19 20  1  0  0  0  0
 20 30  1  0  0  0  0
 21 25  1  0  0  0  0
 22 28  1  0  0  0  0
 22 26  1  0  0  0  0
 23 32  1  0  0  0  0
 23 29  1  0  0  0  0
 24 23  2  0  0  0  0
 25 24  1  0  0  0  0
 25 28  2  0  0  0  0
 27 29  2  0  0  0  0
 28 27  1  0  0  0  0
 30 22  2  0  0  0  0
 31 21  2  0  0  0  0
 31 30  1  0  0  0  0
 32 33  1  0  0  0  0
 34 32  2  0  0  0  0
M  END
>  <MODEL>
2

>  <REMARK>
 VINA RESULT:     -11.0      2.440      7.926
  Name = 
  6 active torsions:
  status: ('A' for Active; 'I' for Inactive)
    1  A    between atoms: C_1  and  C_9
    2  A    between atoms: C_3  and  C_25
    3  A    between atoms: C_7  and  C_11
    4  A    between atoms: C_8  and  C_9
    5  A    between atoms: C_8  and  C_18
    6  A    between atoms: C_18  and  C_30
                            x       y       z     vdW  Elec       q    Type
                         _______ _______ _______ _____ _____    ______ ____

>  <TORSDO>
F 6

$$$$
=
 OpenBabel11052415523D

 34 38  0  0  0  0  0  0  0  0999 V2000
  187.6820  177.4510  145.1490 C   0  0  0  0  0  0  0  0  0  0  0  0
  184.1400  178.9540  145.4730 C   0  0  0  0  0  3  0  0  0  0  0  0
  185.9350  178.6280  147.0260 C   0  0  0  0  0  3  0  0  0  0  0  0
  189.3270  177.3030  147.1770 C   0  0  0  0  0  2  0  0  0  0  0  0
  189.0390  177.7330  148.5050 O   0  0  0  0  0  0  0  0  0  0  0  0
  187.2060  178.2140  147.3870 C   0  0  0  0  0  0  0  0  0  0  0  0
  188.0590  177.6530  146.4820 C   0  0  0  0  0  0  0  0  0  0  0  0
  187.7550  178.2700  148.5830 C   0  0  0  0  0  3  0  0  0  0  0  0
  183.4130  179.0110  144.3650 C   0  0  0  0  0  3  0  0  0  0  0  0
  183.7630  178.6280  142.9940 C   0  0  0  0  0  0  0  0  0  0  0  0
  184.9310  178.1070  142.6260 C   0  0  0  0  0  3  0  0  0  0  0  0
  185.5150  178.4890  145.6940 C   0  0  0  0  0  0  0  0  0  0  0  0
  186.1160  177.7770  143.4220 C   0  0  0  0  0  3  0  0  0  0  0  0
  186.4000  177.9160  144.7250 C   0  0  0  0  0  0  0  0  0  0  0  0
  182.7380  178.8370  141.9490 C   0  0  0  0  0  0  0  0  0  0  0  0
  181.5310  179.0030  142.2680 O   0  0  0  0  0  0  0  0  0  0  0  0
  183.0970  178.8530  140.5690 N   0  0  0  0  0  1  0  0  0  0  0  0
  188.6210  176.7300  144.2110 C   0  0  0  0  0  2  0  0  0  0  0  0
  189.9810  177.4250  144.1140 C   0  0  0  0  0  2  0  0  0  0  0  0
  190.0030  178.6100  143.1440 C   0  0  0  0  0  2  0  0  0  0  0  0
  187.8810  178.2530  140.0420 C   0  0  0  0  0  3  0  0  0  0  0  0
  190.4600  177.5030  140.8830 C   0  0  0  0  0  0  0  0  0  0  0  0
  188.9740  176.2720  137.1200 C   0  0  0  0  0  0  0  0  0  0  0  0
  188.1880  177.0620  137.9680 C   0  0  0  0  0  3  0  0  0  0  0  0
  188.6800  177.4730  139.2090 C   0  0  0  0  0  0  0  0  0  0  0  0
  191.8530  177.1490  141.3120 C   0  0  0  0  0  1  0  0  0  0  0  0
  190.7630  176.3080  138.7630 C   0  0  0  0  0  3  0  0  0  0  0  0
  189.9810  177.0950  139.6210 C   0  0  0  0  0  0  0  0  0  0  0  0
  190.2630  175.9000  137.5230 C   0  0  0  0  0  3  0  0  0  0  0  0
  189.6120  178.2380  141.7430 C   0  0  0  0  0  0  0  0  0  0  0  0
  188.3460  178.6310  141.3010 C   0  0  0  0  0  3  0  0  0  0  0  0
  188.4440  175.8390  135.8160 C   0  0  0  0  0  0  0  0  0  0  0  0
  189.3010  175.3270  134.8490 O   0  0  0  0  0  0  0  0  0  0  0  0
  187.2130  175.9300  135.5650 O   0  0  0  0  0  1  0  0  0  0  0  0
  1  7  2  0  0  0  0
  2 12  1  0  0  0  0
  3  6  1  0  0  0  0
  4  5  1  0  0  0  0
  5  8  1  0  0  0  0
  6  8  2  0  0  0  0
  7  4  1  0  0  0  0
  7  6  1  0  0  0  0
  9  2  2  0  0  0  0
 10  9  1  0  0  0  0
 11 10  2  0  0  0  0
 11 13  1  0  0  0  0
 12  3  2  0  0  0  0
 13 14  2  0  0  0  0
 14  1  1  0  0  0  0
 14 12  1  0  0  0  0
 15 16  2  0  0  0  0
 15 10  1  0  0  0  0
 17 15  1  0  0  0  0
 18  1  1  0  0  0  0
 19 18  1  0  0  0  0
 20 19  1  0  0  0  0
 21 31  1  0  0  0  0
 22 26  1  0  0  0  0
 22 30  1  0  0  0  0
 23 29  1  0  0  0  0
 23 24  2  0  0  0  0
 24 25  1  0  0  0  0
 25 28  1  0  0  0  0
 25 21  2  0  0  0  0
 27 28  1  0  0  0  0
 28 22  2  0  0  0  0
 29 27  2  0  0  0  0
 30 20  1  0  0  0  0
 31 30  2  0  0  0  0
 32 23  1  0  0  0  0
 33 32  2  0  0  0  0
 34 32  1  0  0  0  0
M  END
>  <MODEL>
3

>  <REMARK>
 VINA RESULT:     -10.9      2.867      5.440
  Name = 
  6 active torsions:
  status: ('A' for Active; 'I' for Inactive)
    1  A    between atoms: C_1  and  C_9
    2  A    between atoms: C_3  and  C_25
    3  A    between atoms: C_7  and  C_11
    4  A    between atoms: C_8  and  C_9
    5  A    between atoms: C_8  and  C_18
    6  A    between atoms: C_18  and  C_30
                            x       y       z     vdW  Elec       q    Type
                         _______ _______ _______ _____ _____    ______ ____

>  <TORSDO>
F 6

$$$$
=
 OpenBabel11052415523D

 34 38  0  0  0  0  0  0  0  0999 V2000
  187.7400  177.3910  144.6360 C   0  0  0  0  0  0  0  0  0  0  0  0
  184.3310  178.7760  145.8090 C   0  0  0  0  0  3  0  0  0  0  0  0
  186.3970  178.3240  146.9360 C   0  0  0  0  0  3  0  0  0  0  0  0
  189.7520  177.0630  146.2730 C   0  0  0  0  0  2  0  0  0  0  0  0
  189.7310  177.3430  147.6710 O   0  0  0  0  0  0  0  0  0  0  0  0
  187.7140  177.9010  146.9940 C   0  0  0  0  0  0  0  0  0  0  0  0
  188.3720  177.4590  145.8830 C   0  0  0  0  0  0  0  0  0  0  0  0
  188.4890  177.8410  148.0580 C   0  0  0  0  0  3  0  0  0  0  0  0
  183.4000  178.9340  144.8790 C   0  0  0  0  0  3  0  0  0  0  0  0
  183.4720  178.7070  143.4320 C   0  0  0  0  0  0  0  0  0  0  0  0
  184.5450  178.2530  142.7880 C   0  0  0  0  0  3  0  0  0  0  0  0
  185.7230  178.3190  145.7040 C   0  0  0  0  0  0  0  0  0  0  0  0
  185.8640  177.8660  143.2960 C   0  0  0  0  0  3  0  0  0  0  0  0
  186.3990  177.8720  144.5240 C   0  0  0  0  0  0  0  0  0  0  0  0
  182.2620  179.0050  142.6380 C   0  0  0  0  0  0  0  0  0  0  0  0
  181.2710  179.5670  143.1760 O   0  0  0  0  0  0  0  0  0  0  0  0
  182.1940  178.6610  141.2550 N   0  0  0  0  0  1  0  0  0  0  0  0
  188.4750  176.7940  143.4590 C   0  0  0  0  0  2  0  0  0  0  0  0
  189.2410  177.8540  142.6640 C   0  0  0  0  0  2  0  0  0  0  0  0
  188.8950  177.8790  141.1720 C   0  0  0  0  0  2  0  0  0  0  0  0
  192.4160  177.1030  140.0510 C   0  0  0  0  0  3  0  0  0  0  0  0
  189.8230  176.9810  138.9630 C   0  0  0  0  0  0  0  0  0  0  0  0
  193.2040  176.0770  136.5890 C   0  0  0  0  0  0  0  0  0  0  0  0
  193.3580  176.4410  137.9330 C   0  0  0  0  0  3  0  0  0  0  0  0
  192.2420  176.7350  138.7180 C   0  0  0  0  0  0  0  0  0  0  0  0
  188.4370  176.8650  138.4020 C   0  0  0  0  0  1  0  0  0  0  0  0
  190.7960  176.2940  136.8190 C   0  0  0  0  0  3  0  0  0  0  0  0
  190.9410  176.6650  138.1640 C   0  0  0  0  0  0  0  0  0  0  0  0
  191.9180  176.0030  136.0390 C   0  0  0  0  0  3  0  0  0  0  0  0
  190.0210  177.4150  140.2940 C   0  0  0  0  0  0  0  0  0  0  0  0
  191.3110  177.4420  140.8310 C   0  0  0  0  0  3  0  0  0  0  0  0
  194.3880  175.7740  135.7670 C   0  0  0  0  0  0  0  0  0  0  0  0
  194.4120  174.6370  134.9690 O   0  0  0  0  0  0  0  0  0  0  0  0
  195.3870  176.5400  135.7820 O   0  0  0  0  0  1  0  0  0  0  0  0
  1  7  2  0  0  0  0
  3  6  1  0  0  0  0
  4  5  1  0  0  0  0
  5  8  1  0  0  0  0
  6  8  2  0  0  0  0
  7  4  1  0  0  0  0
  7  6  1  0  0  0  0
  9  2  2  0  0  0  0
 10  9  1  0  0  0  0
 11 13  1  0  0  0  0
 11 10  2  0  0  0  0
 12  2  1  0  0  0  0
 12  3  2  0  0  0  0
 13 14  2  0  0  0  0
 14  1  1  0  0  0  0
 14 12  1  0  0  0  0
 15 16  2  0  0  0  0
 15 10  1  0  0  0  0
 17 15  1  0  0  0  0
 18  1  1  0  0  0  0
 19 18  1  0  0  0  0
 20 19  1  0  0  0  0
 21 31  1  0  0  0  0
 22 30  1  0  0  0  0
 23 24  2  0  0  0  0
 24 25  1  0  0  0  0
 25 21  2  0  0  0  0
 26 22  1  0  0  0  0
 27 28  1  0  0  0  0
 28 25  1  0  0  0  0
 28 22  2  0  0  0  0
 29 23  1  0  0  0  0
 29 27  2  0  0  0  0
 30 31  2  0  0  0  0
 30 20  1  0  0  0  0
 32 34  1  0  0  0  0
 32 23  1  0  0  0  0
 33 32  2  0  0  0  0
M  END
>  <MODEL>
4

>  <REMARK>
 VINA RESULT:     -10.9      2.360      4.780
  Name = 
  6 active torsions:
  status: ('A' for Active; 'I' for Inactive)
    1  A    between atoms: C_1  and  C_9
    2  A    between atoms: C_3  and  C_25
    3  A    between atoms: C_7  and  C_11
    4  A    between atoms: C_8  and  C_9
    5  A    between atoms: C_8  and  C_18
    6  A    between atoms: C_18  and  C_30
                            x       y       z     vdW  Elec       q    Type
                         _______ _______ _______ _____ _____    ______ ____

>  <TORSDO>
F 6

$$$$
=
 OpenBabel11052415523D

 34 38  0  0  0  0  0  0  0  0999 V2000
  189.4900  177.0380  144.3550 C   0  0  0  0  0  0  0  0  0  0  0  0
  186.1880  178.1120  146.0450 C   0  0  0  0  0  3  0  0  0  0  0  0
  188.3800  177.6230  146.8820 C   0  0  0  0  0  3  0  0  0  0  0  0
  191.6800  176.6070  145.7160 C   0  0  0  0  0  2  0  0  0  0  0  0
  191.8050  176.7150  147.1320 O   0  0  0  0  0  0  0  0  0  0  0  0
  189.7080  177.2570  146.7470 C   0  0  0  0  0  0  0  0  0  0  0  0
  190.2530  176.9830  145.5260 C   0  0  0  0  0  0  0  0  0  0  0  0
  190.5970  177.1050  147.7070 C   0  0  0  0  0  3  0  0  0  0  0  0
  185.1550  178.3390  145.2450 C   0  0  0  0  0  3  0  0  0  0  0  0
  185.0750  178.2920  143.7820 C   0  0  0  0  0  0  0  0  0  0  0  0
  186.0840  177.9690  142.9770 C   0  0  0  0  0  3  0  0  0  0  0  0
  187.5740  177.7360  145.7370 C   0  0  0  0  0  0  0  0  0  0  0  0
  187.4630  177.5850  143.2900 C   0  0  0  0  0  3  0  0  0  0  0  0
  188.1300  177.4660  144.4460 C   0  0  0  0  0  0  0  0  0  0  0  0
  183.7750  178.6270  143.1640 C   0  0  0  0  0  0  0  0  0  0  0  0
  183.6380  178.5890  141.9120 O   0  0  0  0  0  0  0  0  0  0  0  0
  182.6590  179.0000  143.9700 N   0  0  0  0  0  1  0  0  0  0  0  0
  190.1090  176.6220  143.0410 C   0  0  0  0  0  2  0  0  0  0  0  0
  190.8770  177.7690  142.3800 C   0  0  0  0  0  2  0  0  0  0  0  0
  191.3010  177.4800  140.9370 C   0  0  0  0  0  2  0  0  0  0  0  0
  187.9090  178.2470  139.4700 C   0  0  0  0  0  3  0  0  0  0  0  0
  190.1470  176.6770  138.8000 C   0  0  0  0  0  0  0  0  0  0  0  0
  186.6370  176.5500  136.4430 C   0  0  0  0  0  0  0  0  0  0  0  0
  186.7040  177.3770  137.5710 C   0  0  0  0  0  3  0  0  0  0  0  0
  187.8650  177.4230  138.3460 C   0  0  0  0  0  0  0  0  0  0  0  0
  191.3590  175.8820  138.4160 C   0  0  0  0  0  1  0  0  0  0  0  0
  188.9130  175.8120  136.8650 C   0  0  0  0  0  3  0  0  0  0  0  0
  188.9860  176.6340  137.9990 C   0  0  0  0  0  0  0  0  0  0  0  0
  187.7480  175.7700  136.0940 C   0  0  0  0  0  3  0  0  0  0  0  0
  190.1520  177.4690  139.9710 C   0  0  0  0  0  0  0  0  0  0  0  0
  189.0470  178.2670  140.2760 C   0  0  0  0  0  3  0  0  0  0  0  0
  185.4080  176.5030  135.6350 C   0  0  0  0  0  0  0  0  0  0  0  0
  185.0820  175.3550  134.9230 O   0  0  0  0  0  0  0  0  0  0  0  0
  184.6430  177.5030  135.5780 O   0  0  0  0  0  1  0  0  0  0  0  0
  1 14  1  0  0  0  0
  1  7  2  0  0  0  0
  4  5  1  0  0  0  0
  5  8  1  0  0  0  0
  6  3  1  0  0  0  0
  6  8  2  0  0  0  0
  7  4  1  0  0  0  0
  7  6  1  0  0  0  0
  9  2  2  0  0  0  0
 10  9  1  0  0  0  0
 11 13  1  0  0  0  0
 11 10  2  0  0  0  0
 12  2  1  0  0  0  0
 12  3  2  0  0  0  0
 13 14  2  0  0  0  0
 14 12  1  0  0  0  0
 15 10  1  0  0  0  0
 15 17  1  0  0  0  0
 16 15  2  0  0  0  0
 18  1  1  0  0  0  0
 19 18  1  0  0  0  0
 20 19  1  0  0  0  0
 21 31  1  0  0  0  0
 22 30  1  0  0  0  0
 23 24  2  0  0  0  0
 24 25  1  0  0  0  0
 25 21  2  0  0  0  0
 26 22  1  0  0  0  0
 27 28  1  0  0  0  0
 28 25  1  0  0  0  0
 28 22  2  0  0  0  0
 29 23  1  0  0  0  0
 29 27  2  0  0  0  0
 30 31  2  0  0  0  0
 30 20  1  0  0  0  0
 32 23  1  0  0  0  0
 33 32  2  0  0  0  0
 34 32  1  0  0  0  0
M  END
>  <MODEL>
5

>  <REMARK>
 VINA RESULT:     -10.7      3.265      5.805
  Name = 
  6 active torsions:
  status: ('A' for Active; 'I' for Inactive)
    1  A    between atoms: C_1  and  C_9
    2  A    between atoms: C_3  and  C_25
    3  A    between atoms: C_7  and  C_11
    4  A    between atoms: C_8  and  C_9
    5  A    between atoms: C_8  and  C_18
    6  A    between atoms: C_18  and  C_30
                            x       y       z     vdW  Elec       q    Type
                         _______ _______ _______ _____ _____    ______ ____

>  <TORSDO>
F 6

$$$$
=
 OpenBabel11052415523D

 34 38  0  0  0  0  0  0  0  0999 V2000
  187.5540  177.5400  145.4500 C   0  0  0  0  0  0  0  0  0  0  0  0
  190.9410  177.5580  143.5970 C   0  0  0  0  0  3  0  0  0  0  0  0
  190.3320  177.7010  145.9100 C   0  0  0  0  0  3  0  0  0  0  0  0
  187.3840  177.7260  148.0530 C   0  0  0  0  0  2  0  0  0  0  0  0
  188.4900  177.8630  148.9430 O   0  0  0  0  0  0  0  0  0  0  0  0
  189.4270  177.7330  146.9560 C   0  0  0  0  0  0  0  0  0  0  0  0
  188.0820  177.6450  146.7410 C   0  0  0  0  0  0  0  0  0  0  0  0
  189.6930  177.8640  148.2400 C   0  0  0  0  0  3  0  0  0  0  0  0
  190.9010  177.4180  142.2790 C   0  0  0  0  0  3  0  0  0  0  0  0
  189.7510  177.2040  141.3940 C   0  0  0  0  0  0  0  0  0  0  0  0
  188.4850  177.1390  141.7980 C   0  0  0  0  0  3  0  0  0  0  0  0
  189.8640  177.5550  144.5950 C   0  0  0  0  0  0  0  0  0  0  0  0
  187.9080  177.2620  143.1400 C   0  0  0  0  0  3  0  0  0  0  0  0
  188.4580  177.4470  144.3480 C   0  0  0  0  0  0  0  0  0  0  0  0
  190.0260  177.0530  139.9500 C   0  0  0  0  0  0  0  0  0  0  0  0
  190.7230  176.0900  139.5340 O   0  0  0  0  0  0  0  0  0  0  0  0
  189.5110  177.9910  139.0080 N   0  0  0  0  0  1  0  0  0  0  0  0
  186.0550  177.5530  145.2550 C   0  0  0  0  0  2  0  0  0  0  0  0
  185.4920  178.9760  145.2340 C   0  0  0  0  0  2  0  0  0  0  0  0
  183.9990  179.0470  144.9040 C   0  0  0  0  0  2  0  0  0  0  0  0
  184.5990  178.8760  141.1810 C   0  0  0  0  0  3  0  0  0  0  0  0
  182.3940  178.7890  142.9280 C   0  0  0  0  0  0  0  0  0  0  0  0
  181.8280  178.7820  138.7370 C   0  0  0  0  0  0  0  0  0  0  0  0
  183.1190  178.8260  139.2780 C   0  0  0  0  0  3  0  0  0  0  0  0
  183.3070  178.8240  140.6610 C   0  0  0  0  0  0  0  0  0  0  0  0
  181.2240  178.6900  143.8610 C   0  0  0  0  0  1  0  0  0  0  0  0
  180.9030  178.7250  140.9820 C   0  0  0  0  0  3  0  0  0  0  0  0
  182.1920  178.7750  141.5320 C   0  0  0  0  0  0  0  0  0  0  0  0
  180.7230  178.7290  139.5960 C   0  0  0  0  0  3  0  0  0  0  0  0
  183.7070  178.9080  143.4380 C   0  0  0  0  0  0  0  0  0  0  0  0
  184.7950  178.9190  142.5610 C   0  0  0  0  0  3  0  0  0  0  0  0
  181.6400  178.7910  137.2770 C   0  0  0  0  0  0  0  0  0  0  0  0
  181.9350  177.6580  136.5270 O   0  0  0  0  0  0  0  0  0  0  0  0
  181.2130  179.8230  136.6940 O   0  0  0  0  0  1  0  0  0  0  0  0
  1  7  2  0  0  0  0
  2 12  1  0  0  0  0
  3  6  1  0  0  0  0
  4  5  1  0  0  0  0
  6  8  2  0  0  0  0
  7  6  1  0  0  0  0
  7  4  1  0  0  0  0
  8  5  1  0  0  0  0
  9  2  2  0  0  0  0
 10 11  2  0  0  0  0
 10  9  1  0  0  0  0
 11 13  1  0  0  0  0
 12  3  2  0  0  0  0
 13 14  2  0  0  0  0
 14 12  1  0  0  0  0
 14  1  1  0  0  0  0
 15 10  1  0  0  0  0
 16 15  2  0  0  0  0
 17 15  1  0  0  0  0
 18  1  1  0  0  0  0
 19 18  1  0  0  0  0
 20 19  1  0  0  0  0
 21 31  1  0  0  0  0
 22 30  1  0  0  0  0
 22 26  1  0  0  0  0
 23 24  2  0  0  0  0
 23 29  1  0  0  0  0
 24 25  1  0  0  0  0
 25 21  2  0  0  0  0
 25 28  1  0  0  0  0
 27 28  1  0  0  0  0
 28 22  2  0  0  0  0
 29 27  2  0  0  0  0
 30 20  1  0  0  0  0
 31 30  2  0  0  0  0
 32 23  1  0  0  0  0
 33 32  2  0  0  0  0
 34 32  1  0  0  0  0
M  END
>  <MODEL>
6

>  <REMARK>
 VINA RESULT:     -10.6      3.581      7.783
  Name = 
  6 active torsions:
  status: ('A' for Active; 'I' for Inactive)
    1  A    between atoms: C_1  and  C_9
    2  A    between atoms: C_3  and  C_25
    3  A    between atoms: C_7  and  C_11
    4  A    between atoms: C_8  and  C_9
    5  A    between atoms: C_8  and  C_18
    6  A    between atoms: C_18  and  C_30
                            x       y       z     vdW  Elec       q    Type
                         _______ _______ _______ _____ _____    ______ ____

>  <TORSDO>
F 6

$$$$
=
 OpenBabel11052415523D

 34 38  0  0  0  0  0  0  0  0999 V2000
  182.8970  178.2520  140.4020 C   0  0  0  0  0  0  0  0  0  0  0  0
  184.2750  176.9770  137.0280 C   0  0  0  0  0  3  0  0  0  0  0  0
  182.1270  176.8430  138.0820 C   0  0  0  0  0  3  0  0  0  0  0  0
  180.4200  177.8540  141.1390 C   0  0  0  0  0  2  0  0  0  0  0  0
  179.4390  177.1460  140.3840 O   0  0  0  0  0  0  0  0  0  0  0  0
  181.2290  177.0860  139.1070 C   0  0  0  0  0  0  0  0  0  0  0  0
  181.5930  177.7760  140.2270 C   0  0  0  0  0  0  0  0  0  0  0  0
  179.9700  176.7030  139.1750 C   0  0  0  0  0  3  0  0  0  0  0  0
  185.5370  177.2740  136.7480 C   0  0  0  0  0  3  0  0  0  0  0  0
  186.5040  178.0690  137.5120 C   0  0  0  0  0  0  0  0  0  0  0  0
  186.2590  178.6320  138.6930 C   0  0  0  0  0  3  0  0  0  0  0  0
  183.4390  177.3320  138.1820 C   0  0  0  0  0  0  0  0  0  0  0  0
  185.0490  178.6160  139.5200 C   0  0  0  0  0  3  0  0  0  0  0  0
  183.8380  178.0700  139.3430 C   0  0  0  0  0  0  0  0  0  0  0  0
  187.8460  178.2530  136.9220 C   0  0  0  0  0  0  0  0  0  0  0  0
  188.2960  177.4170  136.0950 O   0  0  0  0  0  0  0  0  0  0  0  0
  188.6510  179.3750  137.2790 N   0  0  0  0  0  1  0  0  0  0  0  0
  183.2790  178.9150  141.7050 C   0  0  0  0  0  2  0  0  0  0  0  0
  183.9930  177.9480  142.6530 C   0  0  0  0  0  2  0  0  0  0  0  0
  184.3700  178.5690  144.0010 C   0  0  0  0  0  2  0  0  0  0  0  0
  187.9850  177.5070  143.7580 C   0  0  0  0  0  3  0  0  0  0  0  0
  186.1900  178.2930  145.7780 C   0  0  0  0  0  0  0  0  0  0  0  0
  190.1010  177.0070  146.7460 C   0  0  0  0  0  0  0  0  0  0  0  0
  189.6790  177.0490  145.4120 C   0  0  0  0  0  3  0  0  0  0  0  0
  188.3890  177.4790  145.0920 C   0  0  0  0  0  0  0  0  0  0  0  0
  185.2490  178.7630  146.8480 C   0  0  0  0  0  1  0  0  0  0  0  0
  187.9280  177.8370  147.4480 C   0  0  0  0  0  3  0  0  0  0  0  0
  187.4950  177.8770  146.1140 C   0  0  0  0  0  0  0  0  0  0  0  0
  189.2200  177.4050  147.7610 C   0  0  0  0  0  3  0  0  0  0  0  0
  185.7750  178.2540  144.4280 C   0  0  0  0  0  0  0  0  0  0  0  0
  186.6850  177.8910  143.4310 C   0  0  0  0  0  3  0  0  0  0  0  0
  191.4600  176.5480  147.0750 C   0  0  0  0  0  0  0  0  0  0  0  0
  192.0980  175.6150  146.2660 O   0  0  0  0  0  0  0  0  0  0  0  0
  192.0560  176.9930  148.0920 O   0  0  0  0  0  1  0  0  0  0  0  0
  1 18  1  0  0  0  0
  2 12  1  0  0  0  0
  3 12  2  0  0  0  0
  3  6  1  0  0  0  0
  5  4  1  0  0  0  0
  6  8  2  0  0  0  0
  6  7  1  0  0  0  0
  7  1  2  0  0  0  0
  7  4  1  0  0  0  0
  8  5  1  0  0  0  0
  9  2  2  0  0  0  0
  9 10  1  0  0  0  0
 10 11  2  0  0  0  0
 11 13  1  0  0  0  0
 12 14  1  0  0  0  0
 14 13  2  0  0  0  0
 14  1  1  0  0  0  0
 15 17  1  0  0  0  0
 15 10  1  0  0  0  0
 16 15  2  0  0  0  0
 18 19  1  0  0  0  0
 19 20  1  0  0  0  0
 20 30  1  0  0  0  0
 21 25  1  0  0  0  0
 22 28  1  0  0  0  0
 22 26  1  0  0  0  0
 23 32  1  0  0  0  0
 23 29  1  0  0  0  0
 24 23  2  0  0  0  0
 25 24  1  0  0  0  0
 25 28  2  0  0  0  0
 27 29  2  0  0  0  0
 28 27  1  0  0  0  0
 30 22  2  0  0  0  0
 31 21  2  0  0  0  0
 31 30  1  0  0  0  0
 32 34  1  0  0  0  0
 33 32  2  0  0  0  0
M  END
>  <MODEL>
7

>  <REMARK>
 VINA RESULT:     -10.2      3.801      8.740
  Name = 
  6 active torsions:
  status: ('A' for Active; 'I' for Inactive)
    1  A    between atoms: C_1  and  C_9
    2  A    between atoms: C_3  and  C_25
    3  A    between atoms: C_7  and  C_11
    4  A    between atoms: C_8  and  C_9
    5  A    between atoms: C_8  and  C_18
    6  A    between atoms: C_18  and  C_30
                            x       y       z     vdW  Elec       q    Type
                         _______ _______ _______ _____ _____    ______ ____

>  <TORSDO>
F 6

$$$$
=
 OpenBabel11052415523D

 34 38  0  0  0  0  0  0  0  0999 V2000
  185.1360  178.1970  142.9650 C   0  0  0  0  0  0  0  0  0  0  0  0
  185.4380  178.7080  146.7800 C   0  0  0  0  0  3  0  0  0  0  0  0
  183.6370  178.9830  145.2230 C   0  0  0  0  0  3  0  0  0  0  0  0
  182.9080  178.6390  141.6680 C   0  0  0  0  0  2  0  0  0  0  0  0
  181.6920  179.1020  142.2530 O   0  0  0  0  0  0  0  0  0  0  0  0
  183.0700  178.9450  143.9610 C   0  0  0  0  0  0  0  0  0  0  0  0
  183.7870  178.5560  142.8660 C   0  0  0  0  0  0  0  0  0  0  0  0
  181.8380  179.2740  143.6280 C   0  0  0  0  0  3  0  0  0  0  0  0
  186.6080  178.4140  147.3310 C   0  0  0  0  0  3  0  0  0  0  0  0
  187.8220  177.8670  146.7160 C   0  0  0  0  0  0  0  0  0  0  0  0
  187.9560  177.5870  145.4220 C   0  0  0  0  0  3  0  0  0  0  0  0
  184.9760  178.5950  145.3910 C   0  0  0  0  0  0  0  0  0  0  0  0
  187.0090  177.7390  144.3140 C   0  0  0  0  0  3  0  0  0  0  0  0
  185.7420  178.1700  144.2580 C   0  0  0  0  0  0  0  0  0  0  0  0
  188.9760  177.6140  147.6030 C   0  0  0  0  0  0  0  0  0  0  0  0
  189.1720  178.3410  148.6130 O   0  0  0  0  0  0  0  0  0  0  0  0
  189.8840  176.5480  147.3320 N   0  0  0  0  0  1  0  0  0  0  0  0
  185.9150  177.8770  141.7100 C   0  0  0  0  0  2  0  0  0  0  0  0
  186.8980  178.9920  141.3460 C   0  0  0  0  0  2  0  0  0  0  0  0
  188.3690  178.6030  141.5230 C   0  0  0  0  0  2  0  0  0  0  0  0
  188.7760  177.7520  137.8680 C   0  0  0  0  0  3  0  0  0  0  0  0
  190.3040  177.5490  140.2230 C   0  0  0  0  0  0  0  0  0  0  0  0
  191.7350  175.9510  136.5780 C   0  0  0  0  0  0  0  0  0  0  0  0
  190.4910  176.5920  136.6310 C   0  0  0  0  0  3  0  0  0  0  0  0
  190.0200  177.1240  137.8330 C   0  0  0  0  0  0  0  0  0  0  0  0
  191.1380  177.4890  141.4680 C   0  0  0  0  0  1  0  0  0  0  0  0
  192.0450  176.3830  138.9480 C   0  0  0  0  0  3  0  0  0  0  0  0
  190.7980  177.0220  139.0110 C   0  0  0  0  0  0  0  0  0  0  0  0
  192.5090  175.8520  137.7420 C   0  0  0  0  0  3  0  0  0  0  0  0
  189.0140  178.1250  140.2540 C   0  0  0  0  0  0  0  0  0  0  0  0
  188.2780  178.2470  139.0720 C   0  0  0  0  0  3  0  0  0  0  0  0
  192.2200  175.3880  135.3070 C   0  0  0  0  0  0  0  0  0  0  0  0
  191.6750  174.2100  134.8110 O   0  0  0  0  0  1  0  0  0  0  0  0
  193.1330  175.9670  134.6600 O   0  0  0  0  0  0  0  0  0  0  0  0
  1 14  1  0  0  0  0
  2  9  2  0  0  0  0
  3 12  2  0  0  0  0
  4  5  1  0  0  0  0
  4  7  1  0  0  0  0
  5  8  1  0  0  0  0
  6  3  1  0  0  0  0
  7  1  2  0  0  0  0
  7  6  1  0  0  0  0
  8  6  2  0  0  0  0
 10  9  1  0  0  0  0
 10 15  1  0  0  0  0
 11 10  2  0  0  0  0
 12  2  1  0  0  0  0
 13 11  1  0  0  0  0
 14 13  2  0  0  0  0
 14 12  1  0  0  0  0
 15 16  2  0  0  0  0
 17 15  1  0  0  0  0
 18  1  1  0  0  0  0
 19 20  1  0  0  0  0
 19 18  1  0  0  0  0
 21 31  1  0  0  0  0
 22 30  1  0  0  0  0
 22 26  1  0  0  0  0
 23 24  2  0  0  0  0
 23 29  1  0  0  0  0
 24 25  1  0  0  0  0
 25 21  2  0  0  0  0
 25 28  1  0  0  0  0
 27 28  1  0  0  0  0
 28 22  2  0  0  0  0
 29 27  2  0  0  0  0
 30 20  1  0  0  0  0
 31 30  2  0  0  0  0
 32 23  1  0  0  0  0
 33 32  1  0  0  0  0
 34 32  2  0  0  0  0
M  END
>  <MODEL>
8

>  <REMARK>
 VINA RESULT:      -9.9      1.480      2.584
  Name = 
  6 active torsions:
  status: ('A' for Active; 'I' for Inactive)
    1  A    between atoms: C_1  and  C_9
    2  A    between atoms: C_3  and  C_25
    3  A    between atoms: C_7  and  C_11
    4  A    between atoms: C_8  and  C_9
    5  A    between atoms: C_8  and  C_18
    6  A    between atoms: C_18  and  C_30
                            x       y       z     vdW  Elec       q    Type
                         _______ _______ _______ _____ _____    ______ ____

>  <TORSDO>
F 6

$$$$
=
 OpenBabel11052415523D

 34 38  0  0  0  0  0  0  0  0999 V2000
  182.1880  178.1740  141.0120 C   0  0  0  0  0  0  0  0  0  0  0  0
  180.1940  175.4690  139.1090 C   0  0  0  0  0  3  0  0  0  0  0  0
  179.6100  177.0440  140.8190 C   0  0  0  0  0  3  0  0  0  0  0  0
  181.0940  179.6870  142.8420 C   0  0  0  0  0  2  0  0  0  0  0  0
  179.7350  179.6120  143.2690 O   0  0  0  0  0  0  0  0  0  0  0  0
  179.8800  178.0710  141.7050 C   0  0  0  0  0  0  0  0  0  0  0  0
  181.1220  178.6290  141.7960 C   0  0  0  0  0  0  0  0  0  0  0  0
  179.0470  178.6290  142.5610 C   0  0  0  0  0  3  0  0  0  0  0  0
  180.8490  174.7920  138.1750 C   0  0  0  0  0  3  0  0  0  0  0  0
  182.2300  174.9400  137.7050 C   0  0  0  0  0  0  0  0  0  0  0  0
  183.1060  175.8160  138.1890 C   0  0  0  0  0  3  0  0  0  0  0  0
  180.6290  176.5720  139.9760 C   0  0  0  0  0  0  0  0  0  0  0  0
  182.9650  176.8080  139.2590 C   0  0  0  0  0  3  0  0  0  0  0  0
  181.9360  177.1520  140.0450 C   0  0  0  0  0  0  0  0  0  0  0  0
  182.6730  174.0470  136.6140 C   0  0  0  0  0  0  0  0  0  0  0  0
  182.9690  172.8470  136.8570 O   0  0  0  0  0  0  0  0  0  0  0  0
  182.7760  174.5270  135.2750 N   0  0  0  0  0  1  0  0  0  0  0  0
  183.5690  178.7490  141.2240 C   0  0  0  0  0  2  0  0  0  0  0  0
  184.4170  177.8770  142.1540 C   0  0  0  0  0  2  0  0  0  0  0  0
  184.6580  178.4970  143.5340 C   0  0  0  0  0  2  0  0  0  0  0  0
  188.3030  177.5150  143.6180 C   0  0  0  0  0  3  0  0  0  0  0  0
  186.3030  178.2110  145.4720 C   0  0  0  0  0  0  0  0  0  0  0  0
  190.1300  176.9790  146.7860 C   0  0  0  0  0  0  0  0  0  0  0  0
  189.8380  177.0480  145.4180 C   0  0  0  0  0  3  0  0  0  0  0  0
  188.5760  177.4600  144.9840 C   0  0  0  0  0  0  0  0  0  0  0  0
  185.2520  178.6330  146.4560 C   0  0  0  0  0  1  0  0  0  0  0  0
  187.8810  177.7450  147.2920 C   0  0  0  0  0  3  0  0  0  0  0  0
  187.5790  177.8120  145.9240 C   0  0  0  0  0  0  0  0  0  0  0  0
  189.1450  177.3310  147.7190 C   0  0  0  0  0  3  0  0  0  0  0  0
  186.0220  178.1990  144.0870 C   0  0  0  0  0  0  0  0  0  0  0  0
  187.0320  177.8820  143.1760 C   0  0  0  0  0  3  0  0  0  0  0  0
  191.4610  176.5390  147.2340 C   0  0  0  0  0  0  0  0  0  0  0  0
  192.0550  177.1270  148.3450 O   0  0  0  0  0  1  0  0  0  0  0  0
  192.0740  175.6280  146.6170 O   0  0  0  0  0  0  0  0  0  0  0  0
  1 18  1  0  0  0  0
  1  7  2  0  0  0  0
  2 12  1  0  0  0  0
  3  6  1  0  0  0  0
  4  5  1  0  0  0  0
  6  7  1  0  0  0  0
  6  8  2  0  0  0  0
  7  4  1  0  0  0  0
  8  5  1  0  0  0  0
  9  2  2  0  0  0  0
 10  9  1  0  0  0  0
 10 11  2  0  0  0  0
 11 13  1  0  0  0  0
 12 14  1  0  0  0  0
 12  3  2  0  0  0  0
 13 14  2  0  0  0  0
 14  1  1  0  0  0  0
 15 16  2  0  0  0  0
 15 10  1  0  0  0  0
 17 15  1  0  0  0  0
 18 19  1  0  0  0  0
 19 20  1  0  0  0  0
 20 30  1  0  0  0  0
 21 25  1  0  0  0  0
 22 28  1  0  0  0  0
 22 26  1  0  0  0  0
 23 32  1  0  0  0  0
 23 29  1  0  0  0  0
 24 23  2  0  0  0  0
 25 24  1  0  0  0  0
 25 28  2  0  0  0  0
 27 29  2  0  0  0  0
 28 27  1  0  0  0  0
 30 22  2  0  0  0  0
 31 21  2  0  0  0  0
 31 30  1  0  0  0  0
 32 33  1  0  0  0  0
 34 32  2  0  0  0  0
M  END
>  <MODEL>
9

>  <REMARK>
 VINA RESULT:      -9.8      5.419      9.244
  Name = 
  6 active torsions:
  status: ('A' for Active; 'I' for Inactive)
    1  A    between atoms: C_1  and  C_9
    2  A    between atoms: C_3  and  C_25
    3  A    between atoms: C_7  and  C_11
    4  A    between atoms: C_8  and  C_9
    5  A    between atoms: C_8  and  C_18
    6  A    between atoms: C_18  and  C_30
                            x       y       z     vdW  Elec       q    Type
                         _______ _______ _______ _____ _____    ______ ____

>  <TORSDO>
F 6

$$$$
