=
 OpenBabel11052412473D

 25 29  0  0  1  0  0  0  0  0999 V2000
  187.3830  177.8960  145.5580 C   0  0  0  0  0  0  0  0  0  0  0  0
  186.5770  178.2120  144.4530 C   0  0  0  0  0  0  0  0  0  0  0  0
  185.5150  178.3230  147.0480 C   0  0  0  0  0  3  0  0  0  0  0  0
  188.7320  177.5060  145.5720 C   0  0  0  0  0  0  0  0  0  0  0  0
  191.3740  176.7120  145.9990 C   0  0  0  0  0  3  0  0  0  0  0  0
  184.7420  178.6270  145.9670 N   0  0  0  0  0  0  0  0  0  0  0  0
  189.2080  177.2710  146.8610 C   0  0  0  0  0  0  0  0  0  0  0  0
  190.5210  176.8750  147.1000 C   0  0  0  0  0  3  0  0  0  0  0  0
  184.4310  178.8960  143.5870 C   0  0  0  0  0  0  0  0  0  0  0  0
  183.0050  179.2950  143.7580 C   0  0  0  0  0  1  0  0  0  0  0  0
  187.0520  178.1700  143.1820 N   0  0  0  0  0  0  0  0  0  0  0  0
  190.9060  176.9450  144.6930 C   0  0  0  0  0  3  0  0  0  0  0  0
  186.8410  177.9570  146.8380 C   0  0  0  0  0  0  0  0  0  0  0  0
  187.9920  177.5370  147.9970 S   0  0  0  0  0  0  0  0  0  0  0  0
  184.9580  178.8380  142.3360 N   0  0  0  0  0  0  0  0  0  0  0  0
  189.5790  177.3440  144.4710 C   0  0  0  0  0  3  0  0  0  0  0  0
  186.2550  178.4790  142.1230 C   0  0  0  0  0  0  0  0  0  0  0  0
  185.2340  178.5810  144.6900 C   0  0  0  0  0  0  0  0  0  0  0  0
  187.0510  177.7920  138.3540 C   0  0  1  0  0  3  0  0  0  0  0  0
  186.7880  178.4300  140.7530 C   0  0  2  0  0  3  0  0  0  0  0  0
  185.7450  178.6210  139.3130 S   0  0  0  0  0  0  0  0  0  0  0  0
  187.0220  178.2280  136.8990 C   0  0  0  0  0  1  0  0  0  0  0  0
  188.0570  178.1550  140.4920 C   0  0  0  0  0  2  0  0  0  0  0  0
  188.3840  178.0800  139.0450 C   0  0  2  0  0  3  0  0  0  0  0  0
  188.9030  179.3140  138.6380 O   0  0  0  0  0  1  0  0  0  0  0  0
  1  4  1  0  0  0  0
  1 13  2  0  0  0  0
  2 18  2  0  0  0  0
  2  1  1  0  0  0  0
  4  7  1  0  0  0  0
  5  8  1  0  0  0  0
  6  3  2  0  0  0  0
  7  8  2  0  0  0  0
  7 14  1  0  0  0  0
  9 10  1  0  0  0  0
  9 18  1  0  0  0  0
 11  2  1  0  0  0  0
 12  5  2  0  0  0  0
 13  3  1  0  0  0  0
 13 14  1  0  0  0  0
 15  9  2  0  0  0  0
 16 12  1  0  0  0  0
 16  4  2  0  0  0  0
 17 15  1  0  0  0  0
 17 11  2  0  0  0  0
 18  6  1  0  0  0  0
 19 22  1  6  0  0  0
 19 24  1  0  0  0  0
 19 21  1  0  0  0  0
 20 17  1  1  0  0  0
 21 20  1  0  0  0  0
 23 20  1  0  0  0  0
 24 25  1  6  0  0  0
 24 23  1  0  0  0  0
M  END
>  <MODEL>
1

>  <REMARK>
 VINA RESULT:     -10.2      0.000      0.000
  Name = 
  1 active torsions:
  status: ('A' for Active; 'I' for Inactive)
    1  A    between atoms: C_6  and  C_23
                            x       y       z     vdW  Elec       q    Type
                         _______ _______ _______ _____ _____    ______ ____

>  <TORSDO>
F 1

$$$$
=
 OpenBabel11052412473D

 25 29  0  0  1  0  0  0  0  0999 V2000
  186.8810  177.9300  144.7670 C   0  0  0  0  0  0  0  0  0  0  0  0
  188.0280  177.5950  144.0320 C   0  0  0  0  0  0  0  0  0  0  0  0
  188.0950  177.5680  146.8370 C   0  0  0  0  0  3  0  0  0  0  0  0
  185.6150  178.3040  144.2880 C   0  0  0  0  0  0  0  0  0  0  0  0
  182.9920  179.0760  143.7200 C   0  0  0  0  0  3  0  0  0  0  0  0
  189.2030  177.2450  146.1120 N   0  0  0  0  0  0  0  0  0  0  0  0
  184.7100  178.5680  145.3140 C   0  0  0  0  0  0  0  0  0  0  0  0
  183.3970  178.9540  145.0580 C   0  0  0  0  0  3  0  0  0  0  0  0
  190.3430  176.9140  144.0090 C   0  0  0  0  0  0  0  0  0  0  0  0
  191.6150  176.5380  144.6880 C   0  0  0  0  0  1  0  0  0  0  0  0
  188.0380  177.5950  142.6750 N   0  0  0  0  0  0  0  0  0  0  0  0
  183.8960  178.8130  142.6740 C   0  0  0  0  0  3  0  0  0  0  0  0
  186.9310  177.9120  146.1580 C   0  0  0  0  0  0  0  0  0  0  0  0
  185.4410  178.3490  146.8170 S   0  0  0  0  0  0  0  0  0  0  0  0
  190.2970  176.9310  142.6510 N   0  0  0  0  0  0  0  0  0  0  0  0
  185.2160  178.4240  142.9530 C   0  0  0  0  0  3  0  0  0  0  0  0
  189.1610  177.2680  141.9790 C   0  0  0  0  0  0  0  0  0  0  0  0
  189.2000  177.2490  144.7430 C   0  0  0  0  0  0  0  0  0  0  0  0
  189.9090  177.6060  138.1530 C   0  0  1  0  0  3  0  0  0  0  0  0
  189.1510  177.2720  140.5080 C   0  0  2  0  0  3  0  0  0  0  0  0
  190.4860  176.5800  139.5400 S   0  0  0  0  0  0  0  0  0  0  0  0
  190.2690  176.9760  136.8190 C   0  0  0  0  0  1  0  0  0  0  0  0
  188.1990  177.8640  139.8030 C   0  0  0  0  0  2  0  0  0  0  0  0
  188.4060  177.8220  138.3340 C   0  0  2  0  0  3  0  0  0  0  0  0
  187.6790  176.7480  137.8090 O   0  0  0  0  0  1  0  0  0  0  0  0
  1 13  2  0  0  0  0
  2 18  2  0  0  0  0
  2  1  1  0  0  0  0
  4  1  1  0  0  0  0
  4  7  1  0  0  0  0
  5  8  1  0  0  0  0
  6  3  2  0  0  0  0
  7 14  1  0  0  0  0
  8  7  2  0  0  0  0
  9 10  1  0  0  0  0
  9 18  1  0  0  0  0
 11  2  1  0  0  0  0
 12 16  1  0  0  0  0
 12  5  2  0  0  0  0
 13 14  1  0  0  0  0
 13  3  1  0  0  0  0
 15  9  2  0  0  0  0
 16  4  2  0  0  0  0
 17 15  1  0  0  0  0
 17 11  2  0  0  0  0
 18  6  1  0  0  0  0
 19 22  1  6  0  0  0
 19 24  1  0  0  0  0
 19 21  1  0  0  0  0
 20 17  1  1  0  0  0
 21 20  1  0  0  0  0
 23 20  1  0  0  0  0
 24 25  1  1  0  0  0
 24 23  1  0  0  0  0
M  END
>  <MODEL>
2

>  <REMARK>
 VINA RESULT:     -10.2      2.078      4.666
  Name = 
  1 active torsions:
  status: ('A' for Active; 'I' for Inactive)
    1  A    between atoms: C_6  and  C_23
                            x       y       z     vdW  Elec       q    Type
                         _______ _______ _______ _____ _____    ______ ____

>  <TORSDO>
F 1

$$$$
=
 OpenBabel11052412473D

 25 29  0  0  1  0  0  0  0  0999 V2000
  186.4100  178.2670  144.5120 C   0  0  0  0  0  0  0  0  0  0  0  0
  186.5370  178.3180  143.1150 C   0  0  0  0  0  0  0  0  0  0  0  0
  184.1270  179.0750  144.3370 C   0  0  0  0  0  3  0  0  0  0  0  0
  187.3640  177.8700  145.4620 C   0  0  0  0  0  0  0  0  0  0  0  0
  188.9800  177.1590  147.6260 C   0  0  0  0  0  3  0  0  0  0  0  0
  184.2630  179.1190  142.9820 N   0  0  0  0  0  0  0  0  0  0  0  0
  186.8840  177.9480  146.7680 C   0  0  0  0  0  0  0  0  0  0  0  0
  187.6700  177.6000  147.8640 C   0  0  0  0  0  3  0  0  0  0  0  0
  185.5560  178.8070  140.9650 C   0  0  0  0  0  0  0  0  0  0  0  0
  184.4290  179.2590  140.1010 C   0  0  0  0  0  1  0  0  0  0  0  0
  187.6850  177.9610  142.4850 N   0  0  0  0  0  0  0  0  0  0  0  0
  189.4770  177.0760  146.3120 C   0  0  0  0  0  3  0  0  0  0  0  0
  185.2080  178.6460  145.1020 C   0  0  0  0  0  0  0  0  0  0  0  0
  185.2920  178.5020  146.7810 S   0  0  0  0  0  0  0  0  0  0  0  0
  186.7290  178.4370  140.3870 N   0  0  0  0  0  0  0  0  0  0  0  0
  188.6700  177.4310  145.2190 C   0  0  0  0  0  3  0  0  0  0  0  0
  187.7900  178.0160  141.1290 C   0  0  0  0  0  0  0  0  0  0  0  0
  185.4270  178.7560  142.3590 C   0  0  0  0  0  0  0  0  0  0  0  0
  190.6120  176.5290  138.8630 C   0  0  1  0  0  3  0  0  0  0  0  0
  189.0430  177.6270  140.4640 C   0  0  2  0  0  3  0  0  0  0  0  0
  189.2600  177.7350  138.6920 S   0  0  0  0  0  0  0  0  0  0  0  0
  191.6350  176.6920  137.7520 C   0  0  0  0  0  1  0  0  0  0  0  0
  190.0600  177.0890  141.1200 C   0  0  0  0  0  2  0  0  0  0  0  0
  191.2060  176.6970  140.2610 C   0  0  2  0  0  3  0  0  0  0  0  0
  192.1550  177.7250  140.2820 O   0  0  0  0  0  1  0  0  0  0  0  0
  1 13  2  0  0  0  0
  1  4  1  0  0  0  0
  2  1  1  0  0  0  0
  3 13  1  0  0  0  0
  4  7  1  0  0  0  0
  5  8  1  0  0  0  0
  6  3  2  0  0  0  0
  7 14  1  0  0  0  0
  7  8  2  0  0  0  0
  9 18  1  0  0  0  0
 10  9  1  0  0  0  0
 11  2  1  0  0  0  0
 12  5  2  0  0  0  0
 13 14  1  0  0  0  0
 15  9  2  0  0  0  0
 15 17  1  0  0  0  0
 16  4  2  0  0  0  0
 16 12  1  0  0  0  0
 17 11  2  0  0  0  0
 18  6  1  0  0  0  0
 18  2  2  0  0  0  0
 19 22  1  6  0  0  0
 19 24  1  0  0  0  0
 20 23  1  0  0  0  0
 20 17  1  6  0  0  0
 21 19  1  0  0  0  0
 21 20  1  0  0  0  0
 24 25  1  6  0  0  0
 24 23  1  0  0  0  0
M  END
>  <MODEL>
3

>  <REMARK>
 VINA RESULT:      -9.9      2.025      2.845
  Name = 
  1 active torsions:
  status: ('A' for Active; 'I' for Inactive)
    1  A    between atoms: C_6  and  C_23
                            x       y       z     vdW  Elec       q    Type
                         _______ _______ _______ _____ _____    ______ ____

>  <TORSDO>
F 1

$$$$
=
 OpenBabel11052412473D

 25 29  0  0  1  0  0  0  0  0999 V2000
  187.9670  177.6810  145.6460 C   0  0  0  0  0  0  0  0  0  0  0  0
  187.2700  177.9360  144.4550 C   0  0  0  0  0  0  0  0  0  0  0  0
  185.9930  178.2640  146.9320 C   0  0  0  0  0  3  0  0  0  0  0  0
  189.2960  177.2570  145.8070 C   0  0  0  0  0  0  0  0  0  0  0  0
  191.8650  176.4260  146.5200 C   0  0  0  0  0  3  0  0  0  0  0  0
  185.3270  178.5090  145.7680 N   0  0  0  0  0  0  0  0  0  0  0  0
  189.6520  177.1040  147.1460 C   0  0  0  0  0  0  0  0  0  0  0  0
  190.9260  176.6920  147.5280 C   0  0  0  0  0  3  0  0  0  0  0  0
  185.2300  178.6120  143.3570 C   0  0  0  0  0  0  0  0  0  0  0  0
  183.8090  179.0600  143.3730 C   0  0  0  0  0  1  0  0  0  0  0  0
  187.8510  177.7900  143.2370 N   0  0  0  0  0  0  0  0  0  0  0  0
  191.5190  176.5760  145.1640 C   0  0  0  0  0  3  0  0  0  0  0  0
  187.3190  177.8490  146.8660 C   0  0  0  0  0  0  0  0  0  0  0  0
  188.3510  177.4840  148.1490 S   0  0  0  0  0  0  0  0  0  0  0  0
  185.8620  178.4490  142.1640 N   0  0  0  0  0  0  0  0  0  0  0  0
  190.2290  176.9930  144.7990 C   0  0  0  0  0  3  0  0  0  0  0  0
  187.1590  178.0420  142.0930 C   0  0  0  0  0  0  0  0  0  0  0  0
  185.9240  178.3580  144.5460 C   0  0  0  0  0  0  0  0  0  0  0  0
  189.5150  178.0350  138.9680 C   0  0  1  0  0  3  0  0  0  0  0  0
  187.8060  177.8790  140.7820 C   0  0  2  0  0  3  0  0  0  0  0  0
  189.4700  177.2460  140.6080 S   0  0  0  0  0  0  0  0  0  0  0  0
  190.4670  177.3060  138.0360 C   0  0  0  0  0  1  0  0  0  0  0  0
  187.2370  178.2720  139.6520 C   0  0  0  0  0  2  0  0  0  0  0  0
  188.0800  178.0900  138.4440 C   0  0  2  0  0  3  0  0  0  0  0  0
  187.7250  176.8850  137.8270 O   0  0  0  0  0  1  0  0  0  0  0  0
  1  4  1  0  0  0  0
  1 13  2  0  0  0  0
  2 18  2  0  0  0  0
  2  1  1  0  0  0  0
  4  7  1  0  0  0  0
  5  8  1  0  0  0  0
  6  3  2  0  0  0  0
  7  8  2  0  0  0  0
  7 14  1  0  0  0  0
  9 10  1  0  0  0  0
  9 18  1  0  0  0  0
 11  2  1  0  0  0  0
 12  5  2  0  0  0  0
 13  3  1  0  0  0  0
 13 14  1  0  0  0  0
 15  9  2  0  0  0  0
 16 12  1  0  0  0  0
 16  4  2  0  0  0  0
 17 15  1  0  0  0  0
 17 11  2  0  0  0  0
 18  6  1  0  0  0  0
 19 22  1  6  0  0  0
 19 21  1  0  0  0  0
 20 17  1  1  0  0  0
 21 20  1  0  0  0  0
 23 20  1  0  0  0  0
 24 25  1  1  0  0  0
 24 19  1  0  0  0  0
 24 23  1  0  0  0  0
M  END
>  <MODEL>
4

>  <REMARK>
 VINA RESULT:      -9.9      1.328      1.538
  Name = 
  1 active torsions:
  status: ('A' for Active; 'I' for Inactive)
    1  A    between atoms: C_6  and  C_23
                            x       y       z     vdW  Elec       q    Type
                         _______ _______ _______ _____ _____    ______ ____

>  <TORSDO>
F 1

$$$$
=
 OpenBabel11052412473D

 25 29  0  0  1  0  0  0  0  0999 V2000
  189.4030  177.4850  144.1950 C   0  0  0  0  0  0  0  0  0  0  0  0
  189.0590  177.6270  142.8420 C   0  0  0  0  0  0  0  0  0  0  0  0
  191.6740  176.9080  143.5630 C   0  0  0  0  0  3  0  0  0  0  0  0
  188.5880  177.6580  145.3260 C   0  0  0  0  0  0  0  0  0  0  0  0
  187.2940  177.9080  147.7880 C   0  0  0  0  0  3  0  0  0  0  0  0
  191.3280  177.0490  142.2520 N   0  0  0  0  0  0  0  0  0  0  0  0
  189.2720  177.4320  146.5190 C   0  0  0  0  0  0  0  0  0  0  0  0
  188.6500  177.5500  147.7590 C   0  0  0  0  0  3  0  0  0  0  0  0
  189.7160  177.5410  140.5220 C   0  0  0  0  0  0  0  0  0  0  0  0
  190.7180  177.3160  139.4410 C   0  0  0  0  0  1  0  0  0  0  0  0
  187.8060  177.9740  142.4520 N   0  0  0  0  0  0  0  0  0  0  0  0
  186.5920  178.1390  146.5910 C   0  0  0  0  0  3  0  0  0  0  0  0
  190.7040  177.1280  144.5360 C   0  0  0  0  0  0  0  0  0  0  0  0
  190.8770  177.0190  146.2100 S   0  0  0  0  0  0  0  0  0  0  0  0
  188.4460  177.8900  140.1870 N   0  0  0  0  0  0  0  0  0  0  0  0
  187.2360  178.0150  145.3500 C   0  0  0  0  0  3  0  0  0  0  0  0
  187.4920  178.1080  141.1340 C   0  0  0  0  0  0  0  0  0  0  0  0
  190.0600  177.3990  141.8710 C   0  0  0  0  0  0  0  0  0  0  0  0
  183.6430  178.4220  140.5060 C   0  0  1  0  0  3  0  0  0  0  0  0
  186.1280  178.4820  140.7300 C   0  0  2  0  0  3  0  0  0  0  0  0
  184.7880  178.6290  141.9050 S   0  0  0  0  0  0  0  0  0  0  0  0
  182.3120  179.1000  140.7830 C   0  0  0  0  0  1  0  0  0  0  0  0
  185.7810  178.6480  139.4620 C   0  0  0  0  0  2  0  0  0  0  0  0
  184.3420  178.9520  139.2540 C   0  0  2  0  0  3  0  0  0  0  0  0
  184.1880  180.3380  139.1430 O   0  0  0  0  0  1  0  0  0  0  0  0
  1 13  2  0  0  0  0
  1  4  1  0  0  0  0
  2  1  1  0  0  0  0
  3 13  1  0  0  0  0
  4 16  2  0  0  0  0
  4  7  1  0  0  0  0
  6  3  2  0  0  0  0
  7  8  2  0  0  0  0
  8  5  1  0  0  0  0
  9 18  1  0  0  0  0
 10  9  1  0  0  0  0
 11  2  1  0  0  0  0
 12  5  2  0  0  0  0
 13 14  1  0  0  0  0
 14  7  1  0  0  0  0
 15  9  2  0  0  0  0
 15 17  1  0  0  0  0
 16 12  1  0  0  0  0
 17 11  2  0  0  0  0
 18  6  1  0  0  0  0
 18  2  2  0  0  0  0
 19 22  1  1  0  0  0
 19 21  1  0  0  0  0
 20 17  1  6  0  0  0
 20 21  1  0  0  0  0
 23 20  1  0  0  0  0
 24 25  1  1  0  0  0
 24 23  1  0  0  0  0
 24 19  1  0  0  0  0
M  END
>  <MODEL>
5

>  <REMARK>
 VINA RESULT:      -9.7      2.284      4.477
  Name = 
  1 active torsions:
  status: ('A' for Active; 'I' for Inactive)
    1  A    between atoms: C_6  and  C_23
                            x       y       z     vdW  Elec       q    Type
                         _______ _______ _______ _____ _____    ______ ____

>  <TORSDO>
F 1

$$$$
=
 OpenBabel11052412473D

 25 29  0  0  1  0  0  0  0  0999 V2000
  187.1680  177.9090  145.3720 C   0  0  0  0  0  0  0  0  0  0  0  0
  188.4820  177.5460  145.0390 C   0  0  0  0  0  0  0  0  0  0  0  0
  187.7070  177.7150  147.7310 C   0  0  0  0  0  3  0  0  0  0  0  0
  186.1050  178.2240  144.5110 C   0  0  0  0  0  0  0  0  0  0  0  0
  183.7730  178.9050  143.1330 C   0  0  0  0  0  3  0  0  0  0  0  0
  188.9800  177.3630  147.3950 N   0  0  0  0  0  0  0  0  0  0  0  0
  184.9340  178.5420  145.1990 C   0  0  0  0  0  0  0  0  0  0  0  0
  183.7590  178.8840  144.5360 C   0  0  0  0  0  3  0  0  0  0  0  0
  190.6970  176.9090  145.7570 C   0  0  0  0  0  0  0  0  0  0  0  0
  191.7060  176.6060  146.8100 C   0  0  0  0  0  1  0  0  0  0  0  0
  188.8970  177.4520  143.7500 N   0  0  0  0  0  0  0  0  0  0  0  0
  184.9480  178.5870  142.4260 C   0  0  0  0  0  3  0  0  0  0  0  0
  186.8000  177.9880  146.7120 C   0  0  0  0  0  0  0  0  0  0  0  0
  185.1830  178.4420  146.8640 S   0  0  0  0  0  0  0  0  0  0  0  0
  191.0580  176.8310  144.4490 N   0  0  0  0  0  0  0  0  0  0  0  0
  186.1230  178.2440  143.1130 C   0  0  0  0  0  3  0  0  0  0  0  0
  190.1760  177.0980  143.4470 C   0  0  0  0  0  0  0  0  0  0  0  0
  189.3860  177.2720  146.0900 C   0  0  0  0  0  0  0  0  0  0  0  0
  191.8230  177.4850  139.9190 C   0  0  1  0  0  3  0  0  0  0  0  0
  190.6060  177.0000  142.0440 C   0  0  2  0  0  3  0  0  0  0  0  0
  192.3300  176.9260  141.5740 S   0  0  0  0  0  0  0  0  0  0  0  0
  192.7940  177.0000  138.8560 C   0  0  0  0  0  1  0  0  0  0  0  0
  189.7530  177.0480  141.0310 C   0  0  0  0  0  2  0  0  0  0  0  0
  190.3890  177.0070  139.6900 C   0  0  2  0  0  3  0  0  0  0  0  0
  190.3680  175.6880  139.2240 O   0  0  0  0  0  1  0  0  0  0  0  0
  1 13  1  0  0  0  0
  2  1  2  0  0  0  0
  2 18  1  0  0  0  0
  4  7  1  0  0  0  0
  4  1  1  0  0  0  0
  5  8  1  0  0  0  0
  6  3  1  0  0  0  0
  7 14  1  0  0  0  0
  8  7  2  0  0  0  0
  9 18  1  0  0  0  0
  9 10  1  0  0  0  0
 11  2  1  0  0  0  0
 12 16  1  0  0  0  0
 12  5  2  0  0  0  0
 13 14  1  0  0  0  0
 13  3  2  0  0  0  0
 15  9  2  0  0  0  0
 16  4  2  0  0  0  0
 17 11  2  0  0  0  0
 17 15  1  0  0  0  0
 18  6  2  0  0  0  0
 19 22  1  6  0  0  0
 19 21  1  0  0  0  0
 20 17  1  1  0  0  0
 21 20  1  0  0  0  0
 23 20  1  0  0  0  0
 24 25  1  1  0  0  0
 24 19  1  0  0  0  0
 24 23  1  0  0  0  0
M  END
>  <MODEL>
6

>  <REMARK>
 VINA RESULT:      -9.7      2.711      5.088
  Name = 
  1 active torsions:
  status: ('A' for Active; 'I' for Inactive)
    1  A    between atoms: C_6  and  C_23
                            x       y       z     vdW  Elec       q    Type
                         _______ _______ _______ _____ _____    ______ ____

>  <TORSDO>
F 1

$$$$
=
 OpenBabel11052412473D

 25 29  0  0  1  0  0  0  0  0999 V2000
  186.2730  178.3290  142.1440 C   0  0  0  0  0  0  0  0  0  0  0  0
  187.6150  177.9750  142.3490 C   0  0  0  0  0  0  0  0  0  0  0  0
  186.6620  178.4430  139.7510 C   0  0  0  0  0  3  0  0  0  0  0  0
  185.2590  178.4980  143.1010 C   0  0  0  0  0  0  0  0  0  0  0  0
  183.0040  178.9220  144.6930 C   0  0  0  0  0  3  0  0  0  0  0  0
  187.9640  178.0990  139.9620 N   0  0  0  0  0  0  0  0  0  0  0  0
  184.0380  178.8540  142.5300 C   0  0  0  0  0  0  0  0  0  0  0  0
  182.8990  179.0710  143.3020 C   0  0  0  0  0  3  0  0  0  0  0  0
  189.7950  177.5110  141.4240 C   0  0  0  0  0  0  0  0  0  0  0  0
  190.7420  177.3760  140.2810 C   0  0  0  0  0  1  0  0  0  0  0  0
  188.1150  177.7400  143.5880 N   0  0  0  0  0  0  0  0  0  0  0  0
  184.2310  178.5630  145.2820 C   0  0  0  0  0  3  0  0  0  0  0  0
  185.8160  178.5580  140.8500 C   0  0  0  0  0  0  0  0  0  0  0  0
  184.1800  178.9670  140.8540 S   0  0  0  0  0  0  0  0  0  0  0  0
  190.2430  177.2870  142.6870 N   0  0  0  0  0  0  0  0  0  0  0  0
  185.3680  178.3480  144.4870 C   0  0  0  0  0  3  0  0  0  0  0  0
  189.4200  177.3970  143.7660 C   0  0  0  0  0  0  0  0  0  0  0  0
  188.4560  177.8640  141.2180 C   0  0  0  0  0  0  0  0  0  0  0  0
  191.1560  176.0500  147.0040 C   0  0  1  0  0  3  0  0  0  0  0  0
  189.9450  177.1480  145.1180 C   0  0  2  0  0  3  0  0  0  0  0  0
  191.6710  176.7910  145.4240 S   0  0  0  0  0  0  0  0  0  0  0  0
  192.2700  176.1290  148.0340 C   0  0  0  0  0  1  0  0  0  0  0  0
  189.1640  177.0860  146.1850 C   0  0  0  0  0  2  0  0  0  0  0  0
  189.8720  176.7530  147.4470 C   0  0  2  0  0  3  0  0  0  0  0  0
  190.1610  177.9410  148.1270 O   0  0  0  0  0  1  0  0  0  0  0  0
  1  2  1  0  0  0  0
  1  4  1  0  0  0  0
  2 11  1  0  0  0  0
  3  6  2  0  0  0  0
  3 13  1  0  0  0  0
  4 16  1  0  0  0  0
  5 12  1  0  0  0  0
  6 18  1  0  0  0  0
  7  4  2  0  0  0  0
  7  8  1  0  0  0  0
  8  5  2  0  0  0  0
  9 15  2  0  0  0  0
 10  9  1  0  0  0  0
 11 17  2  0  0  0  0
 13 14  1  0  0  0  0
 13  1  2  0  0  0  0
 14  7  1  0  0  0  0
 15 17  1  0  0  0  0
 16 12  2  0  0  0  0
 18  9  1  0  0  0  0
 18  2  2  0  0  0  0
 19 24  1  0  0  0  0
 19 22  1  1  0  0  0
 20 17  1  6  0  0  0
 20 21  1  0  0  0  0
 20 23  1  0  0  0  0
 21 19  1  0  0  0  0
 23 24  1  0  0  0  0
 24 25  1  6  0  0  0
M  END
>  <MODEL>
7

>  <REMARK>
 VINA RESULT:      -9.5      2.764      7.077
  Name = 
  1 active torsions:
  status: ('A' for Active; 'I' for Inactive)
    1  A    between atoms: C_6  and  C_23
                            x       y       z     vdW  Elec       q    Type
                         _______ _______ _______ _____ _____    ______ ____

>  <TORSDO>
F 1

$$$$
=
 OpenBabel11052412473D

 25 29  0  0  1  0  0  0  0  0999 V2000
  189.2570  177.6260  144.0050 C   0  0  0  0  0  0  0  0  0  0  0  0
  188.5020  177.8660  142.8470 C   0  0  0  0  0  0  0  0  0  0  0  0
  191.2660  177.4250  142.6580 C   0  0  0  0  0  3  0  0  0  0  0  0
  188.8170  177.5670  145.3370 C   0  0  0  0  0  0  0  0  0  0  0  0
  188.3270  177.3760  148.0800 C   0  0  0  0  0  3  0  0  0  0  0  0
  190.5220  177.6600  141.5410 N   0  0  0  0  0  0  0  0  0  0  0  0
  189.8540  177.3060  146.2320 C   0  0  0  0  0  0  0  0  0  0  0  0
  189.6360  177.2050  147.6040 C   0  0  0  0  0  3  0  0  0  0  0  0
  188.4170  178.1180  140.4480 C   0  0  0  0  0  0  0  0  0  0  0  0
  189.0540  178.1450  139.1010 C   0  0  0  0  0  1  0  0  0  0  0  0
  187.1630  178.0840  142.8950 N   0  0  0  0  0  0  0  0  0  0  0  0
  187.2720  177.6400  147.1870 C   0  0  0  0  0  3  0  0  0  0  0  0
  190.6270  177.4080  143.8930 C   0  0  0  0  0  0  0  0  0  0  0  0
  191.3170  177.1440  145.4100 S   0  0  0  0  0  0  0  0  0  0  0  0
  187.0790  178.3300  140.5540 N   0  0  0  0  0  0  0  0  0  0  0  0
  187.5110  177.7370  145.8070 C   0  0  0  0  0  3  0  0  0  0  0  0
  186.4470  178.3170  141.7600 C   0  0  0  0  0  0  0  0  0  0  0  0
  189.1720  177.8780  141.6020 C   0  0  0  0  0  0  0  0  0  0  0  0
  182.6550  178.5470  142.6980 C   0  0  1  0  0  3  0  0  0  0  0  0
  184.9960  178.5490  141.8320 C   0  0  2  0  0  3  0  0  0  0  0  0
  184.2160  179.2980  143.2560 S   0  0  0  0  0  0  0  0  0  0  0  0
  181.4590  179.3570  143.1670 C   0  0  0  0  0  1  0  0  0  0  0  0
  184.1620  178.1400  140.8880 C   0  0  0  0  0  2  0  0  0  0  0  0
  182.7300  178.4030  141.1780 C   0  0  2  0  0  3  0  0  0  0  0  0
  182.3550  179.5930  140.5440 O   0  0  0  0  0  1  0  0  0  0  0  0
  1  4  1  0  0  0  0
  2 11  1  0  0  0  0
  2  1  1  0  0  0  0
  3 13  1  0  0  0  0
  4 16  2  0  0  0  0
  4  7  1  0  0  0  0
  6 18  1  0  0  0  0
  6  3  2  0  0  0  0
  7  8  2  0  0  0  0
  8  5  1  0  0  0  0
  9 15  2  0  0  0  0
  9 18  1  0  0  0  0
 10  9  1  0  0  0  0
 12  5  2  0  0  0  0
 13  1  2  0  0  0  0
 13 14  1  0  0  0  0
 14  7  1  0  0  0  0
 15 17  1  0  0  0  0
 16 12  1  0  0  0  0
 17 11  2  0  0  0  0
 18  2  2  0  0  0  0
 19 22  1  6  0  0  0
 19 21  1  0  0  0  0
 20 17  1  1  0  0  0
 20 21  1  0  0  0  0
 23 24  1  0  0  0  0
 23 20  1  0  0  0  0
 24 25  1  6  0  0  0
 24 19  1  0  0  0  0
M  END
>  <MODEL>
8

>  <REMARK>
 VINA RESULT:      -9.2      2.411      4.708
  Name = 
  1 active torsions:
  status: ('A' for Active; 'I' for Inactive)
    1  A    between atoms: C_6  and  C_23
                            x       y       z     vdW  Elec       q    Type
                         _______ _______ _______ _____ _____    ______ ____

>  <TORSDO>
F 1

$$$$
=
 OpenBabel11052412473D

 25 29  0  0  1  0  0  0  0  0999 V2000
  189.4240  177.5080  143.9940 C   0  0  0  0  0  0  0  0  0  0  0  0
  189.0270  177.6600  142.6570 C   0  0  0  0  0  0  0  0  0  0  0  0
  191.6880  177.0150  143.2720 C   0  0  0  0  0  3  0  0  0  0  0  0
  188.6450  177.6360  145.1550 C   0  0  0  0  0  0  0  0  0  0  0  0
  187.4340  177.8040  147.6660 C   0  0  0  0  0  3  0  0  0  0  0  0
  191.2910  177.1660  141.9770 N   0  0  0  0  0  0  0  0  0  0  0  0
  189.3790  177.4130  146.3200 C   0  0  0  0  0  0  0  0  0  0  0  0
  188.7990  177.4910  147.5830 C   0  0  0  0  0  3  0  0  0  0  0  0
  189.6030  177.6320  140.3130 C   0  0  0  0  0  0  0  0  0  0  0  0
  190.5720  177.4580  139.1940 C   0  0  0  0  0  1  0  0  0  0  0  0
  187.7510  177.9710  142.3170 N   0  0  0  0  0  0  0  0  0  0  0  0
  186.6820  178.0300  146.4990 C   0  0  0  0  0  3  0  0  0  0  0  0
  190.7470  177.1880  144.2820 C   0  0  0  0  0  0  0  0  0  0  0  0
  190.9840  177.0580  145.9470 S   0  0  0  0  0  0  0  0  0  0  0  0
  188.3110  177.9450  140.0300 N   0  0  0  0  0  0  0  0  0  0  0  0
  187.2840  177.9480  145.2330 C   0  0  0  0  0  3  0  0  0  0  0  0
  187.3850  178.1160  141.0130 C   0  0  0  0  0  0  0  0  0  0  0  0
  190.0000  177.4800  141.6470 C   0  0  0  0  0  0  0  0  0  0  0  0
  184.0530  179.5390  139.5360 C   0  0  1  0  0  3  0  0  0  0  0  0
  185.9960  178.4520  140.6640 C   0  0  2  0  0  3  0  0  0  0  0  0
  185.4100  178.4650  138.9750 S   0  0  0  0  0  0  0  0  0  0  0  0
  182.8280  179.3790  138.6530 C   0  0  0  0  0  1  0  0  0  0  0  0
  185.1120  178.8510  141.5660 C   0  0  0  0  0  2  0  0  0  0  0  0
  183.7850  179.2130  141.0060 C   0  0  2  0  0  3  0  0  0  0  0  0
  182.9310  178.1120  141.1270 O   0  0  0  0  0  1  0  0  0  0  0  0
  1 13  2  0  0  0  0
  1  4  1  0  0  0  0
  2  1  1  0  0  0  0
  3 13  1  0  0  0  0
  4 16  2  0  0  0  0
  4  7  1  0  0  0  0
  6  3  2  0  0  0  0
  7  8  2  0  0  0  0
  8  5  1  0  0  0  0
  9 18  1  0  0  0  0
 10  9  1  0  0  0  0
 11  2  1  0  0  0  0
 12  5  2  0  0  0  0
 13 14  1  0  0  0  0
 14  7  1  0  0  0  0
 15  9  2  0  0  0  0
 15 17  1  0  0  0  0
 16 12  1  0  0  0  0
 17 11  2  0  0  0  0
 18  6  1  0  0  0  0
 18  2  2  0  0  0  0
 19 22  1  6  0  0  0
 19 24  1  0  0  0  0
 20 17  1  6  0  0  0
 20 23  1  0  0  0  0
 21 19  1  0  0  0  0
 21 20  1  0  0  0  0
 24 25  1  6  0  0  0
 24 23  1  0  0  0  0
M  END
>  <MODEL>
9

>  <REMARK>
 VINA RESULT:      -9.2      2.481      4.518
  Name = 
  1 active torsions:
  status: ('A' for Active; 'I' for Inactive)
    1  A    between atoms: C_6  and  C_23
                            x       y       z     vdW  Elec       q    Type
                         _______ _______ _______ _____ _____    ______ ____

>  <TORSDO>
F 1

$$$$
