=
 OpenBabel11052415593D

 34 38  0  0  1  0  0  0  0  0999 V2000
  189.7390  176.1380  144.2090 C   0  0  1  0  0  3  0  0  0  0  0  0
  187.3760  177.6430  146.6930 C   0  0  0  0  0  3  0  0  0  0  0  0
  189.7060  177.4900  146.7360 O   0  0  0  0  0  0  0  0  0  0  0  0
  190.6040  176.6980  141.8580 C   0  0  2  0  0  3  0  0  0  0  0  0
  189.8470  175.7020  142.7400 C   0  0  0  0  0  2  0  0  0  0  0  0
  191.6630  177.7430  143.8960 N   0  0  0  0  0  0  0  0  0  0  0  0
  190.8740  178.9740  143.8660 C   0  0  0  0  0  1  0  0  0  0  0  0
  191.8760  177.2410  142.5330 C   0  0  0  0  0  2  0  0  0  0  0  0
  190.9460  177.1450  146.1820 C   0  0  0  0  0  0  0  0  0  0  0  0
  191.0630  176.7020  144.7490 C   0  0  1  0  0  3  0  0  0  0  0  0
  191.9830  177.2320  146.8890 O   0  0  0  0  0  0  0  0  0  0  0  0
  186.0140  177.4640  146.1140 C   0  0  0  0  0  2  0  0  0  0  0  0
  185.7830  178.3860  144.9570 C   0  0  0  0  0  0  0  0  0  0  0  0
  186.5160  178.2920  143.8480 C   0  0  0  0  0  3  0  0  0  0  0  0
  188.5040  177.3940  146.0250 C   0  0  0  0  0  0  0  0  0  0  0  0
  187.6800  177.4040  143.6590 C   0  0  0  0  0  3  0  0  0  0  0  0
  188.5420  176.9740  144.5970 C   0  0  0  0  0  0  0  0  0  0  0  0
  184.7540  179.3320  144.9910 O   0  0  0  0  0  0  0  0  0  0  0  0
  182.9620  178.9270  143.4300 C   0  0  0  0  0  1  0  0  0  0  0  0
  183.3780  178.9850  144.8880 C   0  0  0  0  0  2  0  0  0  0  0  0
  189.6870  177.7960  141.3130 C   0  0  0  0  0  2  0  0  0  0  0  0
  187.3780  178.4430  139.3940 O   0  0  0  0  0  0  0  0  0  0  0  0
  190.6480  176.8990  139.1240 C   0  0  0  0  0  2  0  0  0  0  0  0
  187.8610  175.3970  136.2230 C   0  0  1  0  0  3  0  0  0  0  0  0
  187.3050  176.1640  137.4310 C   0  0  0  0  0  2  0  0  0  0  0  0
  188.4140  176.6930  138.2160 N   0  0  0  0  0  0  0  0  0  0  0  0
  190.0520  175.1250  137.4470 C   0  0  0  0  0  3  0  0  0  0  0  0
  189.7210  176.1560  138.2200 C   0  0  0  0  0  0  0  0  0  0  0  0
  188.9910  174.4350  136.6300 C   0  0  0  0  0  2  0  0  0  0  0  0
  189.7380  177.9570  139.7900 C   0  0  1  0  0  3  0  0  0  0  0  0
  188.4010  177.7500  139.1500 C   0  0  0  0  0  0  0  0  0  0  0  0
  186.7610  174.6830  135.4370 C   0  0  0  0  0  2  0  0  0  0  0  0
  185.5550  174.3070  136.2910 C   0  0  0  0  0  2  0  0  0  0  0  0
  185.6570  172.9240  136.7230 N   0  0  0  0  0  1  0  0  0  0  0  0
  1  5  1  6  0  0  0
  1 17  1  0  0  0  0
  1 10  1  0  0  0  0
  4 21  1  1  0  0  0
  4  8  1  0  0  0  0
  4  5  1  0  0  0  0
  6 10  1  0  0  0  0
  7  6  1  0  0  0  0
  8  6  1  0  0  0  0
  9  3  1  0  0  0  0
  9 11  2  0  0  0  0
 10  9  1  1  0  0  0
 12  2  1  0  0  0  0
 13 18  1  0  0  0  0
 13 12  1  0  0  0  0
 14 13  2  0  0  0  0
 15  2  2  0  0  0  0
 15  3  1  0  0  0  0
 16 14  1  0  0  0  0
 16 17  2  0  0  0  0
 17 15  1  0  0  0  0
 19 20  1  0  0  0  0
 20 18  1  0  0  0  0
 23 30  1  0  0  0  0
 24 32  1  1  0  0  0
 24 29  1  0  0  0  0
 24 25  1  0  0  0  0
 25 26  1  0  0  0  0
 26 28  1  0  0  0  0
 26 31  1  0  0  0  0
 27 28  2  0  0  0  0
 28 23  1  0  0  0  0
 29 27  1  0  0  0  0
 30 21  1  1  0  0  0
 31 22  2  0  0  0  0
 31 30  1  0  0  0  0
 32 33  1  0  0  0  0
 33 34  1  0  0  0  0
M  END
>  <MODEL>
1

>  <REMARK>
 VINA RESULT:      -9.3      0.000      0.000
  Name = 
  6 active torsions:
  status: ('A' for Active; 'I' for Inactive)
    1  A    between atoms: O_3  and  C_24
    2  A    between atoms: O_3  and  C_25
    3  A    between atoms: C_7  and  C_11
    4  A    between atoms: C_8  and  C_18
    5  A    between atoms: C_11  and  C_15
    6  A    between atoms: C_18  and  C_30
                            x       y       z     vdW  Elec       q    Type
                         _______ _______ _______ _____ _____    ______ ____

>  <TORSDO>
F 6

$$$$
=
 OpenBabel11052415593D

 34 38  0  0  1  0  0  0  0  0999 V2000
  182.5530  179.1510  138.2810 C   0  0  1  0  0  3  0  0  0  0  0  0
  179.1510  178.2070  139.5290 C   0  0  0  0  0  3  0  0  0  0  0  0
  180.3070  177.4940  137.6290 O   0  0  0  0  0  0  0  0  0  0  0  0
  184.9900  178.7250  138.9600 C   0  0  2  0  0  3  0  0  0  0  0  0
  183.8880  179.7610  138.7300 C   0  0  0  0  0  2  0  0  0  0  0  0
  183.7340  177.0350  137.5700 N   0  0  0  0  0  0  0  0  0  0  0  0
  183.3070  176.1990  138.6920 C   0  0  0  0  0  1  0  0  0  0  0  0
  185.0350  177.6500  137.8600 C   0  0  0  0  0  2  0  0  0  0  0  0
  181.4280  177.4530  136.7900 C   0  0  0  0  0  0  0  0  0  0  0  0
  182.7380  178.0610  137.2120 C   0  0  1  0  0  3  0  0  0  0  0  0
  181.3450  176.8760  135.6750 O   0  0  0  0  0  0  0  0  0  0  0  0
  178.9630  178.9650  140.7990 C   0  0  0  0  0  2  0  0  0  0  0  0
  179.8020  178.4020  141.9040 C   0  0  0  0  0  0  0  0  0  0  0  0
  181.1320  178.4110  141.8280 C   0  0  0  0  0  3  0  0  0  0  0  0
  180.3100  178.1390  138.8710 C   0  0  0  0  0  0  0  0  0  0  0  0
  181.9250  178.8330  140.6570 C   0  0  0  0  0  3  0  0  0  0  0  0
  181.5750  178.7540  139.3610 C   0  0  0  0  0  0  0  0  0  0  0  0
  179.2090  177.9040  143.0680 O   0  0  0  0  0  0  0  0  0  0  0  0
  178.9310  179.9900  144.2440 C   0  0  0  0  0  1  0  0  0  0  0  0
  179.3420  178.5320  144.3370 C   0  0  0  0  0  2  0  0  0  0  0  0
  184.9460  178.1450  140.3770 C   0  0  0  0  0  2  0  0  0  0  0  0
  187.9720  178.2250  140.9000 O   0  0  0  0  0  0  0  0  0  0  0  0
  184.9710  179.0140  142.7770 C   0  0  0  0  0  2  0  0  0  0  0  0
  188.2160  177.7520  145.2910 C   0  0  1  0  0  3  0  0  0  0  0  0
  188.3060  177.4510  143.7880 C   0  0  0  0  0  2  0  0  0  0  0  0
  187.1760  178.0720  143.1060 N   0  0  0  0  0  0  0  0  0  0  0  0
  185.7440  178.1890  145.0220 C   0  0  0  0  0  3  0  0  0  0  0  0
  185.9460  178.3930  143.7230 C   0  0  0  0  0  0  0  0  0  0  0  0
  186.8010  177.4940  145.8410 C   0  0  0  0  0  2  0  0  0  0  0  0
  185.7060  178.9750  141.4180 C   0  0  1  0  0  3  0  0  0  0  0  0
  187.0480  178.3940  141.7390 C   0  0  0  0  0  0  0  0  0  0  0  0
  189.2820  177.0050  146.0930 C   0  0  0  0  0  2  0  0  0  0  0  0
  190.6880  177.1690  145.5280 C   0  0  0  0  0  2  0  0  0  0  0  0
  191.6780  176.9150  146.5600 N   0  0  0  0  0  1  0  0  0  0  0  0
  1  5  1  1  0  0  0
  1 17  1  0  0  0  0
  2 12  1  0  0  0  0
  3 15  1  0  0  0  0
  4 21  1  1  0  0  0
  5  4  1  0  0  0  0
  6  8  1  0  0  0  0
  6  7  1  0  0  0  0
  8  4  1  0  0  0  0
  9  3  1  0  0  0  0
 10  9  1  1  0  0  0
 10  6  1  0  0  0  0
 10  1  1  0  0  0  0
 11  9  2  0  0  0  0
 12 13  1  0  0  0  0
 13 18  1  0  0  0  0
 14 13  2  0  0  0  0
 15 17  1  0  0  0  0
 15  2  2  0  0  0  0
 16 14  1  0  0  0  0
 17 16  2  0  0  0  0
 18 20  1  0  0  0  0
 19 20  1  0  0  0  0
 22 31  2  0  0  0  0
 23 28  1  0  0  0  0
 24 29  1  0  0  0  0
 24 32  1  1  0  0  0
 25 24  1  0  0  0  0
 26 28  1  0  0  0  0
 26 25  1  0  0  0  0
 27 29  1  0  0  0  0
 28 27  2  0  0  0  0
 30 21  1  6  0  0  0
 30 31  1  0  0  0  0
 30 23  1  0  0  0  0
 31 26  1  0  0  0  0
 33 32  1  0  0  0  0
 33 34  1  0  0  0  0
M  END
>  <MODEL>
2

>  <REMARK>
 VINA RESULT:      -7.7      3.924      8.864
  Name = 
  6 active torsions:
  status: ('A' for Active; 'I' for Inactive)
    1  A    between atoms: O_3  and  C_24
    2  A    between atoms: O_3  and  C_25
    3  A    between atoms: C_7  and  C_11
    4  A    between atoms: C_8  and  C_18
    5  A    between atoms: C_11  and  C_15
    6  A    between atoms: C_18  and  C_30
                            x       y       z     vdW  Elec       q    Type
                         _______ _______ _______ _____ _____    ______ ____

>  <TORSDO>
F 6

$$$$
=
 OpenBabel11052415593D

 34 38  0  0  1  0  0  0  0  0999 V2000
  182.1540  179.2660  139.9850 C   0  0  1  0  0  3  0  0  0  0  0  0
  182.4240  178.8170  143.6920 C   0  0  0  0  0  3  0  0  0  0  0  0
  180.7200  178.1910  142.2220 O   0  0  0  0  0  0  0  0  0  0  0  0
  183.2520  178.2800  137.8860 C   0  0  2  0  0  3  0  0  0  0  0  0
  182.9920  179.5320  138.7260 C   0  0  0  0  0  2  0  0  0  0  0  0
  181.3220  177.0950  138.9980 N   0  0  0  0  0  0  0  0  0  0  0  0
  182.1400  176.1970  139.8120 C   0  0  0  0  0  1  0  0  0  0  0  0
  182.0010  177.3960  137.7320 C   0  0  0  0  0  2  0  0  0  0  0  0
  180.1540  178.0630  140.9470 C   0  0  0  0  0  0  0  0  0  0  0  0
  180.9610  178.3360  139.7070 C   0  0  1  0  0  3  0  0  0  0  0  0
  178.9580  177.6900  140.8370 O   0  0  0  0  0  0  0  0  0  0  0  0
  183.7450  179.3940  144.0730 C   0  0  0  0  0  2  0  0  0  0  0  0
  184.8750  178.5190  143.6300 C   0  0  0  0  0  0  0  0  0  0  0  0
  185.0950  178.2820  142.3380 C   0  0  0  0  0  3  0  0  0  0  0  0
  182.0340  178.6280  142.4300 C   0  0  0  0  0  0  0  0  0  0  0  0
  184.2290  178.7170  141.2240 C   0  0  0  0  0  3  0  0  0  0  0  0
  182.8970  178.9050  141.2490 C   0  0  0  0  0  0  0  0  0  0  0  0
  185.7640  177.9730  144.5620 O   0  0  0  0  0  0  0  0  0  0  0  0
  187.9370  177.5040  145.4950 C   0  0  0  0  0  1  0  0  0  0  0  0
  187.0950  177.5940  144.2350 C   0  0  0  0  0  2  0  0  0  0  0  0
  184.4860  177.5110  138.3680 C   0  0  0  0  0  2  0  0  0  0  0  0
  186.3070  176.3100  136.2050 O   0  0  0  0  0  0  0  0  0  0  0  0
  186.7030  178.6260  138.9670 C   0  0  0  0  0  2  0  0  0  0  0  0
  190.2980  176.4420  138.1070 C   0  0  1  0  0  3  0  0  0  0  0  0
  188.9760  175.9120  137.5360 C   0  0  0  0  0  2  0  0  0  0  0  0
  187.9090  176.8610  137.8340 N   0  0  0  0  0  0  0  0  0  0  0  0
  188.9880  177.8900  139.7080 C   0  0  0  0  0  3  0  0  0  0  0  0
  187.9350  177.7850  138.9020 C   0  0  0  0  0  0  0  0  0  0  0  0
  190.1390  176.9270  139.5590 C   0  0  0  0  0  2  0  0  0  0  0  0
  185.8140  178.0600  137.8360 C   0  0  1  0  0  3  0  0  0  0  0  0
  186.6560  176.9980  137.2010 C   0  0  0  0  0  0  0  0  0  0  0  0
  191.4340  175.4280  137.9690 C   0  0  0  0  0  2  0  0  0  0  0  0
  192.6870  176.0080  137.3220 C   0  0  0  0  0  2  0  0  0  0  0  0
  193.5550  176.5830  138.3340 N   0  0  0  0  0  1  0  0  0  0  0  0
  1  5  1  6  0  0  0
  1 17  1  0  0  0  0
  2 12  1  0  0  0  0
  3 15  1  0  0  0  0
  4 21  1  1  0  0  0
  4  5  1  0  0  0  0
  6 10  1  0  0  0  0
  6  7  1  0  0  0  0
  8  4  1  0  0  0  0
  8  6  1  0  0  0  0
  9  3  1  0  0  0  0
 10  1  1  0  0  0  0
 10  9  1  1  0  0  0
 11  9  2  0  0  0  0
 13 12  1  0  0  0  0
 13 18  1  0  0  0  0
 14 13  2  0  0  0  0
 15  2  2  0  0  0  0
 16 17  2  0  0  0  0
 16 14  1  0  0  0  0
 17 15  1  0  0  0  0
 20 18  1  0  0  0  0
 20 19  1  0  0  0  0
 22 31  2  0  0  0  0
 24 32  1  1  0  0  0
 24 29  1  0  0  0  0
 25 26  1  0  0  0  0
 25 24  1  0  0  0  0
 26 28  1  0  0  0  0
 28 23  1  0  0  0  0
 28 27  2  0  0  0  0
 29 27  1  0  0  0  0
 30 21  1  1  0  0  0
 30 23  1  0  0  0  0
 31 26  1  0  0  0  0
 31 30  1  0  0  0  0
 33 32  1  0  0  0  0
 33 34  1  0  0  0  0
M  END
>  <MODEL>
3

>  <REMARK>
 VINA RESULT:      -7.5      3.244      7.086
  Name = 
  6 active torsions:
  status: ('A' for Active; 'I' for Inactive)
    1  A    between atoms: O_3  and  C_24
    2  A    between atoms: O_3  and  C_25
    3  A    between atoms: C_7  and  C_11
    4  A    between atoms: C_8  and  C_18
    5  A    between atoms: C_11  and  C_15
    6  A    between atoms: C_18  and  C_30
                            x       y       z     vdW  Elec       q    Type
                         _______ _______ _______ _____ _____    ______ ____

>  <TORSDO>
F 6

$$$$
=
 OpenBabel11052415593D

 34 38  0  0  1  0  0  0  0  0999 V2000
  188.7590  177.7990  136.3620 C   0  0  1  0  0  3  0  0  0  0  0  0
  185.8010  176.0970  134.8220 C   0  0  0  0  0  3  0  0  0  0  0  0
  188.0610  175.5120  134.7820 O   0  0  0  0  0  0  0  0  0  0  0  0
  189.7030  178.1600  138.7210 C   0  0  2  0  0  3  0  0  0  0  0  0
  189.1530  178.8090  137.4490 C   0  0  0  0  0  2  0  0  0  0  0  0
  190.1890  176.0290  137.4580 N   0  0  0  0  0  0  0  0  0  0  0  0
  189.1000  175.2500  138.0470 C   0  0  0  0  0  1  0  0  0  0  0  0
  190.6890  177.0150  138.4250 C   0  0  0  0  0  2  0  0  0  0  0  0
  189.4040  175.6850  135.1430 C   0  0  0  0  0  0  0  0  0  0  0  0
  189.8040  176.6830  136.1950 C   0  0  1  0  0  3  0  0  0  0  0  0
  190.2870  174.9770  134.5940 O   0  0  0  0  0  0  0  0  0  0  0  0
  184.6180  176.9210  135.2040 C   0  0  0  0  0  2  0  0  0  0  0  0
  184.2780  176.7540  136.6530 C   0  0  0  0  0  0  0  0  0  0  0  0
  185.1320  177.1260  137.6050 C   0  0  0  0  0  3  0  0  0  0  0  0
  187.0230  176.2780  135.3250 C   0  0  0  0  0  0  0  0  0  0  0  0
  186.5090  177.6080  137.3850 C   0  0  0  0  0  3  0  0  0  0  0  0
  187.3420  177.2770  136.3820 C   0  0  0  0  0  0  0  0  0  0  0  0
  183.0310  176.2550  137.0410 O   0  0  0  0  0  0  0  0  0  0  0  0
  183.2360  173.8560  137.1690 C   0  0  0  0  0  1  0  0  0  0  0  0
  182.8780  175.1340  137.9040 C   0  0  0  0  0  2  0  0  0  0  0  0
  188.5890  177.7670  139.6940 C   0  0  0  0  0  2  0  0  0  0  0  0
  190.6500  177.9320  141.9660 O   0  0  0  0  0  0  0  0  0  0  0  0
  187.1170  178.6570  141.5820 C   0  0  0  0  0  2  0  0  0  0  0  0
  188.1460  177.5030  145.5870 C   0  0  1  0  0  3  0  0  0  0  0  0
  189.1470  177.1920  144.4660 C   0  0  0  0  0  2  0  0  0  0  0  0
  188.6670  177.7770  143.2190 N   0  0  0  0  0  0  0  0  0  0  0  0
  186.3570  177.8710  143.8440 C   0  0  0  0  0  3  0  0  0  0  0  0
  187.3130  178.0710  142.9410 C   0  0  0  0  0  0  0  0  0  0  0  0
  186.6980  177.2120  145.1560 C   0  0  0  0  0  2  0  0  0  0  0  0
  188.5330  178.6260  140.9630 C   0  0  1  0  0  3  0  0  0  0  0  0
  189.4020  178.0840  142.0550 C   0  0  0  0  0  0  0  0  0  0  0  0
  188.5050  176.7910  146.8920 C   0  0  0  0  0  2  0  0  0  0  0  0
  189.1100  177.7190  147.9400 C   0  0  0  0  0  2  0  0  0  0  0  0
  188.0720  178.2370  148.8130 N   0  0  0  0  0  1  0  0  0  0  0  0
  1 17  1  0  0  0  0
  1  5  1  1  0  0  0
  2 12  1  0  0  0  0
  2 15  2  0  0  0  0
  3  9  1  0  0  0  0
  3 15  1  0  0  0  0
  4 21  1  6  0  0  0
  5  4  1  0  0  0  0
  6  7  1  0  0  0  0
  6  8  1  0  0  0  0
  8  4  1  0  0  0  0
 10  9  1  6  0  0  0
 10  1  1  0  0  0  0
 10  6  1  0  0  0  0
 11  9  2  0  0  0  0
 12 13  1  0  0  0  0
 13 18  1  0  0  0  0
 13 14  2  0  0  0  0
 15 17  1  0  0  0  0
 16 14  1  0  0  0  0
 17 16  2  0  0  0  0
 18 20  1  0  0  0  0
 19 20  1  0  0  0  0
 22 31  2  0  0  0  0
 23 28  1  0  0  0  0
 24 32  1  1  0  0  0
 25 24  1  0  0  0  0
 26 25  1  0  0  0  0
 27 29  1  0  0  0  0
 28 26  1  0  0  0  0
 28 27  2  0  0  0  0
 29 24  1  0  0  0  0
 30 21  1  6  0  0  0
 30 23  1  0  0  0  0
 30 31  1  0  0  0  0
 31 26  1  0  0  0  0
 32 33  1  0  0  0  0
 33 34  1  0  0  0  0
M  END
>  <MODEL>
4

>  <REMARK>
 VINA RESULT:      -7.4      2.766      8.478
  Name = 
  6 active torsions:
  status: ('A' for Active; 'I' for Inactive)
    1  A    between atoms: O_3  and  C_24
    2  A    between atoms: O_3  and  C_25
    3  A    between atoms: C_7  and  C_11
    4  A    between atoms: C_8  and  C_18
    5  A    between atoms: C_11  and  C_15
    6  A    between atoms: C_18  and  C_30
                            x       y       z     vdW  Elec       q    Type
                         _______ _______ _______ _____ _____    ______ ____

>  <TORSDO>
F 6

$$$$
=
 OpenBabel11052415593D

 34 38  0  0  1  0  0  0  0  0999 V2000
  185.9460  178.3930  136.8980 C   0  0  1  0  0  3  0  0  0  0  0  0
  182.4960  178.1970  138.3410 C   0  0  0  0  0  3  0  0  0  0  0  0
  183.4190  177.1000  136.4970 O   0  0  0  0  0  0  0  0  0  0  0  0
  188.3030  177.6150  137.5480 C   0  0  2  0  0  3  0  0  0  0  0  0
  187.3860  178.8000  137.2380 C   0  0  0  0  0  2  0  0  0  0  0  0
  186.7090  176.0400  136.3890 N   0  0  0  0  0  0  0  0  0  0  0  0
  186.1980  175.4120  137.6080 C   0  0  0  0  0  1  0  0  0  0  0  0
  188.1090  176.4410  136.5710 C   0  0  0  0  0  2  0  0  0  0  0  0
  184.4750  176.7760  135.6360 C   0  0  0  0  0  0  0  0  0  0  0  0
  185.8890  177.1830  135.9500 C   0  0  1  0  0  3  0  0  0  0  0  0
  184.2400  176.1110  134.5940 O   0  0  0  0  0  0  0  0  0  0  0  0
  182.5030  179.1030  139.5250 C   0  0  0  0  0  2  0  0  0  0  0  0
  183.2840  178.5170  140.6600 C   0  0  0  0  0  0  0  0  0  0  0  0
  184.5900  178.2830  140.5450 C   0  0  0  0  0  3  0  0  0  0  0  0
  183.5930  177.8590  137.6610 C   0  0  0  0  0  0  0  0  0  0  0  0
  185.3870  178.4360  139.3120 C   0  0  0  0  0  3  0  0  0  0  0  0
  184.9670  178.2870  138.0430 C   0  0  0  0  0  0  0  0  0  0  0  0
  182.6710  178.2540  141.8890 O   0  0  0  0  0  0  0  0  0  0  0  0
  181.6760  179.2820  143.8300 C   0  0  0  0  0  1  0  0  0  0  0  0
  182.9580  178.9880  143.0730 C   0  0  0  0  0  2  0  0  0  0  0  0
  188.2280  177.2010  139.0210 C   0  0  0  0  0  2  0  0  0  0  0  0
  191.1200  176.6720  139.9080 O   0  0  0  0  0  0  0  0  0  0  0  0
  188.3060  178.5810  141.1670 C   0  0  0  0  0  2  0  0  0  0  0  0
  190.9080  177.2060  144.2940 C   0  0  1  0  0  3  0  0  0  0  0  0
  191.0260  176.5460  142.9130 C   0  0  0  0  0  2  0  0  0  0  0  0
  190.1530  177.2410  141.9730 N   0  0  0  0  0  0  0  0  0  0  0  0
  188.6660  178.1480  143.6160 C   0  0  0  0  0  3  0  0  0  0  0  0
  189.0100  177.9850  142.3420 C   0  0  0  0  0  0  0  0  0  0  0  0
  189.4400  177.4330  144.6950 C   0  0  0  0  0  2  0  0  0  0  0  0
  189.1010  178.0450  139.9550 C   0  0  1  0  0  3  0  0  0  0  0  0
  190.2150  177.2520  140.5650 C   0  0  0  0  0  0  0  0  0  0  0  0
  191.6780  176.4360  145.3680 C   0  0  0  0  0  2  0  0  0  0  0  0
  190.9720  176.4160  146.7190 C   0  0  0  0  0  2  0  0  0  0  0  0
  191.7810  177.0920  147.7180 N   0  0  0  0  0  1  0  0  0  0  0  0
  1  5  1  1  0  0  0
  1 17  1  0  0  0  0
  2 12  1  0  0  0  0
  3 15  1  0  0  0  0
  4 21  1  1  0  0  0
  5  4  1  0  0  0  0
  6  8  1  0  0  0  0
  6  7  1  0  0  0  0
  8  4  1  0  0  0  0
  9  3  1  0  0  0  0
 10  9  1  1  0  0  0
 10  6  1  0  0  0  0
 10  1  1  0  0  0  0
 11  9  2  0  0  0  0
 12 13  1  0  0  0  0
 13 18  1  0  0  0  0
 14 13  2  0  0  0  0
 15 17  1  0  0  0  0
 15  2  2  0  0  0  0
 16 14  1  0  0  0  0
 17 16  2  0  0  0  0
 18 20  1  0  0  0  0
 20 19  1  0  0  0  0
 22 31  2  0  0  0  0
 23 28  1  0  0  0  0
 24 29  1  0  0  0  0
 24 32  1  1  0  0  0
 25 24  1  0  0  0  0
 26 28  1  0  0  0  0
 26 25  1  0  0  0  0
 27 29  1  0  0  0  0
 28 27  2  0  0  0  0
 30 21  1  6  0  0  0
 30 31  1  0  0  0  0
 30 23  1  0  0  0  0
 31 26  1  0  0  0  0
 32 33  1  0  0  0  0
 33 34  1  0  0  0  0
M  END
>  <MODEL>
5

>  <REMARK>
 VINA RESULT:      -6.7      2.809      7.908
  Name = 
  6 active torsions:
  status: ('A' for Active; 'I' for Inactive)
    1  A    between atoms: O_3  and  C_24
    2  A    between atoms: O_3  and  C_25
    3  A    between atoms: C_7  and  C_11
    4  A    between atoms: C_8  and  C_18
    5  A    between atoms: C_11  and  C_15
    6  A    between atoms: C_18  and  C_30
                            x       y       z     vdW  Elec       q    Type
                         _______ _______ _______ _____ _____    ______ ____

>  <TORSDO>
F 6

$$$$
=
 OpenBabel11052415593D

 34 38  0  0  1  0  0  0  0  0999 V2000
  188.8900  175.8930  137.8520 C   0  0  1  0  0  3  0  0  0  0  0  0
  191.3890  176.9000  140.4520 C   0  0  0  0  0  3  0  0  0  0  0  0
  191.5840  176.8310  138.1260 O   0  0  0  0  0  0  0  0  0  0  0  0
  186.7260  176.8450  136.8550 C   0  0  2  0  0  3  0  0  0  0  0  0
  187.3850  175.6960  137.6210 C   0  0  0  0  0  2  0  0  0  0  0  0
  188.9750  177.5990  135.9920 N   0  0  0  0  0  0  0  0  0  0  0  0
  189.0730  178.7890  136.8370 C   0  0  0  0  0  1  0  0  0  0  0  0
  187.5700  177.3250  135.6610 C   0  0  0  0  0  2  0  0  0  0  0  0
  191.0810  176.6250  136.8350 C   0  0  0  0  0  0  0  0  0  0  0  0
  189.6100  176.4160  136.5980 C   0  0  1  0  0  3  0  0  0  0  0  0
  191.8700  176.6400  135.8550 O   0  0  0  0  0  0  0  0  0  0  0  0
  190.6870  176.7620  141.7610 C   0  0  0  0  0  2  0  0  0  0  0  0
  189.6710  177.8430  141.9560 C   0  0  0  0  0  0  0  0  0  0  0  0
  188.6200  177.9520  141.1450 C   0  0  0  0  0  3  0  0  0  0  0  0
  190.7780  176.8020  139.2700 C   0  0  0  0  0  0  0  0  0  0  0  0
  188.3860  177.1500  139.9280 C   0  0  0  0  0  3  0  0  0  0  0  0
  189.3100  176.6120  139.1120 C   0  0  0  0  0  0  0  0  0  0  0  0
  189.7710  178.7320  143.0310 O   0  0  0  0  0  0  0  0  0  0  0  0
  188.7430  177.5680  144.8750 C   0  0  0  0  0  1  0  0  0  0  0  0
  189.9700  178.3070  144.3730 C   0  0  0  0  0  2  0  0  0  0  0  0
  186.2870  177.9790  137.7850 C   0  0  0  0  0  2  0  0  0  0  0  0
  184.7340  180.1220  139.3450 O   0  0  0  0  0  0  0  0  0  0  0  0
  183.8950  177.1620  137.4240 C   0  0  0  0  0  2  0  0  0  0  0  0
  181.0470  177.9840  140.5310 C   0  0  1  0  0  3  0  0  0  0  0  0
  182.4170  178.6730  140.6050 C   0  0  0  0  0  2  0  0  0  0  0  0
  183.1760  178.3620  139.3990 N   0  0  0  0  0  0  0  0  0  0  0  0
  181.9960  176.3510  138.8560 C   0  0  0  0  0  3  0  0  0  0  0  0
  182.9650  177.2230  138.5900 C   0  0  0  0  0  0  0  0  0  0  0  0
  181.1720  176.5100  140.1080 C   0  0  0  0  0  2  0  0  0  0  0  0
  184.8180  178.3860  137.6290 C   0  0  1  0  0  3  0  0  0  0  0  0
  184.2780  179.0540  138.8550 C   0  0  0  0  0  0  0  0  0  0  0  0
  180.2540  178.1380  141.8290 C   0  0  0  0  0  2  0  0  0  0  0  0
  180.8650  179.1470  142.7940 C   0  0  0  0  0  2  0  0  0  0  0  0
  180.0850  180.3720  142.8010 N   0  0  0  0  0  1  0  0  0  0  0  0
  1  5  1  6  0  0  0
  1 17  1  0  0  0  0
  2 12  1  0  0  0  0
  3 15  1  0  0  0  0
  4  5  1  0  0  0  0
  4 21  1  1  0  0  0
  6 10  1  0  0  0  0
  6  7  1  0  0  0  0
  8  6  1  0  0  0  0
  8  4  1  0  0  0  0
  9  3  1  0  0  0  0
 10  9  1  1  0  0  0
 10  1  1  0  0  0  0
 11  9  2  0  0  0  0
 12 13  1  0  0  0  0
 13 18  1  0  0  0  0
 14 13  2  0  0  0  0
 15  2  2  0  0  0  0
 16 14  1  0  0  0  0
 17 15  1  0  0  0  0
 17 16  2  0  0  0  0
 18 20  1  0  0  0  0
 20 19  1  0  0  0  0
 23 30  1  0  0  0  0
 23 28  1  0  0  0  0
 24 25  1  0  0  0  0
 24 32  1  1  0  0  0
 26 25  1  0  0  0  0
 27 29  1  0  0  0  0
 28 27  2  0  0  0  0
 28 26  1  0  0  0  0
 29 24  1  0  0  0  0
 30 21  1  1  0  0  0
 30 31  1  0  0  0  0
 31 22  2  0  0  0  0
 31 26  1  0  0  0  0
 32 33  1  0  0  0  0
 33 34  1  0  0  0  0
M  END
>  <MODEL>
6

>  <REMARK>
 VINA RESULT:      -6.4      3.428      7.219
  Name = 
  6 active torsions:
  status: ('A' for Active; 'I' for Inactive)
    1  A    between atoms: O_3  and  C_24
    2  A    between atoms: O_3  and  C_25
    3  A    between atoms: C_7  and  C_11
    4  A    between atoms: C_8  and  C_18
    5  A    between atoms: C_11  and  C_15
    6  A    between atoms: C_18  and  C_30
                            x       y       z     vdW  Elec       q    Type
                         _______ _______ _______ _____ _____    ______ ____

>  <TORSDO>
F 6

$$$$
=
 OpenBabel11052415593D

 34 38  0  0  1  0  0  0  0  0999 V2000
  189.3150  175.6840  135.3180 C   0  0  1  0  0  3  0  0  0  0  0  0
  187.5140  172.4160  135.0130 C   0  0  0  0  0  3  0  0  0  0  0  0
  189.7970  172.8920  134.8870 O   0  0  0  0  0  0  0  0  0  0  0  0
  189.8700  177.3590  137.1810 C   0  0  2  0  0  3  0  0  0  0  0  0
  189.1580  177.1160  135.8490 C   0  0  0  0  0  2  0  0  0  0  0  0
  191.3220  175.3290  136.8080 N   0  0  0  0  0  0  0  0  0  0  0  0
  190.6650  174.4840  137.8050 C   0  0  0  0  0  1  0  0  0  0  0  0
  191.2780  176.7360  137.2250 C   0  0  0  0  0  2  0  0  0  0  0  0
  190.8990  173.7540  134.9540 C   0  0  0  0  0  0  0  0  0  0  0  0
  190.7550  175.1640  135.4580 C   0  0  1  0  0  3  0  0  0  0  0  0
  192.0340  173.3330  134.6100 O   0  0  0  0  0  0  0  0  0  0  0  0
  186.0690  172.7330  135.2040 C   0  0  0  0  0  2  0  0  0  0  0  0
  185.7620  173.0570  136.6320 C   0  0  0  0  0  0  0  0  0  0  0  0
  186.3070  174.1170  137.2280 C   0  0  0  0  0  3  0  0  0  0  0  0
  188.4980  173.2910  135.2240 C   0  0  0  0  0  0  0  0  0  0  0  0
  187.3350  174.9990  136.6420 C   0  0  0  0  0  3  0  0  0  0  0  0
  188.2800  174.6700  135.7430 C   0  0  0  0  0  0  0  0  0  0  0  0
  184.8490  172.2870  137.3600 O   0  0  0  0  0  0  0  0  0  0  0  0
  182.5490  172.7910  136.8410 C   0  0  0  0  0  1  0  0  0  0  0  0
  183.6570  171.7550  136.7930 C   0  0  0  0  0  2  0  0  0  0  0  0
  188.9970  176.9750  138.3780 C   0  0  0  0  0  2  0  0  0  0  0  0
  190.5430  176.4080  140.9710 O   0  0  0  0  0  0  0  0  0  0  0  0
  187.8590  178.6260  139.9580 C   0  0  0  0  0  2  0  0  0  0  0  0
  187.6380  177.5430  144.1080 C   0  0  1  0  0  3  0  0  0  0  0  0
  188.5270  176.6960  143.1860 C   0  0  0  0  0  2  0  0  0  0  0  0
  188.5620  177.3060  141.8610 N   0  0  0  0  0  0  0  0  0  0  0  0
  186.5020  178.5100  142.0700 C   0  0  0  0  0  3  0  0  0  0  0  0
  187.5590  178.1560  141.3440 C   0  0  0  0  0  0  0  0  0  0  0  0
  186.3010  177.9050  143.4360 C   0  0  0  0  0  2  0  0  0  0  0  0
  189.1670  177.8870  139.5980 C   0  0  1  0  0  3  0  0  0  0  0  0
  189.5140  177.1220  140.8370 C   0  0  0  0  0  0  0  0  0  0  0  0
  187.4290  176.8830  145.4710 C   0  0  0  0  0  2  0  0  0  0  0  0
  187.2640  177.8860  146.6080 C   0  0  0  0  0  2  0  0  0  0  0  0
  185.8740  178.2910  146.7240 N   0  0  0  0  0  1  0  0  0  0  0  0
  1 10  1  0  0  0  0
  1 17  1  0  0  0  0
  1  5  1  1  0  0  0
  2 12  1  0  0  0  0
  2 15  2  0  0  0  0
  3  9  1  0  0  0  0
  3 15  1  0  0  0  0
  4  8  1  0  0  0  0
  4 21  1  1  0  0  0
  5  4  1  0  0  0  0
  6  8  1  0  0  0  0
  6  7  1  0  0  0  0
 10  9  1  1  0  0  0
 10  6  1  0  0  0  0
 11  9  2  0  0  0  0
 12 13  1  0  0  0  0
 13 14  2  0  0  0  0
 13 18  1  0  0  0  0
 15 17  1  0  0  0  0
 16 14  1  0  0  0  0
 17 16  2  0  0  0  0
 20 19  1  0  0  0  0
 20 18  1  0  0  0  0
 23 28  1  0  0  0  0
 24 32  1  1  0  0  0
 25 24  1  0  0  0  0
 26 25  1  0  0  0  0
 27 29  1  0  0  0  0
 28 26  1  0  0  0  0
 28 27  2  0  0  0  0
 29 24  1  0  0  0  0
 30 21  1  6  0  0  0
 30 23  1  0  0  0  0
 30 31  1  0  0  0  0
 31 22  2  0  0  0  0
 31 26  1  0  0  0  0
 32 33  1  0  0  0  0
 33 34  1  0  0  0  0
M  END
>  <MODEL>
7

>  <REMARK>
 VINA RESULT:      -6.4      3.175      8.637
  Name = 
  6 active torsions:
  status: ('A' for Active; 'I' for Inactive)
    1  A    between atoms: O_3  and  C_24
    2  A    between atoms: O_3  and  C_25
    3  A    between atoms: C_7  and  C_11
    4  A    between atoms: C_8  and  C_18
    5  A    between atoms: C_11  and  C_15
    6  A    between atoms: C_18  and  C_30
                            x       y       z     vdW  Elec       q    Type
                         _______ _______ _______ _____ _____    ______ ____

>  <TORSDO>
F 6

$$$$
