=
 OpenBabel11052413053D

 31 36  0  0  0  0  0  0  0  0999 V2000
  190.3670  177.1240  146.1730 C   0  0  0  0  0  0  0  0  0  0  0  0
  187.9720  177.7510  143.3570 C   0  0  0  0  0  0  0  0  0  0  0  0
  186.6250  177.9030  144.0080 C   0  0  0  0  0  0  0  0  0  0  0  0
  185.9240  178.0530  146.3780 C   0  0  0  0  0  3  0  0  0  0  0  0
  189.1640  177.4820  144.0830 C   0  0  0  0  0  0  0  0  0  0  0  0
  191.5630  176.9670  145.4700 C   0  0  0  0  0  3  0  0  0  0  0  0
  186.3140  177.1430  145.2630 C   0  0  0  0  0  2  0  0  0  0  0  0
  189.2730  177.7560  141.2720 C   0  0  0  0  0  0  0  0  0  0  0  0
  190.3570  177.0210  147.5910 N   0  0  0  0  0  1  0  0  0  0  0  0
  185.8940  179.1320  141.9870 C   0  0  0  0  0  2  0  0  0  0  0  0
  184.8270  178.8040  146.3360 C   0  0  0  0  0  3  0  0  0  0  0  0
  190.4280  177.4680  142.0010 C   0  0  0  0  0  3  0  0  0  0  0  0
  188.0530  177.9170  141.9530 C   0  0  0  0  0  0  0  0  0  0  0  0
  189.1800  177.3830  145.4840 C   0  0  0  0  0  3  0  0  0  0  0  0
  183.9230  178.8970  145.1760 C   0  0  0  0  0  3  0  0  0  0  0  0
  190.3880  177.3370  143.3840 C   0  0  0  0  0  0  0  0  0  0  0  0
  191.5730  177.0750  144.0790 C   0  0  0  0  0  3  0  0  0  0  0  0
  186.8020  178.2140  141.1770 C   0  0  0  0  0  2  0  0  0  0  0  0
  185.6340  178.5530  143.3480 C   0  0  0  0  0  0  0  0  0  0  0  0
  184.2750  178.7780  143.8900 C   0  0  0  0  0  3  0  0  0  0  0  0
  189.3070  177.9040  139.8410 N   0  0  0  0  0  2  0  0  0  0  0  0
  191.0340  173.2460  135.7380 C   0  0  0  0  0  3  0  0  0  0  0  0
  190.7670  175.2380  137.6870 C   0  0  0  0  0  0  0  0  0  0  0  0
  188.4420  175.5380  137.0450 C   0  0  0  0  0  3  0  0  0  0  0  0
  188.3120  176.5330  138.0190 C   0  0  0  0  0  3  0  0  0  0  0  0
  192.1250  173.5920  136.5420 C   0  0  0  0  0  3  0  0  0  0  0  0
  189.4010  176.8860  138.8330 C   0  0  0  0  0  0  0  0  0  0  0  0
  191.9930  174.5880  137.5160 C   0  0  0  0  0  3  0  0  0  0  0  0
  189.6650  174.8880  136.8740 C   0  0  0  0  0  0  0  0  0  0  0  0
  190.6270  176.2330  138.6580 C   0  0  0  0  0  3  0  0  0  0  0  0
  189.8050  173.8930  135.9030 C   0  0  0  0  0  3  0  0  0  0  0  0
  1  9  1  0  0  0  0
  2  3  1  0  0  0  0
  2  5  1  0  0  0  0
  3  7  1  0  0  0  0
  5 14  2  0  0  0  0
  6  1  2  0  0  0  0
  7  4  1  0  0  0  0
  8 13  1  0  0  0  0
  8 12  2  0  0  0  0
 10 19  1  0  0  0  0
 11  4  2  0  0  0  0
 12 16  1  0  0  0  0
 13  2  2  0  0  0  0
 14  1  1  0  0  0  0
 15 11  1  0  0  0  0
 16 17  2  0  0  0  0
 16  5  1  0  0  0  0
 17  6  1  0  0  0  0
 18 13  1  0  0  0  0
 18 10  1  0  0  0  0
 19 20  1  0  0  0  0
 19  3  2  0  0  0  0
 20 15  2  0  0  0  0
 21  8  1  0  0  0  0
 22 31  2  0  0  0  0
 22 26  1  0  0  0  0
 23 30  1  0  0  0  0
 24 25  2  0  0  0  0
 25 27  1  0  0  0  0
 26 28  2  0  0  0  0
 27 21  1  0  0  0  0
 28 23  1  0  0  0  0
 29 24  1  0  0  0  0
 29 23  2  0  0  0  0
 30 27  2  0  0  0  0
 31 29  1  0  0  0  0
M  END
>  <MODEL>
1

>  <REMARK>
 VINA RESULT:     -11.5      0.000      0.000
  Name = 
  2 active torsions:
  status: ('A' for Active; 'I' for Inactive)
    1  A    between atoms: C_9  and  N_23
    2  A    between atoms: C_15  and  N_23
                            x       y       z     vdW  Elec       q    Type
                         _______ _______ _______ _____ _____    ______ ____

>  <TORSDO>
F 2

$$$$
=
 OpenBabel11052413053D

 31 36  0  0  0  0  0  0  0  0999 V2000
  185.2060  178.3230  145.1430 C   0  0  0  0  0  0  0  0  0  0  0  0
  188.6040  177.8560  143.6290 C   0  0  0  0  0  0  0  0  0  0  0  0
  189.5180  177.5610  144.7850 C   0  0  0  0  0  0  0  0  0  0  0  0
  189.0860  177.1280  147.1850 C   0  0  0  0  0  3  0  0  0  0  0  0
  187.2140  178.1150  143.7770 C   0  0  0  0  0  0  0  0  0  0  0  0
  184.4510  178.6190  144.0070 C   0  0  0  0  0  3  0  0  0  0  0  0
  189.2390  178.1680  146.1290 C   0  0  0  0  0  2  0  0  0  0  0  0
  188.3710  178.1390  141.1980 C   0  0  0  0  0  0  0  0  0  0  0  0
  184.5830  178.2780  146.4200 N   0  0  0  0  0  1  0  0  0  0  0  0
  191.0680  176.5080  143.1690 C   0  0  0  0  0  2  0  0  0  0  0  0
  190.0830  176.3240  147.5460 C   0  0  0  0  0  3  0  0  0  0  0  0
  187.0130  178.4160  141.3680 C   0  0  0  0  0  3  0  0  0  0  0  0
  189.1580  177.8410  142.3250 C   0  0  0  0  0  0  0  0  0  0  0  0
  186.5750  178.0690  145.0270 C   0  0  0  0  0  3  0  0  0  0  0  0
  191.4090  176.3010  146.9040 C   0  0  0  0  0  3  0  0  0  0  0  0
  186.4320  178.4010  142.6310 C   0  0  0  0  0  0  0  0  0  0  0  0
  185.0630  178.6560  142.7540 C   0  0  0  0  0  3  0  0  0  0  0  0
  190.6220  177.5550  142.1550 C   0  0  0  0  0  2  0  0  0  0  0  0
  190.6960  176.9280  144.5620 C   0  0  0  0  0  0  0  0  0  0  0  0
  191.6690  176.5710  145.6190 C   0  0  0  0  0  3  0  0  0  0  0  0
  188.9800  178.1430  139.8940 N   0  0  0  0  0  2  0  0  0  0  0  0
  190.5070  173.3250  135.8980 C   0  0  0  0  0  3  0  0  0  0  0  0
  190.3330  175.3870  137.7830 C   0  0  0  0  0  0  0  0  0  0  0  0
  187.9880  175.6900  137.2180 C   0  0  0  0  0  3  0  0  0  0  0  0
  187.9050  176.7200  138.1610 C   0  0  0  0  0  3  0  0  0  0  0  0
  191.6310  173.6870  136.6480 C   0  0  0  0  0  3  0  0  0  0  0  0
  189.0270  177.0890  138.9200 C   0  0  0  0  0  0  0  0  0  0  0  0
  191.5450  174.7180  137.5900 C   0  0  0  0  0  3  0  0  0  0  0  0
  189.1980  175.0210  137.0250 C   0  0  0  0  0  0  0  0  0  0  0  0
  190.2390  176.4170  138.7230 C   0  0  0  0  0  3  0  0  0  0  0  0
  189.2920  173.9910  136.0850 C   0  0  0  0  0  3  0  0  0  0  0  0
  1  9  1  0  0  0  0
  2  5  1  0  0  0  0
  2  3  1  0  0  0  0
  3  7  1  0  0  0  0
  4 11  2  0  0  0  0
  5 14  2  0  0  0  0
  6  1  2  0  0  0  0
  7  4  1  0  0  0  0
  8 12  2  0  0  0  0
  8 13  1  0  0  0  0
 10 19  1  0  0  0  0
 12 16  1  0  0  0  0
 13  2  2  0  0  0  0
 14  1  1  0  0  0  0
 15 11  1  0  0  0  0
 16 17  2  0  0  0  0
 16  5  1  0  0  0  0
 17  6  1  0  0  0  0
 18 13  1  0  0  0  0
 18 10  1  0  0  0  0
 19  3  2  0  0  0  0
 19 20  1  0  0  0  0
 20 15  2  0  0  0  0
 21  8  1  0  0  0  0
 22 31  2  0  0  0  0
 22 26  1  0  0  0  0
 23 30  1  0  0  0  0
 24 25  2  0  0  0  0
 25 27  1  0  0  0  0
 26 28  2  0  0  0  0
 27 21  1  0  0  0  0
 28 23  1  0  0  0  0
 29 24  1  0  0  0  0
 29 23  2  0  0  0  0
 30 27  2  0  0  0  0
 31 29  1  0  0  0  0
M  END
>  <MODEL>
2

>  <REMARK>
 VINA RESULT:     -11.2      1.371      3.977
  Name = 
  2 active torsions:
  status: ('A' for Active; 'I' for Inactive)
    1  A    between atoms: C_9  and  N_23
    2  A    between atoms: C_15  and  N_23
                            x       y       z     vdW  Elec       q    Type
                         _______ _______ _______ _____ _____    ______ ____

>  <TORSDO>
F 2

$$$$
=
 OpenBabel11052413053D

 31 36  0  0  0  0  0  0  0  0999 V2000
  190.3870  177.0960  146.1130 C   0  0  0  0  0  0  0  0  0  0  0  0
  187.9580  177.7580  143.3350 C   0  0  0  0  0  0  0  0  0  0  0  0
  186.6210  177.9120  144.0050 C   0  0  0  0  0  0  0  0  0  0  0  0
  185.9520  178.0450  146.3860 C   0  0  0  0  0  3  0  0  0  0  0  0
  189.1580  177.4780  144.0420 C   0  0  0  0  0  0  0  0  0  0  0  0
  191.5730  176.9380  145.3930 C   0  0  0  0  0  3  0  0  0  0  0  0
  186.3220  177.1430  145.2580 C   0  0  0  0  0  2  0  0  0  0  0  0
  189.2310  177.7750  141.2330 C   0  0  0  0  0  0  0  0  0  0  0  0
  190.3950  176.9810  147.5300 N   0  0  0  0  0  1  0  0  0  0  0  0
  185.8690  179.1610  142.0050 C   0  0  0  0  0  2  0  0  0  0  0  0
  184.8580  178.8020  146.3650 C   0  0  0  0  0  3  0  0  0  0  0  0
  190.3950  177.4750  141.9430 C   0  0  0  0  0  3  0  0  0  0  0  0
  188.0210  177.9360  141.9310 C   0  0  0  0  0  0  0  0  0  0  0  0
  189.1920  177.3670  145.4420 C   0  0  0  0  0  3  0  0  0  0  0  0
  183.9400  178.9090  145.2170 C   0  0  0  0  0  3  0  0  0  0  0  0
  190.3720  177.3320  143.3270 C   0  0  0  0  0  0  0  0  0  0  0  0
  191.5650  177.0580  144.0030 C   0  0  0  0  0  3  0  0  0  0  0  0
  186.7610  178.2460  141.1750 C   0  0  0  0  0  2  0  0  0  0  0  0
  185.6250  178.5720  143.3640 C   0  0  0  0  0  0  0  0  0  0  0  0
  184.2730  178.8000  143.9260 C   0  0  0  0  0  3  0  0  0  0  0  0
  189.2460  177.9340  139.8020 N   0  0  0  0  0  2  0  0  0  0  0  0
  188.2850  173.7410  135.0060 C   0  0  0  0  0  3  0  0  0  0  0  0
  188.2150  175.6970  137.0070 C   0  0  0  0  0  0  0  0  0  0  0  0
  190.5330  175.2060  137.5530 C   0  0  0  0  0  3  0  0  0  0  0  0
  190.4940  176.1840  138.5510 C   0  0  0  0  0  3  0  0  0  0  0  0
  187.1150  174.4720  135.2330 C   0  0  0  0  0  3  0  0  0  0  0  0
  189.3240  176.9250  138.7850 C   0  0  0  0  0  0  0  0  0  0  0  0
  187.0780  175.4500  136.2330 C   0  0  0  0  0  3  0  0  0  0  0  0
  189.3980  174.9580  136.7780 C   0  0  0  0  0  0  0  0  0  0  0  0
  188.1870  176.6730  138.0070 C   0  0  0  0  0  3  0  0  0  0  0  0
  189.4260  173.9820  135.7780 C   0  0  0  0  0  3  0  0  0  0  0  0
  1  9  1  0  0  0  0
  2  3  1  0  0  0  0
  2  5  1  0  0  0  0
  3  7  1  0  0  0  0
  5 14  2  0  0  0  0
  6  1  2  0  0  0  0
  7  4  1  0  0  0  0
  8 13  1  0  0  0  0
  8 12  2  0  0  0  0
 10 19  1  0  0  0  0
 11  4  2  0  0  0  0
 12 16  1  0  0  0  0
 13  2  2  0  0  0  0
 14  1  1  0  0  0  0
 15 11  1  0  0  0  0
 16 17  2  0  0  0  0
 16  5  1  0  0  0  0
 17  6  1  0  0  0  0
 18 13  1  0  0  0  0
 18 10  1  0  0  0  0
 19 20  1  0  0  0  0
 19  3  2  0  0  0  0
 20 15  2  0  0  0  0
 21  8  1  0  0  0  0
 22 26  2  0  0  0  0
 22 31  1  0  0  0  0
 23 30  1  0  0  0  0
 24 25  2  0  0  0  0
 25 27  1  0  0  0  0
 26 28  1  0  0  0  0
 27 21  1  0  0  0  0
 28 23  2  0  0  0  0
 29 23  1  0  0  0  0
 29 24  1  0  0  0  0
 30 27  2  0  0  0  0
 31 29  2  0  0  0  0
M  END
>  <MODEL>
3

>  <REMARK>
 VINA RESULT:     -11.2      0.632      1.670
  Name = 
  2 active torsions:
  status: ('A' for Active; 'I' for Inactive)
    1  A    between atoms: C_9  and  N_23
    2  A    between atoms: C_15  and  N_23
                            x       y       z     vdW  Elec       q    Type
                         _______ _______ _______ _____ _____    ______ ____

>  <TORSDO>
F 2

$$$$
=
 OpenBabel11052413053D

 31 36  0  0  0  0  0  0  0  0999 V2000
  185.1280  178.3600  145.6290 C   0  0  0  0  0  0  0  0  0  0  0  0
  188.3240  178.0140  143.7000 C   0  0  0  0  0  0  0  0  0  0  0  0
  189.3740  177.6890  144.7250 C   0  0  0  0  0  0  0  0  0  0  0  0
  189.2390  177.1520  147.1400 C   0  0  0  0  0  3  0  0  0  0  0  0
  186.9590  178.2430  144.0240 C   0  0  0  0  0  0  0  0  0  0  0  0
  184.2370  178.6890  144.6050 C   0  0  0  0  0  3  0  0  0  0  0  0
  189.2510  178.2370  146.1170 C   0  0  0  0  0  2  0  0  0  0  0  0
  187.7970  178.3910  141.3290 C   0  0  0  0  0  0  0  0  0  0  0  0
  184.6630  178.2530  146.9680 N   0  0  0  0  0  1  0  0  0  0  0  0
  190.7310  176.7290  142.8920 C   0  0  0  0  0  2  0  0  0  0  0  0
  190.2820  176.3520  147.3440 C   0  0  0  0  0  3  0  0  0  0  0  0
  186.4650  178.6360  141.6710 C   0  0  0  0  0  3  0  0  0  0  0  0
  188.7170  178.0610  142.3400 C   0  0  0  0  0  0  0  0  0  0  0  0
  186.4750  178.1350  145.3380 C   0  0  0  0  0  3  0  0  0  0  0  0
  191.5220  176.3780  146.5470 C   0  0  0  0  0  3  0  0  0  0  0  0
  186.0410  178.5610  142.9930 C   0  0  0  0  0  0  0  0  0  0  0  0
  184.6930  178.7870  143.2900 C   0  0  0  0  0  3  0  0  0  0  0  0
  190.1540  177.8080  141.9840 C   0  0  0  0  0  2  0  0  0  0  0  0
  190.5240  177.0860  144.3360 C   0  0  0  0  0  0  0  0  0  0  0  0
  191.6220  176.7040  145.2530 C   0  0  0  0  0  3  0  0  0  0  0  0
  188.2440  178.4570  139.9630 N   0  0  0  0  0  2  0  0  0  0  0  0
  186.9230  174.7790  134.8400 C   0  0  0  0  0  3  0  0  0  0  0  0
  187.9200  176.0910  137.1030 C   0  0  0  0  0  0  0  0  0  0  0  0
  185.9790  177.5540  137.0970 C   0  0  0  0  0  3  0  0  0  0  0  0
  186.4800  178.2070  138.2270 C   0  0  0  0  0  3  0  0  0  0  0  0
  188.1380  174.3780  135.4060 C   0  0  0  0  0  3  0  0  0  0  0  0
  187.6970  177.8090  138.8040 C   0  0  0  0  0  0  0  0  0  0  0  0
  188.6370  175.0330  136.5370 C   0  0  0  0  0  3  0  0  0  0  0  0
  186.6940  176.4970  136.5300 C   0  0  0  0  0  0  0  0  0  0  0  0
  188.4120  176.7490  138.2330 C   0  0  0  0  0  3  0  0  0  0  0  0
  186.2020  175.8380  135.4000 C   0  0  0  0  0  3  0  0  0  0  0  0
  1  9  1  0  0  0  0
  2  5  1  0  0  0  0
  2  3  1  0  0  0  0
  3  7  1  0  0  0  0
  4 11  2  0  0  0  0
  5 14  2  0  0  0  0
  6  1  2  0  0  0  0
  7  4  1  0  0  0  0
  8 12  2  0  0  0  0
  8 13  1  0  0  0  0
 10 19  1  0  0  0  0
 12 16  1  0  0  0  0
 13  2  2  0  0  0  0
 14  1  1  0  0  0  0
 15 11  1  0  0  0  0
 16 17  2  0  0  0  0
 16  5  1  0  0  0  0
 17  6  1  0  0  0  0
 18 13  1  0  0  0  0
 18 10  1  0  0  0  0
 19  3  2  0  0  0  0
 19 20  1  0  0  0  0
 20 15  2  0  0  0  0
 21  8  1  0  0  0  0
 22 31  2  0  0  0  0
 22 26  1  0  0  0  0
 23 30  1  0  0  0  0
 24 25  2  0  0  0  0
 25 27  1  0  0  0  0
 26 28  2  0  0  0  0
 27 21  1  0  0  0  0
 28 23  1  0  0  0  0
 29 24  1  0  0  0  0
 29 23  2  0  0  0  0
 30 27  2  0  0  0  0
 31 29  1  0  0  0  0
M  END
>  <MODEL>
4

>  <REMARK>
 VINA RESULT:     -11.0      1.822      4.416
  Name = 
  2 active torsions:
  status: ('A' for Active; 'I' for Inactive)
    1  A    between atoms: C_9  and  N_23
    2  A    between atoms: C_15  and  N_23
                            x       y       z     vdW  Elec       q    Type
                         _______ _______ _______ _____ _____    ______ ____

>  <TORSDO>
F 2

$$$$
=
 OpenBabel11052413053D

 31 36  0  0  0  0  0  0  0  0999 V2000
  190.2240  177.4780  141.7500 C   0  0  0  0  0  0  0  0  0  0  0  0
  186.9170  178.0910  143.4060 C   0  0  0  0  0  0  0  0  0  0  0  0
  187.1530  177.8430  144.8700 C   0  0  0  0  0  0  0  0  0  0  0  0
  189.2120  177.4170  146.1790 C   0  0  0  0  0  3  0  0  0  0  0  0
  187.9270  177.9490  142.4160 C   0  0  0  0  0  0  0  0  0  0  0  0
  189.8930  177.6990  140.4120 C   0  0  0  0  0  3  0  0  0  0  0  0
  188.1660  176.8220  145.2980 C   0  0  0  0  0  2  0  0  0  0  0  0
  185.3240  178.7390  141.6500 C   0  0  0  0  0  0  0  0  0  0  0  0
  191.5550  177.1220  142.1030 N   0  0  0  0  0  1  0  0  0  0  0  0
  185.1610  179.2360  145.3300 C   0  0  0  0  0  2  0  0  0  0  0  0
  188.9340  177.9210  147.3780 C   0  0  0  0  0  3  0  0  0  0  0  0
  186.3240  178.5690  140.6900 C   0  0  0  0  0  3  0  0  0  0  0  0
  185.6270  178.5190  143.0050 C   0  0  0  0  0  0  0  0  0  0  0  0
  189.2490  177.6060  142.7420 C   0  0  0  0  0  3  0  0  0  0  0  0
  187.5760  178.0320  147.9420 C   0  0  0  0  0  3  0  0  0  0  0  0
  187.6090  178.1860  141.0560 C   0  0  0  0  0  0  0  0  0  0  0  0
  188.5890  178.0540  140.0670 C   0  0  0  0  0  3  0  0  0  0  0  0
  184.5560  178.6860  144.0440 C   0  0  0  0  0  2  0  0  0  0  0  0
  186.3090  178.3820  145.7840 C   0  0  0  0  0  0  0  0  0  0  0  0
  186.4470  178.2210  147.2490 C   0  0  0  0  0  3  0  0  0  0  0  0
  183.9930  179.1440  141.2820 N   0  0  0  0  0  2  0  0  0  0  0  0
  179.9070  174.8640  138.7310 C   0  0  0  0  0  3  0  0  0  0  0  0
  182.0320  176.4960  139.5430 C   0  0  0  0  0  0  0  0  0  0  0  0
  180.5270  177.7030  141.0200 C   0  0  0  0  0  3  0  0  0  0  0  0
  181.5900  178.5170  141.4230 C   0  0  0  0  0  3  0  0  0  0  0  0
  181.1860  174.6700  138.1980 C   0  0  0  0  0  3  0  0  0  0  0  0
  182.8770  178.3270  140.8950 C   0  0  0  0  0  0  0  0  0  0  0  0
  182.2480  175.4850  138.6020 C   0  0  0  0  0  3  0  0  0  0  0  0
  180.7410  176.6930  140.0810 C   0  0  0  0  0  0  0  0  0  0  0  0
  183.0890  177.3140  139.9520 C   0  0  0  0  0  3  0  0  0  0  0  0
  179.6840  175.8750  139.6720 C   0  0  0  0  0  3  0  0  0  0  0  0
  1  9  1  0  0  0  0
  1 14  1  0  0  0  0
  2  3  1  0  0  0  0
  3  7  1  0  0  0  0
  3 19  2  0  0  0  0
  4 11  2  0  0  0  0
  5 14  2  0  0  0  0
  5  2  1  0  0  0  0
  6  1  2  0  0  0  0
  7  4  1  0  0  0  0
  8 13  1  0  0  0  0
 10 19  1  0  0  0  0
 11 15  1  0  0  0  0
 12 16  1  0  0  0  0
 12  8  2  0  0  0  0
 13  2  2  0  0  0  0
 13 18  1  0  0  0  0
 16  5  1  0  0  0  0
 17  6  1  0  0  0  0
 17 16  2  0  0  0  0
 18 10  1  0  0  0  0
 19 20  1  0  0  0  0
 20 15  2  0  0  0  0
 21  8  1  0  0  0  0
 22 31  1  0  0  0  0
 23 30  1  0  0  0  0
 23 29  1  0  0  0  0
 24 25  2  0  0  0  0
 26 28  1  0  0  0  0
 26 22  2  0  0  0  0
 27 21  1  0  0  0  0
 27 25  1  0  0  0  0
 28 23  2  0  0  0  0
 29 24  1  0  0  0  0
 30 27  2  0  0  0  0
 31 29  2  0  0  0  0
M  END
>  <MODEL>
5

>  <REMARK>
 VINA RESULT:     -10.9      3.519      6.265
  Name = 
  2 active torsions:
  status: ('A' for Active; 'I' for Inactive)
    1  A    between atoms: C_9  and  N_23
    2  A    between atoms: C_15  and  N_23
                            x       y       z     vdW  Elec       q    Type
                         _______ _______ _______ _____ _____    ______ ____

>  <TORSDO>
F 2

$$$$
=
 OpenBabel11052413053D

 31 36  0  0  0  0  0  0  0  0999 V2000
  190.2160  176.9000  142.6040 C   0  0  0  0  0  0  0  0  0  0  0  0
  186.6990  178.1680  142.8880 C   0  0  0  0  0  0  0  0  0  0  0  0
  186.3550  178.0620  144.3480 C   0  0  0  0  0  0  0  0  0  0  0  0
  187.7080  177.5030  146.3450 C   0  0  0  0  0  3  0  0  0  0  0  0
  187.9530  177.7690  142.3500 C   0  0  0  0  0  0  0  0  0  0  0  0
  190.4240  177.0090  141.2280 C   0  0  0  0  0  3  0  0  0  0  0  0
  186.9550  176.9640  145.1770 C   0  0  0  0  0  2  0  0  0  0  0  0
  185.9710  178.8270  140.6350 C   0  0  0  0  0  0  0  0  0  0  0  0
  191.2510  176.4030  143.4430 N   0  0  0  0  0  1  0  0  0  0  0  0
  184.6060  179.7690  143.9620 C   0  0  0  0  0  2  0  0  0  0  0  0
  187.1160  178.1780  147.3270 C   0  0  0  0  0  3  0  0  0  0  0  0
  187.1990  178.4060  140.1230 C   0  0  0  0  0  3  0  0  0  0  0  0
  185.7320  178.7260  142.0170 C   0  0  0  0  0  0  0  0  0  0  0  0
  188.9920  177.2810  143.1590 C   0  0  0  0  0  3  0  0  0  0  0  0
  185.6890  178.5460  147.3440 C   0  0  0  0  0  3  0  0  0  0  0  0
  188.1840  177.8890  140.9570 C   0  0  0  0  0  0  0  0  0  0  0  0
  189.4110  177.5040  140.4070 C   0  0  0  0  0  3  0  0  0  0  0  0
  184.4090  179.1650  142.5770 C   0  0  0  0  0  2  0  0  0  0  0  0
  185.3510  178.8190  144.8540 C   0  0  0  0  0  0  0  0  0  0  0  0
  184.9300  178.8120  146.2740 C   0  0  0  0  0  3  0  0  0  0  0  0
  184.9490  179.3720  139.7800 N   0  0  0  0  0  2  0  0  0  0  0  0
  179.5350  175.9780  138.9540 C   0  0  0  0  0  3  0  0  0  0  0  0
  182.1050  176.9970  139.3980 C   0  0  0  0  0  0  0  0  0  0  0  0
  181.2640  179.2480  139.0310 C   0  0  0  0  0  3  0  0  0  0  0  0
  182.5490  179.7530  139.2530 C   0  0  0  0  0  3  0  0  0  0  0  0
  180.5940  175.1120  139.2470 C   0  0  0  0  0  3  0  0  0  0  0  0
  183.6170  178.8910  139.5490 C   0  0  0  0  0  0  0  0  0  0  0  0
  181.8780  175.6190  139.4680 C   0  0  0  0  0  3  0  0  0  0  0  0
  181.0360  177.8720  139.1010 C   0  0  0  0  0  0  0  0  0  0  0  0
  183.3850  177.5120  139.6190 C   0  0  0  0  0  3  0  0  0  0  0  0
  179.7550  177.3570  138.8810 C   0  0  0  0  0  3  0  0  0  0  0  0
  1 14  1  0  0  0  0
  1  9  1  0  0  0  0
  2  3  1  0  0  0  0
  3 19  2  0  0  0  0
  3  7  1  0  0  0  0
  4 11  2  0  0  0  0
  5  2  1  0  0  0  0
  5 14  2  0  0  0  0
  6  1  2  0  0  0  0
  7  4  1  0  0  0  0
  8 13  1  0  0  0  0
 10 19  1  0  0  0  0
 11 15  1  0  0  0  0
 12  8  2  0  0  0  0
 12 16  1  0  0  0  0
 13 18  1  0  0  0  0
 13  2  2  0  0  0  0
 16  5  1  0  0  0  0
 17 16  2  0  0  0  0
 17  6  1  0  0  0  0
 18 10  1  0  0  0  0
 19 20  1  0  0  0  0
 20 15  2  0  0  0  0
 21  8  1  0  0  0  0
 22 26  1  0  0  0  0
 23 28  1  0  0  0  0
 23 30  1  0  0  0  0
 24 29  1  0  0  0  0
 24 25  2  0  0  0  0
 25 27  1  0  0  0  0
 26 28  2  0  0  0  0
 27 30  2  0  0  0  0
 27 21  1  0  0  0  0
 29 23  2  0  0  0  0
 31 22  2  0  0  0  0
 31 29  1  0  0  0  0
M  END
>  <MODEL>
6

>  <REMARK>
 VINA RESULT:     -10.5      3.498      5.920
  Name = 
  2 active torsions:
  status: ('A' for Active; 'I' for Inactive)
    1  A    between atoms: C_9  and  N_23
    2  A    between atoms: C_15  and  N_23
                            x       y       z     vdW  Elec       q    Type
                         _______ _______ _______ _____ _____    ______ ____

>  <TORSDO>
F 2

$$$$
=
 OpenBabel11052413053D

 31 36  0  0  0  0  0  0  0  0999 V2000
  190.4270  176.9880  143.1480 C   0  0  0  0  0  0  0  0  0  0  0  0
  186.8560  178.0880  142.8460 C   0  0  0  0  0  0  0  0  0  0  0  0
  186.2970  178.0120  144.2400 C   0  0  0  0  0  0  0  0  0  0  0  0
  187.3530  177.5860  146.4390 C   0  0  0  0  0  3  0  0  0  0  0  0
  188.1930  177.7340  142.5200 C   0  0  0  0  0  0  0  0  0  0  0  0
  190.8380  177.0620  141.8160 C   0  0  0  0  0  3  0  0  0  0  0  0
  186.8110  176.9730  145.1930 C   0  0  0  0  0  2  0  0  0  0  0  0
  186.4520  178.6360  140.4840 C   0  0  0  0  0  0  0  0  0  0  0  0
  191.3430  176.5700  144.1520 N   0  0  0  0  0  1  0  0  0  0  0  0
  184.5540  179.6170  143.5270 C   0  0  0  0  0  2  0  0  0  0  0  0
  186.5880  178.2620  147.2930 C   0  0  0  0  0  3  0  0  0  0  0  0
  187.7620  178.2610  140.1810 C   0  0  0  0  0  3  0  0  0  0  0  0
  186.0090  178.5690  141.8170 C   0  0  0  0  0  0  0  0  0  0  0  0
  189.1170  177.3250  143.4950 C   0  0  0  0  0  3  0  0  0  0  0  0
  185.1610  178.5590  147.0790 C   0  0  0  0  0  3  0  0  0  0  0  0
  188.6290  177.8210  141.1740 C   0  0  0  0  0  0  0  0  0  0  0  0
  189.9410  177.4800  140.8320 C   0  0  0  0  0  3  0  0  0  0  0  0
  184.5980  178.9590  142.1530 C   0  0  0  0  0  2  0  0  0  0  0  0
  185.1950  178.7340  144.5580 C   0  0  0  0  0  0  0  0  0  0  0  0
  184.5630  178.7520  145.8970 C   0  0  0  0  0  3  0  0  0  0  0  0
  185.5500  179.1020  139.4640 N   0  0  0  0  0  2  0  0  0  0  0  0
  183.4950  175.3250  134.6660 C   0  0  0  0  0  3  0  0  0  0  0  0
  184.8560  176.8350  136.5910 C   0  0  0  0  0  0  0  0  0  0  0  0
  182.7270  177.5730  137.5020 C   0  0  0  0  0  3  0  0  0  0  0  0
  183.4100  178.3260  138.4610 C   0  0  0  0  0  3  0  0  0  0  0  0
  184.8930  175.3340  134.6910 C   0  0  0  0  0  3  0  0  0  0  0  0
  184.8140  178.3390  138.4960 C   0  0  0  0  0  0  0  0  0  0  0  0
  185.5750  176.0880  135.6520 C   0  0  0  0  0  3  0  0  0  0  0  0
  183.4430  176.8260  136.5640 C   0  0  0  0  0  0  0  0  0  0  0  0
  185.5300  177.5900  137.5540 C   0  0  0  0  0  3  0  0  0  0  0  0
  182.7700  176.0710  135.6010 C   0  0  0  0  0  3  0  0  0  0  0  0
  1 14  1  0  0  0  0
  1  9  1  0  0  0  0
  2  3  1  0  0  0  0
  3 19  2  0  0  0  0
  3  7  1  0  0  0  0
  4 11  2  0  0  0  0
  5  2  1  0  0  0  0
  5 14  2  0  0  0  0
  6  1  2  0  0  0  0
  7  4  1  0  0  0  0
  8 13  1  0  0  0  0
 10 19  1  0  0  0  0
 12  8  2  0  0  0  0
 12 16  1  0  0  0  0
 13 18  1  0  0  0  0
 13  2  2  0  0  0  0
 15 11  1  0  0  0  0
 16  5  1  0  0  0  0
 17 16  2  0  0  0  0
 17  6  1  0  0  0  0
 18 10  1  0  0  0  0
 19 20  1  0  0  0  0
 20 15  2  0  0  0  0
 21  8  1  0  0  0  0
 22 26  2  0  0  0  0
 22 31  1  0  0  0  0
 23 30  1  0  0  0  0
 24 25  2  0  0  0  0
 25 27  1  0  0  0  0
 26 28  1  0  0  0  0
 27 21  1  0  0  0  0
 28 23  2  0  0  0  0
 29 23  1  0  0  0  0
 29 24  1  0  0  0  0
 30 27  2  0  0  0  0
 31 29  2  0  0  0  0
M  END
>  <MODEL>
7

>  <REMARK>
 VINA RESULT:     -10.5      2.826      4.237
  Name = 
  2 active torsions:
  status: ('A' for Active; 'I' for Inactive)
    1  A    between atoms: C_9  and  N_23
    2  A    between atoms: C_15  and  N_23
                            x       y       z     vdW  Elec       q    Type
                         _______ _______ _______ _____ _____    ______ ____

>  <TORSDO>
F 2

$$$$
=
 OpenBabel11052413053D

 31 36  0  0  0  0  0  0  0  0999 V2000
  186.8050  177.8750  146.9560 C   0  0  0  0  0  0  0  0  0  0  0  0
  187.6540  178.2720  143.3250 C   0  0  0  0  0  0  0  0  0  0  0  0
  189.1110  177.9170  143.2170 C   0  0  0  0  0  0  0  0  0  0  0  0
  190.7240  176.9710  144.8410 C   0  0  0  0  0  3  0  0  0  0  0  0
  186.9370  178.2650  144.5530 C   0  0  0  0  0  0  0  0  0  0  0  0
  185.4610  178.2530  146.9540 C   0  0  0  0  0  3  0  0  0  0  0  0
  190.0350  178.2040  144.3640 C   0  0  0  0  0  2  0  0  0  0  0  0
  185.6040  178.9690  142.1620 C   0  0  0  0  0  0  0  0  0  0  0  0
  187.4320  177.4860  148.1710 N   0  0  0  0  0  1  0  0  0  0  0  0
  188.7240  177.4610  140.8160 C   0  0  0  0  0  2  0  0  0  0  0  0
  191.5750  176.2890  144.0800 C   0  0  0  0  0  3  0  0  0  0  0  0
  184.9250  178.9800  143.3820 C   0  0  0  0  0  3  0  0  0  0  0  0
  186.9590  178.5960  142.1340 C   0  0  0  0  0  0  0  0  0  0  0  0
  187.5340  177.8780  145.7640 C   0  0  0  0  0  3  0  0  0  0  0  0
  191.8750  176.6070  142.6730 C   0  0  0  0  0  3  0  0  0  0  0  0
  185.5680  178.6300  144.5640 C   0  0  0  0  0  0  0  0  0  0  0  0
  184.8440  178.6280  145.7600 C   0  0  0  0  0  3  0  0  0  0  0  0
  187.7030  178.5930  140.8290 C   0  0  0  0  0  2  0  0  0  0  0  0
  189.6200  177.5410  142.0180 C   0  0  0  0  0  0  0  0  0  0  0  0
  191.0310  177.1560  141.7900 C   0  0  0  0  0  3  0  0  0  0  0  0
  184.9440  179.3210  140.9330 N   0  0  0  0  0  2  0  0  0  0  0  0
  181.3220  175.1460  137.6200 C   0  0  0  0  0  3  0  0  0  0  0  0
  182.5790  176.8540  139.4480 C   0  0  0  0  0  0  0  0  0  0  0  0
  184.1790  177.4930  137.7340 C   0  0  0  0  0  3  0  0  0  0  0  0
  184.8050  178.3450  138.6500 C   0  0  0  0  0  3  0  0  0  0  0  0
  180.8390  175.2530  138.9290 C   0  0  0  0  0  3  0  0  0  0  0  0
  184.3260  178.4600  139.9650 C   0  0  0  0  0  0  0  0  0  0  0  0
  181.4670  176.1050  139.8430 C   0  0  0  0  0  3  0  0  0  0  0  0
  183.0680  176.7450  138.1270 C   0  0  0  0  0  0  0  0  0  0  0  0
  183.2110  177.7080  140.3560 C   0  0  0  0  0  3  0  0  0  0  0  0
  182.4360  175.8910  137.2190 C   0  0  0  0  0  3  0  0  0  0  0  0
  1  9  1  0  0  0  0
  2  5  1  0  0  0  0
  3  2  1  0  0  0  0
  3  7  1  0  0  0  0
  5 16  2  0  0  0  0
  5 14  1  0  0  0  0
  6  1  1  0  0  0  0
  7  4  1  0  0  0  0
  8 12  2  0  0  0  0
 10 18  1  0  0  0  0
 10 19  1  0  0  0  0
 11  4  2  0  0  0  0
 12 16  1  0  0  0  0
 13  8  1  0  0  0  0
 13  2  2  0  0  0  0
 14  1  2  0  0  0  0
 15 11  1  0  0  0  0
 16 17  1  0  0  0  0
 17  6  2  0  0  0  0
 18 13  1  0  0  0  0
 19  3  2  0  0  0  0
 20 19  1  0  0  0  0
 20 15  2  0  0  0  0
 21  8  1  0  0  0  0
 22 26  1  0  0  0  0
 23 28  1  0  0  0  0
 23 30  1  0  0  0  0
 24 29  1  0  0  0  0
 24 25  2  0  0  0  0
 25 27  1  0  0  0  0
 26 28  2  0  0  0  0
 27 30  2  0  0  0  0
 27 21  1  0  0  0  0
 29 23  2  0  0  0  0
 31 22  2  0  0  0  0
 31 29  1  0  0  0  0
M  END
>  <MODEL>
8

>  <REMARK>
 VINA RESULT:     -10.4      3.169      6.104
  Name = 
  2 active torsions:
  status: ('A' for Active; 'I' for Inactive)
    1  A    between atoms: C_9  and  N_23
    2  A    between atoms: C_15  and  N_23
                            x       y       z     vdW  Elec       q    Type
                         _______ _______ _______ _____ _____    ______ ____

>  <TORSDO>
F 2

$$$$
=
 OpenBabel11052413053D

 31 36  0  0  0  0  0  0  0  0999 V2000
  186.6240  177.8700  146.6680 C   0  0  0  0  0  0  0  0  0  0  0  0
  187.7020  178.2890  143.1020 C   0  0  0  0  0  0  0  0  0  0  0  0
  189.1620  177.9310  143.0840 C   0  0  0  0  0  0  0  0  0  0  0  0
  190.6660  176.9680  144.8000 C   0  0  0  0  0  3  0  0  0  0  0  0
  186.9090  178.2760  144.2820 C   0  0  0  0  0  0  0  0  0  0  0  0
  185.2840  178.2530  146.5840 C   0  0  0  0  0  3  0  0  0  0  0  0
  190.0120  178.2070  144.2880 C   0  0  0  0  0  2  0  0  0  0  0  0
  185.7310  179.0010  141.8170 C   0  0  0  0  0  0  0  0  0  0  0  0
  187.1720  177.4710  147.9180 N   0  0  0  0  0  1  0  0  0  0  0  0
  188.9260  177.4920  140.6590 C   0  0  0  0  0  2  0  0  0  0  0  0
  191.5620  176.2880  144.0890 C   0  0  0  0  0  3  0  0  0  0  0  0
  184.9760  179.0060  142.9910 C   0  0  0  0  0  3  0  0  0  0  0  0
  187.0850  178.6230  141.8710 C   0  0  0  0  0  0  0  0  0  0  0  0
  187.4270  177.8790  145.5250 C   0  0  0  0  0  3  0  0  0  0  0  0
  191.9510  176.6160  142.7060 C   0  0  0  0  0  3  0  0  0  0  0  0
  185.5430  178.6450  144.2080 C   0  0  0  0  0  0  0  0  0  0  0  0
  184.7450  178.6370  145.3560 C   0  0  0  0  0  3  0  0  0  0  0  0
  187.9100  178.6270  140.6160 C   0  0  0  0  0  2  0  0  0  0  0  0
  189.7440  177.5610  141.9160 C   0  0  0  0  0  0  0  0  0  0  0  0
  191.1660  177.1730  141.7750 C   0  0  0  0  0  3  0  0  0  0  0  0
  185.1510  179.3620  140.5500 N   0  0  0  0  0  2  0  0  0  0  0  0
  179.6630  178.5020  137.2860 C   0  0  0  0  0  3  0  0  0  0  0  0
  182.0470  179.3410  138.4900 C   0  0  0  0  0  0  0  0  0  0  0  0
  182.2310  177.1880  139.6020 C   0  0  0  0  0  3  0  0  0  0  0  0
  183.4210  177.6100  140.2010 C   0  0  0  0  0  3  0  0  0  0  0  0
  180.1650  179.7830  137.0330 C   0  0  0  0  0  3  0  0  0  0  0  0
  183.9340  178.8930  139.9510 C   0  0  0  0  0  0  0  0  0  0  0  0
  181.3560  180.2030  137.6340 C   0  0  0  0  0  3  0  0  0  0  0  0
  181.5390  178.0470  138.7460 C   0  0  0  0  0  0  0  0  0  0  0  0
  183.2380  179.7540  139.0930 C   0  0  0  0  0  3  0  0  0  0  0  0
  180.3480  177.6350  138.1430 C   0  0  0  0  0  3  0  0  0  0  0  0
  1  9  1  0  0  0  0
  2  5  1  0  0  0  0
  3  2  1  0  0  0  0
  3  7  1  0  0  0  0
  5 14  1  0  0  0  0
  6  1  1  0  0  0  0
  7  4  1  0  0  0  0
  8 13  1  0  0  0  0
  8 12  2  0  0  0  0
 10 19  1  0  0  0  0
 11  4  2  0  0  0  0
 12 16  1  0  0  0  0
 13  2  2  0  0  0  0
 14  1  2  0  0  0  0
 15 11  1  0  0  0  0
 16  5  2  0  0  0  0
 16 17  1  0  0  0  0
 17  6  2  0  0  0  0
 18 10  1  0  0  0  0
 18 13  1  0  0  0  0
 19  3  2  0  0  0  0
 20 19  1  0  0  0  0
 20 15  2  0  0  0  0
 21  8  1  0  0  0  0
 22 31  1  0  0  0  0
 23 29  1  0  0  0  0
 23 30  1  0  0  0  0
 24 25  2  0  0  0  0
 26 22  2  0  0  0  0
 26 28  1  0  0  0  0
 27 25  1  0  0  0  0
 27 21  1  0  0  0  0
 28 23  2  0  0  0  0
 29 24  1  0  0  0  0
 30 27  2  0  0  0  0
 31 29  2  0  0  0  0
M  END
>  <MODEL>
9

>  <REMARK>
 VINA RESULT:     -10.2      3.459      6.818
  Name = 
  2 active torsions:
  status: ('A' for Active; 'I' for Inactive)
    1  A    between atoms: C_9  and  N_23
    2  A    between atoms: C_15  and  N_23
                            x       y       z     vdW  Elec       q    Type
                         _______ _______ _______ _____ _____    ______ ____

>  <TORSDO>
F 2

$$$$
