=
 OpenBabel11052414563D

 55 59  0  0  1  0  0  0  0  0999 V2000
  186.0980  178.2950  143.6280 C   0  0  0  0  0  2  0  0  0  0  0  0
  184.7260  177.7390  137.2520 C   0  0  0  0  0  2  0  0  0  0  0  0
  186.9820  176.0270  137.3000 O   0  0  0  0  0  0  0  0  0  0  0  0
  182.4420  178.5200  137.6260 N   0  0  0  0  0  0  0  0  0  0  0  0
  191.1690  176.3140  138.5800 C   0  0  0  0  0  2  0  0  0  0  0  0
  192.6450  176.4490  138.8270 C   0  0  0  0  0  3  0  0  0  0  0  0
  190.7510  177.3710  140.7960 C   0  0  2  0  0  3  0  0  0  0  0  0
  192.2010  177.4730  140.9550 N   0  0  0  0  0  2  0  0  0  0  0  0
  188.5410  177.7310  137.8760 C   0  0  0  0  0  2  0  0  0  0  0  0
  193.1070  176.9710  139.9640 C   0  0  0  0  0  3  0  0  0  0  0  0
  184.2240  179.9400  143.9430 C   0  0  0  0  0  2  0  0  0  0  0  0
  190.3790  177.4070  139.3090 C   0  0  2  0  0  3  0  0  0  0  0  0
  182.8090  178.0910  142.3460 C   0  0  0  0  0  0  0  0  0  0  0  0
  186.8950  177.6160  142.6970 O   0  0  0  0  0  0  0  0  0  0  0  0
  184.1240  178.2260  142.0950 C   0  0  0  0  0  3  0  0  0  0  0  0
  189.2670  177.8040  142.3950 C   0  0  2  0  0  3  0  0  0  0  0  0
  183.7920  178.9350  137.2750 C   0  0  0  0  0  2  0  0  0  0  0  0
  190.1350  178.4200  141.4860 O   0  0  0  0  0  0  0  0  0  0  0  0
  186.0920  178.1780  137.4760 N   0  0  0  0  0  2  0  0  0  0  0  0
  187.1750  177.2510  137.5310 C   0  0  0  0  0  0  0  0  0  0  0  0
  183.1420  179.1460  144.5230 N   0  0  0  0  0  2  0  0  0  0  0  0
  182.2110  178.0690  138.9350 C   0  0  0  0  0  0  0  0  0  0  0  0
  185.0180  179.1110  142.9260 C   0  0  2  0  0  3  0  0  0  0  0  0
  188.9510  177.1640  139.1530 N   0  0  0  0  0  2  0  0  0  0  0  0
  187.9160  178.5070  142.3550 C   0  0  0  0  0  2  0  0  0  0  0  0
  182.0570  177.6870  140.0680 C   0  0  0  0  0  0  0  0  0  0  0  0
  181.9510  177.2380  141.4610 C   0  0  0  0  0  2  0  0  0  0  0  0
  182.1710  178.8690  143.4640 C   0  0  0  0  0  2  0  0  0  0  0  0
  190.9170  176.7180  143.9530 C   0  0  0  0  0  3  0  0  0  0  0  0
  190.5990  176.8220  146.3710 C   0  0  0  0  0  0  0  0  0  0  0  0
  188.8300  177.7450  144.9130 C   0  0  0  0  0  2  0  0  0  0  0  0
  189.4780  177.5460  146.2560 C   0  0  0  0  0  3  0  0  0  0  0  0
  191.2690  176.2910  145.1680 C   0  0  0  0  0  3  0  0  0  0  0  0
  189.8850  177.8050  143.7980 C   0  0  2  0  0  3  0  0  0  0  0  0
  191.3070  176.5150  147.9710 S   0  0  2  0  0  0  0  0  0  0  0  0
  191.7790  177.8860  148.4380 O   0  0  0  0  0  0  0  0  0  0  0  0
  192.8240  175.6090  147.6300 C   0  0  0  0  0  1  0  0  0  0  0  0
  181.3700  178.9740  136.8420 N   0  0  0  0  0  2  0  0  0  0  0  0
  180.0340  178.3750  134.6250 O   0  0  0  0  0  0  0  0  0  0  0  0
  181.0300  177.8090  135.5980 S   0  0  0  0  0  0  0  0  0  0  0  0
  182.3150  177.5270  134.8700 O   0  0  0  0  0  0  0  0  0  0  0  0
  180.3970  176.2870  136.3150 C   0  0  1  0  0  3  0  0  0  0  0  0
  178.9420  176.0580  135.9520 C   0  0  0  0  0  1  0  0  0  0  0  0
  180.9280  174.4480  134.6810 C   0  0  0  0  0  1  0  0  0  0  0  0
  181.2490  175.0320  136.0510 C   0  0  2  0  0  3  0  0  0  0  0  0
  180.5140  171.7680  136.5330 C   0  0  0  0  0  0  0  0  0  0  0  0
  181.1820  174.5910  138.4260 O   0  0  0  0  0  1  0  0  0  0  0  0
  179.3800  170.8150  136.4170 C   0  0  0  0  0  1  0  0  0  0  0  0
  182.7540  173.3080  137.2060 C   0  0  1  0  0  3  0  0  0  0  0  0
  181.7930  171.3680  136.1330 O   0  0  0  0  0  0  0  0  0  0  0  0
  181.3560  173.9690  137.1880 C   0  0  2  0  0  0  0  0  0  0  0  0
  182.8820  172.2850  136.0820 C   0  0  0  0  0  2  0  0  0  0  0  0
  180.3110  172.9480  137.0380 N   0  0  0  0  0  0  0  0  0  0  0  0
  183.7720  174.2620  137.1120 O   0  0  0  0  0  0  0  0  0  0  0  0
  184.9560  173.5220  137.1060 C   0  0  0  0  0  1  0  0  0  0  0  0
  2 17  1  0  0  0  0
  2 19  1  0  0  0  0
  3 20  2  0  0  0  0
  4 22  1  0  0  0  0
  5  6  1  0  0  0  0
  6 10  2  0  0  0  0
  7  8  1  6  0  0  0
  7 18  1  0  0  0  0
  9 24  1  0  0  0  0
 10  8  1  0  0  0  0
 11 21  1  0  0  0  0
 12  5  1  6  0  0  0
 12  7  1  0  0  0  0
 13 28  1  0  0  0  0
 14  1  1  0  0  0  0
 15 13  2  0  0  0  0
 16 25  1  1  0  0  0
 16 34  1  0  0  0  0
 17  4  1  0  0  0  0
 18 16  1  0  0  0  0
 19 20  1  0  0  0  0
 20  9  1  0  0  0  0
 22 26  3  0  0  0  0
 23 15  1  1  0  0  0
 23  1  1  0  0  0  0
 23 11  1  0  0  0  0
 24 12  1  0  0  0  0
 25 14  1  0  0  0  0
 26 27  1  0  0  0  0
 27 13  1  0  0  0  0
 28 21  1  0  0  0  0
 29 33  2  0  0  0  0
 30 35  1  0  0  0  0
 31 32  1  0  0  0  0
 32 30  2  0  0  0  0
 33 30  1  0  0  0  0
 34 29  1  6  0  0  0
 34 31  1  0  0  0  0
 35 37  1  6  0  0  0
 35 36  2  0  0  0  0
 38  4  1  0  0  0  0
 39 40  2  0  0  0  0
 40 42  1  0  0  0  0
 40 38  1  0  0  0  0
 41 40  2  0  0  0  0
 42 43  1  6  0  0  0
 45 44  1  6  0  0  0
 45 42  1  0  0  0  0
 45 51  1  0  0  0  0
 46 53  2  0  0  0  0
 48 46  1  0  0  0  0
 49 54  1  6  0  0  0
 50 46  1  0  0  0  0
 51 49  1  0  0  0  0
 51 47  1  1  0  0  0
 52 50  1  0  0  0  0
 52 49  1  0  0  0  0
 53 51  1  0  0  0  0
 55 54  1  0  0  0  0
M  END
>  <MODEL>
1

>  <REMARK>
 VINA RESULT:      -6.9      0.000      0.000
  Name = 
  8 active torsions:
  status: ('A' for Active; 'I' for Inactive)
    1  A    between atoms: C_6  and  C_14
    2  A    between atoms: C_6  and  S_20
    3  A    between atoms: N_8  and  N_22
    4  A    between atoms: S_10  and  C_32
    5  A    between atoms: O_11  and  C_29
    6  A    between atoms: C_14  and  C_38
    7  A    between atoms: S_20  and  N_22
    8  A    between atoms: C_33  and  C_52
                            x       y       z     vdW  Elec       q    Type
                         _______ _______ _______ _____ _____    ______ ____

>  <TORSDO>
F 8

$$$$
=
 OpenBabel11052414563D

 55 59  0  0  1  0  0  0  0  0999 V2000
  187.1680  178.0290  144.0880 C   0  0  0  0  0  2  0  0  0  0  0  0
  184.2390  178.6480  138.2670 C   0  0  0  0  0  2  0  0  0  0  0  0
  186.1980  176.7500  137.5010 O   0  0  0  0  0  0  0  0  0  0  0  0
  182.2340  179.5630  139.3200 N   0  0  0  0  0  0  0  0  0  0  0  0
  190.5700  176.4400  137.6830 C   0  0  0  0  0  2  0  0  0  0  0  0
  192.0670  176.3970  137.5560 C   0  0  0  0  0  3  0  0  0  0  0  0
  190.8400  177.1550  140.0530 C   0  0  2  0  0  3  0  0  0  0  0  0
  192.2860  177.0970  139.8440 N   0  0  0  0  0  2  0  0  0  0  0  0
  188.0570  178.1870  137.8780 C   0  0  0  0  0  2  0  0  0  0  0  0
  192.8530  176.6820  138.5950 C   0  0  0  0  0  3  0  0  0  0  0  0
  185.6560  179.7650  145.0940 C   0  0  0  0  0  2  0  0  0  0  0  0
  190.1280  177.4670  138.7310 C   0  0  2  0  0  3  0  0  0  0  0  0
  183.6700  178.3390  143.6820 C   0  0  0  0  0  0  0  0  0  0  0  0
  187.6220  177.4400  142.9000 O   0  0  0  0  0  0  0  0  0  0  0  0
  184.8900  178.3920  143.1210 C   0  0  0  0  0  3  0  0  0  0  0  0
  189.8550  177.4570  142.0240 C   0  0  2  0  0  3  0  0  0  0  0  0
  183.5010  179.9040  138.6900 C   0  0  0  0  0  2  0  0  0  0  0  0
  190.5500  178.1310  141.0130 O   0  0  0  0  0  0  0  0  0  0  0  0
  185.6640  178.9170  138.1880 N   0  0  0  0  0  2  0  0  0  0  0  0
  186.5980  177.8970  137.8360 C   0  0  0  0  0  0  0  0  0  0  0  0
  184.6510  178.9910  145.8210 N   0  0  0  0  0  2  0  0  0  0  0  0
  182.2690  178.9280  140.5710 C   0  0  0  0  0  0  0  0  0  0  0  0
  186.0670  179.0440  143.8050 C   0  0  2  0  0  3  0  0  0  0  0  0
  188.6860  177.3850  138.9170 N   0  0  0  0  0  2  0  0  0  0  0  0
  188.6370  178.2780  142.4290 C   0  0  0  0  0  2  0  0  0  0  0  0
  182.3440  178.3830  141.6430 C   0  0  0  0  0  0  0  0  0  0  0  0
  182.5200  177.7250  142.9420 C   0  0  0  0  0  2  0  0  0  0  0  0
  183.4260  178.9800  145.0220 C   0  0  0  0  0  2  0  0  0  0  0  0
  190.8400  175.7030  143.5340 C   0  0  0  0  0  3  0  0  0  0  0  0
  191.5840  176.2760  145.7880 C   0  0  0  0  0  0  0  0  0  0  0  0
  190.4510  178.0160  144.4460 C   0  0  0  0  0  2  0  0  0  0  0  0
  191.2530  177.5650  145.6360 C   0  0  0  0  0  3  0  0  0  0  0  0
  191.2500  175.2940  144.7380 C   0  0  0  0  0  3  0  0  0  0  0  0
  190.7880  177.1730  143.2060 C   0  0  2  0  0  3  0  0  0  0  0  0
  192.4520  175.7390  147.2410 S   0  0  2  0  0  0  0  0  0  0  0  0
  191.6420  174.5480  147.7370 O   0  0  0  0  0  0  0  0  0  0  0  0
  192.1430  177.0290  148.4570 C   0  0  0  0  0  1  0  0  0  0  0  0
  181.0720  180.2350  138.9070 N   0  0  0  0  0  2  0  0  0  0  0  0
  179.0730  180.0390  137.1680 O   0  0  0  0  0  0  0  0  0  0  0  0
  180.4060  179.4360  137.5150 S   0  0  0  0  0  0  0  0  0  0  0  0
  181.3510  179.6520  136.3660 O   0  0  0  0  0  0  0  0  0  0  0  0
  180.2250  177.6750  137.8250 C   0  0  1  0  0  3  0  0  0  0  0  0
  178.9310  177.1330  137.2490 C   0  0  0  0  0  1  0  0  0  0  0  0
  181.3480  176.4390  135.9420 C   0  0  0  0  0  1  0  0  0  0  0  0
  181.4320  176.8090  137.4170 C   0  0  2  0  0  3  0  0  0  0  0  0
  180.0170  174.9180  139.8360 C   0  0  0  0  0  0  0  0  0  0  0  0
  183.1820  175.7180  138.6770 O   0  0  0  0  0  1  0  0  0  0  0  0
  179.2970  175.0540  141.1280 C   0  0  0  0  0  1  0  0  0  0  0  0
  181.6270  174.2630  137.6410 C   0  0  1  0  0  3  0  0  0  0  0  0
  179.5940  173.9590  138.9090 O   0  0  0  0  0  0  0  0  0  0  0  0
  181.8280  175.6230  138.3500 C   0  0  2  0  0  0  0  0  0  0  0  0
  180.1490  173.8880  137.6000 C   0  0  0  0  0  2  0  0  0  0  0  0
  181.0520  175.6670  139.5960 N   0  0  0  0  0  0  0  0  0  0  0  0
  182.1600  174.2770  136.3480 O   0  0  0  0  0  0  0  0  0  0  0  0
  182.7550  173.0240  136.1930 C   0  0  0  0  0  1  0  0  0  0  0  0
  2 17  1  0  0  0  0
  3 20  2  0  0  0  0
  4 22  1  0  0  0  0
  6  5  1  0  0  0  0
  6 10  2  0  0  0  0
  7  8  1  6  0  0  0
  7 18  1  0  0  0  0
  9 24  1  0  0  0  0
 10  8  1  0  0  0  0
 11 21  1  0  0  0  0
 12  5  1  6  0  0  0
 12 24  1  0  0  0  0
 12  7  1  0  0  0  0
 13 28  1  0  0  0  0
 14  1  1  0  0  0  0
 15 13  2  0  0  0  0
 16 25  1  1  0  0  0
 16 34  1  0  0  0  0
 17  4  1  0  0  0  0
 18 16  1  0  0  0  0
 19  2  1  0  0  0  0
 20  9  1  0  0  0  0
 20 19  1  0  0  0  0
 22 26  3  0  0  0  0
 23 15  1  1  0  0  0
 23  1  1  0  0  0  0
 23 11  1  0  0  0  0
 25 14  1  0  0  0  0
 26 27  1  0  0  0  0
 27 13  1  0  0  0  0
 28 21  1  0  0  0  0
 29 33  2  0  0  0  0
 30 35  1  0  0  0  0
 31 32  1  0  0  0  0
 32 30  2  0  0  0  0
 33 30  1  0  0  0  0
 34 29  1  1  0  0  0
 34 31  1  0  0  0  0
 35 36  2  0  0  0  0
 35 37  1  1  0  0  0
 38  4  1  0  0  0  0
 39 40  2  0  0  0  0
 40 42  1  0  0  0  0
 40 38  1  0  0  0  0
 41 40  2  0  0  0  0
 42 43  1  6  0  0  0
 45 44  1  6  0  0  0
 45 42  1  0  0  0  0
 45 51  1  0  0  0  0
 46 48  1  0  0  0  0
 49 54  1  6  0  0  0
 49 51  1  0  0  0  0
 50 46  1  0  0  0  0
 51 47  1  1  0  0  0
 51 53  1  0  0  0  0
 52 49  1  0  0  0  0
 52 50  1  0  0  0  0
 53 46  2  0  0  0  0
 55 54  1  0  0  0  0
M  END
>  <MODEL>
2

>  <REMARK>
 VINA RESULT:      -6.7      1.696      2.162
  Name = 
  8 active torsions:
  status: ('A' for Active; 'I' for Inactive)
    1  A    between atoms: C_6  and  C_14
    2  A    between atoms: C_6  and  S_20
    3  A    between atoms: N_8  and  N_22
    4  A    between atoms: S_10  and  C_32
    5  A    between atoms: O_11  and  C_29
    6  A    between atoms: C_14  and  C_38
    7  A    between atoms: S_20  and  N_22
    8  A    between atoms: C_33  and  C_52
                            x       y       z     vdW  Elec       q    Type
                         _______ _______ _______ _____ _____    ______ ____

>  <TORSDO>
F 8

$$$$
=
 OpenBabel11052414563D

 55 59  0  0  1  0  0  0  0  0999 V2000
  185.9860  178.2530  143.6440 C   0  0  0  0  0  2  0  0  0  0  0  0
  184.6200  177.7530  137.2620 C   0  0  0  0  0  2  0  0  0  0  0  0
  186.8800  176.0460  137.2960 O   0  0  0  0  0  0  0  0  0  0  0  0
  182.3340  178.5250  137.6420 N   0  0  0  0  0  0  0  0  0  0  0  0
  191.0650  176.3320  138.5820 C   0  0  0  0  0  2  0  0  0  0  0  0
  192.5410  176.4680  138.8310 C   0  0  0  0  0  3  0  0  0  0  0  0
  190.6430  177.3660  140.8070 C   0  0  2  0  0  3  0  0  0  0  0  0
  192.0920  177.4710  140.9680 N   0  0  0  0  0  2  0  0  0  0  0  0
  188.4350  177.7480  137.8890 C   0  0  0  0  0  2  0  0  0  0  0  0
  193.0000  176.9800  139.9740 C   0  0  0  0  0  3  0  0  0  0  0  0
  184.1070  179.8890  143.9730 C   0  0  0  0  0  2  0  0  0  0  0  0
  190.2720  177.4150  139.3210 C   0  0  2  0  0  3  0  0  0  0  0  0
  182.6980  178.0520  142.3570 C   0  0  0  0  0  0  0  0  0  0  0  0
  186.7850  177.5840  142.7080 O   0  0  0  0  0  0  0  0  0  0  0  0
  184.0120  178.1920  142.1090 C   0  0  0  0  0  3  0  0  0  0  0  0
  189.1570  177.7800  142.4090 C   0  0  2  0  0  3  0  0  0  0  0  0
  183.6830  178.9460  137.2950 C   0  0  0  0  0  2  0  0  0  0  0  0
  190.0240  178.4080  141.5070 O   0  0  0  0  0  0  0  0  0  0  0  0
  185.9850  178.1940  137.4910 N   0  0  0  0  0  2  0  0  0  0  0  0
  187.0700  177.2680  137.5390 C   0  0  0  0  0  0  0  0  0  0  0  0
  183.0260  179.0870  144.5450 N   0  0  0  0  0  2  0  0  0  0  0  0
  182.1030  178.0610  138.9460 C   0  0  0  0  0  0  0  0  0  0  0  0
  184.9040  179.0720  142.9490 C   0  0  2  0  0  3  0  0  0  0  0  0
  188.8450  177.1710  139.1610 N   0  0  0  0  0  2  0  0  0  0  0  0
  187.8040  178.4810  142.3750 C   0  0  0  0  0  2  0  0  0  0  0  0
  181.9480  177.6680  140.0750 C   0  0  0  0  0  0  0  0  0  0  0  0
  181.8430  177.2060  141.4630 C   0  0  0  0  0  2  0  0  0  0  0  0
  182.0570  178.8180  143.4830 C   0  0  0  0  0  2  0  0  0  0  0  0
  190.9360  176.8160  143.9020 C   0  0  0  0  0  3  0  0  0  0  0  0
  190.6150  176.7220  146.3210 C   0  0  0  0  0  0  0  0  0  0  0  0
  188.7380  177.5040  144.9160 C   0  0  0  0  0  2  0  0  0  0  0  0
  189.4100  177.3030  146.2460 C   0  0  0  0  0  3  0  0  0  0  0  0
  191.3430  176.3590  145.0900 C   0  0  0  0  0  3  0  0  0  0  0  0
  189.7740  177.7700  143.8120 C   0  0  2  0  0  3  0  0  0  0  0  0
  191.3600  176.4050  147.9020 S   0  0  2  0  0  0  0  0  0  0  0  0
  191.9660  177.7440  148.3020 O   0  0  0  0  0  0  0  0  0  0  0  0
  192.7810  175.3630  147.5330 C   0  0  0  0  0  1  0  0  0  0  0  0
  181.2610  178.9830  136.8610 N   0  0  0  0  0  2  0  0  0  0  0  0
  179.7440  177.0440  137.8590 O   0  0  0  0  0  0  0  0  0  0  0  0
  180.1630  177.6700  136.5590 S   0  0  0  0  0  0  0  0  0  0  0  0
  178.9490  178.2360  135.8770 O   0  0  0  0  0  0  0  0  0  0  0  0
  180.9300  176.4380  135.4990 C   0  0  1  0  0  3  0  0  0  0  0  0
  182.1280  177.0010  134.7590 C   0  0  0  0  0  1  0  0  0  0  0  0
  182.7690  174.9730  136.3960 C   0  0  0  0  0  1  0  0  0  0  0  0
  181.2660  175.1000  136.1850 C   0  0  2  0  0  3  0  0  0  0  0  0
  182.0340  171.8370  135.7440 C   0  0  0  0  0  0  0  0  0  0  0  0
  179.7180  174.1430  134.5950 O   0  0  0  0  0  1  0  0  0  0  0  0
  183.0680  170.9730  135.1180 C   0  0  0  0  0  1  0  0  0  0  0  0
  179.7420  173.1120  136.7260 C   0  0  1  0  0  3  0  0  0  0  0  0
  181.5160  171.4940  136.9970 O   0  0  0  0  0  0  0  0  0  0  0  0
  180.5880  173.8070  135.6340 C   0  0  2  0  0  0  0  0  0  0  0  0
  180.6380  172.3620  137.7070 C   0  0  0  0  0  2  0  0  0  0  0  0
  181.5980  172.8820  135.1040 N   0  0  0  0  0  0  0  0  0  0  0  0
  178.9350  174.0270  137.4090 O   0  0  0  0  0  0  0  0  0  0  0  0
  179.0160  173.6460  138.7490 C   0  0  0  0  0  1  0  0  0  0  0  0
  2 17  1  0  0  0  0
  2 19  1  0  0  0  0
  3 20  2  0  0  0  0
  4 22  1  0  0  0  0
  5  6  1  0  0  0  0
  6 10  2  0  0  0  0
  7  8  1  6  0  0  0
  7 18  1  0  0  0  0
  9 24  1  0  0  0  0
 10  8  1  0  0  0  0
 11 21  1  0  0  0  0
 12  5  1  6  0  0  0
 12  7  1  0  0  0  0
 13 28  1  0  0  0  0
 14  1  1  0  0  0  0
 15 13  2  0  0  0  0
 16 25  1  1  0  0  0
 16 34  1  0  0  0  0
 17  4  1  0  0  0  0
 18 16  1  0  0  0  0
 19 20  1  0  0  0  0
 20  9  1  0  0  0  0
 22 26  3  0  0  0  0
 23 15  1  1  0  0  0
 23  1  1  0  0  0  0
 23 11  1  0  0  0  0
 24 12  1  0  0  0  0
 25 14  1  0  0  0  0
 26 27  1  0  0  0  0
 27 13  1  0  0  0  0
 28 21  1  0  0  0  0
 29 33  2  0  0  0  0
 30 35  1  0  0  0  0
 31 32  1  0  0  0  0
 32 30  2  0  0  0  0
 33 30  1  0  0  0  0
 34 29  1  6  0  0  0
 34 31  1  0  0  0  0
 35 37  1  6  0  0  0
 35 36  2  0  0  0  0
 38  4  1  0  0  0  0
 40 38  1  0  0  0  0
 40 39  2  0  0  0  0
 41 40  2  0  0  0  0
 42 43  1  1  0  0  0
 42 45  1  0  0  0  0
 42 40  1  0  0  0  0
 45 44  1  6  0  0  0
 46 50  1  0  0  0  0
 48 46  1  0  0  0  0
 49 54  1  1  0  0  0
 49 52  1  0  0  0  0
 50 52  1  0  0  0  0
 51 47  1  6  0  0  0
 51 45  1  0  0  0  0
 51 49  1  0  0  0  0
 53 51  1  0  0  0  0
 53 46  2  0  0  0  0
 54 55  1  0  0  0  0
M  END
>  <MODEL>
3

>  <REMARK>
 VINA RESULT:      -6.5      1.141      1.762
  Name = 
  8 active torsions:
  status: ('A' for Active; 'I' for Inactive)
    1  A    between atoms: C_6  and  C_14
    2  A    between atoms: C_6  and  S_20
    3  A    between atoms: N_8  and  N_22
    4  A    between atoms: S_10  and  C_32
    5  A    between atoms: O_11  and  C_29
    6  A    between atoms: C_14  and  C_38
    7  A    between atoms: S_20  and  N_22
    8  A    between atoms: C_33  and  C_52
                            x       y       z     vdW  Elec       q    Type
                         _______ _______ _______ _____ _____    ______ ____

>  <TORSDO>
F 8

$$$$
=
 OpenBabel11052414563D

 55 59  0  0  1  0  0  0  0  0999 V2000
  186.6090  178.0540  142.4810 C   0  0  0  0  0  2  0  0  0  0  0  0
  184.5970  176.8870  136.3620 C   0  0  0  0  0  2  0  0  0  0  0  0
  186.8230  175.1350  136.3650 O   0  0  0  0  0  0  0  0  0  0  0  0
  182.3730  177.7580  136.8760 N   0  0  0  0  0  0  0  0  0  0  0  0
  191.1200  175.4490  137.1920 C   0  0  0  0  0  2  0  0  0  0  0  0
  192.6150  175.5720  137.2770 C   0  0  0  0  0  3  0  0  0  0  0  0
  190.9420  176.7340  139.3160 C   0  0  2  0  0  3  0  0  0  0  0  0
  192.4010  176.8170  139.3210 N   0  0  0  0  0  2  0  0  0  0  0  0
  188.4550  176.8500  136.6060 C   0  0  0  0  0  2  0  0  0  0  0  0
  193.1960  176.1960  138.3030 C   0  0  0  0  0  3  0  0  0  0  0  0
  184.7990  179.7670  142.8070 C   0  0  0  0  0  2  0  0  0  0  0  0
  190.4230  176.6280  137.8780 C   0  0  2  0  0  3  0  0  0  0  0  0
  183.2060  177.8000  141.5560 C   0  0  0  0  0  0  0  0  0  0  0  0
  187.2990  177.2650  141.5510 O   0  0  0  0  0  0  0  0  0  0  0  0
  184.4900  177.8770  141.1640 C   0  0  0  0  0  3  0  0  0  0  0  0
  189.6310  177.3630  141.0000 C   0  0  2  0  0  3  0  0  0  0  0  0
  183.6870  178.1010  136.3530 C   0  0  0  0  0  2  0  0  0  0  0  0
  190.4120  177.8630  139.9510 O   0  0  0  0  0  0  0  0  0  0  0  0
  185.9850  177.3140  136.4040 N   0  0  0  0  0  2  0  0  0  0  0  0
  187.0550  176.3710  136.4490 C   0  0  0  0  0  0  0  0  0  0  0  0
  183.7690  179.0630  143.5690 N   0  0  0  0  0  2  0  0  0  0  0  0
  182.2690  177.4470  138.2410 C   0  0  0  0  0  0  0  0  0  0  0  0
  185.4760  178.8200  141.8080 C   0  0  2  0  0  3  0  0  0  0  0  0
  188.9830  176.4060  137.8880 N   0  0  0  0  0  2  0  0  0  0  0  0
  188.2930  178.0920  141.0210 C   0  0  0  0  0  2  0  0  0  0  0  0
  182.2230  177.1860  139.4160 C   0  0  0  0  0  0  0  0  0  0  0  0
  182.2510  176.8840  140.8520 C   0  0  0  0  0  2  0  0  0  0  0  0
  182.6930  178.7040  142.6450 C   0  0  0  0  0  2  0  0  0  0  0  0
  190.8460  176.1510  142.8390 C   0  0  0  0  0  3  0  0  0  0  0  0
  190.9670  177.0990  145.0860 C   0  0  0  0  0  0  0  0  0  0  0  0
  189.5900  178.2610  143.3930 C   0  0  0  0  0  2  0  0  0  0  0  0
  190.2750  178.1900  144.7310 C   0  0  0  0  0  3  0  0  0  0  0  0
  191.1490  175.9900  144.1300 C   0  0  0  0  0  3  0  0  0  0  0  0
  190.3860  177.4920  142.3270 C   0  0  2  0  0  3  0  0  0  0  0  0
  191.6950  176.9870  146.7020 S   0  0  2  0  0  0  0  0  0  0  0  0
  192.1110  175.5260  146.8220 O   0  0  0  0  0  0  0  0  0  0  0  0
  190.3080  177.1540  147.8370 C   0  0  0  0  0  1  0  0  0  0  0  0
  181.2350  178.1550  136.1580 N   0  0  0  0  0  2  0  0  0  0  0  0
  179.0300  178.1060  137.6400 O   0  0  0  0  0  0  0  0  0  0  0  0
  179.8560  177.2560  136.7160 S   0  0  0  0  0  0  0  0  0  0  0  0
  179.0270  176.8960  135.5150 O   0  0  0  0  0  0  0  0  0  0  0  0
  180.3790  175.7570  137.5580 C   0  0  1  0  0  3  0  0  0  0  0  0
  179.7070  175.6090  138.9110 C   0  0  0  0  0  1  0  0  0  0  0  0
  179.6930  173.3360  137.5730 C   0  0  0  0  0  1  0  0  0  0  0  0
  180.2700  174.4640  136.7280 C   0  0  2  0  0  3  0  0  0  0  0  0
  183.2750  172.9770  137.1540 C   0  0  0  0  0  0  0  0  0  0  0  0
  181.6630  174.9620  134.8170 O   0  0  0  0  0  1  0  0  0  0  0  0
  184.5110  173.0940  137.9700 C   0  0  0  0  0  1  0  0  0  0  0  0
  181.2800  172.6600  135.2150 C   0  0  1  0  0  3  0  0  0  0  0  0
  182.7430  171.7110  136.8870 O   0  0  0  0  0  0  0  0  0  0  0  0
  181.4980  174.0480  135.8600 C   0  0  2  0  0  0  0  0  0  0  0  0
  181.4850  171.5490  136.2410 C   0  0  0  0  0  2  0  0  0  0  0  0
  182.7230  174.0490  136.6690 N   0  0  0  0  0  0  0  0  0  0  0  0
  180.0120  172.5570  134.6350 O   0  0  0  0  0  0  0  0  0  0  0  0
  179.6910  171.2010  134.7130 C   0  0  0  0  0  1  0  0  0  0  0  0
  2 19  1  0  0  0  0
  3 20  2  0  0  0  0
  4 22  1  0  0  0  0
  5  6  1  0  0  0  0
  6 10  2  0  0  0  0
  7  8  1  6  0  0  0
  7 18  1  0  0  0  0
  9 24  1  0  0  0  0
 10  8  1  0  0  0  0
 11 21  1  0  0  0  0
 12  5  1  1  0  0  0
 12 24  1  0  0  0  0
 12  7  1  0  0  0  0
 13 28  1  0  0  0  0
 14  1  1  0  0  0  0
 15 13  2  0  0  0  0
 16 25  1  1  0  0  0
 16 34  1  0  0  0  0
 17  2  1  0  0  0  0
 17  4  1  0  0  0  0
 18 16  1  0  0  0  0
 19 20  1  0  0  0  0
 20  9  1  0  0  0  0
 22 26  3  0  0  0  0
 23 15  1  1  0  0  0
 23  1  1  0  0  0  0
 23 11  1  0  0  0  0
 25 14  1  0  0  0  0
 26 27  1  0  0  0  0
 27 13  1  0  0  0  0
 28 21  1  0  0  0  0
 29 33  2  0  0  0  0
 30 35  1  0  0  0  0
 31 32  1  0  0  0  0
 32 30  2  0  0  0  0
 33 30  1  0  0  0  0
 34 29  1  1  0  0  0
 34 31  1  0  0  0  0
 35 36  2  0  0  0  0
 35 37  1  1  0  0  0
 38 40  1  0  0  0  0
 38  4  1  0  0  0  0
 40 42  1  0  0  0  0
 40 39  2  0  0  0  0
 41 40  2  0  0  0  0
 42 43  1  1  0  0  0
 45 42  1  0  0  0  0
 45 44  1  1  0  0  0
 46 48  1  0  0  0  0
 49 54  1  1  0  0  0
 49 51  1  0  0  0  0
 49 52  1  0  0  0  0
 50 46  1  0  0  0  0
 51 47  1  6  0  0  0
 51 53  1  0  0  0  0
 51 45  1  0  0  0  0
 52 50  1  0  0  0  0
 53 46  2  0  0  0  0
 54 55  1  0  0  0  0
M  END
>  <MODEL>
4

>  <REMARK>
 VINA RESULT:      -5.4      1.557      2.229
  Name = 
  8 active torsions:
  status: ('A' for Active; 'I' for Inactive)
    1  A    between atoms: C_6  and  C_14
    2  A    between atoms: C_6  and  S_20
    3  A    between atoms: N_8  and  N_22
    4  A    between atoms: S_10  and  C_32
    5  A    between atoms: O_11  and  C_29
    6  A    between atoms: C_14  and  C_38
    7  A    between atoms: S_20  and  N_22
    8  A    between atoms: C_33  and  C_52
                            x       y       z     vdW  Elec       q    Type
                         _______ _______ _______ _____ _____    ______ ____

>  <TORSDO>
F 8

$$$$
=
 OpenBabel11052414563D

 55 59  0  0  1  0  0  0  0  0999 V2000
  186.8190  177.9220  141.7880 C   0  0  0  0  0  2  0  0  0  0  0  0
  185.7680  176.4100  135.5070 C   0  0  0  0  0  2  0  0  0  0  0  0
  188.0450  174.7730  135.9110 O   0  0  0  0  0  0  0  0  0  0  0  0
  183.4570  177.1870  135.6570 N   0  0  0  0  0  0  0  0  0  0  0  0
  192.1590  175.3370  137.3260 C   0  0  0  0  0  2  0  0  0  0  0  0
  193.6190  175.5390  137.6180 C   0  0  0  0  0  3  0  0  0  0  0  0
  191.6180  176.6960  139.3410 C   0  0  2  0  0  3  0  0  0  0  0  0
  193.0560  176.8530  139.5490 N   0  0  0  0  0  2  0  0  0  0  0  0
  189.5480  176.5770  136.3010 C   0  0  0  0  0  2  0  0  0  0  0  0
  194.0170  176.2310  138.6860 C   0  0  0  0  0  3  0  0  0  0  0  0
  184.9070  179.5530  141.7720 C   0  0  0  0  0  2  0  0  0  0  0  0
  191.3180  176.5060  137.8490 C   0  0  2  0  0  3  0  0  0  0  0  0
  183.6000  177.4600  140.4000 C   0  0  0  0  0  0  0  0  0  0  0  0
  187.6700  177.1320  141.0050 O   0  0  0  0  0  0  0  0  0  0  0  0
  184.9230  177.5860  140.1930 C   0  0  0  0  0  3  0  0  0  0  0  0
  190.0510  177.3260  140.7880 C   0  0  2  0  0  3  0  0  0  0  0  0
  184.8160  177.5750  135.3110 C   0  0  0  0  0  2  0  0  0  0  0  0
  190.9530  177.8220  139.8390 O   0  0  0  0  0  0  0  0  0  0  0  0
  187.1150  176.9070  135.7270 N   0  0  0  0  0  2  0  0  0  0  0  0
  188.2070  176.0220  135.9680 C   0  0  0  0  0  0  0  0  0  0  0  0
  183.8100  178.8300  142.4110 N   0  0  0  0  0  2  0  0  0  0  0  0
  183.1690  176.9270  137.0060 C   0  0  0  0  0  0  0  0  0  0  0  0
  185.7620  178.6030  140.9250 C   0  0  2  0  0  3  0  0  0  0  0  0
  189.9030  176.2120  137.6640 N   0  0  0  0  0  2  0  0  0  0  0  0
  188.6930  177.9860  140.5840 C   0  0  0  0  0  2  0  0  0  0  0  0
  182.9650  176.7120  138.1740 C   0  0  0  0  0  0  0  0  0  0  0  0
  182.7980  176.4690  139.6110 C   0  0  0  0  0  2  0  0  0  0  0  0
  182.8960  178.3800  141.3610 C   0  0  0  0  0  2  0  0  0  0  0  0
  191.0290  176.2500  142.8410 C   0  0  0  0  0  3  0  0  0  0  0  0
  190.7870  177.3000  145.0320 C   0  0  0  0  0  0  0  0  0  0  0  0
  189.6290  178.3250  143.1030 C   0  0  0  0  0  2  0  0  0  0  0  0
  190.1140  178.3430  144.5270 C   0  0  0  0  0  3  0  0  0  0  0  0
  191.1470  176.1590  144.1690 C   0  0  0  0  0  3  0  0  0  0  0  0
  190.6000  177.5460  142.2020 C   0  0  2  0  0  3  0  0  0  0  0  0
  191.2760  177.2910  146.7390 S   0  0  2  0  0  0  0  0  0  0  0  0
  191.6870  175.8480  147.0000 O   0  0  0  0  0  0  0  0  0  0  0  0
  189.7370  177.4920  147.6520 C   0  0  0  0  0  1  0  0  0  0  0  0
  182.4180  177.4980  134.7660 N   0  0  0  0  0  2  0  0  0  0  0  0
  179.7830  177.8390  134.8200 O   0  0  0  0  0  0  0  0  0  0  0  0
  181.0170  178.0000  135.6640 S   0  0  0  0  0  0  0  0  0  0  0  0
  180.9010  177.1090  136.8690 O   0  0  0  0  0  0  0  0  0  0  0  0
  181.1850  179.7090  136.1910 C   0  0  1  0  0  3  0  0  0  0  0  0
  180.8970  180.6780  135.0600 C   0  0  0  0  0  1  0  0  0  0  0  0
  178.9310  180.2850  137.1510 C   0  0  0  0  0  1  0  0  0  0  0  0
  180.4070  180.0830  137.4680 C   0  0  2  0  0  3  0  0  0  0  0  0
  180.7160  183.4480  137.5440 C   0  0  0  0  0  0  0  0  0  0  0  0
  182.1510  180.6690  139.0350 O   0  0  0  0  0  1  0  0  0  0  0  0
  181.2090  184.5770  136.7140 C   0  0  0  0  0  1  0  0  0  0  0  0
  180.0180  181.5800  139.5100 C   0  0  1  0  0  3  0  0  0  0  0  0
  179.5260  183.5920  138.2650 O   0  0  0  0  0  0  0  0  0  0  0  0
  181.0150  181.1760  138.4000 C   0  0  2  0  0  0  0  0  0  0  0  0
  178.9320  182.4960  138.9540 C   0  0  0  0  0  2  0  0  0  0  0  0
  181.4140  182.3540  137.6190 N   0  0  0  0  0  0  0  0  0  0  0  0
  179.4430  180.4590  140.1160 O   0  0  0  0  0  0  0  0  0  0  0  0
  179.9700  180.4400  141.4080 C   0  0  0  0  0  1  0  0  0  0  0  0
  2 19  1  0  0  0  0
  3 20  2  0  0  0  0
  4 22  1  0  0  0  0
  5  6  1  0  0  0  0
  6 10  2  0  0  0  0
  7  8  1  6  0  0  0
  7 18  1  0  0  0  0
  9 24  1  0  0  0  0
 10  8  1  0  0  0  0
 11 21  1  0  0  0  0
 12  5  1  1  0  0  0
 12  7  1  0  0  0  0
 13 28  1  0  0  0  0
 14  1  1  0  0  0  0
 15 13  2  0  0  0  0
 16 25  1  1  0  0  0
 16 34  1  0  0  0  0
 17  2  1  0  0  0  0
 17  4  1  0  0  0  0
 18 16  1  0  0  0  0
 19 20  1  0  0  0  0
 20  9  1  0  0  0  0
 22 26  3  0  0  0  0
 23 15  1  1  0  0  0
 23 11  1  0  0  0  0
 23  1  1  0  0  0  0
 24 12  1  0  0  0  0
 25 14  1  0  0  0  0
 26 27  1  0  0  0  0
 27 13  1  0  0  0  0
 28 21  1  0  0  0  0
 29 33  2  0  0  0  0
 30 35  1  0  0  0  0
 31 32  1  0  0  0  0
 32 30  2  0  0  0  0
 33 30  1  0  0  0  0
 34 29  1  1  0  0  0
 34 31  1  0  0  0  0
 35 36  2  0  0  0  0
 35 37  1  1  0  0  0
 38  4  1  0  0  0  0
 38 40  1  0  0  0  0
 39 40  2  0  0  0  0
 40 42  1  0  0  0  0
 40 41  2  0  0  0  0
 42 43  1  6  0  0  0
 42 45  1  0  0  0  0
 45 44  1  6  0  0  0
 45 51  1  0  0  0  0
 46 53  2  0  0  0  0
 46 50  1  0  0  0  0
 48 46  1  0  0  0  0
 49 54  1  6  0  0  0
 50 52  1  0  0  0  0
 51 47  1  1  0  0  0
 51 49  1  0  0  0  0
 52 49  1  0  0  0  0
 53 51  1  0  0  0  0
 54 55  1  0  0  0  0
M  END
>  <MODEL>
5

>  <REMARK>
 VINA RESULT:      -4.9      2.807      4.915
  Name = 
  8 active torsions:
  status: ('A' for Active; 'I' for Inactive)
    1  A    between atoms: C_6  and  C_14
    2  A    between atoms: C_6  and  S_20
    3  A    between atoms: N_8  and  N_22
    4  A    between atoms: S_10  and  C_32
    5  A    between atoms: O_11  and  C_29
    6  A    between atoms: C_14  and  C_38
    7  A    between atoms: S_20  and  N_22
    8  A    between atoms: C_33  and  C_52
                            x       y       z     vdW  Elec       q    Type
                         _______ _______ _______ _____ _____    ______ ____

>  <TORSDO>
F 8

$$$$
=
 OpenBabel11052414563D

 55 59  0  0  1  0  0  0  0  0999 V2000
  188.6230  177.8980  142.1400 C   0  0  0  0  0  2  0  0  0  0  0  0
  186.8300  176.3100  136.0480 C   0  0  0  0  0  2  0  0  0  0  0  0
  184.8070  178.2290  136.5460 O   0  0  0  0  0  0  0  0  0  0  0  0
  189.0480  175.3960  135.5820 N   0  0  0  0  0  0  0  0  0  0  0  0
  181.7190  178.8790  139.5940 C   0  0  0  0  0  2  0  0  0  0  0  0
  180.5350  179.0140  140.5100 C   0  0  0  0  0  3  0  0  0  0  0  0
  183.1590  178.5020  141.5900 C   0  0  2  0  0  3  0  0  0  0  0  0
  181.9570  178.6380  142.4100 N   0  0  0  0  0  2  0  0  0  0  0  0
  183.7540  176.9930  138.2870 C   0  0  0  0  0  2  0  0  0  0  0  0
  180.6770  178.9260  141.8340 C   0  0  0  0  0  3  0  0  0  0  0  0
  190.4780  176.2030  142.0940 C   0  0  0  0  0  2  0  0  0  0  0  0
  182.7930  177.9690  140.2000 C   0  0  2  0  0  3  0  0  0  0  0  0
  190.9200  177.2830  139.5230 C   0  0  0  0  0  0  0  0  0  0  0  0
  187.4620  178.3580  141.5050 O   0  0  0  0  0  0  0  0  0  0  0  0
  189.6460  177.2460  139.9530 C   0  0  0  0  0  3  0  0  0  0  0  0
  185.2320  178.3900  142.3880 C   0  0  2  0  0  3  0  0  0  0  0  0
  187.7040  175.0690  136.0370 C   0  0  0  0  0  2  0  0  0  0  0  0
  184.0600  177.6420  142.2280 O   0  0  0  0  0  0  0  0  0  0  0  0
  185.7430  176.1370  136.9950 N   0  0  0  0  0  2  0  0  0  0  0  0
  184.7840  177.1680  137.2260 C   0  0  0  0  0  0  0  0  0  0  0  0
  191.6800  176.9900  141.8250 N   0  0  0  0  0  2  0  0  0  0  0  0
  189.8500  176.1900  136.4160 C   0  0  0  0  0  0  0  0  0  0  0  0
  189.2740  176.7770  141.3370 C   0  0  2  0  0  3  0  0  0  0  0  0
  183.9720  177.9680  139.3460 N   0  0  0  0  0  2  0  0  0  0  0  0
  186.4290  177.5420  141.9750 C   0  0  0  0  0  2  0  0  0  0  0  0
  190.5050  176.8750  137.1600 C   0  0  0  0  0  0  0  0  0  0  0  0
  191.2360  177.7090  138.1210 C   0  0  0  0  0  2  0  0  0  0  0  0
  192.0330  176.8060  140.4170 C   0  0  0  0  0  2  0  0  0  0  0  0
  186.6960  178.5920  144.4230 C   0  0  0  0  0  3  0  0  0  0  0  0
  185.7130  178.7740  146.6510 C   0  0  0  0  0  0  0  0  0  0  0  0
  184.2070  178.3820  144.7300 C   0  0  0  0  0  2  0  0  0  0  0  0
  184.4630  178.7310  146.1710 C   0  0  0  0  0  3  0  0  0  0  0  0
  186.8640  178.5740  145.7480 C   0  0  0  0  0  3  0  0  0  0  0  0
  185.3440  178.8940  143.8310 C   0  0  2  0  0  3  0  0  0  0  0  0
  186.0010  179.0960  148.3730 S   0  0  2  0  0  0  0  0  0  0  0  0
  186.0670  180.6150  148.4610 O   0  0  0  0  0  0  0  0  0  0  0  0
  187.6930  178.5550  148.6600 C   0  0  0  0  0  1  0  0  0  0  0  0
  189.6410  174.5930  134.5960 N   0  0  0  0  0  2  0  0  0  0  0  0
  190.3470  173.3210  136.8190 O   0  0  0  0  0  0  0  0  0  0  0  0
  190.6640  173.4090  135.3530 S   0  0  0  0  0  0  0  0  0  0  0  0
  190.3780  172.0800  134.7130 O   0  0  0  0  0  0  0  0  0  0  0  0
  192.3960  173.8300  135.1200 C   0  0  1  0  0  3  0  0  0  0  0  0
  192.5650  175.2440  134.5960 C   0  0  0  0  0  1  0  0  0  0  0  0
  193.0930  174.6300  137.4030 C   0  0  0  0  0  1  0  0  0  0  0  0
  193.3060  173.5650  136.3350 C   0  0  2  0  0  3  0  0  0  0  0  0
  196.2560  173.6650  137.9810 C   0  0  0  0  0  0  0  0  0  0  0  0
  195.1020  173.4660  134.7210 O   0  0  0  0  0  1  0  0  0  0  0  0
  197.1160  174.6060  138.7440 C   0  0  0  0  0  1  0  0  0  0  0  0
  195.0920  171.7280  136.3280 C   0  0  1  0  0  3  0  0  0  0  0  0
  196.1080  172.3490  138.4310 O   0  0  0  0  0  0  0  0  0  0  0  0
  194.8040  173.2240  136.0630 C   0  0  2  0  0  0  0  0  0  0  0  0
  195.1820  171.4510  137.8260 C   0  0  0  0  0  2  0  0  0  0  0  0
  195.6800  174.0660  136.8870 N   0  0  0  0  0  0  0  0  0  0  0  0
  194.1240  170.9070  135.7410 O   0  0  0  0  0  0  0  0  0  0  0  0
  194.0510  169.7880  136.5710 C   0  0  0  0  0  1  0  0  0  0  0  0
  2 19  1  0  0  0  0
  3 20  2  0  0  0  0
  4 17  1  0  0  0  0
  4 22  1  0  0  0  0
  5  6  1  0  0  0  0
  6 10  2  0  0  0  0
  7 18  1  1  0  0  0
  7  8  1  0  0  0  0
  9 24  1  0  0  0  0
 10  8  1  0  0  0  0
 12  5  1  6  0  0  0
 12  7  1  0  0  0  0
 13 15  2  0  0  0  0
 13 28  1  0  0  0  0
 14 25  1  0  0  0  0
 14  1  1  0  0  0  0
 16 25  1  1  0  0  0
 16 34  1  0  0  0  0
 17  2  1  0  0  0  0
 18 16  1  0  0  0  0
 19 20  1  0  0  0  0
 20  9  1  0  0  0  0
 21 11  1  0  0  0  0
 22 26  3  0  0  0  0
 23 15  1  6  0  0  0
 23 11  1  0  0  0  0
 23  1  1  0  0  0  0
 24 12  1  0  0  0  0
 26 27  1  0  0  0  0
 27 13  1  0  0  0  0
 28 21  1  0  0  0  0
 29 33  2  0  0  0  0
 30 35  1  0  0  0  0
 31 32  1  0  0  0  0
 32 30  2  0  0  0  0
 33 30  1  0  0  0  0
 34 29  1  1  0  0  0
 34 31  1  0  0  0  0
 35 36  2  0  0  0  0
 35 37  1  6  0  0  0
 38 40  1  0  0  0  0
 38  4  1  0  0  0  0
 40 39  2  0  0  0  0
 41 40  2  0  0  0  0
 42 43  1  1  0  0  0
 42 40  1  0  0  0  0
 42 45  1  0  0  0  0
 45 44  1  1  0  0  0
 46 50  1  0  0  0  0
 46 48  1  0  0  0  0
 49 54  1  1  0  0  0
 49 52  1  0  0  0  0
 51 47  1  6  0  0  0
 51 49  1  0  0  0  0
 51 45  1  0  0  0  0
 51 53  1  0  0  0  0
 52 50  1  0  0  0  0
 53 46  2  0  0  0  0
 54 55  1  0  0  0  0
M  END
>  <MODEL>
6

>  <REMARK>
 VINA RESULT:      -4.9      4.117      9.344
  Name = 
  8 active torsions:
  status: ('A' for Active; 'I' for Inactive)
    1  A    between atoms: C_6  and  C_14
    2  A    between atoms: C_6  and  S_20
    3  A    between atoms: N_8  and  N_22
    4  A    between atoms: S_10  and  C_32
    5  A    between atoms: O_11  and  C_29
    6  A    between atoms: C_14  and  C_38
    7  A    between atoms: S_20  and  N_22
    8  A    between atoms: C_33  and  C_52
                            x       y       z     vdW  Elec       q    Type
                         _______ _______ _______ _____ _____    ______ ____

>  <TORSDO>
F 8

$$$$
=
 OpenBabel11052414563D

 55 59  0  0  1  0  0  0  0  0999 V2000
  190.4130  177.2210  141.0280 C   0  0  0  0  0  2  0  0  0  0  0  0
  184.4240  178.1840  138.5680 C   0  0  0  0  0  2  0  0  0  0  0  0
  184.1320  179.7700  140.8970 O   0  0  0  0  0  0  0  0  0  0  0  0
  185.1760  177.5050  136.3450 N   0  0  0  0  0  0  0  0  0  0  0  0
  184.6130  179.1960  145.2200 C   0  0  0  0  0  2  0  0  0  0  0  0
  184.5800  178.9710  146.7050 C   0  0  0  0  0  3  0  0  0  0  0  0
  186.8210  178.0480  145.1440 C   0  0  2  0  0  3  0  0  0  0  0  0
  186.7080  177.8610  146.5890 N   0  0  0  0  0  2  0  0  0  0  0  0
  184.3410  177.9590  142.4270 C   0  0  0  0  0  2  0  0  0  0  0  0
  185.5910  178.3660  147.3310 C   0  0  0  0  0  3  0  0  0  0  0  0
  190.9950  175.6630  139.1450 C   0  0  0  0  0  2  0  0  0  0  0  0
  185.4270  178.1100  144.5090 C   0  0  2  0  0  3  0  0  0  0  0  0
  189.7630  177.6650  137.5810 C   0  0  0  0  0  0  0  0  0  0  0  0
  189.3820  177.9060  141.6850 O   0  0  0  0  0  0  0  0  0  0  0  0
  189.2710  177.4750  138.8180 C   0  0  0  0  0  3  0  0  0  0  0  0
  188.6440  177.6090  143.9480 C   0  0  2  0  0  3  0  0  0  0  0  0
  184.5670  177.0400  137.5820 C   0  0  0  0  0  2  0  0  0  0  0  0
  187.5660  176.9970  144.5990 O   0  0  0  0  0  0  0  0  0  0  0  0
  184.3760  177.6620  139.9230 N   0  0  0  0  0  2  0  0  0  0  0  0
  184.2720  178.5270  141.0530 C   0  0  0  0  0  0  0  0  0  0  0  0
  191.7960  176.4810  138.2350 N   0  0  0  0  0  2  0  0  0  0  0  0
  186.5230  177.8980  136.3820 C   0  0  0  0  0  0  0  0  0  0  0  0
  189.8870  176.5010  139.7920 C   0  0  2  0  0  3  0  0  0  0  0  0
  185.5440  178.4350  143.0940 N   0  0  0  0  0  2  0  0  0  0  0  0
  188.8220  176.9810  142.5710 C   0  0  0  0  0  2  0  0  0  0  0  0
  187.6800  178.2280  136.4570 C   0  0  0  0  0  0  0  0  0  0  0  0
  189.0860  178.6070  136.6320 C   0  0  0  0  0  2  0  0  0  0  0  0
  190.9450  176.8640  137.1080 C   0  0  0  0  0  2  0  0  0  0  0  0
  190.6420  176.2080  144.5590 C   0  0  0  0  0  3  0  0  0  0  0  0
  191.7050  176.4430  146.7450 C   0  0  0  0  0  0  0  0  0  0  0  0
  189.6330  177.7170  146.3030 C   0  0  0  0  0  2  0  0  0  0  0  0
  190.8540  177.4050  147.1250 C   0  0  0  0  0  3  0  0  0  0  0  0
  191.5090  175.7410  145.4620 C   0  0  0  0  0  3  0  0  0  0  0  0
  189.9090  177.5020  144.8070 C   0  0  2  0  0  3  0  0  0  0  0  0
  193.0940  176.0200  147.7680 S   0  0  2  0  0  0  0  0  0  0  0  0
  192.7900  174.6040  148.2390 O   0  0  0  0  0  0  0  0  0  0  0  0
  192.8980  177.0350  149.2410 C   0  0  0  0  0  1  0  0  0  0  0  0
  184.5820  177.1510  135.1240 N   0  0  0  0  0  2  0  0  0  0  0  0
  182.5510  176.9870  136.8290 O   0  0  0  0  0  0  0  0  0  0  0  0
  182.8880  176.8540  135.3700 S   0  0  0  0  0  0  0  0  0  0  0  0
  182.1240  177.8930  134.5980 O   0  0  0  0  0  0  0  0  0  0  0  0
  182.4420  175.2160  134.7800 C   0  0  1  0  0  3  0  0  0  0  0  0
  183.6620  174.3340  134.5940 C   0  0  0  0  0  1  0  0  0  0  0  0
  180.0850  175.3540  135.6540 C   0  0  0  0  0  1  0  0  0  0  0  0
  181.3460  174.5010  135.5930 C   0  0  2  0  0  3  0  0  0  0  0  0
  180.0000  174.0320  138.6580 C   0  0  0  0  0  0  0  0  0  0  0  0
  183.1220  174.0170  137.1590 O   0  0  0  0  0  1  0  0  0  0  0  0
  179.3590  174.7930  139.7620 C   0  0  0  0  0  1  0  0  0  0  0  0
  181.4600  172.3420  136.9700 C   0  0  1  0  0  3  0  0  0  0  0  0
  179.4900  172.7800  138.2990 O   0  0  0  0  0  0  0  0  0  0  0  0
  181.7490  173.8610  136.9580 C   0  0  2  0  0  0  0  0  0  0  0  0
  179.9690  172.0780  137.1560 C   0  0  0  0  0  2  0  0  0  0  0  0
  181.0470  174.5230  138.0640 N   0  0  0  0  0  0  0  0  0  0  0  0
  181.9200  171.7240  135.8030 O   0  0  0  0  0  0  0  0  0  0  0  0
  182.9870  170.9250  136.2170 C   0  0  0  0  0  1  0  0  0  0  0  0
  1 14  1  0  0  0  0
  2 19  1  0  0  0  0
  3 20  2  0  0  0  0
  4 22  1  0  0  0  0
  4 17  1  0  0  0  0
  5  6  1  0  0  0  0
  6 10  2  0  0  0  0
  7 18  1  6  0  0  0
  7  8  1  0  0  0  0
  8 10  1  0  0  0  0
  9 24  1  0  0  0  0
 11 23  1  0  0  0  0
 12  7  1  0  0  0  0
 12  5  1  1  0  0  0
 13 15  2  0  0  0  0
 14 25  1  0  0  0  0
 16 25  1  6  0  0  0
 16 18  1  0  0  0  0
 16 34  1  0  0  0  0
 17  2  1  0  0  0  0
 19 20  1  0  0  0  0
 20  9  1  0  0  0  0
 21 11  1  0  0  0  0
 22 26  3  0  0  0  0
 23 15  1  6  0  0  0
 23  1  1  0  0  0  0
 24 12  1  0  0  0  0
 26 27  1  0  0  0  0
 27 13  1  0  0  0  0
 28 13  1  0  0  0  0
 28 21  1  0  0  0  0
 29 33  2  0  0  0  0
 30 32  2  0  0  0  0
 30 35  1  0  0  0  0
 31 32  1  0  0  0  0
 33 30  1  0  0  0  0
 34 29  1  1  0  0  0
 34 31  1  0  0  0  0
 35 36  2  0  0  0  0
 35 37  1  1  0  0  0
 38 40  1  0  0  0  0
 38  4  1  0  0  0  0
 40 39  2  0  0  0  0
 41 40  2  0  0  0  0
 42 43  1  1  0  0  0
 42 40  1  0  0  0  0
 42 45  1  0  0  0  0
 45 44  1  1  0  0  0
 45 51  1  0  0  0  0
 46 48  1  0  0  0  0
 49 54  1  6  0  0  0
 49 52  1  0  0  0  0
 50 46  1  0  0  0  0
 51 49  1  0  0  0  0
 51 47  1  1  0  0  0
 51 53  1  0  0  0  0
 52 50  1  0  0  0  0
 53 46  2  0  0  0  0
 54 55  1  0  0  0  0
M  END
>  <MODEL>
7

>  <REMARK>
 VINA RESULT:      -4.7      1.921      5.257
  Name = 
  8 active torsions:
  status: ('A' for Active; 'I' for Inactive)
    1  A    between atoms: C_6  and  C_14
    2  A    between atoms: C_6  and  S_20
    3  A    between atoms: N_8  and  N_22
    4  A    between atoms: S_10  and  C_32
    5  A    between atoms: O_11  and  C_29
    6  A    between atoms: C_14  and  C_38
    7  A    between atoms: S_20  and  N_22
    8  A    between atoms: C_33  and  C_52
                            x       y       z     vdW  Elec       q    Type
                         _______ _______ _______ _____ _____    ______ ____

>  <TORSDO>
F 8

$$$$
=
 OpenBabel11052414563D

 55 59  0  0  1  0  0  0  0  0999 V2000
  185.1900  177.9760  142.4520 C   0  0  0  0  0  2  0  0  0  0  0  0
  185.0250  176.6830  136.0370 C   0  0  0  0  0  2  0  0  0  0  0  0
  187.4410  175.3280  136.6310 O   0  0  0  0  0  0  0  0  0  0  0  0
  182.6280  177.1520  135.9570 N   0  0  0  0  0  0  0  0  0  0  0  0
  191.2700  176.3310  138.5220 C   0  0  0  0  0  2  0  0  0  0  0  0
  192.6510  176.7000  138.9850 C   0  0  0  0  0  3  0  0  0  0  0  0
  190.3430  177.5000  140.5150 C   0  0  2  0  0  3  0  0  0  0  0  0
  191.7170  177.8260  140.8910 N   0  0  0  0  0  2  0  0  0  0  0  0
  188.6430  177.2840  137.2590 C   0  0  0  0  0  2  0  0  0  0  0  0
  192.8380  177.3790  140.1180 C   0  0  0  0  0  3  0  0  0  0  0  0
  183.0930  179.3500  142.2840 C   0  0  0  0  0  2  0  0  0  0  0  0
  190.2310  177.3550  138.9930 C   0  0  2  0  0  3  0  0  0  0  0  0
  182.2270  177.1850  140.6920 C   0  0  0  0  0  0  0  0  0  0  0  0
  186.2170  177.3430  141.7400 O   0  0  0  0  0  0  0  0  0  0  0  0
  183.5360  177.4880  140.6410 C   0  0  0  0  0  3  0  0  0  0  0  0
  188.5610  177.8480  141.8000 C   0  0  2  0  0  3  0  0  0  0  0  0
  183.9540  177.7270  135.7810 C   0  0  0  0  0  2  0  0  0  0  0  0
  189.4860  178.5040  140.9800 O   0  0  0  0  0  0  0  0  0  0  0  0
  186.2630  177.3340  136.4270 N   0  0  0  0  0  2  0  0  0  0  0  0
  187.4310  176.5820  136.7550 C   0  0  0  0  0  0  0  0  0  0  0  0
  182.0390  178.4600  142.7670 N   0  0  0  0  0  2  0  0  0  0  0  0
  182.2350  176.7850  137.2530 C   0  0  0  0  0  0  0  0  0  0  0  0
  184.1510  178.5620  141.5030 C   0  0  2  0  0  3  0  0  0  0  0  0
  188.8960  176.8940  138.6380 N   0  0  0  0  0  2  0  0  0  0  0  0
  187.1570  178.3410  141.4700 C   0  0  0  0  0  2  0  0  0  0  0  0
  181.9380  176.4830  138.3810 C   0  0  0  0  0  0  0  0  0  0  0  0
  181.6520  176.1440  139.7800 C   0  0  0  0  0  2  0  0  0  0  0  0
  181.3090  177.9550  141.6040 C   0  0  0  0  0  2  0  0  0  0  0  0
  190.3520  177.6800  143.5590 C   0  0  0  0  0  3  0  0  0  0  0  0
  189.7650  177.3930  145.9110 C   0  0  0  0  0  0  0  0  0  0  0  0
  187.9500  177.3530  144.2330 C   0  0  0  0  0  2  0  0  0  0  0  0
  188.4510  177.4160  145.6500 C   0  0  0  0  0  3  0  0  0  0  0  0
  190.7430  177.4040  144.8060 C   0  0  0  0  0  3  0  0  0  0  0  0
  188.9220  178.0590  143.2750 C   0  0  2  0  0  3  0  0  0  0  0  0
  190.3440  177.3760  147.5900 S   0  0  2  0  0  0  0  0  0  0  0  0
  190.6270  175.9060  147.8700 O   0  0  0  0  0  0  0  0  0  0  0  0
  188.8860  177.7480  148.5770 C   0  0  0  0  0  1  0  0  0  0  0  0
  181.6590  177.3750  134.9670 N   0  0  0  0  0  2  0  0  0  0  0  0
  179.0900  177.9980  134.6990 O   0  0  0  0  0  0  0  0  0  0  0  0
  180.2040  177.9720  135.7070 S   0  0  0  0  0  0  0  0  0  0  0  0
  179.8330  177.0270  136.8160 O   0  0  0  0  0  0  0  0  0  0  0  0
  180.4670  179.6170  136.3800 C   0  0  1  0  0  3  0  0  0  0  0  0
  179.6050  180.6540  135.6830 C   0  0  0  0  0  1  0  0  0  0  0  0
  178.9320  179.4240  138.3650 C   0  0  0  0  0  1  0  0  0  0  0  0
  180.3550  179.7270  137.9120 C   0  0  2  0  0  3  0  0  0  0  0  0
  180.6950  183.0400  137.3320 C   0  0  0  0  0  0  0  0  0  0  0  0
  182.1370  180.5820  139.3020 O   0  0  0  0  0  1  0  0  0  0  0  0
  181.1800  183.9810  136.2900 C   0  0  0  0  0  1  0  0  0  0  0  0
  180.0230  181.5950  139.6350 C   0  0  1  0  0  3  0  0  0  0  0  0
  179.5230  183.3350  138.0350 O   0  0  0  0  0  0  0  0  0  0  0  0
  180.9930  180.9710  138.6040 C   0  0  2  0  0  0  0  0  0  0  0  0
  178.9340  182.4000  138.9340 C   0  0  0  0  0  2  0  0  0  0  0  0
  181.3850  181.9710  137.6030 N   0  0  0  0  0  0  0  0  0  0  0  0
  179.4520  180.6190  140.4570 O   0  0  0  0  0  0  0  0  0  0  0  0
  179.2110  181.2670  141.6690 C   0  0  0  0  0  1  0  0  0  0  0  0
  2 19  1  0  0  0  0
  3 20  2  0  0  0  0
  4 22  1  0  0  0  0
  5  6  1  0  0  0  0
  6 10  2  0  0  0  0
  7  8  1  6  0  0  0
  7 18  1  0  0  0  0
  9 24  1  0  0  0  0
 10  8  1  0  0  0  0
 11 21  1  0  0  0  0
 12  5  1  1  0  0  0
 12  7  1  0  0  0  0
 13 28  1  0  0  0  0
 14  1  1  0  0  0  0
 15 13  2  0  0  0  0
 16 25  1  1  0  0  0
 16 34  1  0  0  0  0
 17  4  1  0  0  0  0
 17  2  1  0  0  0  0
 18 16  1  0  0  0  0
 19 20  1  0  0  0  0
 20  9  1  0  0  0  0
 22 26  3  0  0  0  0
 23 15  1  1  0  0  0
 23 11  1  0  0  0  0
 23  1  1  0  0  0  0
 24 12  1  0  0  0  0
 25 14  1  0  0  0  0
 26 27  1  0  0  0  0
 27 13  1  0  0  0  0
 28 21  1  0  0  0  0
 29 33  2  0  0  0  0
 30 35  1  0  0  0  0
 31 32  1  0  0  0  0
 32 30  2  0  0  0  0
 33 30  1  0  0  0  0
 34 29  1  6  0  0  0
 34 31  1  0  0  0  0
 35 36  2  0  0  0  0
 35 37  1  1  0  0  0
 38 40  1  0  0  0  0
 38  4  1  0  0  0  0
 39 40  2  0  0  0  0
 40 42  1  0  0  0  0
 40 41  2  0  0  0  0
 42 43  1  6  0  0  0
 42 45  1  0  0  0  0
 45 44  1  6  0  0  0
 45 51  1  0  0  0  0
 46 53  2  0  0  0  0
 46 50  1  0  0  0  0
 48 46  1  0  0  0  0
 49 54  1  6  0  0  0
 50 52  1  0  0  0  0
 51 47  1  1  0  0  0
 51 49  1  0  0  0  0
 52 49  1  0  0  0  0
 53 51  1  0  0  0  0
 54 55  1  0  0  0  0
M  END
>  <MODEL>
8

>  <REMARK>
 VINA RESULT:      -4.5      2.615      4.743
  Name = 
  8 active torsions:
  status: ('A' for Active; 'I' for Inactive)
    1  A    between atoms: C_6  and  C_14
    2  A    between atoms: C_6  and  S_20
    3  A    between atoms: N_8  and  N_22
    4  A    between atoms: S_10  and  C_32
    5  A    between atoms: O_11  and  C_29
    6  A    between atoms: C_14  and  C_38
    7  A    between atoms: S_20  and  N_22
    8  A    between atoms: C_33  and  C_52
                            x       y       z     vdW  Elec       q    Type
                         _______ _______ _______ _____ _____    ______ ____

>  <TORSDO>
F 8

$$$$
=
 OpenBabel11052414563D

 55 59  0  0  1  0  0  0  0  0999 V2000
  187.2480  178.0500  143.8730 C   0  0  0  0  0  2  0  0  0  0  0  0
  184.9260  178.0930  137.7530 C   0  0  0  0  0  2  0  0  0  0  0  0
  187.0240  176.2340  137.3450 O   0  0  0  0  0  0  0  0  0  0  0  0
  182.7880  178.9930  138.5200 N   0  0  0  0  0  0  0  0  0  0  0  0
  191.3620  176.1380  137.9960 C   0  0  0  0  0  2  0  0  0  0  0  0
  192.8640  176.1530  138.0260 C   0  0  0  0  0  3  0  0  0  0  0  0
  191.3540  177.0410  140.3160 C   0  0  2  0  0  3  0  0  0  0  0  0
  192.8150  177.0330  140.2610 N   0  0  0  0  0  2  0  0  0  0  0  0
  188.7790  177.7790  137.7940 C   0  0  0  0  0  2  0  0  0  0  0  0
  193.5260  176.5520  139.1140 C   0  0  0  0  0  3  0  0  0  0  0  0
  185.5740  179.7860  144.5780 C   0  0  0  0  0  2  0  0  0  0  0  0
  190.7740  177.2200  138.9090 C   0  0  2  0  0  3  0  0  0  0  0  0
  183.8020  178.1690  143.0890 C   0  0  0  0  0  0  0  0  0  0  0  0
  187.8460  177.3940  142.7890 O   0  0  0  0  0  0  0  0  0  0  0  0
  185.0730  178.2340  142.6530 C   0  0  0  0  0  3  0  0  0  0  0  0
  190.1560  177.4460  142.1460 C   0  0  2  0  0  3  0  0  0  0  0  0
  184.1010  179.3430  137.9980 C   0  0  0  0  0  2  0  0  0  0  0  0
  190.9280  178.0720  141.1610 O   0  0  0  0  0  0  0  0  0  0  0  0
  186.3400  178.4200  137.7980 N   0  0  0  0  0  2  0  0  0  0  0  0
  187.3440  177.4200  137.6270 C   0  0  0  0  0  0  0  0  0  0  0  0
  184.5280  179.0240  145.2590 N   0  0  0  0  0  2  0  0  0  0  0  0
  182.7160  178.4570  139.8140 C   0  0  0  0  0  0  0  0  0  0  0  0
  186.1450  178.9890  143.3990 C   0  0  2  0  0  3  0  0  0  0  0  0
  189.3240  177.0870  138.9520 N   0  0  0  0  0  2  0  0  0  0  0  0
  188.8730  178.2390  142.3590 C   0  0  0  0  0  2  0  0  0  0  0  0
  182.6980  177.9980  140.9290 C   0  0  0  0  0  0  0  0  0  0  0  0
  182.7600  177.4480  142.2880 C   0  0  0  0  0  2  0  0  0  0  0  0
  183.3950  178.8970  144.3420 C   0  0  0  0  0  2  0  0  0  0  0  0
  191.3900  175.8660  143.6660 C   0  0  0  0  0  3  0  0  0  0  0  0
  191.6440  176.3680  146.0420 C   0  0  0  0  0  0  0  0  0  0  0  0
  190.2520  177.8760  144.6640 C   0  0  0  0  0  2  0  0  0  0  0  0
  190.9870  177.5300  145.9300 C   0  0  0  0  0  3  0  0  0  0  0  0
  191.7370  175.4530  144.8880 C   0  0  0  0  0  3  0  0  0  0  0  0
  190.9700  177.2950  143.4360 C   0  0  2  0  0  3  0  0  0  0  0  0
  192.4310  175.9270  147.5720 S   0  0  2  0  0  0  0  0  0  0  0  0
  191.5130  174.8690  148.1700 O   0  0  0  0  0  0  0  0  0  0  0  0
  192.2060  177.3670  148.6290 C   0  0  0  0  0  1  0  0  0  0  0  0
  181.6520  179.5780  137.9390 N   0  0  0  0  0  2  0  0  0  0  0  0
  179.6810  178.5650  139.4040 O   0  0  0  0  0  0  0  0  0  0  0  0
  180.3150  178.4740  138.0440 S   0  0  0  0  0  0  0  0  0  0  0  0
  179.3030  178.8790  137.0090 O   0  0  0  0  0  0  0  0  0  0  0  0
  180.8600  176.7910  137.7290 C   0  0  1  0  0  3  0  0  0  0  0  0
  180.6600  175.8990  138.9400 C   0  0  0  0  0  1  0  0  0  0  0  0
  178.9310  175.5170  136.7320 C   0  0  0  0  0  1  0  0  0  0  0  0
  180.2910  176.1440  136.4520 C   0  0  2  0  0  3  0  0  0  0  0  0
  183.5050  176.1580  135.4060 C   0  0  0  0  0  0  0  0  0  0  0  0
  180.5120  174.6140  134.5940 O   0  0  0  0  0  1  0  0  0  0  0  0
  184.4780  177.0230  134.6910 C   0  0  0  0  0  1  0  0  0  0  0  0
  181.8820  174.1360  136.4640 C   0  0  1  0  0  3  0  0  0  0  0  0
  183.9240  175.4260  136.5220 O   0  0  0  0  0  0  0  0  0  0  0  0
  181.2430  175.2480  135.6010 C   0  0  2  0  0  0  0  0  0  0  0  0
  183.0030  174.7020  137.3310 C   0  0  0  0  0  2  0  0  0  0  0  0
  182.2860  176.0640  134.9650 N   0  0  0  0  0  0  0  0  0  0  0  0
  180.9300  173.4940  137.2620 O   0  0  0  0  0  0  0  0  0  0  0  0
  181.2660  172.1410  137.2030 C   0  0  0  0  0  1  0  0  0  0  0  0
  2 19  1  0  0  0  0
  2 17  1  0  0  0  0
  3 20  2  0  0  0  0
  4 22  1  0  0  0  0
  5  6  1  0  0  0  0
  6 10  2  0  0  0  0
  7  8  1  6  0  0  0
  7 18  1  0  0  0  0
  9 24  1  0  0  0  0
 10  8  1  0  0  0  0
 11 21  1  0  0  0  0
 12  5  1  6  0  0  0
 12 24  1  0  0  0  0
 12  7  1  0  0  0  0
 13 28  1  0  0  0  0
 14  1  1  0  0  0  0
 15 13  2  0  0  0  0
 16 25  1  1  0  0  0
 16 34  1  0  0  0  0
 17  4  1  0  0  0  0
 18 16  1  0  0  0  0
 20  9  1  0  0  0  0
 20 19  1  0  0  0  0
 22 26  3  0  0  0  0
 23 15  1  1  0  0  0
 23  1  1  0  0  0  0
 23 11  1  0  0  0  0
 25 14  1  0  0  0  0
 26 27  1  0  0  0  0
 27 13  1  0  0  0  0
 28 21  1  0  0  0  0
 29 33  2  0  0  0  0
 30 35  1  0  0  0  0
 31 32  1  0  0  0  0
 32 30  2  0  0  0  0
 33 30  1  0  0  0  0
 34 29  1  1  0  0  0
 34 31  1  0  0  0  0
 35 36  2  0  0  0  0
 35 37  1  1  0  0  0
 38 40  1  0  0  0  0
 38  4  1  0  0  0  0
 40 39  2  0  0  0  0
 41 40  2  0  0  0  0
 42 40  1  0  0  0  0
 42 43  1  1  0  0  0
 45 44  1  1  0  0  0
 45 42  1  0  0  0  0
 46 50  1  0  0  0  0
 48 46  1  0  0  0  0
 49 54  1  1  0  0  0
 49 52  1  0  0  0  0
 50 52  1  0  0  0  0
 51 47  1  6  0  0  0
 51 45  1  0  0  0  0
 51 49  1  0  0  0  0
 53 46  2  0  0  0  0
 53 51  1  0  0  0  0
 55 54  1  0  0  0  0
M  END
>  <MODEL>
9

>  <REMARK>
 VINA RESULT:      -4.3      1.569      2.392
  Name = 
  8 active torsions:
  status: ('A' for Active; 'I' for Inactive)
    1  A    between atoms: C_6  and  C_14
    2  A    between atoms: C_6  and  S_20
    3  A    between atoms: N_8  and  N_22
    4  A    between atoms: S_10  and  C_32
    5  A    between atoms: O_11  and  C_29
    6  A    between atoms: C_14  and  C_38
    7  A    between atoms: S_20  and  N_22
    8  A    between atoms: C_33  and  C_52
                            x       y       z     vdW  Elec       q    Type
                         _______ _______ _______ _____ _____    ______ ____

>  <TORSDO>
F 8

$$$$
