=
 OpenBabel11052413463D

 27 30  0  0  1  0  0  0  0  0999 V2000
  187.2880  178.0080  142.4400 C   0  0  0  0  0  0  0  0  0  0  0  0
  190.6000  175.9080  144.1840 C   0  0  0  0  0  2  0  0  0  0  0  0
  191.1730  176.7520  145.2860 C   0  0  0  0  0  3  0  0  0  0  0  0
  187.1800  177.2290  143.4770 N   0  0  0  0  0  0  0  0  0  0  0  0
  190.3470  178.9340  143.1920 C   0  0  0  0  0  2  0  0  0  0  0  0
  191.7410  178.6610  143.7540 C   0  0  0  0  0  2  0  0  0  0  0  0
  189.7870  177.6900  142.5100 C   0  0  1  0  0  3  0  0  0  0  0  0
  186.1630  178.7560  141.9570 N   0  0  0  0  0  2  0  0  0  0  0  0
  191.6800  177.9800  145.0940 C   0  0  0  0  0  3  0  0  0  0  0  0
  189.4710  176.6220  143.5210 C   0  0  0  0  0  0  0  0  0  0  0  0
  188.5700  178.0470  141.6530 C   0  0  1  0  0  3  0  0  0  0  0  0
  188.2620  176.4800  143.9770 N   0  0  0  0  0  0  0  0  0  0  0  0
  182.2610  179.0030  143.5960 C   0  0  0  0  0  3  0  0  0  0  0  0
  184.8550  178.8440  142.5370 C   0  0  0  0  0  0  0  0  0  0  0  0
  184.6550  179.2220  143.8750 C   0  0  0  0  0  3  0  0  0  0  0  0
  183.3630  179.3000  144.4020 C   0  0  0  0  0  3  0  0  0  0  0  0
  182.4520  178.6280  142.2630 C   0  0  0  0  0  3  0  0  0  0  0  0
  183.7450  178.5500  141.7370 C   0  0  0  0  0  3  0  0  0  0  0  0
  188.4840  177.1260  140.5280 N   0  0  0  0  0  2  0  0  0  0  0  0
  191.4470  176.7940  139.4110 Cl  0  0  0  0  0  0  0  0  0  0  0  0
  187.8530  178.2000  137.0300 C   0  0  0  0  0  0  0  0  0  0  0  0
  186.7020  178.6280  136.1950 C   0  0  0  0  0  1  0  0  0  0  0  0
  190.0290  177.3920  138.5630 C   0  0  0  0  0  0  0  0  0  0  0  0
  187.6630  177.8510  138.3650 C   0  0  0  0  0  3  0  0  0  0  0  0
  189.1350  178.1410  136.4870 C   0  0  0  0  0  3  0  0  0  0  0  0
  190.1800  177.7390  137.2550 N   0  0  0  0  0  0  0  0  0  0  0  0
  188.7450  177.4580  139.1570 C   0  0  0  0  0  0  0  0  0  0  0  0
  1  4  2  0  0  0  0
  2  3  1  0  0  0  0
  4 12  1  0  0  0  0
  5  6  1  0  0  0  0
  6  9  1  0  0  0  0
  7  5  1  1  0  0  0
  7 10  1  0  0  0  0
  8  1  1  0  0  0  0
  8 14  1  0  0  0  0
  9  3  2  0  0  0  0
 10 12  2  0  0  0  0
 10  2  1  0  0  0  0
 11 19  1  6  0  0  0
 11  1  1  0  0  0  0
 11  7  1  0  0  0  0
 13 16  1  0  0  0  0
 14 15  1  0  0  0  0
 15 16  2  0  0  0  0
 17 13  2  0  0  0  0
 18 17  1  0  0  0  0
 18 14  2  0  0  0  0
 21 24  1  0  0  0  0
 22 21  1  0  0  0  0
 23 27  1  0  0  0  0
 23 20  1  0  0  0  0
 24 27  2  0  0  0  0
 25 21  2  0  0  0  0
 25 26  1  0  0  0  0
 26 23  2  0  0  0  0
 27 19  1  0  0  0  0
M  END
>  <MODEL>
1

>  <REMARK>
 VINA RESULT:      -8.0      0.000      0.000
  Name = 
  3 active torsions:
  status: ('A' for Active; 'I' for Inactive)
    1  A    between atoms: N_3  and  C_19
    2  A    between atoms: N_3  and  C_26
    3  A    between atoms: C_9  and  N_15
                            x       y       z     vdW  Elec       q    Type
                         _______ _______ _______ _____ _____    ______ ____

>  <TORSDO>
F 3

$$$$
=
 OpenBabel11052413463D

 27 30  0  0  1  0  0  0  0  0999 V2000
  187.1850  178.1690  142.3230 C   0  0  0  0  0  0  0  0  0  0  0  0
  190.4850  175.6060  143.3060 C   0  0  0  0  0  2  0  0  0  0  0  0
  191.0870  176.0790  144.5980 C   0  0  0  0  0  3  0  0  0  0  0  0
  187.0780  177.1180  143.0830 N   0  0  0  0  0  0  0  0  0  0  0  0
  190.2680  178.7930  143.2610 C   0  0  0  0  0  2  0  0  0  0  0  0
  191.6650  178.3500  143.6920 C   0  0  0  0  0  2  0  0  0  0  0  0
  189.6790  177.8150  142.2500 C   0  0  1  0  0  3  0  0  0  0  0  0
  186.0650  179.0390  142.1030 N   0  0  0  0  0  2  0  0  0  0  0  0
  191.6110  177.3030  144.7700 C   0  0  0  0  0  3  0  0  0  0  0  0
  189.3590  176.4990  142.9050 C   0  0  0  0  0  0  0  0  0  0  0  0
  188.4560  178.4240  141.5600 C   0  0  1  0  0  3  0  0  0  0  0  0
  188.1550  176.2420  143.3200 N   0  0  0  0  0  0  0  0  0  0  0  0
  182.1910  178.8190  143.8100 C   0  0  0  0  0  3  0  0  0  0  0  0
  184.7670  178.9660  142.7070 C   0  0  0  0  0  0  0  0  0  0  0  0
  184.5740  179.1430  144.0860 C   0  0  0  0  0  3  0  0  0  0  0  0
  183.2910  179.0680  144.6350 C   0  0  0  0  0  3  0  0  0  0  0  0
  182.3760  178.6440  142.4350 C   0  0  0  0  0  3  0  0  0  0  0  0
  183.6600  178.7190  141.8880 C   0  0  0  0  0  3  0  0  0  0  0  0
  188.3410  177.8800  140.2140 N   0  0  0  0  0  2  0  0  0  0  0  0
  187.6040  176.1720  137.6300 Cl  0  0  0  0  0  0  0  0  0  0  0  0
  191.7870  176.9310  139.2090 C   0  0  0  0  0  0  0  0  0  0  0  0
  193.1790  177.1810  139.6610 C   0  0  0  0  0  1  0  0  0  0  0  0
  189.1920  176.4520  138.3300 C   0  0  0  0  0  0  0  0  0  0  0  0
  190.7130  177.5090  139.8830 C   0  0  0  0  0  3  0  0  0  0  0  0
  191.5390  176.1180  138.1060 C   0  0  0  0  0  3  0  0  0  0  0  0
  190.2630  175.9030  137.6930 N   0  0  0  0  0  0  0  0  0  0  0  0
  189.4010  177.2680  139.4680 C   0  0  0  0  0  0  0  0  0  0  0  0
  1  4  2  0  0  0  0
  2  3  1  0  0  0  0
  3  9  2  0  0  0  0
  4 12  1  0  0  0  0
  5  6  1  0  0  0  0
  6  9  1  0  0  0  0
  7 10  1  0  0  0  0
  7  5  1  1  0  0  0
  8  1  1  0  0  0  0
  8 14  1  0  0  0  0
 10  2  1  0  0  0  0
 10 12  2  0  0  0  0
 11 19  1  6  0  0  0
 11  7  1  0  0  0  0
 11  1  1  0  0  0  0
 13 16  1  0  0  0  0
 14 15  1  0  0  0  0
 15 16  2  0  0  0  0
 17 13  2  0  0  0  0
 18 17  1  0  0  0  0
 18 14  2  0  0  0  0
 20 23  1  0  0  0  0
 21 22  1  0  0  0  0
 21 24  1  0  0  0  0
 23 27  1  0  0  0  0
 25 21  2  0  0  0  0
 26 25  1  0  0  0  0
 26 23  2  0  0  0  0
 27 24  2  0  0  0  0
 27 19  1  0  0  0  0
M  END
>  <MODEL>
2

>  <REMARK>
 VINA RESULT:      -7.9      1.500      2.205
  Name = 
  3 active torsions:
  status: ('A' for Active; 'I' for Inactive)
    1  A    between atoms: N_3  and  C_19
    2  A    between atoms: N_3  and  C_26
    3  A    between atoms: C_9  and  N_15
                            x       y       z     vdW  Elec       q    Type
                         _______ _______ _______ _____ _____    ______ ____

>  <TORSDO>
F 3

$$$$
=
 OpenBabel11052413463D

 27 30  0  0  1  0  0  0  0  0999 V2000
  185.2610  178.4690  139.3620 C   0  0  0  0  0  0  0  0  0  0  0  0
  181.2390  178.0200  137.9290 C   0  0  0  0  0  2  0  0  0  0  0  0
  180.9820  179.0750  136.8930 C   0  0  0  0  0  3  0  0  0  0  0  0
  184.9440  177.7640  138.3150 N   0  0  0  0  0  0  0  0  0  0  0  0
  182.8190  180.6170  138.9110 C   0  0  0  0  0  2  0  0  0  0  0  0
  181.3970  180.9750  138.4830 C   0  0  0  0  0  2  0  0  0  0  0  0
  182.8620  179.2230  139.5290 C   0  0  1  0  0  3  0  0  0  0  0  0
  186.6320  178.6580  139.7400 N   0  0  0  0  0  2  0  0  0  0  0  0
  181.0540  180.3920  137.1400 C   0  0  0  0  0  3  0  0  0  0  0  0
  182.6150  178.1680  138.4860 C   0  0  0  0  0  0  0  0  0  0  0  0
  184.1840  179.0020  140.2680 C   0  0  1  0  0  3  0  0  0  0  0  0
  183.6100  177.5570  137.9160 N   0  0  0  0  0  0  0  0  0  0  0  0
  190.1240  177.3300  137.7380 C   0  0  0  0  0  3  0  0  0  0  0  0
  187.8020  178.2190  139.0390 C   0  0  0  0  0  0  0  0  0  0  0  0
  188.0450  178.5690  137.7010 C   0  0  0  0  0  3  0  0  0  0  0  0
  189.2020  178.1250  137.0530 C   0  0  0  0  0  3  0  0  0  0  0  0
  189.8900  176.9800  139.0710 C   0  0  0  0  0  3  0  0  0  0  0  0
  188.7330  177.4250  139.7170 C   0  0  0  0  0  3  0  0  0  0  0  0
  183.9700  178.0790  141.3750 N   0  0  0  0  0  2  0  0  0  0  0  0
  181.6240  179.3700  143.0960 Cl  0  0  0  0  0  0  0  0  0  0  0  0
  185.7470  178.2690  144.6300 C   0  0  0  0  0  0  0  0  0  0  0  0
  187.0690  177.8920  145.1920 C   0  0  0  0  0  1  0  0  0  0  0  0
  183.2580  178.9790  143.6110 C   0  0  0  0  0  0  0  0  0  0  0  0
  185.4480  178.0030  143.2950 C   0  0  0  0  0  3  0  0  0  0  0  0
  184.7920  178.8910  145.4300 C   0  0  0  0  0  3  0  0  0  0  0  0
  183.5820  179.2240  144.9110 N   0  0  0  0  0  0  0  0  0  0  0  0
  184.2100  178.3670  142.7590 C   0  0  0  0  0  0  0  0  0  0  0  0
  1  8  1  0  0  0  0
  1 11  1  0  0  0  0
  2 10  1  0  0  0  0
  3  9  2  0  0  0  0
  3  2  1  0  0  0  0
  4  1  2  0  0  0  0
  6  5  1  0  0  0  0
  7  5  1  6  0  0  0
  7 11  1  0  0  0  0
  9  6  1  0  0  0  0
 10  7  1  0  0  0  0
 11 19  1  1  0  0  0
 12  4  1  0  0  0  0
 12 10  2  0  0  0  0
 13 17  1  0  0  0  0
 14 18  1  0  0  0  0
 14  8  1  0  0  0  0
 15 14  2  0  0  0  0
 16 15  1  0  0  0  0
 16 13  2  0  0  0  0
 17 18  2  0  0  0  0
 19 27  1  0  0  0  0
 20 23  1  0  0  0  0
 21 22  1  0  0  0  0
 21 25  1  0  0  0  0
 23 26  1  0  0  0  0
 24 21  2  0  0  0  0
 26 25  2  0  0  0  0
 27 24  1  0  0  0  0
 27 23  2  0  0  0  0
M  END
>  <MODEL>
3

>  <REMARK>
 VINA RESULT:      -7.8      3.585      8.518
  Name = 
  3 active torsions:
  status: ('A' for Active; 'I' for Inactive)
    1  A    between atoms: N_3  and  C_19
    2  A    between atoms: N_3  and  C_26
    3  A    between atoms: C_9  and  N_15
                            x       y       z     vdW  Elec       q    Type
                         _______ _______ _______ _____ _____    ______ ____

>  <TORSDO>
F 3

$$$$
=
 OpenBabel11052413463D

 27 30  0  0  1  0  0  0  0  0999 V2000
  188.3450  177.5420  141.8840 C   0  0  0  0  0  0  0  0  0  0  0  0
  189.4280  178.9640  137.9810 C   0  0  0  0  0  2  0  0  0  0  0  0
  188.4380  178.4280  136.9870 C   0  0  0  0  0  3  0  0  0  0  0  0
  187.8630  178.6280  141.3540 N   0  0  0  0  0  0  0  0  0  0  0  0
  188.6740  176.0280  138.9890 C   0  0  0  0  0  2  0  0  0  0  0  0
  188.9780  176.0270  137.4930 C   0  0  0  0  0  2  0  0  0  0  0  0
  189.5330  177.0590  139.7140 C   0  0  1  0  0  3  0  0  0  0  0  0
  187.8780  177.0670  143.1550 N   0  0  0  0  0  2  0  0  0  0  0  0
  188.2370  177.1180  136.7710 C   0  0  0  0  0  3  0  0  0  0  0  0
  189.1130  178.4560  139.3480 C   0  0  0  0  0  0  0  0  0  0  0  0
  189.4940  176.8260  141.2260 C   0  0  1  0  0  3  0  0  0  0  0  0
  188.2990  179.1230  140.1110 N   0  0  0  0  0  0  0  0  0  0  0  0
  184.7900  178.6460  145.5920 C   0  0  0  0  0  3  0  0  0  0  0  0
  186.8180  177.6070  143.9560 C   0  0  0  0  0  0  0  0  0  0  0  0
  185.5800  177.9750  143.4050 C   0  0  0  0  0  3  0  0  0  0  0  0
  184.5710  178.4940  144.2210 C   0  0  0  0  0  3  0  0  0  0  0  0
  186.0200  178.2800  146.1470 C   0  0  0  0  0  3  0  0  0  0  0  0
  187.0280  177.7610  145.3300 C   0  0  0  0  0  3  0  0  0  0  0  0
  190.7510  177.2670  141.8150 N   0  0  0  0  0  2  0  0  0  0  0  0
  190.6480  179.6240  143.9540 Cl  0  0  0  0  0  0  0  0  0  0  0  0
  192.0090  175.3720  144.7510 C   0  0  0  0  0  0  0  0  0  0  0  0
  192.4280  173.9850  145.0750 C   0  0  0  0  0  1  0  0  0  0  0  0
  191.2220  177.9780  144.1800 C   0  0  0  0  0  0  0  0  0  0  0  0
  191.5670  175.6930  143.4690 C   0  0  0  0  0  3  0  0  0  0  0  0
  192.0530  176.3670  145.7240 C   0  0  0  0  0  3  0  0  0  0  0  0
  191.6580  177.6310  145.4220 N   0  0  0  0  0  0  0  0  0  0  0  0
  191.1830  176.9990  143.1560 C   0  0  0  0  0  0  0  0  0  0  0  0
  1  8  1  0  0  0  0
  2 10  1  0  0  0  0
  3  2  1  0  0  0  0
  4  1  2  0  0  0  0
  6  5  1  0  0  0  0
  7  5  1  6  0  0  0
  7 11  1  0  0  0  0
  8 14  1  0  0  0  0
  9  3  2  0  0  0  0
  9  6  1  0  0  0  0
 10  7  1  0  0  0  0
 10 12  2  0  0  0  0
 11 19  1  1  0  0  0
 11  1  1  0  0  0  0
 12  4  1  0  0  0  0
 13 17  1  0  0  0  0
 14 18  1  0  0  0  0
 15 14  2  0  0  0  0
 15 16  1  0  0  0  0
 16 13  2  0  0  0  0
 18 17  2  0  0  0  0
 19 27  1  0  0  0  0
 20 23  1  0  0  0  0
 21 22  1  0  0  0  0
 21 25  1  0  0  0  0
 23 26  1  0  0  0  0
 24 21  2  0  0  0  0
 26 25  2  0  0  0  0
 27 24  1  0  0  0  0
 27 23  2  0  0  0  0
M  END
>  <MODEL>
4

>  <REMARK>
 VINA RESULT:      -7.5      2.080      5.959
  Name = 
  3 active torsions:
  status: ('A' for Active; 'I' for Inactive)
    1  A    between atoms: N_3  and  C_19
    2  A    between atoms: N_3  and  C_26
    3  A    between atoms: C_9  and  N_15
                            x       y       z     vdW  Elec       q    Type
                         _______ _______ _______ _____ _____    ______ ____

>  <TORSDO>
F 3

$$$$
=
 OpenBabel11052413463D

 27 30  0  0  1  0  0  0  0  0999 V2000
  189.4250  177.1040  139.8350 C   0  0  0  0  0  0  0  0  0  0  0  0
  187.1800  178.5390  136.4690 C   0  0  0  0  0  2  0  0  0  0  0  0
  185.8330  177.8770  136.4780 C   0  0  0  0  0  3  0  0  0  0  0  0
  188.6130  178.1180  139.8920 N   0  0  0  0  0  0  0  0  0  0  0  0
  187.6720  175.5650  137.5240 C   0  0  0  0  0  2  0  0  0  0  0  0
  186.7850  175.5600  136.2810 C   0  0  0  0  0  2  0  0  0  0  0  0
  188.6890  176.6990  137.4580 C   0  0  1  0  0  3  0  0  0  0  0  0
  190.0790  176.6120  141.0140 N   0  0  0  0  0  2  0  0  0  0  0  0
  185.6570  176.5490  136.3950 C   0  0  0  0  0  3  0  0  0  0  0  0
  188.0100  178.0340  137.6010 C   0  0  0  0  0  0  0  0  0  0  0  0
  189.7880  176.5000  138.5050 C   0  0  1  0  0  3  0  0  0  0  0  0
  187.9550  178.6280  138.7560 N   0  0  0  0  0  0  0  0  0  0  0  0
  189.4670  177.8780  145.0130 C   0  0  0  0  0  3  0  0  0  0  0  0
  189.8970  177.0540  142.3650 C   0  0  0  0  0  0  0  0  0  0  0  0
  190.7590  177.9830  142.9690 C   0  0  0  0  0  3  0  0  0  0  0  0
  190.5440  178.3920  144.2880 C   0  0  0  0  0  3  0  0  0  0  0  0
  188.6030  176.9530  144.4170 C   0  0  0  0  0  3  0  0  0  0  0  0
  188.8190  176.5450  143.0980 C   0  0  0  0  0  3  0  0  0  0  0  0
  191.0300  177.0870  138.0200 N   0  0  0  0  0  2  0  0  0  0  0  0
  193.5080  177.1280  140.0180 Cl  0  0  0  0  0  0  0  0  0  0  0  0
  193.3120  174.8980  136.0750 C   0  0  0  0  0  0  0  0  0  0  0  0
  193.2860  174.1180  134.8110 C   0  0  0  0  0  1  0  0  0  0  0  0
  193.3900  176.3400  138.4520 C   0  0  0  0  0  0  0  0  0  0  0  0
  192.1890  175.6160  136.4820 C   0  0  0  0  0  3  0  0  0  0  0  0
  194.4580  174.9200  136.8660 C   0  0  0  0  0  3  0  0  0  0  0  0
  194.4700  175.6280  138.0250 N   0  0  0  0  0  0  0  0  0  0  0  0
  192.2130  176.3590  137.6640 C   0  0  0  0  0  0  0  0  0  0  0  0
  1  4  2  0  0  0  0
  1  8  1  0  0  0  0
  2  3  1  0  0  0  0
  2 10  1  0  0  0  0
  6  9  1  0  0  0  0
  6  5  1  0  0  0  0
  7  5  1  1  0  0  0
  7 10  1  0  0  0  0
  7 11  1  0  0  0  0
  8 14  1  0  0  0  0
  9  3  2  0  0  0  0
 10 12  2  0  0  0  0
 11 19  1  6  0  0  0
 11  1  1  0  0  0  0
 12  4  1  0  0  0  0
 14 15  2  0  0  0  0
 14 18  1  0  0  0  0
 15 16  1  0  0  0  0
 16 13  2  0  0  0  0
 17 13  1  0  0  0  0
 18 17  2  0  0  0  0
 21 24  2  0  0  0  0
 21 25  1  0  0  0  0
 22 21  1  0  0  0  0
 23 20  1  0  0  0  0
 24 27  1  0  0  0  0
 25 26  2  0  0  0  0
 26 23  1  0  0  0  0
 27 19  1  0  0  0  0
 27 23  2  0  0  0  0
M  END
>  <MODEL>
5

>  <REMARK>
 VINA RESULT:      -7.5      3.171      6.377
  Name = 
  3 active torsions:
  status: ('A' for Active; 'I' for Inactive)
    1  A    between atoms: N_3  and  C_19
    2  A    between atoms: N_3  and  C_26
    3  A    between atoms: C_9  and  N_15
                            x       y       z     vdW  Elec       q    Type
                         _______ _______ _______ _____ _____    ______ ____

>  <TORSDO>
F 3

$$$$
=
 OpenBabel11052413463D

 27 30  0  0  1  0  0  0  0  0999 V2000
  189.9320  176.9960  139.7560 C   0  0  0  0  0  0  0  0  0  0  0  0
  187.7720  178.6550  136.4380 C   0  0  0  0  0  2  0  0  0  0  0  0
  186.3630  178.1370  136.4800 C   0  0  0  0  0  3  0  0  0  0  0  0
  189.2320  178.0900  139.8280 N   0  0  0  0  0  0  0  0  0  0  0  0
  187.9750  175.6460  137.4910 C   0  0  0  0  0  2  0  0  0  0  0  0
  187.0640  175.7330  136.2690 C   0  0  0  0  0  2  0  0  0  0  0  0
  189.1030  176.6690  137.3980 C   0  0  1  0  0  3  0  0  0  0  0  0
  190.5580  176.4400  140.9210 N   0  0  0  0  0  2  0  0  0  0  0  0
  186.0480  176.8340  136.4060 C   0  0  0  0  0  3  0  0  0  0  0  0
  188.5710  178.0670  137.5520 C   0  0  0  0  0  0  0  0  0  0  0  0
  190.2000  176.3560  138.4200 C   0  0  1  0  0  3  0  0  0  0  0  0
  188.6050  178.6640  138.7060 N   0  0  0  0  0  0  0  0  0  0  0  0
  190.1760  177.7630  144.9300 C   0  0  0  0  0  3  0  0  0  0  0  0
  190.4550  176.8990  142.2750 C   0  0  0  0  0  0  0  0  0  0  0  0
  191.4000  177.7700  142.8420 C   0  0  0  0  0  3  0  0  0  0  0  0
  191.2610  178.1990  144.1650 C   0  0  0  0  0  3  0  0  0  0  0  0
  189.2310  176.8970  144.3720 C   0  0  0  0  0  3  0  0  0  0  0  0
  189.3710  176.4690  143.0480 C   0  0  0  0  0  3  0  0  0  0  0  0
  191.4840  176.8100  137.9050 N   0  0  0  0  0  2  0  0  0  0  0  0
  191.4810  176.0980  134.8020 Cl  0  0  0  0  0  0  0  0  0  0  0  0
  194.5490  174.7160  137.8410 C   0  0  0  0  0  0  0  0  0  0  0  0
  195.6020  174.2680  138.7880 C   0  0  0  0  0  1  0  0  0  0  0  0
  192.5990  175.5460  136.0410 C   0  0  0  0  0  0  0  0  0  0  0  0
  193.5210  175.5500  138.2760 C   0  0  0  0  0  3  0  0  0  0  0  0
  194.5790  174.3090  136.5100 C   0  0  0  0  0  3  0  0  0  0  0  0
  193.6180  174.7320  135.6480 N   0  0  0  0  0  0  0  0  0  0  0  0
  192.5220  175.9650  137.3920 C   0  0  0  0  0  0  0  0  0  0  0  0
  1  4  2  0  0  0  0
  1  8  1  0  0  0  0
  2  3  1  0  0  0  0
  2 10  1  0  0  0  0
  6  9  1  0  0  0  0
  6  5  1  0  0  0  0
  7  5  1  1  0  0  0
  7 10  1  0  0  0  0
  7 11  1  0  0  0  0
  8 14  1  0  0  0  0
  9  3  2  0  0  0  0
 10 12  2  0  0  0  0
 11 19  1  6  0  0  0
 11  1  1  0  0  0  0
 12  4  1  0  0  0  0
 14 15  2  0  0  0  0
 14 18  1  0  0  0  0
 15 16  1  0  0  0  0
 16 13  2  0  0  0  0
 17 13  1  0  0  0  0
 18 17  2  0  0  0  0
 20 23  1  0  0  0  0
 21 24  1  0  0  0  0
 21 22  1  0  0  0  0
 23 27  1  0  0  0  0
 25 21  2  0  0  0  0
 26 23  2  0  0  0  0
 26 25  1  0  0  0  0
 27 19  1  0  0  0  0
 27 24  2  0  0  0  0
M  END
>  <MODEL>
6

>  <REMARK>
 VINA RESULT:      -7.5      3.517      6.789
  Name = 
  3 active torsions:
  status: ('A' for Active; 'I' for Inactive)
    1  A    between atoms: N_3  and  C_19
    2  A    between atoms: N_3  and  C_26
    3  A    between atoms: C_9  and  N_15
                            x       y       z     vdW  Elec       q    Type
                         _______ _______ _______ _____ _____    ______ ____

>  <TORSDO>
F 3

$$$$
=
 OpenBabel11052413463D

 27 30  0  0  1  0  0  0  0  0999 V2000
  190.5610  176.7530  140.1380 C   0  0  0  0  0  0  0  0  0  0  0  0
  191.2320  178.8070  143.8470 C   0  0  0  0  0  2  0  0  0  0  0  0
  191.6800  177.8050  144.8720 C   0  0  0  0  0  3  0  0  0  0  0  0
  191.7190  177.2210  140.5010 N   0  0  0  0  0  0  0  0  0  0  0  0
  189.6140  176.1250  143.2180 C   0  0  0  0  0  2  0  0  0  0  0  0
  189.5720  176.4480  144.7100 C   0  0  0  0  0  2  0  0  0  0  0  0
  189.6350  177.4060  142.3890 C   0  0  1  0  0  3  0  0  0  0  0  0
  190.4160  175.9950  138.9280 N   0  0  0  0  0  2  0  0  0  0  0  0
  190.9400  176.7530  145.2550 C   0  0  0  0  0  3  0  0  0  0  0  0
  190.9450  178.1260  142.5510 C   0  0  0  0  0  0  0  0  0  0  0  0
  189.3240  177.1020  140.9210 C   0  0  1  0  0  3  0  0  0  0  0  0
  191.8980  177.9700  141.6800 N   0  0  0  0  0  0  0  0  0  0  0  0
  193.4390  174.6730  136.2660 C   0  0  0  0  0  3  0  0  0  0  0  0
  191.4500  175.5740  138.0290 C   0  0  0  0  0  0  0  0  0  0  0  0
  192.5660  176.3780  137.7460 C   0  0  0  0  0  3  0  0  0  0  0  0
  193.5550  175.9290  136.8660 C   0  0  0  0  0  3  0  0  0  0  0  0
  192.3310  173.8660  136.5450 C   0  0  0  0  0  3  0  0  0  0  0  0
  191.3420  174.3170  137.4250 C   0  0  0  0  0  3  0  0  0  0  0  0
  188.6680  178.2540  140.3180 N   0  0  0  0  0  2  0  0  0  0  0  0
  187.1230  178.2530  137.5340 Cl  0  0  0  0  0  0  0  0  0  0  0  0
  185.2520  178.9250  141.6090 C   0  0  0  0  0  0  0  0  0  0  0  0
  184.5830  179.1130  142.9220 C   0  0  0  0  0  1  0  0  0  0  0  0
  186.4730  178.5680  139.1360 C   0  0  0  0  0  0  0  0  0  0  0  0
  186.6210  178.6680  141.5470 C   0  0  0  0  0  3  0  0  0  0  0  0
  184.5200  179.0030  140.4280 C   0  0  0  0  0  3  0  0  0  0  0  0
  185.1380  178.8200  139.2320 N   0  0  0  0  0  0  0  0  0  0  0  0
  187.2560  178.5020  140.3140 C   0  0  0  0  0  0  0  0  0  0  0  0
  1  4  2  0  0  0  0
  1 11  1  0  0  0  0
  2  3  1  0  0  0  0
  3  9  2  0  0  0  0
  4 12  1  0  0  0  0
  5  6  1  0  0  0  0
  6  9  1  0  0  0  0
  7 10  1  0  0  0  0
  7  5  1  1  0  0  0
  8  1  1  0  0  0  0
 10  2  1  0  0  0  0
 11 19  1  6  0  0  0
 11  7  1  0  0  0  0
 12 10  2  0  0  0  0
 13 17  2  0  0  0  0
 13 16  1  0  0  0  0
 14  8  1  0  0  0  0
 15 14  1  0  0  0  0
 16 15  2  0  0  0  0
 17 18  1  0  0  0  0
 18 14  2  0  0  0  0
 20 23  1  0  0  0  0
 21 22  1  0  0  0  0
 23 26  2  0  0  0  0
 23 27  1  0  0  0  0
 24 21  1  0  0  0  0
 25 21  2  0  0  0  0
 26 25  1  0  0  0  0
 27 19  1  0  0  0  0
 27 24  2  0  0  0  0
M  END
>  <MODEL>
7

>  <REMARK>
 VINA RESULT:      -7.4      2.544      6.509
  Name = 
  3 active torsions:
  status: ('A' for Active; 'I' for Inactive)
    1  A    between atoms: N_3  and  C_19
    2  A    between atoms: N_3  and  C_26
    3  A    between atoms: C_9  and  N_15
                            x       y       z     vdW  Elec       q    Type
                         _______ _______ _______ _____ _____    ______ ____

>  <TORSDO>
F 3

$$$$
=
 OpenBabel11052413463D

 27 30  0  0  1  0  0  0  0  0999 V2000
  190.5550  176.7740  140.2030 C   0  0  0  0  0  0  0  0  0  0  0  0
  190.9380  178.8670  143.9300 C   0  0  0  0  0  2  0  0  0  0  0  0
  191.3050  177.8760  144.9970 C   0  0  0  0  0  3  0  0  0  0  0  0
  191.6820  177.2460  140.6500 N   0  0  0  0  0  0  0  0  0  0  0  0
  189.3720  176.1780  143.2070 C   0  0  0  0  0  2  0  0  0  0  0  0
  189.2150  176.5170  144.6880 C   0  0  0  0  0  2  0  0  0  0  0  0
  189.4580  177.4500  142.3680 C   0  0  1  0  0  3  0  0  0  0  0  0
  190.5030  176.0030  138.9930 N   0  0  0  0  0  2  0  0  0  0  0  0
  190.5370  176.8270  145.3340 C   0  0  0  0  0  3  0  0  0  0  0  0
  190.7520  178.1720  142.6240 C   0  0  0  0  0  0  0  0  0  0  0  0
  189.2620  177.1310  140.8840 C   0  0  1  0  0  3  0  0  0  0  0  0
  191.7690  178.0070  141.8310 N   0  0  0  0  0  0  0  0  0  0  0  0
  193.7220  174.6530  136.5880 C   0  0  0  0  0  3  0  0  0  0  0  0
  191.6040  175.5720  138.1820 C   0  0  0  0  0  0  0  0  0  0  0  0
  192.7340  176.3780  137.9680 C   0  0  0  0  0  3  0  0  0  0  0  0
  193.7880  175.9190  137.1730 C   0  0  0  0  0  3  0  0  0  0  0  0
  192.6010  173.8440  136.7980 C   0  0  0  0  0  3  0  0  0  0  0  0
  191.5470  174.3040  137.5930 C   0  0  0  0  0  3  0  0  0  0  0  0
  188.6550  178.2760  140.2200 N   0  0  0  0  0  2  0  0  0  0  0  0
  186.0330  179.2300  141.7530 Cl  0  0  0  0  0  0  0  0  0  0  0  0
  186.2330  177.8560  137.4370 C   0  0  0  0  0  0  0  0  0  0  0  0
  186.2500  177.4500  136.0080 C   0  0  0  0  0  1  0  0  0  0  0  0
  186.1690  178.6280  140.1080 C   0  0  0  0  0  0  0  0  0  0  0  0
  187.4170  177.8970  138.1700 C   0  0  0  0  0  3  0  0  0  0  0  0
  185.0350  178.1980  138.0580 C   0  0  0  0  0  3  0  0  0  0  0  0
  185.0300  178.5760  139.3630 N   0  0  0  0  0  0  0  0  0  0  0  0
  187.4050  178.2670  139.5170 C   0  0  0  0  0  0  0  0  0  0  0  0
  1  4  2  0  0  0  0
  1 11  1  0  0  0  0
  2  3  1  0  0  0  0
  3  9  2  0  0  0  0
  4 12  1  0  0  0  0
  5  6  1  0  0  0  0
  6  9  1  0  0  0  0
  7 10  1  0  0  0  0
  7  5  1  1  0  0  0
  8  1  1  0  0  0  0
 10  2  1  0  0  0  0
 11 19  1  6  0  0  0
 11  7  1  0  0  0  0
 12 10  2  0  0  0  0
 13 17  2  0  0  0  0
 13 16  1  0  0  0  0
 14  8  1  0  0  0  0
 15 14  1  0  0  0  0
 16 15  2  0  0  0  0
 17 18  1  0  0  0  0
 18 14  2  0  0  0  0
 21 25  2  0  0  0  0
 21 24  1  0  0  0  0
 22 21  1  0  0  0  0
 23 20  1  0  0  0  0
 24 27  2  0  0  0  0
 25 26  1  0  0  0  0
 26 23  2  0  0  0  0
 27 23  1  0  0  0  0
 27 19  1  0  0  0  0
M  END
>  <MODEL>
8

>  <REMARK>
 VINA RESULT:      -7.3      2.856      6.285
  Name = 
  3 active torsions:
  status: ('A' for Active; 'I' for Inactive)
    1  A    between atoms: N_3  and  C_19
    2  A    between atoms: N_3  and  C_26
    3  A    between atoms: C_9  and  N_15
                            x       y       z     vdW  Elec       q    Type
                         _______ _______ _______ _____ _____    ______ ____

>  <TORSDO>
F 3

$$$$
=
 OpenBabel11052413463D

 27 30  0  0  1  0  0  0  0  0999 V2000
  187.2660  178.0130  141.5790 C   0  0  0  0  0  0  0  0  0  0  0  0
  189.5100  178.9370  138.0390 C   0  0  0  0  0  2  0  0  0  0  0  0
  189.0190  178.0610  136.9220 C   0  0  0  0  0  3  0  0  0  0  0  0
  186.8810  178.8810  140.6890 N   0  0  0  0  0  0  0  0  0  0  0  0
  188.8010  176.1240  139.3760 C   0  0  0  0  0  2  0  0  0  0  0  0
  189.6240  175.9290  138.1040 C   0  0  0  0  0  2  0  0  0  0  0  0
  189.2080  177.4080  140.0910 C   0  0  1  0  0  3  0  0  0  0  0  0
  186.4300  177.6780  142.6970 N   0  0  0  0  0  2  0  0  0  0  0  0
  189.0690  176.7200  136.9520 C   0  0  0  0  0  3  0  0  0  0  0  0
  188.7840  178.6160  139.3020 C   0  0  0  0  0  0  0  0  0  0  0  0
  188.6520  177.4300  141.5170 C   0  0  1  0  0  3  0  0  0  0  0  0
  187.6750  179.2340  139.5820 N   0  0  0  0  0  0  0  0  0  0  0  0
  182.5030  179.0240  143.5550 C   0  0  0  0  0  3  0  0  0  0  0  0
  185.0960  178.1320  142.9590 C   0  0  0  0  0  0  0  0  0  0  0  0
  184.1060  178.1550  141.9640 C   0  0  0  0  0  3  0  0  0  0  0  0
  182.8150  178.6000  142.2610 C   0  0  0  0  0  3  0  0  0  0  0  0
  183.4830  179.0020  144.5520 C   0  0  0  0  0  3  0  0  0  0  0  0
  184.7740  178.5560  144.2530 C   0  0  0  0  0  3  0  0  0  0  0  0
  189.5470  178.1970  142.3730 N   0  0  0  0  0  2  0  0  0  0  0  0
  192.4450  176.8790  142.3870 Cl  0  0  0  0  0  0  0  0  0  0  0  0
  189.8160  177.5540  146.0200 C   0  0  0  0  0  0  0  0  0  0  0  0
  189.0120  177.7870  147.2460 C   0  0  0  0  0  1  0  0  0  0  0  0
  191.3520  177.1110  143.7440 C   0  0  0  0  0  0  0  0  0  0  0  0
  189.3460  177.9770  144.7780 C   0  0  0  0  0  3  0  0  0  0  0  0
  191.0490  176.9110  146.0970 C   0  0  0  0  0  3  0  0  0  0  0  0
  191.7830  176.7110  144.9720 N   0  0  0  0  0  0  0  0  0  0  0  0
  190.0940  177.7500  143.6200 C   0  0  0  0  0  0  0  0  0  0  0  0
  1  8  1  0  0  0  0
  2 10  1  0  0  0  0
  3  9  2  0  0  0  0
  3  2  1  0  0  0  0
  4  1  2  0  0  0  0
  6  5  1  0  0  0  0
  7  5  1  6  0  0  0
  7 11  1  0  0  0  0
  8 14  1  0  0  0  0
  9  6  1  0  0  0  0
 10 12  2  0  0  0  0
 10  7  1  0  0  0  0
 11  1  1  0  0  0  0
 11 19  1  1  0  0  0
 12  4  1  0  0  0  0
 13 17  1  0  0  0  0
 14 18  1  0  0  0  0
 15 16  1  0  0  0  0
 15 14  2  0  0  0  0
 16 13  2  0  0  0  0
 18 17  2  0  0  0  0
 19 27  1  0  0  0  0
 20 23  1  0  0  0  0
 21 25  1  0  0  0  0
 21 22  1  0  0  0  0
 23 26  1  0  0  0  0
 24 21  2  0  0  0  0
 26 25  2  0  0  0  0
 27 23  2  0  0  0  0
 27 24  1  0  0  0  0
M  END
>  <MODEL>
9

>  <REMARK>
 VINA RESULT:      -6.9      1.657      5.598
  Name = 
  3 active torsions:
  status: ('A' for Active; 'I' for Inactive)
    1  A    between atoms: N_3  and  C_19
    2  A    between atoms: N_3  and  C_26
    3  A    between atoms: C_9  and  N_15
                            x       y       z     vdW  Elec       q    Type
                         _______ _______ _______ _____ _____    ______ ____

>  <TORSDO>
F 3

$$$$
