=
 OpenBabel11052416463D

 32 38  0  0  1  0  0  0  0  0999 V2000
  187.5300  177.9040  136.1190 C   0  0  1  0  0  3  0  0  0  0  0  0
  188.4590  177.4950  141.0050 C   0  0  0  0  0  0  0  0  0  0  0  0
  184.1450  178.3650  143.1760 C   0  0  0  0  0  2  0  0  0  0  0  0
  184.8220  178.7510  144.4770 C   0  0  0  0  0  2  0  0  0  0  0  0
  188.6940  177.5220  138.7280 C   0  0  0  0  0  0  0  0  0  0  0  0
  186.7420  178.5190  139.6690 N   0  0  0  0  0  0  0  0  0  0  0  0
  187.0970  178.6860  137.3110 C   0  0  0  0  0  2  0  0  0  0  0  0
  185.0090  178.9630  141.9680 C   0  0  0  0  0  2  0  0  0  0  0  0
  187.2160  178.1720  140.9420 C   0  0  0  0  0  0  0  0  0  0  0  0
  186.4520  178.4480  142.0820 C   0  0  0  0  0  0  0  0  0  0  0  0
  188.2930  177.4870  143.4280 C   0  0  0  0  0  0  0  0  0  0  0  0
  188.8000  177.0000  136.1950 C   0  0  1  0  0  3  0  0  0  0  0  0
  187.4900  178.1990  138.6150 C   0  0  0  0  0  0  0  0  0  0  0  0
  189.5700  177.1610  137.5810 C   0  0  0  0  0  2  0  0  0  0  0  0
  187.4040  176.3780  136.2530 C   0  0  2  0  0  3  0  0  0  0  0  0
  186.1950  178.1580  144.5320 C   0  0  0  0  0  2  0  0  0  0  0  0
  187.0410  178.1340  143.3230 C   0  0  0  0  0  0  0  0  0  0  0  0
  189.1750  177.1860  139.9180 N   0  0  0  0  0  0  0  0  0  0  0  0
  189.0050  177.1490  142.2620 C   0  0  0  0  0  0  0  0  0  0  0  0
  190.3810  176.6590  142.3900 C   0  0  0  0  0  3  0  0  0  0  0  0
  191.4190  177.4140  142.4450 N   0  0  0  0  0  2  0  0  0  0  0  0
  186.6830  176.0400  134.8500 C   0  0  0  0  0  2  0  0  0  0  0  0
  185.1650  176.0070  134.8320 C   0  0  0  0  0  0  0  0  0  0  0  0
  184.4310  177.1130  134.5940 O   0  0  0  0  0  0  0  0  0  0  0  0
  184.5860  174.9380  135.1530 O   0  0  0  0  0  1  0  0  0  0  0  0
  188.5220  176.8300  144.7980 C   0  0  0  0  0  2  0  0  0  0  0  0
  190.8370  177.4270  146.5610 C   0  0  0  0  0  0  0  0  0  0  0  0
  189.6610  177.4710  147.2840 C   0  0  0  0  0  0  0  0  0  0  0  0
  191.2340  176.1360  147.3740 C   0  0  0  0  0  2  0  0  0  0  0  0
  191.8680  176.3510  146.0450 C   0  0  0  0  0  2  0  0  0  0  0  0
  189.0810  177.6800  148.3930 O   0  0  0  0  0  0  0  0  0  0  0  0
  189.6130  177.1150  145.8220 N   0  0  0  0  0  0  0  0  0  0  0  0
  1 12  1  0  0  0  0
  1 15  1  0  0  0  0
  1  7  1  1  0  0  0
  2 19  1  0  0  0  0
  3  4  1  0  0  0  0
  4 16  1  0  0  0  0
  5 18  1  0  0  0  0
  6  9  2  0  0  0  0
  7 13  1  0  0  0  0
  8 10  1  0  0  0  0
  8  3  1  0  0  0  0
  9  2  1  0  0  0  0
  9 10  1  0  0  0  0
 10 17  2  0  0  0  0
 11 26  1  0  0  0  0
 12 15  1  0  0  0  0
 12 14  1  1  0  0  0
 13  5  2  0  0  0  0
 13  6  1  0  0  0  0
 14  5  1  0  0  0  0
 15 22  1  6  0  0  0
 17 11  1  0  0  0  0
 17 16  1  0  0  0  0
 18  2  2  0  0  0  0
 19 20  1  0  0  0  0
 19 11  2  0  0  0  0
 20 21  2  0  0  0  0
 23 22  1  0  0  0  0
 23 25  1  0  0  0  0
 24 23  2  0  0  0  0
 26 32  1  0  0  0  0
 27 28  1  0  0  0  0
 27 29  1  0  0  0  0
 28 31  2  0  0  0  0
 30 27  1  0  0  0  0
 30 29  1  0  0  0  0
 32 27  1  0  0  0  0
 32 28  1  0  0  0  0
M  END
>  <MODEL>
1

>  <REMARK>
 VINA RESULT:      -8.7      0.000      0.000
  Name = 
  5 active torsions:
  status: ('A' for Active; 'I' for Inactive)
    1  A    between atoms: C_1  and  C_10
    2  A    between atoms: C_6  and  C_31
    3  A    between atoms: C_10  and  C_24
    4  A    between atoms: C_16  and  C_27
    5  A    between atoms: C_27  and  N_32
                            x       y       z     vdW  Elec       q    Type
                         _______ _______ _______ _____ _____    ______ ____

>  <TORSDO>
F 5

$$$$
=
 OpenBabel11052416463D

 32 38  0  0  1  0  0  0  0  0999 V2000
  189.7410  177.3750  136.4400 C   0  0  1  0  0  3  0  0  0  0  0  0
  188.7500  177.4610  141.3300 C   0  0  0  0  0  0  0  0  0  0  0  0
  183.9440  178.4100  141.6160 C   0  0  0  0  0  2  0  0  0  0  0  0
  184.0830  178.9380  143.0310 C   0  0  0  0  0  2  0  0  0  0  0  0
  189.8290  177.2780  139.3190 C   0  0  0  0  0  0  0  0  0  0  0  0
  187.6750  178.3030  139.3500 N   0  0  0  0  0  0  0  0  0  0  0  0
  188.8970  178.2540  137.2960 C   0  0  0  0  0  2  0  0  0  0  0  0
  185.2060  178.9150  140.7700 C   0  0  0  0  0  2  0  0  0  0  0  0
  187.6290  178.0930  140.7360 C   0  0  0  0  0  0  0  0  0  0  0  0
  186.4940  178.4550  141.4710 C   0  0  0  0  0  0  0  0  0  0  0  0
  187.6800  177.6810  143.5000 C   0  0  0  0  0  0  0  0  0  0  0  0
  190.8800  176.5190  137.0790 C   0  0  1  0  0  3  0  0  0  0  0  0
  188.7630  177.9060  138.6940 C   0  0  0  0  0  0  0  0  0  0  0  0
  191.0700  176.8340  138.6290 C   0  0  0  0  0  2  0  0  0  0  0  0
  189.5600  175.8650  136.6670 C   0  0  2  0  0  3  0  0  0  0  0  0
  185.3270  178.3920  143.6580 C   0  0  0  0  0  2  0  0  0  0  0  0
  186.5660  178.2770  142.8660 C   0  0  0  0  0  0  0  0  0  0  0  0
  189.8210  177.0720  140.6300 N   0  0  0  0  0  0  0  0  0  0  0  0
  188.7770  177.2530  142.7280 C   0  0  0  0  0  0  0  0  0  0  0  0
  189.9970  176.8180  143.4130 C   0  0  0  0  0  3  0  0  0  0  0  0
  190.7610  177.5900  144.1000 N   0  0  0  0  0  2  0  0  0  0  0  0
  189.4200  175.3750  135.1380 C   0  0  0  0  0  2  0  0  0  0  0  0
  188.1010  174.7490  134.7200 C   0  0  0  0  0  0  0  0  0  0  0  0
  186.9730  175.4790  134.5940 O   0  0  0  0  0  0  0  0  0  0  0  0
  188.0450  173.4990  134.5940 O   0  0  0  0  0  1  0  0  0  0  0  0
  187.3690  177.1640  144.9120 C   0  0  0  0  0  2  0  0  0  0  0  0
  188.0810  178.5220  147.4560 C   0  0  0  0  0  0  0  0  0  0  0  0
  186.7180  178.5920  147.2410 C   0  0  0  0  0  0  0  0  0  0  0  0
  187.7930  177.5610  148.6720 C   0  0  0  0  0  2  0  0  0  0  0  0
  189.1360  177.5020  148.0340 C   0  0  0  0  0  2  0  0  0  0  0  0
  185.5820  179.0050  147.6290 O   0  0  0  0  0  0  0  0  0  0  0  0
  187.5820  177.8590  146.2510 N   0  0  0  0  0  0  0  0  0  0  0  0
  1 15  1  0  0  0  0
  1 12  1  0  0  0  0
  1  7  1  1  0  0  0
  2 19  1  0  0  0  0
  3  4  1  0  0  0  0
  4 16  1  0  0  0  0
  5 18  1  0  0  0  0
  6  9  2  0  0  0  0
  7 13  1  0  0  0  0
  8 10  1  0  0  0  0
  8  3  1  0  0  0  0
  9  2  1  0  0  0  0
  9 10  1  0  0  0  0
 10 17  2  0  0  0  0
 11 26  1  0  0  0  0
 12 14  1  1  0  0  0
 13  5  2  0  0  0  0
 13  6  1  0  0  0  0
 14  5  1  0  0  0  0
 15 22  1  6  0  0  0
 15 12  1  0  0  0  0
 17 11  1  0  0  0  0
 17 16  1  0  0  0  0
 18  2  2  0  0  0  0
 19 20  1  0  0  0  0
 19 11  2  0  0  0  0
 20 21  2  0  0  0  0
 23 22  1  0  0  0  0
 24 23  2  0  0  0  0
 25 23  1  0  0  0  0
 26 32  1  0  0  0  0
 27 30  1  0  0  0  0
 27 29  1  0  0  0  0
 28 27  1  0  0  0  0
 28 31  2  0  0  0  0
 30 29  1  0  0  0  0
 32 28  1  0  0  0  0
 32 27  1  0  0  0  0
M  END
>  <MODEL>
2

>  <REMARK>
 VINA RESULT:      -8.6      1.786      2.186
  Name = 
  5 active torsions:
  status: ('A' for Active; 'I' for Inactive)
    1  A    between atoms: C_1  and  C_10
    2  A    between atoms: C_6  and  C_31
    3  A    between atoms: C_10  and  C_24
    4  A    between atoms: C_16  and  C_27
    5  A    between atoms: C_27  and  N_32
                            x       y       z     vdW  Elec       q    Type
                         _______ _______ _______ _____ _____    ______ ____

>  <TORSDO>
F 5

$$$$
=
 OpenBabel11052416463D

 32 38  0  0  1  0  0  0  0  0999 V2000
  190.3680  178.1400  144.9450 C   0  0  1  0  0  3  0  0  0  0  0  0
  189.4830  177.3770  140.0930 C   0  0  0  0  0  0  0  0  0  0  0  0
  193.6980  175.6010  138.3160 C   0  0  0  0  0  2  0  0  0  0  0  0
  193.3420  176.0310  136.9070 C   0  0  0  0  0  2  0  0  0  0  0  0
  189.2360  177.9230  142.3030 C   0  0  0  0  0  0  0  0  0  0  0  0
  191.4480  177.6400  141.4540 N   0  0  0  0  0  0  0  0  0  0  0  0
  191.1670  178.3790  143.7100 C   0  0  0  0  0  2  0  0  0  0  0  0
  193.2250  176.7530  139.3230 C   0  0  0  0  0  2  0  0  0  0  0  0
  190.8960  177.3510  140.1980 C   0  0  0  0  0  0  0  0  0  0  0  0
  191.7230  177.0060  139.1220 C   0  0  0  0  0  0  0  0  0  0  0  0
  189.6830  176.8560  137.7290 C   0  0  0  0  0  0  0  0  0  0  0  0
  188.8170  177.9830  144.8560 C   0  0  1  0  0  3  0  0  0  0  0  0
  190.6140  177.9250  142.4530 C   0  0  0  0  0  0  0  0  0  0  0  0
  188.2690  178.2530  143.3840 C   0  0  0  0  0  2  0  0  0  0  0  0
  189.7090  176.7540  145.0430 C   0  0  2  0  0  3  0  0  0  0  0  0
  191.8590  176.1940  136.7830 C   0  0  0  0  0  2  0  0  0  0  0  0
  191.0870  176.8060  137.8810 C   0  0  0  0  0  0  0  0  0  0  0  0
  188.6820  177.6620  141.1260 N   0  0  0  0  0  0  0  0  0  0  0  0
  188.8690  177.1270  138.8440 C   0  0  0  0  0  0  0  0  0  0  0  0
  187.4380  177.3660  138.6350 C   0  0  0  0  0  3  0  0  0  0  0  0
  186.9460  178.4440  138.1370 N   0  0  0  0  0  2  0  0  0  0  0  0
  190.1250  176.3620  146.5510 C   0  0  0  0  0  2  0  0  0  0  0  0
  191.6070  176.2760  146.8700 C   0  0  0  0  0  0  0  0  0  0  0  0
  192.4210  175.4010  146.2460 O   0  0  0  0  0  0  0  0  0  0  0  0
  192.0560  176.9700  147.8180 O   0  0  0  0  0  1  0  0  0  0  0  0
  189.1870  176.1650  136.4500 C   0  0  0  0  0  2  0  0  0  0  0  0
  186.9640  174.2620  135.9410 C   0  0  0  0  0  0  0  0  0  0  0  0
  187.9660  173.6450  136.6660 C   0  0  0  0  0  0  0  0  0  0  0  0
  186.0450  174.1640  137.2180 C   0  0  0  0  0  2  0  0  0  0  0  0
  185.7250  175.2020  136.2020 C   0  0  0  0  0  2  0  0  0  0  0  0
  188.4090  172.5920  137.2180 O   0  0  0  0  0  0  0  0  0  0  0  0
  188.1120  175.0970  136.2970 N   0  0  0  0  0  0  0  0  0  0  0  0
  1  7  1  6  0  0  0
  1 15  1  0  0  0  0
  2  9  1  0  0  0  0
  2 18  1  0  0  0  0
  3  8  1  0  0  0  0
  4  3  1  0  0  0  0
  5 13  1  0  0  0  0
  5 14  1  0  0  0  0
  6 13  2  0  0  0  0
  9  6  1  0  0  0  0
 10  8  1  0  0  0  0
 10  9  2  0  0  0  0
 11 17  2  0  0  0  0
 11 19  1  0  0  0  0
 12 14  1  6  0  0  0
 12  1  1  0  0  0  0
 12 15  1  0  0  0  0
 13  7  1  0  0  0  0
 15 22  1  1  0  0  0
 16  4  1  0  0  0  0
 16 17  1  0  0  0  0
 17 10  1  0  0  0  0
 18  5  2  0  0  0  0
 19  2  2  0  0  0  0
 20 19  1  0  0  0  0
 21 20  2  0  0  0  0
 22 23  1  0  0  0  0
 23 25  1  0  0  0  0
 24 23  2  0  0  0  0
 26 11  1  0  0  0  0
 27 30  1  0  0  0  0
 27 32  1  0  0  0  0
 27 28  1  0  0  0  0
 27 29  1  0  0  0  0
 28 31  2  0  0  0  0
 30 29  1  0  0  0  0
 32 26  1  0  0  0  0
 32 28  1  0  0  0  0
M  END
>  <MODEL>
3

>  <REMARK>
 VINA RESULT:      -7.8      2.494      9.130
  Name = 
  5 active torsions:
  status: ('A' for Active; 'I' for Inactive)
    1  A    between atoms: C_1  and  C_10
    2  A    between atoms: C_6  and  C_31
    3  A    between atoms: C_10  and  C_24
    4  A    between atoms: C_16  and  C_27
    5  A    between atoms: C_27  and  N_32
                            x       y       z     vdW  Elec       q    Type
                         _______ _______ _______ _____ _____    ______ ____

>  <TORSDO>
F 5

$$$$
=
 OpenBabel11052416463D

 32 38  0  0  1  0  0  0  0  0999 V2000
  182.2190  178.6650  140.6150 C   0  0  1  0  0  3  0  0  0  0  0  0
  187.1660  178.3090  140.0580 C   0  0  0  0  0  0  0  0  0  0  0  0
  188.8000  176.6830  144.3890 C   0  0  0  0  0  2  0  0  0  0  0  0
  190.1890  177.2290  144.1260 C   0  0  0  0  0  2  0  0  0  0  0  0
  184.9390  178.6700  139.6620 C   0  0  0  0  0  0  0  0  0  0  0  0
  185.6600  178.4560  141.9270 N   0  0  0  0  0  0  0  0  0  0  0  0
  183.3740  179.0050  141.4930 C   0  0  0  0  0  2  0  0  0  0  0  0
  187.7340  177.7470  143.8450 C   0  0  0  0  0  2  0  0  0  0  0  0
  186.9690  178.2730  141.4600 C   0  0  0  0  0  0  0  0  0  0  0  0
  188.0130  178.0170  142.3590 C   0  0  0  0  0  0  0  0  0  0  0  0
  189.5460  177.9860  140.4160 C   0  0  0  0  0  0  0  0  0  0  0  0
  182.4240  178.5180  139.0740 C   0  0  1  0  0  3  0  0  0  0  0  0
  184.6990  178.6580  141.0270 C   0  0  0  0  0  0  0  0  0  0  0  0
  183.9010  178.9090  138.6240 C   0  0  0  0  0  2  0  0  0  0  0  0
  182.2800  177.2770  139.9570 C   0  0  2  0  0  3  0  0  0  0  0  0
  190.3970  177.4030  142.6540 C   0  0  0  0  0  2  0  0  0  0  0  0
  189.3060  177.9230  141.8080 C   0  0  0  0  0  0  0  0  0  0  0  0
  186.1680  178.5080  139.1880 N   0  0  0  0  0  0  0  0  0  0  0  0
  188.4690  178.1650  139.5290 C   0  0  0  0  0  0  0  0  0  0  0  0
  188.7530  178.4220  138.1140 C   0  0  0  0  0  3  0  0  0  0  0  0
  188.9990  179.5820  137.6210 N   0  0  0  0  0  2  0  0  0  0  0  0
  180.7860  176.7600  140.2730 C   0  0  0  0  0  2  0  0  0  0  0  0
  180.3860  175.3980  139.7320 C   0  0  0  0  0  0  0  0  0  0  0  0
  180.6130  175.0450  138.4510 O   0  0  0  0  0  0  0  0  0  0  0  0
  179.7310  174.6270  140.4790 O   0  0  0  0  0  1  0  0  0  0  0  0
  190.9090  177.4040  140.0100 C   0  0  0  0  0  2  0  0  0  0  0  0
  191.3950  176.1170  137.3780 C   0  0  0  0  0  0  0  0  0  0  0  0
  192.5950  176.4230  137.9900 C   0  0  0  0  0  0  0  0  0  0  0  0
  191.7310  174.5910  137.5860 C   0  0  0  0  0  2  0  0  0  0  0  0
  190.3040  174.9780  137.4160 C   0  0  0  0  0  2  0  0  0  0  0  0
  193.8630  176.4320  137.9400 O   0  0  0  0  0  0  0  0  0  0  0  0
  191.3060  176.7250  138.7060 N   0  0  0  0  0  0  0  0  0  0  0  0
  1  7  1  1  0  0  0
  2  9  1  0  0  0  0
  4  3  1  0  0  0  0
  5 13  1  0  0  0  0
  8  3  1  0  0  0  0
  9  6  1  0  0  0  0
  9 10  2  0  0  0  0
 10  8  1  0  0  0  0
 11 17  2  0  0  0  0
 12 14  1  1  0  0  0
 12 15  1  0  0  0  0
 12  1  1  0  0  0  0
 13  7  1  0  0  0  0
 13  6  2  0  0  0  0
 14  5  1  0  0  0  0
 15 22  1  6  0  0  0
 15  1  1  0  0  0  0
 16  4  1  0  0  0  0
 17 10  1  0  0  0  0
 17 16  1  0  0  0  0
 18  5  2  0  0  0  0
 18  2  1  0  0  0  0
 19  2  2  0  0  0  0
 19 11  1  0  0  0  0
 20 19  1  0  0  0  0
 21 20  2  0  0  0  0
 23 22  1  0  0  0  0
 23 25  1  0  0  0  0
 24 23  2  0  0  0  0
 26 11  1  0  0  0  0
 27 30  1  0  0  0  0
 27 29  1  0  0  0  0
 27 28  1  0  0  0  0
 27 32  1  0  0  0  0
 28 32  1  0  0  0  0
 30 29  1  0  0  0  0
 31 28  2  0  0  0  0
 32 26  1  0  0  0  0
M  END
>  <MODEL>
4

>  <REMARK>
 VINA RESULT:      -7.8      3.458      6.156
  Name = 
  5 active torsions:
  status: ('A' for Active; 'I' for Inactive)
    1  A    between atoms: C_1  and  C_10
    2  A    between atoms: C_6  and  C_31
    3  A    between atoms: C_10  and  C_24
    4  A    between atoms: C_16  and  C_27
    5  A    between atoms: C_27  and  N_32
                            x       y       z     vdW  Elec       q    Type
                         _______ _______ _______ _____ _____    ______ ____

>  <TORSDO>
F 5

$$$$
=
 OpenBabel11052416463D

 32 38  0  0  1  0  0  0  0  0999 V2000
  184.0790  178.8150  138.2350 C   0  0  1  0  0  3  0  0  0  0  0  0
  187.0280  178.0830  142.1930 C   0  0  0  0  0  0  0  0  0  0  0  0
  184.0100  178.2860  146.0570 C   0  0  0  0  0  2  0  0  0  0  0  0
  185.1520  178.6280  146.9930 C   0  0  0  0  0  2  0  0  0  0  0  0
  186.2660  178.3350  140.0490 C   0  0  0  0  0  0  0  0  0  0  0  0
  184.8460  179.0280  141.8360 N   0  0  0  0  0  0  0  0  0  0  0  0
  184.1490  179.4380  139.5860 C   0  0  0  0  0  2  0  0  0  0  0  0
  184.2370  179.0780  144.6840 C   0  0  0  0  0  2  0  0  0  0  0  0
  185.8380  178.6240  142.7400 C   0  0  0  0  0  0  0  0  0  0  0  0
  185.6190  178.7150  144.1200 C   0  0  0  0  0  0  0  0  0  0  0  0
  187.9140  177.8450  144.4420 C   0  0  0  0  0  0  0  0  0  0  0  0
  185.3130  178.0510  137.6600 C   0  0  1  0  0  3  0  0  0  0  0  0
  185.0900  178.8850  140.5350 C   0  0  0  0  0  0  0  0  0  0  0  0
  186.5890  178.1730  138.6060 C   0  0  0  0  0  2  0  0  0  0  0  0
  184.1150  177.2790  138.2170 C   0  0  2  0  0  3  0  0  0  0  0  0
  186.4510  178.1850  146.3950 C   0  0  0  0  0  2  0  0  0  0  0  0
  186.6990  178.3580  144.9520 C   0  0  0  0  0  0  0  0  0  0  0  0
  187.2290  177.9510  140.8770 N   0  0  0  0  0  0  0  0  0  0  0  0
  188.0790  177.6900  143.0540 C   0  0  0  0  0  0  0  0  0  0  0  0
  189.4040  177.3430  142.5330 C   0  0  0  0  0  3  0  0  0  0  0  0
  190.3520  178.1870  142.3360 N   0  0  0  0  0  2  0  0  0  0  0  0
  182.8870  176.9890  137.2130 C   0  0  0  0  0  2  0  0  0  0  0  0
  181.4830  177.2470  137.7300 C   0  0  0  0  0  0  0  0  0  0  0  0
  180.9830  176.5890  138.7960 O   0  0  0  0  0  1  0  0  0  0  0  0
  180.7370  178.0200  137.0760 O   0  0  0  0  0  0  0  0  0  0  0  0
  188.7450  177.0990  145.4970 C   0  0  0  0  0  2  0  0  0  0  0  0
  191.6860  176.7300  145.3010 C   0  0  0  0  0  0  0  0  0  0  0  0
  191.3170  176.9450  146.6140 C   0  0  0  0  0  0  0  0  0  0  0  0
  192.0640  175.2520  145.6980 C   0  0  0  0  0  2  0  0  0  0  0  0
  191.7510  175.5370  144.2720 C   0  0  0  0  0  2  0  0  0  0  0  0
  191.6670  177.0880  147.8260 O   0  0  0  0  0  0  0  0  0  0  0  0
  190.2530  176.8920  145.5510 N   0  0  0  0  0  0  0  0  0  0  0  0
  1  7  1  1  0  0  0
  2  9  1  0  0  0  0
  2 19  1  0  0  0  0
  3  4  1  0  0  0  0
  5 13  2  0  0  0  0
  5 18  1  0  0  0  0
  6  9  2  0  0  0  0
  7 13  1  0  0  0  0
  8  3  1  0  0  0  0
  9 10  1  0  0  0  0
 10  8  1  0  0  0  0
 10 17  2  0  0  0  0
 11 17  1  0  0  0  0
 11 26  1  0  0  0  0
 12 15  1  0  0  0  0
 12  1  1  0  0  0  0
 12 14  1  1  0  0  0
 13  6  1  0  0  0  0
 14  5  1  0  0  0  0
 15 22  1  6  0  0  0
 15  1  1  0  0  0  0
 16  4  1  0  0  0  0
 17 16  1  0  0  0  0
 18  2  2  0  0  0  0
 19 11  2  0  0  0  0
 20 19  1  0  0  0  0
 21 20  2  0  0  0  0
 22 23  1  0  0  0  0
 23 24  1  0  0  0  0
 25 23  2  0  0  0  0
 26 32  1  0  0  0  0
 27 32  1  0  0  0  0
 27 29  1  0  0  0  0
 27 28  1  0  0  0  0
 28 31  2  0  0  0  0
 30 27  1  0  0  0  0
 30 29  1  0  0  0  0
 32 28  1  0  0  0  0
M  END
>  <MODEL>
5

>  <REMARK>
 VINA RESULT:      -7.7      2.284      2.959
  Name = 
  5 active torsions:
  status: ('A' for Active; 'I' for Inactive)
    1  A    between atoms: C_1  and  C_10
    2  A    between atoms: C_6  and  C_31
    3  A    between atoms: C_10  and  C_24
    4  A    between atoms: C_16  and  C_27
    5  A    between atoms: C_27  and  N_32
                            x       y       z     vdW  Elec       q    Type
                         _______ _______ _______ _____ _____    ______ ____

>  <TORSDO>
F 5

$$$$
=
 OpenBabel11052416463D

 32 38  0  0  1  0  0  0  0  0999 V2000
  190.9820  177.7960  145.0600 C   0  0  1  0  0  3  0  0  0  0  0  0
  186.5590  178.2550  142.7940 C   0  0  0  0  0  0  0  0  0  0  0  0
  187.5010  177.4790  138.0410 C   0  0  0  0  0  2  0  0  0  0  0  0
  186.2510  178.2260  137.6210 C   0  0  0  0  0  2  0  0  0  0  0  0
  188.2050  178.1670  144.3840 C   0  0  0  0  0  0  0  0  0  0  0  0
  188.8590  178.3590  142.0970 N   0  0  0  0  0  0  0  0  0  0  0  0
  190.5470  178.4380  143.7880 C   0  0  0  0  0  2  0  0  0  0  0  0
  188.1620  178.2640  139.2700 C   0  0  0  0  0  2  0  0  0  0  0  0
  187.5020  178.3550  141.7410 C   0  0  0  0  0  0  0  0  0  0  0  0
  187.1230  178.3980  140.3940 C   0  0  0  0  0  0  0  0  0  0  0  0
  184.7690  178.4040  141.1590 C   0  0  0  0  0  0  0  0  0  0  0  0
  189.9400  177.5030  146.1850 C   0  0  1  0  0  3  0  0  0  0  0  0
  189.1650  178.2780  143.3910 C   0  0  0  0  0  0  0  0  0  0  0  0
  188.5010  178.0920  145.8400 C   0  0  0  0  0  2  0  0  0  0  0  0
  190.4530  176.3720  145.2910 C   0  0  2  0  0  3  0  0  0  0  0  0
  185.2700  178.2550  138.7520 C   0  0  0  0  0  2  0  0  0  0  0  0
  185.7400  178.4680  140.1340 C   0  0  0  0  0  0  0  0  0  0  0  0
  186.9130  178.1690  144.0810 N   0  0  0  0  0  0  0  0  0  0  0  0
  185.1770  178.2810  142.5000 C   0  0  0  0  0  0  0  0  0  0  0  0
  184.1720  178.4110  143.5600 C   0  0  0  0  0  3  0  0  0  0  0  0
  183.8030  179.5270  144.0790 N   0  0  0  0  0  2  0  0  0  0  0  0
  191.8210  175.6410  145.7310 C   0  0  0  0  0  2  0  0  0  0  0  0
  192.1100  175.5280  147.2170 C   0  0  0  0  0  0  0  0  0  0  0  0
  193.2490  176.0020  147.7610 O   0  0  0  0  0  0  0  0  0  0  0  0
  191.3060  174.8790  147.9340 O   0  0  0  0  0  1  0  0  0  0  0  0
  183.3710  178.0270  140.6460 C   0  0  0  0  0  2  0  0  0  0  0  0
  180.8700  179.3370  141.5710 C   0  0  0  0  0  0  0  0  0  0  0  0
  180.8320  179.1430  140.2040 C   0  0  0  0  0  0  0  0  0  0  0  0
  179.7260  178.2610  141.7080 C   0  0  0  0  0  2  0  0  0  0  0  0
  180.5950  178.5160  142.8890 C   0  0  0  0  0  2  0  0  0  0  0  0
  180.2090  179.2910  139.1080 O   0  0  0  0  0  0  0  0  0  0  0  0
  182.0280  178.6640  140.9810 N   0  0  0  0  0  0  0  0  0  0  0  0
  1  7  1  6  0  0  0
  1 15  1  0  0  0  0
  1 12  1  0  0  0  0
  2 18  2  0  0  0  0
  3  8  1  0  0  0  0
  4  3  1  0  0  0  0
  4 16  1  0  0  0  0
  5 14  1  0  0  0  0
  6 13  1  0  0  0  0
  8 10  1  0  0  0  0
  9  6  2  0  0  0  0
  9  2  1  0  0  0  0
 10  9  1  0  0  0  0
 11 19  2  0  0  0  0
 12 14  1  6  0  0  0
 13  7  1  0  0  0  0
 13  5  2  0  0  0  0
 15 22  1  1  0  0  0
 15 12  1  0  0  0  0
 16 17  1  0  0  0  0
 17 10  2  0  0  0  0
 17 11  1  0  0  0  0
 18  5  1  0  0  0  0
 19  2  1  0  0  0  0
 19 20  1  0  0  0  0
 20 21  2  0  0  0  0
 22 23  1  0  0  0  0
 23 24  2  0  0  0  0
 23 25  1  0  0  0  0
 26 32  1  0  0  0  0
 26 11  1  0  0  0  0
 27 29  1  0  0  0  0
 27 30  1  0  0  0  0
 28 32  1  0  0  0  0
 28 27  1  0  0  0  0
 29 30  1  0  0  0  0
 31 28  2  0  0  0  0
 32 27  1  0  0  0  0
M  END
>  <MODEL>
6

>  <REMARK>
 VINA RESULT:      -7.6      2.818      8.802
  Name = 
  5 active torsions:
  status: ('A' for Active; 'I' for Inactive)
    1  A    between atoms: C_1  and  C_10
    2  A    between atoms: C_6  and  C_31
    3  A    between atoms: C_10  and  C_24
    4  A    between atoms: C_16  and  C_27
    5  A    between atoms: C_27  and  N_32
                            x       y       z     vdW  Elec       q    Type
                         _______ _______ _______ _____ _____    ______ ____

>  <TORSDO>
F 5

$$$$
=
 OpenBabel11052416463D

 32 38  0  0  1  0  0  0  0  0999 V2000
  180.9460  179.8650  137.7620 C   0  0  1  0  0  3  0  0  0  0  0  0
  185.0640  178.8930  140.4080 C   0  0  0  0  0  0  0  0  0  0  0  0
  188.6640  178.6640  137.0830 C   0  0  0  0  0  2  0  0  0  0  0  0
  189.5310  177.8310  138.0070 C   0  0  0  0  0  2  0  0  0  0  0  0
  182.8960  179.3310  139.8160 C   0  0  0  0  0  0  0  0  0  0  0  0
  184.4190  178.6700  138.1030 N   0  0  0  0  0  0  0  0  0  0  0  0
  182.1130  178.9660  137.5430 C   0  0  0  0  0  2  0  0  0  0  0  0
  187.1510  178.1610  137.2320 C   0  0  0  0  0  2  0  0  0  0  0  0
  185.4260  178.5840  139.0740 C   0  0  0  0  0  0  0  0  0  0  0  0
  186.7370  178.2550  138.7080 C   0  0  0  0  0  0  0  0  0  0  0  0
  187.3340  178.3850  141.1070 C   0  0  0  0  0  0  0  0  0  0  0  0
  180.6110  180.3770  139.1980 C   0  0  1  0  0  3  0  0  0  0  0  0
  183.1980  179.0240  138.4990 C   0  0  0  0  0  0  0  0  0  0  0  0
  181.5440  179.7130  140.3060 C   0  0  0  0  0  2  0  0  0  0  0  0
  181.2940  181.3010  138.1880 C   0  0  2  0  0  3  0  0  0  0  0  0
  189.1000  178.0300  139.4260 C   0  0  0  0  0  2  0  0  0  0  0  0
  187.6660  178.1170  139.7590 C   0  0  0  0  0  0  0  0  0  0  0  0
  183.8240  179.2520  140.7610 N   0  0  0  0  0  0  0  0  0  0  0  0
  186.0280  178.7910  141.4370 C   0  0  0  0  0  0  0  0  0  0  0  0
  185.6500  178.8750  142.8510 C   0  0  0  0  0  3  0  0  0  0  0  0
  185.3130  177.8690  143.5750 N   0  0  0  0  0  2  0  0  0  0  0  0
  180.3460  182.1230  137.1740 C   0  0  0  0  0  2  0  0  0  0  0  0
  180.8930  183.4160  136.5960 C   0  0  0  0  0  0  0  0  0  0  0  0
  180.7500  183.7310  135.2930 O   0  0  0  0  0  0  0  0  0  0  0  0
  181.5880  184.1560  137.3380 O   0  0  0  0  0  1  0  0  0  0  0  0
  188.5630  178.6300  141.9950 C   0  0  0  0  0  2  0  0  0  0  0  0
  189.2750  176.9280  144.3230 C   0  0  0  0  0  0  0  0  0  0  0  0
  190.4100  177.2680  143.6140 C   0  0  0  0  0  0  0  0  0  0  0  0
  189.7980  177.8320  145.5030 C   0  0  0  0  0  2  0  0  0  0  0  0
  188.3380  177.5550  145.4260 C   0  0  0  0  0  2  0  0  0  0  0  0
  191.6680  177.1680  143.4730 O   0  0  0  0  0  0  0  0  0  0  0  0
  189.0760  177.8000  143.1650 N   0  0  0  0  0  0  0  0  0  0  0  0
  1  7  1  1  0  0  0
  1 15  1  0  0  0  0
  1 12  1  0  0  0  0
  2 18  2  0  0  0  0
  2 19  1  0  0  0  0
  3  8  1  0  0  0  0
  3  4  1  0  0  0  0
  4 16  1  0  0  0  0
  5 14  1  0  0  0  0
  5 18  1  0  0  0  0
  6 13  1  0  0  0  0
  6  9  2  0  0  0  0
  7 13  1  0  0  0  0
  8 10  1  0  0  0  0
  9  2  1  0  0  0  0
 10  9  1  0  0  0  0
 10 17  2  0  0  0  0
 11 19  2  0  0  0  0
 11 26  1  0  0  0  0
 12 14  1  1  0  0  0
 13  5  2  0  0  0  0
 15 22  1  6  0  0  0
 15 12  1  0  0  0  0
 16 17  1  0  0  0  0
 17 11  1  0  0  0  0
 19 20  1  0  0  0  0
 20 21  2  0  0  0  0
 23 22  1  0  0  0  0
 23 25  1  0  0  0  0
 24 23  2  0  0  0  0
 26 32  1  0  0  0  0
 27 30  1  0  0  0  0
 27 29  1  0  0  0  0
 28 27  1  0  0  0  0
 30 29  1  0  0  0  0
 31 28  2  0  0  0  0
 32 28  1  0  0  0  0
 32 27  1  0  0  0  0
M  END
>  <MODEL>
7

>  <REMARK>
 VINA RESULT:      -7.6      3.946      5.943
  Name = 
  5 active torsions:
  status: ('A' for Active; 'I' for Inactive)
    1  A    between atoms: C_1  and  C_10
    2  A    between atoms: C_6  and  C_31
    3  A    between atoms: C_10  and  C_24
    4  A    between atoms: C_16  and  C_27
    5  A    between atoms: C_27  and  N_32
                            x       y       z     vdW  Elec       q    Type
                         _______ _______ _______ _____ _____    ______ ____

>  <TORSDO>
F 5

$$$$
=
 OpenBabel11052416463D

 32 38  0  0  1  0  0  0  0  0999 V2000
  191.2550  176.3780  141.2430 C   0  0  1  0  0  3  0  0  0  0  0  0
  186.6360  177.9440  142.2950 C   0  0  0  0  0  0  0  0  0  0  0  0
  186.5950  178.5420  147.1650 C   0  0  0  0  0  2  0  0  0  0  0  0
  185.0850  178.4120  147.2170 C   0  0  0  0  0  2  0  0  0  0  0  0
  188.5070  177.2420  141.1780 C   0  0  0  0  0  0  0  0  0  0  0  0
  188.4260  176.9330  143.5420 N   0  0  0  0  0  0  0  0  0  0  0  0
  190.2890  176.0540  142.3300 C   0  0  0  0  0  2  0  0  0  0  0  0
  187.1500  177.4800  146.1030 C   0  0  0  0  0  2  0  0  0  0  0  0
  187.1540  177.5240  143.5450 C   0  0  0  0  0  0  0  0  0  0  0  0
  186.4680  177.7250  144.7480 C   0  0  0  0  0  0  0  0  0  0  0  0
  184.6010  178.6560  143.4160 C   0  0  0  0  0  0  0  0  0  0  0  0
  190.7500  177.0100  139.9080 C   0  0  1  0  0  3  0  0  0  0  0  0
  189.0510  176.8000  142.3740 C   0  0  0  0  0  0  0  0  0  0  0  0
  189.1600  177.0980  139.8490 C   0  0  0  0  0  2  0  0  0  0  0  0
  191.4470  177.8760  140.9590 C   0  0  2  0  0  3  0  0  0  0  0  0
  184.5000  178.7270  145.8760 C   0  0  0  0  0  2  0  0  0  0  0  0
  185.1660  178.2540  144.6480 C   0  0  0  0  0  0  0  0  0  0  0  0
  187.3020  177.7980  141.1440 N   0  0  0  0  0  0  0  0  0  0  0  0
  185.3440  178.5160  142.2290 C   0  0  0  0  0  0  0  0  0  0  0  0
  184.6770  178.7530  140.9450 C   0  0  0  0  0  3  0  0  0  0  0  0
  184.9180  179.7530  140.1740 N   0  0  0  0  0  2  0  0  0  0  0  0
  193.0580  177.9410  140.9170 C   0  0  0  0  0  2  0  0  0  0  0  0
  193.7650  177.1210  139.8530 C   0  0  0  0  0  0  0  0  0  0  0  0
  193.3660  177.1270  138.5650 O   0  0  0  0  0  0  0  0  0  0  0  0
  194.6800  176.3370  140.2120 O   0  0  0  0  0  1  0  0  0  0  0  0
  183.4100  179.6120  143.5790 C   0  0  0  0  0  2  0  0  0  0  0  0
  180.5030  179.3570  143.0270 C   0  0  0  0  0  0  0  0  0  0  0  0
  181.2330  179.0690  141.8900 C   0  0  0  0  0  0  0  0  0  0  0  0
  180.0820  177.8390  143.0830 C   0  0  0  0  0  2  0  0  0  0  0  0
  180.0300  178.6290  144.3430 C   0  0  0  0  0  2  0  0  0  0  0  0
  181.2400  178.7570  140.6600 O   0  0  0  0  0  0  0  0  0  0  0  0
  181.9590  179.4070  143.1640 N   0  0  0  0  0  0  0  0  0  0  0  0
  1  7  1  1  0  0  0
  2  9  1  0  0  0  0
  3  4  1  0  0  0  0
  5 13  1  0  0  0  0
  6  9  1  0  0  0  0
  7 13  1  0  0  0  0
  8  3  1  0  0  0  0
  9 10  2  0  0  0  0
 10  8  1  0  0  0  0
 11 26  1  0  0  0  0
 11 17  2  0  0  0  0
 12 14  1  1  0  0  0
 12 15  1  0  0  0  0
 12  1  1  0  0  0  0
 13  6  2  0  0  0  0
 14  5  1  0  0  0  0
 15 22  1  6  0  0  0
 15  1  1  0  0  0  0
 16  4  1  0  0  0  0
 17 10  1  0  0  0  0
 17 16  1  0  0  0  0
 18  5  2  0  0  0  0
 18  2  1  0  0  0  0
 19  2  2  0  0  0  0
 19 11  1  0  0  0  0
 20 19  1  0  0  0  0
 21 20  2  0  0  0  0
 23 25  1  0  0  0  0
 23 22  1  0  0  0  0
 24 23  2  0  0  0  0
 27 29  1  0  0  0  0
 27 32  1  0  0  0  0
 27 30  1  0  0  0  0
 28 27  1  0  0  0  0
 28 32  1  0  0  0  0
 29 30  1  0  0  0  0
 31 28  2  0  0  0  0
 32 26  1  0  0  0  0
M  END
>  <MODEL>
8

>  <REMARK>
 VINA RESULT:      -7.5      3.738      6.981
  Name = 
  5 active torsions:
  status: ('A' for Active; 'I' for Inactive)
    1  A    between atoms: C_1  and  C_10
    2  A    between atoms: C_6  and  C_31
    3  A    between atoms: C_10  and  C_24
    4  A    between atoms: C_16  and  C_27
    5  A    between atoms: C_27  and  N_32
                            x       y       z     vdW  Elec       q    Type
                         _______ _______ _______ _____ _____    ______ ____

>  <TORSDO>
F 5

$$$$
=
 OpenBabel11052416463D

 32 38  0  0  1  0  0  0  0  0999 V2000
  192.6530  174.8720  136.1490 C   0  0  1  0  0  3  0  0  0  0  0  0
  189.1930  177.1480  138.9320 C   0  0  0  0  0  0  0  0  0  0  0  0
  191.4540  178.1480  143.1700 C   0  0  0  0  0  2  0  0  0  0  0  0
  190.1350  178.2330  143.9110 C   0  0  0  0  0  2  0  0  0  0  0  0
  190.2700  176.1020  137.2040 C   0  0  0  0  0  0  0  0  0  0  0  0
  191.2620  176.0040  139.3710 N   0  0  0  0  0  0  0  0  0  0  0  0
  192.2730  174.7770  137.5860 C   0  0  0  0  0  2  0  0  0  0  0  0
  191.3640  176.9340  142.1300 C   0  0  0  0  0  2  0  0  0  0  0  0
  190.1910  176.7650  139.8620 C   0  0  0  0  0  0  0  0  0  0  0  0
  190.1580  177.1580  141.2050 C   0  0  0  0  0  0  0  0  0  0  0  0
  187.9750  178.2260  140.7360 C   0  0  0  0  0  0  0  0  0  0  0  0
  191.6450  175.4560  135.1090 C   0  0  1  0  0  3  0  0  0  0  0  0
  191.2640  175.6900  138.0770 C   0  0  0  0  0  0  0  0  0  0  0  0
  190.2220  175.7590  135.7570 C   0  0  0  0  0  2  0  0  0  0  0  0
  192.8200  176.3010  135.6060 C   0  0  2  0  0  3  0  0  0  0  0  0
  189.0260  178.5140  142.9460 C   0  0  0  0  0  2  0  0  0  0  0  0
  189.0070  177.8540  141.6270 C   0  0  0  0  0  0  0  0  0  0  0  0
  189.2380  176.8150  137.6370 N   0  0  0  0  0  0  0  0  0  0  0  0
  188.0710  177.8860  139.3740 C   0  0  0  0  0  0  0  0  0  0  0  0
  186.9100  178.1060  138.5060 C   0  0  0  0  0  3  0  0  0  0  0  0
  186.8520  178.9970  137.5820 N   0  0  0  0  0  2  0  0  0  0  0  0
  194.2290  176.1370  134.8380 C   0  0  0  0  0  2  0  0  0  0  0  0
  195.4130  176.9260  135.3690 C   0  0  0  0  0  0  0  0  0  0  0  0
  195.4290  178.2750  135.3710 O   0  0  0  0  0  0  0  0  0  0  0  0
  196.4440  176.2960  135.7170 O   0  0  0  0  0  1  0  0  0  0  0  0
  187.0800  179.3480  141.2820 C   0  0  0  0  0  2  0  0  0  0  0  0
  184.5370  179.4010  142.8170 C   0  0  0  0  0  0  0  0  0  0  0  0
  184.4860  178.4270  141.8380 C   0  0  0  0  0  0  0  0  0  0  0  0
  184.5420  178.2500  143.8950 C   0  0  0  0  0  2  0  0  0  0  0  0
  185.0960  179.5760  144.2810 C   0  0  0  0  0  2  0  0  0  0  0  0
  183.8210  177.5210  141.2480 O   0  0  0  0  0  0  0  0  0  0  0  0
  185.7430  179.2370  142.0040 N   0  0  0  0  0  0  0  0  0  0  0  0
  1  7  1  1  0  0  0
  2 19  2  0  0  0  0
  2  9  1  0  0  0  0
  3  4  1  0  0  0  0
  5 18  2  0  0  0  0
  5 13  1  0  0  0  0
  6  9  1  0  0  0  0
  7 13  1  0  0  0  0
  8  3  1  0  0  0  0
  9 10  2  0  0  0  0
 10 17  1  0  0  0  0
 10  8  1  0  0  0  0
 11 26  1  0  0  0  0
 11 17  2  0  0  0  0
 12 15  1  0  0  0  0
 12 14  1  1  0  0  0
 12  1  1  0  0  0  0
 13  6  2  0  0  0  0
 14  5  1  0  0  0  0
 15 22  1  6  0  0  0
 15  1  1  0  0  0  0
 16  4  1  0  0  0  0
 17 16  1  0  0  0  0
 18  2  1  0  0  0  0
 19 11  1  0  0  0  0
 20 19  1  0  0  0  0
 21 20  2  0  0  0  0
 22 23  1  0  0  0  0
 23 24  2  0  0  0  0
 23 25  1  0  0  0  0
 26 32  1  0  0  0  0
 27 29  1  0  0  0  0
 27 30  1  0  0  0  0
 28 32  1  0  0  0  0
 28 27  1  0  0  0  0
 29 30  1  0  0  0  0
 31 28  2  0  0  0  0
 32 27  1  0  0  0  0
M  END
>  <MODEL>
9

>  <REMARK>
 VINA RESULT:      -7.1      3.931      6.260
  Name = 
  5 active torsions:
  status: ('A' for Active; 'I' for Inactive)
    1  A    between atoms: C_1  and  C_10
    2  A    between atoms: C_6  and  C_31
    3  A    between atoms: C_10  and  C_24
    4  A    between atoms: C_16  and  C_27
    5  A    between atoms: C_27  and  N_32
                            x       y       z     vdW  Elec       q    Type
                         _______ _______ _______ _____ _____    ______ ____

>  <TORSDO>
F 5

$$$$
