=
 OpenBabel11052412393D

 30 31  0  0  1  0  0  0  0  0999 V2000
  189.6930  177.6560  141.7440 C   0  0  1  0  0  3  0  0  0  0  0  0
  190.4040  178.1280  144.2440 C   0  0  1  0  0  3  0  0  0  0  0  0
  188.7960  176.1950  143.7540 C   0  0  0  0  0  1  0  0  0  0  0  0
  191.2800  177.0230  143.6720 C   0  0  2  0  0  3  0  0  0  0  0  0
  190.8700  179.4590  143.6750 C   0  0  0  0  0  1  0  0  0  0  0  0
  189.8340  177.1680  143.1980 C   0  0  1  0  0  0  0  0  0  0  0  0
  191.4890  175.9360  144.7210 C   0  0  0  0  0  2  0  0  0  0  0  0
  191.8010  176.5590  146.0720 C   0  0  0  0  0  2  0  0  0  0  0  0
  190.9500  176.0430  147.0490 O   0  0  0  0  0  0  0  0  0  0  0  0
  190.4410  177.1670  147.7040 C   0  0  0  0  0  2  0  0  0  0  0  0
  188.9330  177.2260  147.5400 C   0  0  0  0  0  2  0  0  0  0  0  0
  188.3090  178.0020  148.6840 C   0  0  0  0  0  1  0  0  0  0  0  0
  190.5920  176.8600  140.7880 C   0  0  1  0  0  3  0  0  0  0  0  0
  189.9600  176.6690  139.4130 C   0  0  0  0  0  1  0  0  0  0  0  0
  191.9580  177.5170  140.6670 C   0  0  0  0  0  2  0  0  0  0  0  0
  192.6950  176.9890  139.4500 C   0  0  0  0  0  2  0  0  0  0  0  0
  194.0660  176.9940  139.6980 O   0  0  0  0  0  1  0  0  0  0  0  0
  188.2360  177.7000  141.2740 C   0  0  0  0  0  2  0  0  0  0  0  0
  187.6870  179.1160  141.3490 C   0  0  0  0  0  2  0  0  0  0  0  0
  186.2330  179.0890  141.4400 N   0  0  0  0  0  0  0  0  0  0  0  0
  185.8240  178.1770  142.5190 C   0  0  0  0  0  2  0  0  0  0  0  0
  184.6090  179.8090  143.7790 O   0  0  0  0  0  0  0  0  0  0  0  0
  185.4500  178.8720  143.8010 C   0  0  0  0  0  0  0  0  0  0  0  0
  186.0320  178.4490  145.0350 N   0  0  0  0  0  2  0  0  0  0  0  0
  185.6750  179.0630  146.3030 C   0  0  0  0  0  2  0  0  0  0  0  0
  184.9270  178.0610  147.1570 C   0  0  0  0  0  1  0  0  0  0  0  0
  185.6940  178.6350  140.1620 C   0  0  0  0  0  2  0  0  0  0  0  0
  183.8320  178.9360  138.5980 C   0  0  0  0  0  2  0  0  0  0  0  0
  184.2710  179.1320  139.9940 C   0  0  2  0  0  3  0  0  0  0  0  0
  184.2630  180.1900  139.0680 O   0  0  0  0  0  0  0  0  0  0  0  0
  1 18  1  6  0  0  0
  1  6  1  0  0  0  0
  2  5  1  6  0  0  0
  4  2  1  0  0  0  0
  4  7  1  1  0  0  0
  6  4  1  0  0  0  0
  6  3  1  1  0  0  0
  6  2  1  0  0  0  0
  7  8  1  0  0  0  0
  8  9  1  0  0  0  0
  9 10  1  0  0  0  0
 11 10  1  0  0  0  0
 11 12  1  0  0  0  0
 13 14  1  6  0  0  0
 13  1  1  0  0  0  0
 15 13  1  0  0  0  0
 16 17  1  0  0  0  0
 16 15  1  0  0  0  0
 18 19  1  0  0  0  0
 19 20  1  0  0  0  0
 20 21  1  0  0  0  0
 21 23  1  0  0  0  0
 22 23  2  0  0  0  0
 23 24  1  0  0  0  0
 24 25  1  0  0  0  0
 25 26  1  0  0  0  0
 27 20  1  0  0  0  0
 28 30  1  0  0  0  0
 28 29  1  0  0  0  0
 29 27  1  6  0  0  0
 30 29  1  0  0  0  0
M  END
>  <MODEL>
1

>  <REMARK>
 VINA RESULT:      -6.1      0.000      0.000
  Name = 
  17 active torsions:
  status: ('A' for Active; 'I' for Inactive)
    1  A    between atoms: C_1  and  N_4
    2  A    between atoms: C_1  and  C_22
    3  A    between atoms: C_2  and  C_14
    4  A    between atoms: C_2  and  C_29
    5  A    between atoms: N_4  and  C_5
    6  A    between atoms: N_4  and  C_9
    7  A    between atoms: C_5  and  C_17
    8  A    between atoms: C_9  and  C_12
    9  A    between atoms: C_10  and  O_15
   10  A    between atoms: C_10  and  C_16
   11  A    between atoms: C_11  and  C_24
   12  A    between atoms: C_13  and  N_27
   13  A    between atoms: C_14  and  C_20
   14  A    between atoms: O_15  and  C_25
   15  A    between atoms: C_22  and  C_29
   16  A    between atoms: C_23  and  C_29
   17  A    between atoms: C_24  and  C_25
                            x       y       z     vdW  Elec       q    Type
                         _______ _______ _______ _____ _____    ______ ____

>  <TORSDO>
F 17

$$$$
=
 OpenBabel11052412393D

 30 31  0  0  1  0  0  0  0  0999 V2000
  188.7340  177.6790  143.0350 C   0  0  1  0  0  3  0  0  0  0  0  0
  191.2640  178.1070  143.6630 C   0  0  1  0  0  3  0  0  0  0  0  0
  190.5190  175.7320  143.0560 C   0  0  0  0  0  1  0  0  0  0  0  0
  191.1140  178.1180  142.1490 C   0  0  2  0  0  3  0  0  0  0  0  0
  190.7230  179.4180  144.2130 C   0  0  0  0  0  1  0  0  0  0  0  0
  190.2060  177.2260  142.9970 C   0  0  1  0  0  0  0  0  0  0  0  0
  192.2890  177.3860  141.5090 C   0  0  0  0  0  2  0  0  0  0  0  0
  192.1030  177.3050  140.0030 C   0  0  0  0  0  2  0  0  0  0  0  0
  193.3180  177.0110  139.3820 O   0  0  0  0  0  0  0  0  0  0  0  0
  192.9620  176.5150  138.1260 C   0  0  0  0  0  2  0  0  0  0  0  0
  191.5360  175.9940  138.1570 C   0  0  0  0  0  2  0  0  0  0  0  0
  191.1840  175.3430  136.8330 C   0  0  0  0  0  1  0  0  0  0  0  0
  188.3240  178.3880  141.7370 C   0  0  1  0  0  3  0  0  0  0  0  0
  188.3750  177.4640  140.5250 C   0  0  0  0  0  1  0  0  0  0  0  0
  186.9460  179.0140  141.8810 C   0  0  0  0  0  2  0  0  0  0  0  0
  186.0340  178.5550  140.7580 C   0  0  0  0  0  2  0  0  0  0  0  0
  185.1570  179.5840  140.4210 O   0  0  0  0  0  1  0  0  0  0  0  0
  187.7760  176.5450  143.4080 C   0  0  0  0  0  2  0  0  0  0  0  0
  186.6110  177.0700  144.2310 C   0  0  0  0  0  2  0  0  0  0  0  0
  187.0920  177.9750  145.2680 N   0  0  0  0  0  0  0  0  0  0  0  0
  187.3390  177.2180  146.5050 C   0  0  0  0  0  2  0  0  0  0  0  0
  188.8220  178.2780  148.0560 O   0  0  0  0  0  0  0  0  0  0  0  0
  188.6970  177.4560  147.1090 C   0  0  0  0  0  0  0  0  0  0  0  0
  189.8280  176.7320  146.6220 N   0  0  0  0  0  2  0  0  0  0  0  0
  191.1530  176.8990  147.1990 C   0  0  0  0  0  2  0  0  0  0  0  0
  192.0800  175.8370  146.6490 C   0  0  0  0  0  1  0  0  0  0  0  0
  186.0820  179.0030  145.4960 C   0  0  0  0  0  2  0  0  0  0  0  0
  184.0560  179.7600  144.3450 C   0  0  0  0  0  2  0  0  0  0  0  0
  184.7630  178.5790  144.8780 C   0  0  2  0  0  3  0  0  0  0  0  0
  183.7110  179.1900  145.5840 O   0  0  0  0  0  0  0  0  0  0  0  0
  1 18  1  6  0  0  0
  2  5  1  1  0  0  0
  4  7  1  6  0  0  0
  4  6  1  0  0  0  0
  4  2  1  0  0  0  0
  6  1  1  0  0  0  0
  6  3  1  6  0  0  0
  6  2  1  0  0  0  0
  8  7  1  0  0  0  0
  9  8  1  0  0  0  0
 10 11  1  0  0  0  0
 10  9  1  0  0  0  0
 12 11  1  0  0  0  0
 13 14  1  6  0  0  0
 13 15  1  0  0  0  0
 13  1  1  0  0  0  0
 16 15  1  0  0  0  0
 17 16  1  0  0  0  0
 18 19  1  0  0  0  0
 19 20  1  0  0  0  0
 20 27  1  0  0  0  0
 20 21  1  0  0  0  0
 21 23  1  0  0  0  0
 23 22  2  0  0  0  0
 24 23  1  0  0  0  0
 24 25  1  0  0  0  0
 26 25  1  0  0  0  0
 28 29  1  0  0  0  0
 28 30  1  0  0  0  0
 29 27  1  1  0  0  0
 29 30  1  0  0  0  0
M  END
>  <MODEL>
2

>  <REMARK>
 VINA RESULT:      -5.8      1.690      5.815
  Name = 
  17 active torsions:
  status: ('A' for Active; 'I' for Inactive)
    1  A    between atoms: C_1  and  N_4
    2  A    between atoms: C_1  and  C_22
    3  A    between atoms: C_2  and  C_14
    4  A    between atoms: C_2  and  C_29
    5  A    between atoms: N_4  and  C_5
    6  A    between atoms: N_4  and  C_9
    7  A    between atoms: C_5  and  C_17
    8  A    between atoms: C_9  and  C_12
    9  A    between atoms: C_10  and  O_15
   10  A    between atoms: C_10  and  C_16
   11  A    between atoms: C_11  and  C_24
   12  A    between atoms: C_13  and  N_27
   13  A    between atoms: C_14  and  C_20
   14  A    between atoms: O_15  and  C_25
   15  A    between atoms: C_22  and  C_29
   16  A    between atoms: C_23  and  C_29
   17  A    between atoms: C_24  and  C_25
                            x       y       z     vdW  Elec       q    Type
                         _______ _______ _______ _____ _____    ______ ____

>  <TORSDO>
F 17

$$$$
=
 OpenBabel11052412393D

 30 31  0  0  1  0  0  0  0  0999 V2000
  188.8450  177.7780  143.1570 C   0  0  1  0  0  3  0  0  0  0  0  0
  191.4770  177.9400  143.3330 C   0  0  1  0  0  3  0  0  0  0  0  0
  190.3970  175.6540  142.9150 C   0  0  0  0  0  1  0  0  0  0  0  0
  191.0680  177.9600  141.8670 C   0  0  2  0  0  3  0  0  0  0  0  0
  191.1760  179.3020  143.9390 C   0  0  0  0  0  1  0  0  0  0  0  0
  190.2340  177.1720  142.8770 C   0  0  1  0  0  0  0  0  0  0  0  0
  192.0340  177.1070  141.0520 C   0  0  0  0  0  2  0  0  0  0  0  0
  191.5880  177.0470  139.5990 C   0  0  0  0  0  2  0  0  0  0  0  0
  190.7050  175.9820  139.4100 O   0  0  0  0  0  0  0  0  0  0  0  0
  190.7040  175.7660  138.0300 C   0  0  0  0  0  2  0  0  0  0  0  0
  191.8810  174.8900  137.6400 C   0  0  0  0  0  2  0  0  0  0  0  0
  192.5510  175.4330  136.3930 C   0  0  0  0  0  1  0  0  0  0  0  0
  187.9490  177.7440  141.9120 C   0  0  1  0  0  3  0  0  0  0  0  0
  186.4780  177.9730  142.2420 C   0  0  0  0  0  1  0  0  0  0  0  0
  188.4320  178.7480  140.8770 C   0  0  0  0  0  2  0  0  0  0  0  0
  188.0780  178.2800  139.4770 C   0  0  0  0  0  2  0  0  0  0  0  0
  188.8000  179.0200  138.5430 O   0  0  0  0  0  1  0  0  0  0  0  0
  188.1670  177.1590  144.3820 C   0  0  0  0  0  2  0  0  0  0  0  0
  188.4570  177.9760  145.6310 C   0  0  0  0  0  2  0  0  0  0  0  0
  188.0540  177.2380  146.8220 N   0  0  0  0  0  0  0  0  0  0  0  0
  187.4540  178.1640  147.7940 C   0  0  0  0  0  2  0  0  0  0  0  0
  185.9880  180.0490  147.6470 O   0  0  0  0  0  0  0  0  0  0  0  0
  186.2170  178.8620  147.2960 C   0  0  0  0  0  0  0  0  0  0  0  0
  185.3260  178.1830  146.4100 N   0  0  0  0  0  2  0  0  0  0  0  0
  184.1400  178.8270  145.8710 C   0  0  0  0  0  2  0  0  0  0  0  0
  184.0090  178.4980  144.4000 C   0  0  0  0  0  1  0  0  0  0  0  0
  189.2320  176.5950  147.3940 C   0  0  0  0  0  2  0  0  0  0  0  0
  191.5770  176.3230  146.7370 C   0  0  0  0  0  2  0  0  0  0  0  0
  190.4880  177.3030  146.9220 C   0  0  2  0  0  3  0  0  0  0  0  0
  191.4980  177.1310  147.8850 O   0  0  0  0  0  0  0  0  0  0  0  0
  1 18  1  1  0  0  0
  2  5  1  1  0  0  0
  4  7  1  6  0  0  0
  4  6  1  0  0  0  0
  4  2  1  0  0  0  0
  6  3  1  6  0  0  0
  6  1  1  0  0  0  0
  6  2  1  0  0  0  0
  8  7  1  0  0  0  0
  9  8  1  0  0  0  0
 10  9  1  0  0  0  0
 11 10  1  0  0  0  0
 12 11  1  0  0  0  0
 13 14  1  1  0  0  0
 13  1  1  0  0  0  0
 15 13  1  0  0  0  0
 16 15  1  0  0  0  0
 17 16  1  0  0  0  0
 18 19  1  0  0  0  0
 19 20  1  0  0  0  0
 20 27  1  0  0  0  0
 20 21  1  0  0  0  0
 23 22  2  0  0  0  0
 23 21  1  0  0  0  0
 24 23  1  0  0  0  0
 25 24  1  0  0  0  0
 26 25  1  0  0  0  0
 28 29  1  0  0  0  0
 28 30  1  0  0  0  0
 29 27  1  1  0  0  0
 29 30  1  0  0  0  0
M  END
>  <MODEL>
3

>  <REMARK>
 VINA RESULT:      -5.7      2.218      6.283
  Name = 
  17 active torsions:
  status: ('A' for Active; 'I' for Inactive)
    1  A    between atoms: C_1  and  N_4
    2  A    between atoms: C_1  and  C_22
    3  A    between atoms: C_2  and  C_14
    4  A    between atoms: C_2  and  C_29
    5  A    between atoms: N_4  and  C_5
    6  A    between atoms: N_4  and  C_9
    7  A    between atoms: C_5  and  C_17
    8  A    between atoms: C_9  and  C_12
    9  A    between atoms: C_10  and  O_15
   10  A    between atoms: C_10  and  C_16
   11  A    between atoms: C_11  and  C_24
   12  A    between atoms: C_13  and  N_27
   13  A    between atoms: C_14  and  C_20
   14  A    between atoms: O_15  and  C_25
   15  A    between atoms: C_22  and  C_29
   16  A    between atoms: C_23  and  C_29
   17  A    between atoms: C_24  and  C_25
                            x       y       z     vdW  Elec       q    Type
                         _______ _______ _______ _____ _____    ______ ____

>  <TORSDO>
F 17

$$$$
=
 OpenBabel11052412393D

 30 31  0  0  1  0  0  0  0  0999 V2000
  190.0890  176.9290  142.5240 C   0  0  1  0  0  3  0  0  0  0  0  0
  191.4550  176.8370  144.7840 C   0  0  1  0  0  3  0  0  0  0  0  0
  190.6680  179.1090  143.8990 C   0  0  0  0  0  1  0  0  0  0  0  0
  189.9660  176.8870  145.0980 C   0  0  2  0  0  3  0  0  0  0  0  0
  191.8040  175.4340  144.3110 C   0  0  0  0  0  1  0  0  0  0  0  0
  190.5050  177.5920  143.8520 C   0  0  1  0  0  0  0  0  0  0  0  0
  189.7200  177.8140  146.2830 C   0  0  0  0  0  2  0  0  0  0  0  0
  188.7790  177.1570  147.2800 C   0  0  0  0  0  2  0  0  0  0  0  0
  187.7410  178.0300  147.6090 O   0  0  0  0  0  0  0  0  0  0  0  0
  186.7290  177.7390  146.6900 C   0  0  0  0  0  2  0  0  0  0  0  0
  185.8000  178.9300  146.5440 C   0  0  0  0  0  2  0  0  0  0  0  0
  185.1950  178.9580  145.1540 C   0  0  0  0  0  1  0  0  0  0  0  0
  188.5780  177.0410  142.2820 C   0  0  1  0  0  3  0  0  0  0  0  0
  187.7570  176.4720  143.4340 C   0  0  0  0  0  1  0  0  0  0  0  0
  188.1870  178.4830  142.0000 C   0  0  0  0  0  2  0  0  0  0  0  0
  186.8960  178.5370  141.2030 C   0  0  0  0  0  2  0  0  0  0  0  0
  186.0840  179.5520  141.7020 O   0  0  0  0  0  1  0  0  0  0  0  0
  190.9100  177.4290  141.3330 C   0  0  0  0  0  2  0  0  0  0  0  0
  190.5710  176.6440  140.0750 C   0  0  0  0  0  2  0  0  0  0  0  0
  191.1830  177.2700  138.9090 N   0  0  0  0  0  0  0  0  0  0  0  0
  190.3410  177.0360  137.7270 C   0  0  0  0  0  2  0  0  0  0  0  0
  189.1640  179.0680  138.1860 O   0  0  0  0  0  0  0  0  0  0  0  0
  189.1330  177.9310  137.6460 C   0  0  0  0  0  0  0  0  0  0  0  0
  187.9720  177.4950  136.9380 N   0  0  0  0  0  2  0  0  0  0  0  0
  186.7950  178.3380  136.8000 C   0  0  0  0  0  2  0  0  0  0  0  0
  185.7310  177.8850  137.7750 C   0  0  0  0  0  1  0  0  0  0  0  0
  192.5080  176.6910  138.7110 C   0  0  0  0  0  2  0  0  0  0  0  0
  193.7550  175.3100  137.1170 C   0  0  0  0  0  2  0  0  0  0  0  0
  192.7050  176.3390  137.2480 C   0  0  2  0  0  3  0  0  0  0  0  0
  194.0190  176.6690  136.8730 O   0  0  0  0  0  0  0  0  0  0  0  0
  1 18  1  6  0  0  0
  1  6  1  0  0  0  0
  2  5  1  6  0  0  0
  2  4  1  0  0  0  0
  4  7  1  1  0  0  0
  6  3  1  1  0  0  0
  6  2  1  0  0  0  0
  6  4  1  0  0  0  0
  7  8  1  0  0  0  0
  8  9  1  0  0  0  0
 10  9  1  0  0  0  0
 11 10  1  0  0  0  0
 12 11  1  0  0  0  0
 13  1  1  0  0  0  0
 13 14  1  1  0  0  0
 15 13  1  0  0  0  0
 16 17  1  0  0  0  0
 16 15  1  0  0  0  0
 19 18  1  0  0  0  0
 20 19  1  0  0  0  0
 21 20  1  0  0  0  0
 23 21  1  0  0  0  0
 23 22  2  0  0  0  0
 24 23  1  0  0  0  0
 25 24  1  0  0  0  0
 25 26  1  0  0  0  0
 27 20  1  0  0  0  0
 28 29  1  0  0  0  0
 29 27  1  1  0  0  0
 30 28  1  0  0  0  0
 30 29  1  0  0  0  0
M  END
>  <MODEL>
4

>  <REMARK>
 VINA RESULT:      -5.7      2.418      6.072
  Name = 
  17 active torsions:
  status: ('A' for Active; 'I' for Inactive)
    1  A    between atoms: C_1  and  N_4
    2  A    between atoms: C_1  and  C_22
    3  A    between atoms: C_2  and  C_14
    4  A    between atoms: C_2  and  C_29
    5  A    between atoms: N_4  and  C_5
    6  A    between atoms: N_4  and  C_9
    7  A    between atoms: C_5  and  C_17
    8  A    between atoms: C_9  and  C_12
    9  A    between atoms: C_10  and  O_15
   10  A    between atoms: C_10  and  C_16
   11  A    between atoms: C_11  and  C_24
   12  A    between atoms: C_13  and  N_27
   13  A    between atoms: C_14  and  C_20
   14  A    between atoms: O_15  and  C_25
   15  A    between atoms: C_22  and  C_29
   16  A    between atoms: C_23  and  C_29
   17  A    between atoms: C_24  and  C_25
                            x       y       z     vdW  Elec       q    Type
                         _______ _______ _______ _____ _____    ______ ____

>  <TORSDO>
F 17

$$$$
=
 OpenBabel11052412393D

 30 31  0  0  1  0  0  0  0  0999 V2000
  189.9630  177.6600  142.5350 C   0  0  1  0  0  3  0  0  0  0  0  0
  187.3220  177.6990  142.4770 C   0  0  1  0  0  3  0  0  0  0  0  0
  188.5150  175.6030  143.3420 C   0  0  0  0  0  1  0  0  0  0  0  0
  187.8000  178.0670  143.8750 C   0  0  2  0  0  3  0  0  0  0  0  0
  187.5360  178.8950  141.5620 C   0  0  0  0  0  1  0  0  0  0  0  0
  188.6160  177.0930  143.0240 C   0  0  1  0  0  0  0  0  0  0  0  0
  186.9120  177.3950  144.9160 C   0  0  0  0  0  2  0  0  0  0  0  0
  186.3420  178.4310  145.8720 C   0  0  0  0  0  2  0  0  0  0  0  0
  184.9480  178.3800  145.8630 O   0  0  0  0  0  0  0  0  0  0  0  0
  184.5670  179.3030  144.8850 C   0  0  0  0  0  2  0  0  0  0  0  0
  183.4100  178.7520  144.0720 C   0  0  0  0  0  2  0  0  0  0  0  0
  183.7790  178.6960  142.6020 C   0  0  0  0  0  1  0  0  0  0  0  0
  190.8730  178.0510  143.7070 C   0  0  1  0  0  3  0  0  0  0  0  0
  190.9070  179.5570  143.9440 C   0  0  0  0  0  1  0  0  0  0  0  0
  190.4630  177.3150  144.9730 C   0  0  0  0  0  2  0  0  0  0  0  0
  191.6250  176.5050  145.5170 C   0  0  0  0  0  2  0  0  0  0  0  0
  191.9030  176.9080  146.8210 O   0  0  0  0  0  1  0  0  0  0  0  0
  190.6640  176.7370  141.5350 C   0  0  0  0  0  2  0  0  0  0  0  0
  189.9350  176.7350  140.2000 C   0  0  0  0  0  2  0  0  0  0  0  0
  190.6900  177.4940  139.2110 N   0  0  0  0  0  0  0  0  0  0  0  0
  190.0550  177.3530  137.8920 C   0  0  0  0  0  2  0  0  0  0  0  0
  188.9820  179.4620  137.5330 O   0  0  0  0  0  0  0  0  0  0  0  0
  188.8410  178.2220  137.7000 C   0  0  0  0  0  0  0  0  0  0  0  0
  187.5400  177.6320  137.6840 N   0  0  0  0  0  2  0  0  0  0  0  0
  186.3400  178.4230  137.4630 C   0  0  0  0  0  2  0  0  0  0  0  0
  185.4010  178.2540  138.6370 C   0  0  0  0  0  1  0  0  0  0  0  0
  192.0560  176.9800  139.1730 C   0  0  0  0  0  2  0  0  0  0  0  0
  193.4830  175.4960  137.8460 C   0  0  0  0  0  2  0  0  0  0  0  0
  192.3790  176.4730  137.7800 C   0  0  2  0  0  3  0  0  0  0  0  0
  193.7010  176.8300  137.4600 O   0  0  0  0  0  0  0  0  0  0  0  0
  1 18  1  1  0  0  0
  1  6  1  0  0  0  0
  1 13  1  0  0  0  0
  2  5  1  6  0  0  0
  2  6  1  0  0  0  0
  2  4  1  0  0  0  0
  4  7  1  1  0  0  0
  6  3  1  1  0  0  0
  6  4  1  0  0  0  0
  7  8  1  0  0  0  0
  9  8  1  0  0  0  0
 10  9  1  0  0  0  0
 11 10  1  0  0  0  0
 12 11  1  0  0  0  0
 13 14  1  1  0  0  0
 13 15  1  0  0  0  0
 15 16  1  0  0  0  0
 16 17  1  0  0  0  0
 19 18  1  0  0  0  0
 20 19  1  0  0  0  0
 21 20  1  0  0  0  0
 22 23  2  0  0  0  0
 23 21  1  0  0  0  0
 24 23  1  0  0  0  0
 25 24  1  0  0  0  0
 25 26  1  0  0  0  0
 27 20  1  0  0  0  0
 29 28  1  0  0  0  0
 29 27  1  1  0  0  0
 30 29  1  0  0  0  0
 30 28  1  0  0  0  0
M  END
>  <MODEL>
5

>  <REMARK>
 VINA RESULT:      -5.5      2.386      6.275
  Name = 
  17 active torsions:
  status: ('A' for Active; 'I' for Inactive)
    1  A    between atoms: C_1  and  N_4
    2  A    between atoms: C_1  and  C_22
    3  A    between atoms: C_2  and  C_14
    4  A    between atoms: C_2  and  C_29
    5  A    between atoms: N_4  and  C_5
    6  A    between atoms: N_4  and  C_9
    7  A    between atoms: C_5  and  C_17
    8  A    between atoms: C_9  and  C_12
    9  A    between atoms: C_10  and  O_15
   10  A    between atoms: C_10  and  C_16
   11  A    between atoms: C_11  and  C_24
   12  A    between atoms: C_13  and  N_27
   13  A    between atoms: C_14  and  C_20
   14  A    between atoms: O_15  and  C_25
   15  A    between atoms: C_22  and  C_29
   16  A    between atoms: C_23  and  C_29
   17  A    between atoms: C_24  and  C_25
                            x       y       z     vdW  Elec       q    Type
                         _______ _______ _______ _____ _____    ______ ____

>  <TORSDO>
F 17

$$$$
=
 OpenBabel11052412393D

 30 31  0  0  1  0  0  0  0  0999 V2000
  189.9380  177.1020  142.4320 C   0  0  1  0  0  3  0  0  0  0  0  0
  191.4110  176.8590  144.6110 C   0  0  1  0  0  3  0  0  0  0  0  0
  190.6400  179.1920  143.8870 C   0  0  0  0  0  1  0  0  0  0  0  0
  189.9420  176.9260  145.0030 C   0  0  2  0  0  3  0  0  0  0  0  0
  191.7000  175.4760  144.0490 C   0  0  0  0  0  1  0  0  0  0  0  0
  190.4360  177.6840  143.7690 C   0  0  1  0  0  0  0  0  0  0  0  0
  189.7790  177.7940  146.2460 C   0  0  0  0  0  2  0  0  0  0  0  0
  188.9210  177.0810  147.2780 C   0  0  0  0  0  2  0  0  0  0  0  0
  187.5710  177.1880  146.9390 O   0  0  0  0  0  0  0  0  0  0  0  0
  187.1060  178.2760  147.6810 C   0  0  0  0  0  2  0  0  0  0  0  0
  185.9970  178.9850  146.9250 C   0  0  0  0  0  2  0  0  0  0  0  0
  185.7080  178.2690  145.6200 C   0  0  0  0  0  1  0  0  0  0  0  0
  188.4060  177.0540  142.3690 C   0  0  1  0  0  3  0  0  0  0  0  0
  187.8020  176.1730  143.4570 C   0  0  0  0  0  1  0  0  0  0  0  0
  187.8230  178.4580  142.4260 C   0  0  0  0  0  2  0  0  0  0  0  0
  186.7910  178.6500  141.3300 C   0  0  0  0  0  2  0  0  0  0  0  0
  185.8510  179.5940  141.7380 O   0  0  0  0  0  1  0  0  0  0  0  0
  190.5510  177.8060  141.2180 C   0  0  0  0  0  2  0  0  0  0  0  0
  191.2410  176.8050  140.3050 C   0  0  0  0  0  2  0  0  0  0  0  0
  190.4700  176.6220  139.0820 N   0  0  0  0  0  0  0  0  0  0  0  0
  191.3750  176.6330  137.9230 C   0  0  0  0  0  2  0  0  0  0  0  0
  191.9380  174.3100  137.7930 O   0  0  0  0  0  0  0  0  0  0  0  0
  192.3580  175.4930  137.9020 C   0  0  0  0  0  0  0  0  0  0  0  0
  193.7590  175.7610  137.9800 N   0  0  0  0  0  2  0  0  0  0  0  0
  194.7480  174.6970  137.9250 C   0  0  0  0  0  2  0  0  0  0  0  0
  195.5070  174.7800  136.6180 C   0  0  0  0  0  1  0  0  0  0  0  0
  189.4980  177.7060  138.9760 C   0  0  0  0  0  2  0  0  0  0  0  0
  189.0010  179.2760  137.1620 C   0  0  0  0  0  2  0  0  0  0  0  0
  189.0360  177.8490  137.5390 C   0  0  2  0  0  3  0  0  0  0  0  0
  187.8330  178.5760  137.5160 O   0  0  0  0  0  0  0  0  0  0  0  0
  1 18  1  6  0  0  0
  1  6  1  0  0  0  0
  2  5  1  6  0  0  0
  2  4  1  0  0  0  0
  4  7  1  1  0  0  0
  6  3  1  1  0  0  0
  6  2  1  0  0  0  0
  6  4  1  0  0  0  0
  7  8  1  0  0  0  0
  9  8  1  0  0  0  0
  9 10  1  0  0  0  0
 11 10  1  0  0  0  0
 12 11  1  0  0  0  0
 13 15  1  0  0  0  0
 13  1  1  0  0  0  0
 13 14  1  1  0  0  0
 16 17  1  0  0  0  0
 16 15  1  0  0  0  0
 19 18  1  0  0  0  0
 20 19  1  0  0  0  0
 21 20  1  0  0  0  0
 22 23  2  0  0  0  0
 23 21  1  0  0  0  0
 23 24  1  0  0  0  0
 25 24  1  0  0  0  0
 26 25  1  0  0  0  0
 27 20  1  0  0  0  0
 28 30  1  0  0  0  0
 28 29  1  0  0  0  0
 29 27  1  1  0  0  0
 30 29  1  0  0  0  0
M  END
>  <MODEL>
6

>  <REMARK>
 VINA RESULT:      -5.5      2.837      6.368
  Name = 
  17 active torsions:
  status: ('A' for Active; 'I' for Inactive)
    1  A    between atoms: C_1  and  N_4
    2  A    between atoms: C_1  and  C_22
    3  A    between atoms: C_2  and  C_14
    4  A    between atoms: C_2  and  C_29
    5  A    between atoms: N_4  and  C_5
    6  A    between atoms: N_4  and  C_9
    7  A    between atoms: C_5  and  C_17
    8  A    between atoms: C_9  and  C_12
    9  A    between atoms: C_10  and  O_15
   10  A    between atoms: C_10  and  C_16
   11  A    between atoms: C_11  and  C_24
   12  A    between atoms: C_13  and  N_27
   13  A    between atoms: C_14  and  C_20
   14  A    between atoms: O_15  and  C_25
   15  A    between atoms: C_22  and  C_29
   16  A    between atoms: C_23  and  C_29
   17  A    between atoms: C_24  and  C_25
                            x       y       z     vdW  Elec       q    Type
                         _______ _______ _______ _____ _____    ______ ____

>  <TORSDO>
F 17

$$$$
=
 OpenBabel11052412393D

 30 31  0  0  1  0  0  0  0  0999 V2000
  190.2210  177.6270  142.1770 C   0  0  1  0  0  3  0  0  0  0  0  0
  187.6250  177.5960  142.6660 C   0  0  1  0  0  3  0  0  0  0  0  0
  189.0210  175.5250  143.2370 C   0  0  0  0  0  1  0  0  0  0  0  0
  188.3720  177.9650  143.9390 C   0  0  2  0  0  3  0  0  0  0  0  0
  187.6150  178.8040  141.7420 C   0  0  0  0  0  1  0  0  0  0  0  0
  189.0180  177.0200  142.9250 C   0  0  1  0  0  0  0  0  0  0  0  0
  187.7350  177.2610  145.1320 C   0  0  0  0  0  2  0  0  0  0  0  0
  186.2270  177.4580  145.1180 C   0  0  0  0  0  2  0  0  0  0  0  0
  185.8630  178.4510  146.0290 O   0  0  0  0  0  0  0  0  0  0  0  0
  185.0490  179.3190  145.2970 C   0  0  0  0  0  2  0  0  0  0  0  0
  184.3580  178.5640  144.1760 C   0  0  0  0  0  2  0  0  0  0  0  0
  182.8790  178.8960  144.1520 C   0  0  0  0  0  1  0  0  0  0  0  0
  191.3820  177.9430  143.1290 C   0  0  1  0  0  3  0  0  0  0  0  0
  191.1820  179.2550  143.8800 C   0  0  0  0  0  1  0  0  0  0  0  0
  191.6060  176.7940  144.1000 C   0  0  0  0  0  2  0  0  0  0  0  0
  191.6430  177.3060  145.5290 C   0  0  0  0  0  2  0  0  0  0  0  0
  190.9080  176.4500  146.3470 O   0  0  0  0  0  1  0  0  0  0  0  0
  190.6610  176.7780  140.9810 C   0  0  0  0  0  2  0  0  0  0  0  0
  189.7820  177.0520  139.7710 C   0  0  0  0  0  2  0  0  0  0  0  0
  190.4430  176.5970  138.5540 N   0  0  0  0  0  0  0  0  0  0  0  0
  191.8960  176.7830  138.6840 C   0  0  0  0  0  2  0  0  0  0  0  0
  192.3280  174.6060  137.7900 O   0  0  0  0  0  0  0  0  0  0  0  0
  192.7130  175.8010  137.8880 C   0  0  0  0  0  0  0  0  0  0  0  0
  193.9050  176.2350  137.2320 N   0  0  0  0  0  2  0  0  0  0  0  0
  194.7080  175.3340  136.4210 C   0  0  0  0  0  2  0  0  0  0  0  0
  195.4110  176.1200  135.3360 C   0  0  0  0  0  1  0  0  0  0  0  0
  189.9320  177.3730  137.4280 C   0  0  0  0  0  2  0  0  0  0  0  0
  188.0420  178.7680  136.7300 C   0  0  0  0  0  2  0  0  0  0  0  0
  188.8120  178.2850  137.8930 C   0  0  2  0  0  3  0  0  0  0  0  0
  189.0150  179.5680  137.3550 O   0  0  0  0  0  0  0  0  0  0  0  0
  1 18  1  6  0  0  0
  1  6  1  0  0  0  0
  1 13  1  0  0  0  0
  2  5  1  6  0  0  0
  2  6  1  0  0  0  0
  2  4  1  0  0  0  0
  4  7  1  1  0  0  0
  6  3  1  1  0  0  0
  6  4  1  0  0  0  0
  8  7  1  0  0  0  0
  8  9  1  0  0  0  0
 10  9  1  0  0  0  0
 11 10  1  0  0  0  0
 12 11  1  0  0  0  0
 13 14  1  1  0  0  0
 13 15  1  0  0  0  0
 15 16  1  0  0  0  0
 16 17  1  0  0  0  0
 19 18  1  0  0  0  0
 20 21  1  0  0  0  0
 20 19  1  0  0  0  0
 22 23  2  0  0  0  0
 23 21  1  0  0  0  0
 24 23  1  0  0  0  0
 25 24  1  0  0  0  0
 26 25  1  0  0  0  0
 27 20  1  0  0  0  0
 28 30  1  0  0  0  0
 28 29  1  0  0  0  0
 29 27  1  6  0  0  0
 30 29  1  0  0  0  0
M  END
>  <MODEL>
7

>  <REMARK>
 VINA RESULT:      -5.4      2.974      6.784
  Name = 
  17 active torsions:
  status: ('A' for Active; 'I' for Inactive)
    1  A    between atoms: C_1  and  N_4
    2  A    between atoms: C_1  and  C_22
    3  A    between atoms: C_2  and  C_14
    4  A    between atoms: C_2  and  C_29
    5  A    between atoms: N_4  and  C_5
    6  A    between atoms: N_4  and  C_9
    7  A    between atoms: C_5  and  C_17
    8  A    between atoms: C_9  and  C_12
    9  A    between atoms: C_10  and  O_15
   10  A    between atoms: C_10  and  C_16
   11  A    between atoms: C_11  and  C_24
   12  A    between atoms: C_13  and  N_27
   13  A    between atoms: C_14  and  C_20
   14  A    between atoms: O_15  and  C_25
   15  A    between atoms: C_22  and  C_29
   16  A    between atoms: C_23  and  C_29
   17  A    between atoms: C_24  and  C_25
                            x       y       z     vdW  Elec       q    Type
                         _______ _______ _______ _____ _____    ______ ____

>  <TORSDO>
F 17

$$$$
=
 OpenBabel11052412393D

 30 31  0  0  1  0  0  0  0  0999 V2000
  188.7190  178.1730  142.4510 C   0  0  1  0  0  3  0  0  0  0  0  0
  186.1180  177.8810  142.8100 C   0  0  1  0  0  3  0  0  0  0  0  0
  187.7090  176.1060  143.7490 C   0  0  0  0  0  1  0  0  0  0  0  0
  186.7280  178.5170  144.0510 C   0  0  2  0  0  3  0  0  0  0  0  0
  186.0270  178.9360  141.7190 C   0  0  0  0  0  1  0  0  0  0  0  0
  187.5490  177.5300  143.2210 C   0  0  1  0  0  0  0  0  0  0  0  0
  186.1000  177.9120  145.3010 C   0  0  0  0  0  2  0  0  0  0  0  0
  185.6630  179.0110  146.2570 C   0  0  0  0  0  2  0  0  0  0  0  0
  186.2830  178.8460  147.4970 O   0  0  0  0  0  0  0  0  0  0  0  0
  187.0450  177.6830  147.3590 C   0  0  0  0  0  2  0  0  0  0  0  0
  187.9060  177.4760  148.5920 C   0  0  0  0  0  2  0  0  0  0  0  0
  189.1900  178.2750  148.4780 C   0  0  0  0  0  1  0  0  0  0  0  0
  189.8700  178.5620  143.3890 C   0  0  1  0  0  3  0  0  0  0  0  0
  189.5650  178.2490  144.8500 C   0  0  0  0  0  1  0  0  0  0  0  0
  191.1640  177.8940  142.9530 C   0  0  0  0  0  2  0  0  0  0  0  0
  191.6700  176.9590  144.0360 C   0  0  0  0  0  2  0  0  0  0  0  0
  191.5260  175.6390  143.6150 O   0  0  0  0  0  1  0  0  0  0  0  0
  189.1900  177.3200  141.2710 C   0  0  0  0  0  2  0  0  0  0  0  0
  189.0020  178.0630  139.9580 C   0  0  0  0  0  2  0  0  0  0  0  0
  189.6220  177.3230  138.8660 N   0  0  0  0  0  0  0  0  0  0  0  0
  191.0730  177.2370  139.0920 C   0  0  0  0  0  2  0  0  0  0  0  0
  191.1970  174.9750  138.3190 O   0  0  0  0  0  0  0  0  0  0  0  0
  191.7430  176.1100  138.3520 C   0  0  0  0  0  0  0  0  0  0  0  0
  192.9780  176.3400  137.6740 N   0  0  0  0  0  2  0  0  0  0  0  0
  193.6440  175.2940  136.9150 C   0  0  0  0  0  2  0  0  0  0  0  0
  194.4220  175.9140  135.7740 C   0  0  0  0  0  1  0  0  0  0  0  0
  189.3450  178.0200  137.6140 C   0  0  0  0  0  2  0  0  0  0  0  0
  187.6340  178.2310  135.8730 C   0  0  0  0  0  2  0  0  0  0  0  0
  187.8610  177.9620  137.3070 C   0  0  2  0  0  3  0  0  0  0  0  0
  187.4400  179.2240  136.8500 O   0  0  0  0  0  0  0  0  0  0  0  0
  1 18  1  6  0  0  0
  1  6  1  0  0  0  0
  1 13  1  0  0  0  0
  2  5  1  6  0  0  0
  2  6  1  0  0  0  0
  2  4  1  0  0  0  0
  4  7  1  1  0  0  0
  6  3  1  1  0  0  0
  6  4  1  0  0  0  0
  7  8  1  0  0  0  0
  8  9  1  0  0  0  0
 10  9  1  0  0  0  0
 10 11  1  0  0  0  0
 12 11  1  0  0  0  0
 13 14  1  1  0  0  0
 15 13  1  0  0  0  0
 15 16  1  0  0  0  0
 17 16  1  0  0  0  0
 19 18  1  0  0  0  0
 20 21  1  0  0  0  0
 20 19  1  0  0  0  0
 22 23  2  0  0  0  0
 23 21  1  0  0  0  0
 24 23  1  0  0  0  0
 25 24  1  0  0  0  0
 26 25  1  0  0  0  0
 27 20  1  0  0  0  0
 28 30  1  0  0  0  0
 28 29  1  0  0  0  0
 29 27  1  6  0  0  0
 30 29  1  0  0  0  0
M  END
>  <MODEL>
8

>  <REMARK>
 VINA RESULT:      -5.2      2.836      6.092
  Name = 
  17 active torsions:
  status: ('A' for Active; 'I' for Inactive)
    1  A    between atoms: C_1  and  N_4
    2  A    between atoms: C_1  and  C_22
    3  A    between atoms: C_2  and  C_14
    4  A    between atoms: C_2  and  C_29
    5  A    between atoms: N_4  and  C_5
    6  A    between atoms: N_4  and  C_9
    7  A    between atoms: C_5  and  C_17
    8  A    between atoms: C_9  and  C_12
    9  A    between atoms: C_10  and  O_15
   10  A    between atoms: C_10  and  C_16
   11  A    between atoms: C_11  and  C_24
   12  A    between atoms: C_13  and  N_27
   13  A    between atoms: C_14  and  C_20
   14  A    between atoms: O_15  and  C_25
   15  A    between atoms: C_22  and  C_29
   16  A    between atoms: C_23  and  C_29
   17  A    between atoms: C_24  and  C_25
                            x       y       z     vdW  Elec       q    Type
                         _______ _______ _______ _____ _____    ______ ____

>  <TORSDO>
F 17

$$$$
=
 OpenBabel11052412393D

 30 31  0  0  1  0  0  0  0  0999 V2000
  190.6450  176.5850  143.8940 C   0  0  1  0  0  3  0  0  0  0  0  0
  188.7560  178.4250  144.0610 C   0  0  1  0  0  3  0  0  0  0  0  0
  188.0980  176.0180  143.4830 C   0  0  0  0  0  1  0  0  0  0  0  0
  188.8390  177.6680  145.3790 C   0  0  2  0  0  3  0  0  0  0  0  0
  189.9320  179.3870  143.9810 C   0  0  0  0  0  1  0  0  0  0  0  0
  189.1580  176.9490  144.0670 C   0  0  1  0  0  0  0  0  0  0  0  0
  187.4340  177.4050  145.9100 C   0  0  0  0  0  2  0  0  0  0  0  0
  186.5040  178.5470  145.5320 C   0  0  0  0  0  2  0  0  0  0  0  0
  185.2030  178.2700  145.9540 O   0  0  0  0  0  0  0  0  0  0  0  0
  184.3880  179.0140  145.0980 C   0  0  0  0  0  2  0  0  0  0  0  0
  185.0860  179.2240  143.7670 C   0  0  0  0  0  2  0  0  0  0  0  0
  184.5670  178.2370  142.7380 C   0  0  0  0  0  1  0  0  0  0  0  0
  191.1630  175.7400  145.0650 C   0  0  1  0  0  3  0  0  0  0  0  0
  192.1800  174.6920  144.6250 C   0  0  0  0  0  1  0  0  0  0  0  0
  191.7430  176.6310  146.1520 C   0  0  0  0  0  2  0  0  0  0  0  0
  191.7440  175.9080  147.4870 C   0  0  0  0  0  2  0  0  0  0  0  0
  193.0550  175.6270  147.8630 O   0  0  0  0  0  1  0  0  0  0  0  0
  190.9410  175.9450  142.5350 C   0  0  0  0  0  2  0  0  0  0  0  0
  190.9860  176.9990  141.4400 C   0  0  0  0  0  2  0  0  0  0  0  0
  190.5270  176.4340  140.1770 N   0  0  0  0  0  0  0  0  0  0  0  0
  191.3410  176.9660  139.0740 C   0  0  0  0  0  2  0  0  0  0  0  0
  191.5420  174.8490  137.9770 O   0  0  0  0  0  0  0  0  0  0  0  0
  192.1140  175.9180  138.3210 C   0  0  0  0  0  0  0  0  0  0  0  0
  193.4810  176.1510  137.9790 N   0  0  0  0  0  2  0  0  0  0  0  0
  194.2590  175.1850  137.2200 C   0  0  0  0  0  2  0  0  0  0  0  0
  195.0490  174.3120  138.1700 C   0  0  0  0  0  1  0  0  0  0  0  0
  189.1240  176.7920  139.9890 C   0  0  0  0  0  2  0  0  0  0  0  0
  187.4520  178.5500  140.3280 C   0  0  0  0  0  2  0  0  0  0  0  0
  188.8740  178.1950  140.5060 C   0  0  2  0  0  3  0  0  0  0  0  0
  188.4430  179.0040  139.4400 O   0  0  0  0  0  0  0  0  0  0  0  0
  1 18  1  6  0  0  0
  1  6  1  0  0  0  0
  1 13  1  0  0  0  0
  2  5  1  1  0  0  0
  2  6  1  0  0  0  0
  2  4  1  0  0  0  0
  4  7  1  6  0  0  0
  6  3  1  6  0  0  0
  6  4  1  0  0  0  0
  8  7  1  0  0  0  0
  8  9  1  0  0  0  0
 10  9  1  0  0  0  0
 11 10  1  0  0  0  0
 12 11  1  0  0  0  0
 13 14  1  6  0  0  0
 13 15  1  0  0  0  0
 15 16  1  0  0  0  0
 16 17  1  0  0  0  0
 19 18  1  0  0  0  0
 20 19  1  0  0  0  0
 21 20  1  0  0  0  0
 22 23  2  0  0  0  0
 23 21  1  0  0  0  0
 24 23  1  0  0  0  0
 25 24  1  0  0  0  0
 25 26  1  0  0  0  0
 27 20  1  0  0  0  0
 28 29  1  0  0  0  0
 29 27  1  6  0  0  0
 30 28  1  0  0  0  0
 30 29  1  0  0  0  0
M  END
>  <MODEL>
9

>  <REMARK>
 VINA RESULT:      -5.1      2.635      6.595
  Name = 
  17 active torsions:
  status: ('A' for Active; 'I' for Inactive)
    1  A    between atoms: C_1  and  N_4
    2  A    between atoms: C_1  and  C_22
    3  A    between atoms: C_2  and  C_14
    4  A    between atoms: C_2  and  C_29
    5  A    between atoms: N_4  and  C_5
    6  A    between atoms: N_4  and  C_9
    7  A    between atoms: C_5  and  C_17
    8  A    between atoms: C_9  and  C_12
    9  A    between atoms: C_10  and  O_15
   10  A    between atoms: C_10  and  C_16
   11  A    between atoms: C_11  and  C_24
   12  A    between atoms: C_13  and  N_27
   13  A    between atoms: C_14  and  C_20
   14  A    between atoms: O_15  and  C_25
   15  A    between atoms: C_22  and  C_29
   16  A    between atoms: C_23  and  C_29
   17  A    between atoms: C_24  and  C_25
                            x       y       z     vdW  Elec       q    Type
                         _______ _______ _______ _____ _____    ______ ____

>  <TORSDO>
F 17

$$$$
