=
 OpenBabel11052415493D

 34 37  0  0  0  0  0  0  0  0999 V2000
  186.8720  177.7240  144.7450 C   0  0  0  0  0  0  0  0  0  0  0  0
  183.4910  179.1200  144.0810 C   0  0  0  0  0  3  0  0  0  0  0  0
  184.8540  179.1540  146.0330 N   0  0  0  0  0  0  0  0  0  0  0  0
  189.1120  176.7850  144.2190 C   0  0  0  0  0  0  0  0  0  0  0  0
  187.8300  176.9030  144.0540 N   0  0  0  0  0  0  0  0  0  0  0  0
  189.4970  177.9930  146.3620 C   0  0  0  0  0  3  0  0  0  0  0  0
  188.0710  177.6280  148.3130 C   0  0  0  0  0  1  0  0  0  0  0  0
  189.9080  177.5610  145.1770 C   0  0  0  0  0  3  0  0  0  0  0  0
  185.9850  178.8340  146.7100 C   0  0  0  0  0  3  0  0  0  0  0  0
  187.0210  178.1130  146.0950 C   0  0  0  0  0  0  0  0  0  0  0  0
  188.1830  177.7780  146.8690 N   0  0  0  0  0  0  0  0  0  0  0  0
  183.2930  178.7310  142.7540 C   0  0  0  0  0  0  0  0  0  0  0  0
  184.2840  178.0140  142.0800 C   0  0  0  0  0  3  0  0  0  0  0  0
  184.6760  178.7860  144.7410 C   0  0  0  0  0  0  0  0  0  0  0  0
  185.4710  177.6760  142.7350 C   0  0  0  0  0  3  0  0  0  0  0  0
  185.6810  178.0560  144.0700 C   0  0  0  0  0  0  0  0  0  0  0  0
  190.0050  175.7000  143.1130 S   0  0  0  0  0  0  0  0  0  0  0  0
  188.4090  178.4870  140.7040 C   0  0  0  0  0  3  0  0  0  0  0  0
  190.4060  176.5750  140.5210 C   0  0  0  0  0  3  0  0  0  0  0  0
  189.1240  178.3580  139.5090 C   0  0  0  0  0  0  0  0  0  0  0  0
  190.1310  177.3870  139.4110 C   0  0  0  0  0  0  0  0  0  0  0  0
  189.6710  176.7380  141.6960 C   0  0  0  0  0  0  0  0  0  0  0  0
  188.6950  177.6830  141.7630 N   0  0  0  0  0  0  0  0  0  0  0  0
  190.8390  177.2410  138.2120 O   0  0  0  0  0  0  0  0  0  0  0  0
  192.0370  176.4830  138.1140 C   0  0  0  0  0  1  0  0  0  0  0  0
  188.7780  179.2290  138.3490 C   0  0  0  0  0  2  0  0  0  0  0  0
  188.0500  178.4560  137.3560 N   0  0  0  0  0  2  0  0  0  0  0  0
  186.6340  178.3020  137.4080 C   0  0  0  0  0  0  0  0  0  0  0  0
  185.9450  177.4820  136.3780 C   0  0  0  0  0  1  0  0  0  0  0  0
  185.9600  178.8610  138.3130 O   0  0  0  0  0  0  0  0  0  0  0  0
  182.0330  179.1030  142.0490 C   0  0  0  0  0  2  0  0  0  0  0  0
  180.6820  177.6720  140.7950 C   0  0  0  0  0  1  0  0  0  0  0  0
  181.8270  179.4080  139.7500 C   0  0  0  0  0  1  0  0  0  0  0  0
  181.9410  178.3960  140.7840 N   0  0  0  0  0  0  0  0  0  0  0  0
  1 10  1  0  0  0  0
  2 14  1  0  0  0  0
  3  9  1  0  0  0  0
  4  8  1  0  0  0  0
  5  4  2  0  0  0  0
  5  1  1  0  0  0  0
  6 11  1  0  0  0  0
  8  6  2  0  0  0  0
 10  9  2  0  0  0  0
 10 11  1  0  0  0  0
 11  7  1  0  0  0  0
 12  2  2  0  0  0  0
 13 15  2  0  0  0  0
 13 12  1  0  0  0  0
 14  3  2  0  0  0  0
 15 16  1  0  0  0  0
 16 14  1  0  0  0  0
 16  1  2  0  0  0  0
 17  4  1  0  0  0  0
 18 23  1  0  0  0  0
 19 22  1  0  0  0  0
 20 18  2  0  0  0  0
 21 20  1  0  0  0  0
 21 19  2  0  0  0  0
 22 23  2  0  0  0  0
 22 17  1  0  0  0  0
 24 21  1  0  0  0  0
 25 24  1  0  0  0  0
 26 20  1  0  0  0  0
 27 28  1  0  0  0  0
 27 26  1  0  0  0  0
 28 30  2  0  0  0  0
 29 28  1  0  0  0  0
 31 12  1  0  0  0  0
 33 34  1  0  0  0  0
 34 32  1  0  0  0  0
 34 31  1  0  0  0  0
M  END
>  <MODEL>
1

>  <REMARK>
 VINA RESULT:      -9.0      0.000      0.000
  Name = 
  7 active torsions:
  status: ('A' for Active; 'I' for Inactive)
    1  A    between atoms: N_7  and  C_14
    2  A    between atoms: C_8  and  S_18
    3  A    between atoms: C_14  and  C_16
    4  A    between atoms: S_18  and  C_30
    5  A    between atoms: C_23  and  N_24
    6  A    between atoms: C_23  and  C_25
    7  A    between atoms: O_26  and  C_28
                            x       y       z     vdW  Elec       q    Type
                         _______ _______ _______ _____ _____    ______ ____

>  <TORSDO>
F 7

$$$$
=
 OpenBabel11052415493D

 34 37  0  0  0  0  0  0  0  0999 V2000
  188.0880  177.7410  142.5370 C   0  0  0  0  0  0  0  0  0  0  0  0
  190.6290  176.6610  140.0480 C   0  0  0  0  0  3  0  0  0  0  0  0
  190.5680  176.4720  142.4200 N   0  0  0  0  0  0  0  0  0  0  0  0
  185.8720  178.4870  143.3810 C   0  0  0  0  0  0  0  0  0  0  0  0
  186.8580  178.4860  142.5350 N   0  0  0  0  0  0  0  0  0  0  0  0
  186.8070  177.2130  145.3050 C   0  0  0  0  0  3  0  0  0  0  0  0
  189.0440  177.6670  146.1780 C   0  0  0  0  0  1  0  0  0  0  0  0
  185.7860  177.6280  144.5670 C   0  0  0  0  0  3  0  0  0  0  0  0
  189.9780  176.6790  143.6240 C   0  0  0  0  0  3  0  0  0  0  0  0
  188.7310  177.3170  143.7220 C   0  0  0  0  0  0  0  0  0  0  0  0
  188.1670  177.5340  145.0240 N   0  0  0  0  0  0  0  0  0  0  0  0
  190.0390  177.0890  138.8550 C   0  0  0  0  0  0  0  0  0  0  0  0
  188.7970  177.7270  138.8800 C   0  0  0  0  0  3  0  0  0  0  0  0
  189.9820  176.8770  141.2670 C   0  0  0  0  0  0  0  0  0  0  0  0
  188.1470  177.9480  140.0960 C   0  0  0  0  0  3  0  0  0  0  0  0
  188.7300  177.5270  141.3020 C   0  0  0  0  0  0  0  0  0  0  0  0
  184.4510  179.5080  143.0140 S   0  0  0  0  0  0  0  0  0  0  0  0
  184.8310  179.0670  139.0420 C   0  0  0  0  0  3  0  0  0  0  0  0
  183.5980  177.6940  141.1090 C   0  0  0  0  0  3  0  0  0  0  0  0
  184.1220  177.8960  138.7560 C   0  0  0  0  0  0  0  0  0  0  0  0
  183.4910  177.2020  139.8000 C   0  0  0  0  0  0  0  0  0  0  0  0
  184.3180  178.8650  141.3500 C   0  0  0  0  0  0  0  0  0  0  0  0
  184.9150  179.5230  140.3200 N   0  0  0  0  0  0  0  0  0  0  0  0
  182.7650  176.0390  139.5190 O   0  0  0  0  0  0  0  0  0  0  0  0
  181.3520  175.9670  139.6470 C   0  0  0  0  0  1  0  0  0  0  0  0
  184.0170  177.4260  137.3450 C   0  0  0  0  0  2  0  0  0  0  0  0
  185.3350  177.0630  136.8510 N   0  0  0  0  0  2  0  0  0  0  0  0
  185.8090  175.7190  136.8830 C   0  0  0  0  0  0  0  0  0  0  0  0
  187.1740  175.4080  136.3840 C   0  0  0  0  0  1  0  0  0  0  0  0
  185.0800  174.7900  137.3210 O   0  0  0  0  0  0  0  0  0  0  0  0
  190.7250  176.8420  137.5550 C   0  0  0  0  0  2  0  0  0  0  0  0
  191.1730  174.6590  136.8650 C   0  0  0  0  0  1  0  0  0  0  0  0
  192.9100  176.1920  137.0830 C   0  0  0  0  0  1  0  0  0  0  0  0
  191.6690  175.7470  137.6880 N   0  0  0  0  0  0  0  0  0  0  0  0
  1 10  1  0  0  0  0
  2 14  1  0  0  0  0
  3  9  1  0  0  0  0
  4  8  1  0  0  0  0
  5  1  1  0  0  0  0
  5  4  2  0  0  0  0
  8  6  2  0  0  0  0
  9 10  2  0  0  0  0
 10 11  1  0  0  0  0
 11  6  1  0  0  0  0
 11  7  1  0  0  0  0
 12 13  1  0  0  0  0
 12  2  2  0  0  0  0
 13 15  2  0  0  0  0
 14 16  1  0  0  0  0
 14  3  2  0  0  0  0
 15 16  1  0  0  0  0
 16  1  2  0  0  0  0
 17  4  1  0  0  0  0
 18 23  1  0  0  0  0
 19 22  1  0  0  0  0
 20 18  2  0  0  0  0
 20 21  1  0  0  0  0
 21 19  2  0  0  0  0
 22 17  1  0  0  0  0
 23 22  2  0  0  0  0
 24 25  1  0  0  0  0
 24 21  1  0  0  0  0
 26 20  1  0  0  0  0
 27 28  1  0  0  0  0
 27 26  1  0  0  0  0
 28 30  2  0  0  0  0
 29 28  1  0  0  0  0
 31 34  1  0  0  0  0
 31 12  1  0  0  0  0
 32 34  1  0  0  0  0
 33 34  1  0  0  0  0
M  END
>  <MODEL>
2

>  <REMARK>
 VINA RESULT:      -8.4      2.503      6.346
  Name = 
  7 active torsions:
  status: ('A' for Active; 'I' for Inactive)
    1  A    between atoms: N_7  and  C_14
    2  A    between atoms: C_8  and  S_18
    3  A    between atoms: C_14  and  C_16
    4  A    between atoms: S_18  and  C_30
    5  A    between atoms: C_23  and  N_24
    6  A    between atoms: C_23  and  C_25
    7  A    between atoms: O_26  and  C_28
                            x       y       z     vdW  Elec       q    Type
                         _______ _______ _______ _____ _____    ______ ____

>  <TORSDO>
F 7

$$$$
=
 OpenBabel11052415493D

 34 37  0  0  0  0  0  0  0  0999 V2000
  184.5070  178.2810  139.0740 C   0  0  0  0  0  0  0  0  0  0  0  0
  183.6100  178.6360  142.6640 C   0  0  0  0  0  3  0  0  0  0  0  0
  182.3340  177.9250  140.7840 N   0  0  0  0  0  0  0  0  0  0  0  0
  185.9850  178.0810  137.0850 C   0  0  0  0  0  0  0  0  0  0  0  0
  185.6360  178.5780  138.2330 N   0  0  0  0  0  0  0  0  0  0  0  0
  183.9670  176.7830  136.4200 C   0  0  0  0  0  3  0  0  0  0  0  0
  181.7190  177.7230  136.6060 C   0  0  0  0  0  1  0  0  0  0  0  0
  185.2740  177.0020  136.3890 C   0  0  0  0  0  3  0  0  0  0  0  0
  182.1940  177.6660  139.4600 C   0  0  0  0  0  3  0  0  0  0  0  0
  183.2650  177.8360  138.5680 C   0  0  0  0  0  0  0  0  0  0  0  0
  183.0510  177.5730  137.1730 N   0  0  0  0  0  0  0  0  0  0  0  0
  184.8130  179.1040  143.1990 C   0  0  0  0  0  0  0  0  0  0  0  0
  185.9200  179.2920  142.3690 C   0  0  0  0  0  3  0  0  0  0  0  0
  183.5090  178.3640  141.2970 C   0  0  0  0  0  0  0  0  0  0  0  0
  185.8250  179.0230  141.0020 C   0  0  0  0  0  3  0  0  0  0  0  0
  184.6210  178.5580  140.4500 C   0  0  0  0  0  0  0  0  0  0  0  0
  187.5130  178.6510  136.3520 S   0  0  0  0  0  0  0  0  0  0  0  0
  189.2790  178.3550  139.9450 C   0  0  0  0  0  3  0  0  0  0  0  0
  189.1970  176.8570  137.6160 C   0  0  0  0  0  3  0  0  0  0  0  0
  190.0010  177.1600  139.8760 C   0  0  0  0  0  0  0  0  0  0  0  0
  189.9670  176.4020  138.6960 C   0  0  0  0  0  0  0  0  0  0  0  0
  188.4880  178.0540  137.7280 C   0  0  0  0  0  0  0  0  0  0  0  0
  188.5440  178.7730  138.8810 N   0  0  0  0  0  0  0  0  0  0  0  0
  190.7010  175.2130  138.6130 O   0  0  0  0  0  0  0  0  0  0  0  0
  191.7440  175.0190  137.6690 C   0  0  0  0  0  1  0  0  0  0  0  0
  190.8240  176.7300  141.0430 C   0  0  0  0  0  2  0  0  0  0  0  0
  190.5070  177.5560  142.1970 N   0  0  0  0  0  2  0  0  0  0  0  0
  190.9380  177.2140  143.5120 C   0  0  0  0  0  0  0  0  0  0  0  0
  190.5660  178.0840  144.6580 C   0  0  0  0  0  1  0  0  0  0  0  0
  191.6380  176.1860  143.7120 O   0  0  0  0  0  0  0  0  0  0  0  0
  184.9210  179.3780  144.6600 C   0  0  0  0  0  2  0  0  0  0  0  0
  186.7430  178.1520  145.4490 C   0  0  0  0  0  1  0  0  0  0  0  0
  184.8050  178.3140  146.7280 C   0  0  0  0  0  1  0  0  0  0  0  0
  185.2940  178.1670  145.3700 N   0  0  0  0  0  0  0  0  0  0  0  0
  1 16  1  0  0  0  0
  2 12  1  0  0  0  0
  3 14  1  0  0  0  0
  4  5  2  0  0  0  0
  5  1  1  0  0  0  0
  6 11  1  0  0  0  0
  7 11  1  0  0  0  0
  8  6  2  0  0  0  0
  8  4  1  0  0  0  0
  9  3  2  0  0  0  0
 10  1  2  0  0  0  0
 10  9  1  0  0  0  0
 11 10  1  0  0  0  0
 12 31  1  0  0  0  0
 13 12  2  0  0  0  0
 14  2  2  0  0  0  0
 15 13  1  0  0  0  0
 16 15  2  0  0  0  0
 16 14  1  0  0  0  0
 17  4  1  0  0  0  0
 17 22  1  0  0  0  0
 19 22  2  0  0  0  0
 19 21  1  0  0  0  0
 20 18  1  0  0  0  0
 20 26  1  0  0  0  0
 21 20  2  0  0  0  0
 22 23  1  0  0  0  0
 23 18  2  0  0  0  0
 24 21  1  0  0  0  0
 25 24  1  0  0  0  0
 26 27  1  0  0  0  0
 27 28  1  0  0  0  0
 28 30  2  0  0  0  0
 28 29  1  0  0  0  0
 31 34  1  0  0  0  0
 34 32  1  0  0  0  0
 34 33  1  0  0  0  0
M  END
>  <MODEL>
3

>  <REMARK>
 VINA RESULT:      -8.1      2.393      6.476
  Name = 
  7 active torsions:
  status: ('A' for Active; 'I' for Inactive)
    1  A    between atoms: N_7  and  C_14
    2  A    between atoms: C_8  and  S_18
    3  A    between atoms: C_14  and  C_16
    4  A    between atoms: S_18  and  C_30
    5  A    between atoms: C_23  and  N_24
    6  A    between atoms: C_23  and  C_25
    7  A    between atoms: O_26  and  C_28
                            x       y       z     vdW  Elec       q    Type
                         _______ _______ _______ _____ _____    ______ ____

>  <TORSDO>
F 7

$$$$
=
 OpenBabel11052415493D

 34 37  0  0  0  0  0  0  0  0999 V2000
  185.4170  177.5390  137.4850 C   0  0  0  0  0  0  0  0  0  0  0  0
  181.7850  178.2000  137.9230 C   0  0  0  0  0  3  0  0  0  0  0  0
  182.9500  176.6550  136.5360 N   0  0  0  0  0  0  0  0  0  0  0  0
  187.8420  177.5830  138.0320 C   0  0  0  0  0  0  0  0  0  0  0  0
  186.6570  178.1070  137.9430 N   0  0  0  0  0  0  0  0  0  0  0  0
  187.5870  175.4510  136.7710 C   0  0  0  0  0  3  0  0  0  0  0  0
  186.4790  175.3730  134.5940 C   0  0  0  0  0  1  0  0  0  0  0  0
  188.1670  176.1890  137.7080 C   0  0  0  0  0  3  0  0  0  0  0  0
  184.0890  176.0990  136.0560 C   0  0  0  0  0  3  0  0  0  0  0  0
  185.3500  176.5210  136.5080 C   0  0  0  0  0  0  0  0  0  0  0  0
  186.5240  175.9160  135.9440 N   0  0  0  0  0  0  0  0  0  0  0  0
  181.8090  179.2290  138.8690 C   0  0  0  0  0  0  0  0  0  0  0  0
  183.0290  179.6940  139.3650 C   0  0  0  0  0  3  0  0  0  0  0  0
  182.9810  177.6410  137.4650 C   0  0  0  0  0  0  0  0  0  0  0  0
  184.2280  179.1400  138.9090 C   0  0  0  0  0  3  0  0  0  0  0  0
  184.2180  178.1100  137.9560 C   0  0  0  0  0  0  0  0  0  0  0  0
  189.1530  178.5830  138.7230 S   0  0  0  0  0  0  0  0  0  0  0  0
  187.4730  178.1710  142.3450 C   0  0  0  0  0  3  0  0  0  0  0  0
  189.6100  177.0540  140.9820 C   0  0  0  0  0  3  0  0  0  0  0  0
  188.2510  177.1960  142.9770 C   0  0  0  0  0  0  0  0  0  0  0  0
  189.3380  176.6330  142.2910 C   0  0  0  0  0  0  0  0  0  0  0  0
  188.8070  178.0290  140.3880 C   0  0  0  0  0  0  0  0  0  0  0  0
  187.7630  178.5630  141.0770 N   0  0  0  0  0  0  0  0  0  0  0  0
  190.1320  175.6680  142.9230 O   0  0  0  0  0  0  0  0  0  0  0  0
  191.3400  175.9890  143.5960 C   0  0  0  0  0  1  0  0  0  0  0  0
  187.9350  176.7980  144.3790 C   0  0  0  0  0  2  0  0  0  0  0  0
  186.7370  177.4890  144.8260 N   0  0  0  0  0  2  0  0  0  0  0  0
  186.5290  177.8310  146.1940 C   0  0  0  0  0  0  0  0  0  0  0  0
  185.2750  178.5180  146.5980 C   0  0  0  0  0  1  0  0  0  0  0  0
  187.4010  177.5650  147.0630 O   0  0  0  0  0  0  0  0  0  0  0  0
  180.5310  179.8120  139.3680 C   0  0  0  0  0  2  0  0  0  0  0  0
  179.6540  180.5770  141.3900 C   0  0  0  0  0  1  0  0  0  0  0  0
  179.3940  178.3470  140.7760 C   0  0  0  0  0  1  0  0  0  0  0  0
  180.3300  179.4560  140.7610 N   0  0  0  0  0  0  0  0  0  0  0  0
  1  5  1  0  0  0  0
  1 16  1  0  0  0  0
  2 12  1  0  0  0  0
  3 14  1  0  0  0  0
  4 17  1  0  0  0  0
  5  4  2  0  0  0  0
  6  8  2  0  0  0  0
  7 11  1  0  0  0  0
  8  4  1  0  0  0  0
  9 10  1  0  0  0  0
  9  3  2  0  0  0  0
 10  1  2  0  0  0  0
 11 10  1  0  0  0  0
 11  6  1  0  0  0  0
 12 13  2  0  0  0  0
 12 31  1  0  0  0  0
 14  2  2  0  0  0  0
 14 16  1  0  0  0  0
 15 13  1  0  0  0  0
 16 15  2  0  0  0  0
 17 22  1  0  0  0  0
 18 20  1  0  0  0  0
 19 21  1  0  0  0  0
 20 26  1  0  0  0  0
 21 24  1  0  0  0  0
 21 20  2  0  0  0  0
 22 19  2  0  0  0  0
 22 23  1  0  0  0  0
 23 18  2  0  0  0  0
 24 25  1  0  0  0  0
 26 27  1  0  0  0  0
 27 28  1  0  0  0  0
 28 29  1  0  0  0  0
 28 30  2  0  0  0  0
 31 34  1  0  0  0  0
 34 33  1  0  0  0  0
 34 32  1  0  0  0  0
M  END
>  <MODEL>
4

>  <REMARK>
 VINA RESULT:      -7.9      2.803      6.952
  Name = 
  7 active torsions:
  status: ('A' for Active; 'I' for Inactive)
    1  A    between atoms: N_7  and  C_14
    2  A    between atoms: C_8  and  S_18
    3  A    between atoms: C_14  and  C_16
    4  A    between atoms: S_18  and  C_30
    5  A    between atoms: C_23  and  N_24
    6  A    between atoms: C_23  and  C_25
    7  A    between atoms: O_26  and  C_28
                            x       y       z     vdW  Elec       q    Type
                         _______ _______ _______ _____ _____    ______ ____

>  <TORSDO>
F 7

$$$$
=
 OpenBabel11052415493D

 34 37  0  0  0  0  0  0  0  0999 V2000
  185.4530  178.5220  142.2720 C   0  0  0  0  0  0  0  0  0  0  0  0
  188.5300  177.5300  144.1070 C   0  0  0  0  0  3  0  0  0  0  0  0
  186.2770  177.7910  144.8330 N   0  0  0  0  0  0  0  0  0  0  0  0
  183.9850  178.9450  140.3110 C   0  0  0  0  0  0  0  0  0  0  0  0
  185.1130  178.9840  140.9530 N   0  0  0  0  0  0  0  0  0  0  0  0
  182.3730  178.2830  142.0890 C   0  0  0  0  0  3  0  0  0  0  0  0
  182.3830  179.3460  144.2900 C   0  0  0  0  0  1  0  0  0  0  0  0
  182.7540  178.3300  140.8200 C   0  0  0  0  0  3  0  0  0  0  0  0
  184.9750  178.0990  144.6110 C   0  0  0  0  0  3  0  0  0  0  0  0
  184.5240  178.4740  143.3350 C   0  0  0  0  0  0  0  0  0  0  0  0
  183.1400  178.8160  143.1650 N   0  0  0  0  0  0  0  0  0  0  0  0
  189.4850  177.5910  143.0890 C   0  0  0  0  0  0  0  0  0  0  0  0
  189.1040  177.9530  141.7950 C   0  0  0  0  0  3  0  0  0  0  0  0
  187.1940  177.8380  143.8360 C   0  0  0  0  0  0  0  0  0  0  0  0
  187.7710  178.2650  141.5180 C   0  0  0  0  0  3  0  0  0  0  0  0
  186.8020  178.2120  142.5330 C   0  0  0  0  0  0  0  0  0  0  0  0
  183.9500  179.5630  138.6340 S   0  0  0  0  0  0  0  0  0  0  0  0
  187.3970  177.7380  137.6850 C   0  0  0  0  0  3  0  0  0  0  0  0
  184.7000  177.1080  137.6050 C   0  0  0  0  0  3  0  0  0  0  0  0
  187.0030  176.4840  137.2090 C   0  0  0  0  0  0  0  0  0  0  0  0
  185.6370  176.1640  137.1610 C   0  0  0  0  0  0  0  0  0  0  0  0
  185.1370  178.3470  138.0760 C   0  0  0  0  0  0  0  0  0  0  0  0
  186.4660  178.6350  138.1050 N   0  0  0  0  0  0  0  0  0  0  0  0
  185.2340  174.9180  136.6690 O   0  0  0  0  0  0  0  0  0  0  0  0
  184.7450  173.8820  137.5090 C   0  0  0  0  0  1  0  0  0  0  0  0
  188.0360  175.5230  136.7250 C   0  0  0  0  0  2  0  0  0  0  0  0
  189.3580  175.9900  137.1110 N   0  0  0  0  0  2  0  0  0  0  0  0
  190.3800  175.0940  137.5400 C   0  0  0  0  0  0  0  0  0  0  0  0
  191.7060  175.6300  137.9430 C   0  0  0  0  0  1  0  0  0  0  0  0
  190.1730  173.8520  137.5720 O   0  0  0  0  0  0  0  0  0  0  0  0
  190.9050  177.2450  143.3790 C   0  0  0  0  0  2  0  0  0  0  0  0
  191.8850  175.2740  144.1530 C   0  0  0  0  0  1  0  0  0  0  0  0
  191.6210  177.0870  145.5890 C   0  0  0  0  0  1  0  0  0  0  0  0
  190.9790  176.3480  144.5180 N   0  0  0  0  0  0  0  0  0  0  0  0
  1 16  2  0  0  0  0
  1 10  1  0  0  0  0
  4  8  1  0  0  0  0
  4  5  2  0  0  0  0
  5  1  1  0  0  0  0
  6 11  1  0  0  0  0
  8  6  2  0  0  0  0
  9  3  1  0  0  0  0
 10  9  2  0  0  0  0
 11 10  1  0  0  0  0
 11  7  1  0  0  0  0
 12 31  1  0  0  0  0
 12  2  2  0  0  0  0
 13 12  1  0  0  0  0
 14  2  1  0  0  0  0
 14  3  2  0  0  0  0
 15 13  2  0  0  0  0
 15 16  1  0  0  0  0
 16 14  1  0  0  0  0
 17  4  1  0  0  0  0
 18 23  1  0  0  0  0
 19 22  1  0  0  0  0
 20 18  2  0  0  0  0
 21 20  1  0  0  0  0
 21 19  2  0  0  0  0
 22 23  2  0  0  0  0
 22 17  1  0  0  0  0
 24 21  1  0  0  0  0
 24 25  1  0  0  0  0
 26 27  1  0  0  0  0
 26 20  1  0  0  0  0
 27 28  1  0  0  0  0
 28 30  2  0  0  0  0
 28 29  1  0  0  0  0
 31 34  1  0  0  0  0
 32 34  1  0  0  0  0
 34 33  1  0  0  0  0
M  END
>  <MODEL>
5

>  <REMARK>
 VINA RESULT:      -7.9      2.598      6.313
  Name = 
  7 active torsions:
  status: ('A' for Active; 'I' for Inactive)
    1  A    between atoms: N_7  and  C_14
    2  A    between atoms: C_8  and  S_18
    3  A    between atoms: C_14  and  C_16
    4  A    between atoms: S_18  and  C_30
    5  A    between atoms: C_23  and  N_24
    6  A    between atoms: C_23  and  C_25
    7  A    between atoms: O_26  and  C_28
                            x       y       z     vdW  Elec       q    Type
                         _______ _______ _______ _____ _____    ______ ____

>  <TORSDO>
F 7

$$$$
=
 OpenBabel11052415493D

 34 37  0  0  0  0  0  0  0  0999 V2000
  187.7210  177.9120  139.1480 C   0  0  0  0  0  0  0  0  0  0  0  0
  184.7720  179.0570  141.1020 C   0  0  0  0  0  3  0  0  0  0  0  0
  185.0150  178.4860  138.8030 N   0  0  0  0  0  0  0  0  0  0  0  0
  189.9910  176.9800  138.7500 C   0  0  0  0  0  0  0  0  0  0  0  0
  189.1290  177.7260  139.3730 N   0  0  0  0  0  0  0  0  0  0  0  0
  188.7250  176.2620  136.7300 C   0  0  0  0  0  3  0  0  0  0  0  0
  187.4330  177.8500  135.3950 C   0  0  0  0  0  1  0  0  0  0  0  0
  189.6660  176.0720  137.6450 C   0  0  0  0  0  3  0  0  0  0  0  0
  185.7540  178.0840  137.7400 C   0  0  0  0  0  3  0  0  0  0  0  0
  187.1200  177.7890  137.8750 C   0  0  0  0  0  0  0  0  0  0  0  0
  187.8600  177.3950  136.7100 N   0  0  0  0  0  0  0  0  0  0  0  0
  185.3340  179.2170  142.3720 C   0  0  0  0  0  0  0  0  0  0  0  0
  186.6860  178.9370  142.5770 C   0  0  0  0  0  3  0  0  0  0  0  0
  185.5630  178.6240  140.0340 C   0  0  0  0  0  0  0  0  0  0  0  0
  187.4830  178.5070  141.5140 C   0  0  0  0  0  3  0  0  0  0  0  0
  186.9330  178.3460  140.2320 C   0  0  0  0  0  0  0  0  0  0  0  0
  191.6710  176.9490  139.3600 S   0  0  0  0  0  0  0  0  0  0  0  0
  189.7680  175.9460  142.7490 C   0  0  0  0  0  3  0  0  0  0  0  0
  191.6710  177.8100  141.9880 C   0  0  0  0  0  3  0  0  0  0  0  0
  190.2800  176.8290  143.7060 C   0  0  0  0  0  0  0  0  0  0  0  0
  191.2390  177.7780  143.3220 C   0  0  0  0  0  0  0  0  0  0  0  0
  191.1360  176.9090  141.0660 C   0  0  0  0  0  0  0  0  0  0  0  0
  190.2030  176.0020  141.4630 N   0  0  0  0  0  0  0  0  0  0  0  0
  191.7430  178.6760  144.2690 O   0  0  0  0  0  0  0  0  0  0  0  0
  191.3050  180.0250  144.3580 C   0  0  0  0  0  1  0  0  0  0  0  0
  189.7710  176.7700  145.1060 C   0  0  0  0  0  2  0  0  0  0  0  0
  188.5540  177.5580  145.2190 N   0  0  0  0  0  2  0  0  0  0  0  0
  187.8380  177.6700  146.4460 C   0  0  0  0  0  0  0  0  0  0  0  0
  186.5870  178.4710  146.4970 C   0  0  0  0  0  1  0  0  0  0  0  0
  188.2580  177.1040  147.4900 O   0  0  0  0  0  0  0  0  0  0  0  0
  184.4830  179.6630  143.5110 C   0  0  0  0  0  2  0  0  0  0  0  0
  183.4490  178.6280  145.3290 C   0  0  0  0  0  1  0  0  0  0  0  0
  182.2530  179.0070  143.3690 C   0  0  0  0  0  1  0  0  0  0  0  0
  183.5520  178.6110  143.8810 N   0  0  0  0  0  0  0  0  0  0  0  0
  1  5  1  0  0  0  0
  1 16  1  0  0  0  0
  2 12  1  0  0  0  0
  3 14  1  0  0  0  0
  4 17  1  0  0  0  0
  4  5  2  0  0  0  0
  6  8  2  0  0  0  0
  7 11  1  0  0  0  0
  8  4  1  0  0  0  0
  9 10  1  0  0  0  0
  9  3  2  0  0  0  0
 10  1  2  0  0  0  0
 11  6  1  0  0  0  0
 11 10  1  0  0  0  0
 12 13  2  0  0  0  0
 12 31  1  0  0  0  0
 14 16  1  0  0  0  0
 14  2  2  0  0  0  0
 15 13  1  0  0  0  0
 16 15  2  0  0  0  0
 17 22  1  0  0  0  0
 18 20  1  0  0  0  0
 19 21  1  0  0  0  0
 20 26  1  0  0  0  0
 21 20  2  0  0  0  0
 21 24  1  0  0  0  0
 22 23  1  0  0  0  0
 22 19  2  0  0  0  0
 23 18  2  0  0  0  0
 24 25  1  0  0  0  0
 26 27  1  0  0  0  0
 27 28  1  0  0  0  0
 28 29  1  0  0  0  0
 28 30  2  0  0  0  0
 31 34  1  0  0  0  0
 33 34  1  0  0  0  0
 34 32  1  0  0  0  0
M  END
>  <MODEL>
6

>  <REMARK>
 VINA RESULT:      -7.9      2.733      6.450
  Name = 
  7 active torsions:
  status: ('A' for Active; 'I' for Inactive)
    1  A    between atoms: N_7  and  C_14
    2  A    between atoms: C_8  and  S_18
    3  A    between atoms: C_14  and  C_16
    4  A    between atoms: S_18  and  C_30
    5  A    between atoms: C_23  and  N_24
    6  A    between atoms: C_23  and  C_25
    7  A    between atoms: O_26  and  C_28
                            x       y       z     vdW  Elec       q    Type
                         _______ _______ _______ _____ _____    ______ ____

>  <TORSDO>
F 7

$$$$
=
 OpenBabel11052415493D

 34 37  0  0  0  0  0  0  0  0999 V2000
  188.1240  177.7510  142.8160 C   0  0  0  0  0  0  0  0  0  0  0  0
  190.7050  176.7550  140.3330 C   0  0  0  0  0  3  0  0  0  0  0  0
  190.6280  176.5310  142.7020 N   0  0  0  0  0  0  0  0  0  0  0  0
  185.8880  178.4450  143.6510 C   0  0  0  0  0  0  0  0  0  0  0  0
  186.8800  178.4740  142.8140 N   0  0  0  0  0  0  0  0  0  0  0  0
  186.8300  177.1600  145.5650 C   0  0  0  0  0  3  0  0  0  0  0  0
  189.0510  177.6430  146.4640 C   0  0  0  0  0  1  0  0  0  0  0  0
  185.8080  177.5670  144.8240 C   0  0  0  0  0  3  0  0  0  0  0  0
  190.0240  176.7090  143.9040 C   0  0  0  0  0  3  0  0  0  0  0  0
  188.7650  177.3220  144.0000 C   0  0  0  0  0  0  0  0  0  0  0  0
  188.1860  177.5100  145.3000 N   0  0  0  0  0  0  0  0  0  0  0  0
  190.1180  177.1890  139.1420 C   0  0  0  0  0  0  0  0  0  0  0  0
  188.8640  177.8040  139.1650 C   0  0  0  0  0  3  0  0  0  0  0  0
  190.0450  176.9410  141.5500 C   0  0  0  0  0  0  0  0  0  0  0  0
  188.1990  177.9950  140.3790 C   0  0  0  0  0  3  0  0  0  0  0  0
  188.7800  177.5680  141.5830 C   0  0  0  0  0  0  0  0  0  0  0  0
  184.4510  179.4450  143.2870 S   0  0  0  0  0  0  0  0  0  0  0  0
  184.9640  178.9580  139.3350 C   0  0  0  0  0  3  0  0  0  0  0  0
  183.5220  177.7090  141.3450 C   0  0  0  0  0  3  0  0  0  0  0  0
  184.1650  177.8550  139.0180 C   0  0  0  0  0  0  0  0  0  0  0  0
  183.4280  177.2250  140.0320 C   0  0  0  0  0  0  0  0  0  0  0  0
  184.3340  178.8110  141.6190 C   0  0  0  0  0  0  0  0  0  0  0  0
  185.0320  179.4080  140.6160 N   0  0  0  0  0  0  0  0  0  0  0  0
  182.6130  176.1310  139.7190 O   0  0  0  0  0  0  0  0  0  0  0  0
  181.1980  176.1680  139.8430 C   0  0  0  0  0  1  0  0  0  0  0  0
  184.0800  177.3920  137.6030 C   0  0  0  0  0  2  0  0  0  0  0  0
  182.8620  177.9010  136.9930 N   0  0  0  0  0  2  0  0  0  0  0  0
  181.9710  177.0570  136.2680 C   0  0  0  0  0  0  0  0  0  0  0  0
  180.7520  177.6370  135.6470 C   0  0  0  0  0  1  0  0  0  0  0  0
  182.2010  175.8240  136.1560 O   0  0  0  0  0  0  0  0  0  0  0  0
  190.8180  176.9740  137.8450 C   0  0  0  0  0  2  0  0  0  0  0  0
  191.3170  174.8550  137.0030 C   0  0  0  0  0  1  0  0  0  0  0  0
  193.0340  176.3470  137.4940 C   0  0  0  0  0  1  0  0  0  0  0  0
  191.7460  175.8620  137.9560 N   0  0  0  0  0  0  0  0  0  0  0  0
  1 10  1  0  0  0  0
  2 14  1  0  0  0  0
  3  9  1  0  0  0  0
  4  8  1  0  0  0  0
  5  1  1  0  0  0  0
  5  4  2  0  0  0  0
  8  6  2  0  0  0  0
  9 10  2  0  0  0  0
 10 11  1  0  0  0  0
 11  6  1  0  0  0  0
 11  7  1  0  0  0  0
 12 13  1  0  0  0  0
 12  2  2  0  0  0  0
 13 15  2  0  0  0  0
 14 16  1  0  0  0  0
 14  3  2  0  0  0  0
 15 16  1  0  0  0  0
 16  1  2  0  0  0  0
 17  4  1  0  0  0  0
 18 23  1  0  0  0  0
 19 22  1  0  0  0  0
 20 18  2  0  0  0  0
 20 21  1  0  0  0  0
 21 19  2  0  0  0  0
 22 17  1  0  0  0  0
 23 22  2  0  0  0  0
 24 25  1  0  0  0  0
 24 21  1  0  0  0  0
 26 20  1  0  0  0  0
 27 26  1  0  0  0  0
 28 27  1  0  0  0  0
 29 28  1  0  0  0  0
 30 28  2  0  0  0  0
 31 34  1  0  0  0  0
 31 12  1  0  0  0  0
 32 34  1  0  0  0  0
 33 34  1  0  0  0  0
M  END
>  <MODEL>
7

>  <REMARK>
 VINA RESULT:      -7.7      2.732      6.459
  Name = 
  7 active torsions:
  status: ('A' for Active; 'I' for Inactive)
    1  A    between atoms: N_7  and  C_14
    2  A    between atoms: C_8  and  S_18
    3  A    between atoms: C_14  and  C_16
    4  A    between atoms: S_18  and  C_30
    5  A    between atoms: C_23  and  N_24
    6  A    between atoms: C_23  and  C_25
    7  A    between atoms: O_26  and  C_28
                            x       y       z     vdW  Elec       q    Type
                         _______ _______ _______ _____ _____    ______ ____

>  <TORSDO>
F 7

$$$$
=
 OpenBabel11052415493D

 34 37  0  0  0  0  0  0  0  0999 V2000
  183.9820  178.4070  142.7240 C   0  0  0  0  0  0  0  0  0  0  0  0
  186.0730  178.3900  145.7980 C   0  0  0  0  0  3  0  0  0  0  0  0
  183.7690  178.8840  145.4630 N   0  0  0  0  0  0  0  0  0  0  0  0
  183.3490  177.8990  140.3750 C   0  0  0  0  0  0  0  0  0  0  0  0
  184.1830  178.2420  141.3100 N   0  0  0  0  0  0  0  0  0  0  0  0
  181.1500  178.0360  141.5340 C   0  0  0  0  0  3  0  0  0  0  0  0
  180.5540  179.9500  142.9320 C   0  0  0  0  0  1  0  0  0  0  0  0
  181.9450  177.5360  140.5980 C   0  0  0  0  0  3  0  0  0  0  0  0
  182.6780  179.0320  144.6700 C   0  0  0  0  0  3  0  0  0  0  0  0
  182.7480  178.8040  143.2870 C   0  0  0  0  0  0  0  0  0  0  0  0
  181.5690  179.0030  142.4930 N   0  0  0  0  0  0  0  0  0  0  0  0
  187.3180  178.0270  145.2770 C   0  0  0  0  0  0  0  0  0  0  0  0
  187.4580  177.7800  143.9090 C   0  0  0  0  0  3  0  0  0  0  0  0
  184.9680  178.5160  144.9520 C   0  0  0  0  0  0  0  0  0  0  0  0
  186.3580  177.9070  143.0580 C   0  0  0  0  0  3  0  0  0  0  0  0
  185.1030  178.2760  143.5670 C   0  0  0  0  0  0  0  0  0  0  0  0
  183.9780  177.7250  138.7100 S   0  0  0  0  0  0  0  0  0  0  0  0
  181.5340  180.8470  138.0840 C   0  0  0  0  0  3  0  0  0  0  0  0
  181.9260  178.3450  136.9620 C   0  0  0  0  0  3  0  0  0  0  0  0
  180.7330  180.4470  137.0100 C   0  0  0  0  0  0  0  0  0  0  0  0
  180.9250  179.1780  136.4430 C   0  0  0  0  0  0  0  0  0  0  0  0
  182.7050  178.7850  138.0330 C   0  0  0  0  0  0  0  0  0  0  0  0
  182.4940  180.0170  138.5680 N   0  0  0  0  0  0  0  0  0  0  0  0
  180.1150  178.7640  135.3790 O   0  0  0  0  0  0  0  0  0  0  0  0
  179.8110  177.3990  135.1310 C   0  0  0  0  0  1  0  0  0  0  0  0
  179.6650  181.3600  136.5090 C   0  0  0  0  0  2  0  0  0  0  0  0
  180.2690  182.5450  135.9210 N   0  0  0  0  0  2  0  0  0  0  0  0
  180.1880  183.8240  136.5470 C   0  0  0  0  0  0  0  0  0  0  0  0
  180.8060  185.0040  135.8900 C   0  0  0  0  0  1  0  0  0  0  0  0
  179.6050  183.9610  137.6550 O   0  0  0  0  0  0  0  0  0  0  0  0
  188.4900  177.8780  146.1850 C   0  0  0  0  0  2  0  0  0  0  0  0
  189.0520  176.2090  147.7170 C   0  0  0  0  0  1  0  0  0  0  0  0
  188.2290  178.2530  148.4680 C   0  0  0  0  0  1  0  0  0  0  0  0
  188.0820  177.2500  147.4300 N   0  0  0  0  0  0  0  0  0  0  0  0
  1 10  2  0  0  0  0
  1 16  1  0  0  0  0
  4  8  1  0  0  0  0
  4  5  2  0  0  0  0
  5  1  1  0  0  0  0
  6 11  1  0  0  0  0
  8  6  2  0  0  0  0
  9  3  2  0  0  0  0
 10  9  1  0  0  0  0
 11  7  1  0  0  0  0
 11 10  1  0  0  0  0
 12  2  1  0  0  0  0
 12 31  1  0  0  0  0
 13 12  2  0  0  0  0
 14  3  1  0  0  0  0
 14  2  2  0  0  0  0
 15 16  2  0  0  0  0
 15 13  1  0  0  0  0
 16 14  1  0  0  0  0
 17  4  1  0  0  0  0
 18 23  1  0  0  0  0
 19 22  1  0  0  0  0
 20 18  2  0  0  0  0
 21 19  2  0  0  0  0
 21 20  1  0  0  0  0
 22 23  2  0  0  0  0
 22 17  1  0  0  0  0
 24 21  1  0  0  0  0
 25 24  1  0  0  0  0
 26 20  1  0  0  0  0
 27 26  1  0  0  0  0
 27 28  1  0  0  0  0
 28 30  2  0  0  0  0
 29 28  1  0  0  0  0
 31 34  1  0  0  0  0
 34 32  1  0  0  0  0
 34 33  1  0  0  0  0
M  END
>  <MODEL>
8

>  <REMARK>
 VINA RESULT:      -7.7      3.934      7.810
  Name = 
  7 active torsions:
  status: ('A' for Active; 'I' for Inactive)
    1  A    between atoms: N_7  and  C_14
    2  A    between atoms: C_8  and  S_18
    3  A    between atoms: C_14  and  C_16
    4  A    between atoms: S_18  and  C_30
    5  A    between atoms: C_23  and  N_24
    6  A    between atoms: C_23  and  C_25
    7  A    between atoms: O_26  and  C_28
                            x       y       z     vdW  Elec       q    Type
                         _______ _______ _______ _____ _____    ______ ____

>  <TORSDO>
F 7

$$$$
=
 OpenBabel11052415493D

 34 37  0  0  0  0  0  0  0  0999 V2000
  188.7840  177.4380  140.1850 C   0  0  0  0  0  0  0  0  0  0  0  0
  189.9530  176.9500  143.6800 C   0  0  0  0  0  3  0  0  0  0  0  0
  191.1400  177.0250  141.6170 N   0  0  0  0  0  0  0  0  0  0  0  0
  187.2380  178.0840  138.3490 C   0  0  0  0  0  0  0  0  0  0  0  0
  187.5260  177.5510  139.4980 N   0  0  0  0  0  0  0  0  0  0  0  0
  189.4860  178.4800  137.3560 C   0  0  0  0  0  3  0  0  0  0  0  0
  191.2270  176.7640  137.3990 C   0  0  0  0  0  1  0  0  0  0  0  0
  188.1990  178.7740  137.4820 C   0  0  0  0  0  3  0  0  0  0  0  0
  191.1900  177.1440  140.2670 C   0  0  0  0  0  3  0  0  0  0  0  0
  190.0240  177.3490  139.5120 C   0  0  0  0  0  0  0  0  0  0  0  0
  190.1340  177.4400  138.0840 N   0  0  0  0  0  0  0  0  0  0  0  0
  188.7440  177.0040  144.3800 C   0  0  0  0  0  0  0  0  0  0  0  0
  187.5470  177.2110  143.6910 C   0  0  0  0  0  3  0  0  0  0  0  0
  189.9660  177.0940  142.2900 C   0  0  0  0  0  0  0  0  0  0  0  0
  187.5530  177.3520  142.3010 C   0  0  0  0  0  3  0  0  0  0  0  0
  188.7590  177.2960  141.5860 C   0  0  0  0  0  0  0  0  0  0  0  0
  185.5240  178.1030  137.8380 S   0  0  0  0  0  0  0  0  0  0  0  0
  185.3540  179.4480  141.6160 C   0  0  0  0  0  3  0  0  0  0  0  0
  183.6850  178.0510  139.9020 C   0  0  0  0  0  3  0  0  0  0  0  0
  184.0920  179.0490  142.0670 C   0  0  0  0  0  0  0  0  0  0  0  0
  183.2470  178.3350  141.2030 C   0  0  0  0  0  0  0  0  0  0  0  0
  184.9510  178.4710  139.4910 C   0  0  0  0  0  0  0  0  0  0  0  0
  185.7540  179.1550  140.3500 N   0  0  0  0  0  0  0  0  0  0  0  0
  181.9900  177.9170  141.6530 O   0  0  0  0  0  0  0  0  0  0  0  0
  180.8190  178.7080  141.5080 C   0  0  0  0  0  1  0  0  0  0  0  0
  183.6810  179.3540  143.4670 C   0  0  0  0  0  2  0  0  0  0  0  0
  184.8500  179.3510  144.3330 N   0  0  0  0  0  2  0  0  0  0  0  0
  184.7620  179.0330  145.7200 C   0  0  0  0  0  0  0  0  0  0  0  0
  185.9860  179.0670  146.5610 C   0  0  0  0  0  1  0  0  0  0  0  0
  183.6580  178.7150  146.2370 O   0  0  0  0  0  0  0  0  0  0  0  0
  188.7370  176.8670  145.8640 C   0  0  0  0  0  2  0  0  0  0  0  0
  189.2950  178.1010  147.7640 C   0  0  0  0  0  1  0  0  0  0  0  0
  190.9250  176.8590  146.6600 C   0  0  0  0  0  1  0  0  0  0  0  0
  189.7670  177.7080  146.4490 N   0  0  0  0  0  0  0  0  0  0  0  0
  1 16  1  0  0  0  0
  2 12  1  0  0  0  0
  3 14  1  0  0  0  0
  4  5  2  0  0  0  0
  5  1  1  0  0  0  0
  6  8  2  0  0  0  0
  6 11  1  0  0  0  0
  7 11  1  0  0  0  0
  8  4  1  0  0  0  0
  9  3  2  0  0  0  0
 10  1  2  0  0  0  0
 10  9  1  0  0  0  0
 11 10  1  0  0  0  0
 12 31  1  0  0  0  0
 13 12  2  0  0  0  0
 14  2  2  0  0  0  0
 15 13  1  0  0  0  0
 16 14  1  0  0  0  0
 16 15  2  0  0  0  0
 17  4  1  0  0  0  0
 17 22  1  0  0  0  0
 18 20  1  0  0  0  0
 19 21  1  0  0  0  0
 20 26  1  0  0  0  0
 21 24  1  0  0  0  0
 21 20  2  0  0  0  0
 22 19  2  0  0  0  0
 22 23  1  0  0  0  0
 23 18  2  0  0  0  0
 25 24  1  0  0  0  0
 26 27  1  0  0  0  0
 27 28  1  0  0  0  0
 28 30  2  0  0  0  0
 28 29  1  0  0  0  0
 31 34  1  0  0  0  0
 34 33  1  0  0  0  0
 34 32  1  0  0  0  0
M  END
>  <MODEL>
9

>  <REMARK>
 VINA RESULT:      -7.6      2.768      7.732
  Name = 
  7 active torsions:
  status: ('A' for Active; 'I' for Inactive)
    1  A    between atoms: N_7  and  C_14
    2  A    between atoms: C_8  and  S_18
    3  A    between atoms: C_14  and  C_16
    4  A    between atoms: S_18  and  C_30
    5  A    between atoms: C_23  and  N_24
    6  A    between atoms: C_23  and  C_25
    7  A    between atoms: O_26  and  C_28
                            x       y       z     vdW  Elec       q    Type
                         _______ _______ _______ _____ _____    ______ ____

>  <TORSDO>
F 7

$$$$
