=
 OpenBabel11052413483D

 27 30  0  0  1  0  0  0  0  0999 V2000
  188.7020  177.9290  141.3640 N   0  0  0  0  0  0  0  0  0  0  0  0
  189.4390  177.2970  142.4670 C   0  0  1  0  0  3  0  0  0  0  0  0
  191.8470  176.4110  145.8620 C   0  0  0  0  0  3  0  0  0  0  0  0
  192.0630  176.0660  148.2100 F   0  0  0  0  0  0  0  0  0  0  0  0
  190.9400  177.5450  142.3630 C   0  0  0  0  0  2  0  0  0  0  0  0
  189.2190  177.2810  146.2590 C   0  0  0  0  0  3  0  0  0  0  0  0
  189.9980  176.8880  147.3500 C   0  0  0  0  0  3  0  0  0  0  0  0
  189.7430  177.2340  144.9630 C   0  0  0  0  0  0  0  0  0  0  0  0
  191.3110  176.4520  147.1530 C   0  0  0  0  0  0  0  0  0  0  0  0
  191.0790  176.8130  144.7650 C   0  0  0  0  0  0  0  0  0  0  0  0
  188.8960  177.7330  143.8280 C   0  0  0  0  0  2  0  0  0  0  0  0
  191.6680  176.6820  143.3890 C   0  0  0  0  0  2  0  0  0  0  0  0
  189.8090  177.4110  137.2840 C   0  0  0  0  0  3  0  0  0  0  0  0
  189.0840  177.7430  139.9820 C   0  0  0  0  0  0  0  0  0  0  0  0
  189.7250  176.5680  139.5500 C   0  0  0  0  0  3  0  0  0  0  0  0
  190.0850  176.4040  138.2100 C   0  0  0  0  0  3  0  0  0  0  0  0
  189.1730  178.5830  137.6970 C   0  0  0  0  0  3  0  0  0  0  0  0
  188.8130  178.7470  139.0380 C   0  0  0  0  0  3  0  0  0  0  0  0
  187.6980  178.8750  141.6550 N   0  0  0  0  0  2  0  0  0  0  0  0
  184.6920  178.5590  143.6470 C   0  0  0  0  0  3  0  0  0  0  0  0
  183.1810  178.6500  141.6600 C   0  0  0  0  0  0  0  0  0  0  0  0
  181.8380  178.4710  141.3560 O   0  0  0  0  0  1  0  0  0  0  0  0
  186.2970  178.5920  141.7690 C   0  0  0  0  0  0  0  0  0  0  0  0
  183.5360  178.8900  143.0730 C   0  0  0  0  0  3  0  0  0  0  0  0
  184.0560  178.6660  140.6450 C   0  0  0  0  0  3  0  0  0  0  0  0
  185.5170  178.8780  140.7260 C   0  0  0  0  0  3  0  0  0  0  0  0
  185.7680  177.8140  142.9330 C   0  0  0  0  0  2  0  0  0  0  0  0
  1 19  1  0  0  0  0
  2  1  1  6  0  0  0
  2 11  1  0  0  0  0
  3  9  1  0  0  0  0
  5  2  1  0  0  0  0
  5 12  1  0  0  0  0
  6  7  1  0  0  0  0
  8  6  2  0  0  0  0
  9  7  2  0  0  0  0
  9  4  1  0  0  0  0
 10  8  1  0  0  0  0
 10  3  2  0  0  0  0
 11  8  1  0  0  0  0
 12 10  1  0  0  0  0
 13 17  2  0  0  0  0
 13 16  1  0  0  0  0
 14  1  1  0  0  0  0
 15 14  1  0  0  0  0
 16 15  2  0  0  0  0
 17 18  1  0  0  0  0
 18 14  2  0  0  0  0
 19 23  1  0  0  0  0
 21 24  1  0  0  0  0
 22 21  1  0  0  0  0
 23 27  1  0  0  0  0
 24 20  2  0  0  0  0
 25 26  1  0  0  0  0
 25 21  2  0  0  0  0
 26 23  2  0  0  0  0
 27 20  1  0  0  0  0
M  END
>  <MODEL>
1

>  <REMARK>
 VINA RESULT:      -9.5      0.000      0.000
  Name = 
  4 active torsions:
  status: ('A' for Active; 'I' for Inactive)
    1  A    between atoms: N_1  and  N_15
    2  A    between atoms: N_1  and  C_18
    3  A    between atoms: C_2  and  N_15
    4  A    between atoms: C_9  and  N_15
                            x       y       z     vdW  Elec       q    Type
                         _______ _______ _______ _____ _____    ______ ____

>  <TORSDO>
F 4

$$$$
=
 OpenBabel11052413483D

 27 30  0  0  1  0  0  0  0  0999 V2000
  189.0410  177.5440  140.5480 N   0  0  0  0  0  0  0  0  0  0  0  0
  188.0290  178.1630  141.4160 C   0  0  1  0  0  3  0  0  0  0  0  0
  184.5900  179.1160  143.7330 C   0  0  0  0  0  3  0  0  0  0  0  0
  183.4290  179.0970  145.8130 F   0  0  0  0  0  0  0  0  0  0  0  0
  186.7130  178.3900  140.6800 C   0  0  0  0  0  2  0  0  0  0  0  0
  186.5480  177.4560  144.8400 C   0  0  0  0  0  3  0  0  0  0  0  0
  185.4590  177.8660  145.6150 C   0  0  0  0  0  3  0  0  0  0  0  0
  186.6720  177.8800  143.5140 C   0  0  0  0  0  0  0  0  0  0  0  0
  184.4810  178.6960  145.0620 C   0  0  0  0  0  0  0  0  0  0  0  0
  185.6700  178.7020  142.9470 C   0  0  0  0  0  0  0  0  0  0  0  0
  187.8190  177.3580  142.6980 C   0  0  0  0  0  2  0  0  0  0  0  0
  185.7880  179.2380  141.5490 C   0  0  0  0  0  2  0  0  0  0  0  0
  188.8510  177.8650  136.3050 C   0  0  0  0  0  3  0  0  0  0  0  0
  188.9770  177.6400  139.1070 C   0  0  0  0  0  0  0  0  0  0  0  0
  188.7740  176.5040  138.3040 C   0  0  0  0  0  3  0  0  0  0  0  0
  188.7120  176.6150  136.9120 C   0  0  0  0  0  3  0  0  0  0  0  0
  189.0510  179.0030  137.0890 C   0  0  0  0  0  3  0  0  0  0  0  0
  189.1140  178.8910  138.4800 C   0  0  0  0  0  3  0  0  0  0  0  0
  190.0100  176.6910  141.1150 N   0  0  0  0  0  2  0  0  0  0  0  0
  190.8800  178.8250  143.9070 C   0  0  0  0  0  3  0  0  0  0  0  0
  191.5360  176.9070  145.3670 C   0  0  0  0  0  0  0  0  0  0  0  0
  192.1420  176.6860  146.5960 O   0  0  0  0  0  1  0  0  0  0  0  0
  190.6680  176.9010  142.3720 C   0  0  0  0  0  0  0  0  0  0  0  0
  190.9910  178.2540  145.1060 C   0  0  0  0  0  3  0  0  0  0  0  0
  191.4210  175.8670  144.5290 C   0  0  0  0  0  3  0  0  0  0  0  0
  190.7840  175.8580  143.1950 C   0  0  0  0  0  3  0  0  0  0  0  0
  191.3790  178.1870  142.6560 C   0  0  0  0  0  2  0  0  0  0  0  0
  1 19  1  0  0  0  0
  2  1  1  6  0  0  0
  2 11  1  0  0  0  0
  3  9  1  0  0  0  0
  5  2  1  0  0  0  0
  5 12  1  0  0  0  0
  6  7  1  0  0  0  0
  8  6  2  0  0  0  0
  9  7  2  0  0  0  0
  9  4  1  0  0  0  0
 10  8  1  0  0  0  0
 10  3  2  0  0  0  0
 11  8  1  0  0  0  0
 12 10  1  0  0  0  0
 13 16  2  0  0  0  0
 13 17  1  0  0  0  0
 14  1  1  0  0  0  0
 15 14  2  0  0  0  0
 16 15  1  0  0  0  0
 17 18  2  0  0  0  0
 18 14  1  0  0  0  0
 19 23  1  0  0  0  0
 20 24  2  0  0  0  0
 21 22  1  0  0  0  0
 23 27  1  0  0  0  0
 23 26  2  0  0  0  0
 24 21  1  0  0  0  0
 25 21  2  0  0  0  0
 26 25  1  0  0  0  0
 27 20  1  0  0  0  0
M  END
>  <MODEL>
2

>  <REMARK>
 VINA RESULT:      -9.2      3.218      5.714
  Name = 
  4 active torsions:
  status: ('A' for Active; 'I' for Inactive)
    1  A    between atoms: N_1  and  N_15
    2  A    between atoms: N_1  and  C_18
    3  A    between atoms: C_2  and  N_15
    4  A    between atoms: C_9  and  N_15
                            x       y       z     vdW  Elec       q    Type
                         _______ _______ _______ _____ _____    ______ ____

>  <TORSDO>
F 4

$$$$
=
 OpenBabel11052413483D

 27 30  0  0  1  0  0  0  0  0999 V2000
  189.1190  177.6540  144.3940 N   0  0  0  0  0  0  0  0  0  0  0  0
  187.6650  177.6610  144.6040 C   0  0  1  0  0  3  0  0  0  0  0  0
  183.5620  178.6720  145.1050 C   0  0  0  0  0  3  0  0  0  0  0  0
  181.3900  179.0150  144.1860 F   0  0  0  0  0  0  0  0  0  0  0  0
  187.2730  178.4680  145.8380 C   0  0  0  0  0  2  0  0  0  0  0  0
  184.5950  178.4590  142.5160 C   0  0  0  0  0  3  0  0  0  0  0  0
  183.2300  178.6910  142.7070 C   0  0  0  0  0  3  0  0  0  0  0  0
  185.4500  178.3230  143.6140 C   0  0  0  0  0  0  0  0  0  0  0  0
  182.7130  178.7960  144.0010 C   0  0  0  0  0  0  0  0  0  0  0  0
  184.9300  178.4520  144.9230 C   0  0  0  0  0  0  0  0  0  0  0  0
  186.9190  178.1460  143.3610 C   0  0  0  0  0  2  0  0  0  0  0  0
  185.7930  178.2490  146.1360 C   0  0  0  0  0  2  0  0  0  0  0  0
  191.7910  176.0600  147.3030 C   0  0  0  0  0  3  0  0  0  0  0  0
  190.0310  177.1060  145.3730 C   0  0  0  0  0  0  0  0  0  0  0  0
  191.1690  176.3760  144.9860 C   0  0  0  0  0  3  0  0  0  0  0  0
  192.0430  175.8560  145.9450 C   0  0  0  0  0  3  0  0  0  0  0  0
  190.6650  176.7840  147.7030 C   0  0  0  0  0  3  0  0  0  0  0  0
  189.7920  177.3030  146.7430 C   0  0  0  0  0  3  0  0  0  0  0  0
  189.6620  178.3450  143.2910 N   0  0  0  0  0  2  0  0  0  0  0  0
  189.1060  177.3080  139.8670 C   0  0  0  0  0  3  0  0  0  0  0  0
  191.5450  177.0630  139.3840 C   0  0  0  0  0  0  0  0  0  0  0  0
  192.3690  176.5770  138.3790 O   0  0  0  0  0  1  0  0  0  0  0  0
  190.1250  177.7380  142.0770 C   0  0  0  0  0  0  0  0  0  0  0  0
  190.1420  177.3640  139.0320 C   0  0  0  0  0  3  0  0  0  0  0  0
  192.0910  177.2960  140.5850 C   0  0  0  0  0  3  0  0  0  0  0  0
  191.4210  177.8440  141.7830 C   0  0  0  0  0  3  0  0  0  0  0  0
  189.2270  176.8450  141.2800 C   0  0  0  0  0  2  0  0  0  0  0  0
  1 14  1  0  0  0  0
  2  1  1  6  0  0  0
  2  5  1  0  0  0  0
  5 12  1  0  0  0  0
  6  7  2  0  0  0  0
  6  8  1  0  0  0  0
  7  9  1  0  0  0  0
  8 10  2  0  0  0  0
  9  4  1  0  0  0  0
  9  3  2  0  0  0  0
 10  3  1  0  0  0  0
 10 12  1  0  0  0  0
 11  8  1  0  0  0  0
 11  2  1  0  0  0  0
 13 17  1  0  0  0  0
 14 18  1  0  0  0  0
 15 14  2  0  0  0  0
 15 16  1  0  0  0  0
 16 13  2  0  0  0  0
 18 17  2  0  0  0  0
 19  1  1  0  0  0  0
 20 27  1  0  0  0  0
 21 25  2  0  0  0  0
 22 21  1  0  0  0  0
 23 19  1  0  0  0  0
 24 21  1  0  0  0  0
 24 20  2  0  0  0  0
 25 26  1  0  0  0  0
 26 23  2  0  0  0  0
 27 23  1  0  0  0  0
M  END
>  <MODEL>
3

>  <REMARK>
 VINA RESULT:      -9.1      3.425      7.212
  Name = 
  4 active torsions:
  status: ('A' for Active; 'I' for Inactive)
    1  A    between atoms: N_1  and  N_15
    2  A    between atoms: N_1  and  C_18
    3  A    between atoms: C_2  and  N_15
    4  A    between atoms: C_9  and  N_15
                            x       y       z     vdW  Elec       q    Type
                         _______ _______ _______ _____ _____    ______ ____

>  <TORSDO>
F 4

$$$$
=
 OpenBabel11052413483D

 27 30  0  0  1  0  0  0  0  0999 V2000
  188.1580  177.9250  142.2190 N   0  0  0  0  0  0  0  0  0  0  0  0
  186.8340  177.8550  142.8510 C   0  0  1  0  0  3  0  0  0  0  0  0
  183.0540  178.6490  144.6370 C   0  0  0  0  0  3  0  0  0  0  0  0
  180.7020  178.9720  144.4390 F   0  0  0  0  0  0  0  0  0  0  0  0
  186.8170  178.5450  144.2110 C   0  0  0  0  0  2  0  0  0  0  0  0
  183.2660  178.6830  141.8490 C   0  0  0  0  0  3  0  0  0  0  0  0
  182.0180  178.8410  142.4570 C   0  0  0  0  0  3  0  0  0  0  0  0
  184.4130  178.4980  142.6270 C   0  0  0  0  0  0  0  0  0  0  0  0
  181.9120  178.8240  143.8500 C   0  0  0  0  0  0  0  0  0  0  0  0
  184.3080  178.5020  144.0370 C   0  0  0  0  0  0  0  0  0  0  0  0
  185.7420  178.4040  141.9340 C   0  0  0  0  0  2  0  0  0  0  0  0
  185.4990  178.2420  144.9160 C   0  0  0  0  0  2  0  0  0  0  0  0
  191.6800  176.5370  144.1710 C   0  0  0  0  0  3  0  0  0  0  0  0
  189.3500  177.4420  142.8800 C   0  0  0  0  0  0  0  0  0  0  0  0
  189.6960  176.0790  142.8640 C   0  0  0  0  0  3  0  0  0  0  0  0
  190.8530  175.6300  143.5060 C   0  0  0  0  0  3  0  0  0  0  0  0
  191.3510  177.8940  144.1950 C   0  0  0  0  0  3  0  0  0  0  0  0
  190.1930  178.3420  143.5530 C   0  0  0  0  0  3  0  0  0  0  0  0
  188.3090  178.6300  141.0070 N   0  0  0  0  0  2  0  0  0  0  0  0
  190.4950  176.4550  139.1110 C   0  0  0  0  0  3  0  0  0  0  0  0
  188.9950  176.4340  137.1130 C   0  0  0  0  0  0  0  0  0  0  0  0
  189.0100  175.9920  135.7970 O   0  0  0  0  0  1  0  0  0  0  0  0
  188.7330  178.0600  139.7610 C   0  0  0  0  0  0  0  0  0  0  0  0
  189.9820  175.8470  138.0420 C   0  0  0  0  0  3  0  0  0  0  0  0
  188.0430  177.3060  137.4710 C   0  0  0  0  0  3  0  0  0  0  0  0
  187.8120  177.8790  138.8140 C   0  0  0  0  0  3  0  0  0  0  0  0
  190.1880  177.8700  139.4640 C   0  0  0  0  0  2  0  0  0  0  0  0
  1 14  1  0  0  0  0
  2  1  1  6  0  0  0
  2  5  1  0  0  0  0
  5 12  1  0  0  0  0
  6  7  2  0  0  0  0
  6  8  1  0  0  0  0
  7  9  1  0  0  0  0
  8 10  2  0  0  0  0
  9  4  1  0  0  0  0
  9  3  2  0  0  0  0
 10  3  1  0  0  0  0
 10 12  1  0  0  0  0
 11  8  1  0  0  0  0
 11  2  1  0  0  0  0
 13 17  1  0  0  0  0
 14 18  1  0  0  0  0
 15 14  2  0  0  0  0
 15 16  1  0  0  0  0
 16 13  2  0  0  0  0
 18 17  2  0  0  0  0
 19  1  1  0  0  0  0
 20 27  1  0  0  0  0
 21 25  2  0  0  0  0
 21 24  1  0  0  0  0
 22 21  1  0  0  0  0
 23 19  1  0  0  0  0
 24 20  2  0  0  0  0
 25 26  1  0  0  0  0
 26 23  2  0  0  0  0
 27 23  1  0  0  0  0
M  END
>  <MODEL>
4

>  <REMARK>
 VINA RESULT:      -8.9      3.324      6.649
  Name = 
  4 active torsions:
  status: ('A' for Active; 'I' for Inactive)
    1  A    between atoms: N_1  and  N_15
    2  A    between atoms: N_1  and  C_18
    3  A    between atoms: C_2  and  N_15
    4  A    between atoms: C_9  and  N_15
                            x       y       z     vdW  Elec       q    Type
                         _______ _______ _______ _____ _____    ______ ____

>  <TORSDO>
F 4

$$$$
=
 OpenBabel11052413483D

 27 30  0  0  1  0  0  0  0  0999 V2000
  189.1590  177.5950  141.5120 N   0  0  0  0  0  0  0  0  0  0  0  0
  189.5400  176.9540  140.2460 C   0  0  1  0  0  3  0  0  0  0  0  0
  190.8360  176.0390  136.2980 C   0  0  0  0  0  3  0  0  0  0  0  0
  192.5720  175.4440  134.7780 F   0  0  0  0  0  0  0  0  0  0  0  0
  188.6840  177.4420  139.0820 C   0  0  0  0  0  2  0  0  0  0  0  0
  192.7550  176.4350  138.2930 C   0  0  0  0  0  3  0  0  0  0  0  0
  193.1490  176.0350  137.0130 C   0  0  0  0  0  3  0  0  0  0  0  0
  191.4020  176.6300  138.5870 C   0  0  0  0  0  0  0  0  0  0  0  0
  192.1910  175.8370  136.0160 C   0  0  0  0  0  0  0  0  0  0  0  0
  190.4340  176.4500  137.5720 C   0  0  0  0  0  0  0  0  0  0  0  0
  191.0300  177.1280  139.9540 C   0  0  0  0  0  2  0  0  0  0  0  0
  188.9640  176.5830  137.8530 C   0  0  0  0  0  2  0  0  0  0  0  0
  191.6760  177.5110  144.9470 C   0  0  0  0  0  3  0  0  0  0  0  0
  190.0120  177.5540  142.6790 C   0  0  0  0  0  0  0  0  0  0  0  0
  190.4610  176.3350  143.2170 C   0  0  0  0  0  3  0  0  0  0  0  0
  191.2870  176.3140  144.3440 C   0  0  0  0  0  3  0  0  0  0  0  0
  191.2390  178.7300  144.4240 C   0  0  0  0  0  3  0  0  0  0  0  0
  190.4120  178.7500  143.2980 C   0  0  0  0  0  3  0  0  0  0  0  0
  187.8590  178.1230  141.6560 N   0  0  0  0  0  2  0  0  0  0  0  0
  187.4680  177.3930  145.1810 C   0  0  0  0  0  3  0  0  0  0  0  0
  185.2290  178.4920  145.3160 C   0  0  0  0  0  0  0  0  0  0  0  0
  184.1820  178.6280  146.2180 O   0  0  0  0  0  1  0  0  0  0  0  0
  187.0370  177.9980  142.8240 C   0  0  0  0  0  0  0  0  0  0  0  0
  186.5410  178.0760  145.8510 C   0  0  0  0  0  3  0  0  0  0  0  0
  185.0000  178.8170  144.0370 C   0  0  0  0  0  3  0  0  0  0  0  0
  185.9660  178.7880  142.9190 C   0  0  0  0  0  3  0  0  0  0  0  0
  187.2550  176.8810  143.7960 C   0  0  0  0  0  2  0  0  0  0  0  0
  1 19  1  0  0  0  0
  1 14  1  0  0  0  0
  2  1  1  1  0  0  0
  3 10  1  0  0  0  0
  4  9  1  0  0  0  0
  5  2  1  0  0  0  0
  6  8  1  0  0  0  0
  7  6  2  0  0  0  0
  8 11  1  0  0  0  0
  9  3  2  0  0  0  0
  9  7  1  0  0  0  0
 10 12  1  0  0  0  0
 10  8  2  0  0  0  0
 11  2  1  0  0  0  0
 12  5  1  0  0  0  0
 14 15  2  0  0  0  0
 14 18  1  0  0  0  0
 15 16  1  0  0  0  0
 16 13  2  0  0  0  0
 17 13  1  0  0  0  0
 18 17  2  0  0  0  0
 19 23  1  0  0  0  0
 20 24  2  0  0  0  0
 21 24  1  0  0  0  0
 21 22  1  0  0  0  0
 23 26  2  0  0  0  0
 23 27  1  0  0  0  0
 25 21  2  0  0  0  0
 26 25  1  0  0  0  0
 27 20  1  0  0  0  0
M  END
>  <MODEL>
5

>  <REMARK>
 VINA RESULT:      -8.9      3.230      6.270
  Name = 
  4 active torsions:
  status: ('A' for Active; 'I' for Inactive)
    1  A    between atoms: N_1  and  N_15
    2  A    between atoms: N_1  and  C_18
    3  A    between atoms: C_2  and  N_15
    4  A    between atoms: C_9  and  N_15
                            x       y       z     vdW  Elec       q    Type
                         _______ _______ _______ _____ _____    ______ ____

>  <TORSDO>
F 4

$$$$
=
 OpenBabel11052413483D

 27 30  0  0  1  0  0  0  0  0999 V2000
  189.9910  177.2910  140.1580 N   0  0  0  0  0  0  0  0  0  0  0  0
  189.9750  176.9930  141.5960 C   0  0  1  0  0  3  0  0  0  0  0  0
  189.9720  177.1290  145.8500 C   0  0  0  0  0  3  0  0  0  0  0  0
  188.7850  177.2010  147.9140 F   0  0  0  0  0  0  0  0  0  0  0  0
  191.2290  177.5080  142.2960 C   0  0  0  0  0  2  0  0  0  0  0  0
  187.5650  177.5230  144.4820 C   0  0  0  0  0  3  0  0  0  0  0  0
  187.5740  177.4630  145.8780 C   0  0  0  0  0  3  0  0  0  0  0  0
  188.7530  177.3780  143.7600 C   0  0  0  0  0  0  0  0  0  0  0  0
  188.7770  177.2650  146.5620 C   0  0  0  0  0  0  0  0  0  0  0  0
  189.9730  177.2000  144.4530 C   0  0  0  0  0  0  0  0  0  0  0  0
  188.7070  177.5200  142.2660 C   0  0  0  0  0  2  0  0  0  0  0  0
  191.2670  176.9730  143.7240 C   0  0  0  0  0  2  0  0  0  0  0  0
  192.7140  175.3920  137.4890 C   0  0  0  0  0  3  0  0  0  0  0  0
  190.9230  176.6550  139.2540 C   0  0  0  0  0  0  0  0  0  0  0  0
  192.2600  177.0810  139.1590 C   0  0  0  0  0  3  0  0  0  0  0  0
  193.1490  176.4550  138.2830 C   0  0  0  0  0  3  0  0  0  0  0  0
  191.3900  174.9560  137.5710 C   0  0  0  0  0  3  0  0  0  0  0  0
  190.5010  175.5840  138.4480 C   0  0  0  0  0  3  0  0  0  0  0  0
  189.1940  178.3420  139.6600 N   0  0  0  0  0  2  0  0  0  0  0  0
  189.0960  177.9770  136.0600 C   0  0  0  0  0  3  0  0  0  0  0  0
  186.6260  177.6080  136.0110 C   0  0  0  0  0  0  0  0  0  0  0  0
  185.6010  177.5040  135.0800 O   0  0  0  0  0  1  0  0  0  0  0  0
  188.4670  178.3210  138.4240 C   0  0  0  0  0  0  0  0  0  0  0  0
  188.0090  177.4210  135.5270 C   0  0  0  0  0  3  0  0  0  0  0  0
  186.2910  177.7960  137.2940 C   0  0  0  0  0  3  0  0  0  0  0  0
  187.2030  177.8970  138.4520 C   0  0  0  0  0  3  0  0  0  0  0  0
  189.0390  178.9470  137.1910 C   0  0  0  0  0  2  0  0  0  0  0  0
  2  1  1  6  0  0  0
  2 11  1  0  0  0  0
  2  5  1  0  0  0  0
  3  9  1  0  0  0  0
  5 12  1  0  0  0  0
  6  7  1  0  0  0  0
  7  9  2  0  0  0  0
  8 10  1  0  0  0  0
  8  6  2  0  0  0  0
  9  4  1  0  0  0  0
 10  3  2  0  0  0  0
 11  8  1  0  0  0  0
 12 10  1  0  0  0  0
 13 17  2  0  0  0  0
 13 16  1  0  0  0  0
 14  1  1  0  0  0  0
 15 14  1  0  0  0  0
 16 15  2  0  0  0  0
 17 18  1  0  0  0  0
 18 14  2  0  0  0  0
 19  1  1  0  0  0  0
 20 27  1  0  0  0  0
 21 25  2  0  0  0  0
 22 21  1  0  0  0  0
 23 26  2  0  0  0  0
 23 19  1  0  0  0  0
 24 21  1  0  0  0  0
 24 20  2  0  0  0  0
 25 26  1  0  0  0  0
 27 23  1  0  0  0  0
M  END
>  <MODEL>
6

>  <REMARK>
 VINA RESULT:      -8.8      2.673      4.145
  Name = 
  4 active torsions:
  status: ('A' for Active; 'I' for Inactive)
    1  A    between atoms: N_1  and  N_15
    2  A    between atoms: N_1  and  C_18
    3  A    between atoms: C_2  and  N_15
    4  A    between atoms: C_9  and  N_15
                            x       y       z     vdW  Elec       q    Type
                         _______ _______ _______ _____ _____    ______ ____

>  <TORSDO>
F 4

$$$$
=
 OpenBabel11052413483D

 27 30  0  0  1  0  0  0  0  0999 V2000
  184.2930  178.9430  140.9200 N   0  0  0  0  0  0  0  0  0  0  0  0
  184.6860  179.0680  142.3300 C   0  0  1  0  0  3  0  0  0  0  0  0
  185.5250  178.4780  146.4600 C   0  0  0  0  0  3  0  0  0  0  0  0
  187.0430  177.8740  148.1950 F   0  0  0  0  0  0  0  0  0  0  0  0
  183.5100  178.8270  143.2710 C   0  0  0  0  0  2  0  0  0  0  0  0
  187.3920  177.6180  144.5650 C   0  0  0  0  0  3  0  0  0  0  0  0
  187.6880  177.5270  145.9270 C   0  0  0  0  0  3  0  0  0  0  0  0
  186.1700  178.1460  144.1390 C   0  0  0  0  0  0  0  0  0  0  0  0
  186.7550  177.9570  146.8750 C   0  0  0  0  0  0  0  0  0  0  0  0
  185.2170  178.5610  145.0990 C   0  0  0  0  0  0  0  0  0  0  0  0
  185.8660  178.1590  142.6690 C   0  0  0  0  0  2  0  0  0  0  0  0
  183.9170  179.1960  144.6950 C   0  0  0  0  0  2  0  0  0  0  0  0
  180.8080  176.7970  139.7390 C   0  0  0  0  0  3  0  0  0  0  0  0
  183.1170  178.2050  140.5160 C   0  0  0  0  0  0  0  0  0  0  0  0
  183.1940  176.8530  140.1370 C   0  0  0  0  0  3  0  0  0  0  0  0
  182.0470  176.1540  139.7510 C   0  0  0  0  0  3  0  0  0  0  0  0
  180.7150  178.1390  140.1140 C   0  0  0  0  0  3  0  0  0  0  0  0
  181.8630  178.8380  140.4990 C   0  0  0  0  0  3  0  0  0  0  0  0
  185.1660  179.4070  139.9150 N   0  0  0  0  0  2  0  0  0  0  0  0
  186.7220  178.2950  136.8410 C   0  0  0  0  0  3  0  0  0  0  0  0
  188.7270  177.3710  138.0090 C   0  0  0  0  0  0  0  0  0  0  0  0
  189.8490  176.6070  137.7190 O   0  0  0  0  0  1  0  0  0  0  0  0
  186.1320  178.6070  139.2200 C   0  0  0  0  0  0  0  0  0  0  0  0
  188.0220  178.0080  136.8780 C   0  0  0  0  0  3  0  0  0  0  0  0
  188.4010  177.5420  139.2980 C   0  0  0  0  0  3  0  0  0  0  0  0
  187.2820  178.3400  139.8410 C   0  0  0  0  0  3  0  0  0  0  0  0
  185.7780  177.9270  137.9350 C   0  0  0  0  0  2  0  0  0  0  0  0
  2  1  1  6  0  0  0
  2 11  1  0  0  0  0
  2  5  1  0  0  0  0
  3  9  1  0  0  0  0
  5 12  1  0  0  0  0
  6  7  1  0  0  0  0
  7  9  2  0  0  0  0
  8  6  2  0  0  0  0
  8 10  1  0  0  0  0
  9  4  1  0  0  0  0
 10  3  2  0  0  0  0
 11  8  1  0  0  0  0
 12 10  1  0  0  0  0
 13 16  2  0  0  0  0
 13 17  1  0  0  0  0
 14  1  1  0  0  0  0
 15 14  2  0  0  0  0
 16 15  1  0  0  0  0
 17 18  2  0  0  0  0
 18 14  1  0  0  0  0
 19  1  1  0  0  0  0
 20 24  2  0  0  0  0
 20 27  1  0  0  0  0
 21 25  2  0  0  0  0
 22 21  1  0  0  0  0
 23 26  2  0  0  0  0
 23 19  1  0  0  0  0
 24 21  1  0  0  0  0
 25 26  1  0  0  0  0
 27 23  1  0  0  0  0
M  END
>  <MODEL>
7

>  <REMARK>
 VINA RESULT:      -8.7      3.145      6.117
  Name = 
  4 active torsions:
  status: ('A' for Active; 'I' for Inactive)
    1  A    between atoms: N_1  and  N_15
    2  A    between atoms: N_1  and  C_18
    3  A    between atoms: C_2  and  N_15
    4  A    between atoms: C_9  and  N_15
                            x       y       z     vdW  Elec       q    Type
                         _______ _______ _______ _____ _____    ______ ____

>  <TORSDO>
F 4

$$$$
=
 OpenBabel11052413483D

 27 30  0  0  1  0  0  0  0  0999 V2000
  187.7520  178.1410  141.0410 N   0  0  0  0  0  0  0  0  0  0  0  0
  188.0760  177.7300  142.4140 C   0  0  1  0  0  3  0  0  0  0  0  0
  189.0410  177.5280  146.5540 C   0  0  0  0  0  3  0  0  0  0  0  0
  188.3550  177.3750  148.8300 F   0  0  0  0  0  0  0  0  0  0  0  0
  189.4380  178.2530  142.8570 C   0  0  0  0  0  2  0  0  0  0  0  0
  186.3730  177.9030  145.8040 C   0  0  0  0  0  3  0  0  0  0  0  0
  186.7030  177.7330  147.1510 C   0  0  0  0  0  3  0  0  0  0  0  0
  187.3690  177.8780  144.8230 C   0  0  0  0  0  0  0  0  0  0  0  0
  188.0360  177.5450  147.5260 C   0  0  0  0  0  0  0  0  0  0  0  0
  188.7200  177.7090  145.2050 C   0  0  0  0  0  0  0  0  0  0  0  0
  186.9770  178.1360  143.3960 C   0  0  0  0  0  2  0  0  0  0  0  0
  189.8200  177.6090  144.1860 C   0  0  0  0  0  2  0  0  0  0  0  0
  190.2910  177.1610  137.7650 C   0  0  0  0  0  3  0  0  0  0  0  0
  188.6080  177.8160  139.9220 C   0  0  0  0  0  0  0  0  0  0  0  0
  188.5910  178.5790  138.7410 C   0  0  0  0  0  3  0  0  0  0  0  0
  189.4270  178.2530  137.6690 C   0  0  0  0  0  3  0  0  0  0  0  0
  190.3200  176.3940  138.9320 C   0  0  0  0  0  3  0  0  0  0  0  0
  189.4830  176.7200  140.0030 C   0  0  0  0  0  3  0  0  0  0  0  0
  186.6690  179.0160  140.8180 N   0  0  0  0  0  2  0  0  0  0  0  0
  184.5450  177.5340  138.2890 C   0  0  0  0  0  3  0  0  0  0  0  0
  182.6180  177.2530  139.8530 C   0  0  0  0  0  0  0  0  0  0  0  0
  181.2770  176.8960  139.8100 O   0  0  0  0  0  1  0  0  0  0  0  0
  185.3720  178.6300  140.3430 C   0  0  0  0  0  0  0  0  0  0  0  0
  183.4630  176.8760  138.7030 C   0  0  0  0  0  3  0  0  0  0  0  0
  183.0710  177.8500  140.9640 C   0  0  0  0  0  3  0  0  0  0  0  0
  184.4560  178.2800  141.2470 C   0  0  0  0  0  3  0  0  0  0  0  0
  185.0000  178.8130  138.9050 C   0  0  0  0  0  2  0  0  0  0  0  0
  2  1  1  6  0  0  0
  2  5  1  0  0  0  0
  2 11  1  0  0  0  0
  3  9  1  0  0  0  0
  5 12  1  0  0  0  0
  6  7  1  0  0  0  0
  7  9  2  0  0  0  0
  8 10  1  0  0  0  0
  8  6  2  0  0  0  0
  9  4  1  0  0  0  0
 10  3  2  0  0  0  0
 11  8  1  0  0  0  0
 12 10  1  0  0  0  0
 13 17  1  0  0  0  0
 14 18  1  0  0  0  0
 14  1  1  0  0  0  0
 15 14  2  0  0  0  0
 16 13  2  0  0  0  0
 16 15  1  0  0  0  0
 17 18  2  0  0  0  0
 19  1  1  0  0  0  0
 20 24  2  0  0  0  0
 20 27  1  0  0  0  0
 21 25  2  0  0  0  0
 22 21  1  0  0  0  0
 23 19  1  0  0  0  0
 23 26  2  0  0  0  0
 24 21  1  0  0  0  0
 25 26  1  0  0  0  0
 27 23  1  0  0  0  0
M  END
>  <MODEL>
8

>  <REMARK>
 VINA RESULT:      -8.6      1.713      2.716
  Name = 
  4 active torsions:
  status: ('A' for Active; 'I' for Inactive)
    1  A    between atoms: N_1  and  N_15
    2  A    between atoms: N_1  and  C_18
    3  A    between atoms: C_2  and  N_15
    4  A    between atoms: C_9  and  N_15
                            x       y       z     vdW  Elec       q    Type
                         _______ _______ _______ _____ _____    ______ ____

>  <TORSDO>
F 4

$$$$
=
 OpenBabel11052413483D

 27 30  0  0  1  0  0  0  0  0999 V2000
  187.9190  178.0830  140.4530 N   0  0  0  0  0  0  0  0  0  0  0  0
  188.7110  177.4890  141.5390 C   0  0  1  0  0  3  0  0  0  0  0  0
  191.2490  176.7210  144.8670 C   0  0  0  0  0  3  0  0  0  0  0  0
  191.5470  176.4060  147.2100 F   0  0  0  0  0  0  0  0  0  0  0  0
  190.1980  177.7890  141.3880 C   0  0  0  0  0  2  0  0  0  0  0  0
  188.6050  177.5000  145.3350 C   0  0  0  0  0  3  0  0  0  0  0  0
  189.4290  177.1450  146.4060 C   0  0  0  0  0  3  0  0  0  0  0  0
  189.0910  177.4590  144.0250 C   0  0  0  0  0  0  0  0  0  0  0  0
  190.7500  176.7550  146.1730 C   0  0  0  0  0  0  0  0  0  0  0  0
  190.4350  177.0850  143.7910 C   0  0  0  0  0  0  0  0  0  0  0  0
  188.1930  177.9170  142.9120 C   0  0  0  0  0  2  0  0  0  0  0  0
  190.9870  176.9620  142.3990 C   0  0  0  0  0  2  0  0  0  0  0  0
  188.9870  177.6350  136.3540 C   0  0  0  0  0  3  0  0  0  0  0  0
  188.2810  177.9190  139.0630 C   0  0  0  0  0  0  0  0  0  0  0  0
  188.2050  176.6660  138.4290 C   0  0  0  0  0  3  0  0  0  0  0  0
  188.5560  176.5250  137.0830 C   0  0  0  0  0  3  0  0  0  0  0  0
  189.0670  178.8860  136.9700 C   0  0  0  0  0  3  0  0  0  0  0  0
  188.7160  179.0260  138.3160 C   0  0  0  0  0  3  0  0  0  0  0  0
  186.8750  178.9760  140.7680 N   0  0  0  0  0  2  0  0  0  0  0  0
  184.2400  177.8450  138.5580 C   0  0  0  0  0  3  0  0  0  0  0  0
  182.5410  177.7390  140.3870 C   0  0  0  0  0  0  0  0  0  0  0  0
  181.1750  177.5450  140.5370 O   0  0  0  0  0  1  0  0  0  0  0  0
  185.4850  178.7630  140.4840 C   0  0  0  0  0  0  0  0  0  0  0  0
  183.1580  177.3050  139.1170 C   0  0  0  0  0  3  0  0  0  0  0  0
  183.2210  178.2390  141.4280 C   0  0  0  0  0  3  0  0  0  0  0  0
  184.6750  178.4930  141.5090 C   0  0  0  0  0  3  0  0  0  0  0  0
  184.9330  179.0390  139.1210 C   0  0  0  0  0  2  0  0  0  0  0  0
  1 19  1  0  0  0  0
  2  1  1  6  0  0  0
  2 11  1  0  0  0  0
  3  9  1  0  0  0  0
  5  2  1  0  0  0  0
  5 12  1  0  0  0  0
  6  7  1  0  0  0  0
  8  6  2  0  0  0  0
  9  7  2  0  0  0  0
  9  4  1  0  0  0  0
 10  8  1  0  0  0  0
 10  3  2  0  0  0  0
 11  8  1  0  0  0  0
 12 10  1  0  0  0  0
 13 17  2  0  0  0  0
 13 16  1  0  0  0  0
 14  1  1  0  0  0  0
 15 14  1  0  0  0  0
 16 15  2  0  0  0  0
 17 18  1  0  0  0  0
 18 14  2  0  0  0  0
 20 24  2  0  0  0  0
 20 27  1  0  0  0  0
 21 22  1  0  0  0  0
 21 25  2  0  0  0  0
 23 19  1  0  0  0  0
 23 26  2  0  0  0  0
 24 21  1  0  0  0  0
 25 26  1  0  0  0  0
 27 23  1  0  0  0  0
M  END
>  <MODEL>
9

>  <REMARK>
 VINA RESULT:      -8.5      1.254      1.941
  Name = 
  4 active torsions:
  status: ('A' for Active; 'I' for Inactive)
    1  A    between atoms: N_1  and  N_15
    2  A    between atoms: N_1  and  C_18
    3  A    between atoms: C_2  and  N_15
    4  A    between atoms: C_9  and  N_15
                            x       y       z     vdW  Elec       q    Type
                         _______ _______ _______ _____ _____    ______ ____

>  <TORSDO>
F 4

$$$$
