=
 OpenBabel11052412593D

 31 35  0  0  1  0  0  0  0  0999 V2000
  192.0190  177.0490  140.4720 C   0  0  2  0  0  3  0  0  0  0  0  0
  188.3050  177.5740  139.7250 N   0  0  0  0  0  0  0  0  0  0  0  0
  188.0930  177.2450  138.3280 C   0  0  0  0  0  0  0  0  0  0  0  0
  188.9400  175.7980  136.3990 C   0  0  0  0  0  3  0  0  0  0  0  0
  189.5250  177.1580  140.4480 C   0  0  1  0  0  3  0  0  0  0  0  0
  192.0310  177.5030  141.9340 C   0  0  0  0  0  2  0  0  0  0  0  0
  188.9030  176.3430  137.7590 C   0  0  0  0  0  3  0  0  0  0  0  0
  187.2920  178.3380  141.9580 C   0  0  1  0  0  3  0  0  0  0  0  0
  193.2320  177.4980  139.8140 N   0  0  0  0  0  1  0  0  0  0  0  0
  186.0610  178.5620  138.3920 C   0  0  0  0  0  3  0  0  0  0  0  0
  188.2400  176.1600  135.3310 C   0  0  0  0  0  3  0  0  0  0  0  0
  188.2960  177.4410  142.5300 N   0  0  0  0  0  2  0  0  0  0  0  0
  187.2080  178.1690  140.4570 C   0  0  0  0  0  0  0  0  0  0  0  0
  190.8020  177.6130  139.7370 C   0  0  0  0  0  2  0  0  0  0  0  0
  187.2230  177.2040  135.2280 C   0  0  0  0  0  3  0  0  0  0  0  0
  189.5570  177.7270  141.8680 C   0  0  1  0  0  3  0  0  0  0  0  0
  190.7260  177.1240  142.6330 C   0  0  0  0  0  2  0  0  0  0  0  0
  186.1890  178.6580  139.8150 N   0  0  0  0  0  0  0  0  0  0  0  0
  186.9370  177.8860  137.6450 C   0  0  0  0  0  0  0  0  0  0  0  0
  186.6760  177.9210  136.2020 C   0  0  0  0  0  3  0  0  0  0  0  0
  185.9420  178.0750  142.6160 C   0  0  0  0  0  2  0  0  0  0  0  0
  184.5410  179.1460  144.3490 C   0  0  0  0  0  1  0  0  0  0  0  0
  185.9220  178.5980  144.0420 C   0  0  1  0  0  3  0  0  0  0  0  0
  186.2320  177.5440  144.9490 O   0  0  0  0  0  0  0  0  0  0  0  0
  189.4400  177.4010  146.8250 C   0  0  0  0  0  0  0  0  0  0  0  0
  187.7110  178.3300  148.2420 C   0  0  0  0  0  3  0  0  0  0  0  0
  190.7570  177.0030  146.6380 O   0  0  0  0  0  1  0  0  0  0  0  0
  188.5160  177.2680  145.7850 C   0  0  0  0  0  3  0  0  0  0  0  0
  186.7870  178.1970  147.2000 C   0  0  0  0  0  3  0  0  0  0  0  0
  187.1820  177.6670  145.9680 C   0  0  0  0  0  0  0  0  0  0  0  0
  189.0370  177.9310  148.0530 C   0  0  0  0  0  3  0  0  0  0  0  0
  1  9  1  6  0  0  0
  1  6  1  0  0  0  0
  2  5  1  0  0  0  0
  2 13  1  0  0  0  0
  3  2  1  0  0  0  0
  4  7  1  0  0  0  0
  5 14  1  6  0  0  0
  5 16  1  0  0  0  0
  6 17  1  0  0  0  0
  7  3  2  0  0  0  0
  8 12  1  0  0  0  0
  8 21  1  1  0  0  0
 10 18  1  0  0  0  0
 11  4  2  0  0  0  0
 13  8  1  0  0  0  0
 14  1  1  0  0  0  0
 15 11  1  0  0  0  0
 15 20  2  0  0  0  0
 16 12  1  0  0  0  0
 16 17  1  1  0  0  0
 18 13  2  0  0  0  0
 19  3  1  0  0  0  0
 19 10  2  0  0  0  0
 20 19  1  0  0  0  0
 21 23  1  0  0  0  0
 23 22  1  1  0  0  0
 23 24  1  0  0  0  0
 24 30  1  0  0  0  0
 25 31  1  0  0  0  0
 27 25  1  0  0  0  0
 28 30  1  0  0  0  0
 28 25  2  0  0  0  0
 29 26  1  0  0  0  0
 30 29  2  0  0  0  0
 31 26  2  0  0  0  0
M  END
>  <MODEL>
1

>  <REMARK>
 VINA RESULT:      -9.2      0.000      0.000
  Name = 
  4 active torsions:
  status: ('A' for Active; 'I' for Inactive)
    1  A    between atoms: O_3  and  C_9
    2  A    between atoms: O_3  and  C_22
    3  A    between atoms: C_9  and  C_23
    4  A    between atoms: C_15  and  C_23
                            x       y       z     vdW  Elec       q    Type
                         _______ _______ _______ _____ _____    ______ ____

>  <TORSDO>
F 4

$$$$
=
 OpenBabel11052412593D

 31 35  0  0  1  0  0  0  0  0999 V2000
  190.2180  177.1040  139.7000 C   0  0  2  0  0  3  0  0  0  0  0  0
  188.1820  177.7930  142.8630 N   0  0  0  0  0  0  0  0  0  0  0  0
  189.0750  177.6400  143.9960 C   0  0  0  0  0  0  0  0  0  0  0  0
  191.5120  177.8390  144.7430 C   0  0  0  0  0  3  0  0  0  0  0  0
  188.6900  177.9490  141.4840 C   0  0  1  0  0  3  0  0  0  0  0  0
  189.1010  177.2510  138.6640 C   0  0  0  0  0  2  0  0  0  0  0  0
  190.3780  177.8900  143.8150 C   0  0  0  0  0  3  0  0  0  0  0  0
  185.8220  178.3480  142.0120 C   0  0  1  0  0  3  0  0  0  0  0  0
  191.1020  176.0210  139.3100 N   0  0  0  0  0  1  0  0  0  0  0  0
  187.1310  177.3160  145.4040 C   0  0  0  0  0  3  0  0  0  0  0  0
  191.5500  177.4050  145.9960 C   0  0  0  0  0  3  0  0  0  0  0  0
  186.5470  178.9390  140.8880 N   0  0  0  0  0  2  0  0  0  0  0  0
  186.7710  177.9720  143.1300 C   0  0  0  0  0  0  0  0  0  0  0  0
  189.6410  176.8170  141.0870 C   0  0  0  0  0  2  0  0  0  0  0  0
  190.4550  176.8670  146.8000 C   0  0  0  0  0  3  0  0  0  0  0  0
  187.5480  177.9750  140.4660 C   0  0  1  0  0  3  0  0  0  0  0  0
  188.1000  178.3250  139.0910 C   0  0  0  0  0  2  0  0  0  0  0  0
  186.2950  177.7080  144.3100 N   0  0  0  0  0  0  0  0  0  0  0  0
  188.4620  177.2840  145.3040 C   0  0  0  0  0  0  0  0  0  0  0  0
  189.1610  176.8230  146.5080 C   0  0  0  0  0  3  0  0  0  0  0  0
  184.7590  179.3250  142.5010 C   0  0  0  0  0  2  0  0  0  0  0  0
  182.8810  179.0250  144.0810 C   0  0  0  0  0  1  0  0  0  0  0  0
  183.4350  178.6170  142.7290 C   0  0  1  0  0  3  0  0  0  0  0  0
  182.5110  178.9760  141.7040 O   0  0  0  0  0  0  0  0  0  0  0  0
  182.9360  176.6560  138.8280 C   0  0  0  0  0  0  0  0  0  0  0  0
  182.4480  178.8830  138.0120 C   0  0  0  0  0  3  0  0  0  0  0  0
  183.2140  175.3190  138.5820 O   0  0  0  0  0  1  0  0  0  0  0  0
  182.8660  177.1230  140.1440 C   0  0  0  0  0  3  0  0  0  0  0  0
  182.3780  179.3500  139.3290 C   0  0  0  0  0  3  0  0  0  0  0  0
  182.5840  178.4750  140.4000 C   0  0  0  0  0  0  0  0  0  0  0  0
  182.7270  177.5360  137.7630 C   0  0  0  0  0  3  0  0  0  0  0  0
  1  9  1  6  0  0  0
  1 14  1  0  0  0  0
  2 13  1  0  0  0  0
  2  3  1  0  0  0  0
  3 19  1  0  0  0  0
  4 11  2  0  0  0  0
  5 14  1  6  0  0  0
  5  2  1  0  0  0  0
  6 17  1  0  0  0  0
  6  1  1  0  0  0  0
  7  3  2  0  0  0  0
  7  4  1  0  0  0  0
  8 21  1  1  0  0  0
  8 13  1  0  0  0  0
 11 15  1  0  0  0  0
 12  8  1  0  0  0  0
 13 18  2  0  0  0  0
 16 17  1  6  0  0  0
 16 12  1  0  0  0  0
 16  5  1  0  0  0  0
 18 10  1  0  0  0  0
 19 10  2  0  0  0  0
 19 20  1  0  0  0  0
 20 15  2  0  0  0  0
 21 23  1  0  0  0  0
 23 22  1  1  0  0  0
 24 23  1  0  0  0  0
 25 28  1  0  0  0  0
 26 29  2  0  0  0  0
 27 25  1  0  0  0  0
 28 30  2  0  0  0  0
 29 30  1  0  0  0  0
 30 24  1  0  0  0  0
 31 26  1  0  0  0  0
 31 25  2  0  0  0  0
M  END
>  <MODEL>
2

>  <REMARK>
 VINA RESULT:      -9.0      2.740      6.988
  Name = 
  4 active torsions:
  status: ('A' for Active; 'I' for Inactive)
    1  A    between atoms: O_3  and  C_9
    2  A    between atoms: O_3  and  C_22
    3  A    between atoms: C_9  and  C_23
    4  A    between atoms: C_15  and  C_23
                            x       y       z     vdW  Elec       q    Type
                         _______ _______ _______ _____ _____    ______ ____

>  <TORSDO>
F 4

$$$$
=
 OpenBabel11052412593D

 31 35  0  0  1  0  0  0  0  0999 V2000
  182.4750  176.7850  137.9460 C   0  0  2  0  0  3  0  0  0  0  0  0
  185.4980  178.1960  139.8160 N   0  0  0  0  0  0  0  0  0  0  0  0
  186.5990  178.2610  138.8720 C   0  0  0  0  0  0  0  0  0  0  0  0
  187.1820  178.5420  136.4000 C   0  0  0  0  0  3  0  0  0  0  0  0
  184.0980  178.0370  139.3700 C   0  0  1  0  0  3  0  0  0  0  0  0
  181.4790  176.7400  139.1090 C   0  0  0  0  0  2  0  0  0  0  0  0
  186.3140  178.4270  137.5750 C   0  0  0  0  0  3  0  0  0  0  0  0
  184.6480  178.6270  142.2010 C   0  0  1  0  0  3  0  0  0  0  0  0
  182.2900  175.6170  137.1040 N   0  0  0  0  0  1  0  0  0  0  0  0
  188.1250  178.3040  140.7530 C   0  0  0  0  0  3  0  0  0  0  0  0
  188.4970  178.3840  136.3110 C   0  0  0  0  0  3  0  0  0  0  0  0
  183.3940  178.9410  141.5180 N   0  0  0  0  0  2  0  0  0  0  0  0
  185.7800  178.4700  141.2080 C   0  0  0  0  0  0  0  0  0  0  0  0
  183.9140  176.8190  138.4630 C   0  0  0  0  0  2  0  0  0  0  0  0
  189.4440  178.0640  137.3770 C   0  0  0  0  0  3  0  0  0  0  0  0
  183.1470  177.8800  140.5580 C   0  0  1  0  0  3  0  0  0  0  0  0
  181.7070  177.9110  140.0660 C   0  0  0  0  0  2  0  0  0  0  0  0
  187.0080  178.4780  141.6320 N   0  0  0  0  0  0  0  0  0  0  0  0
  187.9780  178.2110  139.4300 C   0  0  0  0  0  0  0  0  0  0  0  0
  189.2220  177.9980  138.6840 C   0  0  0  0  0  3  0  0  0  0  0  0
  184.9600  179.7170  143.2190 C   0  0  0  0  0  2  0  0  0  0  0  0
  183.5240  178.9140  145.0650 C   0  0  0  0  0  1  0  0  0  0  0  0
  184.9560  179.1580  144.6320 C   0  0  1  0  0  3  0  0  0  0  0  0
  185.6840  177.9340  144.6700 O   0  0  0  0  0  0  0  0  0  0  0  0
  188.0140  177.7770  147.5640 C   0  0  0  0  0  0  0  0  0  0  0  0
  189.1970  177.1870  145.5360 C   0  0  0  0  0  3  0  0  0  0  0  0
  188.0090  177.9810  148.9380 O   0  0  0  0  0  1  0  0  0  0  0  0
  186.8410  177.9600  146.8270 C   0  0  0  0  0  3  0  0  0  0  0  0
  188.0230  177.3700  144.7990 C   0  0  0  0  0  3  0  0  0  0  0  0
  186.8400  177.7550  145.4380 C   0  0  0  0  0  0  0  0  0  0  0  0
  189.1920  177.3910  146.9190 C   0  0  0  0  0  3  0  0  0  0  0  0
  1  9  1  6  0  0  0
  1 14  1  0  0  0  0
  1  6  1  0  0  0  0
  2 13  1  0  0  0  0
  3 19  1  0  0  0  0
  3  2  1  0  0  0  0
  4  7  1  0  0  0  0
  5 14  1  6  0  0  0
  5  2  1  0  0  0  0
  5 16  1  0  0  0  0
  6 17  1  0  0  0  0
  7  3  2  0  0  0  0
  8 21  1  1  0  0  0
 10 18  1  0  0  0  0
 11  4  2  0  0  0  0
 11 15  1  0  0  0  0
 12  8  1  0  0  0  0
 13 18  2  0  0  0  0
 13  8  1  0  0  0  0
 15 20  2  0  0  0  0
 16 17  1  6  0  0  0
 16 12  1  0  0  0  0
 19 10  2  0  0  0  0
 20 19  1  0  0  0  0
 21 23  1  0  0  0  0
 23 24  1  0  0  0  0
 23 22  1  6  0  0  0
 24 30  1  0  0  0  0
 25 27  1  0  0  0  0
 26 31  2  0  0  0  0
 28 25  2  0  0  0  0
 29 30  2  0  0  0  0
 29 26  1  0  0  0  0
 30 28  1  0  0  0  0
 31 25  1  0  0  0  0
M  END
>  <MODEL>
3

>  <REMARK>
 VINA RESULT:      -8.8      2.369      4.846
  Name = 
  4 active torsions:
  status: ('A' for Active; 'I' for Inactive)
    1  A    between atoms: O_3  and  C_9
    2  A    between atoms: O_3  and  C_22
    3  A    between atoms: C_9  and  C_23
    4  A    between atoms: C_15  and  C_23
                            x       y       z     vdW  Elec       q    Type
                         _______ _______ _______ _____ _____    ______ ____

>  <TORSDO>
F 4

$$$$
=
 OpenBabel11052412593D

 31 35  0  0  1  0  0  0  0  0999 V2000
  186.8960  178.2130  138.9950 C   0  0  2  0  0  3  0  0  0  0  0  0
  184.3630  178.2810  141.8600 N   0  0  0  0  0  0  0  0  0  0  0  0
  183.0480  178.0860  141.2800 C   0  0  0  0  0  0  0  0  0  0  0  0
  181.7910  177.0050  139.3340 C   0  0  0  0  0  3  0  0  0  0  0  0
  185.5990  177.9650  141.1130 C   0  0  1  0  0  3  0  0  0  0  0  0
  188.1680  178.4940  139.7990 C   0  0  0  0  0  2  0  0  0  0  0  0
  182.9520  177.3800  140.1460 C   0  0  0  0  0  3  0  0  0  0  0  0
  185.7790  178.6330  143.9740 C   0  0  1  0  0  3  0  0  0  0  0  0
  186.9650  178.9030  137.7200 N   0  0  0  0  0  1  0  0  0  0  0  0
  182.0930  179.0820  143.2700 C   0  0  0  0  0  3  0  0  0  0  0  0
  180.5250  177.3820  139.4580 C   0  0  0  0  0  3  0  0  0  0  0  0
  186.7620  177.8300  143.2480 N   0  0  0  0  0  2  0  0  0  0  0  0
  184.4430  178.6260  143.2630 C   0  0  0  0  0  0  0  0  0  0  0  0
  185.6550  178.6760  139.7590 C   0  0  0  0  0  2  0  0  0  0  0  0
  179.9400  178.2740  140.4570 C   0  0  0  0  0  3  0  0  0  0  0  0
  186.8480  178.3670  141.9010 C   0  0  1  0  0  3  0  0  0  0  0  0
  188.0900  177.8540  141.1850 C   0  0  0  0  0  2  0  0  0  0  0  0
  183.3820  179.0330  143.8920 N   0  0  0  0  0  0  0  0  0  0  0  0
  181.8850  178.6280  142.0330 C   0  0  0  0  0  0  0  0  0  0  0  0
  180.5130  178.7900  141.5380 C   0  0  0  0  0  3  0  0  0  0  0  0
  185.6440  178.1060  145.3980 C   0  0  0  0  0  2  0  0  0  0  0  0
  186.4280  179.1550  147.4950 C   0  0  0  0  0  1  0  0  0  0  0  0
  186.8700  178.4560  146.2240 C   0  0  1  0  0  3  0  0  0  0  0  0
  187.5870  177.2690  146.5550 O   0  0  0  0  0  0  0  0  0  0  0  0
  191.2350  176.7530  147.0560 C   0  0  0  0  0  0  0  0  0  0  0  0
  190.7660  176.9960  144.6940 C   0  0  0  0  0  3  0  0  0  0  0  0
  192.1430  176.5570  148.0880 O   0  0  0  0  0  1  0  0  0  0  0  0
  189.8760  176.9080  147.3420 C   0  0  0  0  0  3  0  0  0  0  0  0
  189.4060  177.1510  144.9810 C   0  0  0  0  0  3  0  0  0  0  0  0
  188.9530  177.1060  146.3030 C   0  0  0  0  0  0  0  0  0  0  0  0
  191.6800  176.7970  145.7330 C   0  0  0  0  0  3  0  0  0  0  0  0
  1  9  1  6  0  0  0
  1 14  1  0  0  0  0
  1  6  1  0  0  0  0
  2 13  1  0  0  0  0
  3  2  1  0  0  0  0
  3 19  1  0  0  0  0
  4 11  2  0  0  0  0
  4  7  1  0  0  0  0
  5 14  1  6  0  0  0
  5  2  1  0  0  0  0
  5 16  1  0  0  0  0
  6 17  1  0  0  0  0
  7  3  2  0  0  0  0
  8 21  1  1  0  0  0
 10 18  1  0  0  0  0
 11 15  1  0  0  0  0
 12  8  1  0  0  0  0
 13 18  2  0  0  0  0
 13  8  1  0  0  0  0
 15 20  2  0  0  0  0
 16 17  1  6  0  0  0
 16 12  1  0  0  0  0
 19 10  2  0  0  0  0
 20 19  1  0  0  0  0
 21 23  1  0  0  0  0
 23 24  1  0  0  0  0
 23 22  1  1  0  0  0
 25 28  1  0  0  0  0
 25 27  1  0  0  0  0
 26 29  2  0  0  0  0
 26 31  1  0  0  0  0
 29 30  1  0  0  0  0
 30 24  1  0  0  0  0
 30 28  2  0  0  0  0
 31 25  2  0  0  0  0
M  END
>  <MODEL>
4

>  <REMARK>
 VINA RESULT:      -8.8      2.787      5.002
  Name = 
  4 active torsions:
  status: ('A' for Active; 'I' for Inactive)
    1  A    between atoms: O_3  and  C_9
    2  A    between atoms: O_3  and  C_22
    3  A    between atoms: C_9  and  C_23
    4  A    between atoms: C_15  and  C_23
                            x       y       z     vdW  Elec       q    Type
                         _______ _______ _______ _____ _____    ______ ____

>  <TORSDO>
F 4

$$$$
=
 OpenBabel11052412593D

 31 35  0  0  1  0  0  0  0  0999 V2000
  185.1400  178.4760  145.7910 C   0  0  2  0  0  3  0  0  0  0  0  0
  186.4900  178.1160  142.2310 N   0  0  0  0  0  0  0  0  0  0  0  0
  187.8150  177.5350  142.3270 C   0  0  0  0  0  0  0  0  0  0  0  0
  189.2990  176.0030  143.7360 C   0  0  0  0  0  3  0  0  0  0  0  0
  185.5360  178.0740  143.3590 C   0  0  1  0  0  3  0  0  0  0  0  0
  183.8020  179.1480  145.4680 C   0  0  0  0  0  2  0  0  0  0  0  0
  188.0850  176.7360  143.3670 C   0  0  0  0  0  3  0  0  0  0  0  0
  184.6060  179.0020  140.7260 C   0  0  1  0  0  3  0  0  0  0  0  0
  185.6920  179.0510  147.0030 N   0  0  0  0  0  1  0  0  0  0  0  0
  188.2890  178.4080  140.1170 C   0  0  0  0  0  3  0  0  0  0  0  0
  190.5040  176.0440  143.1810 C   0  0  0  0  0  3  0  0  0  0  0  0
  183.7400  178.4280  141.7540 N   0  0  0  0  0  2  0  0  0  0  0  0
  186.0460  178.5860  140.9360 C   0  0  0  0  0  0  0  0  0  0  0  0
  186.1320  178.6590  144.6420 C   0  0  0  0  0  2  0  0  0  0  0  0
  190.9440  176.8310  142.0320 C   0  0  0  0  0  3  0  0  0  0  0  0
  184.2580  178.8540  143.0430 C   0  0  1  0  0  3  0  0  0  0  0  0
  183.2360  178.6280  144.1470 C   0  0  0  0  0  2  0  0  0  0  0  0
  186.9060  178.7510  139.9760 N   0  0  0  0  0  0  0  0  0  0  0  0
  188.7630  177.8130  141.2140 C   0  0  0  0  0  0  0  0  0  0  0  0
  190.2100  177.5680  141.2070 C   0  0  0  0  0  3  0  0  0  0  0  0
  184.1090  178.5790  139.3480 C   0  0  0  0  0  2  0  0  0  0  0  0
  182.3870  180.2360  138.7110 C   0  0  0  0  0  1  0  0  0  0  0  0
  182.6150  178.8230  139.2120 C   0  0  1  0  0  3  0  0  0  0  0  0
  182.0550  177.8910  138.2910 O   0  0  0  0  0  0  0  0  0  0  0  0
  179.7440  175.6960  140.2080 C   0  0  0  0  0  0  0  0  0  0  0  0
  180.6140  174.4900  138.2980 C   0  0  0  0  0  3  0  0  0  0  0  0
  178.9460  175.7370  141.3430 O   0  0  0  0  0  1  0  0  0  0  0  0
  180.4860  176.8200  139.8360 C   0  0  0  0  0  3  0  0  0  0  0  0
  181.3560  175.6150  137.9260 C   0  0  0  0  0  3  0  0  0  0  0  0
  181.2960  176.7850  138.6890 C   0  0  0  0  0  0  0  0  0  0  0  0
  179.8080  174.5310  139.4400 C   0  0  0  0  0  3  0  0  0  0  0  0
  1  9  1  1  0  0  0
  2  3  1  0  0  0  0
  2  5  1  0  0  0  0
  3  7  2  0  0  0  0
  5 14  1  1  0  0  0
  6  1  1  0  0  0  0
  7  4  1  0  0  0  0
  8 21  1  6  0  0  0
  8 13  1  0  0  0  0
  8 12  1  0  0  0  0
 10 19  2  0  0  0  0
 11  4  2  0  0  0  0
 12 16  1  0  0  0  0
 13  2  1  0  0  0  0
 14  1  1  0  0  0  0
 15 11  1  0  0  0  0
 16  5  1  0  0  0  0
 16 17  1  1  0  0  0
 17  6  1  0  0  0  0
 18 10  1  0  0  0  0
 18 13  2  0  0  0  0
 19  3  1  0  0  0  0
 20 19  1  0  0  0  0
 20 15  2  0  0  0  0
 23 22  1  6  0  0  0
 23 21  1  0  0  0  0
 24 30  1  0  0  0  0
 24 23  1  0  0  0  0
 25 27  1  0  0  0  0
 26 31  1  0  0  0  0
 28 25  1  0  0  0  0
 29 26  2  0  0  0  0
 29 30  1  0  0  0  0
 30 28  2  0  0  0  0
 31 25  2  0  0  0  0
M  END
>  <MODEL>
5

>  <REMARK>
 VINA RESULT:      -8.6      3.968      7.774
  Name = 
  4 active torsions:
  status: ('A' for Active; 'I' for Inactive)
    1  A    between atoms: O_3  and  C_9
    2  A    between atoms: O_3  and  C_22
    3  A    between atoms: C_9  and  C_23
    4  A    between atoms: C_15  and  C_23
                            x       y       z     vdW  Elec       q    Type
                         _______ _______ _______ _____ _____    ______ ____

>  <TORSDO>
F 4

$$$$
=
 OpenBabel11052412593D

 31 35  0  0  1  0  0  0  0  0999 V2000
  185.1810  178.4810  145.8490 C   0  0  2  0  0  3  0  0  0  0  0  0
  186.2580  178.1050  142.1990 N   0  0  0  0  0  0  0  0  0  0  0  0
  187.5970  177.5460  142.1980 C   0  0  0  0  0  0  0  0  0  0  0  0
  189.2090  176.0520  143.5030 C   0  0  0  0  0  3  0  0  0  0  0  0
  185.3950  178.0600  143.3980 C   0  0  1  0  0  3  0  0  0  0  0  0
  183.8110  179.1280  145.6250 C   0  0  0  0  0  2  0  0  0  0  0  0
  187.9590  176.7630  143.2220 C   0  0  0  0  0  3  0  0  0  0  0  0
  184.2500  178.9460  140.8360 C   0  0  1  0  0  3  0  0  0  0  0  0
  185.8150  179.0780  147.0100 N   0  0  0  0  0  1  0  0  0  0  0  0
  187.8840  178.4030  139.9500 C   0  0  0  0  0  3  0  0  0  0  0  0
  190.3670  176.1060  142.8560 C   0  0  0  0  0  3  0  0  0  0  0  0
  183.4750  178.3690  141.9340 N   0  0  0  0  0  2  0  0  0  0  0  0
  185.7080  178.5540  140.9380 C   0  0  0  0  0  0  0  0  0  0  0  0
  186.0780  178.6680  144.6250 C   0  0  0  0  0  2  0  0  0  0  0  0
  190.7040  176.8890  141.6690 C   0  0  0  0  0  3  0  0  0  0  0  0
  184.0840  178.8160  143.1740 C   0  0  1  0  0  3  0  0  0  0  0  0
  183.1530  178.5850  144.3560 C   0  0  0  0  0  2  0  0  0  0  0  0
  186.4890  178.7230  139.9130 N   0  0  0  0  0  0  0  0  0  0  0  0
  188.4510  177.8270  141.0130 C   0  0  0  0  0  0  0  0  0  0  0  0
  189.8960  177.6040  140.8960 C   0  0  0  0  0  3  0  0  0  0  0  0
  183.6550  178.5000  139.5050 C   0  0  0  0  0  2  0  0  0  0  0  0
  182.1710  179.3230  137.7060 C   0  0  0  0  0  1  0  0  0  0  0  0
  182.3670  179.2490  139.2080 C   0  0  1  0  0  3  0  0  0  0  0  0
  181.2640  178.5710  139.8030 O   0  0  0  0  0  0  0  0  0  0  0  0
  179.4810  178.9880  143.0400 C   0  0  0  0  0  0  0  0  0  0  0  0
  179.1800  180.9720  141.6850 C   0  0  0  0  0  3  0  0  0  0  0  0
  179.2450  178.2870  144.2150 O   0  0  0  0  0  1  0  0  0  0  0  0
  180.2550  178.4140  142.0280 C   0  0  0  0  0  3  0  0  0  0  0  0
  179.9550  180.3960  140.6720 C   0  0  0  0  0  3  0  0  0  0  0  0
  180.4970  179.1180  140.8370 C   0  0  0  0  0  0  0  0  0  0  0  0
  178.9430  180.2660  142.8680 C   0  0  0  0  0  3  0  0  0  0  0  0
  1  9  1  1  0  0  0
  2  5  1  0  0  0  0
  3  2  1  0  0  0  0
  3  7  2  0  0  0  0
  5 14  1  1  0  0  0
  6  1  1  0  0  0  0
  7  4  1  0  0  0  0
  8 21  1  6  0  0  0
  8 13  1  0  0  0  0
  8 12  1  0  0  0  0
 10 19  2  0  0  0  0
 11  4  2  0  0  0  0
 12 16  1  0  0  0  0
 13  2  1  0  0  0  0
 14  1  1  0  0  0  0
 15 11  1  0  0  0  0
 16  5  1  0  0  0  0
 16 17  1  1  0  0  0
 17  6  1  0  0  0  0
 18 10  1  0  0  0  0
 18 13  2  0  0  0  0
 19  3  1  0  0  0  0
 20 19  1  0  0  0  0
 20 15  2  0  0  0  0
 23 22  1  6  0  0  0
 23 21  1  0  0  0  0
 23 24  1  0  0  0  0
 24 30  1  0  0  0  0
 25 27  1  0  0  0  0
 26 31  2  0  0  0  0
 28 25  2  0  0  0  0
 29 30  2  0  0  0  0
 29 26  1  0  0  0  0
 30 28  1  0  0  0  0
 31 25  1  0  0  0  0
M  END
>  <MODEL>
6

>  <REMARK>
 VINA RESULT:      -8.6      3.743      7.339
  Name = 
  4 active torsions:
  status: ('A' for Active; 'I' for Inactive)
    1  A    between atoms: O_3  and  C_9
    2  A    between atoms: O_3  and  C_22
    3  A    between atoms: C_9  and  C_23
    4  A    between atoms: C_15  and  C_23
                            x       y       z     vdW  Elec       q    Type
                         _______ _______ _______ _____ _____    ______ ____

>  <TORSDO>
F 4

$$$$
=
 OpenBabel11052412593D

 31 35  0  0  1  0  0  0  0  0999 V2000
  191.3730  175.7470  136.4080 C   0  0  2  0  0  3  0  0  0  0  0  0
  188.1470  176.9770  138.0520 N   0  0  0  0  0  0  0  0  0  0  0  0
  187.0410  176.5190  137.2320 C   0  0  0  0  0  0  0  0  0  0  0  0
  186.2850  174.6770  135.6290 C   0  0  0  0  0  3  0  0  0  0  0  0
  189.5020  176.4010  137.9250 C   0  0  1  0  0  3  0  0  0  0  0  0
  192.3830  176.3770  137.3700 C   0  0  0  0  0  2  0  0  0  0  0  0
  187.1980  175.3930  136.5250 C   0  0  0  0  0  3  0  0  0  0  0  0
  188.9230  178.2370  140.1510 C   0  0  1  0  0  3  0  0  0  0  0  0
  191.8820  175.8240  135.0510 N   0  0  0  0  0  1  0  0  0  0  0  0
  185.6700  178.2500  138.2280 C   0  0  0  0  0  3  0  0  0  0  0  0
  185.0870  175.0410  135.1880 C   0  0  0  0  0  3  0  0  0  0  0  0
  189.9780  177.2240  140.1660 N   0  0  0  0  0  2  0  0  0  0  0  0
  187.8560  177.8920  139.1340 C   0  0  0  0  0  0  0  0  0  0  0  0
  190.0240  176.4630  136.4880 C   0  0  0  0  0  2  0  0  0  0  0  0
  184.3430  176.2610  135.4930 C   0  0  0  0  0  3  0  0  0  0  0  0
  190.5070  177.1330  138.8160 C   0  0  1  0  0  3  0  0  0  0  0  0
  191.8370  176.3930  138.7990 C   0  0  0  0  0  2  0  0  0  0  0  0
  186.7110  178.5040  139.1770 N   0  0  0  0  0  0  0  0  0  0  0  0
  185.7780  177.3040  137.2930 C   0  0  0  0  0  0  0  0  0  0  0  0
  184.6340  177.2040  136.3800 C   0  0  0  0  0  3  0  0  0  0  0  0
  188.3260  178.3690  141.5480 C   0  0  0  0  0  2  0  0  0  0  0  0
  189.9350  178.4420  143.4240 C   0  0  0  0  0  1  0  0  0  0  0  0
  189.0980  177.5280  142.5500 C   0  0  1  0  0  3  0  0  0  0  0  0
  188.1910  176.7870  143.3610 O   0  0  0  0  0  0  0  0  0  0  0  0
  185.9110  178.3210  145.8670 C   0  0  0  0  0  0  0  0  0  0  0  0
  187.9770  177.6640  146.9430 C   0  0  0  0  0  3  0  0  0  0  0  0
  184.6440  178.8850  145.9370 O   0  0  0  0  0  1  0  0  0  0  0  0
  186.3950  177.8430  144.6460 C   0  0  0  0  0  3  0  0  0  0  0  0
  188.4620  177.1870  145.7210 C   0  0  0  0  0  3  0  0  0  0  0  0
  187.6750  177.2710  144.5680 C   0  0  0  0  0  0  0  0  0  0  0  0
  186.7020  178.2320  147.0150 C   0  0  0  0  0  3  0  0  0  0  0  0
  1  9  1  6  0  0  0
  1 14  1  0  0  0  0
  1  6  1  0  0  0  0
  2 13  1  0  0  0  0
  3 19  1  0  0  0  0
  3  2  1  0  0  0  0
  4  7  1  0  0  0  0
  5 14  1  6  0  0  0
  5  2  1  0  0  0  0
  5 16  1  0  0  0  0
  6 17  1  0  0  0  0
  7  3  2  0  0  0  0
  8 12  1  0  0  0  0
  8 21  1  1  0  0  0
 10 18  1  0  0  0  0
 11 15  1  0  0  0  0
 11  4  2  0  0  0  0
 13 18  2  0  0  0  0
 13  8  1  0  0  0  0
 15 20  2  0  0  0  0
 16 17  1  1  0  0  0
 16 12  1  0  0  0  0
 19 10  2  0  0  0  0
 20 19  1  0  0  0  0
 21 23  1  0  0  0  0
 23 24  1  0  0  0  0
 23 22  1  1  0  0  0
 24 30  1  0  0  0  0
 25 27  1  0  0  0  0
 25 31  1  0  0  0  0
 26 31  2  0  0  0  0
 28 25  2  0  0  0  0
 29 26  1  0  0  0  0
 30 28  1  0  0  0  0
 30 29  2  0  0  0  0
M  END
>  <MODEL>
7

>  <REMARK>
 VINA RESULT:      -8.4      1.961      3.194
  Name = 
  4 active torsions:
  status: ('A' for Active; 'I' for Inactive)
    1  A    between atoms: O_3  and  C_9
    2  A    between atoms: O_3  and  C_22
    3  A    between atoms: C_9  and  C_23
    4  A    between atoms: C_15  and  C_23
                            x       y       z     vdW  Elec       q    Type
                         _______ _______ _______ _____ _____    ______ ____

>  <TORSDO>
F 4

$$$$
=
 OpenBabel11052412593D

 31 35  0  0  1  0  0  0  0  0999 V2000
  184.9560  178.6640  138.9300 C   0  0  2  0  0  3  0  0  0  0  0  0
  188.6140  177.5620  139.1080 N   0  0  0  0  0  0  0  0  0  0  0  0
  189.0880  177.4100  137.7450 C   0  0  0  0  0  0  0  0  0  0  0  0
  188.7840  178.2490  135.3500 C   0  0  0  0  0  3  0  0  0  0  0  0
  187.3760  178.3050  139.4250 C   0  0  1  0  0  3  0  0  0  0  0  0
  184.6480  178.7000  140.4290 C   0  0  0  0  0  2  0  0  0  0  0  0
  188.5250  178.1610  136.7900 C   0  0  0  0  0  3  0  0  0  0  0  0
  189.1400  177.4460  141.6200 C   0  0  1  0  0  3  0  0  0  0  0  0
  183.8040  178.1540  138.2100 N   0  0  0  0  0  1  0  0  0  0  0  0
  190.8560  175.9850  138.5870 C   0  0  0  0  0  3  0  0  0  0  0  0
  189.5750  177.5000  134.5940 C   0  0  0  0  0  3  0  0  0  0  0  0
  188.2110  178.5730  141.6960 N   0  0  0  0  0  2  0  0  0  0  0  0
  189.4800  177.1220  140.1810 C   0  0  0  0  0  0  0  0  0  0  0  0
  186.1700  177.7790  138.6450 C   0  0  0  0  0  2  0  0  0  0  0  0
  190.4220  176.3810  135.0010 C   0  0  0  0  0  3  0  0  0  0  0  0
  187.0380  178.2210  140.9150 C   0  0  1  0  0  3  0  0  0  0  0  0
  185.8730  179.1490  141.2270 C   0  0  0  0  0  2  0  0  0  0  0  0
  190.4970  176.3570  139.9220 N   0  0  0  0  0  0  0  0  0  0  0  0
  190.2220  176.4740  137.5190 C   0  0  0  0  0  0  0  0  0  0  0  0
  190.6940  175.9580  136.2300 C   0  0  0  0  0  3  0  0  0  0  0  0
  190.3960  177.7680  142.4210 C   0  0  0  0  0  2  0  0  0  0  0  0
  191.6600  176.4590  144.0950 C   0  0  0  0  0  1  0  0  0  0  0  0
  190.3360  177.1370  143.8020 C   0  0  1  0  0  3  0  0  0  0  0  0
  190.0830  178.1400  144.7820 O   0  0  0  0  0  0  0  0  0  0  0  0
  186.8380  177.8600  146.5770 C   0  0  0  0  0  0  0  0  0  0  0  0
  188.6610  177.6820  148.1600 C   0  0  0  0  0  3  0  0  0  0  0  0
  185.4760  177.8770  146.3080 O   0  0  0  0  0  1  0  0  0  0  0  0
  187.7580  178.0070  145.5350 C   0  0  0  0  0  3  0  0  0  0  0  0
  189.5810  177.8290  147.1170 C   0  0  0  0  0  3  0  0  0  0  0  0
  189.1370  177.9910  145.8010 C   0  0  0  0  0  0  0  0  0  0  0  0
  187.2900  177.6980  147.8890 C   0  0  0  0  0  3  0  0  0  0  0  0
  1  9  1  6  0  0  0
  1  6  1  0  0  0  0
  2  5  1  0  0  0  0
  2 13  1  0  0  0  0
  3  2  1  0  0  0  0
  4  7  1  0  0  0  0
  5 14  1  6  0  0  0
  5 16  1  0  0  0  0
  6 17  1  0  0  0  0
  7  3  2  0  0  0  0
  8 12  1  0  0  0  0
  8 21  1  1  0  0  0
 10 18  1  0  0  0  0
 11 15  1  0  0  0  0
 11  4  2  0  0  0  0
 13  8  1  0  0  0  0
 14  1  1  0  0  0  0
 15 20  2  0  0  0  0
 16 17  1  6  0  0  0
 16 12  1  0  0  0  0
 18 13  2  0  0  0  0
 19  3  1  0  0  0  0
 19 10  2  0  0  0  0
 20 19  1  0  0  0  0
 21 23  1  0  0  0  0
 23 22  1  1  0  0  0
 23 24  1  0  0  0  0
 24 30  1  0  0  0  0
 25 31  1  0  0  0  0
 27 25  1  0  0  0  0
 28 30  1  0  0  0  0
 28 25  2  0  0  0  0
 29 26  1  0  0  0  0
 30 29  2  0  0  0  0
 31 26  2  0  0  0  0
M  END
>  <MODEL>
8

>  <REMARK>
 VINA RESULT:      -8.3      1.639      4.278
  Name = 
  4 active torsions:
  status: ('A' for Active; 'I' for Inactive)
    1  A    between atoms: O_3  and  C_9
    2  A    between atoms: O_3  and  C_22
    3  A    between atoms: C_9  and  C_23
    4  A    between atoms: C_15  and  C_23
                            x       y       z     vdW  Elec       q    Type
                         _______ _______ _______ _____ _____    ______ ____

>  <TORSDO>
F 4

$$$$
=
 OpenBabel11052412593D

 31 35  0  0  1  0  0  0  0  0999 V2000
  184.8650  178.5240  145.4010 C   0  0  2  0  0  3  0  0  0  0  0  0
  186.4550  178.1200  141.9470 N   0  0  0  0  0  0  0  0  0  0  0  0
  187.7660  177.5300  142.1400 C   0  0  0  0  0  0  0  0  0  0  0  0
  189.1370  176.0010  143.6630 C   0  0  0  0  0  3  0  0  0  0  0  0
  185.4260  178.0960  143.0070 C   0  0  1  0  0  3  0  0  0  0  0  0
  183.5580  179.2020  144.9810 C   0  0  0  0  0  2  0  0  0  0  0  0
  187.9570  176.7400  143.2040 C   0  0  0  0  0  3  0  0  0  0  0  0
  184.6870  179.0050  140.3070 C   0  0  1  0  0  3  0  0  0  0  0  0
  185.3360  179.1070  146.6440 N   0  0  0  0  0  1  0  0  0  0  0  0
  188.3980  178.3790  139.9610 C   0  0  0  0  0  3  0  0  0  0  0  0
  190.3770  176.0280  143.1920 C   0  0  0  0  0  3  0  0  0  0  0  0
  183.7480  178.4470  141.2780 N   0  0  0  0  0  2  0  0  0  0  0  0
  186.1060  178.5800  140.6200 C   0  0  0  0  0  0  0  0  0  0  0  0
  185.9360  178.6890  144.3220 C   0  0  0  0  0  2  0  0  0  0  0  0
  190.9020  176.8020  142.0690 C   0  0  0  0  0  3  0  0  0  0  0  0
  184.1790  178.8820  142.5950 C   0  0  1  0  0  3  0  0  0  0  0  0
  183.0810  178.6730  143.6280 C   0  0  0  0  0  2  0  0  0  0  0  0
  187.0310  178.7300  139.7210 N   0  0  0  0  0  0  0  0  0  0  0  0
  188.7910  177.7910  141.0930 C   0  0  0  0  0  0  0  0  0  0  0  0
  190.2330  177.5350  141.1880 C   0  0  0  0  0  3  0  0  0  0  0  0
  184.2830  178.5720  138.9020 C   0  0  0  0  0  2  0  0  0  0  0  0
  182.0520  177.6340  138.3970 C   0  0  0  0  0  1  0  0  0  0  0  0
  183.4300  177.3160  138.9460 C   0  0  1  0  0  3  0  0  0  0  0  0
  184.0350  176.2920  138.1610 O   0  0  0  0  0  0  0  0  0  0  0  0
  187.0990  176.8160  136.1200 C   0  0  0  0  0  0  0  0  0  0  0  0
  185.1370  177.1260  134.7350 C   0  0  0  0  0  3  0  0  0  0  0  0
  188.4800  176.7990  136.2630 O   0  0  0  0  0  1  0  0  0  0  0  0
  186.2800  176.5420  137.2190 C   0  0  0  0  0  3  0  0  0  0  0  0
  184.3180  176.8520  135.8360 C   0  0  0  0  0  3  0  0  0  0  0  0
  184.8820  176.5570  137.0810 C   0  0  0  0  0  0  0  0  0  0  0  0
  186.5270  177.1080  134.8790 C   0  0  0  0  0  3  0  0  0  0  0  0
  1  9  1  1  0  0  0
  2  3  1  0  0  0  0
  2  5  1  0  0  0  0
  3  7  2  0  0  0  0
  5 14  1  1  0  0  0
  6  1  1  0  0  0  0
  7  4  1  0  0  0  0
  8 21  1  6  0  0  0
  8 13  1  0  0  0  0
  8 12  1  0  0  0  0
 10 19  2  0  0  0  0
 11  4  2  0  0  0  0
 12 16  1  0  0  0  0
 13  2  1  0  0  0  0
 14  1  1  0  0  0  0
 15 11  1  0  0  0  0
 16  5  1  0  0  0  0
 16 17  1  1  0  0  0
 17  6  1  0  0  0  0
 18 10  1  0  0  0  0
 18 13  2  0  0  0  0
 19 20  1  0  0  0  0
 19  3  1  0  0  0  0
 20 15  2  0  0  0  0
 21 23  1  0  0  0  0
 23 22  1  6  0  0  0
 24 23  1  0  0  0  0
 25 27  1  0  0  0  0
 25 28  1  0  0  0  0
 26 31  1  0  0  0  0
 26 29  2  0  0  0  0
 29 30  1  0  0  0  0
 30 28  2  0  0  0  0
 30 24  1  0  0  0  0
 31 25  2  0  0  0  0
M  END
>  <MODEL>
9

>  <REMARK>
 VINA RESULT:      -8.3      3.228      7.660
  Name = 
  4 active torsions:
  status: ('A' for Active; 'I' for Inactive)
    1  A    between atoms: O_3  and  C_9
    2  A    between atoms: O_3  and  C_22
    3  A    between atoms: C_9  and  C_23
    4  A    between atoms: C_15  and  C_23
                            x       y       z     vdW  Elec       q    Type
                         _______ _______ _______ _____ _____    ______ ____

>  <TORSDO>
F 4

$$$$
