=
 OpenBabel11052416183D

 43 49  0  0  1  0  0  0  0  0999 V2000
  184.7130  178.6870  145.8110 C   0  0  0  0  0  0  0  0  0  0  0  0
  182.2570  178.8860  141.3620 C   0  0  0  0  0  0  0  0  0  0  0  0
  184.2340  178.8060  139.2490 C   0  0  2  0  0  3  0  0  0  0  0  0
  183.0230  178.7240  144.0510 C   0  0  0  0  0  0  0  0  0  0  0  0
  185.7720  178.9860  144.7850 C   0  0  0  0  0  2  0  0  0  0  0  0
  185.0580  178.5860  147.1180 F   0  0  0  0  0  0  0  0  0  0  0  0
  184.0030  178.6500  143.0420 C   0  0  0  0  0  0  0  0  0  0  0  0
  183.4230  178.6320  145.4650 C   0  0  0  0  0  3  0  0  0  0  0  0
  185.4330  178.3720  143.4240 C   0  0  0  0  0  2  0  0  0  0  0  0
  184.5950  178.6190  140.6520 N   0  0  0  0  0  2  0  0  0  0  0  0
  183.6190  178.7370  141.6940 C   0  0  0  0  0  0  0  0  0  0  0  0
  181.2950  178.9620  142.3760 C   0  0  0  0  0  3  0  0  0  0  0  0
  181.8250  178.9970  139.9260 C   0  0  2  0  0  3  0  0  0  0  0  0
  182.8180  178.2960  138.9920 C   0  0  0  0  0  2  0  0  0  0  0  0
  181.6770  178.8780  143.7150 C   0  0  0  0  0  3  0  0  0  0  0  0
  185.2100  178.1180  138.3560 C   0  0  0  0  0  0  0  0  0  0  0  0
  186.6160  178.3490  138.5050 N   0  0  0  0  0  2  0  0  0  0  0  0
  184.7870  177.2990  137.4970 O   0  0  0  0  0  0  0  0  0  0  0  0
  187.6210  177.6970  137.6770 C   0  0  1  0  0  3  0  0  0  0  0  0
  188.3060  178.7220  136.7900 C   0  0  0  0  0  1  0  0  0  0  0  0
  188.6590  177.0430  138.5700 C   0  0  2  0  0  3  0  0  0  0  0  0
  189.4480  178.0890  139.2540 N   0  0  2  0  0  0  0  0  0  0  0  0
  190.8680  176.3240  140.0890 N   0  0  0  0  0  2  0  0  0  0  0  0
  190.0050  177.3620  138.1040 C   0  0  1  0  0  3  0  0  0  0  0  0
  190.1450  177.5440  140.4240 C   0  0  2  0  0  3  0  0  0  0  0  0
  190.9870  176.3420  138.6420 C   0  0  0  0  0  2  0  0  0  0  0  0
  189.2260  177.3750  141.6370 C   0  0  0  0  0  2  0  0  0  0  0  0
  189.4690  176.0710  142.3860 C   0  0  0  0  0  2  0  0  0  0  0  0
  189.7070  176.3460  143.7920 N   0  0  0  0  0  0  0  0  0  0  0  0
  191.5320  176.8810  145.3860 C   0  0  0  0  0  2  0  0  0  0  0  0
  189.5190  178.1580  145.4770 C   0  0  0  0  0  2  0  0  0  0  0  0
  190.3400  177.1750  146.1860 N   0  0  0  0  0  2  0  0  0  0  0  0
  189.1470  177.6700  144.0670 C   0  0  0  0  0  2  0  0  0  0  0  0
  191.1590  176.4030  143.9750 C   0  0  0  0  0  2  0  0  0  0  0  0
  181.6950  180.4010  139.5600 N   0  0  0  0  0  2  0  0  0  0  0  0
  180.7360  182.6540  137.5960 N   0  0  0  0  0  0  0  0  0  0  0  0
  179.5180  181.4030  139.2480 C   0  0  0  0  0  2  0  0  0  0  0  0
  181.0230  181.2440  137.3970 C   0  0  0  0  0  2  0  0  0  0  0  0
  180.5740  180.5110  138.6400 C   0  0  1  0  0  3  0  0  0  0  0  0
  179.5570  182.6900  138.4500 C   0  0  0  0  0  2  0  0  0  0  0  0
  180.3550  183.1990  136.3030 C   0  0  0  0  0  2  0  0  0  0  0  0
  181.9350  184.8190  137.0640 O   0  0  0  0  0  1  0  0  0  0  0  0
  180.9050  184.6070  136.1470 C   0  0  0  0  0  2  0  0  0  0  0  0
  1  6  1  0  0  0  0
  2 11  2  0  0  0  0
  2 12  1  0  0  0  0
  3 16  1  6  0  0  0
  3 10  1  0  0  0  0
  4  8  1  0  0  0  0
  5  1  1  0  0  0  0
  7  9  1  0  0  0  0
  7  4  2  0  0  0  0
  8  1  2  0  0  0  0
  9  5  1  0  0  0  0
 10 11  1  0  0  0  0
 11  7  1  0  0  0  0
 12 15  2  0  0  0  0
 13 35  1  6  0  0  0
 13  2  1  0  0  0  0
 14  3  1  0  0  0  0
 14 13  1  0  0  0  0
 15  4  1  0  0  0  0
 16 17  1  0  0  0  0
 18 16  2  0  0  0  0
 19 20  1  6  0  0  0
 19 17  1  0  0  0  0
 21 19  1  6  0  0  0
 21 22  1  0  0  0  0
 22 25  1  0  0  0  0
 23 25  1  0  0  0  0
 24 21  1  0  0  0  0
 24 26  1  0  0  0  0
 24 22  1  0  0  0  0
 25 27  1  0  0  0  0
 26 23  1  0  0  0  0
 27 28  1  0  0  0  0
 28 29  1  0  0  0  0
 29 34  1  0  0  0  0
 29 33  1  0  0  0  0
 30 32  1  0  0  0  0
 31 32  1  0  0  0  0
 33 31  1  0  0  0  0
 34 30  1  0  0  0  0
 36 40  1  0  0  0  0
 38 36  1  0  0  0  0
 38 39  1  0  0  0  0
 39 37  1  0  0  0  0
 39 35  1  0  0  0  0
 40 37  1  0  0  0  0
 41 36  1  0  0  0  0
 43 41  1  0  0  0  0
 43 42  1  0  0  0  0
M  END
>  <MODEL>
1

>  <REMARK>
 VINA RESULT:      -9.5      0.000      0.000
  Name = 
  10 active torsions:
  status: ('A' for Active; 'I' for Inactive)
    1  A    between atoms: N_1  and  C_34
    2  A    between atoms: N_1  and  C_35
    3  A    between atoms: C_2  and  C_13
    4  A    between atoms: C_3  and  C_12
    5  A    between atoms: N_6  and  C_12
    6  A    between atoms: C_9  and  N_19
    7  A    between atoms: C_9  and  C_37
    8  A    between atoms: N_11  and  C_14
    9  A    between atoms: C_14  and  C_41
   10  A    between atoms: C_22  and  C_41
                            x       y       z     vdW  Elec       q    Type
                         _______ _______ _______ _____ _____    ______ ____

>  <TORSDO>
F 10

$$$$
=
 OpenBabel11052416183D

 43 49  0  0  1  0  0  0  0  0999 V2000
  188.5800  177.6500  145.5510 C   0  0  0  0  0  0  0  0  0  0  0  0
  190.5920  177.4260  140.8850 C   0  0  0  0  0  0  0  0  0  0  0  0
  188.4130  177.3620  138.9790 C   0  0  2  0  0  3  0  0  0  0  0  0
  190.0870  177.6330  143.6320 C   0  0  0  0  0  0  0  0  0  0  0  0
  187.4390  177.2770  144.6430 C   0  0  0  0  0  2  0  0  0  0  0  0
  188.3620  177.7730  146.8820 F   0  0  0  0  0  0  0  0  0  0  0  0
  189.0110  177.6370  142.7240 C   0  0  0  0  0  0  0  0  0  0  0  0
  189.8260  177.7480  145.0760 C   0  0  0  0  0  3  0  0  0  0  0  0
  187.6140  177.8650  143.2400 C   0  0  0  0  0  2  0  0  0  0  0  0
  188.1850  177.5740  140.4050 N   0  0  0  0  0  2  0  0  0  0  0  0
  189.2630  177.5270  141.3470 C   0  0  0  0  0  0  0  0  0  0  0  0
  191.6500  177.4190  141.7990 C   0  0  0  0  0  3  0  0  0  0  0  0
  190.8840  177.2920  139.4160 C   0  0  2  0  0  3  0  0  0  0  0  0
  189.7730  177.9240  138.5690 C   0  0  0  0  0  2  0  0  0  0  0  0
  191.4000  177.5260  143.1670 C   0  0  0  0  0  3  0  0  0  0  0  0
  187.3240  177.9830  138.1700 C   0  0  0  0  0  0  0  0  0  0  0  0
  185.9950  177.4520  138.2190 N   0  0  0  0  0  2  0  0  0  0  0  0
  187.5780  179.0040  137.4770 O   0  0  0  0  0  0  0  0  0  0  0  0
  184.8830  178.0210  137.4680 C   0  0  1  0  0  3  0  0  0  0  0  0
  184.4590  177.0640  136.3680 C   0  0  0  0  0  1  0  0  0  0  0  0
  183.7120  178.2510  138.4040 C   0  0  2  0  0  3  0  0  0  0  0  0
  183.5680  179.6990  138.6650 N   0  0  2  0  0  0  0  0  0  0  0  0
  181.8780  179.1300  140.2940 N   0  0  0  0  0  2  0  0  0  0  0  0
  184.1750  178.8140  139.6690 C   0  0  1  0  0  3  0  0  0  0  0  0
  182.2330  180.0110  139.1880 C   0  0  2  0  0  3  0  0  0  0  0  0
  183.1380  178.5690  140.7470 C   0  0  0  0  0  2  0  0  0  0  0  0
  181.1620  180.0510  138.0940 C   0  0  0  0  0  2  0  0  0  0  0  0
  180.1030  181.1160  138.3430 C   0  0  0  0  0  2  0  0  0  0  0  0
  180.0500  182.0330  137.2170 N   0  0  0  0  0  0  0  0  0  0  0  0
  181.1520  184.0630  136.3090 C   0  0  0  0  0  2  0  0  0  0  0  0
  180.7340  182.2310  134.8400 C   0  0  0  0  0  2  0  0  0  0  0  0
  180.3640  183.6110  135.1600 N   0  0  0  0  0  2  0  0  0  0  0  0
  180.5500  181.3020  136.0510 C   0  0  0  0  0  2  0  0  0  0  0  0
  180.9750  183.1290  137.5160 C   0  0  0  0  0  2  0  0  0  0  0  0
  191.0400  175.8850  139.0730 N   0  0  0  0  0  2  0  0  0  0  0  0
  193.3850  174.1660  137.8900 N   0  0  0  0  0  0  0  0  0  0  0  0
  192.9940  176.5370  137.8100 C   0  0  0  0  0  2  0  0  0  0  0  0
  192.0170  174.3840  137.4500 C   0  0  0  0  0  2  0  0  0  0  0  0
  191.6660  175.8210  137.7620 C   0  0  1  0  0  3  0  0  0  0  0  0
  194.0500  175.4520  137.7320 C   0  0  0  0  0  2  0  0  0  0  0  0
  193.9940  173.2420  136.9470 C   0  0  0  0  0  2  0  0  0  0  0  0
  195.1310  172.5260  138.9200 O   0  0  0  0  0  1  0  0  0  0  0  0
  195.2660  172.6560  137.5370 C   0  0  0  0  0  2  0  0  0  0  0  0
  1  6  1  0  0  0  0
  2 11  2  0  0  0  0
  2 12  1  0  0  0  0
  3 16  1  6  0  0  0
  3 10  1  0  0  0  0
  4  8  1  0  0  0  0
  5  1  1  0  0  0  0
  7  9  1  0  0  0  0
  7  4  2  0  0  0  0
  8  1  2  0  0  0  0
  9  5  1  0  0  0  0
 10 11  1  0  0  0  0
 11  7  1  0  0  0  0
 12 15  2  0  0  0  0
 13 35  1  6  0  0  0
 13  2  1  0  0  0  0
 14  3  1  0  0  0  0
 14 13  1  0  0  0  0
 15  4  1  0  0  0  0
 16 17  1  0  0  0  0
 18 16  2  0  0  0  0
 19 20  1  6  0  0  0
 19 17  1  0  0  0  0
 21 19  1  6  0  0  0
 21 22  1  0  0  0  0
 21 24  1  0  0  0  0
 22 25  1  0  0  0  0
 22 24  1  0  0  0  0
 23 26  1  0  0  0  0
 24 26  1  0  0  0  0
 25 23  1  0  0  0  0
 27 28  1  0  0  0  0
 27 25  1  0  0  0  0
 29 34  1  0  0  0  0
 29 28  1  0  0  0  0
 30 34  1  0  0  0  0
 31 32  1  0  0  0  0
 31 33  1  0  0  0  0
 32 30  1  0  0  0  0
 33 29  1  0  0  0  0
 38 39  1  0  0  0  0
 38 36  1  0  0  0  0
 39 37  1  0  0  0  0
 39 35  1  0  0  0  0
 40 37  1  0  0  0  0
 40 36  1  0  0  0  0
 41 43  1  0  0  0  0
 41 36  1  0  0  0  0
 43 42  1  0  0  0  0
M  END
>  <MODEL>
2

>  <REMARK>
 VINA RESULT:      -8.8      2.679     10.272
  Name = 
  10 active torsions:
  status: ('A' for Active; 'I' for Inactive)
    1  A    between atoms: N_1  and  C_34
    2  A    between atoms: N_1  and  C_35
    3  A    between atoms: C_2  and  C_13
    4  A    between atoms: C_3  and  C_12
    5  A    between atoms: N_6  and  C_12
    6  A    between atoms: C_9  and  N_19
    7  A    between atoms: C_9  and  C_37
    8  A    between atoms: N_11  and  C_14
    9  A    between atoms: C_14  and  C_41
   10  A    between atoms: C_22  and  C_41
                            x       y       z     vdW  Elec       q    Type
                         _______ _______ _______ _____ _____    ______ ____

>  <TORSDO>
F 10

$$$$
=
 OpenBabel11052416183D

 43 49  0  0  1  0  0  0  0  0999 V2000
  188.4210  177.6080  145.4490 C   0  0  0  0  0  0  0  0  0  0  0  0
  190.5400  177.4030  140.8300 C   0  0  0  0  0  0  0  0  0  0  0  0
  188.4130  177.1370  138.8850 C   0  0  2  0  0  3  0  0  0  0  0  0
  189.9660  177.6460  143.5610 C   0  0  0  0  0  0  0  0  0  0  0  0
  187.3270  177.1330  144.5300 C   0  0  0  0  0  2  0  0  0  0  0  0
  188.1660  177.7510  146.7720 F   0  0  0  0  0  0  0  0  0  0  0  0
  188.9100  177.5510  142.6320 C   0  0  0  0  0  0  0  0  0  0  0  0
  189.6660  177.7810  144.9950 C   0  0  0  0  0  3  0  0  0  0  0  0
  187.4910  177.6950  143.1150 C   0  0  0  0  0  2  0  0  0  0  0  0
  188.1400  177.3700  140.3000 N   0  0  0  0  0  2  0  0  0  0  0  0
  189.1990  177.4240  141.2640 C   0  0  0  0  0  0  0  0  0  0  0  0
  191.5780  177.4940  141.7640 C   0  0  0  0  0  3  0  0  0  0  0  0
  190.8730  177.2510  139.3720 C   0  0  2  0  0  3  0  0  0  0  0  0
  189.7390  177.7810  138.4870 C   0  0  0  0  0  2  0  0  0  0  0  0
  191.2920  177.6190  143.1240 C   0  0  0  0  0  3  0  0  0  0  0  0
  187.3000  177.6590  138.0390 C   0  0  0  0  0  0  0  0  0  0  0  0
  186.7230  176.8380  137.0170 N   0  0  0  0  0  2  0  0  0  0  0  0
  186.8470  178.8130  138.2620 O   0  0  0  0  0  0  0  0  0  0  0  0
  185.6250  177.2810  136.1680 C   0  0  1  0  0  3  0  0  0  0  0  0
  186.1370  177.5650  134.7660 C   0  0  0  0  0  1  0  0  0  0  0  0
  184.5730  176.1900  136.1000 C   0  0  2  0  0  3  0  0  0  0  0  0
  184.6350  175.3700  137.3280 N   0  0  2  0  0  0  0  0  0  0  0  0
  183.0270  173.8930  136.2960 N   0  0  0  0  0  2  0  0  0  0  0  0
  185.2060  174.8750  136.0680 C   0  0  1  0  0  3  0  0  0  0  0  0
  183.3980  174.6040  137.5130 C   0  0  2  0  0  3  0  0  0  0  0  0
  184.2390  173.8570  135.4980 C   0  0  0  0  0  2  0  0  0  0  0  0
  182.2530  175.4510  138.0770 C   0  0  0  0  0  2  0  0  0  0  0  0
  182.6190  176.1470  139.3810 C   0  0  0  0  0  2  0  0  0  0  0  0
  182.3440  177.5690  139.2770 N   0  0  0  0  0  0  0  0  0  0  0  0
  183.4880  179.7580  139.0380 C   0  0  0  0  0  2  0  0  0  0  0  0
  181.6060  179.2910  137.6490 C   0  0  0  0  0  2  0  0  0  0  0  0
  182.0970  180.1160  138.7550 N   0  0  0  0  0  2  0  0  0  0  0  0
  181.7530  177.7920  137.9570 C   0  0  0  0  0  2  0  0  0  0  0  0
  183.6360  178.2580  139.3350 C   0  0  0  0  0  2  0  0  0  0  0  0
  191.1330  175.8500  139.0710 N   0  0  0  0  0  2  0  0  0  0  0  0
  193.4050  174.0770  137.8280 N   0  0  0  0  0  0  0  0  0  0  0  0
  193.0950  176.4610  137.8000 C   0  0  0  0  0  2  0  0  0  0  0  0
  192.0410  174.3500  137.4070 C   0  0  0  0  0  2  0  0  0  0  0  0
  191.7430  175.7910  137.7520 C   0  0  1  0  0  3  0  0  0  0  0  0
  194.1120  175.3420  137.6880 C   0  0  0  0  0  2  0  0  0  0  0  0
  193.9730  173.1520  136.8600 C   0  0  0  0  0  2  0  0  0  0  0  0
  195.3620  172.2680  138.5880 O   0  0  0  0  0  1  0  0  0  0  0  0
  195.3770  172.7530  137.2800 C   0  0  0  0  0  2  0  0  0  0  0  0
  1  6  1  0  0  0  0
  2 11  2  0  0  0  0
  2 12  1  0  0  0  0
  3 16  1  6  0  0  0
  3 10  1  0  0  0  0
  4  8  1  0  0  0  0
  5  1  1  0  0  0  0
  7  9  1  0  0  0  0
  7  4  2  0  0  0  0
  8  1  2  0  0  0  0
  9  5  1  0  0  0  0
 10 11  1  0  0  0  0
 11  7  1  0  0  0  0
 12 15  2  0  0  0  0
 13 35  1  6  0  0  0
 13  2  1  0  0  0  0
 14  3  1  0  0  0  0
 14 13  1  0  0  0  0
 15  4  1  0  0  0  0
 16 18  2  0  0  0  0
 17 16  1  0  0  0  0
 19 20  1  6  0  0  0
 19 17  1  0  0  0  0
 21 19  1  1  0  0  0
 21 22  1  0  0  0  0
 22 25  1  0  0  0  0
 23 25  1  0  0  0  0
 24 21  1  0  0  0  0
 24 22  1  0  0  0  0
 25 27  1  0  0  0  0
 26 24  1  0  0  0  0
 26 23  1  0  0  0  0
 27 28  1  0  0  0  0
 29 34  1  0  0  0  0
 29 28  1  0  0  0  0
 30 34  1  0  0  0  0
 31 33  1  0  0  0  0
 31 32  1  0  0  0  0
 32 30  1  0  0  0  0
 33 29  1  0  0  0  0
 38 39  1  0  0  0  0
 38 36  1  0  0  0  0
 39 37  1  0  0  0  0
 39 35  1  0  0  0  0
 40 37  1  0  0  0  0
 40 36  1  0  0  0  0
 41 43  1  0  0  0  0
 41 36  1  0  0  0  0
 43 42  1  0  0  0  0
M  END
>  <MODEL>
3

>  <REMARK>
 VINA RESULT:      -8.2      3.236      9.417
  Name = 
  10 active torsions:
  status: ('A' for Active; 'I' for Inactive)
    1  A    between atoms: N_1  and  C_34
    2  A    between atoms: N_1  and  C_35
    3  A    between atoms: C_2  and  C_13
    4  A    between atoms: C_3  and  C_12
    5  A    between atoms: N_6  and  C_12
    6  A    between atoms: C_9  and  N_19
    7  A    between atoms: C_9  and  C_37
    8  A    between atoms: N_11  and  C_14
    9  A    between atoms: C_14  and  C_41
   10  A    between atoms: C_22  and  C_41
                            x       y       z     vdW  Elec       q    Type
                         _______ _______ _______ _____ _____    ______ ____

>  <TORSDO>
F 10

$$$$
=
 OpenBabel11052416183D

 43 49  0  0  1  0  0  0  0  0999 V2000
  188.4370  177.6870  145.1630 C   0  0  0  0  0  0  0  0  0  0  0  0
  190.5310  177.3870  140.5380 C   0  0  0  0  0  0  0  0  0  0  0  0
  188.3890  177.1730  138.6030 C   0  0  2  0  0  3  0  0  0  0  0  0
  189.9750  177.6650  143.2690 C   0  0  0  0  0  0  0  0  0  0  0  0
  187.3250  177.2400  144.2510 C   0  0  0  0  0  2  0  0  0  0  0  0
  188.1920  177.8470  146.4860 F   0  0  0  0  0  0  0  0  0  0  0  0
  188.9130  177.5970  142.3450 C   0  0  0  0  0  0  0  0  0  0  0  0
  189.6850  177.8190  144.7040 C   0  0  0  0  0  3  0  0  0  0  0  0
  187.5010  177.7870  142.8320 C   0  0  0  0  0  2  0  0  0  0  0  0
  188.1290  177.4250  140.0170 N   0  0  0  0  0  2  0  0  0  0  0  0
  189.1930  177.4510  140.9770 C   0  0  0  0  0  0  0  0  0  0  0  0
  191.5750  177.4520  141.4680 C   0  0  0  0  0  3  0  0  0  0  0  0
  190.8530  177.2150  139.0790 C   0  0  2  0  0  3  0  0  0  0  0  0
  189.7330  177.7740  138.1950 C   0  0  0  0  0  2  0  0  0  0  0  0
  191.2970  177.5950  142.8280 C   0  0  0  0  0  3  0  0  0  0  0  0
  187.2900  177.7240  137.7570 C   0  0  0  0  0  0  0  0  0  0  0  0
  186.2820  176.8560  137.2260 N   0  0  0  0  0  2  0  0  0  0  0  0
  187.2350  178.9650  137.5510 O   0  0  0  0  0  0  0  0  0  0  0  0
  185.1740  177.3310  136.4080 C   0  0  1  0  0  3  0  0  0  0  0  0
  185.4480  177.0340  134.9440 C   0  0  0  0  0  1  0  0  0  0  0  0
  183.9010  176.6210  136.8280 C   0  0  2  0  0  3  0  0  0  0  0  0
  183.8320  176.5670  138.3040 N   0  0  2  0  0  0  0  0  0  0  0  0
  181.8860  175.1580  138.0560 N   0  0  0  0  0  2  0  0  0  0  0  0
  184.2180  175.3800  137.5280 C   0  0  1  0  0  3  0  0  0  0  0  0
  182.4630  176.2970  138.7580 C   0  0  2  0  0  3  0  0  0  0  0  0
  183.0210  174.4520  137.4890 C   0  0  0  0  0  2  0  0  0  0  0  0
  181.5670  177.5380  138.7120 C   0  0  0  0  0  2  0  0  0  0  0  0
  182.2890  178.8050  139.1500 C   0  0  0  0  0  2  0  0  0  0  0  0
  181.5950  179.4060  140.2760 N   0  0  0  0  0  0  0  0  0  0  0  0
  179.3650  179.4950  141.3620 C   0  0  0  0  0  2  0  0  0  0  0  0
  181.2920  179.1610  142.7270 C   0  0  0  0  0  2  0  0  0  0  0  0
  180.2200  180.0980  142.3860 N   0  0  0  0  0  2  0  0  0  0  0  0
  182.1000  178.7520  141.4840 C   0  0  0  0  0  2  0  0  0  0  0  0
  180.1750  179.0780  140.1240 C   0  0  0  0  0  2  0  0  0  0  0  0
  191.0680  175.8050  138.7870 N   0  0  0  0  0  2  0  0  0  0  0  0
  193.3320  173.9520  137.6470 N   0  0  0  0  0  0  0  0  0  0  0  0
  193.1050  176.3450  137.6030 C   0  0  0  0  0  2  0  0  0  0  0  0
  191.9980  174.2710  137.1670 C   0  0  0  0  0  2  0  0  0  0  0  0
  191.7340  175.7220  137.4970 C   0  0  1  0  0  3  0  0  0  0  0  0
  194.0870  175.1920  137.5380 C   0  0  0  0  0  2  0  0  0  0  0  0
  193.9100  173.0060  136.7070 C   0  0  0  0  0  2  0  0  0  0  0  0
  196.1040  172.9760  135.7690 O   0  0  0  0  0  1  0  0  0  0  0  0
  194.9170  173.7070  135.8120 C   0  0  0  0  0  2  0  0  0  0  0  0
  1  6  1  0  0  0  0
  2 11  2  0  0  0  0
  2 12  1  0  0  0  0
  3 16  1  6  0  0  0
  3 10  1  0  0  0  0
  4  8  1  0  0  0  0
  5  1  1  0  0  0  0
  7  9  1  0  0  0  0
  7  4  2  0  0  0  0
  8  1  2  0  0  0  0
  9  5  1  0  0  0  0
 10 11  1  0  0  0  0
 11  7  1  0  0  0  0
 12 15  2  0  0  0  0
 13 35  1  1  0  0  0
 13  2  1  0  0  0  0
 14  3  1  0  0  0  0
 14 13  1  0  0  0  0
 15  4  1  0  0  0  0
 17 16  1  0  0  0  0
 18 16  2  0  0  0  0
 19 20  1  6  0  0  0
 19 17  1  0  0  0  0
 21 19  1  1  0  0  0
 21 24  1  0  0  0  0
 21 22  1  0  0  0  0
 22 25  1  0  0  0  0
 23 25  1  0  0  0  0
 24 22  1  0  0  0  0
 26 24  1  0  0  0  0
 26 23  1  0  0  0  0
 27 25  1  0  0  0  0
 27 28  1  0  0  0  0
 28 29  1  0  0  0  0
 29 33  1  0  0  0  0
 30 32  1  0  0  0  0
 32 31  1  0  0  0  0
 33 31  1  0  0  0  0
 34 29  1  0  0  0  0
 34 30  1  0  0  0  0
 38 39  1  0  0  0  0
 38 36  1  0  0  0  0
 39 37  1  0  0  0  0
 39 35  1  0  0  0  0
 40 37  1  0  0  0  0
 40 36  1  0  0  0  0
 41 36  1  0  0  0  0
 42 43  1  0  0  0  0
 43 41  1  0  0  0  0
M  END
>  <MODEL>
4

>  <REMARK>
 VINA RESULT:      -8.0      3.086      9.489
  Name = 
  10 active torsions:
  status: ('A' for Active; 'I' for Inactive)
    1  A    between atoms: N_1  and  C_34
    2  A    between atoms: N_1  and  C_35
    3  A    between atoms: C_2  and  C_13
    4  A    between atoms: C_3  and  C_12
    5  A    between atoms: N_6  and  C_12
    6  A    between atoms: C_9  and  N_19
    7  A    between atoms: C_9  and  C_37
    8  A    between atoms: N_11  and  C_14
    9  A    between atoms: C_14  and  C_41
   10  A    between atoms: C_22  and  C_41
                            x       y       z     vdW  Elec       q    Type
                         _______ _______ _______ _____ _____    ______ ____

>  <TORSDO>
F 10

$$$$
=
 OpenBabel11052416183D

 43 49  0  0  1  0  0  0  0  0999 V2000
  185.8030  178.3810  145.3880 C   0  0  0  0  0  0  0  0  0  0  0  0
  182.1210  178.8670  141.9130 C   0  0  0  0  0  0  0  0  0  0  0  0
  183.2900  178.3990  139.3060 C   0  0  2  0  0  3  0  0  0  0  0  0
  183.6680  178.6530  144.2380 C   0  0  0  0  0  0  0  0  0  0  0  0
  186.5150  178.4690  144.0650 C   0  0  0  0  0  2  0  0  0  0  0  0
  186.5250  178.2590  146.5280 F   0  0  0  0  0  0  0  0  0  0  0  0
  184.2540  178.3870  142.9850 C   0  0  0  0  0  0  0  0  0  0  0  0
  184.4770  178.5340  145.4620 C   0  0  0  0  0  3  0  0  0  0  0  0
  185.6720  177.8840  142.9270 C   0  0  0  0  0  2  0  0  0  0  0  0
  184.0440  178.1920  140.5390 N   0  0  0  0  0  2  0  0  0  0  0  0
  183.4800  178.5010  141.8190 C   0  0  0  0  0  0  0  0  0  0  0  0
  181.5550  179.1320  143.1640 C   0  0  0  0  0  3  0  0  0  0  0  0
  181.2780  179.0100  140.6770 C   0  0  2  0  0  3  0  0  0  0  0  0
  181.8060  178.1270  139.5400 C   0  0  0  0  0  2  0  0  0  0  0  0
  182.3240  179.0210  144.3230 C   0  0  0  0  0  3  0  0  0  0  0  0
  183.8170  177.5320  138.2120 C   0  0  0  0  0  0  0  0  0  0  0  0
  185.2080  177.5600  137.8730 N   0  0  0  0  0  2  0  0  0  0  0  0
  183.0320  176.7450  137.6200 O   0  0  0  0  0  0  0  0  0  0  0  0
  185.7880  176.7270  136.8280 C   0  0  1  0  0  3  0  0  0  0  0  0
  185.5260  177.3490  135.4670 C   0  0  0  0  0  1  0  0  0  0  0  0
  187.2860  176.6220  137.0450 C   0  0  2  0  0  3  0  0  0  0  0  0
  187.8780  177.9770  137.0510 N   0  0  2  0  0  0  0  0  0  0  0  0
  190.0450  176.9140  137.1220 N   0  0  0  0  0  2  0  0  0  0  0  0
  188.0050  177.1090  135.8720 C   0  0  1  0  0  3  0  0  0  0  0  0
  189.2060  177.9690  137.6750 C   0  0  2  0  0  3  0  0  0  0  0  0
  189.4130  176.5500  135.8670 C   0  0  0  0  0  2  0  0  0  0  0  0
  189.1420  177.9350  139.2050 C   0  0  0  0  0  2  0  0  0  0  0  0
  190.5190  177.8810  139.8530 C   0  0  0  0  0  2  0  0  0  0  0  0
  190.5130  176.9260  140.9470 N   0  0  0  0  0  0  0  0  0  0  0  0
  191.2720  176.6550  143.2940 C   0  0  0  0  0  2  0  0  0  0  0  0
  189.0420  176.0250  142.7310 C   0  0  0  0  0  2  0  0  0  0  0  0
  190.3540  175.5240  143.1450 N   0  0  0  0  0  2  0  0  0  0  0  0
  189.1360  176.8520  141.4380 C   0  0  0  0  0  2  0  0  0  0  0  0
  191.3580  177.4860  142.0050 C   0  0  0  0  0  2  0  0  0  0  0  0
  181.2520  180.4050  140.2590 N   0  0  0  0  0  2  0  0  0  0  0  0
  180.5160  182.6970  138.2430 N   0  0  0  0  0  0  0  0  0  0  0  0
  179.1200  181.4040  139.7120 C   0  0  0  0  0  2  0  0  0  0  0  0
  180.8350  181.2920  138.0490 C   0  0  0  0  0  2  0  0  0  0  0  0
  180.2470  180.5300  139.2150 C   0  0  1  0  0  3  0  0  0  0  0  0
  179.2440  182.7090  138.9510 C   0  0  0  0  0  2  0  0  0  0  0  0
  180.2880  183.2680  136.9260 C   0  0  0  0  0  2  0  0  0  0  0  0
  181.3360  185.0330  135.7090 O   0  0  0  0  0  1  0  0  0  0  0  0
  180.6980  184.7310  136.9120 C   0  0  0  0  0  2  0  0  0  0  0  0
  1  8  2  0  0  0  0
  1  6  1  0  0  0  0
  2 12  1  0  0  0  0
  3 16  1  6  0  0  0
  3 14  1  0  0  0  0
  3 10  1  0  0  0  0
  4 15  1  0  0  0  0
  4  8  1  0  0  0  0
  5  1  1  0  0  0  0
  7  4  2  0  0  0  0
  9  7  1  0  0  0  0
  9  5  1  0  0  0  0
 10 11  1  0  0  0  0
 11  2  2  0  0  0  0
 11  7  1  0  0  0  0
 12 15  2  0  0  0  0
 13 35  1  6  0  0  0
 13  2  1  0  0  0  0
 14 13  1  0  0  0  0
 17 16  1  0  0  0  0
 18 16  2  0  0  0  0
 19 20  1  6  0  0  0
 19 17  1  0  0  0  0
 21 19  1  6  0  0  0
 21 22  1  0  0  0  0
 22 25  1  0  0  0  0
 23 25  1  0  0  0  0
 24 21  1  0  0  0  0
 24 22  1  0  0  0  0
 25 27  1  0  0  0  0
 26 24  1  0  0  0  0
 26 23  1  0  0  0  0
 27 28  1  0  0  0  0
 28 29  1  0  0  0  0
 29 33  1  0  0  0  0
 29 34  1  0  0  0  0
 31 32  1  0  0  0  0
 32 30  1  0  0  0  0
 33 31  1  0  0  0  0
 34 30  1  0  0  0  0
 36 40  1  0  0  0  0
 38 36  1  0  0  0  0
 38 39  1  0  0  0  0
 39 37  1  0  0  0  0
 39 35  1  0  0  0  0
 40 37  1  0  0  0  0
 41 36  1  0  0  0  0
 42 43  1  0  0  0  0
 43 41  1  0  0  0  0
M  END
>  <MODEL>
5

>  <REMARK>
 VINA RESULT:      -7.9      1.332      1.938
  Name = 
  10 active torsions:
  status: ('A' for Active; 'I' for Inactive)
    1  A    between atoms: N_1  and  C_34
    2  A    between atoms: N_1  and  C_35
    3  A    between atoms: C_2  and  C_13
    4  A    between atoms: C_3  and  C_12
    5  A    between atoms: N_6  and  C_12
    6  A    between atoms: C_9  and  N_19
    7  A    between atoms: C_9  and  C_37
    8  A    between atoms: N_11  and  C_14
    9  A    between atoms: C_14  and  C_41
   10  A    between atoms: C_22  and  C_41
                            x       y       z     vdW  Elec       q    Type
                         _______ _______ _______ _____ _____    ______ ____

>  <TORSDO>
F 10

$$$$
=
 OpenBabel11052416183D

 43 49  0  0  1  0  0  0  0  0999 V2000
  184.6400  178.7830  145.7030 C   0  0  0  0  0  0  0  0  0  0  0  0
  182.7270  178.8100  140.9910 C   0  0  0  0  0  0  0  0  0  0  0  0
  184.9440  178.8810  139.1300 C   0  0  2  0  0  3  0  0  0  0  0  0
  183.1760  178.7000  143.7530 C   0  0  0  0  0  0  0  0  0  0  0  0
  185.7900  179.1610  144.8090 C   0  0  0  0  0  2  0  0  0  0  0  0
  184.8330  178.7050  147.0420 F   0  0  0  0  0  0  0  0  0  0  0  0
  184.2720  178.7000  142.8690 C   0  0  0  0  0  0  0  0  0  0  0  0
  183.4080  178.6340  145.2050 C   0  0  0  0  0  3  0  0  0  0  0  0
  185.6630  178.5270  143.4210 C   0  0  0  0  0  2  0  0  0  0  0  0
  185.1460  178.7170  140.5670 N   0  0  0  0  0  2  0  0  0  0  0  0
  184.0470  178.7610  141.4840 C   0  0  0  0  0  0  0  0  0  0  0  0
  181.6480  178.8140  141.8820 C   0  0  0  0  0  3  0  0  0  0  0  0
  182.4630  178.8930  139.5130 C   0  0  2  0  0  3  0  0  0  0  0  0
  183.6090  178.2690  138.7090 C   0  0  0  0  0  2  0  0  0  0  0  0
  181.8710  178.7550  143.2580 C   0  0  0  0  0  3  0  0  0  0  0  0
  186.0680  178.2680  138.3650 C   0  0  0  0  0  0  0  0  0  0  0  0
  185.8720  177.8400  137.0120 N   0  0  0  0  0  2  0  0  0  0  0  0
  187.2000  178.1700  138.9070 O   0  0  0  0  0  0  0  0  0  0  0  0
  186.9310  177.2490  136.2040 C   0  0  1  0  0  3  0  0  0  0  0  0
  188.1740  178.1200  136.2640 C   0  0  0  0  0  1  0  0  0  0  0  0
  187.2640  175.8710  136.7450 C   0  0  2  0  0  3  0  0  0  0  0  0
  187.8340  175.0430  135.6620 N   0  0  2  0  0  0  0  0  0  0  0  0
  187.7580  173.1770  137.1930 N   0  0  0  0  0  2  0  0  0  0  0  0
  186.4420  174.8570  136.0940 C   0  0  1  0  0  3  0  0  0  0  0  0
  188.5590  173.8890  136.2060 C   0  0  2  0  0  3  0  0  0  0  0  0
  186.3940  173.6090  136.9530 C   0  0  0  0  0  2  0  0  0  0  0  0
  189.9530  174.2560  136.7260 C   0  0  0  0  0  2  0  0  0  0  0  0
  190.9040  174.6850  135.6170 C   0  0  0  0  0  2  0  0  0  0  0  0
  192.1810  175.0780  136.1850 N   0  0  0  0  0  0  0  0  0  0  0  0
  193.1570  176.3700  138.0650 C   0  0  0  0  0  2  0  0  0  0  0  0
  194.0360  174.2060  137.5840 C   0  0  0  0  0  2  0  0  0  0  0  0
  194.3250  175.6410  137.5660 N   0  0  0  0  0  2  0  0  0  0  0  0
  192.7730  173.8750  136.7720 C   0  0  0  0  0  2  0  0  0  0  0  0
  191.8930  176.0310  137.2590 C   0  0  0  0  0  2  0  0  0  0  0  0
  182.2760  180.2840  139.1240 N   0  0  0  0  0  2  0  0  0  0  0  0
  180.7910  182.6110  137.6300 N   0  0  0  0  0  0  0  0  0  0  0  0
  180.0400  181.1600  139.3940 C   0  0  0  0  0  2  0  0  0  0  0  0
  181.0910  181.2420  137.2480 C   0  0  0  0  0  2  0  0  0  0  0  0
  180.9710  180.3890  138.4900 C   0  0  1  0  0  3  0  0  0  0  0  0
  179.8350  182.5050  138.7240 C   0  0  0  0  0  2  0  0  0  0  0  0
  180.1010  183.2260  136.5080 C   0  0  0  0  0  2  0  0  0  0  0  0
  181.9070  184.7300  136.9270 O   0  0  0  0  0  1  0  0  0  0  0  0
  180.8250  184.4910  136.0790 C   0  0  0  0  0  2  0  0  0  0  0  0
  1  6  1  0  0  0  0
  2 11  2  0  0  0  0
  2 12  1  0  0  0  0
  3 16  1  6  0  0  0
  3 10  1  0  0  0  0
  4  8  1  0  0  0  0
  5  1  1  0  0  0  0
  7  9  1  0  0  0  0
  7  4  2  0  0  0  0
  8  1  2  0  0  0  0
  9  5  1  0  0  0  0
 10 11  1  0  0  0  0
 11  7  1  0  0  0  0
 12 15  2  0  0  0  0
 13 35  1  6  0  0  0
 13  2  1  0  0  0  0
 14  3  1  0  0  0  0
 14 13  1  0  0  0  0
 15  4  1  0  0  0  0
 16 18  2  0  0  0  0
 17 16  1  0  0  0  0
 19 20  1  1  0  0  0
 19 17  1  0  0  0  0
 21 19  1  6  0  0  0
 22 24  1  0  0  0  0
 22 25  1  0  0  0  0
 22 21  1  0  0  0  0
 24 21  1  0  0  0  0
 24 26  1  0  0  0  0
 25 27  1  0  0  0  0
 25 23  1  0  0  0  0
 26 23  1  0  0  0  0
 28 29  1  0  0  0  0
 28 27  1  0  0  0  0
 29 33  1  0  0  0  0
 29 34  1  0  0  0  0
 32 31  1  0  0  0  0
 32 30  1  0  0  0  0
 33 31  1  0  0  0  0
 34 30  1  0  0  0  0
 36 40  1  0  0  0  0
 38 36  1  0  0  0  0
 38 39  1  0  0  0  0
 39 35  1  0  0  0  0
 39 37  1  0  0  0  0
 40 37  1  0  0  0  0
 41 36  1  0  0  0  0
 43 41  1  0  0  0  0
 43 42  1  0  0  0  0
M  END
>  <MODEL>
6

>  <REMARK>
 VINA RESULT:      -7.7      2.757      4.013
  Name = 
  10 active torsions:
  status: ('A' for Active; 'I' for Inactive)
    1  A    between atoms: N_1  and  C_34
    2  A    between atoms: N_1  and  C_35
    3  A    between atoms: C_2  and  C_13
    4  A    between atoms: C_3  and  C_12
    5  A    between atoms: N_6  and  C_12
    6  A    between atoms: C_9  and  N_19
    7  A    between atoms: C_9  and  C_37
    8  A    between atoms: N_11  and  C_14
    9  A    between atoms: C_14  and  C_41
   10  A    between atoms: C_22  and  C_41
                            x       y       z     vdW  Elec       q    Type
                         _______ _______ _______ _____ _____    ______ ____

>  <TORSDO>
F 10

$$$$
=
 OpenBabel11052416183D

 43 49  0  0  1  0  0  0  0  0999 V2000
  183.0160  178.7270  143.9490 C   0  0  0  0  0  0  0  0  0  0  0  0
  188.0090  177.9430  143.3820 C   0  0  0  0  0  0  0  0  0  0  0  0
  188.5290  177.5210  140.5650 C   0  0  2  0  0  3  0  0  0  0  0  0
  185.4210  178.5080  144.2930 C   0  0  0  0  0  0  0  0  0  0  0  0
  183.1770  178.1830  142.5550 C   0  0  0  0  0  2  0  0  0  0  0  0
  181.7770  179.0250  144.4110 F   0  0  0  0  0  0  0  0  0  0  0  0
  185.6530  178.3400  142.9140 C   0  0  0  0  0  0  0  0  0  0  0  0
  184.0640  178.8120  144.7740 C   0  0  0  0  0  3  0  0  0  0  0  0
  184.5250  178.5770  141.9450 C   0  0  0  0  0  2  0  0  0  0  0  0
  187.2140  177.9200  141.0560 N   0  0  0  0  0  2  0  0  0  0  0  0
  186.9490  178.0510  142.4580 C   0  0  0  0  0  0  0  0  0  0  0  0
  187.7630  178.1080  144.7490 C   0  0  0  0  0  3  0  0  0  0  0  0
  189.4010  177.6190  142.9170 C   0  0  2  0  0  3  0  0  0  0  0  0
  189.6250  178.0780  141.4720 C   0  0  0  0  0  2  0  0  0  0  0  0
  186.4750  178.3940  145.2030 C   0  0  0  0  0  3  0  0  0  0  0  0
  188.7300  177.9770  139.1590 C   0  0  0  0  0  0  0  0  0  0  0  0
  188.5160  177.0740  138.0690 N   0  0  0  0  0  2  0  0  0  0  0  0
  189.0490  179.1760  138.9400 O   0  0  0  0  0  0  0  0  0  0  0  0
  188.6780  177.4590  136.6730 C   0  0  1  0  0  3  0  0  0  0  0  0
  189.9840  176.9050  136.1320 C   0  0  0  0  0  1  0  0  0  0  0  0
  187.5270  176.8970  135.8610 C   0  0  2  0  0  3  0  0  0  0  0  0
  186.6500  176.0950  136.7410 N   0  0  2  0  0  0  0  0  0  0  0  0
  185.4440  175.4300  134.7570 N   0  0  0  0  0  2  0  0  0  0  0  0
  187.5940  175.4390  135.8260 C   0  0  1  0  0  3  0  0  0  0  0  0
  185.3300  175.8990  136.1320 C   0  0  2  0  0  3  0  0  0  0  0  0
  186.7990  174.9190  134.6450 C   0  0  0  0  0  2  0  0  0  0  0  0
  184.4250  177.1280  136.2660 C   0  0  0  0  0  2  0  0  0  0  0  0
  184.3780  177.6750  137.6860 C   0  0  0  0  0  2  0  0  0  0  0  0
  183.0160  178.0450  138.0280 N   0  0  0  0  0  0  0  0  0  0  0  0
  181.1590  177.4280  139.5540 C   0  0  0  0  0  2  0  0  0  0  0  0
  181.7260  179.7320  139.3110 C   0  0  0  0  0  2  0  0  0  0  0  0
  180.7040  178.7210  139.0370 N   0  0  0  0  0  2  0  0  0  0  0  0
  183.0870  179.3340  138.7190 C   0  0  0  0  0  2  0  0  0  0  0  0
  182.5240  177.0360  138.9690 C   0  0  0  0  0  2  0  0  0  0  0  0
  189.6360  176.1860  143.0310 N   0  0  0  0  0  2  0  0  0  0  0  0
  190.7350  177.0010  145.8560 N   0  0  0  0  0  0  0  0  0  0  0  0
  191.6810  177.3060  143.6670 C   0  0  0  0  0  2  0  0  0  0  0  0
  190.6830  175.7260  145.1600 C   0  0  0  0  0  2  0  0  0  0  0  0
  190.9170  176.0030  143.6930 C   0  0  1  0  0  3  0  0  0  0  0  0
  191.6670  177.8190  145.0930 C   0  0  0  0  0  2  0  0  0  0  0  0
  191.3350  176.7530  147.1570 C   0  0  0  0  0  2  0  0  0  0  0  0
  193.2320  175.6770  148.1260 O   0  0  0  0  0  1  0  0  0  0  0  0
  192.3310  175.6100  147.0630 C   0  0  0  0  0  2  0  0  0  0  0  0
  1  6  1  0  0  0  0
  1  8  2  0  0  0  0
  2 12  1  0  0  0  0
  3 16  1  6  0  0  0
  3 10  1  0  0  0  0
  3 14  1  0  0  0  0
  4  8  1  0  0  0  0
  4 15  1  0  0  0  0
  5  1  1  0  0  0  0
  7  4  2  0  0  0  0
  9  5  1  0  0  0  0
  9  7  1  0  0  0  0
 10 11  1  0  0  0  0
 11  7  1  0  0  0  0
 11  2  2  0  0  0  0
 12 15  2  0  0  0  0
 13 35  1  6  0  0  0
 13  2  1  0  0  0  0
 14 13  1  0  0  0  0
 17 16  1  0  0  0  0
 18 16  2  0  0  0  0
 19 20  1  6  0  0  0
 19 17  1  0  0  0  0
 21 19  1  1  0  0  0
 21 22  1  0  0  0  0
 23 25  1  0  0  0  0
 24 21  1  0  0  0  0
 24 22  1  0  0  0  0
 25 27  1  0  0  0  0
 25 22  1  0  0  0  0
 26 23  1  0  0  0  0
 26 24  1  0  0  0  0
 27 28  1  0  0  0  0
 28 29  1  0  0  0  0
 29 33  1  0  0  0  0
 29 34  1  0  0  0  0
 32 31  1  0  0  0  0
 32 30  1  0  0  0  0
 33 31  1  0  0  0  0
 34 30  1  0  0  0  0
 35 39  1  0  0  0  0
 36 41  1  0  0  0  0
 37 39  1  0  0  0  0
 37 40  1  0  0  0  0
 38 36  1  0  0  0  0
 39 38  1  0  0  0  0
 40 36  1  0  0  0  0
 43 41  1  0  0  0  0
 43 42  1  0  0  0  0
M  END
>  <MODEL>
7

>  <REMARK>
 VINA RESULT:      -7.4      2.959      8.718
  Name = 
  10 active torsions:
  status: ('A' for Active; 'I' for Inactive)
    1  A    between atoms: N_1  and  C_34
    2  A    between atoms: N_1  and  C_35
    3  A    between atoms: C_2  and  C_13
    4  A    between atoms: C_3  and  C_12
    5  A    between atoms: N_6  and  C_12
    6  A    between atoms: C_9  and  N_19
    7  A    between atoms: C_9  and  C_37
    8  A    between atoms: N_11  and  C_14
    9  A    between atoms: C_14  and  C_41
   10  A    between atoms: C_22  and  C_41
                            x       y       z     vdW  Elec       q    Type
                         _______ _______ _______ _____ _____    ______ ____

>  <TORSDO>
F 10

$$$$
=
 OpenBabel11052416183D

 43 49  0  0  1  0  0  0  0  0999 V2000
  188.2780  177.4800  147.3430 C   0  0  0  0  0  0  0  0  0  0  0  0
  189.4460  178.0870  142.4310 C   0  0  0  0  0  0  0  0  0  0  0  0
  186.9860  177.9690  140.9090 C   0  0  2  0  0  3  0  0  0  0  0  0
  189.4160  177.8930  145.2240 C   0  0  0  0  0  0  0  0  0  0  0  0
  187.0420  177.0730  146.5870 C   0  0  0  0  0  2  0  0  0  0  0  0
  188.2860  177.4130  148.6960 F   0  0  0  0  0  0  0  0  0  0  0  0
  188.2020  177.8660  144.5110 C   0  0  0  0  0  0  0  0  0  0  0  0
  189.4020  177.7980  146.6930 C   0  0  0  0  0  3  0  0  0  0  0  0
  186.9020  177.8450  145.2720 C   0  0  0  0  0  2  0  0  0  0  0  0
  186.9910  177.9760  142.3690 N   0  0  0  0  0  2  0  0  0  0  0  0
  188.2180  177.9570  143.1100 C   0  0  0  0  0  0  0  0  0  0  0  0
  190.6440  178.1090  143.1520 C   0  0  0  0  0  3  0  0  0  0  0  0
  189.4880  178.1710  140.9300 C   0  0  2  0  0  3  0  0  0  0  0  0
  188.1830  178.7490  140.3700 C   0  0  0  0  0  2  0  0  0  0  0  0
  190.6290  178.0160  144.5450 C   0  0  0  0  0  3  0  0  0  0  0  0
  185.7100  178.5350  140.3830 C   0  0  0  0  0  0  0  0  0  0  0  0
  184.5120  178.4670  141.1640 N   0  0  0  0  0  2  0  0  0  0  0  0
  185.7090  179.1100  139.2620 O   0  0  0  0  0  0  0  0  0  0  0  0
  183.2380  179.0140  140.7150 C   0  0  1  0  0  3  0  0  0  0  0  0
  182.9800  178.6080  139.2740 C   0  0  0  0  0  1  0  0  0  0  0  0
  182.1240  178.4720  141.5900 C   0  0  2  0  0  3  0  0  0  0  0  0
  180.9690  179.3930  141.5420 N   0  0  2  0  0  0  0  0  0  0  0  0
  179.9530  178.0400  143.2660 N   0  0  0  0  0  2  0  0  0  0  0  0
  181.8670  179.3770  142.7060 C   0  0  1  0  0  3  0  0  0  0  0  0
  179.7430  178.7270  141.9970 C   0  0  2  0  0  3  0  0  0  0  0  0
  181.1590  178.6300  143.8180 C   0  0  0  0  0  2  0  0  0  0  0  0
  179.1280  177.8200  140.9270 C   0  0  0  0  0  2  0  0  0  0  0  0
  179.5660  176.3680  141.0600 C   0  0  0  0  0  2  0  0  0  0  0  0
  179.3090  175.6590  139.8180 N   0  0  0  0  0  0  0  0  0  0  0  0
  180.1550  175.4350  137.4960 C   0  0  0  0  0  2  0  0  0  0  0  0
  179.6590  173.4560  138.7310 C   0  0  0  0  0  2  0  0  0  0  0  0
  179.2510  174.2870  137.5960 N   0  0  0  0  0  2  0  0  0  0  0  0
  179.6940  174.2640  140.0380 C   0  0  0  0  0  2  0  0  0  0  0  0
  180.1970  176.2370  138.8060 C   0  0  0  0  0  2  0  0  0  0  0  0
  189.7320  176.8480  140.3710 N   0  0  0  0  0  2  0  0  0  0  0  0
  190.0450  174.8680  137.9560 N   0  0  0  0  0  0  0  0  0  0  0  0
  191.5400  176.5540  138.7940 C   0  0  0  0  0  2  0  0  0  0  0  0
  189.2920  176.1000  138.1150 C   0  0  0  0  0  2  0  0  0  0  0  0
  190.1170  177.0250  138.9800 C   0  0  1  0  0  3  0  0  0  0  0  0
  191.4460  175.2630  138.0050 C   0  0  0  0  0  2  0  0  0  0  0  0
  189.7780  174.3750  136.6140 C   0  0  0  0  0  2  0  0  0  0  0  0
  188.0220  173.0540  135.6830 O   0  0  0  0  0  1  0  0  0  0  0  0
  188.9970  173.0740  136.6810 C   0  0  0  0  0  2  0  0  0  0  0  0
  1  6  1  0  0  0  0
  2 11  2  0  0  0  0
  2 12  1  0  0  0  0
  3 16  1  6  0  0  0
  3 10  1  0  0  0  0
  4  8  1  0  0  0  0
  5  1  1  0  0  0  0
  7  4  2  0  0  0  0
  7  9  1  0  0  0  0
  8  1  2  0  0  0  0
  9  5  1  0  0  0  0
 10 11  1  0  0  0  0
 11  7  1  0  0  0  0
 12 15  2  0  0  0  0
 13 35  1  6  0  0  0
 13  2  1  0  0  0  0
 14  3  1  0  0  0  0
 14 13  1  0  0  0  0
 15  4  1  0  0  0  0
 16 17  1  0  0  0  0
 18 16  2  0  0  0  0
 19 20  1  6  0  0  0
 19 17  1  0  0  0  0
 21 19  1  6  0  0  0
 21 24  1  0  0  0  0
 22 21  1  0  0  0  0
 22 25  1  0  0  0  0
 22 24  1  0  0  0  0
 23 26  1  0  0  0  0
 24 26  1  0  0  0  0
 25 23  1  0  0  0  0
 27 28  1  0  0  0  0
 27 25  1  0  0  0  0
 29 33  1  0  0  0  0
 29 28  1  0  0  0  0
 30 32  1  0  0  0  0
 30 34  1  0  0  0  0
 31 33  1  0  0  0  0
 32 31  1  0  0  0  0
 34 29  1  0  0  0  0
 36 40  1  0  0  0  0
 36 38  1  0  0  0  0
 37 39  1  0  0  0  0
 38 39  1  0  0  0  0
 39 35  1  0  0  0  0
 40 37  1  0  0  0  0
 41 43  1  0  0  0  0
 41 36  1  0  0  0  0
 42 43  1  0  0  0  0
M  END
>  <MODEL>
8

>  <REMARK>
 VINA RESULT:      -7.4      3.000      9.247
  Name = 
  10 active torsions:
  status: ('A' for Active; 'I' for Inactive)
    1  A    between atoms: N_1  and  C_34
    2  A    between atoms: N_1  and  C_35
    3  A    between atoms: C_2  and  C_13
    4  A    between atoms: C_3  and  C_12
    5  A    between atoms: N_6  and  C_12
    6  A    between atoms: C_9  and  N_19
    7  A    between atoms: C_9  and  C_37
    8  A    between atoms: N_11  and  C_14
    9  A    between atoms: C_14  and  C_41
   10  A    between atoms: C_22  and  C_41
                            x       y       z     vdW  Elec       q    Type
                         _______ _______ _______ _____ _____    ______ ____

>  <TORSDO>
F 10

$$$$
=
 OpenBabel11052416183D

 43 49  0  0  1  0  0  0  0  0999 V2000
  180.2620  184.2130  137.1360 C   0  0  0  0  0  0  0  0  0  0  0  0
  180.9630  179.3090  138.2880 C   0  0  0  0  0  0  0  0  0  0  0  0
  183.6670  179.0050  139.2780 C   0  0  2  0  0  3  0  0  0  0  0  0
  179.9750  181.8280  137.5660 C   0  0  0  0  0  0  0  0  0  0  0  0
  181.7480  184.0540  137.3110 C   0  0  0  0  0  2  0  0  0  0  0  0
  179.7540  185.4240  136.8040 F   0  0  0  0  0  0  0  0  0  0  0  0
  181.2830  181.7130  138.0770 C   0  0  0  0  0  0  0  0  0  0  0  0
  179.4510  183.1510  137.1930 C   0  0  0  0  0  3  0  0  0  0  0  0
  182.0870  182.9610  138.3300 C   0  0  0  0  0  2  0  0  0  0  0  0
  183.0920  180.3160  138.9950 N   0  0  0  0  0  2  0  0  0  0  0  0
  181.7800  180.4490  138.4320 C   0  0  0  0  0  0  0  0  0  0  0  0
  179.6680  179.4380  137.7760 C   0  0  0  0  0  3  0  0  0  0  0  0
  181.4810  177.9440  138.6480 C   0  0  2  0  0  3  0  0  0  0  0  0
  182.5760  178.0300  139.7170 C   0  0  0  0  0  2  0  0  0  0  0  0
  179.1740  180.6940  137.4200 C   0  0  0  0  0  3  0  0  0  0  0  0
  184.7300  179.1070  140.3200 C   0  0  0  0  0  0  0  0  0  0  0  0
  186.0260  178.5440  140.0880 N   0  0  0  0  0  2  0  0  0  0  0  0
  184.4870  179.7310  141.3870 O   0  0  0  0  0  0  0  0  0  0  0  0
  187.1120  178.6240  141.0570 C   0  0  1  0  0  3  0  0  0  0  0  0
  186.5990  178.2580  142.4390 C   0  0  0  0  0  1  0  0  0  0  0  0
  188.2080  177.6530  140.6610 C   0  0  2  0  0  3  0  0  0  0  0  0
  189.5180  178.1930  141.0830 N   0  0  2  0  0  0  0  0  0  0  0  0
  190.5390  176.3560  139.8930 N   0  0  0  0  0  2  0  0  0  0  0  0
  189.0970  178.2630  139.6770 C   0  0  1  0  0  3  0  0  0  0  0  0
  190.5350  177.1360  141.1240 C   0  0  2  0  0  3  0  0  0  0  0  0
  189.8430  177.1820  138.9220 C   0  0  0  0  0  2  0  0  0  0  0  0
  190.4350  176.2640  142.3790 C   0  0  0  0  0  2  0  0  0  0  0  0
  191.3650  176.7220  143.4930 C   0  0  0  0  0  2  0  0  0  0  0  0
  190.7060  176.5750  144.7790 N   0  0  0  0  0  0  0  0  0  0  0  0
  191.1760  176.5730  147.2160 C   0  0  0  0  0  2  0  0  0  0  0  0
  189.3200  177.8340  146.4070 C   0  0  0  0  0  2  0  0  0  0  0  0
  189.7140  176.6640  147.1940 N   0  0  0  0  0  2  0  0  0  0  0  0
  189.9040  177.7820  144.9860 C   0  0  0  0  0  2  0  0  0  0  0  0
  191.7600  176.5310  145.7950 C   0  0  0  0  0  2  0  0  0  0  0  0
  181.9940  177.2830  137.4550 N   0  0  0  0  0  2  0  0  0  0  0  0
  183.2810  174.5550  136.5860 N   0  0  0  0  0  0  0  0  0  0  0  0
  181.1230  175.4900  136.0890 C   0  0  0  0  0  2  0  0  0  0  0  0
  182.6820  174.9970  137.8340 C   0  0  0  0  0  2  0  0  0  0  0  0
  181.5260  175.9060  137.4830 C   0  0  1  0  0  3  0  0  0  0  0  0
  182.1870  174.5140  135.6260 C   0  0  0  0  0  2  0  0  0  0  0  0
  183.7330  173.1880  136.7900 C   0  0  0  0  0  2  0  0  0  0  0  0
  185.7970  172.9720  137.9680 O   0  0  0  0  0  1  0  0  0  0  0  0
  185.2480  173.1190  136.6950 C   0  0  0  0  0  2  0  0  0  0  0  0
  1  8  2  0  0  0  0
  1  5  1  0  0  0  0
  2 11  1  0  0  0  0
  2 13  1  0  0  0  0
  3 14  1  0  0  0  0
  3 16  1  1  0  0  0
  4  7  1  0  0  0  0
  5  9  1  0  0  0  0
  6  1  1  0  0  0  0
  7  9  1  0  0  0  0
  7 11  2  0  0  0  0
  8  4  1  0  0  0  0
 10  3  1  0  0  0  0
 11 10  1  0  0  0  0
 12  2  2  0  0  0  0
 13 35  1  6  0  0  0
 13 14  1  0  0  0  0
 15  4  2  0  0  0  0
 15 12  1  0  0  0  0
 16 18  2  0  0  0  0
 17 16  1  0  0  0  0
 17 19  1  0  0  0  0
 19 20  1  1  0  0  0
 21 19  1  1  0  0  0
 21 22  1  0  0  0  0
 22 25  1  0  0  0  0
 23 25  1  0  0  0  0
 24 21  1  0  0  0  0
 24 22  1  0  0  0  0
 25 27  1  0  0  0  0
 26 24  1  0  0  0  0
 26 23  1  0  0  0  0
 27 28  1  0  0  0  0
 28 29  1  0  0  0  0
 29 33  1  0  0  0  0
 29 34  1  0  0  0  0
 31 32  1  0  0  0  0
 32 30  1  0  0  0  0
 33 31  1  0  0  0  0
 34 30  1  0  0  0  0
 35 39  1  0  0  0  0
 36 41  1  0  0  0  0
 36 38  1  0  0  0  0
 37 39  1  0  0  0  0
 39 38  1  0  0  0  0
 40 37  1  0  0  0  0
 40 36  1  0  0  0  0
 43 41  1  0  0  0  0
 43 42  1  0  0  0  0
M  END
>  <MODEL>
9

>  <REMARK>
 VINA RESULT:      -7.3      3.232      6.097
  Name = 
  10 active torsions:
  status: ('A' for Active; 'I' for Inactive)
    1  A    between atoms: N_1  and  C_34
    2  A    between atoms: N_1  and  C_35
    3  A    between atoms: C_2  and  C_13
    4  A    between atoms: C_3  and  C_12
    5  A    between atoms: N_6  and  C_12
    6  A    between atoms: C_9  and  N_19
    7  A    between atoms: C_9  and  C_37
    8  A    between atoms: N_11  and  C_14
    9  A    between atoms: C_14  and  C_41
   10  A    between atoms: C_22  and  C_41
                            x       y       z     vdW  Elec       q    Type
                         _______ _______ _______ _____ _____    ______ ____

>  <TORSDO>
F 10

$$$$
