=
 OpenBabel11052414253D

 34 37  0  0  1  0  0  0  0  0999 V2000
  184.8230  176.4400  137.0100 C   0  0  0  0  0  2  0  0  0  0  0  0
  181.0250  175.6380  136.8970 C   0  0  0  0  0  1  0  0  0  0  0  0
  178.9420  182.0180  140.1590 N   0  0  0  0  0  2  0  0  0  0  0  0
  182.3690  176.9380  138.5860 C   0  0  1  0  0  3  0  0  0  0  0  0
  182.4110  179.5070  138.2780 C   0  0  1  0  0  3  0  0  0  0  0  0
  180.3060  178.2940  138.9350 C   0  0  0  0  0  3  0  0  0  0  0  0
  179.7250  183.1030  138.2340 N   0  0  0  0  0  2  0  0  0  0  0  0
  182.4090  175.8340  137.5060 C   0  0  2  0  0  0  0  0  0  0  0  0
  179.7100  179.4630  139.1680 C   0  0  0  0  0  3  0  0  0  0  0  0
  181.5350  180.7160  137.9540 C   0  0  0  0  0  2  0  0  0  0  0  0
  183.7740  177.2300  139.1610 C   0  0  2  0  0  3  0  0  0  0  0  0
  183.4340  176.2090  136.4120 C   0  0  2  0  0  3  0  0  0  0  0  0
  182.7860  174.6320  138.1140 O   0  0  0  0  0  1  0  0  0  0  0  0
  183.0920  179.6740  139.6430 C   0  0  0  0  0  2  0  0  0  0  0  0
  183.6740  178.3610  140.1930 C   0  0  2  0  0  3  0  0  0  0  0  0
  180.2880  180.7050  138.7290 N   0  0  0  0  0  0  0  0  0  0  0  0
  181.5910  178.2080  138.1640 C   0  0  2  0  0  3  0  0  0  0  0  0
  184.7770  177.5570  138.0450 C   0  0  0  0  0  2  0  0  0  0  0  0
  179.6330  181.9400  139.0690 C   0  0  0  0  0  0  0  0  0  0  0  0
  185.0900  178.6900  142.2990 C   0  0  0  0  0  0  0  0  0  0  0  0
  186.3610  178.8480  142.5630 O   0  0  0  0  0  0  0  0  0  0  0  0
  184.9520  178.5840  140.9390 C   0  0  0  0  0  0  0  0  0  0  0  0
  187.0090  178.8290  141.4160 C   0  0  0  0  0  3  0  0  0  0  0  0
  186.1690  178.6620  140.3680 N   0  0  0  0  0  0  0  0  0  0  0  0
  184.0050  178.6640  143.3220 C   0  0  0  0  0  2  0  0  0  0  0  0
  184.6040  178.7590  144.7090 C   0  0  0  0  0  1  0  0  0  0  0  0
  183.5180  175.1960  135.3100 C   0  0  0  0  0  0  0  0  0  0  0  0
  184.6960  174.4960  135.0790 O   0  0  0  0  0  1  0  0  0  0  0  0
  182.5080  174.9710  134.5940 O   0  0  0  0  0  0  0  0  0  0  0  0
  180.1920  183.0980  136.8530 C   0  0  0  0  0  3  0  0  0  0  0  0
  179.0160  182.9650  135.8800 C   0  0  0  0  0  2  0  0  0  0  0  0
  179.0600  181.6610  135.0980 C   0  0  0  0  0  1  0  0  0  0  0  0
  181.0110  184.3510  136.5820 C   0  0  0  0  0  2  0  0  0  0  0  0
  180.7790  184.8370  135.1630 C   0  0  0  0  0  1  0  0  0  0  0  0
  1 18  1  0  0  0  0
  2  8  1  0  0  0  0
  4 11  1  0  0  0  0
  5 14  1  0  0  0  0
  6  9  2  0  0  0  0
  7 19  1  0  0  0  0
  8 13  1  0  0  0  0
  8  4  1  0  0  0  0
 10  5  1  0  0  0  0
 10 16  1  0  0  0  0
 11 15  1  0  0  0  0
 12  1  1  0  0  0  0
 12  8  1  0  0  0  0
 14 15  1  0  0  0  0
 15 22  1  0  0  0  0
 16 19  1  0  0  0  0
 16  9  1  0  0  0  0
 17  5  1  0  0  0  0
 17  4  1  0  0  0  0
 17  6  1  0  0  0  0
 18 11  1  0  0  0  0
 19  3  2  0  0  0  0
 20 21  1  0  0  0  0
 20 25  1  0  0  0  0
 22 20  2  0  0  0  0
 23 21  1  0  0  0  0
 24 22  1  0  0  0  0
 24 23  2  0  0  0  0
 25 26  1  0  0  0  0
 27 12  1  0  0  0  0
 28 27  1  0  0  0  0
 29 27  2  0  0  0  0
 30  7  1  0  0  0  0
 31 30  1  0  0  0  0
 32 31  1  0  0  0  0
 33 30  1  0  0  0  0
 34 33  1  0  0  0  0
M  END
>  <MODEL>
1

>  <REMARK>
 VINA RESULT:      -5.8      0.000      0.000
  Name = 
  6 active torsions:
  status: ('A' for Active; 'I' for Inactive)
    1  A    between atoms: C_6  and  C_24
    2  A    between atoms: C_7  and  C_23
    3  A    between atoms: C_11  and  C_20
    4  A    between atoms: C_12  and  C_28
    5  A    between atoms: N_13  and  C_20
    6  A    between atoms: C_14  and  C_20
                            x       y       z     vdW  Elec       q    Type
                         _______ _______ _______ _____ _____    ______ ____

>  <TORSDO>
F 6

$$$$
=
 OpenBabel11052414253D

 34 37  0  0  1  0  0  0  0  0999 V2000
  182.0210  174.6320  137.7550 C   0  0  0  0  0  2  0  0  0  0  0  0
  184.3710  174.5450  134.6650 C   0  0  0  0  0  1  0  0  0  0  0  0
  188.9470  179.8600  137.2100 N   0  0  0  0  0  2  0  0  0  0  0  0
  183.7140  176.4620  136.1630 C   0  0  1  0  0  3  0  0  0  0  0  0
  185.3470  177.0100  138.0950 C   0  0  1  0  0  3  0  0  0  0  0  0
  185.9810  177.3880  135.6890 C   0  0  0  0  0  3  0  0  0  0  0  0
  189.5570  178.3450  138.8900 N   0  0  0  0  0  2  0  0  0  0  0  0
  183.3000  175.0800  135.6100 C   0  0  2  0  0  0  0  0  0  0  0  0
  187.0780  178.0330  136.0840 C   0  0  0  0  0  3  0  0  0  0  0  0
  186.8260  177.1650  138.4410 C   0  0  0  0  0  2  0  0  0  0  0  0
  182.6980  176.9940  137.1970 C   0  0  2  0  0  3  0  0  0  0  0  0
  183.0690  174.0960  136.7790 C   0  0  2  0  0  3  0  0  0  0  0  0
  182.1170  175.2310  134.8790 O   0  0  0  0  0  1  0  0  0  0  0  0
  184.5730  178.3000  138.4010 C   0  0  0  0  0  2  0  0  0  0  0  0
  183.1860  178.3450  137.7390 C   0  0  2  0  0  3  0  0  0  0  0  0
  187.5320  177.9840  137.4480 N   0  0  0  0  0  0  0  0  0  0  0  0
  185.1860  176.5380  136.6380 C   0  0  2  0  0  3  0  0  0  0  0  0
  182.4590  175.9760  138.3220 C   0  0  0  0  0  2  0  0  0  0  0  0
  188.6840  178.7570  137.8300 C   0  0  0  0  0  0  0  0  0  0  0  0
  181.1150  179.7830  138.1740 C   0  0  0  0  0  0  0  0  0  0  0  0
  180.4470  180.1750  139.2270 O   0  0  0  0  0  0  0  0  0  0  0  0
  182.1740  179.0250  138.6060 C   0  0  0  0  0  0  0  0  0  0  0  0
  181.0480  179.6760  140.2870 C   0  0  0  0  0  3  0  0  0  0  0  0
  182.1350  178.9440  139.9490 N   0  0  0  0  0  0  0  0  0  0  0  0
  180.7730  180.1390  136.7670 C   0  0  0  0  0  2  0  0  0  0  0  0
  180.6310  181.6420  136.6380 C   0  0  0  0  0  1  0  0  0  0  0  0
  182.6840  172.7200  136.3250 C   0  0  0  0  0  0  0  0  0  0  0  0
  183.6280  171.7010  136.2730 O   0  0  0  0  0  1  0  0  0  0  0  0
  181.4930  172.4840  135.9980 O   0  0  0  0  0  0  0  0  0  0  0  0
  189.5840  177.0080  139.4710 C   0  0  0  0  0  3  0  0  0  0  0  0
  190.6280  176.1310  138.7730 C   0  0  0  0  0  2  0  0  0  0  0  0
  190.0290  175.3140  137.6380 C   0  0  0  0  0  1  0  0  0  0  0  0
  189.8340  177.1020  140.9690 C   0  0  0  0  0  2  0  0  0  0  0  0
  188.5850  177.5860  141.6830 C   0  0  0  0  0  1  0  0  0  0  0  0
  1 18  1  0  0  0  0
  2  8  1  0  0  0  0
  3 19  2  0  0  0  0
  4 17  1  0  0  0  0
  4 11  1  0  0  0  0
  5 14  1  0  0  0  0
  5 10  1  0  0  0  0
  6  9  2  0  0  0  0
  6 17  1  0  0  0  0
  7 30  1  0  0  0  0
  8  4  1  0  0  0  0
  8 12  1  0  0  0  0
  9 16  1  0  0  0  0
 11 15  1  0  0  0  0
 11 18  1  0  0  0  0
 12  1  1  0  0  0  0
 13  8  1  0  0  0  0
 15 14  1  0  0  0  0
 15 22  1  0  0  0  0
 16 19  1  0  0  0  0
 16 10  1  0  0  0  0
 17  5  1  0  0  0  0
 19  7  1  0  0  0  0
 20 22  2  0  0  0  0
 20 21  1  0  0  0  0
 21 23  1  0  0  0  0
 22 24  1  0  0  0  0
 24 23  2  0  0  0  0
 25 20  1  0  0  0  0
 26 25  1  0  0  0  0
 27 12  1  0  0  0  0
 28 27  1  0  0  0  0
 29 27  2  0  0  0  0
 30 33  1  0  0  0  0
 31 30  1  0  0  0  0
 32 31  1  0  0  0  0
 33 34  1  0  0  0  0
M  END
>  <MODEL>
2

>  <REMARK>
 VINA RESULT:      -5.6      2.783      7.216
  Name = 
  6 active torsions:
  status: ('A' for Active; 'I' for Inactive)
    1  A    between atoms: C_6  and  C_24
    2  A    between atoms: C_7  and  C_23
    3  A    between atoms: C_11  and  C_20
    4  A    between atoms: C_12  and  C_28
    5  A    between atoms: N_13  and  C_20
    6  A    between atoms: C_14  and  C_20
                            x       y       z     vdW  Elec       q    Type
                         _______ _______ _______ _____ _____    ______ ____

>  <TORSDO>
F 6

$$$$
=
 OpenBabel11052414253D

 34 37  0  0  1  0  0  0  0  0999 V2000
  179.5850  176.7320  139.7470 C   0  0  0  0  0  2  0  0  0  0  0  0
  181.7030  174.3110  137.5720 C   0  0  0  0  0  1  0  0  0  0  0  0
  187.5120  178.9520  136.9440 N   0  0  0  0  0  2  0  0  0  0  0  0
  181.5850  176.8280  137.5690 C   0  0  1  0  0  3  0  0  0  0  0  0
  183.3880  178.0550  138.9620 C   0  0  1  0  0  3  0  0  0  0  0  0
  183.9810  176.7710  136.8800 C   0  0  0  0  0  3  0  0  0  0  0  0
  187.8270  178.6560  139.2480 N   0  0  0  0  0  2  0  0  0  0  0  0
  180.8330  175.5190  137.9000 C   0  0  2  0  0  0  0  0  0  0  0  0
  185.2150  177.2700  136.9290 C   0  0  0  0  0  3  0  0  0  0  0  0
  184.8770  178.0650  139.3010 C   0  0  0  0  0  2  0  0  0  0  0  0
  180.7710  178.0760  137.9760 C   0  0  2  0  0  3  0  0  0  0  0  0
  180.4320  175.5090  139.3930 C   0  0  2  0  0  3  0  0  0  0  0  0
  179.6860  175.4530  137.1030 O   0  0  0  0  0  1  0  0  0  0  0  0
  182.9540  179.4000  138.3630 C   0  0  0  0  0  2  0  0  0  0  0  0
  181.5870  179.3380  137.6620 C   0  0  2  0  0  3  0  0  0  0  0  0
  185.7080  177.9510  138.0960 N   0  0  0  0  0  0  0  0  0  0  0  0
  183.0530  176.8540  138.0580 C   0  0  2  0  0  3  0  0  0  0  0  0
  180.3530  178.0140  139.4520 C   0  0  0  0  0  2  0  0  0  0  0  0
  187.0260  178.5280  138.0650 C   0  0  0  0  0  0  0  0  0  0  0  0
  179.9530  181.1670  136.9340 C   0  0  0  0  0  0  0  0  0  0  0  0
  179.4380  182.2390  137.4780 O   0  0  0  0  0  0  0  0  0  0  0  0
  180.8040  180.5990  137.8480 C   0  0  0  0  0  0  0  0  0  0  0  0
  179.9300  182.3420  138.6960 C   0  0  0  0  0  3  0  0  0  0  0  0
  180.7880  181.3340  138.9760 N   0  0  0  0  0  0  0  0  0  0  0  0
  179.6670  180.6930  135.5500 C   0  0  0  0  0  2  0  0  0  0  0  0
  180.7510  181.1730  134.6080 C   0  0  0  0  0  1  0  0  0  0  0  0
  179.7150  174.2580  139.8030 C   0  0  0  0  0  0  0  0  0  0  0  0
  179.8990  173.7180  141.0700 O   0  0  0  0  0  1  0  0  0  0  0  0
  178.9320  173.6970  138.9930 O   0  0  0  0  0  0  0  0  0  0  0  0
  187.5670  177.9660  140.5050 C   0  0  0  0  0  3  0  0  0  0  0  0
  188.8420  177.3060  141.0390 C   0  0  0  0  0  2  0  0  0  0  0  0
  189.9350  177.2260  139.9840 C   0  0  0  0  0  1  0  0  0  0  0  0
  186.9670  178.9360  141.5120 C   0  0  0  0  0  2  0  0  0  0  0  0
  186.3090  178.1780  142.6500 C   0  0  0  0  0  1  0  0  0  0  0  0
  2  8  1  0  0  0  0
  3 19  2  0  0  0  0
  4  8  1  0  0  0  0
  4 11  1  0  0  0  0
  4 17  1  0  0  0  0
  5 10  1  0  0  0  0
  6  9  2  0  0  0  0
  6 17  1  0  0  0  0
  7 30  1  0  0  0  0
  8 12  1  0  0  0  0
  9 16  1  0  0  0  0
 11 18  1  0  0  0  0
 12  1  1  0  0  0  0
 12 27  1  0  0  0  0
 13  8  1  0  0  0  0
 14  5  1  0  0  0  0
 15 22  1  0  0  0  0
 15 11  1  0  0  0  0
 15 14  1  0  0  0  0
 16 10  1  0  0  0  0
 17  5  1  0  0  0  0
 18  1  1  0  0  0  0
 19 16  1  0  0  0  0
 19  7  1  0  0  0  0
 20 21  1  0  0  0  0
 20 22  2  0  0  0  0
 21 23  1  0  0  0  0
 22 24  1  0  0  0  0
 23 24  2  0  0  0  0
 25 20  1  0  0  0  0
 26 25  1  0  0  0  0
 27 28  1  0  0  0  0
 29 27  2  0  0  0  0
 30 31  1  0  0  0  0
 30 33  1  0  0  0  0
 32 31  1  0  0  0  0
 33 34  1  0  0  0  0
M  END
>  <MODEL>
3

>  <REMARK>
 VINA RESULT:      -5.5      2.511      7.157
  Name = 
  6 active torsions:
  status: ('A' for Active; 'I' for Inactive)
    1  A    between atoms: C_6  and  C_24
    2  A    between atoms: C_7  and  C_23
    3  A    between atoms: C_11  and  C_20
    4  A    between atoms: C_12  and  C_28
    5  A    between atoms: N_13  and  C_20
    6  A    between atoms: C_14  and  C_20
                            x       y       z     vdW  Elec       q    Type
                         _______ _______ _______ _____ _____    ______ ____

>  <TORSDO>
F 6

$$$$
=
 OpenBabel11052414253D

 34 37  0  0  1  0  0  0  0  0999 V2000
  179.1450  176.6610  138.8020 C   0  0  0  0  0  2  0  0  0  0  0  0
  182.3940  174.8710  137.6550 C   0  0  0  0  0  1  0  0  0  0  0  0
  186.9870  179.7370  140.9580 N   0  0  0  0  0  2  0  0  0  0  0  0
  181.9250  177.3180  138.0340 C   0  0  1  0  0  3  0  0  0  0  0  0
  182.5900  178.2610  140.3500 C   0  0  1  0  0  3  0  0  0  0  0  0
  184.3240  177.5040  138.6900 C   0  0  0  0  0  3  0  0  0  0  0  0
  186.1500  178.9390  142.9970 N   0  0  0  0  0  2  0  0  0  0  0  0
  181.3100  175.9430  137.6910 C   0  0  2  0  0  0  0  0  0  0  0  0
  185.2800  178.0220  139.4590 C   0  0  0  0  0  3  0  0  0  0  0  0
  183.6910  178.2460  141.4080 C   0  0  0  0  0  2  0  0  0  0  0  0
  180.8430  178.4120  138.1710 C   0  0  2  0  0  3  0  0  0  0  0  0
  180.2250  175.5800  138.7310 C   0  0  2  0  0  3  0  0  0  0  0  0
  180.7370  176.0180  136.4170 O   0  0  0  0  0  1  0  0  0  0  0  0
  182.3200  179.6910  139.8600 C   0  0  0  0  0  2  0  0  0  0  0  0
  181.5110  179.7400  138.5540 C   0  0  2  0  0  3  0  0  0  0  0  0
  185.0190  178.4370  140.8110 N   0  0  0  0  0  0  0  0  0  0  0  0
  182.9320  177.2850  139.2090 C   0  0  2  0  0  3  0  0  0  0  0  0
  179.7590  178.0030  139.1790 C   0  0  0  0  0  2  0  0  0  0  0  0
  186.0760  179.0530  141.5700 C   0  0  0  0  0  0  0  0  0  0  0  0
  180.1100  181.5460  137.4040 C   0  0  0  0  0  0  0  0  0  0  0  0
  179.2770  182.4780  137.7890 O   0  0  0  0  0  0  0  0  0  0  0  0
  180.5640  180.8980  138.5250 C   0  0  0  0  0  0  0  0  0  0  0  0
  179.1940  182.4170  139.1030 C   0  0  0  0  0  3  0  0  0  0  0  0
  179.9790  181.4390  139.6100 N   0  0  0  0  0  0  0  0  0  0  0  0
  180.4970  181.2820  135.9890 C   0  0  0  0  0  2  0  0  0  0  0  0
  180.4620  182.5730  135.1970 C   0  0  0  0  0  1  0  0  0  0  0  0
  179.5910  174.2440  138.4810 C   0  0  0  0  0  0  0  0  0  0  0  0
  178.9320  173.9850  137.2860 O   0  0  0  0  0  0  0  0  0  0  0  0
  179.6670  173.3470  139.3600 O   0  0  0  0  0  1  0  0  0  0  0  0
  185.4030  177.9720  143.7930 C   0  0  0  0  0  3  0  0  0  0  0  0
  186.3510  177.0790  144.5990 C   0  0  0  0  0  2  0  0  0  0  0  0
  187.8130  177.4230  144.3560 C   0  0  0  0  0  1  0  0  0  0  0  0
  184.4120  178.7000  144.6890 C   0  0  0  0  0  2  0  0  0  0  0  0
  184.8100  178.5520  146.1460 C   0  0  0  0  0  1  0  0  0  0  0  0
  1 18  1  0  0  0  0
  2  8  1  0  0  0  0
  3 19  2  0  0  0  0
  4 11  1  0  0  0  0
  4 17  1  0  0  0  0
  5 10  1  0  0  0  0
  6 17  1  0  0  0  0
  6  9  2  0  0  0  0
  7 30  1  0  0  0  0
  8  4  1  0  0  0  0
  8 12  1  0  0  0  0
  9 16  1  0  0  0  0
 11 15  1  0  0  0  0
 11 18  1  0  0  0  0
 12  1  1  0  0  0  0
 13  8  1  0  0  0  0
 14  5  1  0  0  0  0
 15 14  1  0  0  0  0
 16 10  1  0  0  0  0
 16 19  1  0  0  0  0
 17  5  1  0  0  0  0
 19  7  1  0  0  0  0
 20 21  1  0  0  0  0
 20 22  2  0  0  0  0
 21 23  1  0  0  0  0
 22 15  1  0  0  0  0
 22 24  1  0  0  0  0
 23 24  2  0  0  0  0
 25 20  1  0  0  0  0
 26 25  1  0  0  0  0
 27 12  1  0  0  0  0
 27 29  1  0  0  0  0
 28 27  2  0  0  0  0
 30 31  1  0  0  0  0
 30 33  1  0  0  0  0
 32 31  1  0  0  0  0
 33 34  1  0  0  0  0
M  END
>  <MODEL>
4

>  <REMARK>
 VINA RESULT:      -5.3      2.308      7.194
  Name = 
  6 active torsions:
  status: ('A' for Active; 'I' for Inactive)
    1  A    between atoms: C_6  and  C_24
    2  A    between atoms: C_7  and  C_23
    3  A    between atoms: C_11  and  C_20
    4  A    between atoms: C_12  and  C_28
    5  A    between atoms: N_13  and  C_20
    6  A    between atoms: C_14  and  C_20
                            x       y       z     vdW  Elec       q    Type
                         _______ _______ _______ _____ _____    ______ ____

>  <TORSDO>
F 6

$$$$
=
 OpenBabel11052414253D

 34 37  0  0  1  0  0  0  0  0999 V2000
  186.4100  177.7940  143.5270 C   0  0  0  0  0  2  0  0  0  0  0  0
  183.1190  179.7670  144.1190 C   0  0  0  0  0  1  0  0  0  0  0  0
  180.0820  177.8980  137.5640 N   0  0  0  0  0  2  0  0  0  0  0  0
  184.3820  179.3010  141.9890 C   0  0  1  0  0  3  0  0  0  0  0  0
  183.5760  177.2650  140.6080 C   0  0  1  0  0  3  0  0  0  0  0  0
  182.1570  179.3280  140.8620 C   0  0  0  0  0  3  0  0  0  0  0  0
  180.0120  175.7000  138.3740 N   0  0  0  0  0  2  0  0  0  0  0  0
  184.4860  179.4480  143.5230 C   0  0  2  0  0  0  0  0  0  0  0  0
  181.3140  178.8560  139.9450 C   0  0  0  0  0  3  0  0  0  0  0  0
  182.3280  176.5490  140.0970 C   0  0  0  0  0  2  0  0  0  0  0  0
  185.7300  178.8840  141.3590 C   0  0  2  0  0  3  0  0  0  0  0  0
  185.0530  178.1470  144.1360 C   0  0  2  0  0  3  0  0  0  0  0  0
  185.3410  180.5170  143.8090 O   0  0  0  0  0  1  0  0  0  0  0  0
  184.4870  177.6770  139.4440 C   0  0  0  0  0  2  0  0  0  0  0  0
  185.5500  178.7130  139.8440 C   0  0  2  0  0  3  0  0  0  0  0  0
  181.3690  177.4880  139.5020 N   0  0  0  0  0  0  0  0  0  0  0  0
  183.1810  178.4450  141.5150 C   0  0  2  0  0  3  0  0  0  0  0  0
  186.2860  177.6140  142.0190 C   0  0  0  0  0  2  0  0  0  0  0  0
  180.4770  177.0540  138.4590 C   0  0  0  0  0  0  0  0  0  0  0  0
  186.9910  178.1180  137.8140 C   0  0  0  0  0  0  0  0  0  0  0  0
  188.2710  178.0630  137.5530 O   0  0  0  0  0  0  0  0  0  0  0  0
  186.8450  178.4940  139.1260 C   0  0  0  0  0  0  0  0  0  0  0  0
  188.9140  178.4040  138.6510 C   0  0  0  0  0  3  0  0  0  0  0  0
  188.0630  178.6880  139.6640 N   0  0  0  0  0  0  0  0  0  0  0  0
  185.9080  177.7930  136.8420 C   0  0  0  0  0  2  0  0  0  0  0  0
  186.0580  176.3640  136.3650 C   0  0  0  0  0  1  0  0  0  0  0  0
  185.1650  178.1990  145.6300 C   0  0  0  0  0  0  0  0  0  0  0  0
  184.1030  178.6500  146.4050 O   0  0  0  0  0  1  0  0  0  0  0  0
  186.2280  177.8230  146.1880 O   0  0  0  0  0  0  0  0  0  0  0  0
  180.1080  174.7200  139.4490 C   0  0  0  0  0  3  0  0  0  0  0  0
  179.0140  174.9500  140.4970 C   0  0  0  0  0  2  0  0  0  0  0  0
  178.9870  173.8560  141.5530 C   0  0  0  0  0  1  0  0  0  0  0  0
  180.0500  173.3140  138.8710 C   0  0  0  0  0  2  0  0  0  0  0  0
  180.4710  173.3260  137.4130 C   0  0  0  0  0  1  0  0  0  0  0  0
  1 12  1  0  0  0  0
  3 19  2  0  0  0  0
  4  8  1  0  0  0  0
  5 17  1  0  0  0  0
  6 17  1  0  0  0  0
  7 19  1  0  0  0  0
  7 30  1  0  0  0  0
  8 13  1  0  0  0  0
  8  2  1  0  0  0  0
  8 12  1  0  0  0  0
  9  6  2  0  0  0  0
 10  5  1  0  0  0  0
 11  4  1  0  0  0  0
 11 18  1  0  0  0  0
 12 27  1  0  0  0  0
 14 15  1  0  0  0  0
 14  5  1  0  0  0  0
 15 11  1  0  0  0  0
 16  9  1  0  0  0  0
 16 10  1  0  0  0  0
 17  4  1  0  0  0  0
 18  1  1  0  0  0  0
 19 16  1  0  0  0  0
 20 22  2  0  0  0  0
 21 20  1  0  0  0  0
 21 23  1  0  0  0  0
 22 24  1  0  0  0  0
 22 15  1  0  0  0  0
 23 24  2  0  0  0  0
 25 20  1  0  0  0  0
 26 25  1  0  0  0  0
 27 29  2  0  0  0  0
 27 28  1  0  0  0  0
 30 31  1  0  0  0  0
 31 32  1  0  0  0  0
 33 30  1  0  0  0  0
 34 33  1  0  0  0  0
M  END
>  <MODEL>
5

>  <REMARK>
 VINA RESULT:      -5.1      3.739      7.075
  Name = 
  6 active torsions:
  status: ('A' for Active; 'I' for Inactive)
    1  A    between atoms: C_6  and  C_24
    2  A    between atoms: C_7  and  C_23
    3  A    between atoms: C_11  and  C_20
    4  A    between atoms: C_12  and  C_28
    5  A    between atoms: N_13  and  C_20
    6  A    between atoms: C_14  and  C_20
                            x       y       z     vdW  Elec       q    Type
                         _______ _______ _______ _____ _____    ______ ____

>  <TORSDO>
F 6

$$$$
=
 OpenBabel11052414253D

 34 37  0  0  1  0  0  0  0  0999 V2000
  186.9980  177.9060  138.0080 C   0  0  0  0  0  2  0  0  0  0  0  0
  184.0320  176.6890  135.8180 C   0  0  0  0  0  1  0  0  0  0  0  0
  178.9380  180.9220  139.2550 N   0  0  0  0  0  2  0  0  0  0  0  0
  184.0920  177.3970  138.2350 C   0  0  1  0  0  3  0  0  0  0  0  0
  183.4610  179.8610  138.7170 C   0  0  1  0  0  3  0  0  0  0  0  0
  181.7590  178.2050  137.8820 C   0  0  0  0  0  3  0  0  0  0  0  0
  180.0640  182.7710  138.3580 N   0  0  0  0  0  2  0  0  0  0  0  0
  184.9100  176.8220  137.0580 C   0  0  2  0  0  0  0  0  0  0  0  0
  180.7920  179.0940  138.1050 C   0  0  0  0  0  3  0  0  0  0  0  0
  182.4700  180.9640  138.3550 C   0  0  0  0  0  2  0  0  0  0  0  0
  184.9720  177.6350  139.4830 C   0  0  2  0  0  3  0  0  0  0  0  0
  186.1220  177.7350  136.7660 C   0  0  2  0  0  3  0  0  0  0  0  0
  185.3550  175.5430  137.4090 O   0  0  0  0  0  1  0  0  0  0  0  0
  183.4350  179.5730  140.2250 C   0  0  0  0  0  2  0  0  0  0  0  0
  184.1140  178.2450  140.6000 C   0  0  2  0  0  3  0  0  0  0  0  0
  181.0850  180.4760  138.3760 N   0  0  0  0  0  0  0  0  0  0  0  0
  183.2060  178.6090  137.8570 C   0  0  2  0  0  3  0  0  0  0  0  0
  186.1900  178.5090  139.1500 C   0  0  0  0  0  2  0  0  0  0  0  0
  180.0020  181.3750  138.6760 C   0  0  0  0  0  0  0  0  0  0  0  0
  184.2670  178.5470  143.1360 C   0  0  0  0  0  0  0  0  0  0  0  0
  185.2220  178.5280  144.0290 O   0  0  0  0  0  0  0  0  0  0  0  0
  184.8370  178.3350  141.9070 C   0  0  0  0  0  0  0  0  0  0  0  0
  186.3540  178.3000  143.3950 C   0  0  0  0  0  3  0  0  0  0  0  0
  186.1640  178.1670  142.0620 N   0  0  0  0  0  0  0  0  0  0  0  0
  182.8260  178.7880  143.4340 C   0  0  0  0  0  2  0  0  0  0  0  0
  182.6380  178.9970  144.9220 C   0  0  0  0  0  1  0  0  0  0  0  0
  186.9580  177.2570  135.6170 C   0  0  0  0  0  0  0  0  0  0  0  0
  187.5910  176.0210  135.6680 O   0  0  0  0  0  1  0  0  0  0  0  0
  187.0800  177.9780  134.5940 O   0  0  0  0  0  0  0  0  0  0  0  0
  181.0320  183.3730  137.4490 C   0  0  0  0  0  3  0  0  0  0  0  0
  180.7100  183.0180  135.9940 C   0  0  0  0  0  2  0  0  0  0  0  0
  180.6500  184.2470  135.1000 C   0  0  0  0  0  1  0  0  0  0  0  0
  181.0770  184.8780  137.6670 C   0  0  0  0  0  2  0  0  0  0  0  0
  179.6890  185.4080  137.9770 C   0  0  0  0  0  1  0  0  0  0  0  0
  1 18  1  0  0  0  0
  2  8  1  0  0  0  0
  4 11  1  0  0  0  0
  5 14  1  0  0  0  0
  6  9  2  0  0  0  0
  7 19  1  0  0  0  0
  8 13  1  0  0  0  0
  8  4  1  0  0  0  0
  9 16  1  0  0  0  0
 10 16  1  0  0  0  0
 10  5  1  0  0  0  0
 11 15  1  0  0  0  0
 12  8  1  0  0  0  0
 12  1  1  0  0  0  0
 14 15  1  0  0  0  0
 15 22  1  0  0  0  0
 16 19  1  0  0  0  0
 17  6  1  0  0  0  0
 17  4  1  0  0  0  0
 17  5  1  0  0  0  0
 18 11  1  0  0  0  0
 19  3  2  0  0  0  0
 20 25  1  0  0  0  0
 20 21  1  0  0  0  0
 22 24  1  0  0  0  0
 22 20  2  0  0  0  0
 23 21  1  0  0  0  0
 24 23  2  0  0  0  0
 25 26  1  0  0  0  0
 27 28  1  0  0  0  0
 27 12  1  0  0  0  0
 29 27  2  0  0  0  0
 30 33  1  0  0  0  0
 30  7  1  0  0  0  0
 31 30  1  0  0  0  0
 32 31  1  0  0  0  0
 33 34  1  0  0  0  0
M  END
>  <MODEL>
6

>  <REMARK>
 VINA RESULT:      -5.0      1.656      2.232
  Name = 
  6 active torsions:
  status: ('A' for Active; 'I' for Inactive)
    1  A    between atoms: C_6  and  C_24
    2  A    between atoms: C_7  and  C_23
    3  A    between atoms: C_11  and  C_20
    4  A    between atoms: C_12  and  C_28
    5  A    between atoms: N_13  and  C_20
    6  A    between atoms: C_14  and  C_20
                            x       y       z     vdW  Elec       q    Type
                         _______ _______ _______ _____ _____    ______ ____

>  <TORSDO>
F 6

$$$$
=
 OpenBabel11052414253D

 34 37  0  0  1  0  0  0  0  0999 V2000
  182.1800  178.6270  142.5700 C   0  0  0  0  0  2  0  0  0  0  0  0
  179.1970  179.3680  140.1970 C   0  0  0  0  0  1  0  0  0  0  0  0
  181.7990  175.1830  134.5950 N   0  0  0  0  0  2  0  0  0  0  0  0
  181.6260  178.9420  139.6810 C   0  0  1  0  0  3  0  0  0  0  0  0
  182.2500  176.5080  139.0570 C   0  0  1  0  0  3  0  0  0  0  0  0
  180.8210  177.9300  137.5490 C   0  0  0  0  0  3  0  0  0  0  0  0
  181.4470  173.3330  135.9890 N   0  0  0  0  0  2  0  0  0  0  0  0
  180.6200  179.4400  140.7420 C   0  0  2  0  0  0  0  0  0  0  0  0
  180.9130  177.0030  136.5960 C   0  0  0  0  0  3  0  0  0  0  0  0
  181.8000  175.3020  138.2370 C   0  0  0  0  0  2  0  0  0  0  0  0
  183.0700  178.9120  140.2300 C   0  0  2  0  0  3  0  0  0  0  0  0
  180.7510  178.5920  142.0270 C   0  0  2  0  0  3  0  0  0  0  0  0
  180.9030  180.7800  141.0280 O   0  0  0  0  0  1  0  0  0  0  0  0
  183.6560  176.9610  138.6420 C   0  0  0  0  0  2  0  0  0  0  0  0
  184.0130  178.3690  139.1460 C   0  0  2  0  0  3  0  0  0  0  0  0
  181.4200  175.6850  136.8720 N   0  0  0  0  0  0  0  0  0  0  0  0
  181.2010  177.6340  138.9710 C   0  0  2  0  0  3  0  0  0  0  0  0
  183.1580  178.0980  141.5290 C   0  0  0  0  0  2  0  0  0  0  0  0
  181.5600  174.7480  135.7880 C   0  0  0  0  0  0  0  0  0  0  0  0
  186.5280  178.3410  138.6760 C   0  0  0  0  0  0  0  0  0  0  0  0
  187.6170  178.5390  139.3720 O   0  0  0  0  0  0  0  0  0  0  0  0
  185.4570  178.4800  139.5220 C   0  0  0  0  0  0  0  0  0  0  0  0
  187.2530  178.8090  140.6090 C   0  0  0  0  0  3  0  0  0  0  0  0
  185.9080  178.7880  140.7530 N   0  0  0  0  0  0  0  0  0  0  0  0
  186.4950  177.9950  137.2260 C   0  0  0  0  0  2  0  0  0  0  0  0
  187.6800  178.6240  136.5220 C   0  0  0  0  0  1  0  0  0  0  0  0
  179.7890  178.9990  143.1030 C   0  0  0  0  0  0  0  0  0  0  0  0
  179.4660  180.3360  143.2960 O   0  0  0  0  0  0  0  0  0  0  0  0
  179.2620  178.1180  143.8320 O   0  0  0  0  0  1  0  0  0  0  0  0
  180.8850  172.7060  137.1800 C   0  0  0  0  0  3  0  0  0  0  0  0
  179.3980  172.3960  136.9830 C   0  0  0  0  0  2  0  0  0  0  0  0
  179.1750  171.0760  136.2600 C   0  0  0  0  0  1  0  0  0  0  0  0
  181.6820  171.4580  137.5290 C   0  0  0  0  0  2  0  0  0  0  0  0
  182.8620  171.3040  136.5870 C   0  0  0  0  0  1  0  0  0  0  0  0
  2  8  1  0  0  0  0
  3 19  2  0  0  0  0
  4 11  1  0  0  0  0
  4  8  1  0  0  0  0
  6 17  1  0  0  0  0
  7 30  1  0  0  0  0
  8 13  1  0  0  0  0
  8 12  1  0  0  0  0
  9 16  1  0  0  0  0
  9  6  2  0  0  0  0
 10  5  1  0  0  0  0
 11 18  1  0  0  0  0
 12  1  1  0  0  0  0
 12 27  1  0  0  0  0
 14  5  1  0  0  0  0
 14 15  1  0  0  0  0
 15 22  1  0  0  0  0
 15 11  1  0  0  0  0
 16 10  1  0  0  0  0
 17  5  1  0  0  0  0
 17  4  1  0  0  0  0
 18  1  1  0  0  0  0
 19  7  1  0  0  0  0
 19 16  1  0  0  0  0
 20 21  1  0  0  0  0
 20 22  2  0  0  0  0
 21 23  1  0  0  0  0
 22 24  1  0  0  0  0
 23 24  2  0  0  0  0
 25 20  1  0  0  0  0
 26 25  1  0  0  0  0
 27 28  2  0  0  0  0
 27 29  1  0  0  0  0
 30 33  1  0  0  0  0
 31 30  1  0  0  0  0
 32 31  1  0  0  0  0
 34 33  1  0  0  0  0
M  END
>  <MODEL>
7

>  <REMARK>
 VINA RESULT:      -4.8      3.991      7.145
  Name = 
  6 active torsions:
  status: ('A' for Active; 'I' for Inactive)
    1  A    between atoms: C_6  and  C_24
    2  A    between atoms: C_7  and  C_23
    3  A    between atoms: C_11  and  C_20
    4  A    between atoms: C_12  and  C_28
    5  A    between atoms: N_13  and  C_20
    6  A    between atoms: C_14  and  C_20
                            x       y       z     vdW  Elec       q    Type
                         _______ _______ _______ _____ _____    ______ ____

>  <TORSDO>
F 6

$$$$
=
 OpenBabel11052414253D

 34 37  0  0  1  0  0  0  0  0999 V2000
  189.9250  173.7530  137.1630 C   0  0  0  0  0  2  0  0  0  0  0  0
  189.7420  177.2140  135.4130 C   0  0  0  0  0  1  0  0  0  0  0  0
  182.2890  177.3410  135.0600 N   0  0  0  0  0  2  0  0  0  0  0  0
  188.2410  175.2000  135.2090 C   0  0  1  0  0  3  0  0  0  0  0  0
  186.1180  175.2050  136.6890 C   0  0  1  0  0  3  0  0  0  0  0  0
  186.3980  176.8260  134.7840 C   0  0  0  0  0  3  0  0  0  0  0  0
  182.3130  177.4770  137.3990 N   0  0  0  0  0  2  0  0  0  0  0  0
  189.6620  175.6980  135.5550 C   0  0  2  0  0  0  0  0  0  0  0  0
  185.1290  177.2060  134.9260 C   0  0  0  0  0  3  0  0  0  0  0  0
  184.9720  176.0850  137.1830 C   0  0  0  0  0  2  0  0  0  0  0  0
  188.0960  173.6780  135.4320 C   0  0  2  0  0  3  0  0  0  0  0  0
  190.0310  175.2690  136.9940 C   0  0  2  0  0  3  0  0  0  0  0  0
  190.5640  175.1330  134.6470 O   0  0  0  0  0  1  0  0  0  0  0  0
  185.5820  173.9720  135.9480 C   0  0  0  0  0  2  0  0  0  0  0  0
  186.6550  173.2540  135.1130 C   0  0  2  0  0  3  0  0  0  0  0  0
  184.3580  176.8430  136.0850 N   0  0  0  0  0  0  0  0  0  0  0  0
  187.1050  176.0360  135.8470 C   0  0  2  0  0  3  0  0  0  0  0  0
  188.5100  173.2800  136.8560 C   0  0  0  0  0  2  0  0  0  0  0  0
  182.9720  177.2250  136.1510 C   0  0  0  0  0  0  0  0  0  0  0  0
  185.2840  171.1010  135.2890 C   0  0  0  0  0  0  0  0  0  0  0  0
  185.5310  169.8200  135.2000 O   0  0  0  0  0  0  0  0  0  0  0  0
  186.4700  171.7700  135.1190 C   0  0  0  0  0  0  0  0  0  0  0  0
  186.8200  169.6780  134.9700 C   0  0  0  0  0  3  0  0  0  0  0  0
  187.4520  170.8730  134.9060 N   0  0  0  0  0  0  0  0  0  0  0  0
  183.9430  171.6940  135.5570 C   0  0  0  0  0  2  0  0  0  0  0  0
  183.3790  171.1270  136.8430 C   0  0  0  0  0  1  0  0  0  0  0  0
  191.3920  175.7340  137.4170 C   0  0  0  0  0  0  0  0  0  0  0  0
  192.5340  175.0810  136.9710 O   0  0  0  0  0  0  0  0  0  0  0  0
  191.4990  176.7320  138.1760 O   0  0  0  0  0  1  0  0  0  0  0  0
  182.9950  177.6900  138.6700 C   0  0  0  0  0  3  0  0  0  0  0  0
  183.4170  179.1550  138.8250 C   0  0  0  0  0  2  0  0  0  0  0  0
  184.5020  179.3340  139.8750 C   0  0  0  0  0  1  0  0  0  0  0  0
  182.1050  177.2330  139.8160 C   0  0  0  0  0  2  0  0  0  0  0  0
  181.7130  175.7780  139.6320 C   0  0  0  0  0  1  0  0  0  0  0  0
  2  8  1  0  0  0  0
  3 19  2  0  0  0  0
  4 11  1  0  0  0  0
  4  8  1  0  0  0  0
  4 17  1  0  0  0  0
  5 10  1  0  0  0  0
  6  9  2  0  0  0  0
  6 17  1  0  0  0  0
  7 30  1  0  0  0  0
  8 12  1  0  0  0  0
  9 16  1  0  0  0  0
 11 18  1  0  0  0  0
 12  1  1  0  0  0  0
 12 27  1  0  0  0  0
 13  8  1  0  0  0  0
 14  5  1  0  0  0  0
 15 22  1  0  0  0  0
 15 11  1  0  0  0  0
 15 14  1  0  0  0  0
 16 19  1  0  0  0  0
 16 10  1  0  0  0  0
 17  5  1  0  0  0  0
 18  1  1  0  0  0  0
 19  7  1  0  0  0  0
 20 25  1  0  0  0  0
 21 20  1  0  0  0  0
 22 20  2  0  0  0  0
 23 21  1  0  0  0  0
 24 23  2  0  0  0  0
 24 22  1  0  0  0  0
 25 26  1  0  0  0  0
 27 29  1  0  0  0  0
 28 27  2  0  0  0  0
 30 31  1  0  0  0  0
 30 33  1  0  0  0  0
 31 32  1  0  0  0  0
 34 33  1  0  0  0  0
M  END
>  <MODEL>
8

>  <REMARK>
 VINA RESULT:      -4.6      4.604      8.106
  Name = 
  6 active torsions:
  status: ('A' for Active; 'I' for Inactive)
    1  A    between atoms: C_6  and  C_24
    2  A    between atoms: C_7  and  C_23
    3  A    between atoms: C_11  and  C_20
    4  A    between atoms: C_12  and  C_28
    5  A    between atoms: N_13  and  C_20
    6  A    between atoms: C_14  and  C_20
                            x       y       z     vdW  Elec       q    Type
                         _______ _______ _______ _____ _____    ______ ____

>  <TORSDO>
F 6

$$$$
=
 OpenBabel11052414253D

 34 37  0  0  1  0  0  0  0  0999 V2000
  185.1610  173.4020  136.7520 C   0  0  0  0  0  2  0  0  0  0  0  0
  186.0210  177.1020  135.9450 C   0  0  0  0  0  1  0  0  0  0  0  0
  180.8050  179.9540  140.4560 N   0  0  0  0  0  2  0  0  0  0  0  0
  183.8150  176.0250  136.5130 C   0  0  1  0  0  3  0  0  0  0  0  0
  183.0930  176.1440  138.9960 C   0  0  1  0  0  3  0  0  0  0  0  0
  183.2110  178.2080  137.5590 C   0  0  0  0  0  3  0  0  0  0  0  0
  182.0510  179.0720  142.2350 N   0  0  0  0  0  2  0  0  0  0  0  0
  185.2260  175.8010  135.9270 C   0  0  2  0  0  0  0  0  0  0  0  0
  182.6140  178.9070  138.5230 C   0  0  0  0  0  3  0  0  0  0  0  0
  183.0220  177.0720  140.2070 C   0  0  0  0  0  2  0  0  0  0  0  0
  183.0120  174.7080  136.5980 C   0  0  2  0  0  3  0  0  0  0  0  0
  185.9610  174.7060  136.7340 C   0  0  2  0  0  3  0  0  0  0  0  0
  185.0930  175.3970  134.5940 O   0  0  0  0  0  1  0  0  0  0  0  0
  181.7010  175.6110  138.6310 C   0  0  0  0  0  2  0  0  0  0  0  0
  181.6400  174.9900  137.2260 C   0  0  2  0  0  3  0  0  0  0  0  0
  182.4640  178.3830  139.8540 N   0  0  0  0  0  0  0  0  0  0  0  0
  183.7980  176.8510  137.8230 C   0  0  2  0  0  3  0  0  0  0  0  0
  183.7870  173.6290  137.3680 C   0  0  0  0  0  2  0  0  0  0  0  0
  181.7510  179.1570  140.8350 C   0  0  0  0  0  0  0  0  0  0  0  0
  179.7250  173.5960  136.2580 C   0  0  0  0  0  0  0  0  0  0  0  0
  179.1720  172.4420  136.5280 O   0  0  0  0  0  0  0  0  0  0  0  0
  180.7230  173.8090  137.1750 C   0  0  0  0  0  0  0  0  0  0  0  0
  179.8010  171.9340  137.5680 C   0  0  0  0  0  3  0  0  0  0  0  0
  180.7850  172.7520  138.0070 N   0  0  0  0  0  0  0  0  0  0  0  0
  179.3010  174.5070  135.1570 C   0  0  0  0  0  2  0  0  0  0  0  0
  179.1970  175.9260  135.6760 C   0  0  0  0  0  1  0  0  0  0  0  0
  187.3520  174.4430  136.2400 C   0  0  0  0  0  0  0  0  0  0  0  0
  188.4380  175.1110  136.7920 O   0  0  0  0  0  1  0  0  0  0  0  0
  187.5370  173.6010  135.3240 O   0  0  0  0  0  0  0  0  0  0  0  0
  183.2600  178.4760  142.7890 C   0  0  0  0  0  3  0  0  0  0  0  0
  184.4870  179.3400  142.4790 C   0  0  0  0  0  2  0  0  0  0  0  0
  185.7010  178.5040  142.1040 C   0  0  0  0  0  1  0  0  0  0  0  0
  183.0870  178.2550  144.2840 C   0  0  0  0  0  2  0  0  0  0  0  0
  184.0950  179.0820  145.0610 C   0  0  0  0  0  1  0  0  0  0  0  0
  1 18  1  0  0  0  0
  3 19  2  0  0  0  0
  4 11  1  0  0  0  0
  4 17  1  0  0  0  0
  5 10  1  0  0  0  0
  6 17  1  0  0  0  0
  6  9  2  0  0  0  0
  7 30  1  0  0  0  0
  8  2  1  0  0  0  0
  8  4  1  0  0  0  0
  8 12  1  0  0  0  0
  9 16  1  0  0  0  0
 11 15  1  0  0  0  0
 11 18  1  0  0  0  0
 12  1  1  0  0  0  0
 13  8  1  0  0  0  0
 14  5  1  0  0  0  0
 15 14  1  0  0  0  0
 16 10  1  0  0  0  0
 16 19  1  0  0  0  0
 17  5  1  0  0  0  0
 19  7  1  0  0  0  0
 20 21  1  0  0  0  0
 20 22  2  0  0  0  0
 21 23  1  0  0  0  0
 22 15  1  0  0  0  0
 22 24  1  0  0  0  0
 23 24  2  0  0  0  0
 25 26  1  0  0  0  0
 25 20  1  0  0  0  0
 27 12  1  0  0  0  0
 27 28  1  0  0  0  0
 29 27  2  0  0  0  0
 30 33  1  0  0  0  0
 31 30  1  0  0  0  0
 32 31  1  0  0  0  0
 33 34  1  0  0  0  0
M  END
>  <MODEL>
9

>  <REMARK>
 VINA RESULT:      -4.6      3.235      6.711
  Name = 
  6 active torsions:
  status: ('A' for Active; 'I' for Inactive)
    1  A    between atoms: C_6  and  C_24
    2  A    between atoms: C_7  and  C_23
    3  A    between atoms: C_11  and  C_20
    4  A    between atoms: C_12  and  C_28
    5  A    between atoms: N_13  and  C_20
    6  A    between atoms: C_14  and  C_20
                            x       y       z     vdW  Elec       q    Type
                         _______ _______ _______ _____ _____    ______ ____

>  <TORSDO>
F 6

$$$$
