=
 OpenBabel11052412503D

 25 28  0  0  1  0  0  0  0  0999 V2000
  186.9200  178.1310  145.7030 C   0  0  0  0  0  0  0  0  0  0  0  0
  188.2540  177.7990  145.4850 C   0  0  0  0  0  0  0  0  0  0  0  0
  187.2560  178.2610  148.0470 N   0  0  0  0  0  0  0  0  0  0  0  0
  185.8450  178.3190  144.8710 C   0  0  0  0  0  0  0  0  0  0  0  0
  190.1410  176.9060  144.0830 C   0  0  2  0  0  3  0  0  0  0  0  0
  183.3540  178.8210  143.7750 C   0  0  0  0  0  3  0  0  0  0  0  0
  188.5470  177.9500  147.8730 N   0  0  0  0  0  0  0  0  0  0  0  0
  184.7820  178.6410  145.6940 C   0  0  0  0  0  0  0  0  0  0  0  0
  183.5170  178.8990  145.1700 C   0  0  0  0  0  3  0  0  0  0  0  0
  188.8040  177.6440  144.0930 C   0  0  0  0  0  2  0  0  0  0  0  0
  184.4440  178.4910  142.9400 C   0  0  0  0  0  3  0  0  0  0  0  0
  186.4430  178.3520  146.9700 C   0  0  0  0  0  0  0  0  0  0  0  0
  185.1290  178.6690  147.0020 N   0  0  0  0  0  2  0  0  0  0  0  0
  190.5300  177.3190  146.5260 C   0  0  1  0  0  3  0  0  0  0  0  0
  185.7130  178.2340  143.4860 C   0  0  0  0  0  3  0  0  0  0  0  0
  191.0860  177.5160  145.1140 C   0  0  0  0  0  2  0  0  0  0  0  0
  189.0840  177.7260  146.6320 C   0  0  0  0  0  0  0  0  0  0  0  0
  190.3260  176.9850  140.2150 C   0  0  0  0  0  0  0  0  0  0  0  0
  189.3630  176.9820  139.1700 N   0  0  0  0  0  1  0  0  0  0  0  0
  191.5520  177.0190  139.9280 O   0  0  0  0  0  0  0  0  0  0  0  0
  190.7480  176.9450  142.7220 C   0  0  0  0  0  0  0  0  0  0  0  0
  189.8880  176.9470  141.5770 N   0  0  0  0  0  2  0  0  0  0  0  0
  192.0030  176.9770  142.5890 O   0  0  0  0  0  0  0  0  0  0  0  0
  190.6750  175.9850  146.9110 O   0  0  0  0  0  0  0  0  0  0  0  0
  192.0210  175.8530  147.2580 C   0  0  0  0  0  1  0  0  0  0  0  0
  1 12  1  0  0  0  0
  2  1  2  0  0  0  0
  2 17  1  0  0  0  0
  4  8  1  0  0  0  0
  4  1  1  0  0  0  0
  5 21  1  6  0  0  0
  5 10  1  0  0  0  0
  5 16  1  0  0  0  0
  6  9  1  0  0  0  0
  7  3  1  0  0  0  0
  8 13  1  0  0  0  0
  9  8  2  0  0  0  0
 10  2  1  0  0  0  0
 11 15  1  0  0  0  0
 11  6  2  0  0  0  0
 12 13  1  0  0  0  0
 12  3  2  0  0  0  0
 14 17  1  0  0  0  0
 14 24  1  6  0  0  0
 15  4  2  0  0  0  0
 16 14  1  0  0  0  0
 17  7  2  0  0  0  0
 18 22  1  0  0  0  0
 19 18  1  0  0  0  0
 20 18  2  0  0  0  0
 22 21  1  0  0  0  0
 23 21  2  0  0  0  0
 24 25  1  0  0  0  0
M  END
>  <MODEL>
1

>  <REMARK>
 VINA RESULT:     -10.9      0.000      0.000
  Name = 
  2 active torsions:
  status: ('A' for Active; 'I' for Inactive)
    1  A    between atoms: C_6  and  C_15
    2  A    between atoms: O_13  and  C_20
                            x       y       z     vdW  Elec       q    Type
                         _______ _______ _______ _____ _____    ______ ____

>  <TORSDO>
F 2

$$$$
=
 OpenBabel11052412503D

 25 28  0  0  1  0  0  0  0  0999 V2000
  185.7440  178.3580  144.9090 C   0  0  0  0  0  0  0  0  0  0  0  0
  187.1010  178.0560  144.9720 C   0  0  0  0  0  0  0  0  0  0  0  0
  185.6430  178.7470  147.2470 N   0  0  0  0  0  0  0  0  0  0  0  0
  184.8350  178.4170  143.8820 C   0  0  0  0  0  0  0  0  0  0  0  0
  189.2280  177.0940  144.0390 C   0  0  2  0  0  3  0  0  0  0  0  0
  182.5780  178.7050  142.3080 C   0  0  0  0  0  3  0  0  0  0  0  0
  186.9500  178.4690  147.3430 N   0  0  0  0  0  0  0  0  0  0  0  0
  183.6340  178.7830  144.4600 C   0  0  0  0  0  0  0  0  0  0  0  0
  182.4820  178.9360  143.6920 C   0  0  0  0  0  3  0  0  0  0  0  0
  187.8990  177.7770  143.7270 C   0  0  0  0  0  2  0  0  0  0  0  0
  183.8080  178.3310  141.7240 C   0  0  0  0  0  3  0  0  0  0  0  0
  185.0390  178.6930  146.0380 C   0  0  0  0  0  0  0  0  0  0  0  0
  183.7360  178.9610  145.7980 N   0  0  0  0  0  2  0  0  0  0  0  0
  189.1570  177.7760  146.4520 C   0  0  1  0  0  3  0  0  0  0  0  0
  184.9600  178.1820  142.5140 C   0  0  0  0  0  3  0  0  0  0  0  0
  189.9580  177.8450  145.1500 C   0  0  0  0  0  2  0  0  0  0  0  0
  187.7090  178.1370  146.2500 C   0  0  0  0  0  0  0  0  0  0  0  0
  190.2140  177.4200  140.3080 C   0  0  0  0  0  0  0  0  0  0  0  0
  189.5480  177.8710  139.1360 N   0  0  0  0  0  1  0  0  0  0  0  0
  191.4030  177.0090  140.2260 O   0  0  0  0  0  0  0  0  0  0  0  0
  190.0740  177.0130  142.8130 C   0  0  0  0  0  0  0  0  0  0  0  0
  189.5240  177.4370  141.5620 N   0  0  0  0  0  2  0  0  0  0  0  0
  191.2550  176.5770  142.8870 O   0  0  0  0  0  0  0  0  0  0  0  0
  189.2530  176.4960  147.0020 O   0  0  0  0  0  0  0  0  0  0  0  0
  190.5890  176.3690  147.3870 C   0  0  0  0  0  1  0  0  0  0  0  0
  1  2  2  0  0  0  0
  1 12  1  0  0  0  0
  2 17  1  0  0  0  0
  3  7  1  0  0  0  0
  4  8  1  0  0  0  0
  4  1  1  0  0  0  0
  5 21  1  6  0  0  0
  5 16  1  0  0  0  0
  6  9  1  0  0  0  0
  8 13  1  0  0  0  0
  9  8  2  0  0  0  0
 10  5  1  0  0  0  0
 10  2  1  0  0  0  0
 11  6  2  0  0  0  0
 11 15  1  0  0  0  0
 12  3  2  0  0  0  0
 13 12  1  0  0  0  0
 14 24  1  6  0  0  0
 15  4  2  0  0  0  0
 16 14  1  0  0  0  0
 17 14  1  0  0  0  0
 17  7  2  0  0  0  0
 18 22  1  0  0  0  0
 19 18  1  0  0  0  0
 20 18  2  0  0  0  0
 21 23  2  0  0  0  0
 22 21  1  0  0  0  0
 24 25  1  0  0  0  0
M  END
>  <MODEL>
2

>  <REMARK>
 VINA RESULT:     -10.4      0.964      1.356
  Name = 
  2 active torsions:
  status: ('A' for Active; 'I' for Inactive)
    1  A    between atoms: C_6  and  C_15
    2  A    between atoms: O_13  and  C_20
                            x       y       z     vdW  Elec       q    Type
                         _______ _______ _______ _____ _____    ______ ____

>  <TORSDO>
F 2

$$$$
=
 OpenBabel11052412503D

 25 28  0  0  1  0  0  0  0  0999 V2000
  187.2020  177.8260  144.4710 C   0  0  0  0  0  0  0  0  0  0  0  0
  188.3020  177.5690  143.6590 C   0  0  0  0  0  0  0  0  0  0  0  0
  188.4330  177.3160  146.4330 N   0  0  0  0  0  0  0  0  0  0  0  0
  185.9140  178.2300  144.2190 C   0  0  0  0  0  0  0  0  0  0  0  0
  189.3880  177.0950  141.4410 C   0  0  2  0  0  3  0  0  0  0  0  0
  183.2630  179.0040  144.3830 C   0  0  0  0  0  3  0  0  0  0  0  0
  189.5140  177.0660  145.6820 N   0  0  0  0  0  0  0  0  0  0  0  0
  185.2960  178.3140  145.4530 C   0  0  0  0  0  0  0  0  0  0  0  0
  183.9620  178.7010  145.5660 C   0  0  0  0  0  3  0  0  0  0  0  0
  188.2480  177.7990  142.1730 C   0  0  0  0  0  2  0  0  0  0  0  0
  183.9010  178.9160  143.1260 C   0  0  0  0  0  3  0  0  0  0  0  0
  187.2810  177.6930  145.8350 C   0  0  0  0  0  0  0  0  0  0  0  0
  186.1250  177.9860  146.4710 N   0  0  0  0  0  2  0  0  0  0  0  0
  190.7380  176.8300  143.5390 C   0  0  1  0  0  3  0  0  0  0  0  0
  185.2470  178.5240  143.0320 C   0  0  0  0  0  3  0  0  0  0  0  0
  190.7190  177.4040  142.1210 C   0  0  0  0  0  2  0  0  0  0  0  0
  189.4990  177.1900  144.3160 C   0  0  0  0  0  0  0  0  0  0  0  0
  188.0750  178.3090  138.0060 C   0  0  0  0  0  0  0  0  0  0  0  0
  186.7980  178.6700  137.4970 N   0  0  0  0  0  1  0  0  0  0  0  0
  189.0810  178.3600  137.2490 O   0  0  0  0  0  0  0  0  0  0  0  0
  189.4190  177.5030  140.0070 C   0  0  0  0  0  0  0  0  0  0  0  0
  188.1980  177.8920  139.3700 N   0  0  0  0  0  2  0  0  0  0  0  0
  190.5100  177.5050  139.3730 O   0  0  0  0  0  0  0  0  0  0  0  0
  190.8770  175.4410  143.4870 O   0  0  0  0  0  0  0  0  0  0  0  0
  192.0280  175.1660  144.2280 C   0  0  0  0  0  1  0  0  0  0  0  0
  1 12  1  0  0  0  0
  2 17  1  0  0  0  0
  2  1  2  0  0  0  0
  4  1  1  0  0  0  0
  4  8  1  0  0  0  0
  5 21  1  6  0  0  0
  5 16  1  0  0  0  0
  5 10  1  0  0  0  0
  6  9  1  0  0  0  0
  7  3  1  0  0  0  0
  8  9  2  0  0  0  0
  8 13  1  0  0  0  0
 10  2  1  0  0  0  0
 11  6  2  0  0  0  0
 12  3  2  0  0  0  0
 12 13  1  0  0  0  0
 14 24  1  6  0  0  0
 14 17  1  0  0  0  0
 15 11  1  0  0  0  0
 15  4  2  0  0  0  0
 16 14  1  0  0  0  0
 17  7  2  0  0  0  0
 18 22  1  0  0  0  0
 19 18  1  0  0  0  0
 20 18  2  0  0  0  0
 22 21  1  0  0  0  0
 23 21  2  0  0  0  0
 24 25  1  0  0  0  0
M  END
>  <MODEL>
3

>  <REMARK>
 VINA RESULT:      -9.7      1.779      2.455
  Name = 
  2 active torsions:
  status: ('A' for Active; 'I' for Inactive)
    1  A    between atoms: C_6  and  C_15
    2  A    between atoms: O_13  and  C_20
                            x       y       z     vdW  Elec       q    Type
                         _______ _______ _______ _____ _____    ______ ____

>  <TORSDO>
F 2

$$$$
=
 OpenBabel11052412503D

 25 28  0  0  1  0  0  0  0  0999 V2000
  189.5640  177.3580  143.3930 C   0  0  0  0  0  0  0  0  0  0  0  0
  188.6580  177.5000  144.4400 C   0  0  0  0  0  0  0  0  0  0  0  0
  191.2670  176.6100  144.8650 N   0  0  0  0  0  0  0  0  0  0  0  0
  189.4830  177.5640  142.0380 C   0  0  0  0  0  0  0  0  0  0  0  0
  186.5310  178.3690  145.4610 C   0  0  2  0  0  3  0  0  0  0  0  0
  189.9630  177.7750  139.3220 C   0  0  0  0  0  3  0  0  0  0  0  0
  190.4190  176.7280  145.8950 N   0  0  0  0  0  0  0  0  0  0  0  0
  190.7270  177.2390  141.5320 C   0  0  0  0  0  0  0  0  0  0  0  0
  190.9970  177.3360  140.1680 C   0  0  0  0  0  3  0  0  0  0  0  0
  187.2270  177.8900  144.1890 C   0  0  0  0  0  2  0  0  0  0  0  0
  188.6950  178.1060  139.8470 C   0  0  0  0  0  3  0  0  0  0  0  0
  190.8460  176.9230  143.6190 C   0  0  0  0  0  0  0  0  0  0  0  0
  191.5900  176.8370  142.4930 N   0  0  0  0  0  2  0  0  0  0  0  0
  188.2540  177.3160  146.9500 C   0  0  1  0  0  3  0  0  0  0  0  0
  188.4400  178.0020  141.2240 C   0  0  0  0  0  3  0  0  0  0  0  0
  186.7670  177.3750  146.5950 C   0  0  0  0  0  2  0  0  0  0  0  0
  189.1250  177.1500  145.7320 C   0  0  0  0  0  0  0  0  0  0  0  0
  183.2170  178.7190  143.4870 C   0  0  0  0  0  0  0  0  0  0  0  0
  182.8700  178.6960  142.1080 N   0  0  0  0  0  1  0  0  0  0  0  0
  182.3150  178.8860  144.3510 O   0  0  0  0  0  0  0  0  0  0  0  0
  185.0720  178.5560  145.2180 C   0  0  0  0  0  0  0  0  0  0  0  0
  184.5860  178.5540  143.8710 N   0  0  0  0  0  2  0  0  0  0  0  0
  184.2830  178.7130  146.1900 O   0  0  0  0  0  0  0  0  0  0  0  0
  188.6230  178.4740  147.6390 O   0  0  0  0  0  0  0  0  0  0  0  0
  188.3270  178.2050  148.9770 C   0  0  0  0  0  1  0  0  0  0  0  0
  1 12  1  0  0  0  0
  1  2  2  0  0  0  0
  2 17  1  0  0  0  0
  3  7  1  0  0  0  0
  4  1  1  0  0  0  0
  5 21  1  6  0  0  0
  5 16  1  0  0  0  0
  6 11  2  0  0  0  0
  6  9  1  0  0  0  0
  8  4  1  0  0  0  0
  8 13  1  0  0  0  0
  9  8  2  0  0  0  0
 10  2  1  0  0  0  0
 10  5  1  0  0  0  0
 11 15  1  0  0  0  0
 12  3  2  0  0  0  0
 13 12  1  0  0  0  0
 14 24  1  6  0  0  0
 15  4  2  0  0  0  0
 16 14  1  0  0  0  0
 17  7  2  0  0  0  0
 17 14  1  0  0  0  0
 18 22  1  0  0  0  0
 18 20  2  0  0  0  0
 19 18  1  0  0  0  0
 21 23  2  0  0  0  0
 22 21  1  0  0  0  0
 24 25  1  0  0  0  0
M  END
>  <MODEL>
4

>  <REMARK>
 VINA RESULT:      -9.6      3.096      5.913
  Name = 
  2 active torsions:
  status: ('A' for Active; 'I' for Inactive)
    1  A    between atoms: C_6  and  C_15
    2  A    between atoms: O_13  and  C_20
                            x       y       z     vdW  Elec       q    Type
                         _______ _______ _______ _____ _____    ______ ____

>  <TORSDO>
F 2

$$$$
=
 OpenBabel11052412503D

 25 28  0  0  1  0  0  0  0  0999 V2000
  188.0750  177.5150  145.5250 C   0  0  0  0  0  0  0  0  0  0  0  0
  187.2930  177.8390  144.4200 C   0  0  0  0  0  0  0  0  0  0  0  0
  186.2460  177.8120  147.0050 N   0  0  0  0  0  0  0  0  0  0  0  0
  189.3910  177.1530  145.6780 C   0  0  0  0  0  0  0  0  0  0  0  0
  186.9760  178.5190  142.0210 C   0  0  2  0  0  3  0  0  0  0  0  0
  191.8720  176.3970  146.6410 C   0  0  0  0  0  3  0  0  0  0  0  0
  185.4630  178.1220  145.9640 N   0  0  0  0  0  0  0  0  0  0  0  0
  189.5720  176.9540  147.0340 C   0  0  0  0  0  0  0  0  0  0  0  0
  190.8100  176.5730  147.5470 C   0  0  0  0  0  3  0  0  0  0  0  0
  187.8430  177.7590  143.0220 C   0  0  0  0  0  2  0  0  0  0  0  0
  191.6800  176.6030  145.2570 C   0  0  0  0  0  3  0  0  0  0  0  0
  187.5470  177.5100  146.7910 C   0  0  0  0  0  0  0  0  0  0  0  0
  188.4410  177.1680  147.7450 N   0  0  0  0  0  2  0  0  0  0  0  0
  185.0010  178.5560  143.5670 C   0  0  1  0  0  3  0  0  0  0  0  0
  190.4240  176.9870  144.7580 C   0  0  0  0  0  3  0  0  0  0  0  0
  185.5110  178.1270  142.1900 C   0  0  0  0  0  2  0  0  0  0  0  0
  185.9310  178.1360  144.6750 C   0  0  0  0  0  0  0  0  0  0  0  0
  189.2440  177.2510  139.1480 C   0  0  0  0  0  0  0  0  0  0  0  0
  190.4900  176.5690  139.0870 N   0  0  0  0  0  1  0  0  0  0  0  0
  188.6540  177.5610  138.0780 O   0  0  0  0  0  0  0  0  0  0  0  0
  187.4360  178.2550  140.6270 C   0  0  0  0  0  0  0  0  0  0  0  0
  188.6790  177.5740  140.4230 N   0  0  0  0  0  2  0  0  0  0  0  0
  186.7340  178.6280  139.6470 O   0  0  0  0  0  0  0  0  0  0  0  0
  184.8260  179.9420  143.5980 O   0  0  0  0  0  0  0  0  0  0  0  0
  183.4930  180.1280  143.9690 C   0  0  0  0  0  1  0  0  0  0  0  0
  1  4  1  0  0  0  0
  1 12  1  0  0  0  0
  2 17  1  0  0  0  0
  2  1  2  0  0  0  0
  4  8  1  0  0  0  0
  5 21  1  6  0  0  0
  5 16  1  0  0  0  0
  5 10  1  0  0  0  0
  6  9  1  0  0  0  0
  7  3  1  0  0  0  0
  8  9  2  0  0  0  0
  8 13  1  0  0  0  0
 10  2  1  0  0  0  0
 11  6  2  0  0  0  0
 12  3  2  0  0  0  0
 12 13  1  0  0  0  0
 14 24  1  6  0  0  0
 14 17  1  0  0  0  0
 15 11  1  0  0  0  0
 15  4  2  0  0  0  0
 16 14  1  0  0  0  0
 17  7  2  0  0  0  0
 18 22  1  0  0  0  0
 19 18  1  0  0  0  0
 20 18  2  0  0  0  0
 22 21  1  0  0  0  0
 23 21  2  0  0  0  0
 24 25  1  0  0  0  0
M  END
>  <MODEL>
5

>  <REMARK>
 VINA RESULT:      -9.4      2.365      5.163
  Name = 
  2 active torsions:
  status: ('A' for Active; 'I' for Inactive)
    1  A    between atoms: C_6  and  C_15
    2  A    between atoms: O_13  and  C_20
                            x       y       z     vdW  Elec       q    Type
                         _______ _______ _______ _____ _____    ______ ____

>  <TORSDO>
F 2

$$$$
=
 OpenBabel11052412503D

 25 28  0  0  1  0  0  0  0  0999 V2000
  187.1650  178.2760  141.3460 C   0  0  0  0  0  0  0  0  0  0  0  0
  186.4540  178.4700  142.5270 C   0  0  0  0  0  0  0  0  0  0  0  0
  185.4070  179.1970  140.0460 N   0  0  0  0  0  0  0  0  0  0  0  0
  188.4060  177.7630  141.0630 C   0  0  0  0  0  0  0  0  0  0  0  0
  186.0120  178.0650  144.9690 C   0  0  2  0  0  3  0  0  0  0  0  0
  190.7300  176.8680  139.8570 C   0  0  0  0  0  3  0  0  0  0  0  0
  184.6980  179.4040  141.1640 N   0  0  0  0  0  0  0  0  0  0  0  0
  188.5440  177.8440  139.6910 C   0  0  0  0  0  0  0  0  0  0  0  0
  189.7030  177.4010  139.0560 C   0  0  0  0  0  3  0  0  0  0  0  0
  187.0650  178.1620  143.8670 C   0  0  0  0  0  2  0  0  0  0  0  0
  190.5810  176.7880  141.2590 C   0  0  0  0  0  3  0  0  0  0  0  0
  186.6350  178.6360  140.1330 C   0  0  0  0  0  0  0  0  0  0  0  0
  187.4580  178.3830  139.0910 N   0  0  0  0  0  2  0  0  0  0  0  0
  184.2920  179.2810  143.6060 C   0  0  1  0  0  3  0  0  0  0  0  0
  189.4050  177.2390  141.8820 C   0  0  0  0  0  3  0  0  0  0  0  0
  185.0830  179.2750  144.9160 C   0  0  0  0  0  2  0  0  0  0  0  0
  185.1780  179.0740  142.4050 C   0  0  0  0  0  0  0  0  0  0  0  0
  188.7760  177.3630  147.5900 C   0  0  0  0  0  0  0  0  0  0  0  0
  190.1220  176.9100  147.5230 N   0  0  0  0  0  1  0  0  0  0  0  0
  188.2650  177.6260  148.7110 O   0  0  0  0  0  0  0  0  0  0  0  0
  186.6640  177.9580  146.3060 C   0  0  0  0  0  0  0  0  0  0  0  0
  188.0220  177.5120  146.3820 N   0  0  0  0  0  2  0  0  0  0  0  0
  186.0220  178.2580  147.3490 O   0  0  0  0  0  0  0  0  0  0  0  0
  183.3060  178.2930  143.6420 O   0  0  0  0  0  0  0  0  0  0  0  0
  182.1000  178.9910  143.7330 C   0  0  0  0  0  1  0  0  0  0  0  0
  1  2  2  0  0  0  0
  2 10  1  0  0  0  0
  3 12  2  0  0  0  0
  3  7  1  0  0  0  0
  4  1  1  0  0  0  0
  4 15  1  0  0  0  0
  5 21  1  1  0  0  0
  6 11  1  0  0  0  0
  7 17  2  0  0  0  0
  8  4  2  0  0  0  0
  9  8  1  0  0  0  0
  9  6  2  0  0  0  0
 10  5  1  0  0  0  0
 11 15  2  0  0  0  0
 12  1  1  0  0  0  0
 13  8  1  0  0  0  0
 13 12  1  0  0  0  0
 14 24  1  1  0  0  0
 14 16  1  0  0  0  0
 16  5  1  0  0  0  0
 17  2  1  0  0  0  0
 17 14  1  0  0  0  0
 18 20  2  0  0  0  0
 19 18  1  0  0  0  0
 21 22  1  0  0  0  0
 21 23  2  0  0  0  0
 22 18  1  0  0  0  0
 24 25  1  0  0  0  0
M  END
>  <MODEL>
6

>  <REMARK>
 VINA RESULT:      -9.3      3.076      7.023
  Name = 
  2 active torsions:
  status: ('A' for Active; 'I' for Inactive)
    1  A    between atoms: C_6  and  C_15
    2  A    between atoms: O_13  and  C_20
                            x       y       z     vdW  Elec       q    Type
                         _______ _______ _______ _____ _____    ______ ____

>  <TORSDO>
F 2

$$$$
=
 OpenBabel11052412503D

 25 28  0  0  1  0  0  0  0  0999 V2000
  189.3750  177.4820  144.0990 C   0  0  0  0  0  0  0  0  0  0  0  0
  189.3400  177.5680  142.7100 C   0  0  0  0  0  0  0  0  0  0  0  0
  191.6800  176.9250  144.0850 N   0  0  0  0  0  0  0  0  0  0  0  0
  188.4330  177.6650  145.0810 C   0  0  0  0  0  0  0  0  0  0  0  0
  188.1470  177.6560  140.4990 C   0  0  2  0  0  3  0  0  0  0  0  0
  187.0520  177.8820  147.4680 C   0  0  0  0  0  3  0  0  0  0  0  0
  191.6850  177.0050  142.7480 N   0  0  0  0  0  0  0  0  0  0  0  0
  189.0870  177.4390  146.2780 C   0  0  0  0  0  0  0  0  0  0  0  0
  188.4160  177.5410  147.4950 C   0  0  0  0  0  3  0  0  0  0  0  0
  188.0980  178.0080  141.9840 C   0  0  0  0  0  2  0  0  0  0  0  0
  186.3900  178.1100  146.2420 C   0  0  0  0  0  3  0  0  0  0  0  0
  190.5330  177.1610  144.7610 C   0  0  0  0  0  0  0  0  0  0  0  0
  190.3910  177.1250  146.1050 N   0  0  0  0  0  2  0  0  0  0  0  0
  190.6350  177.3390  140.5270 C   0  0  1  0  0  3  0  0  0  0  0  0
  187.0820  178.0030  145.0240 C   0  0  0  0  0  3  0  0  0  0  0  0
  189.4730  178.1080  139.8950 C   0  0  0  0  0  2  0  0  0  0  0  0
  190.5620  177.3310  142.0310 C   0  0  0  0  0  0  0  0  0  0  0  0
  184.5810  179.0520  139.9150 C   0  0  0  0  0  0  0  0  0  0  0  0
  183.4170  179.1840  140.7200 N   0  0  0  0  0  1  0  0  0  0  0  0
  184.5560  179.4490  138.7200 O   0  0  0  0  0  0  0  0  0  0  0  0
  186.9990  178.2780  139.7780 C   0  0  0  0  0  0  0  0  0  0  0  0
  185.7630  178.4690  140.4740 N   0  0  0  0  0  2  0  0  0  0  0  0
  187.1240  178.6280  138.5720 O   0  0  0  0  0  0  0  0  0  0  0  0
  190.6520  176.0270  140.0480 O   0  0  0  0  0  0  0  0  0  0  0  0
  191.0400  176.1370  138.7110 C   0  0  0  0  0  1  0  0  0  0  0  0
  1 12  1  0  0  0  0
  1  4  1  0  0  0  0
  2  1  2  0  0  0  0
  3 12  2  0  0  0  0
  4  8  1  0  0  0  0
  5 21  1  6  0  0  0
  5 10  1  0  0  0  0
  6  9  1  0  0  0  0
  7  3  1  0  0  0  0
  8  9  2  0  0  0  0
 10  2  1  0  0  0  0
 11  6  2  0  0  0  0
 12 13  1  0  0  0  0
 13  8  1  0  0  0  0
 14 24  1  6  0  0  0
 14 17  1  0  0  0  0
 15  4  2  0  0  0  0
 15 11  1  0  0  0  0
 16  5  1  0  0  0  0
 16 14  1  0  0  0  0
 17  2  1  0  0  0  0
 17  7  2  0  0  0  0
 18 22  1  0  0  0  0
 18 19  1  0  0  0  0
 20 18  2  0  0  0  0
 21 22  1  0  0  0  0
 23 21  2  0  0  0  0
 25 24  1  0  0  0  0
M  END
>  <MODEL>
7

>  <REMARK>
 VINA RESULT:      -9.2      2.891      5.327
  Name = 
  2 active torsions:
  status: ('A' for Active; 'I' for Inactive)
    1  A    between atoms: C_6  and  C_15
    2  A    between atoms: O_13  and  C_20
                            x       y       z     vdW  Elec       q    Type
                         _______ _______ _______ _____ _____    ______ ____

>  <TORSDO>
F 2

$$$$
=
 OpenBabel11052412503D

 25 28  0  0  1  0  0  0  0  0999 V2000
  187.2930  177.8870  143.3870 C   0  0  0  0  0  0  0  0  0  0  0  0
  188.5930  177.4090  143.2530 C   0  0  0  0  0  0  0  0  0  0  0  0
  187.0650  178.1530  141.0410 N   0  0  0  0  0  0  0  0  0  0  0  0
  186.4710  178.1020  144.4660 C   0  0  0  0  0  0  0  0  0  0  0  0
  190.8690  176.8240  144.1460 C   0  0  2  0  0  3  0  0  0  0  0  0
  184.3820  178.7390  146.1640 C   0  0  0  0  0  3  0  0  0  0  0  0
  188.3110  177.6910  140.8740 N   0  0  0  0  0  0  0  0  0  0  0  0
  185.2860  178.5870  143.9470 C   0  0  0  0  0  0  0  0  0  0  0  0
  184.2170  178.9160  144.7780 C   0  0  0  0  0  3  0  0  0  0  0  0
  189.3740  176.9220  144.4420 C   0  0  0  0  0  2  0  0  0  0  0  0
  185.5960  178.2430  146.6870 C   0  0  0  0  0  3  0  0  0  0  0  0
  186.5550  178.2530  142.2890 C   0  0  0  0  0  0  0  0  0  0  0  0
  185.3130  178.6890  142.5980 N   0  0  0  0  0  2  0  0  0  0  0  0
  190.5070  176.8530  141.6640 C   0  0  1  0  0  3  0  0  0  0  0  0
  186.6640  177.9160  145.8330 C   0  0  0  0  0  3  0  0  0  0  0  0
  191.0970  176.0700  142.8390 C   0  0  0  0  0  2  0  0  0  0  0  0
  189.0940  177.3020  141.9310 C   0  0  0  0  0  0  0  0  0  0  0  0
  192.3680  176.3320  147.6840 C   0  0  0  0  0  0  0  0  0  0  0  0
  192.4300  177.1280  148.8600 N   0  0  0  0  0  1  0  0  0  0  0  0
  192.8900  175.1860  147.6820 O   0  0  0  0  0  0  0  0  0  0  0  0
  191.5810  176.1550  145.2730 C   0  0  0  0  0  0  0  0  0  0  0  0
  191.7150  176.8470  146.5180 N   0  0  0  0  0  2  0  0  0  0  0  0
  192.0550  174.9950  145.1220 O   0  0  0  0  0  0  0  0  0  0  0  0
  191.3090  177.9610  141.3810 O   0  0  0  0  0  0  0  0  0  0  0  0
  192.2380  177.5030  140.4450 C   0  0  0  0  0  1  0  0  0  0  0  0
  1  4  1  0  0  0  0
  2  1  2  0  0  0  0
  2 10  1  0  0  0  0
  3 12  2  0  0  0  0
  4 15  1  0  0  0  0
  5 10  1  0  0  0  0
  5 21  1  1  0  0  0
  6 11  1  0  0  0  0
  7  3  1  0  0  0  0
  7 17  2  0  0  0  0
  8  4  2  0  0  0  0
  8  9  1  0  0  0  0
  9  6  2  0  0  0  0
 12 13  1  0  0  0  0
 12  1  1  0  0  0  0
 13  8  1  0  0  0  0
 14 24  1  1  0  0  0
 14 17  1  0  0  0  0
 14 16  1  0  0  0  0
 15 11  2  0  0  0  0
 16  5  1  0  0  0  0
 17  2  1  0  0  0  0
 18 19  1  0  0  0  0
 20 18  2  0  0  0  0
 21 22  1  0  0  0  0
 22 18  1  0  0  0  0
 23 21  2  0  0  0  0
 25 24  1  0  0  0  0
M  END
>  <MODEL>
8

>  <REMARK>
 VINA RESULT:      -9.2      2.020      4.889
  Name = 
  2 active torsions:
  status: ('A' for Active; 'I' for Inactive)
    1  A    between atoms: C_6  and  C_15
    2  A    between atoms: O_13  and  C_20
                            x       y       z     vdW  Elec       q    Type
                         _______ _______ _______ _____ _____    ______ ____

>  <TORSDO>
F 2

$$$$
=
 OpenBabel11052412503D

 25 28  0  0  1  0  0  0  0  0999 V2000
  189.4500  177.5470  144.6240 C   0  0  0  0  0  0  0  0  0  0  0  0
  189.2550  177.6990  143.2540 C   0  0  0  0  0  0  0  0  0  0  0  0
  191.7110  176.9030  144.3110 N   0  0  0  0  0  0  0  0  0  0  0  0
  188.6400  177.7210  145.7190 C   0  0  0  0  0  0  0  0  0  0  0  0
  187.8140  177.9340  141.2080 C   0  0  2  0  0  3  0  0  0  0  0  0
  187.5600  177.8810  148.2610 C   0  0  0  0  0  3  0  0  0  0  0  0
  191.5610  177.0450  142.9870 N   0  0  0  0  0  0  0  0  0  0  0  0
  189.4190  177.4160  146.8180 C   0  0  0  0  0  0  0  0  0  0  0  0
  188.9030  177.4870  148.1100 C   0  0  0  0  0  3  0  0  0  0  0  0
  187.9560  178.2180  142.7010 C   0  0  0  0  0  2  0  0  0  0  0  0
  186.7690  178.1910  147.1330 C   0  0  0  0  0  3  0  0  0  0  0  0
  190.6630  177.1520  145.1280 C   0  0  0  0  0  0  0  0  0  0  0  0
  190.6790  177.0600  146.4770 N   0  0  0  0  0  2  0  0  0  0  0  0
  190.2720  177.5200  140.9240 C   0  0  1  0  0  3  0  0  0  0  0  0
  187.3070  178.1130  145.8380 C   0  0  0  0  0  3  0  0  0  0  0  0
  189.0780  178.3620  140.4680 C   0  0  0  0  0  2  0  0  0  0  0  0
  190.3760  177.4450  142.4250 C   0  0  0  0  0  0  0  0  0  0  0  0
  184.9380  178.7690  138.7510 C   0  0  0  0  0  0  0  0  0  0  0  0
  184.5080  178.2430  137.5030 N   0  0  0  0  0  1  0  0  0  0  0  0
  184.3090  179.7310  139.2690 O   0  0  0  0  0  0  0  0  0  0  0  0
  186.6170  178.6310  140.6560 C   0  0  0  0  0  0  0  0  0  0  0  0
  186.0790  178.1990  139.4010 N   0  0  0  0  0  2  0  0  0  0  0  0
  186.0910  179.5850  141.2920 O   0  0  0  0  0  0  0  0  0  0  0  0
  190.1750  176.2320  140.3930 O   0  0  0  0  0  0  0  0  0  0  0  0
  190.4760  176.3780  139.0370 C   0  0  0  0  0  1  0  0  0  0  0  0
  1 12  1  0  0  0  0
  1  4  1  0  0  0  0
  2  1  2  0  0  0  0
  3 12  2  0  0  0  0
  4 15  2  0  0  0  0
  4  8  1  0  0  0  0
  5 21  1  6  0  0  0
  5 10  1  0  0  0  0
  7  3  1  0  0  0  0
  8  9  2  0  0  0  0
  9  6  1  0  0  0  0
 10  2  1  0  0  0  0
 11  6  2  0  0  0  0
 12 13  1  0  0  0  0
 13  8  1  0  0  0  0
 14 24  1  6  0  0  0
 14 17  1  0  0  0  0
 15 11  1  0  0  0  0
 16 14  1  0  0  0  0
 16  5  1  0  0  0  0
 17  7  2  0  0  0  0
 17  2  1  0  0  0  0
 18 20  2  0  0  0  0
 18 22  1  0  0  0  0
 19 18  1  0  0  0  0
 21 23  2  0  0  0  0
 22 21  1  0  0  0  0
 25 24  1  0  0  0  0
M  END
>  <MODEL>
9

>  <REMARK>
 VINA RESULT:      -9.1      2.947      5.296
  Name = 
  2 active torsions:
  status: ('A' for Active; 'I' for Inactive)
    1  A    between atoms: C_6  and  C_15
    2  A    between atoms: O_13  and  C_20
                            x       y       z     vdW  Elec       q    Type
                         _______ _______ _______ _____ _____    ______ ____

>  <TORSDO>
F 2

$$$$
