=
 OpenBabel11052416553D

 32 36  0  0  1  0  0  0  0  0999 V2000
  187.9290  177.9770  137.3630 C   0  0  1  0  0  3  0  0  0  0  0  0
  188.0090  177.8720  142.4660 C   0  0  0  0  0  0  0  0  0  0  0  0
  183.4100  179.0500  143.8320 C   0  0  0  0  0  3  0  0  0  0  0  0
  183.7930  178.8570  145.0970 C   0  0  0  0  0  3  0  0  0  0  0  0
  188.6320  177.8880  140.1740 C   0  0  0  0  0  0  0  0  0  0  0  0
  186.3940  178.4300  140.7950 N   0  0  0  0  0  0  0  0  0  0  0  0
  186.9240  178.5090  138.3890 C   0  0  0  0  0  2  0  0  0  0  0  0
  184.3390  178.8640  142.6590 C   0  0  0  0  0  2  0  0  0  0  0  0
  186.6910  178.2590  142.1140 C   0  0  0  0  0  0  0  0  0  0  0  0
  185.7420  178.4590  143.0530 C   0  0  0  0  0  0  0  0  0  0  0  0
  187.4320  177.8690  144.8080 N   0  0  0  0  0  0  0  0  0  0  0  0
  189.3620  178.2880  137.8010 C   0  0  0  0  0  2  0  0  0  0  0  0
  187.3160  178.2400  139.8170 C   0  0  0  0  0  0  0  0  0  0  0  0
  189.6890  177.6290  139.1410 C   0  0  0  0  0  2  0  0  0  0  0  0
  185.1670  178.4500  145.4320 C   0  0  0  0  0  3  0  0  0  0  0  0
  186.0890  178.2610  144.4810 C   0  0  0  0  0  0  0  0  0  0  0  0
  188.9340  177.6990  141.4850 N   0  0  0  0  0  0  0  0  0  0  0  0
  188.3700  177.6780  143.7410 C   0  0  0  0  0  3  0  0  0  0  0  0
  186.5820  175.9630  137.2300 N   0  0  0  0  0  0  0  0  0  0  0  0
  187.7470  176.5140  137.1150 C   0  0  0  0  0  3  0  0  0  0  0  0
  186.3740  174.5690  136.9940 C   0  0  0  0  0  0  0  0  0  0  0  0
  187.2650  173.8650  136.4440 O   0  0  0  0  0  0  0  0  0  0  0  0
  185.0860  173.9420  137.3950 C   0  0  0  0  0  1  0  0  0  0  0  0
  187.8690  177.6850  146.1900 C   0  0  0  0  0  2  0  0  0  0  0  0
  192.0230  175.5920  144.8070 F   0  0  0  0  0  0  0  0  0  0  0  0
  189.9480  176.5910  145.4040 C   0  0  0  0  0  2  0  0  0  0  0  0
  189.8630  177.4160  147.7170 C   0  0  1  0  0  3  0  0  0  0  0  0
  191.2900  177.1500  147.7770 N   0  0  0  0  0  0  0  0  0  0  0  0
  191.9770  176.7870  146.7930 N   0  0  0  0  0  0  0  0  0  0  0  0
  191.4650  176.6860  145.4380 C   0  0  1  0  0  3  0  0  0  0  0  0
  189.5640  178.4850  148.5400 F   0  0  0  0  0  0  0  0  0  0  0  0
  189.3910  177.6840  146.2890 C   0  0  2  0  0  3  0  0  0  0  0  0
  1 20  1  1  0  0  0
  1 12  1  0  0  0  0
  1  7  1  0  0  0  0
  2 18  2  0  0  0  0
  3  4  2  0  0  0  0
  4 15  1  0  0  0  0
  5 17  2  0  0  0  0
  6  9  1  0  0  0  0
  7 13  1  0  0  0  0
  8 10  1  0  0  0  0
  8  3  1  0  0  0  0
  9  2  1  0  0  0  0
  9 10  2  0  0  0  0
 10 16  1  0  0  0  0
 11 24  1  0  0  0  0
 12 14  1  0  0  0  0
 13  5  1  0  0  0  0
 13  6  2  0  0  0  0
 14  5  1  0  0  0  0
 16 11  1  0  0  0  0
 16 15  2  0  0  0  0
 17  2  1  0  0  0  0
 18 11  1  0  0  0  0
 20 19  2  0  0  0  0
 21 19  1  0  0  0  0
 21 23  1  0  0  0  0
 22 21  2  0  0  0  0
 26 30  1  0  0  0  0
 26 32  1  0  0  0  0
 27 28  1  0  0  0  0
 27 31  1  1  0  0  0
 29 28  2  0  0  0  0
 30 25  1  1  0  0  0
 30 29  1  0  0  0  0
 32 24  1  1  0  0  0
 32 27  1  0  0  0  0
M  END
>  <MODEL>
1

>  <REMARK>
 VINA RESULT:     -10.4      0.000      0.000
  Name = 
  4 active torsions:
  status: ('A' for Active; 'I' for Inactive)
    1  A    between atoms: C_1  and  N_10
    2  A    between atoms: C_2  and  C_24
    3  A    between atoms: N_16  and  C_27
    4  A    between atoms: C_27  and  C_32
                            x       y       z     vdW  Elec       q    Type
                         _______ _______ _______ _____ _____    ______ ____

>  <TORSDO>
F 4

$$$$
=
 OpenBabel11052416553D

 32 36  0  0  1  0  0  0  0  0999 V2000
  182.6150  178.4130  140.0090 C   0  0  1  0  0  3  0  0  0  0  0  0
  187.1300  178.2900  142.3840 C   0  0  0  0  0  0  0  0  0  0  0  0
  186.0290  177.9440  147.1880 C   0  0  0  0  0  3  0  0  0  0  0  0
  187.3400  177.8700  147.4290 C   0  0  0  0  0  3  0  0  0  0  0  0
  185.4110  178.5240  140.7630 C   0  0  0  0  0  0  0  0  0  0  0  0
  184.8410  178.3260  143.0710 N   0  0  0  0  0  0  0  0  0  0  0  0
  182.9700  178.5910  141.4880 C   0  0  0  0  0  2  0  0  0  0  0  0
  185.4590  178.0720  145.7980 C   0  0  0  0  0  3  0  0  0  0  0  0
  186.1580  178.2450  143.4150 C   0  0  0  0  0  0  0  0  0  0  0  0
  186.5110  178.1260  144.7130 C   0  0  0  0  0  0  0  0  0  0  0  0
  188.9140  178.0830  143.9960 N   0  0  0  0  0  0  0  0  0  0  0  0
  183.6140  179.1560  139.1210 C   0  0  0  0  0  2  0  0  0  0  0  0
  184.4400  178.4460  141.7790 C   0  0  0  0  0  0  0  0  0  0  0  0
  185.0340  178.6210  139.3140 C   0  0  0  0  0  2  0  0  0  0  0  0
  188.3270  177.9140  146.3390 C   0  0  0  0  0  3  0  0  0  0  0  0
  187.9490  178.0340  145.0620 C   0  0  1  0  0  3  0  0  0  0  0  0
  186.7250  178.4270  141.0950 N   0  0  0  0  0  0  0  0  0  0  0  0
  188.4410  178.2080  142.6490 C   0  0  0  0  0  3  0  0  0  0  0  0
  182.2240  176.6210  138.4190 N   0  0  0  0  0  0  0  0  0  0  0  0
  182.5250  176.9700  139.6290 C   0  0  0  0  0  3  0  0  0  0  0  0
  182.1360  175.2510  138.0230 C   0  0  0  0  0  0  0  0  0  0  0  0
  181.0410  174.6270  138.0890 O   0  0  0  0  0  0  0  0  0  0  0  0
  183.3530  174.5490  137.5360 C   0  0  0  0  0  1  0  0  0  0  0  0
  190.3510  178.0330  144.2520 C   0  0  0  0  0  2  0  0  0  0  0  0
  193.0630  175.5370  147.4090 F   0  0  0  0  0  0  0  0  0  0  0  0
  191.7300  176.8310  145.9220 C   0  0  0  0  0  2  0  0  0  0  0  0
  191.4780  175.8450  143.6860 C   0  0  1  0  0  3  0  0  0  0  0  0
  192.1110  174.6560  144.2290 N   0  0  0  0  0  0  0  0  0  0  0  0
  192.3980  174.5060  145.4420 N   0  0  0  0  0  0  0  0  0  0  0  0
  192.0410  175.4530  146.4830 C   0  0  1  0  0  3  0  0  0  0  0  0
  190.5920  175.4750  142.6910 F   0  0  0  0  0  0  0  0  0  0  0  0
  190.7690  176.6600  144.7660 C   0  0  2  0  0  3  0  0  0  0  0  0
  1 20  1  6  0  0  0
  1  7  1  0  0  0  0
  2 18  2  0  0  0  0
  2  9  1  0  0  0  0
  3  4  1  0  0  0  0
  5 17  2  0  0  0  0
  5 13  1  0  0  0  0
  6  9  1  0  0  0  0
  7 13  1  0  0  0  0
  8  3  2  0  0  0  0
  9 10  2  0  0  0  0
 10 16  1  0  0  0  0
 10  8  1  0  0  0  0
 11 24  1  0  0  0  0
 11 16  1  0  0  0  0
 12 14  1  0  0  0  0
 12  1  1  0  0  0  0
 13  6  2  0  0  0  0
 14  5  1  0  0  0  0
 15  4  2  0  0  0  0
 16 15  1  1  0  0  0
 17  2  1  0  0  0  0
 18 11  1  0  0  0  0
 19 20  2  0  0  0  0
 21 22  2  0  0  0  0
 21 19  1  0  0  0  0
 23 21  1  0  0  0  0
 26 30  1  0  0  0  0
 27 31  1  6  0  0  0
 27 28  1  0  0  0  0
 27 32  1  0  0  0  0
 28 29  2  0  0  0  0
 29 30  1  0  0  0  0
 30 25  1  1  0  0  0
 32 24  1  6  0  0  0
 32 26  1  0  0  0  0
M  END
>  <MODEL>
2

>  <REMARK>
 VINA RESULT:      -9.8      2.708      3.843
  Name = 
  4 active torsions:
  status: ('A' for Active; 'I' for Inactive)
    1  A    between atoms: C_1  and  N_10
    2  A    between atoms: C_2  and  C_24
    3  A    between atoms: N_16  and  C_27
    4  A    between atoms: C_27  and  C_32
                            x       y       z     vdW  Elec       q    Type
                         _______ _______ _______ _____ _____    ______ ____

>  <TORSDO>
F 4

$$$$
=
 OpenBabel11052416553D

 32 36  0  0  1  0  0  0  0  0999 V2000
  181.1160  178.9710  141.2120 C   0  0  1  0  0  3  0  0  0  0  0  0
  185.9110  177.9960  142.6630 C   0  0  0  0  0  0  0  0  0  0  0  0
  185.8830  178.5240  147.5750 C   0  0  0  0  0  3  0  0  0  0  0  0
  187.1640  178.1510  147.5700 C   0  0  0  0  0  3  0  0  0  0  0  0
  183.9640  178.4600  141.3860 C   0  0  0  0  0  0  0  0  0  0  0  0
  183.9040  178.6940  143.7590 N   0  0  0  0  0  0  0  0  0  0  0  0
  181.8290  179.2310  142.5420 C   0  0  0  0  0  2  0  0  0  0  0  0
  185.0550  178.6240  146.3190 C   0  0  0  0  0  3  0  0  0  0  0  0
  185.2130  178.3240  143.8530 C   0  0  0  0  0  0  0  0  0  0  0  0
  185.8170  178.2780  145.0600 C   0  0  0  0  0  0  0  0  0  0  0  0
  187.9230  177.5410  143.9150 N   0  0  0  0  0  0  0  0  0  0  0  0
  182.0260  179.3230  140.0340 C   0  0  0  0  0  2  0  0  0  0  0  0
  183.2560  178.7550  142.5670 C   0  0  0  0  0  0  0  0  0  0  0  0
  183.2980  178.4740  140.0410 C   0  0  0  0  0  2  0  0  0  0  0  0
  187.8620  177.8110  146.3200 C   0  0  0  0  0  3  0  0  0  0  0  0
  187.2400  177.8670  145.1370 C   0  0  1  0  0  3  0  0  0  0  0  0
  185.2640  178.0740  141.4710 N   0  0  0  0  0  0  0  0  0  0  0  0
  187.1950  177.6180  142.6820 C   0  0  0  0  0  3  0  0  0  0  0  0
  179.8900  177.1870  140.1120 N   0  0  0  0  0  0  0  0  0  0  0  0
  180.6250  177.5620  141.1110 C   0  0  0  0  0  3  0  0  0  0  0  0
  179.4100  175.8480  139.9840 C   0  0  0  0  0  0  0  0  0  0  0  0
  179.3630  175.0780  140.9830 O   0  0  0  0  0  0  0  0  0  0  0  0
  178.9680  175.3520  138.6530 C   0  0  0  0  0  1  0  0  0  0  0  0
  189.3330  177.1600  143.8950 C   0  0  0  0  0  2  0  0  0  0  0  0
  190.3790  175.8740  139.3340 F   0  0  0  0  0  0  0  0  0  0  0  0
  189.7910  176.4500  141.5670 C   0  0  0  0  0  2  0  0  0  0  0  0
  191.4930  177.7760  142.7410 C   0  0  1  0  0  3  0  0  0  0  0  0
  192.1680  177.8920  141.4600 N   0  0  0  0  0  0  0  0  0  0  0  0
  191.6920  177.4760  140.3760 N   0  0  0  0  0  0  0  0  0  0  0  0
  190.3580  176.9200  140.2370 C   0  0  1  0  0  3  0  0  0  0  0  0
  191.7440  178.9100  143.4920 F   0  0  0  0  0  0  0  0  0  0  0  0
  189.9900  177.5570  142.5780 C   0  0  2  0  0  3  0  0  0  0  0  0
  1 20  1  6  0  0  0
  1  7  1  0  0  0  0
  2 18  2  0  0  0  0
  2  9  1  0  0  0  0
  4  3  1  0  0  0  0
  5 17  2  0  0  0  0
  5 13  1  0  0  0  0
  6  9  1  0  0  0  0
  7 13  1  0  0  0  0
  8  3  2  0  0  0  0
  9 10  2  0  0  0  0
 10 16  1  0  0  0  0
 10  8  1  0  0  0  0
 11 16  1  0  0  0  0
 12 14  1  0  0  0  0
 12  1  1  0  0  0  0
 13  6  2  0  0  0  0
 14  5  1  0  0  0  0
 15  4  2  0  0  0  0
 16 15  1  6  0  0  0
 17  2  1  0  0  0  0
 18 11  1  0  0  0  0
 19 20  2  0  0  0  0
 21 19  1  0  0  0  0
 21 22  2  0  0  0  0
 23 21  1  0  0  0  0
 24 11  1  0  0  0  0
 26 32  1  0  0  0  0
 27 31  1  1  0  0  0
 28 27  1  0  0  0  0
 29 28  2  0  0  0  0
 30 25  1  6  0  0  0
 30 29  1  0  0  0  0
 30 26  1  0  0  0  0
 32 27  1  0  0  0  0
 32 24  1  1  0  0  0
M  END
>  <MODEL>
3

>  <REMARK>
 VINA RESULT:      -9.3      3.463      5.334
  Name = 
  4 active torsions:
  status: ('A' for Active; 'I' for Inactive)
    1  A    between atoms: C_1  and  N_10
    2  A    between atoms: C_2  and  C_24
    3  A    between atoms: N_16  and  C_27
    4  A    between atoms: C_27  and  C_32
                            x       y       z     vdW  Elec       q    Type
                         _______ _______ _______ _____ _____    ______ ____

>  <TORSDO>
F 4

$$$$
=
 OpenBabel11052416553D

 32 36  0  0  1  0  0  0  0  0999 V2000
  178.9400  177.9590  140.1610 C   0  0  1  0  0  3  0  0  0  0  0  0
  183.9280  178.6440  141.0000 C   0  0  0  0  0  0  0  0  0  0  0  0
  184.3800  178.7890  145.9170 C   0  0  0  0  0  3  0  0  0  0  0  0
  185.6990  178.8930  145.7410 C   0  0  0  0  0  3  0  0  0  0  0  0
  181.7870  178.4770  139.9870 C   0  0  0  0  0  0  0  0  0  0  0  0
  181.9700  178.5110  142.3650 N   0  0  0  0  0  0  0  0  0  0  0  0
  179.6930  178.3620  141.4330 C   0  0  0  0  0  2  0  0  0  0  0  0
  183.4080  178.6750  144.7710 C   0  0  0  0  0  3  0  0  0  0  0  0
  183.3260  178.6210  142.2840 C   0  0  0  0  0  0  0  0  0  0  0  0
  184.0660  178.7080  143.4110 C   0  0  0  0  0  0  0  0  0  0  0  0
  186.1230  178.8430  141.9820 N   0  0  0  0  0  0  0  0  0  0  0  0
  179.5090  178.6910  138.9440 C   0  0  0  0  0  2  0  0  0  0  0  0
  181.1870  178.4200  141.2590 C   0  0  0  0  0  0  0  0  0  0  0  0
  180.9830  178.3470  138.7270 C   0  0  0  0  0  2  0  0  0  0  0  0
  186.2970  178.9080  144.3960 C   0  0  0  0  0  3  0  0  0  0  0  0
  185.5400  178.8220  143.2960 C   0  0  1  0  0  3  0  0  0  0  0  0
  183.1400  178.5700  139.8960 N   0  0  0  0  0  0  0  0  0  0  0  0
  185.2550  178.7430  140.8460 C   0  0  0  0  0  3  0  0  0  0  0  0
  179.0660  175.6710  140.9600 N   0  0  0  0  0  0  0  0  0  0  0  0
  178.9520  176.4790  139.9550 C   0  0  0  0  0  3  0  0  0  0  0  0
  179.0750  174.2510  140.7960 C   0  0  0  0  0  0  0  0  0  0  0  0
  178.9310  173.7300  139.6560 O   0  0  0  0  0  0  0  0  0  0  0  0
  179.2490  173.3770  141.9870 C   0  0  0  0  0  1  0  0  0  0  0  0
  187.5620  178.9870  141.7770 C   0  0  0  0  0  2  0  0  0  0  0  0
  190.5040  176.3700  144.6140 F   0  0  0  0  0  0  0  0  0  0  0  0
  189.0330  177.6990  143.2990 C   0  0  0  0  0  2  0  0  0  0  0  0
  189.2940  177.3850  140.8760 C   0  0  1  0  0  3  0  0  0  0  0  0
  190.1660  176.2690  141.1980 N   0  0  0  0  0  0  0  0  0  0  0  0
  190.3540  175.8390  142.3620 N   0  0  0  0  0  0  0  0  0  0  0  0
  189.6460  176.3280  143.5310 C   0  0  1  0  0  3  0  0  0  0  0  0
  188.6510  177.1300  139.6790 F   0  0  0  0  0  0  0  0  0  0  0  0
  188.2810  177.6590  141.9860 C   0  0  2  0  0  3  0  0  0  0  0  0
  1 20  1  6  0  0  0
  1  7  1  0  0  0  0
  2  9  1  0  0  0  0
  4  3  1  0  0  0  0
  5 13  1  0  0  0  0
  8  3  2  0  0  0  0
  9  6  1  0  0  0  0
  9 10  2  0  0  0  0
 10  8  1  0  0  0  0
 11 16  1  0  0  0  0
 12  1  1  0  0  0  0
 13  7  1  0  0  0  0
 13  6  2  0  0  0  0
 14 12  1  0  0  0  0
 14  5  1  0  0  0  0
 15  4  2  0  0  0  0
 16 10  1  0  0  0  0
 16 15  1  6  0  0  0
 17  5  2  0  0  0  0
 17  2  1  0  0  0  0
 18  2  2  0  0  0  0
 18 11  1  0  0  0  0
 20 19  2  0  0  0  0
 21 19  1  0  0  0  0
 21 23  1  0  0  0  0
 22 21  2  0  0  0  0
 24 11  1  0  0  0  0
 26 30  1  0  0  0  0
 27 31  1  6  0  0  0
 27 28  1  0  0  0  0
 27 32  1  0  0  0  0
 28 29  2  0  0  0  0
 29 30  1  0  0  0  0
 30 25  1  1  0  0  0
 32 24  1  6  0  0  0
 32 26  1  0  0  0  0
M  END
>  <MODEL>
4

>  <REMARK>
 VINA RESULT:      -9.2      4.086      6.040
  Name = 
  4 active torsions:
  status: ('A' for Active; 'I' for Inactive)
    1  A    between atoms: C_1  and  N_10
    2  A    between atoms: C_2  and  C_24
    3  A    between atoms: N_16  and  C_27
    4  A    between atoms: C_27  and  C_32
                            x       y       z     vdW  Elec       q    Type
                         _______ _______ _______ _____ _____    ______ ____

>  <TORSDO>
F 4

$$$$
=
 OpenBabel11052416553D

 32 36  0  0  1  0  0  0  0  0999 V2000
  180.2900  178.5670  141.2250 C   0  0  1  0  0  3  0  0  0  0  0  0
  185.3440  178.6340  140.5160 C   0  0  0  0  0  0  0  0  0  0  0  0
  187.2570  177.4170  144.9060 C   0  0  0  0  0  3  0  0  0  0  0  0
  188.4630  177.4680  144.3350 C   0  0  0  0  0  3  0  0  0  0  0  0
  183.0000  178.9020  140.2510 C   0  0  0  0  0  0  0  0  0  0  0  0
  183.8860  178.2820  142.3780 N   0  0  0  0  0  0  0  0  0  0  0  0
  181.4400  178.5570  142.2360 C   0  0  0  0  0  2  0  0  0  0  0  0
  185.9820  177.6870  144.1480 C   0  0  0  0  0  3  0  0  0  0  0  0
  185.1560  178.3100  141.8840 C   0  0  0  0  0  0  0  0  0  0  0  0
  186.2020  178.0370  142.6940 C   0  0  0  0  0  0  0  0  0  0  0  0
  187.7350  178.4000  140.7430 N   0  0  0  0  0  0  0  0  0  0  0  0
  180.5760  179.5550  140.0930 C   0  0  0  0  0  2  0  0  0  0  0  0
  182.8050  178.5500  141.6010 C   0  0  0  0  0  0  0  0  0  0  0  0
  181.8470  179.1760  139.3310 C   0  0  0  0  0  2  0  0  0  0  0  0
  188.6280  177.8010  142.9120 C   0  0  0  0  0  3  0  0  0  0  0  0
  187.5740  178.0690  142.1320 C   0  0  1  0  0  3  0  0  0  0  0  0
  184.2610  178.9180  139.7470 N   0  0  0  0  0  0  0  0  0  0  0  0
  186.5630  178.6730  139.9630 C   0  0  0  0  0  3  0  0  0  0  0  0
  179.6600  176.2370  141.4810 N   0  0  0  0  0  0  0  0  0  0  0  0
  180.0090  177.2000  140.6880 C   0  0  0  0  0  3  0  0  0  0  0  0
  179.3800  174.9210  140.9990 C   0  0  0  0  0  0  0  0  0  0  0  0
  179.2170  174.7040  139.7670 O   0  0  0  0  0  0  0  0  0  0  0  0
  179.2710  173.7950  141.9650 C   0  0  0  0  0  1  0  0  0  0  0  0
  189.0510  178.4880  140.1160 C   0  0  0  0  0  2  0  0  0  0  0  0
  191.4490  174.8410  137.9940 F   0  0  0  0  0  0  0  0  0  0  0  0
  190.3000  176.5960  139.1180 C   0  0  0  0  0  2  0  0  0  0  0  0
  189.4110  178.3300  137.6210 C   0  0  1  0  0  3  0  0  0  0  0  0
  189.7680  177.4500  136.5230 N   0  0  0  0  0  0  0  0  0  0  0  0
  190.2010  176.2810  136.6730 N   0  0  0  0  0  0  0  0  0  0  0  0
  190.3030  175.6130  137.9580 C   0  0  1  0  0  3  0  0  0  0  0  0
  188.3030  179.0760  137.2650 F   0  0  0  0  0  0  0  0  0  0  0  0
  189.1500  177.5570  138.9130 C   0  0  2  0  0  3  0  0  0  0  0  0
  1 20  1  6  0  0  0
  1  7  1  0  0  0  0
  2  9  1  0  0  0  0
  4  3  1  0  0  0  0
  5 13  1  0  0  0  0
  8  3  2  0  0  0  0
  9  6  1  0  0  0  0
  9 10  2  0  0  0  0
 10  8  1  0  0  0  0
 11 16  1  0  0  0  0
 12  1  1  0  0  0  0
 13  7  1  0  0  0  0
 13  6  2  0  0  0  0
 14 12  1  0  0  0  0
 14  5  1  0  0  0  0
 15  4  2  0  0  0  0
 16 10  1  0  0  0  0
 16 15  1  1  0  0  0
 17  5  2  0  0  0  0
 17  2  1  0  0  0  0
 18  2  2  0  0  0  0
 18 11  1  0  0  0  0
 20 19  2  0  0  0  0
 21 19  1  0  0  0  0
 21 23  1  0  0  0  0
 22 21  2  0  0  0  0
 24 11  1  0  0  0  0
 27 31  1  6  0  0  0
 27 32  1  0  0  0  0
 28 29  2  0  0  0  0
 28 27  1  0  0  0  0
 29 30  1  0  0  0  0
 30 25  1  6  0  0  0
 30 26  1  0  0  0  0
 32 26  1  0  0  0  0
 32 24  1  1  0  0  0
M  END
>  <MODEL>
5

>  <REMARK>
 VINA RESULT:      -9.0      4.040      6.903
  Name = 
  4 active torsions:
  status: ('A' for Active; 'I' for Inactive)
    1  A    between atoms: C_1  and  N_10
    2  A    between atoms: C_2  and  C_24
    3  A    between atoms: N_16  and  C_27
    4  A    between atoms: C_27  and  C_32
                            x       y       z     vdW  Elec       q    Type
                         _______ _______ _______ _____ _____    ______ ____

>  <TORSDO>
F 4

$$$$
=
 OpenBabel11052416553D

 32 36  0  0  1  0  0  0  0  0999 V2000
  187.5370  177.8840  137.1450 C   0  0  1  0  0  3  0  0  0  0  0  0
  186.1820  178.3900  142.0400 C   0  0  0  0  0  0  0  0  0  0  0  0
  181.2720  178.9260  141.9490 C   0  0  0  0  0  3  0  0  0  0  0  0
  181.3020  178.9500  143.2830 C   0  0  0  0  0  3  0  0  0  0  0  0
  187.4200  178.2440  140.0190 C   0  0  0  0  0  0  0  0  0  0  0  0
  185.0470  178.4690  139.9380 N   0  0  0  0  0  0  0  0  0  0  0  0
  186.2220  178.3550  137.7740 C   0  0  0  0  0  2  0  0  0  0  0  0
  182.5100  178.7650  141.1050 C   0  0  0  0  0  2  0  0  0  0  0  0
  184.9780  178.5050  141.2990 C   0  0  0  0  0  0  0  0  0  0  0  0
  183.7840  178.6500  141.9120 C   0  0  0  0  0  0  0  0  0  0  0  0
  184.9700  178.5630  144.1190 N   0  0  0  0  0  0  0  0  0  0  0  0
  188.7330  178.4810  137.8880 C   0  0  0  0  0  2  0  0  0  0  0  0
  186.2250  178.3250  139.2790 C   0  0  0  0  0  0  0  0  0  0  0  0
  188.7500  178.0480  139.3540 C   0  0  0  0  0  2  0  0  0  0  0  0
  182.5650  178.8220  144.0270 C   0  0  0  0  0  3  0  0  0  0  0  0
  183.7350  178.6810  143.3940 C   0  0  0  0  0  0  0  0  0  0  0  0
  187.3610  178.2620  141.3760 N   0  0  0  0  0  0  0  0  0  0  0  0
  186.1880  178.4100  143.3790 C   0  0  0  0  0  3  0  0  0  0  0  0
  186.8010  175.7060  136.3670 N   0  0  0  0  0  0  0  0  0  0  0  0
  187.6240  176.3920  137.0930 C   0  0  0  0  0  3  0  0  0  0  0  0
  186.8620  174.2800  136.2910 C   0  0  0  0  0  0  0  0  0  0  0  0
  187.9720  173.6810  136.2440 O   0  0  0  0  0  0  0  0  0  0  0  0
  185.6000  173.4940  136.2590 C   0  0  0  0  0  1  0  0  0  0  0  0
  185.0180  178.6170  145.5780 C   0  0  0  0  0  2  0  0  0  0  0  0
  189.2970  176.3690  146.0080 F   0  0  0  0  0  0  0  0  0  0  0  0
  187.1820  177.4210  145.7200 C   0  0  0  0  0  2  0  0  0  0  0  0
  186.5180  178.8630  147.5950 C   0  0  1  0  0  3  0  0  0  0  0  0
  187.8640  178.6770  148.1080 N   0  0  0  0  0  0  0  0  0  0  0  0
  188.7740  178.0750  147.4880 N   0  0  0  0  0  0  0  0  0  0  0  0
  188.6380  177.5760  146.1310 C   0  0  1  0  0  3  0  0  0  0  0  0
  186.0560  180.1110  147.9720 F   0  0  0  0  0  0  0  0  0  0  0  0
  186.4570  178.6990  146.0780 C   0  0  2  0  0  3  0  0  0  0  0  0
  1 20  1  1  0  0  0
  1  7  1  0  0  0  0
  1 12  1  0  0  0  0
  2 18  2  0  0  0  0
  3  4  2  0  0  0  0
  4 15  1  0  0  0  0
  5 17  2  0  0  0  0
  6  9  1  0  0  0  0
  7 13  1  0  0  0  0
  8 10  1  0  0  0  0
  8  3  1  0  0  0  0
  9 10  2  0  0  0  0
  9  2  1  0  0  0  0
 10 16  1  0  0  0  0
 11 24  1  0  0  0  0
 12 14  1  0  0  0  0
 13  6  2  0  0  0  0
 13  5  1  0  0  0  0
 14  5  1  0  0  0  0
 16 15  2  0  0  0  0
 16 11  1  0  0  0  0
 17  2  1  0  0  0  0
 18 11  1  0  0  0  0
 19 20  2  0  0  0  0
 21 19  1  0  0  0  0
 22 21  2  0  0  0  0
 23 21  1  0  0  0  0
 26 32  1  0  0  0  0
 26 30  1  0  0  0  0
 27 31  1  6  0  0  0
 27 28  1  0  0  0  0
 29 28  2  0  0  0  0
 30 25  1  1  0  0  0
 30 29  1  0  0  0  0
 32 24  1  1  0  0  0
 32 27  1  0  0  0  0
M  END
>  <MODEL>
6

>  <REMARK>
 VINA RESULT:      -8.9      1.722      2.377
  Name = 
  4 active torsions:
  status: ('A' for Active; 'I' for Inactive)
    1  A    between atoms: C_1  and  N_10
    2  A    between atoms: C_2  and  C_24
    3  A    between atoms: N_16  and  C_27
    4  A    between atoms: C_27  and  C_32
                            x       y       z     vdW  Elec       q    Type
                         _______ _______ _______ _____ _____    ______ ____

>  <TORSDO>
F 4

$$$$
=
 OpenBabel11052416553D

 32 36  0  0  1  0  0  0  0  0999 V2000
  189.2860  176.9990  136.4950 C   0  0  1  0  0  3  0  0  0  0  0  0
  188.7110  177.3530  141.5540 C   0  0  0  0  0  0  0  0  0  0  0  0
  184.2280  179.3300  142.1870 C   0  0  0  0  0  3  0  0  0  0  0  0
  184.4140  179.1990  143.5030 C   0  0  0  0  0  3  0  0  0  0  0  0
  189.6090  177.0640  139.3750 C   0  0  0  0  0  0  0  0  0  0  0  0
  187.4270  177.9920  139.6420 N   0  0  0  0  0  0  0  0  0  0  0  0
  188.2600  177.7680  137.3320 C   0  0  0  0  0  2  0  0  0  0  0  0
  185.2540  178.9000  141.1700 C   0  0  0  0  0  2  0  0  0  0  0  0
  187.5270  177.9000  140.9980 C   0  0  0  0  0  0  0  0  0  0  0  0
  186.5120  178.3260  141.7800 C   0  0  0  0  0  0  0  0  0  0  0  0
  187.8530  177.6520  143.7890 N   0  0  0  0  0  0  0  0  0  0  0  0
  190.6840  177.1300  137.1020 C   0  0  0  0  0  2  0  0  0  0  0  0
  188.4220  177.5760  138.8160 C   0  0  0  0  0  0  0  0  0  0  0  0
  190.7310  176.5560  138.5190 C   0  0  0  0  0  2  0  0  0  0  0  0
  185.6510  178.6230  144.0520 C   0  0  0  0  0  3  0  0  0  0  0  0
  186.6420  178.2100  143.2530 C   0  0  0  0  0  0  0  0  0  0  0  0
  189.7110  176.9530  140.7250 N   0  0  0  0  0  0  0  0  0  0  0  0
  188.8730  177.2250  142.8780 C   0  0  0  0  0  3  0  0  0  0  0  0
  187.6600  175.2180  136.2170 N   0  0  0  0  0  0  0  0  0  0  0  0
  188.9030  175.5630  136.3290 C   0  0  0  0  0  3  0  0  0  0  0  0
  187.2620  173.8560  136.0510 C   0  0  0  0  0  0  0  0  0  0  0  0
  187.3380  173.2910  134.9260 O   0  0  0  0  0  0  0  0  0  0  0  0
  186.7420  173.0980  137.2200 C   0  0  0  0  0  1  0  0  0  0  0  0
  188.0790  177.5330  145.2280 C   0  0  0  0  0  2  0  0  0  0  0  0
  192.3140  175.2460  144.6090 F   0  0  0  0  0  0  0  0  0  0  0  0
  190.2100  176.3360  144.8290 C   0  0  0  0  0  2  0  0  0  0  0  0
  189.8200  177.3220  147.0450 C   0  0  1  0  0  3  0  0  0  0  0  0
  191.2130  177.0260  147.3310 N   0  0  0  0  0  0  0  0  0  0  0  0
  192.0230  176.5780  146.4840 N   0  0  0  0  0  0  0  0  0  0  0  0
  191.7090  176.3960  145.0780 C   0  0  1  0  0  3  0  0  0  0  0  0
  189.4420  178.4540  147.7440 F   0  0  0  0  0  0  0  0  0  0  0  0
  189.5690  177.5010  145.5490 C   0  0  2  0  0  3  0  0  0  0  0  0
  1 20  1  1  0  0  0
  1 12  1  0  0  0  0
  1  7  1  0  0  0  0
  2 18  2  0  0  0  0
  3  4  2  0  0  0  0
  4 15  1  0  0  0  0
  5 17  2  0  0  0  0
  6  9  1  0  0  0  0
  7 13  1  0  0  0  0
  8 10  1  0  0  0  0
  8  3  1  0  0  0  0
  9  2  1  0  0  0  0
  9 10  2  0  0  0  0
 10 16  1  0  0  0  0
 11 24  1  0  0  0  0
 12 14  1  0  0  0  0
 13  5  1  0  0  0  0
 13  6  2  0  0  0  0
 14  5  1  0  0  0  0
 16 11  1  0  0  0  0
 16 15  2  0  0  0  0
 17  2  1  0  0  0  0
 18 11  1  0  0  0  0
 19 20  2  0  0  0  0
 21 19  1  0  0  0  0
 21 23  1  0  0  0  0
 22 21  2  0  0  0  0
 26 30  1  0  0  0  0
 26 32  1  0  0  0  0
 27 28  1  0  0  0  0
 27 31  1  1  0  0  0
 29 28  2  0  0  0  0
 30 25  1  1  0  0  0
 30 29  1  0  0  0  0
 32 24  1  1  0  0  0
 32 27  1  0  0  0  0
M  END
>  <MODEL>
7

>  <REMARK>
 VINA RESULT:      -8.4      1.174      1.396
  Name = 
  4 active torsions:
  status: ('A' for Active; 'I' for Inactive)
    1  A    between atoms: C_1  and  N_10
    2  A    between atoms: C_2  and  C_24
    3  A    between atoms: N_16  and  C_27
    4  A    between atoms: C_27  and  C_32
                            x       y       z     vdW  Elec       q    Type
                         _______ _______ _______ _____ _____    ______ ____

>  <TORSDO>
F 4

$$$$
=
 OpenBabel11052416553D

 32 36  0  0  1  0  0  0  0  0999 V2000
  185.2600  177.1100  135.6430 C   0  0  1  0  0  3  0  0  0  0  0  0
  184.9420  178.6980  140.4830 C   0  0  0  0  0  0  0  0  0  0  0  0
  180.2020  178.0550  141.7210 C   0  0  0  0  0  3  0  0  0  0  0  0
  180.5210  178.4720  142.9480 C   0  0  0  0  0  3  0  0  0  0  0  0
  185.6850  178.2550  138.2720 C   0  0  0  0  0  0  0  0  0  0  0  0
  183.3960  177.9010  138.8430 N   0  0  0  0  0  0  0  0  0  0  0  0
  184.0390  177.4320  136.5100 C   0  0  0  0  0  2  0  0  0  0  0  0
  181.2130  177.9400  140.6080 C   0  0  0  0  0  2  0  0  0  0  0  0
  183.6250  178.3160  140.1210 C   0  0  0  0  0  0  0  0  0  0  0  0
  182.6090  178.3580  141.0100 C   0  0  0  0  0  0  0  0  0  0  0  0
  184.2280  179.1900  142.7350 N   0  0  0  0  0  0  0  0  0  0  0  0
  186.3600  178.1530  135.8520 C   0  0  0  0  0  2  0  0  0  0  0  0
  184.3870  177.8430  137.9160 C   0  0  0  0  0  0  0  0  0  0  0  0
  186.8300  178.1810  137.3060 C   0  0  0  0  0  2  0  0  0  0  0  0
  181.8970  178.8580  143.2980 C   0  0  0  0  0  3  0  0  0  0  0  0
  182.8840  178.8080  142.3960 C   0  0  0  0  0  0  0  0  0  0  0  0
  185.9260  178.6540  139.5480 N   0  0  0  0  0  0  0  0  0  0  0  0
  185.2400  179.1080  141.7230 C   0  0  0  0  0  3  0  0  0  0  0  0
  185.0030  174.8200  136.4060 N   0  0  0  0  0  0  0  0  0  0  0  0
  185.7730  175.7280  135.8970 C   0  0  0  0  0  3  0  0  0  0  0  0
  185.4610  173.4900  136.6550 C   0  0  0  0  0  0  0  0  0  0  0  0
  186.4790  173.0340  136.0660 O   0  0  0  0  0  0  0  0  0  0  0  0
  184.7220  172.6280  137.6170 C   0  0  0  0  0  1  0  0  0  0  0  0
  184.5810  179.6760  144.0660 C   0  0  0  0  0  2  0  0  0  0  0  0
  187.6560  175.9390  143.7130 F   0  0  0  0  0  0  0  0  0  0  0  0
  186.1240  177.7570  143.7970 C   0  0  0  0  0  2  0  0  0  0  0  0
  185.8130  178.7020  146.0440 C   0  0  1  0  0  3  0  0  0  0  0  0
  186.9260  177.8660  146.4600 N   0  0  0  0  0  0  0  0  0  0  0  0
  187.6200  177.1790  145.6720 N   0  0  0  0  0  0  0  0  0  0  0  0
  187.4750  177.2080  144.2270 C   0  0  1  0  0  3  0  0  0  0  0  0
  185.7980  179.8530  146.8100 F   0  0  0  0  0  0  0  0  0  0  0  0
  185.8780  179.0420  144.5560 C   0  0  2  0  0  3  0  0  0  0  0  0
  1 12  1  0  0  0  0
  1 20  1  1  0  0  0
  1  7  1  0  0  0  0
  2 18  2  0  0  0  0
  3  4  2  0  0  0  0
  4 15  1  0  0  0  0
  5 17  2  0  0  0  0
  6  9  1  0  0  0  0
  7 13  1  0  0  0  0
  8 10  1  0  0  0  0
  8  3  1  0  0  0  0
  9  2  1  0  0  0  0
  9 10  2  0  0  0  0
 10 16  1  0  0  0  0
 11 24  1  0  0  0  0
 12 14  1  0  0  0  0
 13  5  1  0  0  0  0
 13  6  2  0  0  0  0
 14  5  1  0  0  0  0
 16 11  1  0  0  0  0
 16 15  2  0  0  0  0
 17  2  1  0  0  0  0
 18 11  1  0  0  0  0
 19 21  1  0  0  0  0
 20 19  2  0  0  0  0
 21 23  1  0  0  0  0
 22 21  2  0  0  0  0
 26 30  1  0  0  0  0
 26 32  1  0  0  0  0
 27 28  1  0  0  0  0
 27 31  1  1  0  0  0
 29 28  2  0  0  0  0
 30 25  1  1  0  0  0
 30 29  1  0  0  0  0
 32 24  1  6  0  0  0
 32 27  1  0  0  0  0
M  END
>  <MODEL>
8

>  <REMARK>
 VINA RESULT:      -8.3      2.606      3.711
  Name = 
  4 active torsions:
  status: ('A' for Active; 'I' for Inactive)
    1  A    between atoms: C_1  and  N_10
    2  A    between atoms: C_2  and  C_24
    3  A    between atoms: N_16  and  C_27
    4  A    between atoms: C_27  and  C_32
                            x       y       z     vdW  Elec       q    Type
                         _______ _______ _______ _____ _____    ______ ____

>  <TORSDO>
F 4

$$$$
=
 OpenBabel11052416553D

 32 36  0  0  1  0  0  0  0  0999 V2000
  193.6840  174.1650  135.4930 C   0  0  1  0  0  3  0  0  0  0  0  0
  190.8170  176.8270  138.7700 C   0  0  0  0  0  0  0  0  0  0  0  0
  186.4190  177.2460  136.5600 C   0  0  0  0  0  3  0  0  0  0  0  0
  185.9860  177.8710  137.6570 C   0  0  0  0  0  3  0  0  0  0  0  0
  192.6370  175.7860  137.6550 C   0  0  0  0  0  0  0  0  0  0  0  0
  190.5180  175.9420  136.5700 N   0  0  0  0  0  0  0  0  0  0  0  0
  192.3360  174.8650  135.3000 C   0  0  0  0  0  2  0  0  0  0  0  0
  187.8260  176.7240  136.4170 C   0  0  0  0  0  2  0  0  0  0  0  0
  189.9870  176.5900  137.6450 C   0  0  0  0  0  0  0  0  0  0  0  0
  188.6980  176.9920  137.6230 C   0  0  0  0  0  0  0  0  0  0  0  0
  189.0060  177.9180  139.9330 N   0  0  0  0  0  0  0  0  0  0  0  0
  194.6310  175.0380  136.3180 C   0  0  0  0  0  2  0  0  0  0  0  0
  191.8090  175.5190  136.5490 C   0  0  0  0  0  0  0  0  0  0  0  0
  194.0610  175.3160  137.7090 C   0  0  0  0  0  2  0  0  0  0  0  0
  186.8680  178.0990  138.8120 C   0  0  0  0  0  3  0  0  0  0  0  0
  188.1420  177.6910  138.8070 C   0  0  0  0  0  0  0  0  0  0  0  0
  192.1120  176.4170  138.7380 N   0  0  0  0  0  0  0  0  0  0  0  0
  190.3590  177.4510  139.8640 C   0  0  0  0  0  3  0  0  0  0  0  0
  194.5420  172.0210  136.2420 N   0  0  0  0  0  0  0  0  0  0  0  0
  193.5250  172.8110  136.1080 C   0  0  0  0  0  3  0  0  0  0  0  0
  194.4240  170.7250  136.8300 C   0  0  0  0  0  0  0  0  0  0  0  0
  193.5490  169.9090  136.4290 O   0  0  0  0  0  0  0  0  0  0  0  0
  195.3390  170.3360  137.9360 C   0  0  0  0  0  1  0  0  0  0  0  0
  188.5510  178.6280  141.1260 C   0  0  0  0  0  2  0  0  0  0  0  0
  186.4300  176.8230  145.1000 F   0  0  0  0  0  0  0  0  0  0  0  0
  187.3860  177.7100  143.1100 C   0  0  0  0  0  2  0  0  0  0  0  0
  189.7540  178.3300  143.3270 C   0  0  1  0  0  3  0  0  0  0  0  0
  189.7220  177.6740  144.6220 N   0  0  0  0  0  0  0  0  0  0  0  0
  188.7390  177.0260  145.0560 N   0  0  0  0  0  0  0  0  0  0  0  0
  187.5410  176.7540  144.2820 C   0  0  1  0  0  3  0  0  0  0  0  0
  191.0220  178.2140  142.7880 F   0  0  0  0  0  0  0  0  0  0  0  0
  188.7060  177.7620  142.3720 C   0  0  2  0  0  3  0  0  0  0  0  0
  1 20  1  1  0  0  0
  1 12  1  0  0  0  0
  2 18  2  0  0  0  0
  3  4  2  0  0  0  0
  4 15  1  0  0  0  0
  5 14  1  0  0  0  0
  5 17  2  0  0  0  0
  6  9  1  0  0  0  0
  7  1  1  0  0  0  0
  7 13  1  0  0  0  0
  8  3  1  0  0  0  0
  8 10  1  0  0  0  0
  9  2  1  0  0  0  0
 10  9  2  0  0  0  0
 10 16  1  0  0  0  0
 11 24  1  0  0  0  0
 12 14  1  0  0  0  0
 13  6  2  0  0  0  0
 13  5  1  0  0  0  0
 16 15  2  0  0  0  0
 16 11  1  0  0  0  0
 17  2  1  0  0  0  0
 18 11  1  0  0  0  0
 19 21  1  0  0  0  0
 20 19  2  0  0  0  0
 21 23  1  0  0  0  0
 22 21  2  0  0  0  0
 26 30  1  0  0  0  0
 27 31  1  6  0  0  0
 27 28  1  0  0  0  0
 28 29  2  0  0  0  0
 30 29  1  0  0  0  0
 30 25  1  1  0  0  0
 32 24  1  6  0  0  0
 32 26  1  0  0  0  0
 32 27  1  0  0  0  0
M  END
>  <MODEL>
9

>  <REMARK>
 VINA RESULT:      -8.3      4.370      6.304
  Name = 
  4 active torsions:
  status: ('A' for Active; 'I' for Inactive)
    1  A    between atoms: C_1  and  N_10
    2  A    between atoms: C_2  and  C_24
    3  A    between atoms: N_16  and  C_27
    4  A    between atoms: C_27  and  C_32
                            x       y       z     vdW  Elec       q    Type
                         _______ _______ _______ _____ _____    ______ ____

>  <TORSDO>
F 4

$$$$
