=
 OpenBabel11052416213D

 43 47  0  0  1  0  0  0  0  0999 V2000
  186.3850  178.3820  146.1240 C   0  0  0  0  0  0  0  0  0  0  0  0
  183.1900  178.8700  142.2000 N   0  0  2  0  0  0  0  0  0  0  0  0
  184.6220  178.8830  139.8350 C   0  0  2  0  0  3  0  0  0  0  0  0
  184.4200  178.6780  144.7390 C   0  0  0  0  0  0  0  0  0  0  0  0
  187.1020  177.9280  145.0160 C   0  0  0  0  0  3  0  0  0  0  0  0
  186.9870  178.4550  147.3360 F   0  0  0  0  0  0  0  0  0  0  0  0
  185.1500  178.2600  143.6060 C   0  0  0  0  0  0  0  0  0  0  0  0
  185.0460  178.7540  145.9860 C   0  0  0  0  0  3  0  0  0  0  0  0
  186.4860  177.8580  143.7640 C   0  0  0  0  0  3  0  0  0  0  0  0
  185.3900  178.5620  141.1240 C   0  0  0  0  0  2  0  0  0  0  0  0
  184.4600  178.1170  142.2620 C   0  0  2  0  0  3  0  0  0  0  0  0
  182.3710  178.5070  143.3550 C   0  0  0  0  0  2  0  0  0  0  0  0
  182.4140  178.5120  140.9960 C   0  0  2  0  0  3  0  0  0  0  0  0
  183.2870  178.1450  139.7840 C   0  0  0  0  0  2  0  0  0  0  0  0
  182.9860  179.0940  144.6180 C   0  0  0  0  0  2  0  0  0  0  0  0
  185.4530  178.6200  138.5780 C   0  0  2  0  0  3  0  0  0  0  0  0
  184.9990  177.3610  137.8470 C   0  0  0  0  0  1  0  0  0  0  0  0
  186.8640  178.5180  138.9300 N   0  0  0  0  0  2  0  0  0  0  0  0
  187.9180  178.7520  137.9940 C   0  0  0  0  0  0  0  0  0  0  0  0
  187.6600  179.1080  136.8130 O   0  0  0  0  0  0  0  0  0  0  0  0
  189.3470  178.5470  138.4120 C   0  0  0  0  0  2  0  0  0  0  0  0
  189.6200  177.2080  138.9520 N   0  0  0  0  0  0  0  0  0  0  0  0
  189.5430  177.1590  141.4290 C   0  0  0  0  0  0  0  0  0  0  0  0
  190.2520  177.3410  140.2010 N   0  0  0  0  0  2  0  0  0  0  0  0
  188.3020  176.9370  141.4110 O   0  0  0  0  0  0  0  0  0  0  0  0
  190.2610  177.2390  142.7130 C   0  0  0  0  0  0  0  0  0  0  0  0
  191.1410  178.5520  144.5600 C   0  0  0  0  0  3  0  0  0  0  0  0
  191.4310  176.1490  144.5430 C   0  0  0  0  0  3  0  0  0  0  0  0
  191.6260  177.3870  145.1610 C   0  0  0  0  0  3  0  0  0  0  0  0
  190.7510  176.0750  143.3240 C   0  0  0  0  0  3  0  0  0  0  0  0
  190.4610  178.4780  143.3410 C   0  0  0  0  0  3  0  0  0  0  0  0
  190.5300  176.5050  138.0530 C   0  0  0  0  0  2  0  0  0  0  0  0
  190.9110  174.0110  136.9780 S   0  0  0  0  0  1  0  0  0  0  0  0
  189.7950  175.4060  137.3070 C   0  0  0  0  0  2  0  0  0  0  0  0
  181.5450  179.6240  140.6270 N   0  0  0  0  0  2  0  0  0  0  0  0
  179.8570  179.2070  137.3120 C   0  0  0  0  0  3  0  0  0  0  0  0
  180.2530  180.3870  136.6620 C   0  0  0  0  0  0  0  0  0  0  0  0
  181.4950  181.0390  138.6410 C   0  0  0  0  0  3  0  0  0  0  0  0
  180.2790  178.9480  138.6180 C   0  0  0  0  0  3  0  0  0  0  0  0
  181.0960  179.8670  139.2920 C   0  0  0  0  0  0  0  0  0  0  0  0
  181.0740  181.2990  137.3350 C   0  0  0  0  0  3  0  0  0  0  0  0
  179.8450  180.6780  135.3570 O   0  0  0  0  0  0  0  0  0  0  0  0
  180.2210  181.8710  134.6830 C   0  0  0  0  0  1  0  0  0  0  0  0
  1  6  1  0  0  0  0
  2 11  1  0  0  0  0
  2 12  1  1  0  0  0
  3 16  1  6  0  0  0
  3 10  1  0  0  0  0
  4  8  2  0  0  0  0
  5  1  2  0  0  0  0
  7  9  2  0  0  0  0
  7  4  1  0  0  0  0
  8  1  1  0  0  0  0
  9  5  1  0  0  0  0
 11 10  1  6  0  0  0
 11  7  1  0  0  0  0
 12 15  1  0  0  0  0
 13 35  1  6  0  0  0
 13  2  1  0  0  0  0
 14  3  1  0  0  0  0
 14 13  1  0  0  0  0
 15  4  1  0  0  0  0
 16 17  1  1  0  0  0
 16 18  1  0  0  0  0
 19 21  1  0  0  0  0
 19 18  1  0  0  0  0
 20 19  2  0  0  0  0
 21 22  1  0  0  0  0
 22 24  1  0  0  0  0
 23 26  1  0  0  0  0
 24 23  1  0  0  0  0
 25 23  2  0  0  0  0
 26 30  2  0  0  0  0
 26 31  1  0  0  0  0
 27 29  1  0  0  0  0
 28 29  2  0  0  0  0
 30 28  1  0  0  0  0
 31 27  2  0  0  0  0
 32 22  1  0  0  0  0
 33 34  1  0  0  0  0
 34 32  1  0  0  0  0
 36 39  1  0  0  0  0
 37 36  2  0  0  0  0
 37 41  1  0  0  0  0
 38 40  1  0  0  0  0
 39 40  2  0  0  0  0
 40 35  1  0  0  0  0
 41 38  2  0  0  0  0
 42 37  1  0  0  0  0
 43 42  1  0  0  0  0
M  END
>  <MODEL>
1

>  <REMARK>
 VINA RESULT:      -8.8      0.000      0.000
  Name = 
  11 active torsions:
  status: ('A' for Active; 'I' for Inactive)
    1  A    between atoms: N_1  and  C_34
    2  A    between atoms: N_1  and  C_35
    3  A    between atoms: C_2  and  N_6
    4  A    between atoms: C_2  and  C_13
    5  A    between atoms: C_3  and  N_4
    6  A    between atoms: C_3  and  C_12
    7  A    between atoms: N_4  and  C_15
    8  A    between atoms: N_4  and  N_22
    9  A    between atoms: C_11  and  C_14
   10  A    between atoms: C_15  and  C_42
   11  A    between atoms: C_19  and  O_25
                            x       y       z     vdW  Elec       q    Type
                         _______ _______ _______ _____ _____    ______ ____

>  <TORSDO>
F 11

$$$$
=
 OpenBabel11052416213D

 43 47  0  0  1  0  0  0  0  0999 V2000
  191.2860  176.7570  147.2080 C   0  0  0  0  0  0  0  0  0  0  0  0
  187.1800  177.9210  144.4460 N   0  0  2  0  0  0  0  0  0  0  0  0
  187.9340  178.4400  141.8370 C   0  0  2  0  0  3  0  0  0  0  0  0
  189.0330  177.2660  146.4790 C   0  0  0  0  0  0  0  0  0  0  0  0
  191.6720  176.5500  145.8830 C   0  0  0  0  0  3  0  0  0  0  0  0
  192.1890  176.6050  148.2070 F   0  0  0  0  0  0  0  0  0  0  0  0
  189.4250  177.1000  145.1340 C   0  0  0  0  0  0  0  0  0  0  0  0
  189.9690  177.1110  147.5050 C   0  0  0  0  0  3  0  0  0  0  0  0
  190.7440  176.7120  144.8510 C   0  0  0  0  0  3  0  0  0  0  0  0
  189.0080  177.8930  142.7870 C   0  0  0  0  0  2  0  0  0  0  0  0
  188.4010  177.2070  144.0200 C   0  0  2  0  0  3  0  0  0  0  0  0
  186.6870  177.3160  145.6810 C   0  0  0  0  0  2  0  0  0  0  0  0
  186.1040  177.7870  143.4440 C   0  0  2  0  0  3  0  0  0  0  0  0
  186.6150  177.6910  141.9970 C   0  0  0  0  0  2  0  0  0  0  0  0
  187.6290  177.6580  146.8260 C   0  0  0  0  0  2  0  0  0  0  0  0
  188.3960  178.4540  140.3790 C   0  0  2  0  0  3  0  0  0  0  0  0
  187.2550  178.1430  139.4170 C   0  0  0  0  0  1  0  0  0  0  0  0
  189.4850  177.5030  140.1960 N   0  0  0  0  0  2  0  0  0  0  0  0
  190.2750  177.4450  139.0060 C   0  0  0  0  0  0  0  0  0  0  0  0
  190.0840  178.2640  138.0680 O   0  0  0  0  0  0  0  0  0  0  0  0
  191.3260  176.3810  138.8600 C   0  0  0  0  0  2  0  0  0  0  0  0
  191.1780  175.5640  137.6470 N   0  0  0  0  0  0  0  0  0  0  0  0
  188.9030  175.1130  136.7720 C   0  0  0  0  0  0  0  0  0  0  0  0
  189.9550  174.8730  137.7100 N   0  0  0  0  0  2  0  0  0  0  0  0
  189.0350  176.0110  135.8960 O   0  0  0  0  0  0  0  0  0  0  0  0
  187.6660  174.3170  136.8330 C   0  0  0  0  0  0  0  0  0  0  0  0
  185.2560  174.1830  137.1230 C   0  0  0  0  0  3  0  0  0  0  0  0
  186.5350  172.1690  136.7110 C   0  0  0  0  0  3  0  0  0  0  0  0
  185.3090  172.7980  136.9440 C   0  0  0  0  0  3  0  0  0  0  0  0
  187.7090  172.9260  136.6550 C   0  0  0  0  0  3  0  0  0  0  0  0
  186.4300  174.9390  137.0670 C   0  0  0  0  0  3  0  0  0  0  0  0
  192.2550  174.5790  137.5980 C   0  0  0  0  0  2  0  0  0  0  0  0
  194.8880  174.0860  138.1800 S   0  0  0  0  0  1  0  0  0  0  0  0
  193.6060  175.2680  137.6730 C   0  0  0  0  0  2  0  0  0  0  0  0
  185.1980  178.9260  143.5460 N   0  0  0  0  0  2  0  0  0  0  0  0
  181.9960  178.7050  141.6190 C   0  0  0  0  0  3  0  0  0  0  0  0
  181.0560  178.7420  142.6610 C   0  0  0  0  0  0  0  0  0  0  0  0
  182.8680  178.9020  144.2660 C   0  0  0  0  0  3  0  0  0  0  0  0
  183.3630  178.7650  141.9020 C   0  0  0  0  0  3  0  0  0  0  0  0
  183.8050  178.8580  143.2290 C   0  0  0  0  0  0  0  0  0  0  0  0
  181.5010  178.8420  143.9830 C   0  0  0  0  0  3  0  0  0  0  0  0
  179.6810  178.6810  142.4110 O   0  0  0  0  0  0  0  0  0  0  0  0
  179.1380  178.0440  141.2630 C   0  0  0  0  0  1  0  0  0  0  0  0
  1  8  1  0  0  0  0
  1  6  1  0  0  0  0
  2 12  1  1  0  0  0
  3 16  1  6  0  0  0
  3 14  1  0  0  0  0
  3 10  1  0  0  0  0
  4 15  1  0  0  0  0
  4  8  2  0  0  0  0
  5  1  2  0  0  0  0
  7  4  1  0  0  0  0
  9  7  2  0  0  0  0
  9  5  1  0  0  0  0
 11 10  1  6  0  0  0
 11  2  1  0  0  0  0
 11  7  1  0  0  0  0
 12 15  1  0  0  0  0
 13 35  1  6  0  0  0
 13  2  1  0  0  0  0
 14 13  1  0  0  0  0
 16 17  1  6  0  0  0
 18 16  1  0  0  0  0
 19 18  1  0  0  0  0
 20 19  2  0  0  0  0
 21 19  1  0  0  0  0
 22 24  1  0  0  0  0
 22 21  1  0  0  0  0
 23 26  1  0  0  0  0
 23 24  1  0  0  0  0
 25 23  2  0  0  0  0
 26 31  1  0  0  0  0
 28 29  2  0  0  0  0
 29 27  1  0  0  0  0
 30 28  1  0  0  0  0
 30 26  2  0  0  0  0
 31 27  2  0  0  0  0
 32 22  1  0  0  0  0
 32 34  1  0  0  0  0
 34 33  1  0  0  0  0
 36 39  2  0  0  0  0
 36 37  1  0  0  0  0
 37 41  2  0  0  0  0
 39 40  1  0  0  0  0
 40 35  1  0  0  0  0
 40 38  2  0  0  0  0
 41 38  1  0  0  0  0
 42 37  1  0  0  0  0
 43 42  1  0  0  0  0
M  END
>  <MODEL>
2

>  <REMARK>
 VINA RESULT:      -8.6      3.023      5.636
  Name = 
  11 active torsions:
  status: ('A' for Active; 'I' for Inactive)
    1  A    between atoms: N_1  and  C_34
    2  A    between atoms: N_1  and  C_35
    3  A    between atoms: C_2  and  N_6
    4  A    between atoms: C_2  and  C_13
    5  A    between atoms: C_3  and  N_4
    6  A    between atoms: C_3  and  C_12
    7  A    between atoms: N_4  and  C_15
    8  A    between atoms: N_4  and  N_22
    9  A    between atoms: C_11  and  C_14
   10  A    between atoms: C_15  and  C_42
   11  A    between atoms: C_19  and  O_25
                            x       y       z     vdW  Elec       q    Type
                         _______ _______ _______ _____ _____    ______ ____

>  <TORSDO>
F 11

$$$$
=
 OpenBabel11052416213D

 43 47  0  0  1  0  0  0  0  0999 V2000
  183.4510  178.9650  144.5710 C   0  0  0  0  0  0  0  0  0  0  0  0
  182.4100  178.2440  139.6470 N   0  0  2  0  0  0  0  0  0  0  0  0
  184.7350  178.4570  138.1670 C   0  0  2  0  0  3  0  0  0  0  0  0
  182.3360  178.6000  142.4510 C   0  0  0  0  0  0  0  0  0  0  0  0
  184.6760  178.6370  143.9870 C   0  0  0  0  0  3  0  0  0  0  0  0
  183.3940  179.2970  145.8830 F   0  0  0  0  0  0  0  0  0  0  0  0
  183.5760  178.3080  141.8440 C   0  0  0  0  0  0  0  0  0  0  0  0
  182.2830  178.9450  143.8050 C   0  0  0  0  0  3  0  0  0  0  0  0
  184.7370  178.3010  142.6320 C   0  0  0  0  0  3  0  0  0  0  0  0
  184.8680  178.4640  139.6960 C   0  0  0  0  0  2  0  0  0  0  0  0
  183.6320  177.8750  140.3910 C   0  0  2  0  0  3  0  0  0  0  0  0
  181.2450  177.7660  140.3880 C   0  0  0  0  0  2  0  0  0  0  0  0
  182.3720  177.5920  138.3230 C   0  0  2  0  0  3  0  0  0  0  0  0
  183.7610  177.3820  137.6970 C   0  0  0  0  0  2  0  0  0  0  0  0
  181.0700  178.5970  141.6510 C   0  0  0  0  0  2  0  0  0  0  0  0
  186.0880  178.3320  137.4640 C   0  0  2  0  0  3  0  0  0  0  0  0
  186.1110  177.1690  136.4770 C   0  0  0  0  0  1  0  0  0  0  0  0
  187.1470  178.1770  138.4520 N   0  0  0  0  0  2  0  0  0  0  0  0
  188.4560  178.7260  138.2820 C   0  0  0  0  0  0  0  0  0  0  0  0
  188.7340  179.4190  137.2680 O   0  0  0  0  0  0  0  0  0  0  0  0
  189.5190  178.4520  139.3080 C   0  0  0  0  0  2  0  0  0  0  0  0
  189.5370  177.0630  139.7870 N   0  0  0  0  0  0  0  0  0  0  0  0
  189.1280  177.2450  142.2250 C   0  0  0  0  0  0  0  0  0  0  0  0
  190.0050  177.0450  141.1130 N   0  0  0  0  0  2  0  0  0  0  0  0
  187.9120  177.5110  142.0270 O   0  0  0  0  0  0  0  0  0  0  0  0
  189.6490  177.1480  143.6000 C   0  0  0  0  0  0  0  0  0  0  0  0
  191.4950  176.7720  145.1350 C   0  0  0  0  0  3  0  0  0  0  0  0
  189.2870  177.2540  146.0010 C   0  0  0  0  0  3  0  0  0  0  0  0
  190.6370  176.9680  146.2200 C   0  0  0  0  0  3  0  0  0  0  0  0
  188.7940  177.3440  144.6960 C   0  0  0  0  0  3  0  0  0  0  0  0
  191.0030  176.8620  143.8300 C   0  0  0  0  0  3  0  0  0  0  0  0
  190.4620  176.2850  138.9680 C   0  0  0  0  0  2  0  0  0  0  0  0
  192.9100  176.3610  137.7360 S   0  0  0  0  0  1  0  0  0  0  0  0
  191.8880  176.7600  139.1830 C   0  0  0  0  0  2  0  0  0  0  0  0
  181.5630  178.3910  137.4090 N   0  0  0  0  0  2  0  0  0  0  0  0
  181.1720  181.9760  138.4150 C   0  0  0  0  0  3  0  0  0  0  0  0
  179.7740  182.0860  138.4680 C   0  0  0  0  0  0  0  0  0  0  0  0
  179.5840  179.7550  137.8230 C   0  0  0  0  0  3  0  0  0  0  0  0
  181.7700  180.7620  138.0670 C   0  0  0  0  0  3  0  0  0  0  0  0
  180.9770  179.6460  137.7640 C   0  0  0  0  0  0  0  0  0  0  0  0
  178.9860  180.9690  138.1710 C   0  0  0  0  0  3  0  0  0  0  0  0
  179.1450  183.2870  138.8090 O   0  0  0  0  0  0  0  0  0  0  0  0
  179.3270  184.4860  138.0680 C   0  0  0  0  0  1  0  0  0  0  0  0
  1  6  1  0  0  0  0
  2 12  1  1  0  0  0
  2 11  1  0  0  0  0
  3 16  1  6  0  0  0
  3 10  1  0  0  0  0
  4  8  1  0  0  0  0
  5  1  1  0  0  0  0
  7  4  2  0  0  0  0
  7  9  1  0  0  0  0
  8  1  2  0  0  0  0
  9  5  2  0  0  0  0
 11 10  1  6  0  0  0
 11  7  1  0  0  0  0
 12 15  1  0  0  0  0
 13 35  1  6  0  0  0
 13  2  1  0  0  0  0
 14  3  1  0  0  0  0
 14 13  1  0  0  0  0
 15  4  1  0  0  0  0
 16 17  1  6  0  0  0
 16 18  1  0  0  0  0
 19 18  1  0  0  0  0
 19 21  1  0  0  0  0
 20 19  2  0  0  0  0
 21 22  1  0  0  0  0
 22 24  1  0  0  0  0
 23 26  1  0  0  0  0
 24 23  1  0  0  0  0
 25 23  2  0  0  0  0
 26 31  2  0  0  0  0
 26 30  1  0  0  0  0
 27 29  2  0  0  0  0
 28 29  1  0  0  0  0
 30 28  2  0  0  0  0
 31 27  1  0  0  0  0
 32 34  1  0  0  0  0
 32 22  1  0  0  0  0
 33 34  1  0  0  0  0
 35 40  1  0  0  0  0
 36 37  1  0  0  0  0
 37 42  1  0  0  0  0
 38 41  1  0  0  0  0
 39 36  2  0  0  0  0
 40 38  2  0  0  0  0
 40 39  1  0  0  0  0
 41 37  2  0  0  0  0
 43 42  1  0  0  0  0
M  END
>  <MODEL>
3

>  <REMARK>
 VINA RESULT:      -8.6      1.737      2.479
  Name = 
  11 active torsions:
  status: ('A' for Active; 'I' for Inactive)
    1  A    between atoms: N_1  and  C_34
    2  A    between atoms: N_1  and  C_35
    3  A    between atoms: C_2  and  N_6
    4  A    between atoms: C_2  and  C_13
    5  A    between atoms: C_3  and  N_4
    6  A    between atoms: C_3  and  C_12
    7  A    between atoms: N_4  and  C_15
    8  A    between atoms: N_4  and  N_22
    9  A    between atoms: C_11  and  C_14
   10  A    between atoms: C_15  and  C_42
   11  A    between atoms: C_19  and  O_25
                            x       y       z     vdW  Elec       q    Type
                         _______ _______ _______ _____ _____    ______ ____

>  <TORSDO>
F 11

$$$$
=
 OpenBabel11052416213D

 43 47  0  0  1  0  0  0  0  0999 V2000
  191.3170  176.6480  146.9830 C   0  0  0  0  0  0  0  0  0  0  0  0
  187.8210  177.8640  143.4970 N   0  0  2  0  0  0  0  0  0  0  0  0
  189.0310  178.1320  141.0250 C   0  0  2  0  0  3  0  0  0  0  0  0
  189.2590  177.2460  145.8520 C   0  0  0  0  0  0  0  0  0  0  0  0
  191.8980  176.3160  145.7570 C   0  0  0  0  0  3  0  0  0  0  0  0
  192.0280  176.5150  148.1270 F   0  0  0  0  0  0  0  0  0  0  0  0
  189.8530  176.9520  144.6050 C   0  0  0  0  0  0  0  0  0  0  0  0
  189.9990  177.1100  147.0290 C   0  0  0  0  0  3  0  0  0  0  0  0
  191.1670  176.4590  144.5750 C   0  0  0  0  0  3  0  0  0  0  0  0
  189.8890  177.5900  142.1760 C   0  0  0  0  0  2  0  0  0  0  0  0
  189.0370  177.0410  143.3300 C   0  0  2  0  0  3  0  0  0  0  0  0
  187.0870  177.3880  144.6670 C   0  0  0  0  0  2  0  0  0  0  0  0
  186.9180  177.7240  142.3380 C   0  0  2  0  0  3  0  0  0  0  0  0
  187.6500  177.4850  141.0070 C   0  0  0  0  0  2  0  0  0  0  0  0
  187.8520  177.7540  145.9300 C   0  0  0  0  0  2  0  0  0  0  0  0
  189.7260  178.0040  139.6680 C   0  0  2  0  0  3  0  0  0  0  0  0
  189.1260  178.9460  138.6300 C   0  0  0  0  0  1  0  0  0  0  0  0
  189.6530  176.6260  139.2020 N   0  0  0  0  0  2  0  0  0  0  0  0
  190.4830  176.1120  138.1580 C   0  0  0  0  0  0  0  0  0  0  0  0
  191.3610  176.8380  137.6210 O   0  0  0  0  0  0  0  0  0  0  0  0
  190.2900  174.7020  137.6770 C   0  0  0  0  0  2  0  0  0  0  0  0
  189.3480  174.5820  136.5540 N   0  0  0  0  0  0  0  0  0  0  0  0
  187.4130  176.1240  136.4110 C   0  0  0  0  0  0  0  0  0  0  0  0
  188.0740  174.9930  136.9840 N   0  0  0  0  0  2  0  0  0  0  0  0
  188.0020  176.8220  135.5410 O   0  0  0  0  0  0  0  0  0  0  0  0
  186.0500  176.4770  136.8420 C   0  0  0  0  0  0  0  0  0  0  0  0
  184.5230  177.9780  137.9930 C   0  0  0  0  0  3  0  0  0  0  0  0
  183.6710  175.9850  136.9160 C   0  0  0  0  0  3  0  0  0  0  0  0
  183.4500  177.1480  137.6580 C   0  0  0  0  0  3  0  0  0  0  0  0
  184.9660  175.6500  136.5100 C   0  0  0  0  0  3  0  0  0  0  0  0
  185.8180  177.6430  137.5870 C   0  0  0  0  0  3  0  0  0  0  0  0
  189.2620  173.1820  136.1480 C   0  0  0  0  0  2  0  0  0  0  0  0
  186.8210  172.0250  135.6820 S   0  0  0  0  0  1  0  0  0  0  0  0
  188.1160  172.4920  136.8660 C   0  0  0  0  0  2  0  0  0  0  0  0
  186.0980  178.9240  142.2110 N   0  0  0  0  0  2  0  0  0  0  0  0
  182.4030  178.6720  141.6640 C   0  0  0  0  0  3  0  0  0  0  0  0
  181.9220  179.0120  142.9380 C   0  0  0  0  0  0  0  0  0  0  0  0
  184.2060  179.2890  143.7070 C   0  0  0  0  0  3  0  0  0  0  0  0
  183.7770  178.6410  141.4160 C   0  0  0  0  0  3  0  0  0  0  0  0
  184.6860  178.9440  142.4390 C   0  0  0  0  0  0  0  0  0  0  0  0
  182.8310  179.3200  143.9550 C   0  0  0  0  0  3  0  0  0  0  0  0
  180.5530  179.0500  143.2190 O   0  0  0  0  0  0  0  0  0  0  0  0
  179.9380  178.1770  144.1570 C   0  0  0  0  0  1  0  0  0  0  0  0
  1  8  1  0  0  0  0
  1  6  1  0  0  0  0
  2 12  1  1  0  0  0
  3 16  1  6  0  0  0
  3 10  1  0  0  0  0
  4 15  1  0  0  0  0
  4  8  2  0  0  0  0
  5  1  2  0  0  0  0
  7  4  1  0  0  0  0
  9  7  2  0  0  0  0
  9  5  1  0  0  0  0
 11 10  1  6  0  0  0
 11  2  1  0  0  0  0
 11  7  1  0  0  0  0
 12 15  1  0  0  0  0
 13 35  1  6  0  0  0
 13  2  1  0  0  0  0
 14  3  1  0  0  0  0
 14 13  1  0  0  0  0
 16 17  1  6  0  0  0
 18 16  1  0  0  0  0
 19 18  1  0  0  0  0
 20 19  2  0  0  0  0
 21 19  1  0  0  0  0
 22 24  1  0  0  0  0
 22 21  1  0  0  0  0
 23 26  1  0  0  0  0
 23 24  1  0  0  0  0
 25 23  2  0  0  0  0
 26 31  1  0  0  0  0
 28 29  2  0  0  0  0
 29 27  1  0  0  0  0
 30 26  2  0  0  0  0
 30 28  1  0  0  0  0
 31 27  2  0  0  0  0
 32 22  1  0  0  0  0
 32 34  1  0  0  0  0
 33 34  1  0  0  0  0
 35 40  1  0  0  0  0
 36 37  1  0  0  0  0
 37 42  1  0  0  0  0
 37 41  2  0  0  0  0
 38 41  1  0  0  0  0
 39 36  2  0  0  0  0
 39 40  1  0  0  0  0
 40 38  2  0  0  0  0
 42 43  1  0  0  0  0
M  END
>  <MODEL>
4

>  <REMARK>
 VINA RESULT:      -8.4      2.964      5.975
  Name = 
  11 active torsions:
  status: ('A' for Active; 'I' for Inactive)
    1  A    between atoms: N_1  and  C_34
    2  A    between atoms: N_1  and  C_35
    3  A    between atoms: C_2  and  N_6
    4  A    between atoms: C_2  and  C_13
    5  A    between atoms: C_3  and  N_4
    6  A    between atoms: C_3  and  C_12
    7  A    between atoms: N_4  and  C_15
    8  A    between atoms: N_4  and  N_22
    9  A    between atoms: C_11  and  C_14
   10  A    between atoms: C_15  and  C_42
   11  A    between atoms: C_19  and  O_25
                            x       y       z     vdW  Elec       q    Type
                         _______ _______ _______ _____ _____    ______ ____

>  <TORSDO>
F 11

$$$$
=
 OpenBabel11052416213D

 43 47  0  0  1  0  0  0  0  0999 V2000
  190.9200  176.7130  146.9540 C   0  0  0  0  0  0  0  0  0  0  0  0
  189.3500  177.2420  142.1470 N   0  0  2  0  0  0  0  0  0  0  0  0
  186.7100  178.0630  142.1190 C   0  0  2  0  0  3  0  0  0  0  0  0
  190.7720  176.7240  144.5360 C   0  0  0  0  0  0  0  0  0  0  0  0
  189.7960  177.5380  147.0300 C   0  0  0  0  0  3  0  0  0  0  0  0
  191.5410  176.3110  148.0880 F   0  0  0  0  0  0  0  0  0  0  0  0
  189.6110  177.5230  144.6050 C   0  0  0  0  0  0  0  0  0  0  0  0
  191.4080  176.3090  145.7090 C   0  0  0  0  0  3  0  0  0  0  0  0
  189.1500  177.9480  145.8610 C   0  0  0  0  0  3  0  0  0  0  0  0
  187.4230  178.0220  143.4780 C   0  0  0  0  0  2  0  0  0  0  0  0
  188.9520  178.0250  143.3350 C   0  0  2  0  0  3  0  0  0  0  0  0
  190.8090  177.1700  142.0980 C   0  0  0  0  0  2  0  0  0  0  0  0
  188.9120  177.9000  140.9000 C   0  0  2  0  0  3  0  0  0  0  0  0
  187.5970  178.6840  141.0440 C   0  0  0  0  0  2  0  0  0  0  0  0
  191.3110  176.2660  143.2150 C   0  0  0  0  0  2  0  0  0  0  0  0
  185.3510  178.7600  142.1930 C   0  0  2  0  0  3  0  0  0  0  0  0
  184.7470  178.6830  143.5920 C   0  0  0  0  0  1  0  0  0  0  0  0
  184.4410  178.1760  141.2170 N   0  0  0  0  0  2  0  0  0  0  0  0
  184.0700  178.8380  140.0060 C   0  0  0  0  0  0  0  0  0  0  0  0
  184.5640  179.9580  139.7100 O   0  0  0  0  0  0  0  0  0  0  0  0
  183.0610  178.2050  139.0880 C   0  0  0  0  0  2  0  0  0  0  0  0
  181.7200  178.8000  139.1820 N   0  0  0  0  0  0  0  0  0  0  0  0
  180.8070  180.3620  137.4880 C   0  0  0  0  0  0  0  0  0  0  0  0
  181.7300  180.0480  138.5350 N   0  0  0  0  0  2  0  0  0  0  0  0
  179.9990  179.4850  137.0780 O   0  0  0  0  0  0  0  0  0  0  0  0
  180.8070  181.7060  136.8860 C   0  0  0  0  0  0  0  0  0  0  0  0
  180.4270  183.1620  134.9760 C   0  0  0  0  0  3  0  0  0  0  0  0
  181.1810  184.1000  137.0760 C   0  0  0  0  0  3  0  0  0  0  0  0
  180.8030  184.2690  135.7420 C   0  0  0  0  0  3  0  0  0  0  0  0
  181.1830  182.8240  137.6460 C   0  0  0  0  0  3  0  0  0  0  0  0
  180.4290  181.8860  135.5460 C   0  0  0  0  0  3  0  0  0  0  0  0
  181.3900  179.0190  140.5870 C   0  0  0  0  0  2  0  0  0  0  0  0
  179.3170  180.6680  141.2940 S   0  0  0  0  0  1  0  0  0  0  0  0
  179.8840  179.0200  140.7830 C   0  0  0  0  0  2  0  0  0  0  0  0
  188.7470  176.8990  139.8530 N   0  0  0  0  0  2  0  0  0  0  0  0
  190.1620  176.7170  136.3910 C   0  0  0  0  0  3  0  0  0  0  0  0
  191.4970  176.3850  136.6670 C   0  0  0  0  0  0  0  0  0  0  0  0
  190.9910  176.3960  139.0400 C   0  0  0  0  0  3  0  0  0  0  0  0
  189.2490  176.8880  137.4350 C   0  0  0  0  0  3  0  0  0  0  0  0
  189.6620  176.7330  138.7660 C   0  0  0  0  0  0  0  0  0  0  0  0
  191.9040  176.2250  137.9960 C   0  0  0  0  0  3  0  0  0  0  0  0
  192.4360  176.2100  135.6460 O   0  0  0  0  0  0  0  0  0  0  0  0
  193.7650  175.7730  135.8920 C   0  0  0  0  0  1  0  0  0  0  0  0
  1  5  1  0  0  0  0
  1  6  1  0  0  0  0
  2 12  1  6  0  0  0
  2 11  1  0  0  0  0
  3 16  1  1  0  0  0
  3 10  1  0  0  0  0
  4  7  2  0  0  0  0
  4  8  1  0  0  0  0
  7  9  1  0  0  0  0
  8  1  2  0  0  0  0
  9  5  2  0  0  0  0
 11 10  1  1  0  0  0
 11  7  1  0  0  0  0
 12 15  1  0  0  0  0
 13 35  1  6  0  0  0
 13 14  1  0  0  0  0
 13  2  1  0  0  0  0
 14  3  1  0  0  0  0
 15  4  1  0  0  0  0
 16 17  1  1  0  0  0
 18 16  1  0  0  0  0
 19 18  1  0  0  0  0
 20 19  2  0  0  0  0
 21 22  1  0  0  0  0
 21 19  1  0  0  0  0
 22 32  1  0  0  0  0
 23 24  1  0  0  0  0
 24 22  1  0  0  0  0
 25 23  2  0  0  0  0
 26 23  1  0  0  0  0
 26 30  1  0  0  0  0
 27 31  1  0  0  0  0
 27 29  2  0  0  0  0
 28 30  2  0  0  0  0
 29 28  1  0  0  0  0
 31 26  2  0  0  0  0
 32 34  1  0  0  0  0
 34 33  1  0  0  0  0
 36 37  2  0  0  0  0
 36 39  1  0  0  0  0
 37 41  1  0  0  0  0
 39 40  2  0  0  0  0
 40 38  1  0  0  0  0
 40 35  1  0  0  0  0
 41 38  2  0  0  0  0
 42 43  1  0  0  0  0
 42 37  1  0  0  0  0
M  END
>  <MODEL>
5

>  <REMARK>
 VINA RESULT:      -8.2      3.004      9.294
  Name = 
  11 active torsions:
  status: ('A' for Active; 'I' for Inactive)
    1  A    between atoms: N_1  and  C_34
    2  A    between atoms: N_1  and  C_35
    3  A    between atoms: C_2  and  N_6
    4  A    between atoms: C_2  and  C_13
    5  A    between atoms: C_3  and  N_4
    6  A    between atoms: C_3  and  C_12
    7  A    between atoms: N_4  and  C_15
    8  A    between atoms: N_4  and  N_22
    9  A    between atoms: C_11  and  C_14
   10  A    between atoms: C_15  and  C_42
   11  A    between atoms: C_19  and  O_25
                            x       y       z     vdW  Elec       q    Type
                         _______ _______ _______ _____ _____    ______ ____

>  <TORSDO>
F 11

$$$$
=
 OpenBabel11052416213D

 43 47  0  0  1  0  0  0  0  0999 V2000
  194.2550  176.0080  135.3500 C   0  0  0  0  0  0  0  0  0  0  0  0
  190.8190  177.0750  138.9420 N   0  0  2  0  0  0  0  0  0  0  0  0
  188.4520  177.8690  137.7540 C   0  0  2  0  0  3  0  0  0  0  0  0
  193.1300  176.3980  137.4600 C   0  0  0  0  0  0  0  0  0  0  0  0
  193.0220  175.9440  134.7000 C   0  0  0  0  0  3  0  0  0  0  0  0
  195.4000  175.8440  134.6460 F   0  0  0  0  0  0  0  0  0  0  0  0
  191.8810  176.3770  136.8040 C   0  0  0  0  0  0  0  0  0  0  0  0
  194.3090  176.2320  136.7280 C   0  0  0  0  0  3  0  0  0  0  0  0
  191.8400  176.1190  135.4240 C   0  0  0  0  0  3  0  0  0  0  0  0
  189.5570  177.3300  136.8360 C   0  0  0  0  0  2  0  0  0  0  0  0
  190.5960  176.4960  137.6010 C   0  0  2  0  0  3  0  0  0  0  0  0
  191.8890  176.3300  139.6040 C   0  0  0  0  0  2  0  0  0  0  0  0
  189.6170  176.9410  139.7890 C   0  0  2  0  0  3  0  0  0  0  0  0
  188.2970  177.0070  139.0040 C   0  0  0  0  0  2  0  0  0  0  0  0
  193.2180  176.6480  138.9340 C   0  0  0  0  0  2  0  0  0  0  0  0
  187.1190  178.0410  137.0250 C   0  0  2  0  0  3  0  0  0  0  0  0
  187.0860  179.3200  136.1940 C   0  0  0  0  0  1  0  0  0  0  0  0
  186.0240  178.0350  137.9860 N   0  0  0  0  0  2  0  0  0  0  0  0
  184.7290  177.5110  137.6870 C   0  0  0  0  0  0  0  0  0  0  0  0
  184.4940  176.9800  136.5680 O   0  0  0  0  0  0  0  0  0  0  0  0
  183.6280  177.6160  138.7040 C   0  0  0  0  0  2  0  0  0  0  0  0
  183.5450  178.9310  139.3540 N   0  0  0  0  0  0  0  0  0  0  0  0
  184.7110  179.0230  141.5390 C   0  0  0  0  0  0  0  0  0  0  0  0
  183.5510  178.7510  140.7490 N   0  0  0  0  0  2  0  0  0  0  0  0
  185.7850  179.3730  140.9790 O   0  0  0  0  0  0  0  0  0  0  0  0
  184.6520  178.8870  143.0050 C   0  0  0  0  0  0  0  0  0  0  0  0
  183.4010  179.0030  145.0850 C   0  0  0  0  0  3  0  0  0  0  0  0
  185.7390  178.3760  145.1180 C   0  0  0  0  0  3  0  0  0  0  0  0
  184.5430  178.6240  145.7970 C   0  0  0  0  0  3  0  0  0  0  0  0
  185.7940  178.5070  143.7270 C   0  0  0  0  0  3  0  0  0  0  0  0
  183.4560  179.1340  143.6950 C   0  0  0  0  0  3  0  0  0  0  0  0
  182.2850  179.5700  138.9840 C   0  0  0  0  0  2  0  0  0  0  0  0
  179.9840  178.1950  139.5610 S   0  0  0  0  0  1  0  0  0  0  0  0
  181.2540  179.3840  140.0830 C   0  0  0  0  0  2  0  0  0  0  0  0
  189.6140  177.9920  140.8000 N   0  0  0  0  0  2  0  0  0  0  0  0
  189.9780  178.2880  144.5140 C   0  0  0  0  0  3  0  0  0  0  0  0
  189.2120  177.1930  144.9440 C   0  0  0  0  0  0  0  0  0  0  0  0
  188.7270  176.6460  142.6310 C   0  0  0  0  0  3  0  0  0  0  0  0
  190.1160  178.5590  143.1510 C   0  0  0  0  0  3  0  0  0  0  0  0
  189.4860  177.7400  142.2020 C   0  0  0  0  0  0  0  0  0  0  0  0
  188.5900  176.3760  143.9950 C   0  0  0  0  0  3  0  0  0  0  0  0
  189.0520  176.8980  146.3020 O   0  0  0  0  0  0  0  0  0  0  0  0
  189.0670  177.8970  147.3110 C   0  0  0  0  0  1  0  0  0  0  0  0
  1  8  1  0  0  0  0
  2 12  1  1  0  0  0
  2 13  1  0  0  0  0
  3 16  1  6  0  0  0
  3 14  1  0  0  0  0
  4 15  1  0  0  0  0
  5  1  2  0  0  0  0
  5  9  1  0  0  0  0
  6  1  1  0  0  0  0
  7  4  1  0  0  0  0
  7 11  1  0  0  0  0
  8  4  2  0  0  0  0
  9  7  2  0  0  0  0
 10  3  1  0  0  0  0
 11 10  1  6  0  0  0
 11  2  1  0  0  0  0
 13 35  1  1  0  0  0
 14 13  1  0  0  0  0
 15 12  1  0  0  0  0
 16 17  1  1  0  0  0
 16 18  1  0  0  0  0
 19 18  1  0  0  0  0
 19 21  1  0  0  0  0
 20 19  2  0  0  0  0
 21 22  1  0  0  0  0
 22 24  1  0  0  0  0
 23 26  1  0  0  0  0
 24 23  1  0  0  0  0
 25 23  2  0  0  0  0
 26 31  2  0  0  0  0
 26 30  1  0  0  0  0
 27 29  2  0  0  0  0
 28 29  1  0  0  0  0
 30 28  2  0  0  0  0
 31 27  1  0  0  0  0
 32 22  1  0  0  0  0
 32 34  1  0  0  0  0
 33 34  1  0  0  0  0
 35 40  1  0  0  0  0
 36 37  1  0  0  0  0
 37 42  1  0  0  0  0
 38 41  1  0  0  0  0
 39 36  2  0  0  0  0
 40 38  2  0  0  0  0
 40 39  1  0  0  0  0
 41 37  2  0  0  0  0
 42 43  1  0  0  0  0
M  END
>  <MODEL>
6

>  <REMARK>
 VINA RESULT:      -8.1      3.684      9.224
  Name = 
  11 active torsions:
  status: ('A' for Active; 'I' for Inactive)
    1  A    between atoms: N_1  and  C_34
    2  A    between atoms: N_1  and  C_35
    3  A    between atoms: C_2  and  N_6
    4  A    between atoms: C_2  and  C_13
    5  A    between atoms: C_3  and  N_4
    6  A    between atoms: C_3  and  C_12
    7  A    between atoms: N_4  and  C_15
    8  A    between atoms: N_4  and  N_22
    9  A    between atoms: C_11  and  C_14
   10  A    between atoms: C_15  and  C_42
   11  A    between atoms: C_19  and  O_25
                            x       y       z     vdW  Elec       q    Type
                         _______ _______ _______ _____ _____    ______ ____

>  <TORSDO>
F 11

$$$$
=
 OpenBabel11052416213D

 43 47  0  0  1  0  0  0  0  0999 V2000
  184.5030  171.8820  136.4190 C   0  0  0  0  0  0  0  0  0  0  0  0
  185.1770  176.7170  137.8370 N   0  0  2  0  0  0  0  0  0  0  0  0
  187.8820  177.2640  138.0100 C   0  0  2  0  0  3  0  0  0  0  0  0
  184.1660  174.1700  137.1420 C   0  0  0  0  0  0  0  0  0  0  0  0
  185.8110  172.1900  136.0420 C   0  0  0  0  0  3  0  0  0  0  0  0
  184.0270  170.6260  136.2470 F   0  0  0  0  0  0  0  0  0  0  0  0
  185.5010  174.4780  136.8030 C   0  0  0  0  0  0  0  0  0  0  0  0
  183.6820  172.8710  136.9650 C   0  0  0  0  0  3  0  0  0  0  0  0
  186.3060  173.4840  136.2240 C   0  0  0  0  0  3  0  0  0  0  0  0
  187.4720  175.9080  137.4210 C   0  0  0  0  0  2  0  0  0  0  0  0
  186.0140  175.8990  136.9350 C   0  0  2  0  0  3  0  0  0  0  0  0
  183.7820  176.6020  137.4170 C   0  0  0  0  0  2  0  0  0  0  0  0
  185.5350  178.1470  137.7490 C   0  0  2  0  0  3  0  0  0  0  0  0
  187.0230  178.3960  137.4540 C   0  0  0  0  0  2  0  0  0  0  0  0
  183.2670  175.2070  137.7410 C   0  0  0  0  0  2  0  0  0  0  0  0
  189.3730  177.5530  137.8290 C   0  0  2  0  0  3  0  0  0  0  0  0
  190.1450  176.3120  137.3920 C   0  0  0  0  0  1  0  0  0  0  0  0
  189.9290  178.0840  139.0660 N   0  0  0  0  0  2  0  0  0  0  0  0
  190.4740  177.2540  140.0940 C   0  0  0  0  0  0  0  0  0  0  0  0
  190.5360  176.0040  139.9430 O   0  0  0  0  0  0  0  0  0  0  0  0
  190.9530  177.8720  141.3770 C   0  0  0  0  0  2  0  0  0  0  0  0
  190.5880  177.1050  142.5770 N   0  0  0  0  0  0  0  0  0  0  0  0
  188.2920  176.9220  143.4940 C   0  0  0  0  0  0  0  0  0  0  0  0
  189.4520  177.6910  143.1630 N   0  0  0  0  0  2  0  0  0  0  0  0
  188.2470  175.6960  143.2000 O   0  0  0  0  0  0  0  0  0  0  0  0
  187.1520  177.5620  144.1700 C   0  0  0  0  0  0  0  0  0  0  0  0
  186.0880  178.3750  146.1990 C   0  0  0  0  0  3  0  0  0  0  0  0
  184.9510  178.5890  144.0730 C   0  0  0  0  0  3  0  0  0  0  0  0
  184.9780  178.7870  145.4560 C   0  0  0  0  0  3  0  0  0  0  0  0
  186.0340  177.9790  143.4320 C   0  0  0  0  0  3  0  0  0  0  0  0
  187.1700  177.7650  145.5590 C   0  0  0  0  0  3  0  0  0  0  0  0
  191.6830  177.1730  143.5410 C   0  0  0  0  0  2  0  0  0  0  0  0
  191.6830  176.4160  146.1760 S   0  0  0  0  0  1  0  0  0  0  0  0
  191.6880  175.9380  144.4240 C   0  0  0  0  0  2  0  0  0  0  0  0
  185.1870  178.8150  138.9980 N   0  0  0  0  0  2  0  0  0  0  0  0
  181.6320  179.9440  139.3190 C   0  0  0  0  0  3  0  0  0  0  0  0
  181.2240  179.2180  140.4480 C   0  0  0  0  0  0  0  0  0  0  0  0
  183.4390  178.2400  140.5990 C   0  0  0  0  0  3  0  0  0  0  0  0
  182.9370  179.8170  138.8340 C   0  0  0  0  0  3  0  0  0  0  0  0
  183.8460  178.9590  139.4710 C   0  0  0  0  0  0  0  0  0  0  0  0
  182.1350  178.3670  141.0840 C   0  0  0  0  0  3  0  0  0  0  0  0
  179.9250  179.3200  140.9550 O   0  0  0  0  0  0  0  0  0  0  0  0
  179.4980  178.6230  142.1180 C   0  0  0  0  0  1  0  0  0  0  0  0
  1  8  1  0  0  0  0
  2 12  1  6  0  0  0
  3 16  1  6  0  0  0
  4 15  1  0  0  0  0
  5  9  1  0  0  0  0
  5  1  2  0  0  0  0
  6  1  1  0  0  0  0
  7 11  1  0  0  0  0
  7  4  1  0  0  0  0
  8  4  2  0  0  0  0
  9  7  2  0  0  0  0
 10  3  1  0  0  0  0
 11 10  1  1  0  0  0
 11  2  1  0  0  0  0
 12 15  1  0  0  0  0
 13  2  1  0  0  0  0
 13 35  1  1  0  0  0
 14 13  1  0  0  0  0
 14  3  1  0  0  0  0
 16 17  1  1  0  0  0
 16 18  1  0  0  0  0
 18 19  1  0  0  0  0
 19 21  1  0  0  0  0
 20 19  2  0  0  0  0
 21 22  1  0  0  0  0
 22 24  1  0  0  0  0
 22 32  1  0  0  0  0
 23 26  1  0  0  0  0
 24 23  1  0  0  0  0
 25 23  2  0  0  0  0
 26 31  1  0  0  0  0
 28 29  2  0  0  0  0
 29 27  1  0  0  0  0
 30 28  1  0  0  0  0
 30 26  2  0  0  0  0
 31 27  2  0  0  0  0
 32 34  1  0  0  0  0
 34 33  1  0  0  0  0
 35 40  1  0  0  0  0
 36 37  1  0  0  0  0
 37 42  1  0  0  0  0
 37 41  2  0  0  0  0
 38 41  1  0  0  0  0
 39 36  2  0  0  0  0
 39 40  1  0  0  0  0
 40 38  2  0  0  0  0
 42 43  1  0  0  0  0
M  END
>  <MODEL>
7

>  <REMARK>
 VINA RESULT:      -8.0      3.523      6.326
  Name = 
  11 active torsions:
  status: ('A' for Active; 'I' for Inactive)
    1  A    between atoms: N_1  and  C_34
    2  A    between atoms: N_1  and  C_35
    3  A    between atoms: C_2  and  N_6
    4  A    between atoms: C_2  and  C_13
    5  A    between atoms: C_3  and  N_4
    6  A    between atoms: C_3  and  C_12
    7  A    between atoms: N_4  and  C_15
    8  A    between atoms: N_4  and  N_22
    9  A    between atoms: C_11  and  C_14
   10  A    between atoms: C_15  and  C_42
   11  A    between atoms: C_19  and  O_25
                            x       y       z     vdW  Elec       q    Type
                         _______ _______ _______ _____ _____    ______ ____

>  <TORSDO>
F 11

$$$$
=
 OpenBabel11052416213D

 43 47  0  0  1  0  0  0  0  0999 V2000
  190.7290  177.9010  144.2970 C   0  0  0  0  0  0  0  0  0  0  0  0
  190.8990  176.9060  139.3140 N   0  0  2  0  0  0  0  0  0  0  0  0
  188.3520  177.0680  138.2480 C   0  0  2  0  0  3  0  0  0  0  0  0
  191.4440  177.3070  142.0590 C   0  0  0  0  0  0  0  0  0  0  0  0
  189.5480  178.4390  143.7800 C   0  0  0  0  0  3  0  0  0  0  0  0
  190.9590  177.9320  145.6310 F   0  0  0  0  0  0  0  0  0  0  0  0
  190.2340  177.8110  141.5330 C   0  0  0  0  0  0  0  0  0  0  0  0
  191.6750  177.3390  143.4370 C   0  0  0  0  0  3  0  0  0  0  0  0
  189.3060  178.4030  142.4050 C   0  0  0  0  0  3  0  0  0  0  0  0
  188.5380  177.5130  139.7050 C   0  0  0  0  0  2  0  0  0  0  0  0
  190.0030  177.8350  140.0350 C   0  0  2  0  0  3  0  0  0  0  0  0
  192.2760  177.1620  139.7290 C   0  0  0  0  0  2  0  0  0  0  0  0
  190.8420  177.1330  137.8560 C   0  0  2  0  0  3  0  0  0  0  0  0
  189.4670  177.6050  137.3560 C   0  0  0  0  0  2  0  0  0  0  0  0
  192.4710  176.6880  141.1620 C   0  0  0  0  0  2  0  0  0  0  0  0
  186.9720  177.4310  137.6980 C   0  0  2  0  0  3  0  0  0  0  0  0
  187.0650  178.1520  136.3570 C   0  0  0  0  0  1  0  0  0  0  0  0
  186.2540  178.2520  138.6650 N   0  0  0  0  0  2  0  0  0  0  0  0
  184.8400  178.4530  138.6160 C   0  0  0  0  0  0  0  0  0  0  0  0
  184.1400  177.8770  137.7410 O   0  0  0  0  0  0  0  0  0  0  0  0
  184.1830  179.3810  139.6000 C   0  0  0  0  0  2  0  0  0  0  0  0
  183.4820  178.6880  140.6900 N   0  0  0  0  0  0  0  0  0  0  0  0
  183.9460  178.6520  143.1240 C   0  0  0  0  0  0  0  0  0  0  0  0
  184.3710  178.5160  141.7660 N   0  0  0  0  0  2  0  0  0  0  0  0
  182.7610  178.9990  143.3810 O   0  0  0  0  0  0  0  0  0  0  0  0
  184.8930  178.3950  144.2220 C   0  0  0  0  0  0  0  0  0  0  0  0
  186.8920  177.3020  145.0700 C   0  0  0  0  0  3  0  0  0  0  0  0
  185.6080  178.7570  146.5170 C   0  0  0  0  0  3  0  0  0  0  0  0
  186.7000  177.9090  146.3140 C   0  0  0  0  0  3  0  0  0  0  0  0
  184.7080  178.9990  145.4750 C   0  0  0  0  0  3  0  0  0  0  0  0
  185.9920  177.5440  144.0280 C   0  0  0  0  0  3  0  0  0  0  0  0
  183.0650  177.3670  140.2290 C   0  0  0  0  0  2  0  0  0  0  0  0
  181.0390  175.6820  139.4720 S   0  0  0  0  0  1  0  0  0  0  0  0
  181.5510  177.2930  140.1350 C   0  0  0  0  0  2  0  0  0  0  0  0
  191.1970  175.9020  137.1570 N   0  0  0  0  0  2  0  0  0  0  0  0
  194.3220  173.8440  137.2760 C   0  0  0  0  0  3  0  0  0  0  0  0
  195.2050  174.6610  136.5530 C   0  0  0  0  0  0  0  0  0  0  0  0
  193.4270  176.2820  136.2440 C   0  0  0  0  0  3  0  0  0  0  0  0
  192.9990  174.2460  137.4800 C   0  0  0  0  0  3  0  0  0  0  0  0
  192.5440  175.4660  136.9590 C   0  0  0  0  0  0  0  0  0  0  0  0
  194.7490  175.8800  136.0410 C   0  0  0  0  0  3  0  0  0  0  0  0
  196.5340  174.2860  136.3290 O   0  0  0  0  0  0  0  0  0  0  0  0
  197.5360  175.2130  135.9350 C   0  0  0  0  0  1  0  0  0  0  0  0
  1  6  1  0  0  0  0
  2 12  1  1  0  0  0
  2 11  1  0  0  0  0
  3 16  1  6  0  0  0
  3 10  1  0  0  0  0
  4  8  1  0  0  0  0
  5  1  1  0  0  0  0
  7  4  2  0  0  0  0
  7  9  1  0  0  0  0
  8  1  2  0  0  0  0
  9  5  2  0  0  0  0
 11 10  1  1  0  0  0
 11  7  1  0  0  0  0
 12 15  1  0  0  0  0
 13 35  1  6  0  0  0
 13  2  1  0  0  0  0
 14 13  1  0  0  0  0
 14  3  1  0  0  0  0
 15  4  1  0  0  0  0
 16 17  1  6  0  0  0
 16 18  1  0  0  0  0
 19 18  1  0  0  0  0
 19 21  1  0  0  0  0
 20 19  2  0  0  0  0
 21 22  1  0  0  0  0
 22 24  1  0  0  0  0
 23 25  2  0  0  0  0
 23 26  1  0  0  0  0
 24 23  1  0  0  0  0
 26 30  1  0  0  0  0
 27 29  2  0  0  0  0
 29 28  1  0  0  0  0
 30 28  2  0  0  0  0
 31 26  2  0  0  0  0
 31 27  1  0  0  0  0
 32 22  1  0  0  0  0
 33 34  1  0  0  0  0
 34 32  1  0  0  0  0
 36 39  1  0  0  0  0
 37 36  2  0  0  0  0
 38 40  1  0  0  0  0
 40 35  1  0  0  0  0
 40 39  2  0  0  0  0
 41 38  2  0  0  0  0
 41 37  1  0  0  0  0
 42 37  1  0  0  0  0
 43 42  1  0  0  0  0
M  END
>  <MODEL>
8

>  <REMARK>
 VINA RESULT:      -7.6      3.408      8.841
  Name = 
  11 active torsions:
  status: ('A' for Active; 'I' for Inactive)
    1  A    between atoms: N_1  and  C_34
    2  A    between atoms: N_1  and  C_35
    3  A    between atoms: C_2  and  N_6
    4  A    between atoms: C_2  and  C_13
    5  A    between atoms: C_3  and  N_4
    6  A    between atoms: C_3  and  C_12
    7  A    between atoms: N_4  and  C_15
    8  A    between atoms: N_4  and  N_22
    9  A    between atoms: C_11  and  C_14
   10  A    between atoms: C_15  and  C_42
   11  A    between atoms: C_19  and  O_25
                            x       y       z     vdW  Elec       q    Type
                         _______ _______ _______ _____ _____    ______ ____

>  <TORSDO>
F 11

$$$$
=
 OpenBabel11052416213D

 43 47  0  0  1  0  0  0  0  0999 V2000
  191.3860  176.6230  146.7500 C   0  0  0  0  0  0  0  0  0  0  0  0
  187.0560  177.9000  144.4130 N   0  0  2  0  0  0  0  0  0  0  0  0
  187.5820  178.5570  141.7800 C   0  0  2  0  0  3  0  0  0  0  0  0
  189.0770  177.1540  146.2440 C   0  0  0  0  0  0  0  0  0  0  0  0
  191.6580  176.4880  145.3880 C   0  0  0  0  0  3  0  0  0  0  0  0
  192.3710  176.4270  147.6590 F   0  0  0  0  0  0  0  0  0  0  0  0
  189.3530  177.0600  144.8630 C   0  0  0  0  0  0  0  0  0  0  0  0
  190.0980  176.9530  147.1770 C   0  0  0  0  0  3  0  0  0  0  0  0
  190.6450  176.6960  144.4480 C   0  0  0  0  0  3  0  0  0  0  0  0
  188.7350  177.9690  142.6050 C   0  0  0  0  0  2  0  0  0  0  0  0
  188.2370  177.2160  143.8480 C   0  0  2  0  0  3  0  0  0  0  0  0
  186.6720  177.2280  145.6530 C   0  0  0  0  0  2  0  0  0  0  0  0
  185.8980  177.8100  143.5010 C   0  0  2  0  0  3  0  0  0  0  0  0
  186.2830  177.7920  142.0130 C   0  0  0  0  0  2  0  0  0  0  0  0
  187.7080  177.5170  146.7290 C   0  0  0  0  0  2  0  0  0  0  0  0
  187.9180  178.6490  140.2900 C   0  0  2  0  0  3  0  0  0  0  0  0
  186.7430  178.2240  139.4150 C   0  0  0  0  0  1  0  0  0  0  0  0
  189.0890  177.8340  139.9950 N   0  0  0  0  0  2  0  0  0  0  0  0
  189.8060  177.9210  138.7630 C   0  0  0  0  0  0  0  0  0  0  0  0
  189.4720  178.7580  137.8830 O   0  0  0  0  0  0  0  0  0  0  0  0
  190.9550  176.9880  138.5000 C   0  0  0  0  0  2  0  0  0  0  0  0
  190.5540  175.5820  138.3500 N   0  0  0  0  0  0  0  0  0  0  0  0
  192.8550  175.1170  137.5530 C   0  0  0  0  0  0  0  0  0  0  0  0
  191.7080  174.7780  138.3380 N   0  0  0  0  0  2  0  0  0  0  0  0
  192.8230  176.1240  136.7960 O   0  0  0  0  0  0  0  0  0  0  0  0
  194.0680  174.2840  137.6240 C   0  0  0  0  0  0  0  0  0  0  0  0
  195.4180  172.4460  136.7820 C   0  0  0  0  0  3  0  0  0  0  0  0
  196.1940  173.7450  138.6710 C   0  0  0  0  0  3  0  0  0  0  0  0
  196.3820  172.7020  137.7610 C   0  0  0  0  0  3  0  0  0  0  0  0
  195.0410  174.5330  138.6040 C   0  0  0  0  0  3  0  0  0  0  0  0
  194.2650  173.2350  136.7140 C   0  0  0  0  0  3  0  0  0  0  0  0
  189.8690  175.4130  137.0720 C   0  0  0  0  0  2  0  0  0  0  0  0
  188.8170  173.7200  135.1880 S   0  0  0  0  0  1  0  0  0  0  0  0
  189.5190  173.9530  136.8480 C   0  0  0  0  0  2  0  0  0  0  0  0
  185.0010  178.9350  143.7390 N   0  0  0  0  0  2  0  0  0  0  0  0
  181.2640  179.0010  143.9580 C   0  0  0  0  0  3  0  0  0  0  0  0
  180.9170  178.9180  142.6010 C   0  0  0  0  0  0  0  0  0  0  0  0
  183.2720  178.8470  142.0210 C   0  0  0  0  0  3  0  0  0  0  0  0
  182.6080  179.0070  144.3420 C   0  0  0  0  0  3  0  0  0  0  0  0
  183.6190  178.9350  143.3730 C   0  0  0  0  0  0  0  0  0  0  0  0
  181.9280  178.8410  141.6370 C   0  0  0  0  0  3  0  0  0  0  0  0
  179.5820  178.9140  142.1840 O   0  0  0  0  0  0  0  0  0  0  0  0
  179.0850  178.0030  141.2140 C   0  0  0  0  0  1  0  0  0  0  0  0
  1  8  1  0  0  0  0
  1  6  1  0  0  0  0
  2 12  1  1  0  0  0
  3 16  1  6  0  0  0
  3 14  1  0  0  0  0
  3 10  1  0  0  0  0
  4 15  1  0  0  0  0
  4  8  2  0  0  0  0
  5  1  2  0  0  0  0
  7  4  1  0  0  0  0
  9  7  2  0  0  0  0
  9  5  1  0  0  0  0
 11 10  1  6  0  0  0
 11  2  1  0  0  0  0
 11  7  1  0  0  0  0
 12 15  1  0  0  0  0
 13 35  1  6  0  0  0
 13  2  1  0  0  0  0
 14 13  1  0  0  0  0
 16 17  1  6  0  0  0
 18 16  1  0  0  0  0
 19 18  1  0  0  0  0
 20 19  2  0  0  0  0
 21 19  1  0  0  0  0
 22 21  1  0  0  0  0
 23 26  1  0  0  0  0
 23 24  1  0  0  0  0
 24 22  1  0  0  0  0
 25 23  2  0  0  0  0
 26 30  1  0  0  0  0
 27 29  2  0  0  0  0
 29 28  1  0  0  0  0
 30 28  2  0  0  0  0
 31 27  1  0  0  0  0
 31 26  2  0  0  0  0
 32 22  1  0  0  0  0
 33 34  1  0  0  0  0
 34 32  1  0  0  0  0
 36 39  1  0  0  0  0
 37 36  2  0  0  0  0
 38 40  1  0  0  0  0
 40 35  1  0  0  0  0
 40 39  2  0  0  0  0
 41 38  2  0  0  0  0
 41 37  1  0  0  0  0
 42 37  1  0  0  0  0
 43 42  1  0  0  0  0
M  END
>  <MODEL>
9

>  <REMARK>
 VINA RESULT:      -7.6      3.228      5.389
  Name = 
  11 active torsions:
  status: ('A' for Active; 'I' for Inactive)
    1  A    between atoms: N_1  and  C_34
    2  A    between atoms: N_1  and  C_35
    3  A    between atoms: C_2  and  N_6
    4  A    between atoms: C_2  and  C_13
    5  A    between atoms: C_3  and  N_4
    6  A    between atoms: C_3  and  C_12
    7  A    between atoms: N_4  and  C_15
    8  A    between atoms: N_4  and  N_22
    9  A    between atoms: C_11  and  C_14
   10  A    between atoms: C_15  and  C_42
   11  A    between atoms: C_19  and  O_25
                            x       y       z     vdW  Elec       q    Type
                         _______ _______ _______ _____ _____    ______ ____

>  <TORSDO>
F 11

$$$$
