=
 OpenBabel11052416573D

 32 37  0  0  1  0  0  0  0  0999 V2000
  191.4870  177.2800  142.2780 O   0  0  0  0  0  0  0  0  0  0  0  0
  186.8240  178.5770  141.0890 C   0  0  0  0  0  0  0  0  0  0  0  0
  184.3500  178.5560  145.3340 N   0  0  0  0  0  0  0  0  0  0  0  0
  183.2810  178.8790  144.6650 C   0  0  0  0  0  3  0  0  0  0  0  0
  188.9020  177.0500  141.0260 C   0  0  2  0  0  3  0  0  0  0  0  0
  187.9820  177.9070  143.1890 O   0  0  0  0  0  0  0  0  0  0  0  0
  189.1390  175.8180  143.1770 C   0  0  0  0  0  1  0  0  0  0  0  0
  185.6380  178.2060  144.7230 C   0  0  0  0  0  3  0  0  0  0  0  0
  186.8120  178.3300  142.5440 C   0  0  0  0  0  0  0  0  0  0  0  0
  185.6770  178.4800  143.2410 C   0  0  0  0  0  0  0  0  0  0  0  0
  184.4770  178.8840  141.0840 N   0  0  0  0  0  0  0  0  0  0  0  0
  191.3790  177.3990  140.8820 C   0  0  0  0  0  2  0  0  0  0  0  0
  189.0740  177.2120  142.5620 C   0  0  1  0  0  0  0  0  0  0  0  0
  190.2000  176.5660  140.3740 C   0  0  0  0  0  2  0  0  0  0  0  0
  190.3920  177.9740  142.8310 C   0  0  1  0  0  3  0  0  0  0  0  0
  183.2930  178.9680  143.1980 C   0  0  0  0  0  3  0  0  0  0  0  0
  184.4280  178.7860  142.5180 C   0  0  2  0  0  3  0  0  0  0  0  0
  188.3870  178.6110  140.2400 S   0  0  0  0  0  0  0  0  0  0  0  0
  185.7250  178.8090  140.4340 N   0  0  0  0  0  0  0  0  0  0  0  0
  183.6150  179.8100  138.9690 C   0  0  0  0  0  2  0  0  0  0  0  0
  182.4580  178.0270  137.6020 C   0  0  1  0  0  3  0  0  0  0  0  0
  181.6120  177.8320  138.8700 C   0  0  1  0  0  3  0  0  0  0  0  0
  180.8880  176.6430  138.7650 O   0  0  0  0  0  1  0  0  0  0  0  0
  181.6650  178.7040  136.5910 N   0  0  0  0  0  1  0  0  0  0  0  0
  183.2690  179.1190  140.2970 C   0  0  1  0  0  3  0  0  0  0  0  0
  183.7630  178.7970  137.8380 C   0  0  0  0  0  2  0  0  0  0  0  0
  181.6730  177.6180  141.2600 O   0  0  0  0  0  1  0  0  0  0  0  0
  182.4740  177.8140  140.1340 C   0  0  1  0  0  3  0  0  0  0  0  0
  190.6230  178.2170  144.3190 C   0  0  0  0  0  2  0  0  0  0  0  0
  190.7000  176.8970  145.0620 C   0  0  0  0  0  3  0  0  0  0  0  0
  191.6260  177.0550  146.2500 C   0  0  0  0  0  2  0  0  0  0  0  0
  190.1260  177.0770  146.4520 C   0  0  0  0  0  2  0  0  0  0  0  0
  1 15  1  0  0  0  0
  2  9  1  0  0  0  0
  4  3  1  0  0  0  0
  5 14  1  6  0  0  0
  5 13  1  0  0  0  0
  8  3  2  0  0  0  0
  9  6  1  0  0  0  0
  9 10  2  0  0  0  0
 10  8  1  0  0  0  0
 11 17  1  0  0  0  0
 12  1  1  0  0  0  0
 13 15  1  0  0  0  0
 13  7  1  1  0  0  0
 13  6  1  0  0  0  0
 14 12  1  0  0  0  0
 15 29  1  1  0  0  0
 16  4  2  0  0  0  0
 17 16  1  1  0  0  0
 17 10  1  0  0  0  0
 18  5  1  0  0  0  0
 18  2  1  0  0  0  0
 19 11  1  0  0  0  0
 19  2  2  0  0  0  0
 21 24  1  6  0  0  0
 21 26  1  0  0  0  0
 21 22  1  0  0  0  0
 22 23  1  6  0  0  0
 22 28  1  0  0  0  0
 25 20  1  6  0  0  0
 25 11  1  0  0  0  0
 26 20  1  0  0  0  0
 28 25  1  0  0  0  0
 28 27  1  1  0  0  0
 29 30  1  0  0  0  0
 30 31  1  0  0  0  0
 30 32  1  0  0  0  0
 31 32  1  0  0  0  0
M  END
>  <MODEL>
1

>  <REMARK>
 VINA RESULT:      -8.8      0.000      0.000
  Name = 
  3 active torsions:
  status: ('A' for Active; 'I' for Inactive)
    1  A    between atoms: C_1  and  C_10
    2  A    between atoms: C_10  and  C_24
    3  A    between atoms: N_16  and  C_27
                            x       y       z     vdW  Elec       q    Type
                         _______ _______ _______ _____ _____    ______ ____

>  <TORSDO>
F 3

$$$$
=
 OpenBabel11052416573D

 32 37  0  0  1  0  0  0  0  0999 V2000
  189.5110  177.5100  146.1970 O   0  0  0  0  0  0  0  0  0  0  0  0
  189.0290  176.9240  141.2710 C   0  0  0  0  0  0  0  0  0  0  0  0
  193.6110  177.0220  139.5000 N   0  0  0  0  0  0  0  0  0  0  0  0
  193.1090  176.8860  138.3070 C   0  0  0  0  0  3  0  0  0  0  0  0
  188.6950  178.1590  143.5100 C   0  0  2  0  0  3  0  0  0  0  0  0
  190.9420  177.3060  142.8180 O   0  0  0  0  0  0  0  0  0  0  0  0
  190.8260  179.2170  144.2450 C   0  0  0  0  0  1  0  0  0  0  0  0
  192.8170  177.2330  140.7170 C   0  0  0  0  0  3  0  0  0  0  0  0
  190.4760  177.0830  141.5160 C   0  0  0  0  0  0  0  0  0  0  0  0
  191.3380  177.0450  140.4900 C   0  0  0  0  0  0  0  0  0  0  0  0
  189.3860  176.9360  138.9310 N   0  0  0  0  0  0  0  0  0  0  0  0
  188.1450  177.4900  145.8630 C   0  0  0  0  0  2  0  0  0  0  0  0
  190.1770  177.8840  143.8890 C   0  0  1  0  0  0  0  0  0  0  0  0
  187.8640  178.5030  144.7500 C   0  0  0  0  0  2  0  0  0  0  0  0
  190.2040  176.9370  145.1110 C   0  0  1  0  0  3  0  0  0  0  0  0
  191.6560  176.8840  138.0830 C   0  0  0  0  0  3  0  0  0  0  0  0
  190.8120  176.9530  139.1150 C   0  0  2  0  0  3  0  0  0  0  0  0
  187.9420  176.7310  142.6660 S   0  0  0  0  0  0  0  0  0  0  0  0
  188.5490  176.8810  140.0640 N   0  0  0  0  0  0  0  0  0  0  0  0
  188.8290  175.4910  137.0130 C   0  0  0  0  0  2  0  0  0  0  0  0
  186.3390  175.4760  136.5810 C   0  0  1  0  0  3  0  0  0  0  0  0
  186.5090  177.0010  136.4960 C   0  0  1  0  0  3  0  0  0  0  0  0
  185.2530  177.6090  136.5360 O   0  0  0  0  0  1  0  0  0  0  0  0
  186.1360  174.9370  135.2480 N   0  0  0  0  0  1  0  0  0  0  0  0
  188.7920  176.9120  137.5960 C   0  0  1  0  0  3  0  0  0  0  0  0
  187.5140  174.7570  137.2560 C   0  0  0  0  0  2  0  0  0  0  0  0
  187.5050  178.9290  137.5210 O   0  0  0  0  0  1  0  0  0  0  0  0
  187.3910  177.5420  137.6230 C   0  0  1  0  0  3  0  0  0  0  0  0
  191.6260  176.5770  145.5290 C   0  0  0  0  0  2  0  0  0  0  0  0
  191.7570  176.6220  147.0400 C   0  0  0  0  0  3  0  0  0  0  0  0
  191.3280  175.2860  147.6110 C   0  0  0  0  0  2  0  0  0  0  0  0
  192.7990  175.6140  147.4770 C   0  0  0  0  0  2  0  0  0  0  0  0
  2  9  1  0  0  0  0
  2 18  1  0  0  0  0
  3  8  2  0  0  0  0
  4  3  1  0  0  0  0
  5 13  1  0  0  0  0
  5 14  1  1  0  0  0
  6 13  1  0  0  0  0
  9  6  1  0  0  0  0
 10  8  1  0  0  0  0
 10  9  2  0  0  0  0
 11 17  1  0  0  0  0
 11 19  1  0  0  0  0
 12  1  1  0  0  0  0
 13  7  1  1  0  0  0
 13 15  1  0  0  0  0
 14 12  1  0  0  0  0
 15 29  1  1  0  0  0
 15  1  1  0  0  0  0
 16  4  2  0  0  0  0
 17 16  1  1  0  0  0
 17 10  1  0  0  0  0
 18  5  1  0  0  0  0
 19  2  2  0  0  0  0
 20 26  1  0  0  0  0
 21 24  1  6  0  0  0
 21 26  1  0  0  0  0
 22 23  1  1  0  0  0
 22 21  1  0  0  0  0
 22 28  1  0  0  0  0
 25 20  1  1  0  0  0
 25 28  1  0  0  0  0
 25 11  1  0  0  0  0
 28 27  1  6  0  0  0
 29 30  1  0  0  0  0
 30 32  1  0  0  0  0
 30 31  1  0  0  0  0
 32 31  1  0  0  0  0
M  END
>  <MODEL>
2

>  <REMARK>
 VINA RESULT:      -8.7      3.689      5.796
  Name = 
  3 active torsions:
  status: ('A' for Active; 'I' for Inactive)
    1  A    between atoms: C_1  and  C_10
    2  A    between atoms: C_10  and  C_24
    3  A    between atoms: N_16  and  C_27
                            x       y       z     vdW  Elec       q    Type
                         _______ _______ _______ _____ _____    ______ ____

>  <TORSDO>
F 3

$$$$
=
 OpenBabel11052416573D

 32 37  0  0  1  0  0  0  0  0999 V2000
  191.4040  177.4300  142.8370 O   0  0  0  0  0  0  0  0  0  0  0  0
  187.1900  178.4890  140.3960 C   0  0  0  0  0  0  0  0  0  0  0  0
  183.6790  178.5430  143.8320 N   0  0  0  0  0  0  0  0  0  0  0  0
  182.8180  178.7950  142.8910 C   0  0  0  0  0  3  0  0  0  0  0  0
  189.2520  177.0460  140.9600 C   0  0  2  0  0  3  0  0  0  0  0  0
  187.7670  177.9520  142.7570 O   0  0  0  0  0  0  0  0  0  0  0  0
  188.9440  175.9130  143.1560 C   0  0  0  0  0  1  0  0  0  0  0  0
  185.0930  178.2190  143.6020 C   0  0  0  0  0  3  0  0  0  0  0  0
  186.7990  178.3010  141.8060 C   0  0  0  0  0  0  0  0  0  0  0  0
  185.5160  178.4340  142.1700 C   0  0  0  0  0  0  0  0  0  0  0  0
  184.9210  178.7010  139.7560 N   0  0  0  0  0  0  0  0  0  0  0  0
  191.6680  177.4870  141.4570 C   0  0  0  0  0  2  0  0  0  0  0  0
  189.0050  177.2770  142.4770 C   0  0  1  0  0  0  0  0  0  0  0  0
  190.6900  176.5870  140.6990 C   0  0  0  0  0  2  0  0  0  0  0  0
  190.1830  178.1010  143.0460 C   0  0  1  0  0  3  0  0  0  0  0  0
  183.2170  178.8250  141.4760 C   0  0  0  0  0  3  0  0  0  0  0  0
  184.4960  178.6600  141.1290 C   0  0  2  0  0  3  0  0  0  0  0  0
  188.9210  178.5510  139.9890 S   0  0  0  0  0  0  0  0  0  0  0  0
  186.2990  178.6500  139.4630 N   0  0  0  0  0  0  0  0  0  0  0  0
  183.4480  177.4840  138.2000 C   0  0  0  0  0  2  0  0  0  0  0  0
  181.0300  178.1360  138.5400 C   0  0  1  0  0  3  0  0  0  0  0  0
  181.5500  179.5620  138.3030 C   0  0  1  0  0  3  0  0  0  0  0  0
  180.5690  180.4810  138.6780 O   0  0  0  0  0  1  0  0  0  0  0  0
  180.2940  177.6890  137.3710 N   0  0  0  0  0  1  0  0  0  0  0  0
  183.9590  178.8550  138.6670 C   0  0  1  0  0  3  0  0  0  0  0  0
  182.1300  177.1220  138.8770 C   0  0  0  0  0  2  0  0  0  0  0  0
  183.2740  181.1420  138.8440 O   0  0  0  0  0  1  0  0  0  0  0  0
  182.8450  179.8330  139.0720 C   0  0  1  0  0  3  0  0  0  0  0  0
  190.0040  178.4140  144.5280 C   0  0  0  0  0  2  0  0  0  0  0  0
  189.8950  177.1290  145.3270 C   0  0  0  0  0  3  0  0  0  0  0  0
  191.0230  177.0830  146.3370 C   0  0  0  0  0  2  0  0  0  0  0  0
  189.6280  177.4700  146.7780 C   0  0  0  0  0  2  0  0  0  0  0  0
  1 15  1  0  0  0  0
  2  9  1  0  0  0  0
  4  3  1  0  0  0  0
  5 14  1  1  0  0  0
  5 13  1  0  0  0  0
  8  3  2  0  0  0  0
  9 10  2  0  0  0  0
  9  6  1  0  0  0  0
 10  8  1  0  0  0  0
 11 17  1  0  0  0  0
 12  1  1  0  0  0  0
 13  6  1  0  0  0  0
 13 15  1  0  0  0  0
 13  7  1  1  0  0  0
 14 12  1  0  0  0  0
 15 29  1  1  0  0  0
 16  4  2  0  0  0  0
 17 16  1  1  0  0  0
 17 10  1  0  0  0  0
 18  2  1  0  0  0  0
 18  5  1  0  0  0  0
 19 11  1  0  0  0  0
 19  2  2  0  0  0  0
 20 26  1  0  0  0  0
 21 24  1  6  0  0  0
 21 26  1  0  0  0  0
 22 21  1  0  0  0  0
 22 23  1  1  0  0  0
 22 28  1  0  0  0  0
 25 20  1  1  0  0  0
 25 28  1  0  0  0  0
 25 11  1  0  0  0  0
 28 27  1  6  0  0  0
 29 30  1  0  0  0  0
 30 31  1  0  0  0  0
 30 32  1  0  0  0  0
 31 32  1  0  0  0  0
M  END
>  <MODEL>
3

>  <REMARK>
 VINA RESULT:      -8.6      1.399      1.666
  Name = 
  3 active torsions:
  status: ('A' for Active; 'I' for Inactive)
    1  A    between atoms: C_1  and  C_10
    2  A    between atoms: C_10  and  C_24
    3  A    between atoms: N_16  and  C_27
                            x       y       z     vdW  Elec       q    Type
                         _______ _______ _______ _____ _____    ______ ____

>  <TORSDO>
F 3

$$$$
=
 OpenBabel11052416573D

 32 37  0  0  1  0  0  0  0  0999 V2000
  181.4840  179.2140  140.8090 O   0  0  0  0  0  0  0  0  0  0  0  0
  186.3860  178.7420  141.5760 C   0  0  0  0  0  0  0  0  0  0  0  0
  188.3350  178.0540  137.1190 N   0  0  0  0  0  0  0  0  0  0  0  0
  189.4990  177.9520  137.6890 C   0  0  0  0  0  3  0  0  0  0  0  0
  183.9160  178.0370  141.8110 C   0  0  2  0  0  3  0  0  0  0  0  0
  184.8970  178.6170  139.5840 O   0  0  0  0  0  0  0  0  0  0  0  0
  183.0830  177.0670  139.6740 C   0  0  0  0  0  1  0  0  0  0  0  0
  187.0600  178.1480  137.8420 C   0  0  0  0  0  2  0  0  0  0  0  0
  186.1900  178.5740  140.1230 C   0  0  0  0  0  0  0  0  0  0  0  0
  187.2440  178.3490  139.3250 C   0  0  0  0  0  0  0  0  0  0  0  0
  188.6820  178.2080  141.3660 N   0  0  0  0  0  0  0  0  0  0  0  0
  181.7410  179.2230  142.1920 C   0  0  0  0  0  2  0  0  0  0  0  0
  183.6860  178.3200  140.3000 C   0  0  1  0  0  0  0  0  0  0  0  0
  182.5880  178.0080  142.5740 C   0  0  0  0  0  2  0  0  0  0  0  0
  182.7040  179.5060  140.1660 C   0  0  1  0  0  3  0  0  0  0  0  0
  189.6410  177.9710  139.1520 C   0  0  0  0  0  3  0  0  0  0  0  0
  188.5750  178.1660  139.9320 C   0  0  0  0  0  0  0  0  0  0  0  0
  185.0110  179.2810  142.5670 S   0  0  0  0  0  0  0  0  0  0  0  0
  187.5460  178.5450  142.1290 N   0  0  0  0  0  0  0  0  0  0  0  0
  190.0880  178.8660  143.2810 C   0  0  0  0  0  2  0  0  0  0  0  0
  190.5260  176.8970  144.8040 C   0  0  1  0  0  3  0  0  0  0  0  0
  191.0600  176.2340  143.5250 C   0  0  1  0  0  3  0  0  0  0  0  0
  191.2180  174.8650  143.7450 O   0  0  0  0  0  1  0  0  0  0  0  0
  191.6390  177.2560  145.6640 N   0  0  0  0  0  1  0  0  0  0  0  0
  189.9560  177.9690  142.0400 C   0  0  1  0  0  3  0  0  0  0  0  0
  189.6530  178.1320  144.5450 C   0  0  0  0  0  2  0  0  0  0  0  0
  190.6460  175.8390  141.1940 O   0  0  0  0  0  1  0  0  0  0  0  0
  190.1350  176.4710  142.3290 C   0  0  1  0  0  3  0  0  0  0  0  0
  182.4510  179.8840  138.7100 C   0  0  0  0  0  2  0  0  0  0  0  0
  181.0900  180.5370  138.5650 C   0  0  0  0  0  3  0  0  0  0  0  0
  181.2790  181.9750  138.1300 C   0  0  0  0  0  2  0  0  0  0  0  0
  180.8790  180.9250  137.1170 C   0  0  0  0  0  2  0  0  0  0  0  0
  1 12  1  0  0  0  0
  2 19  2  0  0  0  0
  2 18  1  0  0  0  0
  3  4  2  0  0  0  0
  3  8  1  0  0  0  0
  4 16  1  0  0  0  0
  5 18  1  0  0  0  0
  5 14  1  1  0  0  0
  6  9  1  0  0  0  0
  6 13  1  0  0  0  0
  8 10  1  0  0  0  0
  9  2  1  0  0  0  0
 10 17  1  0  0  0  0
 10  9  2  0  0  0  0
 11 19  1  0  0  0  0
 12 14  1  0  0  0  0
 13  7  1  6  0  0  0
 13  5  1  0  0  0  0
 15 29  1  6  0  0  0
 15 13  1  0  0  0  0
 15  1  1  0  0  0  0
 16 17  2  0  0  0  0
 17 11  1  0  0  0  0
 20 26  1  0  0  0  0
 21 24  1  1  0  0  0
 22 23  1  1  0  0  0
 22 21  1  0  0  0  0
 25 11  1  1  0  0  0
 25 28  1  0  0  0  0
 25 20  1  0  0  0  0
 26 21  1  0  0  0  0
 28 27  1  6  0  0  0
 28 22  1  0  0  0  0
 30 29  1  0  0  0  0
 31 30  1  0  0  0  0
 32 31  1  0  0  0  0
 32 30  1  0  0  0  0
M  END
>  <MODEL>
4

>  <REMARK>
 VINA RESULT:      -8.4      2.591      8.598
  Name = 
  3 active torsions:
  status: ('A' for Active; 'I' for Inactive)
    1  A    between atoms: C_1  and  C_10
    2  A    between atoms: C_10  and  C_24
    3  A    between atoms: N_16  and  C_27
                            x       y       z     vdW  Elec       q    Type
                         _______ _______ _______ _____ _____    ______ ____

>  <TORSDO>
F 3

$$$$
=
 OpenBabel11052416573D

 32 37  0  0  1  0  0  0  0  0999 V2000
  180.0030  178.3550  138.0580 O   0  0  0  0  0  0  0  0  0  0  0  0
  184.4270  178.2030  140.3490 C   0  0  0  0  0  0  0  0  0  0  0  0
  183.4410  178.8640  145.1160 N   0  0  0  0  0  0  0  0  0  0  0  0
  184.7200  178.8000  145.3480 C   0  0  0  0  0  3  0  0  0  0  0  0
  182.6820  179.1850  138.7240 C   0  0  2  0  0  3  0  0  0  0  0  0
  182.0800  178.5980  141.0800 O   0  0  0  0  0  0  0  0  0  0  0  0
  180.8770  180.3480  139.9870 C   0  0  0  0  0  1  0  0  0  0  0  0
  182.8390  178.8880  143.7780 C   0  0  0  0  0  3  0  0  0  0  0  0
  183.4350  178.4610  141.4100 C   0  0  0  0  0  0  0  0  0  0  0  0
  183.8340  178.5970  142.6830 C   0  0  0  0  0  0  0  0  0  0  0  0
  186.2030  178.4690  141.8910 N   0  0  0  0  0  0  0  0  0  0  0  0
  181.0220  178.2500  137.0950 C   0  0  0  0  0  2  0  0  0  0  0  0
  181.5720  179.0040  139.7980 C   0  0  1  0  0  0  0  0  0  0  0  0
  182.0750  179.3360  137.3260 C   0  0  0  0  0  2  0  0  0  0  0  0
  180.5620  177.9500  139.2870 C   0  0  1  0  0  3  0  0  0  0  0  0
  185.6930  178.6940  144.2510 C   0  0  0  0  0  3  0  0  0  0  0  0
  185.2780  178.5910  142.9860 C   0  0  2  0  0  3  0  0  0  0  0  0
  183.8470  177.7850  138.7200 S   0  0  0  0  0  0  0  0  0  0  0  0
  185.7030  178.2340  140.5940 N   0  0  0  0  0  0  0  0  0  0  0  0
  188.0210  177.8370  143.4310 C   0  0  0  0  0  2  0  0  0  0  0  0
  189.6710  176.2910  142.3010 C   0  0  1  0  0  3  0  0  0  0  0  0
  189.7690  177.4180  141.2620 C   0  0  1  0  0  3  0  0  0  0  0  0
  190.4260  176.9450  140.1260 O   0  0  0  0  0  1  0  0  0  0  0  0
  190.8740  176.2750  143.1140 N   0  0  0  0  0  1  0  0  0  0  0  0
  187.6470  178.5220  142.1070 C   0  0  1  0  0  3  0  0  0  0  0  0
  188.4360  176.3860  143.2070 C   0  0  0  0  0  2  0  0  0  0  0  0
  188.5230  178.9760  139.9270 O   0  0  0  0  0  1  0  0  0  0  0  0
  188.3920  177.9680  140.8830 C   0  0  1  0  0  3  0  0  0  0  0  0
  179.4560  177.6750  140.3000 C   0  0  0  0  0  2  0  0  0  0  0  0
  178.9310  176.2620  140.1340 C   0  0  0  0  0  3  0  0  0  0  0  0
  180.1040  175.3090  140.0390 C   0  0  0  0  0  2  0  0  0  0  0  0
  179.3370  175.4370  141.3380 C   0  0  0  0  0  2  0  0  0  0  0  0
  1 15  1  0  0  0  0
  2 19  2  0  0  0  0
  2  9  1  0  0  0  0
  3  4  1  0  0  0  0
  5 14  1  6  0  0  0
  5 13  1  0  0  0  0
  6  9  1  0  0  0  0
  8  3  2  0  0  0  0
  9 10  2  0  0  0  0
 10 17  1  0  0  0  0
 10  8  1  0  0  0  0
 11 17  1  0  0  0  0
 12 14  1  0  0  0  0
 12  1  1  0  0  0  0
 13  7  1  1  0  0  0
 13  6  1  0  0  0  0
 15 13  1  0  0  0  0
 15 29  1  1  0  0  0
 16  4  2  0  0  0  0
 17 16  1  1  0  0  0
 18  5  1  0  0  0  0
 18  2  1  0  0  0  0
 19 11  1  0  0  0  0
 21 24  1  1  0  0  0
 21 26  1  0  0  0  0
 22 23  1  6  0  0  0
 22 21  1  0  0  0  0
 25 11  1  6  0  0  0
 25 20  1  0  0  0  0
 26 20  1  0  0  0  0
 28 27  1  6  0  0  0
 28 22  1  0  0  0  0
 28 25  1  0  0  0  0
 30 29  1  0  0  0  0
 30 32  1  0  0  0  0
 31 30  1  0  0  0  0
 31 32  1  0  0  0  0
M  END
>  <MODEL>
5

>  <REMARK>
 VINA RESULT:      -8.0      2.282      7.904
  Name = 
  3 active torsions:
  status: ('A' for Active; 'I' for Inactive)
    1  A    between atoms: C_1  and  C_10
    2  A    between atoms: C_10  and  C_24
    3  A    between atoms: N_16  and  C_27
                            x       y       z     vdW  Elec       q    Type
                         _______ _______ _______ _____ _____    ______ ____

>  <TORSDO>
F 3

$$$$
=
 OpenBabel11052416573D

 32 37  0  0  1  0  0  0  0  0999 V2000
  190.6500  177.0910  145.9510 O   0  0  0  0  0  0  0  0  0  0  0  0
  188.9170  178.0000  141.3670 C   0  0  0  0  0  0  0  0  0  0  0  0
  184.1180  178.8770  141.9460 N   0  0  0  0  0  0  0  0  0  0  0  0
  184.0300  179.0220  140.6560 C   0  0  0  0  0  3  0  0  0  0  0  0
  189.9910  176.5380  143.2010 C   0  0  2  0  0  3  0  0  0  0  0  0
  187.8980  177.8370  143.6330 O   0  0  0  0  0  0  0  0  0  0  0  0
  188.2750  175.8200  144.8560 C   0  0  0  0  0  1  0  0  0  0  0  0
  185.3230  178.4240  142.6520 C   0  0  0  0  0  3  0  0  0  0  0  0
  187.7460  178.0830  142.2620 C   0  0  0  0  0  0  0  0  0  0  0  0
  186.5360  178.3620  141.7580 C   0  0  0  0  0  0  0  0  0  0  0  0
  187.5300  178.2530  139.4660 N   0  0  0  0  0  0  0  0  0  0  0  0
  191.6820  176.8940  145.0170 C   0  0  0  0  0  2  0  0  0  0  0  0
  188.9380  177.0410  144.2270 C   0  0  1  0  0  0  0  0  0  0  0  0
  191.2120  175.9460  143.9110 C   0  0  0  0  0  2  0  0  0  0  0  0
  189.6640  177.8690  145.3110 C   0  0  1  0  0  3  0  0  0  0  0  0
  185.1850  178.7830  139.7790 C   0  0  0  0  0  3  0  0  0  0  0  0
  186.3770  178.4750  140.2960 C   0  0  2  0  0  3  0  0  0  0  0  0
  190.5380  177.8750  142.0900 S   0  0  0  0  0  0  0  0  0  0  0  0
  188.7860  178.0600  140.0750 N   0  0  0  0  0  0  0  0  0  0  0  0
  188.6720  178.9600  137.4000 C   0  0  0  0  0  2  0  0  0  0  0  0
  189.1730  176.9760  135.9150 C   0  0  1  0  0  3  0  0  0  0  0  0
  187.6620  176.7190  136.0250 C   0  0  1  0  0  3  0  0  0  0  0  0
  187.3760  175.4370  135.5520 O   0  0  0  0  0  1  0  0  0  0  0  0
  189.4810  177.4930  134.5940 N   0  0  0  0  0  1  0  0  0  0  0  0
  187.4340  178.2830  138.0090 C   0  0  1  0  0  3  0  0  0  0  0  0
  189.7190  177.9310  136.9850 C   0  0  0  0  0  2  0  0  0  0  0  0
  185.7880  176.6160  137.5210 O   0  0  0  0  0  1  0  0  0  0  0  0
  187.1580  176.8740  137.4610 C   0  0  1  0  0  3  0  0  0  0  0  0
  188.6980  178.4420  146.3430 C   0  0  0  0  0  2  0  0  0  0  0  0
  189.0660  177.9590  147.7330 C   0  0  0  0  0  3  0  0  0  0  0  0
  188.0920  178.5490  148.7320 C   0  0  0  0  0  2  0  0  0  0  0  0
  187.9340  177.1140  148.2790 C   0  0  0  0  0  2  0  0  0  0  0  0
  2 18  1  0  0  0  0
  2  9  1  0  0  0  0
  3  8  2  0  0  0  0
  4  3  1  0  0  0  0
  5 14  1  1  0  0  0
  5 13  1  0  0  0  0
  6 13  1  0  0  0  0
  9  6  1  0  0  0  0
 10  9  2  0  0  0  0
 10  8  1  0  0  0  0
 11 19  1  0  0  0  0
 11 17  1  0  0  0  0
 12  1  1  0  0  0  0
 13  7  1  1  0  0  0
 13 15  1  0  0  0  0
 14 12  1  0  0  0  0
 15  1  1  0  0  0  0
 15 29  1  1  0  0  0
 16  4  2  0  0  0  0
 17 16  1  1  0  0  0
 17 10  1  0  0  0  0
 18  5  1  0  0  0  0
 19  2  2  0  0  0  0
 21 24  1  6  0  0  0
 21 22  1  0  0  0  0
 21 26  1  0  0  0  0
 22 23  1  1  0  0  0
 22 28  1  0  0  0  0
 25 20  1  6  0  0  0
 25 11  1  0  0  0  0
 26 20  1  0  0  0  0
 28 27  1  6  0  0  0
 28 25  1  0  0  0  0
 29 30  1  0  0  0  0
 30 32  1  0  0  0  0
 30 31  1  0  0  0  0
 32 31  1  0  0  0  0
M  END
>  <MODEL>
6

>  <REMARK>
 VINA RESULT:      -7.7      3.144      4.242
  Name = 
  3 active torsions:
  status: ('A' for Active; 'I' for Inactive)
    1  A    between atoms: C_1  and  C_10
    2  A    between atoms: C_10  and  C_24
    3  A    between atoms: N_16  and  C_27
                            x       y       z     vdW  Elec       q    Type
                         _______ _______ _______ _____ _____    ______ ____

>  <TORSDO>
F 3

$$$$
=
 OpenBabel11052416573D

 32 37  0  0  1  0  0  0  0  0999 V2000
  190.3870  175.1640  134.7820 O   0  0  0  0  0  0  0  0  0  0  0  0
  189.6350  176.7870  139.4350 C   0  0  0  0  0  0  0  0  0  0  0  0
  185.1610  178.8150  139.3930 N   0  0  0  0  0  0  0  0  0  0  0  0
  185.3310  179.1170  140.6470 C   0  0  0  0  0  3  0  0  0  0  0  0
  190.8370  176.7400  137.1530 C   0  0  2  0  0  3  0  0  0  0  0  0
  188.3440  176.8840  137.3080 O   0  0  0  0  0  0  0  0  0  0  0  0
  189.4360  177.8400  135.4110 C   0  0  0  0  0  1  0  0  0  0  0  0
  186.2000  178.2440  138.5270 C   0  0  0  0  0  2  0  0  0  0  0  0
  188.4290  177.1700  138.6770 C   0  0  0  0  0  0  0  0  0  0  0  0
  187.4290  177.8190  139.2910 C   0  0  0  0  0  0  0  0  0  0  0  0
  188.8540  177.9510  141.3420 N   0  0  0  0  0  0  0  0  0  0  0  0
  191.5540  174.9610  135.5390 C   0  0  0  0  0  2  0  0  0  0  0  0
  189.4640  176.7010  136.4250 C   0  0  1  0  0  0  0  0  0  0  0  0
  191.9630  176.2640  136.2310 C   0  0  0  0  0  2  0  0  0  0  0  0
  189.3320  175.3410  135.7000 C   0  0  1  0  0  3  0  0  0  0  0  0
  186.6050  178.8570  141.3320 C   0  0  0  0  0  3  0  0  0  0  0  0
  187.6010  178.2360  140.6950 C   0  0  0  0  0  0  0  0  0  0  0  0
  190.8270  175.7170  138.6600 S   0  0  0  0  0  0  0  0  0  0  0  0
  189.8180  177.1800  140.6600 N   0  0  0  0  0  0  0  0  0  0  0  0
  187.9330  178.0600  143.6250 C   0  0  0  0  0  2  0  0  0  0  0  0
  189.3910  176.7890  145.2530 C   0  0  1  0  0  3  0  0  0  0  0  0
  190.5030  177.7080  144.7230 C   0  0  1  0  0  3  0  0  0  0  0  0
  191.7430  177.2170  145.1350 O   0  0  0  0  0  1  0  0  0  0  0  0
  189.0120  177.2100  146.5900 N   0  0  0  0  0  1  0  0  0  0  0  0
  189.1210  178.3910  142.7090 C   0  0  1  0  0  3  0  0  0  0  0  0
  188.1480  176.7380  144.3550 C   0  0  0  0  0  2  0  0  0  0  0  0
  191.4990  178.6570  142.7570 O   0  0  0  0  0  1  0  0  0  0  0  0
  190.4650  177.8300  143.1990 C   0  0  1  0  0  3  0  0  0  0  0  0
  187.9900  175.1950  134.9900 C   0  0  0  0  0  2  0  0  0  0  0  0
  187.3400  173.8760  135.3600 C   0  0  0  0  0  3  0  0  0  0  0  0
  186.5640  174.0540  136.6480 C   0  0  0  0  0  2  0  0  0  0  0  0
  185.8340  174.0370  135.3220 C   0  0  0  0  0  2  0  0  0  0  0  0
  1 12  1  0  0  0  0
  1 15  1  0  0  0  0
  2 19  2  0  0  0  0
  3  4  2  0  0  0  0
  4 16  1  0  0  0  0
  5 14  1  6  0  0  0
  5 18  1  0  0  0  0
  6  9  1  0  0  0  0
  8 10  1  0  0  0  0
  8  3  1  0  0  0  0
  9 10  2  0  0  0  0
  9  2  1  0  0  0  0
 10 17  1  0  0  0  0
 12 14  1  0  0  0  0
 13  7  1  6  0  0  0
 13  5  1  0  0  0  0
 13  6  1  0  0  0  0
 15 29  1  6  0  0  0
 15 13  1  0  0  0  0
 17 16  2  0  0  0  0
 17 11  1  0  0  0  0
 18  2  1  0  0  0  0
 19 11  1  0  0  0  0
 20 26  1  0  0  0  0
 21 24  1  1  0  0  0
 22 23  1  6  0  0  0
 22 21  1  0  0  0  0
 25 11  1  6  0  0  0
 25 28  1  0  0  0  0
 25 20  1  0  0  0  0
 26 21  1  0  0  0  0
 28 27  1  1  0  0  0
 28 22  1  0  0  0  0
 29 30  1  0  0  0  0
 30 31  1  0  0  0  0
 32 30  1  0  0  0  0
 32 31  1  0  0  0  0
M  END
>  <MODEL>
7

>  <REMARK>
 VINA RESULT:      -7.6      3.869      7.746
  Name = 
  3 active torsions:
  status: ('A' for Active; 'I' for Inactive)
    1  A    between atoms: C_1  and  C_10
    2  A    between atoms: C_10  and  C_24
    3  A    between atoms: N_16  and  C_27
                            x       y       z     vdW  Elec       q    Type
                         _______ _______ _______ _____ _____    ______ ____

>  <TORSDO>
F 3

$$$$
=
 OpenBabel11052416573D

 32 37  0  0  1  0  0  0  0  0999 V2000
  189.4500  177.2030  145.6730 O   0  0  0  0  0  0  0  0  0  0  0  0
  190.8680  177.1070  140.8950 C   0  0  0  0  0  0  0  0  0  0  0  0
  186.8390  178.2460  138.3240 N   0  0  0  0  0  0  0  0  0  0  0  0
  187.5400  178.0980  137.2380 C   0  0  0  0  0  3  0  0  0  0  0  0
  190.4290  176.0640  143.2130 C   0  0  2  0  0  3  0  0  0  0  0  0
  188.7140  177.4930  142.0830 O   0  0  0  0  0  0  0  0  0  0  0  0
  187.9820  175.7950  143.5940 C   0  0  0  0  0  1  0  0  0  0  0  0
  187.3200  177.9260  139.6740 C   0  0  0  0  0  3  0  0  0  0  0  0
  189.4280  177.4270  140.8790 C   0  0  0  0  0  0  0  0  0  0  0  0
  188.7970  177.6240  139.7120 C   0  0  0  0  0  0  0  0  0  0  0  0
  190.9020  176.9670  138.5330 N   0  0  0  0  0  0  0  0  0  0  0  0
  190.7840  176.7660  145.5920 C   0  0  0  0  0  2  0  0  0  0  0  0
  189.0730  176.8190  143.3020 C   0  0  1  0  0  0  0  0  0  0  0  0
  190.8970  175.6080  144.5980 C   0  0  0  0  0  2  0  0  0  0  0  0
  189.1590  177.8480  144.4530 C   0  0  1  0  0  3  0  0  0  0  0  0
  188.9330  177.6290  137.2830 C   0  0  0  0  0  3  0  0  0  0  0  0
  189.5350  177.4090  138.4540 C   0  0  2  0  0  3  0  0  0  0  0  0
  191.7240  177.0960  142.4550 S   0  0  0  0  0  0  0  0  0  0  0  0
  191.5220  176.8760  139.7950 N   0  0  0  0  0  0  0  0  0  0  0  0
  193.1790  176.8240  137.6010 C   0  0  0  0  0  2  0  0  0  0  0  0
  193.6850  174.4820  136.7960 C   0  0  1  0  0  3  0  0  0  0  0  0
  192.4150  174.6710  135.9530 C   0  0  1  0  0  3  0  0  0  0  0  0
  192.0140  173.4380  135.4370 O   0  0  0  0  0  1  0  0  0  0  0  0
  194.8530  174.5630  135.9380 N   0  0  0  0  0  1  0  0  0  0  0  0
  191.6750  176.6700  137.3290 C   0  0  1  0  0  3  0  0  0  0  0  0
  193.8200  175.4840  137.9500 C   0  0  0  0  0  2  0  0  0  0  0  0
  190.1400  175.4360  135.9690 O   0  0  0  0  0  1  0  0  0  0  0  0
  191.2780  175.2970  136.7640 C   0  0  1  0  0  3  0  0  0  0  0  0
  187.8810  178.6700  144.5880 C   0  0  0  0  0  2  0  0  0  0  0  0
  186.8960  177.9640  145.4990 C   0  0  0  0  0  3  0  0  0  0  0  0
  186.0530  179.0030  146.2090 C   0  0  0  0  0  2  0  0  0  0  0  0
  185.4870  178.2520  145.0230 C   0  0  0  0  0  2  0  0  0  0  0  0
  2 18  1  0  0  0  0
  3  8  2  0  0  0  0
  4 16  2  0  0  0  0
  4  3  1  0  0  0  0
  5 13  1  0  0  0  0
  5 14  1  1  0  0  0
  6 13  1  0  0  0  0
  8 10  1  0  0  0  0
  9  2  1  0  0  0  0
  9  6  1  0  0  0  0
 10  9  2  0  0  0  0
 11 19  1  0  0  0  0
 12  1  1  0  0  0  0
 13  7  1  1  0  0  0
 13 15  1  0  0  0  0
 14 12  1  0  0  0  0
 15 29  1  1  0  0  0
 15  1  1  0  0  0  0
 17 16  1  1  0  0  0
 17 11  1  0  0  0  0
 17 10  1  0  0  0  0
 18  5  1  0  0  0  0
 19  2  2  0  0  0  0
 20 26  1  0  0  0  0
 21 24  1  6  0  0  0
 21 26  1  0  0  0  0
 22 23  1  1  0  0  0
 22 28  1  0  0  0  0
 22 21  1  0  0  0  0
 25 20  1  1  0  0  0
 25 11  1  0  0  0  0
 28 27  1  6  0  0  0
 28 25  1  0  0  0  0
 29 30  1  0  0  0  0
 30 31  1  0  0  0  0
 32 30  1  0  0  0  0
 32 31  1  0  0  0  0
M  END
>  <MODEL>
8

>  <REMARK>
 VINA RESULT:      -7.3      3.989      7.285
  Name = 
  3 active torsions:
  status: ('A' for Active; 'I' for Inactive)
    1  A    between atoms: C_1  and  C_10
    2  A    between atoms: C_10  and  C_24
    3  A    between atoms: N_16  and  C_27
                            x       y       z     vdW  Elec       q    Type
                         _______ _______ _______ _____ _____    ______ ____

>  <TORSDO>
F 3

$$$$
=
 OpenBabel11052416573D

 32 37  0  0  1  0  0  0  0  0999 V2000
  188.2210  176.9880  134.8070 O   0  0  0  0  0  0  0  0  0  0  0  0
  188.6880  177.2760  139.7610 C   0  0  0  0  0  0  0  0  0  0  0  0
  184.4850  179.2670  141.3460 N   0  0  0  0  0  0  0  0  0  0  0  0
  184.9630  179.2120  142.5550 C   0  0  0  0  0  3  0  0  0  0  0  0
  189.3210  177.8500  137.3280 C   0  0  2  0  0  3  0  0  0  0  0  0
  186.9500  177.9610  138.1160 O   0  0  0  0  0  0  0  0  0  0  0  0
  187.6390  179.3940  136.3340 C   0  0  0  0  0  1  0  0  0  0  0  0
  185.2510  178.9480  140.1340 C   0  0  0  0  0  2  0  0  0  0  0  0
  187.3700  177.8600  139.4490 C   0  0  0  0  0  0  0  0  0  0  0  0
  186.5890  178.3230  140.4360 C   0  0  0  0  0  0  0  0  0  0  0  0
  188.4570  177.8770  142.0390 N   0  0  0  0  0  0  0  0  0  0  0  0
  189.5130  176.5770  135.1770 C   0  0  0  0  0  2  0  0  0  0  0  0
  187.8180  178.0200  136.9710 C   0  0  1  0  0  0  0  0  0  0  0  0
  190.1660  177.6370  136.0680 C   0  0  0  0  0  2  0  0  0  0  0  0
  187.4230  176.9130  135.9670 C   0  0  1  0  0  3  0  0  0  0  0  0
  186.3390  178.7650  142.8160 C   0  0  0  0  0  3  0  0  0  0  0  0
  187.1120  178.3370  141.8150 C   0  0  0  0  0  0  0  0  0  0  0  0
  189.5870  176.4520  138.4650 S   0  0  0  0  0  0  0  0  0  0  0  0
  189.1770  177.3160  140.9650 N   0  0  0  0  0  0  0  0  0  0  0  0
  189.0960  176.5220  143.9960 C   0  0  0  0  0  2  0  0  0  0  0  0
  191.5890  176.6300  144.3990 C   0  0  1  0  0  3  0  0  0  0  0  0
  191.3530  178.1480  144.4360 C   0  0  1  0  0  3  0  0  0  0  0  0
  192.5810  178.8080  144.3620 O   0  0  0  0  0  1  0  0  0  0  0  0
  191.8300  176.1440  145.7460 N   0  0  0  0  0  1  0  0  0  0  0  0
  189.0640  177.9230  143.3670 C   0  0  1  0  0  3  0  0  0  0  0  0
  190.4400  175.8390  143.7610 C   0  0  0  0  0  2  0  0  0  0  0  0
  190.2620  179.9950  143.3610 O   0  0  0  0  0  1  0  0  0  0  0  0
  190.4370  178.6120  143.3030 C   0  0  1  0  0  3  0  0  0  0  0  0
  185.9460  176.9770  135.5910 C   0  0  0  0  0  2  0  0  0  0  0  0
  185.3150  175.6020  135.7070 C   0  0  0  0  0  3  0  0  0  0  0  0
  185.8600  174.9130  136.9400 C   0  0  0  0  0  2  0  0  0  0  0  0
  184.4850  175.5430  136.9730 C   0  0  0  0  0  2  0  0  0  0  0  0
  1 12  1  0  0  0  0
  1 15  1  0  0  0  0
  2 19  2  0  0  0  0
  3  4  2  0  0  0  0
  4 16  1  0  0  0  0
  5 14  1  6  0  0  0
  5 18  1  0  0  0  0
  6  9  1  0  0  0  0
  8 10  1  0  0  0  0
  8  3  1  0  0  0  0
  9  2  1  0  0  0  0
  9 10  2  0  0  0  0
 10 17  1  0  0  0  0
 12 14  1  0  0  0  0
 13  7  1  6  0  0  0
 13  5  1  0  0  0  0
 13  6  1  0  0  0  0
 15 29  1  6  0  0  0
 15 13  1  0  0  0  0
 17 11  1  0  0  0  0
 17 16  2  0  0  0  0
 18  2  1  0  0  0  0
 19 11  1  0  0  0  0
 21 22  1  0  0  0  0
 21 24  1  1  0  0  0
 22 23  1  6  0  0  0
 25 11  1  6  0  0  0
 25 20  1  0  0  0  0
 26 20  1  0  0  0  0
 26 21  1  0  0  0  0
 28 27  1  1  0  0  0
 28 25  1  0  0  0  0
 28 22  1  0  0  0  0
 29 30  1  0  0  0  0
 30 31  1  0  0  0  0
 30 32  1  0  0  0  0
 31 32  1  0  0  0  0
M  END
>  <MODEL>
9

>  <REMARK>
 VINA RESULT:      -7.1      3.541      7.693
  Name = 
  3 active torsions:
  status: ('A' for Active; 'I' for Inactive)
    1  A    between atoms: C_1  and  C_10
    2  A    between atoms: C_10  and  C_24
    3  A    between atoms: N_16  and  C_27
                            x       y       z     vdW  Elec       q    Type
                         _______ _______ _______ _____ _____    ______ ____

>  <TORSDO>
F 3

$$$$
