=
 OpenBabel11052413183D

 31 33  0  0  1  0  0  0  0  0999 V2000
  185.1040  178.4700  144.3960 C   0  0  0  0  0  0  0  0  0  0  0  0
  188.0950  176.5480  143.0740 C   0  0  0  0  0  2  0  0  0  0  0  0
  186.9930  177.5710  143.1730 C   0  0  0  0  0  0  0  0  0  0  0  0
  184.8780  179.3970  143.3760 C   0  0  0  0  0  3  0  0  0  0  0  0
  188.4420  177.3380  140.8030 N   0  0  0  0  0  0  0  0  0  0  0  0
  184.3040  178.4580  145.4880 F   0  0  0  0  0  0  0  0  0  0  0  0
  187.6620  178.5720  140.9350 C   0  0  0  0  0  2  0  0  0  0  0  0
  189.1460  176.9470  142.0360 C   0  0  1  0  0  3  0  0  0  0  0  0
  186.1580  177.5590  144.2940 C   0  0  0  0  0  3  0  0  0  0  0  0
  186.7520  178.4960  142.1300 C   0  0  0  0  0  0  0  0  0  0  0  0
  185.7020  179.4110  142.2470 C   0  0  0  0  0  3  0  0  0  0  0  0
  190.0200  178.0680  142.6060 C   0  0  0  0  0  2  0  0  0  0  0  0
  191.3030  177.5880  142.8710 O   0  0  0  0  0  0  0  0  0  0  0  0
  191.5350  177.9140  144.2070 C   0  0  0  0  0  2  0  0  0  0  0  0
  191.2470  176.7140  145.0970 C   0  0  0  0  0  2  0  0  0  0  0  0
  189.0380  176.9230  146.4220 C   0  0  1  0  0  3  0  0  0  0  0  0
  191.2320  177.0170  147.5920 O   0  0  0  0  0  1  0  0  0  0  0  0
  188.5150  176.7360  147.8370 C   0  0  0  0  0  1  0  0  0  0  0  0
  189.6290  178.3250  146.2860 C   0  0  0  0  0  2  0  0  0  0  0  0
  190.5440  177.1300  146.3800 C   0  0  1  0  0  0  0  0  0  0  0  0
  189.2100  177.2540  139.5500 C   0  0  0  0  0  2  0  0  0  0  0  0
  188.4620  176.7890  138.2890 C   0  0  2  0  0  3  0  0  0  0  0  0
  189.2980  175.9500  137.4200 C   0  0  0  0  0  0  0  0  0  0  0  0
  189.9800  175.2560  136.7080 C   0  0  0  0  0  3  0  0  0  0  0  0
  187.7380  177.9000  137.5330 C   0  0  0  0  0  2  0  0  0  0  0  0
  186.6580  177.3490  136.6090 C   0  0  0  0  0  2  0  0  0  0  0  0
  185.3020  177.4790  137.2230 C   0  0  0  0  0  3  0  0  0  0  0  0
  185.1490  178.0270  138.4280 C   0  0  0  0  0  3  0  0  0  0  0  0
  183.7950  178.1630  139.0390 C   0  0  0  0  0  2  0  0  0  0  0  0
  184.4390  180.4530  139.0500 O   0  0  0  0  0  1  0  0  0  0  0  0
  183.3330  179.6070  138.9840 C   0  0  0  0  0  2  0  0  0  0  0  0
  1  6  1  0  0  0  0
  2  3  1  0  0  0  0
  3  9  2  0  0  0  0
  4  1  2  0  0  0  0
  5  7  1  0  0  0  0
  5  8  1  0  0  0  0
  7 10  1  0  0  0  0
  8 12  1  1  0  0  0
  8  2  1  0  0  0  0
  9  1  1  0  0  0  0
 10 11  2  0  0  0  0
 10  3  1  0  0  0  0
 11  4  1  0  0  0  0
 12 13  1  0  0  0  0
 13 14  1  0  0  0  0
 14 15  1  0  0  0  0
 15 20  1  0  0  0  0
 16 18  1  1  0  0  0
 19 20  1  0  0  0  0
 19 16  1  0  0  0  0
 20 16  1  0  0  0  0
 20 17  1  1  0  0  0
 21  5  1  0  0  0  0
 22 23  1  6  0  0  0
 22 21  1  0  0  0  0
 24 23  3  0  0  0  0
 25 22  1  0  0  0  0
 26 27  1  0  0  0  0
 26 25  1  0  0  0  0
 27 28  2  0  0  0  0
 28 29  1  0  0  0  0
 31 29  1  0  0  0  0
 31 30  1  0  0  0  0
M  END
>  <MODEL>
1

>  <REMARK>
 VINA RESULT:      -7.0      0.000      0.000
  Name = 
  13 active torsions:
  status: ('A' for Active; 'I' for Inactive)
    1  A    between atoms: C_1  and  C_11
    2  A    between atoms: C_1  and  C_24
    3  A    between atoms: C_3  and  C_9
    4  A    between atoms: C_5  and  O_14
    5  A    between atoms: C_5  and  C_21
    6  A    between atoms: C_6  and  C_7
    7  A    between atoms: C_6  and  C_19
    8  A    between atoms: C_7  and  C_9
    9  A    between atoms: C_9  and  C_23
   10  A    between atoms: C_10  and  O_14
   11  A    between atoms: C_10  and  C_18
   12  A    between atoms: N_15  and  C_23
   13  A    between atoms: C_18  and  C_31
                            x       y       z     vdW  Elec       q    Type
                         _______ _______ _______ _____ _____    ______ ____

>  <TORSDO>
F 13

$$$$
=
 OpenBabel11052413183D

 31 33  0  0  1  0  0  0  0  0999 V2000
  191.9310  176.1450  146.6390 C   0  0  0  0  0  0  0  0  0  0  0  0
  189.7860  176.0320  143.5120 C   0  0  0  0  0  2  0  0  0  0  0  0
  190.2650  176.3880  144.8960 C   0  0  0  0  0  0  0  0  0  0  0  0
  191.1670  176.9480  147.4890 C   0  0  0  0  0  3  0  0  0  0  0  0
  187.6940  177.1160  144.1020 N   0  0  0  0  0  0  0  0  0  0  0  0
  193.1130  175.6420  147.0660 F   0  0  0  0  0  0  0  0  0  0  0  0
  188.1940  177.8070  145.2950 C   0  0  0  0  0  2  0  0  0  0  0  0
  188.6940  176.9880  143.0280 C   0  0  1  0  0  3  0  0  0  0  0  0
  191.4800  175.8640  145.3470 C   0  0  0  0  0  3  0  0  0  0  0  0
  189.4800  177.1840  145.7640 C   0  0  0  0  0  0  0  0  0  0  0  0
  189.9460  177.4690  147.0510 C   0  0  0  0  0  3  0  0  0  0  0  0
  189.3280  178.3260  142.6390 C   0  0  0  0  0  2  0  0  0  0  0  0
  188.8150  178.7610  141.4160 O   0  0  0  0  0  0  0  0  0  0  0  0
  188.7940  177.6190  140.6150 C   0  0  0  0  0  2  0  0  0  0  0  0
  189.4800  177.8980  139.2860 C   0  0  0  0  0  2  0  0  0  0  0  0
  188.7100  177.8010  136.8210 C   0  0  1  0  0  3  0  0  0  0  0  0
  187.1550  178.5670  138.6060 O   0  0  0  0  0  1  0  0  0  0  0  0
  187.4260  177.7180  136.0120 C   0  0  0  0  0  1  0  0  0  0  0  0
  189.0000  179.2630  137.1570 C   0  0  0  0  0  2  0  0  0  0  0  0
  188.4810  178.3340  138.2260 C   0  0  1  0  0  0  0  0  0  0  0  0
  186.3420  177.5360  143.6980 C   0  0  0  0  0  2  0  0  0  0  0  0
  185.7490  178.7780  144.3850 C   0  0  2  0  0  3  0  0  0  0  0  0
  185.2610  178.4870  145.7390 C   0  0  0  0  0  0  0  0  0  0  0  0
  184.8650  178.2530  146.8550 C   0  0  0  0  0  3  0  0  0  0  0  0
  184.7440  179.5540  143.5390 C   0  0  0  0  0  2  0  0  0  0  0  0
  183.4040  178.8330  143.4430 C   0  0  0  0  0  2  0  0  0  0  0  0
  183.0560  178.5240  142.0230 C   0  0  0  0  0  3  0  0  0  0  0  0
  183.9980  178.4940  141.0810 C   0  0  0  0  0  3  0  0  0  0  0  0
  183.6540  178.1790  139.6650 C   0  0  0  0  0  2  0  0  0  0  0  0
  184.3180  180.3690  139.0180 O   0  0  0  0  0  1  0  0  0  0  0  0
  183.2790  179.4450  138.9180 C   0  0  0  0  0  2  0  0  0  0  0  0
  1  6  1  0  0  0  0
  1  4  1  0  0  0  0
  2  3  1  0  0  0  0
  3  9  1  0  0  0  0
  3 10  2  0  0  0  0
  5  7  1  0  0  0  0
  7 10  1  0  0  0  0
  8 12  1  1  0  0  0
  8  2  1  0  0  0  0
  8  5  1  0  0  0  0
  9  1  2  0  0  0  0
 10 11  1  0  0  0  0
 11  4  2  0  0  0  0
 13 12  1  0  0  0  0
 14 13  1  0  0  0  0
 15 14  1  0  0  0  0
 16 18  1  6  0  0  0
 16 19  1  0  0  0  0
 16 20  1  0  0  0  0
 19 20  1  0  0  0  0
 20 17  1  1  0  0  0
 20 15  1  0  0  0  0
 21  5  1  0  0  0  0
 21 22  1  0  0  0  0
 22 25  1  6  0  0  0
 22 23  1  0  0  0  0
 23 24  3  0  0  0  0
 26 25  1  0  0  0  0
 27 26  1  0  0  0  0
 28 27  2  0  0  0  0
 29 28  1  0  0  0  0
 31 30  1  0  0  0  0
 31 29  1  0  0  0  0
M  END
>  <MODEL>
2

>  <REMARK>
 VINA RESULT:      -6.9      2.590      6.643
  Name = 
  13 active torsions:
  status: ('A' for Active; 'I' for Inactive)
    1  A    between atoms: C_1  and  C_11
    2  A    between atoms: C_1  and  C_24
    3  A    between atoms: C_3  and  C_9
    4  A    between atoms: C_5  and  O_14
    5  A    between atoms: C_5  and  C_21
    6  A    between atoms: C_6  and  C_7
    7  A    between atoms: C_6  and  C_19
    8  A    between atoms: C_7  and  C_9
    9  A    between atoms: C_9  and  C_23
   10  A    between atoms: C_10  and  O_14
   11  A    between atoms: C_10  and  C_18
   12  A    between atoms: N_15  and  C_23
   13  A    between atoms: C_18  and  C_31
                            x       y       z     vdW  Elec       q    Type
                         _______ _______ _______ _____ _____    ______ ____

>  <TORSDO>
F 13

$$$$
=
 OpenBabel11052413183D

 31 33  0  0  1  0  0  0  0  0999 V2000
  191.6760  176.3180  146.1260 C   0  0  0  0  0  0  0  0  0  0  0  0
  189.7690  178.6040  143.7740 C   0  0  0  0  0  2  0  0  0  0  0  0
  190.5490  177.4200  144.2850 C   0  0  0  0  0  0  0  0  0  0  0  0
  192.0680  175.2840  145.2740 C   0  0  0  0  0  3  0  0  0  0  0  0
  190.1050  177.6950  141.5470 N   0  0  0  0  0  0  0  0  0  0  0  0
  192.0240  176.2870  147.4340 F   0  0  0  0  0  0  0  0  0  0  0  0
  190.5380  176.3610  141.9750 C   0  0  0  0  0  2  0  0  0  0  0  0
  189.0980  178.3030  142.4330 C   0  0  1  0  0  3  0  0  0  0  0  0
  190.9200  177.3840  145.6320 C   0  0  0  0  0  3  0  0  0  0  0  0
  190.9640  176.3820  143.4170 C   0  0  0  0  0  0  0  0  0  0  0  0
  191.7100  175.3140  143.9240 C   0  0  0  0  0  3  0  0  0  0  0  0
  187.8830  177.4000  142.6650 C   0  0  0  0  0  2  0  0  0  0  0  0
  186.7050  178.1160  142.4500 O   0  0  0  0  0  0  0  0  0  0  0  0
  185.8700  177.7500  143.5060 C   0  0  0  0  0  2  0  0  0  0  0  0
  185.8020  178.8710  144.5320 C   0  0  0  0  0  2  0  0  0  0  0  0
  187.3960  178.2440  146.4680 C   0  0  1  0  0  3  0  0  0  0  0  0
  184.9690  178.6000  146.8880 O   0  0  0  0  0  1  0  0  0  0  0  0
  187.4700  178.3400  147.9830 C   0  0  0  0  0  1  0  0  0  0  0  0
  186.6210  176.9850  146.0820 C   0  0  0  0  0  2  0  0  0  0  0  0
  185.9700  178.3400  145.9470 C   0  0  1  0  0  0  0  0  0  0  0  0
  189.8610  177.8020  140.0990 C   0  0  0  0  0  2  0  0  0  0  0  0
  190.1390  176.5580  139.2380 C   0  0  2  0  0  3  0  0  0  0  0  0
  191.5120  176.5350  138.7160 C   0  0  0  0  0  0  0  0  0  0  0  0
  192.6410  176.5100  138.2920 C   0  0  0  0  0  3  0  0  0  0  0  0
  189.0860  176.2750  138.1700 C   0  0  0  0  0  2  0  0  0  0  0  0
  188.4580  177.5580  137.6370 C   0  0  0  0  0  2  0  0  0  0  0  0
  186.9700  177.4410  137.5610 C   0  0  0  0  0  3  0  0  0  0  0  0
  186.1880  178.1760  138.3520 C   0  0  0  0  0  3  0  0  0  0  0  0
  184.7020  178.0660  138.2730 C   0  0  0  0  0  2  0  0  0  0  0  0
  185.0020  179.6400  140.0300 O   0  0  0  0  0  1  0  0  0  0  0  0
  184.0470  179.0970  139.1720 C   0  0  0  0  0  2  0  0  0  0  0  0
  1  6  1  0  0  0  0
  2  3  1  0  0  0  0
  3  9  2  0  0  0  0
  4  1  2  0  0  0  0
  5  7  1  0  0  0  0
  5  8  1  0  0  0  0
  7 10  1  0  0  0  0
  8 12  1  1  0  0  0
  8  2  1  0  0  0  0
  9  1  1  0  0  0  0
 10 11  2  0  0  0  0
 10  3  1  0  0  0  0
 11  4  1  0  0  0  0
 13 12  1  0  0  0  0
 13 14  1  0  0  0  0
 14 15  1  0  0  0  0
 15 20  1  0  0  0  0
 16 18  1  1  0  0  0
 19 16  1  0  0  0  0
 20 19  1  0  0  0  0
 20 16  1  0  0  0  0
 20 17  1  1  0  0  0
 21  5  1  0  0  0  0
 22 25  1  6  0  0  0
 22 21  1  0  0  0  0
 23 22  1  0  0  0  0
 24 23  3  0  0  0  0
 26 25  1  0  0  0  0
 27 26  1  0  0  0  0
 27 28  2  0  0  0  0
 29 28  1  0  0  0  0
 29 31  1  0  0  0  0
 31 30  1  0  0  0  0
M  END
>  <MODEL>
3

>  <REMARK>
 VINA RESULT:      -6.6      2.519      4.228
  Name = 
  13 active torsions:
  status: ('A' for Active; 'I' for Inactive)
    1  A    between atoms: C_1  and  C_11
    2  A    between atoms: C_1  and  C_24
    3  A    between atoms: C_3  and  C_9
    4  A    between atoms: C_5  and  O_14
    5  A    between atoms: C_5  and  C_21
    6  A    between atoms: C_6  and  C_7
    7  A    between atoms: C_6  and  C_19
    8  A    between atoms: C_7  and  C_9
    9  A    between atoms: C_9  and  C_23
   10  A    between atoms: C_10  and  O_14
   11  A    between atoms: C_10  and  C_18
   12  A    between atoms: N_15  and  C_23
   13  A    between atoms: C_18  and  C_31
                            x       y       z     vdW  Elec       q    Type
                         _______ _______ _______ _____ _____    ______ ____

>  <TORSDO>
F 13

$$$$
=
 OpenBabel11052413183D

 31 33  0  0  1  0  0  0  0  0999 V2000
  185.1480  178.3270  143.6920 C   0  0  0  0  0  0  0  0  0  0  0  0
  188.3740  176.4770  142.9410 C   0  0  0  0  0  2  0  0  0  0  0  0
  187.2370  177.4600  142.8230 C   0  0  0  0  0  0  0  0  0  0  0  0
  185.0590  179.2100  142.6140 C   0  0  0  0  0  3  0  0  0  0  0  0
  189.0560  177.2040  140.7260 N   0  0  0  0  0  0  0  0  0  0  0  0
  184.1830  178.3190  144.6420 F   0  0  0  0  0  0  0  0  0  0  0  0
  188.2260  178.4120  140.6840 C   0  0  0  0  0  2  0  0  0  0  0  0
  189.5650  176.8820  142.0700 C   0  0  1  0  0  3  0  0  0  0  0  0
  186.2330  177.4530  143.7950 C   0  0  0  0  0  3  0  0  0  0  0  0
  187.1370  178.3400  141.7200 C   0  0  0  0  0  0  0  0  0  0  0  0
  186.0530  179.2180  141.6320 C   0  0  0  0  0  3  0  0  0  0  0  0
  190.2990  178.0540  142.7280 C   0  0  0  0  0  2  0  0  0  0  0  0
  191.4870  177.6090  143.3090 O   0  0  0  0  0  0  0  0  0  0  0  0
  191.4390  178.0810  144.6210 C   0  0  0  0  0  2  0  0  0  0  0  0
  190.9410  176.9860  145.5530 C   0  0  0  0  0  2  0  0  0  0  0  0
  189.8940  177.4700  147.8660 C   0  0  1  0  0  3  0  0  0  0  0  0
  188.8770  178.4000  145.7940 O   0  0  0  0  0  1  0  0  0  0  0  0
  188.9810  178.4860  148.5340 C   0  0  0  0  0  1  0  0  0  0  0  0
  189.0430  176.3970  147.1900 C   0  0  0  0  0  2  0  0  0  0  0  0
  189.7330  177.4470  146.3550 C   0  0  1  0  0  0  0  0  0  0  0  0
  190.0180  177.1090  139.6150 C   0  0  0  0  0  2  0  0  0  0  0  0
  189.5360  176.4500  138.3120 C   0  0  2  0  0  3  0  0  0  0  0  0
  190.4910  175.4580  137.8000 C   0  0  0  0  0  0  0  0  0  0  0  0
  191.2770  174.6490  137.3750 C   0  0  0  0  0  3  0  0  0  0  0  0
  189.0560  177.4290  137.2440 C   0  0  0  0  0  2  0  0  0  0  0  0
  187.5360  177.5320  137.2080 C   0  0  0  0  0  2  0  0  0  0  0  0
  186.9010  176.1790  137.2170 C   0  0  0  0  0  3  0  0  0  0  0  0
  186.6500  175.5370  136.0760 C   0  0  0  0  0  3  0  0  0  0  0  0
  186.0220  174.1840  136.0830 C   0  0  0  0  0  2  0  0  0  0  0  0
  185.2040  172.9420  137.9380 O   0  0  0  0  0  1  0  0  0  0  0  0
  186.3680  173.4470  137.3630 C   0  0  0  0  0  2  0  0  0  0  0  0
  1  9  1  0  0  0  0
  1  6  1  0  0  0  0
  3  2  1  0  0  0  0
  3  9  2  0  0  0  0
  4  1  2  0  0  0  0
  5  8  1  0  0  0  0
  7  5  1  0  0  0  0
  7 10  1  0  0  0  0
  8 12  1  1  0  0  0
  8  2  1  0  0  0  0
 10  3  1  0  0  0  0
 11 10  2  0  0  0  0
 11  4  1  0  0  0  0
 12 13  1  0  0  0  0
 13 14  1  0  0  0  0
 14 15  1  0  0  0  0
 15 20  1  0  0  0  0
 16 18  1  1  0  0  0
 19 16  1  0  0  0  0
 20 17  1  6  0  0  0
 20 19  1  0  0  0  0
 20 16  1  0  0  0  0
 21  5  1  0  0  0  0
 22 25  1  6  0  0  0
 22 21  1  0  0  0  0
 23 22  1  0  0  0  0
 24 23  3  0  0  0  0
 26 27  1  0  0  0  0
 26 25  1  0  0  0  0
 28 29  1  0  0  0  0
 28 27  2  0  0  0  0
 29 31  1  0  0  0  0
 31 30  1  0  0  0  0
M  END
>  <MODEL>
4

>  <REMARK>
 VINA RESULT:      -6.5      1.987      2.500
  Name = 
  13 active torsions:
  status: ('A' for Active; 'I' for Inactive)
    1  A    between atoms: C_1  and  C_11
    2  A    between atoms: C_1  and  C_24
    3  A    between atoms: C_3  and  C_9
    4  A    between atoms: C_5  and  O_14
    5  A    between atoms: C_5  and  C_21
    6  A    between atoms: C_6  and  C_7
    7  A    between atoms: C_6  and  C_19
    8  A    between atoms: C_7  and  C_9
    9  A    between atoms: C_9  and  C_23
   10  A    between atoms: C_10  and  O_14
   11  A    between atoms: C_10  and  C_18
   12  A    between atoms: N_15  and  C_23
   13  A    between atoms: C_18  and  C_31
                            x       y       z     vdW  Elec       q    Type
                         _______ _______ _______ _____ _____    ______ ____

>  <TORSDO>
F 13

$$$$
=
 OpenBabel11052413183D

 31 33  0  0  1  0  0  0  0  0999 V2000
  191.5770  176.5570  145.3180 C   0  0  0  0  0  0  0  0  0  0  0  0
  189.7250  175.9550  142.0630 C   0  0  0  0  0  2  0  0  0  0  0  0
  190.2620  176.6540  143.2850 C   0  0  0  0  0  0  0  0  0  0  0  0
  191.2270  177.8760  145.6140 C   0  0  0  0  0  3  0  0  0  0  0  0
  188.3250  177.9100  141.7230 N   0  0  0  0  0  0  0  0  0  0  0  0
  192.3900  175.8690  146.1540 F   0  0  0  0  0  0  0  0  0  0  0  0
  189.0390  178.7910  142.6540 C   0  0  0  0  0  2  0  0  0  0  0  0
  189.1980  176.9500  141.0280 C   0  0  1  0  0  3  0  0  0  0  0  0
  191.0950  175.9470  144.1580 C   0  0  0  0  0  3  0  0  0  0  0  0
  189.8900  177.9830  143.5960 C   0  0  0  0  0  0  0  0  0  0  0  0
  190.3870  178.5880  144.7530 C   0  0  0  0  0  3  0  0  0  0  0  0
  190.3800  177.6200  140.3210 C   0  0  0  0  0  2  0  0  0  0  0  0
  190.8690  176.7890  139.3130 O   0  0  0  0  0  0  0  0  0  0  0  0
  189.7880  176.6070  138.4490 C   0  0  0  0  0  2  0  0  0  0  0  0
  189.6330  177.8200  137.5440 C   0  0  0  0  0  2  0  0  0  0  0  0
  187.3350  176.7180  137.1110 C   0  0  1  0  0  3  0  0  0  0  0  0
  187.5520  179.1940  137.2320 O   0  0  0  0  0  1  0  0  0  0  0  0
  185.8540  177.0390  137.2400 C   0  0  0  0  0  1  0  0  0  0  0  0
  187.8500  177.2520  135.7740 C   0  0  0  0  0  2  0  0  0  0  0  0
  188.2000  177.9680  137.0560 C   0  0  1  0  0  0  0  0  0  0  0  0
  187.3220  178.6080  140.9010 C   0  0  0  0  0  2  0  0  0  0  0  0
  185.8510  178.5100  141.3400 C   0  0  2  0  0  3  0  0  0  0  0  0
  184.9270  179.0100  140.3130 C   0  0  0  0  0  0  0  0  0  0  0  0
  184.1630  179.4160  139.4730 C   0  0  0  0  0  3  0  0  0  0  0  0
  185.5630  179.0700  142.7300 C   0  0  0  0  0  2  0  0  0  0  0  0
  185.5330  177.9740  143.7900 C   0  0  0  0  0  2  0  0  0  0  0  0
  186.0730  178.4660  145.0930 C   0  0  0  0  0  3  0  0  0  0  0  0
  186.5970  177.6180  145.9780 C   0  0  0  0  0  3  0  0  0  0  0  0
  187.1420  178.1090  147.2770 C   0  0  0  0  0  2  0  0  0  0  0  0
  189.1800  178.0720  148.5010 O   0  0  0  0  0  1  0  0  0  0  0  0
  188.3620  177.3010  147.6770 C   0  0  0  0  0  2  0  0  0  0  0  0
  1  4  1  0  0  0  0
  1  6  1  0  0  0  0
  2  3  1  0  0  0  0
  3 10  2  0  0  0  0
  3  9  1  0  0  0  0
  5  7  1  0  0  0  0
  7 10  1  0  0  0  0
  8 12  1  1  0  0  0
  8  5  1  0  0  0  0
  8  2  1  0  0  0  0
  9  1  2  0  0  0  0
 10 11  1  0  0  0  0
 11  4  2  0  0  0  0
 13 12  1  0  0  0  0
 14 13  1  0  0  0  0
 15 14  1  0  0  0  0
 16 18  1  6  0  0  0
 19 20  1  0  0  0  0
 19 16  1  0  0  0  0
 20 16  1  0  0  0  0
 20 17  1  1  0  0  0
 20 15  1  0  0  0  0
 21 22  1  0  0  0  0
 21  5  1  0  0  0  0
 22 23  1  6  0  0  0
 22 25  1  0  0  0  0
 24 23  3  0  0  0  0
 25 26  1  0  0  0  0
 26 27  1  0  0  0  0
 27 28  2  0  0  0  0
 28 29  1  0  0  0  0
 29 31  1  0  0  0  0
 31 30  1  0  0  0  0
M  END
>  <MODEL>
5

>  <REMARK>
 VINA RESULT:      -6.5      2.191      7.075
  Name = 
  13 active torsions:
  status: ('A' for Active; 'I' for Inactive)
    1  A    between atoms: C_1  and  C_11
    2  A    between atoms: C_1  and  C_24
    3  A    between atoms: C_3  and  C_9
    4  A    between atoms: C_5  and  O_14
    5  A    between atoms: C_5  and  C_21
    6  A    between atoms: C_6  and  C_7
    7  A    between atoms: C_6  and  C_19
    8  A    between atoms: C_7  and  C_9
    9  A    between atoms: C_9  and  C_23
   10  A    between atoms: C_10  and  O_14
   11  A    between atoms: C_10  and  C_18
   12  A    between atoms: N_15  and  C_23
   13  A    between atoms: C_18  and  C_31
                            x       y       z     vdW  Elec       q    Type
                         _______ _______ _______ _____ _____    ______ ____

>  <TORSDO>
F 13

$$$$
=
 OpenBabel11052413183D

 31 33  0  0  1  0  0  0  0  0999 V2000
  192.1270  175.8220  146.7050 C   0  0  0  0  0  0  0  0  0  0  0  0
  189.9250  178.1970  144.7300 C   0  0  0  0  0  2  0  0  0  0  0  0
  190.7780  177.0030  145.0760 C   0  0  0  0  0  0  0  0  0  0  0  0
  192.4360  174.8490  145.7520 C   0  0  0  0  0  3  0  0  0  0  0  0
  190.0180  177.4310  142.4270 N   0  0  0  0  0  0  0  0  0  0  0  0
  192.6230  175.7210  147.9610 F   0  0  0  0  0  0  0  0  0  0  0  0
  190.5210  176.0840  142.7200 C   0  0  0  0  0  2  0  0  0  0  0  0
  189.1090  177.9610  143.4580 C   0  0  1  0  0  3  0  0  0  0  0  0
  191.3010  176.8970  146.3670 C   0  0  0  0  0  3  0  0  0  0  0  0
  191.1080  176.0300  144.1040 C   0  0  0  0  0  0  0  0  0  0  0  0
  191.9260  174.9520  144.4550 C   0  0  0  0  0  3  0  0  0  0  0  0
  187.9450  177.0160  143.7700 C   0  0  0  0  0  2  0  0  0  0  0  0
  187.7200  176.9720  145.1460 O   0  0  0  0  0  0  0  0  0  0  0  0
  186.7080  177.9070  145.3700 C   0  0  0  0  0  2  0  0  0  0  0  0
  185.7460  177.9280  144.1920 C   0  0  0  0  0  2  0  0  0  0  0  0
  183.3610  178.6420  143.4960 C   0  0  1  0  0  3  0  0  0  0  0  0
  184.1010  178.8320  145.8640 O   0  0  0  0  0  1  0  0  0  0  0  0
  181.9880  178.8520  144.1150 C   0  0  0  0  0  1  0  0  0  0  0  0
  184.1900  179.9140  143.6710 C   0  0  0  0  0  2  0  0  0  0  0  0
  184.4790  178.7030  144.5240 C   0  0  1  0  0  0  0  0  0  0  0  0
  189.6090  177.6180  141.0260 C   0  0  0  0  0  2  0  0  0  0  0  0
  190.3230  176.7720  139.9580 C   0  0  2  0  0  3  0  0  0  0  0  0
  191.7390  177.1340  139.8130 C   0  0  0  0  0  0  0  0  0  0  0  0
  192.9030  177.4240  139.6920 C   0  0  0  0  0  3  0  0  0  0  0  0
  189.5880  176.6790  138.6240 C   0  0  0  0  0  2  0  0  0  0  0  0
  189.2890  178.0560  138.0420 C   0  0  0  0  0  2  0  0  0  0  0  0
  187.8560  178.1730  137.6350 C   0  0  0  0  0  3  0  0  0  0  0  0
  186.8890  178.2210  138.5520 C   0  0  0  0  0  3  0  0  0  0  0  0
  185.4590  178.3440  138.1480 C   0  0  0  0  0  2  0  0  0  0  0  0
  185.3040  179.3750  140.2860 O   0  0  0  0  0  1  0  0  0  0  0  0
  184.5890  178.6170  139.3610 C   0  0  0  0  0  2  0  0  0  0  0  0
  1  6  1  0  0  0  0
  2  3  1  0  0  0  0
  3  9  2  0  0  0  0
  4  1  2  0  0  0  0
  5  7  1  0  0  0  0
  5  8  1  0  0  0  0
  7 10  1  0  0  0  0
  8 12  1  1  0  0  0
  8  2  1  0  0  0  0
  9  1  1  0  0  0  0
 10 11  2  0  0  0  0
 10  3  1  0  0  0  0
 11  4  1  0  0  0  0
 12 13  1  0  0  0  0
 13 14  1  0  0  0  0
 15 20  1  0  0  0  0
 15 14  1  0  0  0  0
 16 19  1  0  0  0  0
 16 18  1  1  0  0  0
 16 20  1  0  0  0  0
 19 20  1  0  0  0  0
 20 17  1  1  0  0  0
 21  5  1  0  0  0  0
 22 25  1  6  0  0  0
 22 21  1  0  0  0  0
 23 22  1  0  0  0  0
 24 23  3  0  0  0  0
 26 25  1  0  0  0  0
 27 26  1  0  0  0  0
 27 28  2  0  0  0  0
 29 28  1  0  0  0  0
 29 31  1  0  0  0  0
 31 30  1  0  0  0  0
M  END
>  <MODEL>
6

>  <REMARK>
 VINA RESULT:      -6.5      2.714      5.111
  Name = 
  13 active torsions:
  status: ('A' for Active; 'I' for Inactive)
    1  A    between atoms: C_1  and  C_11
    2  A    between atoms: C_1  and  C_24
    3  A    between atoms: C_3  and  C_9
    4  A    between atoms: C_5  and  O_14
    5  A    between atoms: C_5  and  C_21
    6  A    between atoms: C_6  and  C_7
    7  A    between atoms: C_6  and  C_19
    8  A    between atoms: C_7  and  C_9
    9  A    between atoms: C_9  and  C_23
   10  A    between atoms: C_10  and  O_14
   11  A    between atoms: C_10  and  C_18
   12  A    between atoms: N_15  and  C_23
   13  A    between atoms: C_18  and  C_31
                            x       y       z     vdW  Elec       q    Type
                         _______ _______ _______ _____ _____    ______ ____

>  <TORSDO>
F 13

$$$$
=
 OpenBabel11052413183D

 31 33  0  0  1  0  0  0  0  0999 V2000
  185.7040  178.4000  146.5650 C   0  0  0  0  0  0  0  0  0  0  0  0
  184.9630  179.7000  143.0790 C   0  0  0  0  0  2  0  0  0  0  0  0
  185.5430  178.8670  144.1920 C   0  0  0  0  0  0  0  0  0  0  0  0
  186.6490  177.4030  146.3100 C   0  0  0  0  0  3  0  0  0  0  0  0
  186.5600  178.6090  141.6090 N   0  0  0  0  0  0  0  0  0  0  0  0
  185.3160  178.6560  147.8360 F   0  0  0  0  0  0  0  0  0  0  0  0
  186.9190  177.5250  142.5290 C   0  0  0  0  0  2  0  0  0  0  0  0
  185.1540  179.0340  141.7150 C   0  0  1  0  0  3  0  0  0  0  0  0
  185.1540  179.1300  145.5090 C   0  0  0  0  0  3  0  0  0  0  0  0
  186.5160  177.8720  143.9360 C   0  0  0  0  0  0  0  0  0  0  0  0
  187.0520  177.1380  144.9990 C   0  0  0  0  0  3  0  0  0  0  0  0
  184.1660  177.8720  141.5760 C   0  0  0  0  0  2  0  0  0  0  0  0
  183.5670  177.9010  140.3160 O   0  0  0  0  0  0  0  0  0  0  0  0
  182.2240  177.6100  140.5560 C   0  0  0  0  0  2  0  0  0  0  0  0
  181.4870  178.8640  141.0030 C   0  0  0  0  0  2  0  0  0  0  0  0
  180.2740  179.7540  143.1040 C   0  0  1  0  0  3  0  0  0  0  0  0
  179.5740  177.6130  142.0470 O   0  0  0  0  0  1  0  0  0  0  0  0
  178.9410  179.6070  143.8210 C   0  0  0  0  0  1  0  0  0  0  0  0
  181.2110  178.6330  143.5530 C   0  0  0  0  0  2  0  0  0  0  0  0
  180.5740  178.5800  142.1860 C   0  0  1  0  0  0  0  0  0  0  0  0
  187.0970  178.4350  140.2490 C   0  0  0  0  0  2  0  0  0  0  0  0
  188.6240  178.3390  140.0950 C   0  0  2  0  0  3  0  0  0  0  0  0
  189.0660  178.6230  138.7240 C   0  0  0  0  0  0  0  0  0  0  0  0
  189.4230  178.8520  137.5950 C   0  0  0  0  0  3  0  0  0  0  0  0
  189.2430  177.0700  140.6750 C   0  0  0  0  0  2  0  0  0  0  0  0
  190.5340  177.3620  141.4330 C   0  0  0  0  0  2  0  0  0  0  0  0
  190.2700  177.5760  142.8880 C   0  0  0  0  0  3  0  0  0  0  0  0
  190.8790  176.8270  143.8080 C   0  0  0  0  0  3  0  0  0  0  0  0
  190.6220  177.0440  145.2610 C   0  0  0  0  0  2  0  0  0  0  0  0
  191.9970  177.1380  147.1990 O   0  0  0  0  0  1  0  0  0  0  0  0
  191.6820  176.3490  146.0940 C   0  0  0  0  0  2  0  0  0  0  0  0
  1  6  1  0  0  0  0
  2  3  1  0  0  0  0
  3  9  1  0  0  0  0
  4  1  1  0  0  0  0
  5  8  1  0  0  0  0
  5  7  1  0  0  0  0
  7 10  1  0  0  0  0
  8 12  1  1  0  0  0
  8  2  1  0  0  0  0
  9  1  2  0  0  0  0
 10  3  2  0  0  0  0
 10 11  1  0  0  0  0
 11  4  2  0  0  0  0
 13 14  1  0  0  0  0
 13 12  1  0  0  0  0
 14 15  1  0  0  0  0
 15 20  1  0  0  0  0
 16 19  1  0  0  0  0
 16 18  1  1  0  0  0
 20 17  1  6  0  0  0
 20 16  1  0  0  0  0
 20 19  1  0  0  0  0
 21  5  1  0  0  0  0
 22 23  1  6  0  0  0
 22 21  1  0  0  0  0
 22 25  1  0  0  0  0
 24 23  3  0  0  0  0
 25 26  1  0  0  0  0
 26 27  1  0  0  0  0
 27 28  2  0  0  0  0
 28 29  1  0  0  0  0
 29 31  1  0  0  0  0
 31 30  1  0  0  0  0
M  END
>  <MODEL>
7

>  <REMARK>
 VINA RESULT:      -6.4      2.551      7.091
  Name = 
  13 active torsions:
  status: ('A' for Active; 'I' for Inactive)
    1  A    between atoms: C_1  and  C_11
    2  A    between atoms: C_1  and  C_24
    3  A    between atoms: C_3  and  C_9
    4  A    between atoms: C_5  and  O_14
    5  A    between atoms: C_5  and  C_21
    6  A    between atoms: C_6  and  C_7
    7  A    between atoms: C_6  and  C_19
    8  A    between atoms: C_7  and  C_9
    9  A    between atoms: C_9  and  C_23
   10  A    between atoms: C_10  and  O_14
   11  A    between atoms: C_10  and  C_18
   12  A    between atoms: N_15  and  C_23
   13  A    between atoms: C_18  and  C_31
                            x       y       z     vdW  Elec       q    Type
                         _______ _______ _______ _____ _____    ______ ____

>  <TORSDO>
F 13

$$$$
=
 OpenBabel11052413183D

 31 33  0  0  1  0  0  0  0  0999 V2000
  184.9970  178.5830  144.5140 C   0  0  0  0  0  0  0  0  0  0  0  0
  187.9700  176.6360  143.1890 C   0  0  0  0  0  2  0  0  0  0  0  0
  186.8710  177.6620  143.2840 C   0  0  0  0  0  0  0  0  0  0  0  0
  184.7610  179.4940  143.4820 C   0  0  0  0  0  3  0  0  0  0  0  0
  188.2920  177.3880  140.9020 N   0  0  0  0  0  0  0  0  0  0  0  0
  184.2100  178.5890  145.6150 F   0  0  0  0  0  0  0  0  0  0  0  0
  187.5150  178.6260  141.0230 C   0  0  0  0  0  2  0  0  0  0  0  0
  189.0100  177.0160  142.1330 C   0  0  1  0  0  3  0  0  0  0  0  0
  186.0480  177.6690  144.4140 C   0  0  0  0  0  3  0  0  0  0  0  0
  186.6190  178.5700  142.2290 C   0  0  0  0  0  0  0  0  0  0  0  0
  185.5710  179.4890  142.3430 C   0  0  0  0  0  3  0  0  0  0  0  0
  189.8920  178.1450  142.6740 C   0  0  0  0  0  2  0  0  0  0  0  0
  191.1490  177.6470  143.0190 O   0  0  0  0  0  0  0  0  0  0  0  0
  191.2900  177.9520  144.3740 C   0  0  0  0  0  2  0  0  0  0  0  0
  190.9050  176.7500  145.2240 C   0  0  0  0  0  2  0  0  0  0  0  0
  188.7570  176.9200  146.6510 C   0  0  1  0  0  3  0  0  0  0  0  0
  191.0010  177.1280  147.7060 O   0  0  0  0  0  1  0  0  0  0  0  0
  188.3110  176.7580  148.0950 C   0  0  0  0  0  1  0  0  0  0  0  0
  189.2880  178.3390  146.4460 C   0  0  0  0  0  2  0  0  0  0  0  0
  190.2500  177.1790  146.5280 C   0  0  1  0  0  0  0  0  0  0  0  0
  189.0450  177.2830  139.6410 C   0  0  0  0  0  2  0  0  0  0  0  0
  188.5140  178.0660  138.4290 C   0  0  2  0  0  3  0  0  0  0  0  0
  187.1800  177.6140  138.0130 C   0  0  0  0  0  0  0  0  0  0  0  0
  186.0870  177.2390  137.6650 C   0  0  0  0  0  3  0  0  0  0  0  0
  189.4970  178.1840  137.2670 C   0  0  0  0  0  2  0  0  0  0  0  0
  190.5410  177.0730  137.2900 C   0  0  0  0  0  2  0  0  0  0  0  0
  190.0150  175.8230  136.6630 C   0  0  0  0  0  3  0  0  0  0  0  0
  190.2380  174.6340  137.2220 C   0  0  0  0  0  3  0  0  0  0  0  0
  189.7090  173.3860  136.6000 C   0  0  0  0  0  2  0  0  0  0  0  0
  188.2130  172.6630  134.8980 O   0  0  0  0  0  1  0  0  0  0  0  0
  188.4380  173.6800  135.8240 C   0  0  0  0  0  2  0  0  0  0  0  0
  1  6  1  0  0  0  0
  2  3  1  0  0  0  0
  3  9  2  0  0  0  0
  4  1  2  0  0  0  0
  5  7  1  0  0  0  0
  5  8  1  0  0  0  0
  7 10  1  0  0  0  0
  8 12  1  1  0  0  0
  8  2  1  0  0  0  0
  9  1  1  0  0  0  0
 10 11  2  0  0  0  0
 10  3  1  0  0  0  0
 11  4  1  0  0  0  0
 12 13  1  0  0  0  0
 13 14  1  0  0  0  0
 14 15  1  0  0  0  0
 15 20  1  0  0  0  0
 16 18  1  1  0  0  0
 19 20  1  0  0  0  0
 19 16  1  0  0  0  0
 20 16  1  0  0  0  0
 20 17  1  1  0  0  0
 21  5  1  0  0  0  0
 22 25  1  6  0  0  0
 22 21  1  0  0  0  0
 23 22  1  0  0  0  0
 24 23  3  0  0  0  0
 25 26  1  0  0  0  0
 27 28  2  0  0  0  0
 27 26  1  0  0  0  0
 29 28  1  0  0  0  0
 30 31  1  0  0  0  0
 31 29  1  0  0  0  0
M  END
>  <MODEL>
8

>  <REMARK>
 VINA RESULT:      -6.1      1.907      3.315
  Name = 
  13 active torsions:
  status: ('A' for Active; 'I' for Inactive)
    1  A    between atoms: C_1  and  C_11
    2  A    between atoms: C_1  and  C_24
    3  A    between atoms: C_3  and  C_9
    4  A    between atoms: C_5  and  O_14
    5  A    between atoms: C_5  and  C_21
    6  A    between atoms: C_6  and  C_7
    7  A    between atoms: C_6  and  C_19
    8  A    between atoms: C_7  and  C_9
    9  A    between atoms: C_9  and  C_23
   10  A    between atoms: C_10  and  O_14
   11  A    between atoms: C_10  and  C_18
   12  A    between atoms: N_15  and  C_23
   13  A    between atoms: C_18  and  C_31
                            x       y       z     vdW  Elec       q    Type
                         _______ _______ _______ _____ _____    ______ ____

>  <TORSDO>
F 13

$$$$
=
 OpenBabel11052413183D

 31 33  0  0  1  0  0  0  0  0999 V2000
  191.6990  176.3000  146.6010 C   0  0  0  0  0  0  0  0  0  0  0  0
  189.8700  176.0170  143.2890 C   0  0  0  0  0  2  0  0  0  0  0  0
  190.1900  176.4120  144.7080 C   0  0  0  0  0  0  0  0  0  0  0  0
  190.8020  177.0490  147.3660 C   0  0  0  0  0  3  0  0  0  0  0  0
  187.6580  176.9460  143.6690 N   0  0  0  0  0  0  0  0  0  0  0  0
  192.8690  175.8870  147.1410 F   0  0  0  0  0  0  0  0  0  0  0  0
  187.9930  177.6770  144.8960 C   0  0  0  0  0  2  0  0  0  0  0  0
  188.7610  176.8870  142.6950 C   0  0  1  0  0  3  0  0  0  0  0  0
  191.3920  175.9820  145.2760 C   0  0  0  0  0  3  0  0  0  0  0  0
  189.2720  177.1530  145.4900 C   0  0  0  0  0  0  0  0  0  0  0  0
  189.5930  177.4760  146.8110 C   0  0  0  0  0  3  0  0  0  0  0  0
  189.3290  178.2670  142.3520 C   0  0  0  0  0  2  0  0  0  0  0  0
  188.6710  178.7930  141.2400 O   0  0  0  0  0  0  0  0  0  0  0  0
  188.5120  177.7080  140.3770 C   0  0  0  0  0  2  0  0  0  0  0  0
  189.2440  177.9680  139.0680 C   0  0  0  0  0  2  0  0  0  0  0  0
  190.8750  176.7760  137.4560 C   0  0  1  0  0  3  0  0  0  0  0  0
  191.3820  176.9310  139.8870 O   0  0  0  0  0  1  0  0  0  0  0  0
  192.3400  176.3770  137.3770 C   0  0  0  0  0  1  0  0  0  0  0  0
  190.1000  175.6960  138.2090 C   0  0  0  0  0  2  0  0  0  0  0  0
  190.4100  177.0090  138.8850 C   0  0  1  0  0  0  0  0  0  0  0  0
  186.3230  177.2640  143.1370 C   0  0  0  0  0  2  0  0  0  0  0  0
  185.7560  178.6630  143.4300 C   0  0  2  0  0  3  0  0  0  0  0  0
  184.8400  178.6660  144.5790 C   0  0  0  0  0  0  0  0  0  0  0  0
  184.0860  178.6750  145.5200 C   0  0  0  0  0  3  0  0  0  0  0  0
  185.1930  179.3900  142.2120 C   0  0  0  0  0  2  0  0  0  0  0  0
  183.8250  178.8510  141.8100 C   0  0  0  0  0  2  0  0  0  0  0  0
  183.8860  178.1450  140.4950 C   0  0  0  0  0  3  0  0  0  0  0  0
  182.8830  177.3630  140.0940 C   0  0  0  0  0  3  0  0  0  0  0  0
  182.9400  176.6630  138.7780 C   0  0  0  0  0  2  0  0  0  0  0  0
  184.1950  176.5280  136.7630 O   0  0  0  0  0  1  0  0  0  0  0  0
  183.9280  177.3510  137.8550 C   0  0  0  0  0  2  0  0  0  0  0  0
  1  6  1  0  0  0  0
  1  4  1  0  0  0  0
  2  3  1  0  0  0  0
  3  9  1  0  0  0  0
  3 10  2  0  0  0  0
  5  7  1  0  0  0  0
  7 10  1  0  0  0  0
  8 12  1  1  0  0  0
  8  2  1  0  0  0  0
  8  5  1  0  0  0  0
  9  1  2  0  0  0  0
 10 11  1  0  0  0  0
 11  4  2  0  0  0  0
 13 12  1  0  0  0  0
 14 13  1  0  0  0  0
 15 14  1  0  0  0  0
 16 18  1  1  0  0  0
 16 19  1  0  0  0  0
 16 20  1  0  0  0  0
 19 20  1  0  0  0  0
 20 15  1  0  0  0  0
 20 17  1  1  0  0  0
 21 22  1  0  0  0  0
 21  5  1  0  0  0  0
 22 25  1  6  0  0  0
 22 23  1  0  0  0  0
 23 24  3  0  0  0  0
 26 25  1  0  0  0  0
 27 26  1  0  0  0  0
 28 27  2  0  0  0  0
 29 28  1  0  0  0  0
 30 31  1  0  0  0  0
 31 29  1  0  0  0  0
M  END
>  <MODEL>
9

>  <REMARK>
 VINA RESULT:      -6.1      2.691      6.170
  Name = 
  13 active torsions:
  status: ('A' for Active; 'I' for Inactive)
    1  A    between atoms: C_1  and  C_11
    2  A    between atoms: C_1  and  C_24
    3  A    between atoms: C_3  and  C_9
    4  A    between atoms: C_5  and  O_14
    5  A    between atoms: C_5  and  C_21
    6  A    between atoms: C_6  and  C_7
    7  A    between atoms: C_6  and  C_19
    8  A    between atoms: C_7  and  C_9
    9  A    between atoms: C_9  and  C_23
   10  A    between atoms: C_10  and  O_14
   11  A    between atoms: C_10  and  C_18
   12  A    between atoms: N_15  and  C_23
   13  A    between atoms: C_18  and  C_31
                            x       y       z     vdW  Elec       q    Type
                         _______ _______ _______ _____ _____    ______ ____

>  <TORSDO>
F 13

$$$$
