=
 OpenBabel11052415043D

 55 61  0  0  1  0  0  0  0  0999 V2000
  191.3480  177.7410  142.4220 C   0  0  0  0  0  3  0  0  0  0  0  0
  188.8180  177.0860  143.4150 C   0  0  0  0  0  0  0  0  0  0  0  0
  189.1560  176.7780  142.0960 C   0  0  0  0  0  3  0  0  0  0  0  0
  191.0130  178.0490  143.7440 C   0  0  0  0  0  3  0  0  0  0  0  0
  190.4230  177.1010  141.5940 C   0  0  0  0  0  0  0  0  0  0  0  0
  189.7490  177.7240  144.2420 C   0  0  0  0  0  3  0  0  0  0  0  0
  190.7790  176.8040  140.2050 C   0  0  0  0  0  3  0  0  0  0  0  0
  189.9460  176.1890  139.4270 N   0  0  0  0  0  0  0  0  0  0  0  0
  187.3460  174.6250  135.9210 N   0  0  0  0  0  2  0  0  0  0  0  0
  186.5420  172.8100  134.6750 O   0  0  0  0  0  0  0  0  0  0  0  0
  189.1290  173.4330  137.0670 C   0  0  2  0  0  3  0  0  0  0  0  0
  188.5240  172.4870  136.0320 C   0  0  0  0  0  2  0  0  0  0  0  0
  187.3850  173.2790  135.4830 C   0  0  0  0  0  0  0  0  0  0  0  0
  188.4470  174.7330  136.8110 C   0  0  0  0  0  0  0  0  0  0  0  0
  191.1290  174.6580  137.8860 C   0  0  2  0  0  3  0  0  0  0  0  0
  190.6200  173.6240  136.8680 C   0  0  0  0  0  2  0  0  0  0  0  0
  188.9480  175.9020  137.2300 C   0  0  0  0  0  0  0  0  0  0  0  0
  190.2430  175.9270  138.0260 C   0  0  1  0  0  3  0  0  0  0  0  0
  193.4410  173.8450  137.3400 C   0  0  0  0  0  3  0  0  0  0  0  0
  195.0600  175.3270  136.2550 C   0  0  0  0  0  0  0  0  0  0  0  0
  192.7310  176.1200  136.5430 C   0  0  0  0  0  2  0  0  0  0  0  0
  194.1810  176.3410  136.2120 C   0  0  0  0  0  3  0  0  0  0  0  0
  194.6180  173.9940  136.7230 C   0  0  0  0  0  3  0  0  0  0  0  0
  192.5870  175.0500  137.6380 C   0  0  1  0  0  3  0  0  0  0  0  0
  196.4630  175.5340  135.8640 C   0  0  0  0  0  0  0  0  0  0  0  0
  196.9590  176.6910  135.8450 O   0  0  0  0  0  1  0  0  0  0  0  0
  197.2600  174.4510  135.5170 O   0  0  0  0  0  0  0  0  0  0  0  0
  188.9600  179.1230  137.2300 C   0  0  0  0  0  2  0  0  0  0  0  0
  187.6400  178.1190  139.1440 O   0  0  0  0  0  0  0  0  0  0  0  0
  188.2500  177.1860  136.8670 C   0  0  2  0  0  3  0  0  0  0  0  0
  189.2300  178.1700  135.7300 S   0  0  0  0  0  0  0  0  0  0  0  0
  188.1530  178.1360  138.0370 C   0  0  0  0  0  0  0  0  0  0  0  0
  187.4530  176.7680  143.9200 C   0  0  0  0  0  2  0  0  0  0  0  0
  186.5410  177.9630  143.7210 C   0  0  0  0  0  2  0  0  0  0  0  0
  184.4560  178.3380  142.4620 C   0  0  2  0  0  3  0  0  0  0  0  0
  185.5060  179.2800  141.9160 C   0  0  0  0  0  2  0  0  0  0  0  0
  185.8970  177.8860  142.3550 C   0  0  1  0  0  3  0  0  0  0  0  0
  183.7250  177.7910  141.3960 O   0  0  0  0  0  0  0  0  0  0  0  0
  181.7360  179.0370  142.7460 S   0  0  0  0  0  1  0  0  0  0  0  0
  182.5300  178.5220  141.1680 C   0  0  1  0  0  0  0  0  0  0  0  0
  182.9110  179.6890  140.5390 F   0  0  0  0  0  0  0  0  0  0  0  0
  181.8320  179.0830  137.9480 C   0  0  2  0  0  0  0  0  0  0  0  0
  181.5270  176.0350  138.4640 O   0  0  0  0  0  0  0  0  0  0  0  0
  181.5210  177.7530  140.2460 C   0  0  1  0  0  0  0  0  0  0  0  0
  183.4980  176.3130  139.7260 F   0  0  0  0  0  0  0  0  0  0  0  0
  182.1160  176.4440  139.6820 C   0  0  2  0  0  3  0  0  0  0  0  0
  182.5710  180.1920  138.3160 F   0  0  0  0  0  0  0  0  0  0  0  0
  182.7570  177.9980  137.3760 C   0  0  2  0  0  3  0  0  0  0  0  0
  180.9020  179.5230  136.8340 C   0  0  0  0  0  1  0  0  0  0  0  0
  182.1850  176.5610  137.3210 C   0  0  1  0  0  3  0  0  0  0  0  0
  180.4180  177.3760  141.0140 O   0  0  0  0  0  1  0  0  0  0  0  0
  184.0460  178.0510  137.9130 O   0  0  0  0  0  1  0  0  0  0  0  0
  180.9460  178.6480  139.1240 C   0  0  0  0  0  2  0  0  0  0  0  0
  183.0930  175.5600  136.6720 C   0  0  0  0  0  3  0  0  0  0  0  0
  183.1920  175.4940  135.4580 O   0  0  0  0  0  0  0  0  0  0  0  0
  1  4  1  0  0  0  0
  2 33  1  0  0  0  0
  2  6  1  0  0  0  0
  3  2  2  0  0  0  0
  4  6  2  0  0  0  0
  5  3  1  0  0  0  0
  5  1  2  0  0  0  0
  7  5  1  0  0  0  0
  8  7  2  0  0  0  0
  9 14  1  0  0  0  0
 10 13  2  0  0  0  0
 11 12  1  6  0  0  0
 13  9  1  0  0  0  0
 13 12  1  0  0  0  0
 14 11  1  0  0  0  0
 14 17  2  0  0  0  0
 15 16  1  6  0  0  0
 15 18  1  0  0  0  0
 16 11  1  0  0  0  0
 17 18  1  0  0  0  0
 18  8  1  1  0  0  0
 19 24  1  0  0  0  0
 20 23  1  0  0  0  0
 22 20  2  0  0  0  0
 22 21  1  0  0  0  0
 23 19  2  0  0  0  0
 24 21  1  6  0  0  0
 24 15  1  0  0  0  0
 25 20  1  0  0  0  0
 26 25  1  0  0  0  0
 27 25  2  0  0  0  0
 28 32  1  0  0  0  0
 30 17  1  1  0  0  0
 30 32  1  0  0  0  0
 31 30  1  0  0  0  0
 31 28  1  0  0  0  0
 32 29  2  0  0  0  0
 34 33  1  0  0  0  0
 35 38  1  6  0  0  0
 36 37  1  0  0  0  0
 36 35  1  0  0  0  0
 37 35  1  0  0  0  0
 37 34  1  1  0  0  0
 40 41  1  6  0  0  0
 40 38  1  0  0  0  0
 40 39  1  0  0  0  0
 42 49  1  6  0  0  0
 42 47  1  0  0  0  0
 42 53  1  0  0  0  0
 43 46  1  0  0  0  0
 44 51  1  1  0  0  0
 44 40  1  0  0  0  0
 46 45  1  6  0  0  0
 46 44  1  0  0  0  0
 48 52  1  1  0  0  0
 48 42  1  0  0  0  0
 50 54  1  1  0  0  0
 50 48  1  0  0  0  0
 50 43  1  0  0  0  0
 53 44  1  0  0  0  0
 55 54  2  0  0  0  0
M  END
>  <MODEL>
1

>  <REMARK>
 VINA RESULT:      -8.3      0.000      0.000
  Name = 
  12 active torsions:
  status: ('A' for Active; 'I' for Inactive)
    1  A    between atoms: C_2  and  C_44
    2  A    between atoms: C_6  and  C_20
    3  A    between atoms: C_8  and  O_22
    4  A    between atoms: C_10  and  C_32
    5  A    between atoms: C_11  and  C_38
    6  A    between atoms: C_19  and  C_45
    7  A    between atoms: C_20  and  O_22
    8  A    between atoms: C_27  and  C_54
    9  A    between atoms: N_28  and  C_49
   10  A    between atoms: C_33  and  C_52
   11  A    between atoms: C_43  and  C_51
   12  A    between atoms: C_51  and  C_54
                            x       y       z     vdW  Elec       q    Type
                         _______ _______ _______ _____ _____    ______ ____

>  <TORSDO>
F 12

$$$$
=
 OpenBabel11052415043D

 55 61  0  0  1  0  0  0  0  0999 V2000
  180.5700  177.3020  140.0440 C   0  0  0  0  0  3  0  0  0  0  0  0
  182.2020  178.4430  142.0070 C   0  0  0  0  0  0  0  0  0  0  0  0
  182.7590  177.9790  140.8130 C   0  0  0  0  0  3  0  0  0  0  0  0
  180.0090  177.7670  141.2380 C   0  0  0  0  0  3  0  0  0  0  0  0
  181.9460  177.4090  139.8260 C   0  0  0  0  0  0  0  0  0  0  0  0
  180.8230  178.3370  142.2210 C   0  0  0  0  0  3  0  0  0  0  0  0
  182.5230  176.8980  138.5800 C   0  0  0  0  0  3  0  0  0  0  0  0
  182.5360  175.6270  138.3320 N   0  0  0  0  0  0  0  0  0  0  0  0
  181.3250  171.9470  135.7850 N   0  0  0  0  0  2  0  0  0  0  0  0
  181.5970  169.6720  135.2920 O   0  0  0  0  0  0  0  0  0  0  0  0
  183.3460  172.2080  137.1130 C   0  0  2  0  0  3  0  0  0  0  0  0
  183.3600  170.8050  136.5090 C   0  0  0  0  0  2  0  0  0  0  0  0
  182.0380  170.7240  135.8230 C   0  0  0  0  0  0  0  0  0  0  0  0
  182.1560  172.8560  136.4920 C   0  0  0  0  0  0  0  0  0  0  0  0
  184.4400  174.4310  137.3020 C   0  0  2  0  0  3  0  0  0  0  0  0
  184.5790  173.0070  136.7380 C   0  0  0  0  0  2  0  0  0  0  0  0
  182.0010  174.1860  136.4500 C   0  0  0  0  0  0  0  0  0  0  0  0
  183.0500  175.0880  137.0810 C   0  0  1  0  0  3  0  0  0  0  0  0
  185.3990  176.7500  137.3800 C   0  0  0  0  0  3  0  0  0  0  0  0
  187.7800  177.1290  136.9580 C   0  0  0  0  0  0  0  0  0  0  0  0
  186.9560  174.7970  137.1020 C   0  0  0  0  0  2  0  0  0  0  0  0
  188.0090  175.8190  136.7720 C   0  0  0  0  0  3  0  0  0  0  0  0
  186.4440  177.5820  137.4060 C   0  0  0  0  0  3  0  0  0  0  0  0
  185.5530  175.3610  136.8170 C   0  0  1  0  0  3  0  0  0  0  0  0
  188.8380  178.1190  136.7000 C   0  0  0  0  0  0  0  0  0  0  0  0
  189.8470  177.8130  136.0110 O   0  0  0  0  0  0  0  0  0  0  0  0
  188.7290  179.4070  137.2060 O   0  0  0  0  0  1  0  0  0  0  0  0
  179.8670  176.5860  136.2040 C   0  0  0  0  0  2  0  0  0  0  0  0
  178.9940  174.5870  137.4890 O   0  0  0  0  0  0  0  0  0  0  0  0
  180.8140  174.7770  135.7360 C   0  0  2  0  0  3  0  0  0  0  0  0
  181.2050  176.3770  135.0220 S   0  0  0  0  0  0  0  0  0  0  0  0
  179.7090  175.1650  136.6890 C   0  0  0  0  0  0  0  0  0  0  0  0
  183.0870  179.0120  143.0610 C   0  0  0  0  0  2  0  0  0  0  0  0
  184.3520  178.1830  143.1720 C   0  0  0  0  0  2  0  0  0  0  0  0
  186.6380  178.2960  142.2620 C   0  0  2  0  0  3  0  0  0  0  0  0
  185.7860  179.2880  141.5040 C   0  0  0  0  0  2  0  0  0  0  0  0
  185.5590  179.0730  142.9850 C   0  0  1  0  0  3  0  0  0  0  0  0
  187.8850  178.8760  142.5440 O   0  0  0  0  0  0  0  0  0  0  0  0
  189.0610  177.2420  140.7320 S   0  0  0  0  0  1  0  0  0  0  0  0
  188.9290  177.9190  142.4380 C   0  0  1  0  0  0  0  0  0  0  0  0
  190.1020  178.6100  142.6620 F   0  0  0  0  0  0  0  0  0  0  0  0
  191.3830  176.2700  143.9970 C   0  0  2  0  0  0  0  0  0  0  0  0
  188.9720  176.4410  145.9480 O   0  0  0  0  0  0  0  0  0  0  0  0
  188.8050  176.7720  143.5000 C   0  0  1  0  0  0  0  0  0  0  0  0
  188.8130  178.6520  145.1480 F   0  0  0  0  0  0  0  0  0  0  0  0
  188.5350  177.3110  144.9220 C   0  0  2  0  0  3  0  0  0  0  0  0
  192.0440  176.9660  143.0010 F   0  0  0  0  0  0  0  0  0  0  0  0
  191.3560  177.0980  145.2910 C   0  0  2  0  0  3  0  0  0  0  0  0
  192.1940  175.0190  144.2730 C   0  0  0  0  0  1  0  0  0  0  0  0
  190.3100  176.6850  146.3540 C   0  0  1  0  0  3  0  0  0  0  0  0
  187.7020  175.9820  143.1710 O   0  0  0  0  0  1  0  0  0  0  0  0
  191.3740  178.4740  145.0510 O   0  0  0  0  0  1  0  0  0  0  0  0
  190.0150  175.8100  143.4750 C   0  0  0  0  0  2  0  0  0  0  0  0
  190.3870  177.4650  147.6320 C   0  0  0  0  0  3  0  0  0  0  0  0
  189.4560  178.1630  147.9990 O   0  0  0  0  0  0  0  0  0  0  0  0
  1  4  1  0  0  0  0
  2  6  1  0  0  0  0
  2 33  1  0  0  0  0
  3  2  2  0  0  0  0
  4  6  2  0  0  0  0
  5  1  2  0  0  0  0
  5  3  1  0  0  0  0
  7  5  1  0  0  0  0
  8  7  2  0  0  0  0
  9 13  1  0  0  0  0
  9 14  1  0  0  0  0
 10 13  2  0  0  0  0
 11 12  1  6  0  0  0
 13 12  1  0  0  0  0
 14 11  1  0  0  0  0
 15 16  1  6  0  0  0
 16 11  1  0  0  0  0
 17 14  2  0  0  0  0
 17 18  1  0  0  0  0
 18 15  1  0  0  0  0
 18  8  1  1  0  0  0
 19 23  2  0  0  0  0
 20 23  1  0  0  0  0
 22 20  2  0  0  0  0
 22 21  1  0  0  0  0
 24 21  1  1  0  0  0
 24 15  1  0  0  0  0
 24 19  1  0  0  0  0
 25 20  1  0  0  0  0
 25 27  1  0  0  0  0
 26 25  2  0  0  0  0
 28 32  1  0  0  0  0
 30 17  1  1  0  0  0
 30 32  1  0  0  0  0
 31 30  1  0  0  0  0
 31 28  1  0  0  0  0
 32 29  2  0  0  0  0
 33 34  1  0  0  0  0
 35 38  1  1  0  0  0
 35 37  1  0  0  0  0
 36 35  1  0  0  0  0
 36 37  1  0  0  0  0
 37 34  1  6  0  0  0
 40 39  1  6  0  0  0
 40 38  1  0  0  0  0
 40 41  1  0  0  0  0
 40 44  1  0  0  0  0
 42 49  1  1  0  0  0
 42 48  1  0  0  0  0
 43 50  1  0  0  0  0
 44 51  1  6  0  0  0
 44 46  1  0  0  0  0
 46 45  1  6  0  0  0
 46 43  1  0  0  0  0
 47 42  1  0  0  0  0
 48 52  1  6  0  0  0
 48 50  1  0  0  0  0
 50 54  1  1  0  0  0
 53 44  1  0  0  0  0
 53 42  1  0  0  0  0
 54 55  2  0  0  0  0
M  END
>  <MODEL>
2

>  <REMARK>
 VINA RESULT:      -8.0      4.272      8.429
  Name = 
  12 active torsions:
  status: ('A' for Active; 'I' for Inactive)
    1  A    between atoms: C_2  and  C_44
    2  A    between atoms: C_6  and  C_20
    3  A    between atoms: C_8  and  O_22
    4  A    between atoms: C_10  and  C_32
    5  A    between atoms: C_11  and  C_38
    6  A    between atoms: C_19  and  C_45
    7  A    between atoms: C_20  and  O_22
    8  A    between atoms: C_27  and  C_54
    9  A    between atoms: N_28  and  C_49
   10  A    between atoms: C_33  and  C_52
   11  A    between atoms: C_43  and  C_51
   12  A    between atoms: C_51  and  C_54
                            x       y       z     vdW  Elec       q    Type
                         _______ _______ _______ _____ _____    ______ ____

>  <TORSDO>
F 12

$$$$
=
 OpenBabel11052415043D

 55 61  0  0  1  0  0  0  0  0999 V2000
  183.1250  178.8910  142.9140 C   0  0  0  0  0  3  0  0  0  0  0  0
  185.8030  178.0900  142.9960 C   0  0  0  0  0  0  0  0  0  0  0  0
  185.1370  178.1910  141.7720 C   0  0  0  0  0  3  0  0  0  0  0  0
  183.7900  178.7920  144.1410 C   0  0  0  0  0  3  0  0  0  0  0  0
  183.7970  178.5950  141.7260 C   0  0  0  0  0  0  0  0  0  0  0  0
  185.1280  178.3910  144.1840 C   0  0  0  0  0  3  0  0  0  0  0  0
  183.0820  178.6810  140.4500 C   0  0  0  0  0  3  0  0  0  0  0  0
  181.8560  178.2760  140.3520 N   0  0  0  0  0  0  0  0  0  0  0  0
  180.9800  175.2880  136.9160 N   0  0  0  0  0  2  0  0  0  0  0  0
  181.5930  174.3760  134.8460 O   0  0  0  0  0  0  0  0  0  0  0  0
  182.4380  177.2320  136.8290 C   0  0  2  0  0  3  0  0  0  0  0  0
  182.5230  176.5230  135.4800 C   0  0  0  0  0  2  0  0  0  0  0  0
  181.6890  175.3040  135.6910 C   0  0  0  0  0  0  0  0  0  0  0  0
  181.3720  176.4910  137.5610 C   0  0  0  0  0  0  0  0  0  0  0  0
  181.8580  179.2900  138.0950 C   0  0  2  0  0  3  0  0  0  0  0  0
  182.0100  178.6800  136.6920 C   0  0  0  0  0  2  0  0  0  0  0  0
  180.7250  177.0130  138.6110 C   0  0  0  0  0  0  0  0  0  0  0  0
  181.0970  178.3980  139.1150 C   0  0  1  0  0  3  0  0  0  0  0  0
  182.2660  181.7440  138.4310 C   0  0  0  0  0  3  0  0  0  0  0  0
  180.8930  183.4060  137.2710 C   0  0  0  0  0  0  0  0  0  0  0  0
  180.5900  181.0130  136.7070 C   0  0  0  0  0  2  0  0  0  0  0  0
  180.1700  182.4560  136.6560 C   0  0  0  0  0  3  0  0  0  0  0  0
  182.0660  183.0210  138.0870 C   0  0  0  0  0  3  0  0  0  0  0  0
  181.2520  180.6940  138.0580 C   0  0  1  0  0  3  0  0  0  0  0  0
  180.5150  184.8240  137.1600 C   0  0  0  0  0  0  0  0  0  0  0  0
  180.8870  185.5110  136.1730 O   0  0  0  0  0  0  0  0  0  0  0  0
  179.7350  185.4190  138.1430 O   0  0  0  0  0  1  0  0  0  0  0  0
  179.5650  175.5260  141.2220 C   0  0  0  0  0  2  0  0  0  0  0  0
  180.6400  173.9500  139.5570 O   0  0  0  0  0  0  0  0  0  0  0  0
  179.6020  176.2420  139.2540 C   0  0  2  0  0  3  0  0  0  0  0  0
  178.9310  177.1150  140.6720 S   0  0  0  0  0  0  0  0  0  0  0  0
  180.0840  174.9740  139.9160 C   0  0  0  0  0  0  0  0  0  0  0  0
  187.2170  177.6240  143.0290 C   0  0  0  0  0  2  0  0  0  0  0  0
  188.0150  178.3290  141.9490 C   0  0  0  0  0  2  0  0  0  0  0  0
  188.6020  178.0920  139.5680 C   0  0  2  0  0  3  0  0  0  0  0  0
  189.7870  177.6350  140.3870 C   0  0  0  0  0  2  0  0  0  0  0  0
  188.3820  177.3420  140.8650 C   0  0  1  0  0  3  0  0  0  0  0  0
  188.4130  177.2110  138.4920 O   0  0  0  0  0  0  0  0  0  0  0  0
  185.9600  178.2110  137.9310 S   0  0  0  0  0  1  0  0  0  0  0  0
  187.6930  177.8350  137.4400 C   0  0  1  0  0  0  0  0  0  0  0  0
  188.3000  179.0570  137.2360 F   0  0  0  0  0  0  0  0  0  0  0  0
  190.3210  176.3080  136.0480 C   0  0  2  0  0  0  0  0  0  0  0  0
  187.7850  174.6590  135.3410 O   0  0  0  0  0  0  0  0  0  0  0  0
  187.7430  177.0130  136.1060 C   0  0  1  0  0  0  0  0  0  0  0  0
  187.2040  175.0720  137.5870 F   0  0  0  0  0  0  0  0  0  0  0  0
  187.2490  175.5610  136.2880 C   0  0  2  0  0  3  0  0  0  0  0  0
  190.8870  177.0810  137.0460 F   0  0  0  0  0  0  0  0  0  0  0  0
  190.0100  174.9010  136.5830 C   0  0  2  0  0  3  0  0  0  0  0  0
  191.3640  176.1620  134.9590 C   0  0  0  0  0  1  0  0  0  0  0  0
  189.0000  174.0600  135.7650 C   0  0  1  0  0  3  0  0  0  0  0  0
  186.8710  177.6040  135.1890 O   0  0  0  0  0  1  0  0  0  0  0  0
  189.7420  174.8930  137.9540 O   0  0  0  0  0  1  0  0  0  0  0  0
  189.1330  177.0620  135.4330 C   0  0  0  0  0  2  0  0  0  0  0  0
  188.8020  172.6650  136.2780 C   0  0  0  0  0  3  0  0  0  0  0  0
  187.6950  172.2650  136.5990 O   0  0  0  0  0  0  0  0  0  0  0  0
  1  4  1  0  0  0  0
  2 33  1  0  0  0  0
  2  6  1  0  0  0  0
  3  2  2  0  0  0  0
  4  6  2  0  0  0  0
  5  3  1  0  0  0  0
  5  1  2  0  0  0  0
  7  5  1  0  0  0  0
  8  7  2  0  0  0  0
  9 14  1  0  0  0  0
 10 13  2  0  0  0  0
 11 12  1  6  0  0  0
 11 14  1  0  0  0  0
 12 13  1  0  0  0  0
 13  9  1  0  0  0  0
 14 17  2  0  0  0  0
 15 16  1  6  0  0  0
 15 18  1  0  0  0  0
 16 11  1  0  0  0  0
 17 18  1  0  0  0  0
 18  8  1  1  0  0  0
 20 23  1  0  0  0  0
 22 21  1  0  0  0  0
 22 20  2  0  0  0  0
 23 19  2  0  0  0  0
 24 21  1  6  0  0  0
 24 15  1  0  0  0  0
 24 19  1  0  0  0  0
 25 20  1  0  0  0  0
 25 27  1  0  0  0  0
 26 25  2  0  0  0  0
 29 32  2  0  0  0  0
 30 17  1  1  0  0  0
 30 32  1  0  0  0  0
 30 31  1  0  0  0  0
 31 28  1  0  0  0  0
 32 28  1  0  0  0  0
 34 33  1  0  0  0  0
 35 38  1  6  0  0  0
 35 36  1  0  0  0  0
 35 37  1  0  0  0  0
 36 37  1  0  0  0  0
 37 34  1  1  0  0  0
 40 41  1  6  0  0  0
 40 39  1  0  0  0  0
 40 38  1  0  0  0  0
 42 49  1  6  0  0  0
 42 48  1  0  0  0  0
 42 47  1  0  0  0  0
 43 50  1  0  0  0  0
 43 46  1  0  0  0  0
 44 51  1  6  0  0  0
 44 46  1  0  0  0  0
 44 40  1  0  0  0  0
 46 45  1  1  0  0  0
 48 52  1  1  0  0  0
 50 54  1  1  0  0  0
 50 48  1  0  0  0  0
 53 42  1  0  0  0  0
 53 44  1  0  0  0  0
 54 55  2  0  0  0  0
M  END
>  <MODEL>
3

>  <REMARK>
 VINA RESULT:      -7.8      3.329      9.446
  Name = 
  12 active torsions:
  status: ('A' for Active; 'I' for Inactive)
    1  A    between atoms: C_2  and  C_44
    2  A    between atoms: C_6  and  C_20
    3  A    between atoms: C_8  and  O_22
    4  A    between atoms: C_10  and  C_32
    5  A    between atoms: C_11  and  C_38
    6  A    between atoms: C_19  and  C_45
    7  A    between atoms: C_20  and  O_22
    8  A    between atoms: C_27  and  C_54
    9  A    between atoms: N_28  and  C_49
   10  A    between atoms: C_33  and  C_52
   11  A    between atoms: C_43  and  C_51
   12  A    between atoms: C_51  and  C_54
                            x       y       z     vdW  Elec       q    Type
                         _______ _______ _______ _____ _____    ______ ____

>  <TORSDO>
F 12

$$$$
=
 OpenBabel11052415043D

 55 61  0  0  1  0  0  0  0  0999 V2000
  183.7830  178.8240  144.5560 C   0  0  0  0  0  3  0  0  0  0  0  0
  186.4600  178.3300  143.9170 C   0  0  0  0  0  0  0  0  0  0  0  0
  185.4640  178.1580  142.9530 C   0  0  0  0  0  3  0  0  0  0  0  0
  184.7780  178.9990  145.5230 C   0  0  0  0  0  3  0  0  0  0  0  0
  184.1220  178.4070  143.2670 C   0  0  0  0  0  0  0  0  0  0  0  0
  186.1160  178.7510  145.2060 C   0  0  0  0  0  3  0  0  0  0  0  0
  183.0680  178.2060  142.2700 C   0  0  0  0  0  3  0  0  0  0  0  0
  182.4920  179.2200  141.7060 N   0  0  0  0  0  0  0  0  0  0  0  0
  179.4420  175.8420  140.8190 N   0  0  0  0  0  2  0  0  0  0  0  0
  178.9320  173.8400  139.7130 O   0  0  0  0  0  0  0  0  0  0  0  0
  181.4270  176.3980  139.5290 C   0  0  2  0  0  3  0  0  0  0  0  0
  180.7780  175.1740  138.8860 C   0  0  0  0  0  2  0  0  0  0  0  0
  179.6550  174.8650  139.8170 C   0  0  0  0  0  0  0  0  0  0  0  0
  180.4610  176.8040  140.5890 C   0  0  0  0  0  0  0  0  0  0  0  0
  182.1470  178.7650  139.2990 C   0  0  2  0  0  3  0  0  0  0  0  0
  181.5790  177.5480  138.5510 C   0  0  0  0  0  2  0  0  0  0  0  0
  180.4540  178.0320  141.1230 C   0  0  0  0  0  0  0  0  0  0  0  0
  181.4800  179.0580  140.6710 C   0  0  1  0  0  3  0  0  0  0  0  0
  181.3110  179.8610  137.2010 C   0  0  0  0  0  3  0  0  0  0  0  0
  181.1620  182.2990  137.0420 C   0  0  0  0  0  0  0  0  0  0  0  0
  181.7660  181.2850  139.2200 C   0  0  0  0  0  2  0  0  0  0  0  0
  181.6230  182.4610  138.2930 C   0  0  0  0  0  3  0  0  0  0  0  0
  180.8790  180.9380  136.5360 C   0  0  0  0  0  3  0  0  0  0  0  0
  182.1630  180.0250  138.4330 C   0  0  1  0  0  3  0  0  0  0  0  0
  180.9580  183.4620  136.1630 C   0  0  0  0  0  0  0  0  0  0  0  0
  180.0690  183.4440  135.2720 O   0  0  0  0  0  0  0  0  0  0  0  0
  181.7420  184.5980  136.3140 O   0  0  0  0  0  1  0  0  0  0  0  0
  179.6980  179.5160  143.8800 C   0  0  0  0  0  2  0  0  0  0  0  0
  180.0920  177.0290  144.1480 O   0  0  0  0  0  0  0  0  0  0  0  0
  179.3980  178.4010  142.1320 C   0  0  2  0  0  3  0  0  0  0  0  0
  179.2210  180.1810  142.2800 S   0  0  0  0  0  0  0  0  0  0  0  0
  179.8080  178.0490  143.5430 C   0  0  0  0  0  0  0  0  0  0  0  0
  187.8770  178.0240  143.5760 C   0  0  0  0  0  2  0  0  0  0  0  0
  187.9350  177.2400  142.2790 C   0  0  0  0  0  2  0  0  0  0  0  0
  188.1330  177.6880  139.8650 C   0  0  2  0  0  3  0  0  0  0  0  0
  187.6940  178.9660  140.5410 C   0  0  0  0  0  2  0  0  0  0  0  0
  188.6730  178.0440  141.2340 C   0  0  1  0  0  3  0  0  0  0  0  0
  189.1060  177.9860  138.8980 O   0  0  0  0  0  0  0  0  0  0  0  0
  191.2330  176.3800  138.4160 S   0  0  0  0  0  1  0  0  0  0  0  0
  189.4660  176.8260  138.1620 C   0  0  1  0  0  0  0  0  0  0  0  0
  188.7340  175.7890  138.7030 F   0  0  0  0  0  0  0  0  0  0  0  0
  189.4590  174.4200  135.8420 C   0  0  2  0  0  0  0  0  0  0  0  0
  187.2570  176.4740  135.0800 O   0  0  0  0  0  0  0  0  0  0  0  0
  189.1220  176.9500  136.6380 C   0  0  1  0  0  0  0  0  0  0  0  0
  186.7920  176.4440  137.3900 F   0  0  0  0  0  0  0  0  0  0  0  0
  187.6000  176.9320  136.3720 C   0  0  2  0  0  3  0  0  0  0  0  0
  190.0790  173.8220  136.9250 F   0  0  0  0  0  0  0  0  0  0  0  0
  187.9480  174.1430  135.8800 C   0  0  2  0  0  3  0  0  0  0  0  0
  190.0120  173.7560  134.5960 C   0  0  0  0  0  1  0  0  0  0  0  0
  187.0550  175.0700  135.0210 C   0  0  1  0  0  3  0  0  0  0  0  0
  189.5790  178.1870  136.1790 O   0  0  0  0  0  1  0  0  0  0  0  0
  187.4640  173.9730  137.1800 O   0  0  0  0  0  1  0  0  0  0  0  0
  189.8620  175.9000  135.7770 C   0  0  0  0  0  2  0  0  0  0  0  0
  185.6010  174.7010  135.0230 C   0  0  0  0  0  3  0  0  0  0  0  0
  185.2410  173.5640  134.7700 O   0  0  0  0  0  0  0  0  0  0  0  0
  1  4  1  0  0  0  0
  2  6  1  0  0  0  0
  3  5  1  0  0  0  0
  3  2  2  0  0  0  0
  5  1  2  0  0  0  0
  6  4  2  0  0  0  0
  7  5  1  0  0  0  0
  8  7  2  0  0  0  0
 10 13  2  0  0  0  0
 11 16  1  6  0  0  0
 11 14  1  0  0  0  0
 12 11  1  0  0  0  0
 12 13  1  0  0  0  0
 13  9  1  0  0  0  0
 14  9  1  0  0  0  0
 14 17  2  0  0  0  0
 15 16  1  6  0  0  0
 15 18  1  0  0  0  0
 18 17  1  0  0  0  0
 18  8  1  1  0  0  0
 20 22  2  0  0  0  0
 22 21  1  0  0  0  0
 23 20  1  0  0  0  0
 23 19  2  0  0  0  0
 24 19  1  6  0  0  0
 24 21  1  0  0  0  0
 24 15  1  0  0  0  0
 25 27  1  0  0  0  0
 25 20  1  0  0  0  0
 26 25  2  0  0  0  0
 30 17  1  6  0  0  0
 30 31  1  0  0  0  0
 30 32  1  0  0  0  0
 31 28  1  0  0  0  0
 32 28  1  0  0  0  0
 32 29  2  0  0  0  0
 33  2  1  0  0  0  0
 34 33  1  0  0  0  0
 35 38  1  6  0  0  0
 35 36  1  0  0  0  0
 35 37  1  0  0  0  0
 36 37  1  0  0  0  0
 37 34  1  1  0  0  0
 40 39  1  1  0  0  0
 40 41  1  0  0  0  0
 40 38  1  0  0  0  0
 42 49  1  6  0  0  0
 42 48  1  0  0  0  0
 42 47  1  0  0  0  0
 43 46  1  0  0  0  0
 44 51  1  6  0  0  0
 44 40  1  0  0  0  0
 46 44  1  0  0  0  0
 46 45  1  1  0  0  0
 48 52  1  1  0  0  0
 50 54  1  1  0  0  0
 50 43  1  0  0  0  0
 50 48  1  0  0  0  0
 53 42  1  0  0  0  0
 53 44  1  0  0  0  0
 55 54  2  0  0  0  0
M  END
>  <MODEL>
4

>  <REMARK>
 VINA RESULT:      -7.6      3.602      9.540
  Name = 
  12 active torsions:
  status: ('A' for Active; 'I' for Inactive)
    1  A    between atoms: C_2  and  C_44
    2  A    between atoms: C_6  and  C_20
    3  A    between atoms: C_8  and  O_22
    4  A    between atoms: C_10  and  C_32
    5  A    between atoms: C_11  and  C_38
    6  A    between atoms: C_19  and  C_45
    7  A    between atoms: C_20  and  O_22
    8  A    between atoms: C_27  and  C_54
    9  A    between atoms: N_28  and  C_49
   10  A    between atoms: C_33  and  C_52
   11  A    between atoms: C_43  and  C_51
   12  A    between atoms: C_51  and  C_54
                            x       y       z     vdW  Elec       q    Type
                         _______ _______ _______ _____ _____    ______ ____

>  <TORSDO>
F 12

$$$$
=
 OpenBabel11052415043D

 55 61  0  0  1  0  0  0  0  0999 V2000
  190.5270  177.8690  142.0700 C   0  0  0  0  0  3  0  0  0  0  0  0
  188.0120  177.3220  143.1630 C   0  0  0  0  0  0  0  0  0  0  0  0
  188.2870  176.9950  141.8330 C   0  0  0  0  0  3  0  0  0  0  0  0
  190.2560  178.1960  143.4030 C   0  0  0  0  0  3  0  0  0  0  0  0
  189.5460  177.2640  141.2820 C   0  0  0  0  0  0  0  0  0  0  0  0
  188.9990  177.9250  143.9500 C   0  0  0  0  0  3  0  0  0  0  0  0
  189.8360  176.9470  139.8820 C   0  0  0  0  0  3  0  0  0  0  0  0
  188.9190  176.4510  139.1140 N   0  0  0  0  0  0  0  0  0  0  0  0
  186.4740  174.1280  135.9320 N   0  0  0  0  0  2  0  0  0  0  0  0
  186.0100  172.1050  134.8430 O   0  0  0  0  0  0  0  0  0  0  0  0
  188.5690  173.4400  136.9580 C   0  0  2  0  0  3  0  0  0  0  0  0
  188.1150  172.3200  136.0240 C   0  0  0  0  0  2  0  0  0  0  0  0
  186.7850  172.8010  135.5490 C   0  0  0  0  0  0  0  0  0  0  0  0
  187.5890  174.5350  136.7120 C   0  0  0  0  0  0  0  0  0  0  0  0
  190.2940  175.1320  137.5360 C   0  0  2  0  0  3  0  0  0  0  0  0
  189.9550  173.9480  136.6150 C   0  0  0  0  0  2  0  0  0  0  0  0
  187.8410  175.8110  137.0330 C   0  0  0  0  0  0  0  0  0  0  0  0
  189.1550  176.1750  137.7040 C   0  0  1  0  0  3  0  0  0  0  0  0
  192.7750  175.2670  137.8980 C   0  0  0  0  0  3  0  0  0  0  0  0
  194.2470  176.1150  136.1360 C   0  0  0  0  0  0  0  0  0  0  0  0
  191.8460  175.7860  135.6220 C   0  0  0  0  0  2  0  0  0  0  0  0
  193.2160  176.3180  135.3000 C   0  0  0  0  0  3  0  0  0  0  0  0
  194.0160  175.4430  137.4340 C   0  0  0  0  0  3  0  0  0  0  0  0
  191.5980  175.8240  137.1390 C   0  0  1  0  0  3  0  0  0  0  0  0
  195.5990  176.5770  135.7840 C   0  0  0  0  0  0  0  0  0  0  0  0
  195.7780  177.7230  135.2940 O   0  0  0  0  0  0  0  0  0  0  0  0
  196.6970  175.7530  135.9960 O   0  0  0  0  0  1  0  0  0  0  0  0
  187.0080  178.2620  135.1160 C   0  0  0  0  0  2  0  0  0  0  0  0
  188.0960  178.9990  137.2800 O   0  0  0  0  0  0  0  0  0  0  0  0
  186.8400  176.8800  136.6810 C   0  0  2  0  0  3  0  0  0  0  0  0
  186.1980  176.6610  135.0190 S   0  0  0  0  0  0  0  0  0  0  0  0
  187.4790  178.2420  136.5500 C   0  0  0  0  0  0  0  0  0  0  0  0
  186.6560  177.0630  143.7210 C   0  0  0  0  0  2  0  0  0  0  0  0
  186.2470  178.2070  144.6280 C   0  0  0  0  0  2  0  0  0  0  0  0
  184.4290  178.3430  142.9700 C   0  0  2  0  0  3  0  0  0  0  0  0
  183.9050  178.8820  144.2820 C   0  0  0  0  0  2  0  0  0  0  0  0
  185.3370  179.1500  143.8750 C   0  0  1  0  0  3  0  0  0  0  0  0
  183.9840  179.1620  141.9210 O   0  0  0  0  0  0  0  0  0  0  0  0
  185.7680  178.5100  139.9910 S   0  0  0  0  0  1  0  0  0  0  0  0
  184.0610  178.4850  140.6760 C   0  0  1  0  0  0  0  0  0  0  0  0
  183.7820  177.1600  140.9460 F   0  0  0  0  0  0  0  0  0  0  0  0
  182.8570  176.9350  137.9700 C   0  0  2  0  0  0  0  0  0  0  0  0
  180.6190  178.7860  139.0730 O   0  0  0  0  0  0  0  0  0  0  0  0
  183.0190  179.0210  139.6340 C   0  0  1  0  0  0  0  0  0  0  0  0
  181.3400  177.9800  141.1670 F   0  0  0  0  0  0  0  0  0  0  0  0
  181.5620  178.8690  140.1230 C   0  0  2  0  0  3  0  0  0  0  0  0
  183.9100  176.1280  138.3630 F   0  0  0  0  0  0  0  0  0  0  0  0
  181.5500  176.4460  138.6150 C   0  0  2  0  0  3  0  0  0  0  0  0
  182.7130  176.7730  136.4700 C   0  0  0  0  0  1  0  0  0  0  0  0
  180.3760  177.4550  138.6440 C   0  0  1  0  0  3  0  0  0  0  0  0
  183.2280  180.3910  139.4650 O   0  0  0  0  0  1  0  0  0  0  0  0
  181.7580  175.8170  139.8440 O   0  0  0  0  0  1  0  0  0  0  0  0
  183.2170  178.4040  138.2300 C   0  0  0  0  0  2  0  0  0  0  0  0
  179.0990  176.8990  139.2010 C   0  0  0  0  0  3  0  0  0  0  0  0
  179.0190  175.7320  139.5470 O   0  0  0  0  0  0  0  0  0  0  0  0
  1  4  1  0  0  0  0
  2 33  1  0  0  0  0
  2  6  1  0  0  0  0
  3  2  2  0  0  0  0
  4  6  2  0  0  0  0
  5  3  1  0  0  0  0
  5  1  2  0  0  0  0
  7  5  1  0  0  0  0
  8  7  2  0  0  0  0
  9 14  1  0  0  0  0
 10 13  2  0  0  0  0
 11 12  1  6  0  0  0
 13  9  1  0  0  0  0
 13 12  1  0  0  0  0
 14 11  1  0  0  0  0
 14 17  2  0  0  0  0
 15 16  1  6  0  0  0
 15 18  1  0  0  0  0
 16 11  1  0  0  0  0
 17 18  1  0  0  0  0
 18  8  1  1  0  0  0
 20 23  1  0  0  0  0
 22 21  1  0  0  0  0
 22 20  2  0  0  0  0
 23 19  2  0  0  0  0
 24 21  1  6  0  0  0
 24 15  1  0  0  0  0
 24 19  1  0  0  0  0
 25 27  1  0  0  0  0
 25 20  1  0  0  0  0
 26 25  2  0  0  0  0
 28 32  1  0  0  0  0
 30 17  1  6  0  0  0
 31 28  1  0  0  0  0
 31 30  1  0  0  0  0
 32 30  1  0  0  0  0
 32 29  2  0  0  0  0
 33 34  1  0  0  0  0
 35 38  1  6  0  0  0
 35 37  1  0  0  0  0
 35 36  1  0  0  0  0
 37 36  1  0  0  0  0
 37 34  1  1  0  0  0
 40 39  1  6  0  0  0
 40 41  1  0  0  0  0
 40 38  1  0  0  0  0
 42 49  1  6  0  0  0
 42 53  1  0  0  0  0
 42 47  1  0  0  0  0
 42 48  1  0  0  0  0
 43 46  1  0  0  0  0
 44 51  1  6  0  0  0
 44 46  1  0  0  0  0
 44 40  1  0  0  0  0
 46 45  1  6  0  0  0
 48 50  1  0  0  0  0
 48 52  1  1  0  0  0
 50 43  1  0  0  0  0
 50 54  1  1  0  0  0
 53 44  1  0  0  0  0
 54 55  2  0  0  0  0
M  END
>  <MODEL>
5

>  <REMARK>
 VINA RESULT:      -7.2      1.730      2.288
  Name = 
  12 active torsions:
  status: ('A' for Active; 'I' for Inactive)
    1  A    between atoms: C_2  and  C_44
    2  A    between atoms: C_6  and  C_20
    3  A    between atoms: C_8  and  O_22
    4  A    between atoms: C_10  and  C_32
    5  A    between atoms: C_11  and  C_38
    6  A    between atoms: C_19  and  C_45
    7  A    between atoms: C_20  and  O_22
    8  A    between atoms: C_27  and  C_54
    9  A    between atoms: N_28  and  C_49
   10  A    between atoms: C_33  and  C_52
   11  A    between atoms: C_43  and  C_51
   12  A    between atoms: C_51  and  C_54
                            x       y       z     vdW  Elec       q    Type
                         _______ _______ _______ _____ _____    ______ ____

>  <TORSDO>
F 12

$$$$
=
 OpenBabel11052415043D

 55 61  0  0  1  0  0  0  0  0999 V2000
  191.1000  177.1830  141.3360 C   0  0  0  0  0  3  0  0  0  0  0  0
  188.8710  177.7810  142.9160 C   0  0  0  0  0  0  0  0  0  0  0  0
  188.7090  177.1370  141.6870 C   0  0  0  0  0  3  0  0  0  0  0  0
  191.2650  177.8260  142.5670 C   0  0  0  0  0  3  0  0  0  0  0  0
  189.8220  176.8330  140.8930 C   0  0  0  0  0  0  0  0  0  0  0  0
  190.1530  178.1270  143.3570 C   0  0  0  0  0  3  0  0  0  0  0  0
  189.6610  176.1800  139.5930 C   0  0  0  0  0  3  0  0  0  0  0  0
  190.3160  176.5990  138.5570 N   0  0  0  0  0  0  0  0  0  0  0  0
  186.7670  174.6710  136.2810 N   0  0  0  0  0  2  0  0  0  0  0  0
  185.4830  172.7680  135.8100 O   0  0  0  0  0  0  0  0  0  0  0  0
  188.6380  173.5180  137.3230 C   0  0  2  0  0  3  0  0  0  0  0  0
  187.6930  172.4610  136.7560 C   0  0  0  0  0  2  0  0  0  0  0  0
  186.5480  173.2720  136.2520 C   0  0  0  0  0  0  0  0  0  0  0  0
  188.0610  174.8080  136.8500 C   0  0  0  0  0  0  0  0  0  0  0  0
  190.9010  174.5430  137.3130 C   0  0  2  0  0  3  0  0  0  0  0  0
  190.0440  173.3890  136.7690 C   0  0  0  0  0  2  0  0  0  0  0  0
  188.7760  175.9400  136.7980 C   0  0  0  0  0  0  0  0  0  0  0  0
  190.2230  175.9400  137.2620 C   0  0  1  0  0  3  0  0  0  0  0  0
  192.6030  175.9780  136.1520 C   0  0  0  0  0  3  0  0  0  0  0  0
  194.9810  175.4030  136.2300 C   0  0  0  0  0  0  0  0  0  0  0  0
  193.3930  174.0800  137.5960 C   0  0  0  0  0  2  0  0  0  0  0  0
  194.7470  174.3170  136.9850 C   0  0  0  0  0  3  0  0  0  0  0  0
  193.8710  176.3310  135.9180 C   0  0  0  0  0  3  0  0  0  0  0  0
  192.2850  174.5970  136.6640 C   0  0  1  0  0  3  0  0  0  0  0  0
  196.3250  175.6660  135.6930 C   0  0  0  0  0  0  0  0  0  0  0  0
  197.0970  174.7150  135.4030 O   0  0  0  0  0  0  0  0  0  0  0  0
  196.7540  176.9720  135.4900 O   0  0  0  0  0  1  0  0  0  0  0  0
  188.5880  179.1550  136.8150 C   0  0  0  0  0  2  0  0  0  0  0  0
  186.7850  178.0310  138.1930 O   0  0  0  0  0  0  0  0  0  0  0  0
  188.1540  177.1900  136.2330 C   0  0  2  0  0  3  0  0  0  0  0  0
  189.3870  178.2560  135.4800 S   0  0  0  0  0  0  0  0  0  0  0  0
  187.6260  178.1040  137.3130 C   0  0  0  0  0  0  0  0  0  0  0  0
  187.6730  178.1290  143.7290 C   0  0  0  0  0  2  0  0  0  0  0  0
  186.4210  177.6170  143.0450 C   0  0  0  0  0  2  0  0  0  0  0  0
  184.2090  178.2390  142.1550 C   0  0  2  0  0  3  0  0  0  0  0  0
  184.2470  178.6190  143.6170 C   0  0  0  0  0  2  0  0  0  0  0  0
  185.4880  178.7730  142.7660 C   0  0  1  0  0  3  0  0  0  0  0  0
  183.5890  179.2640  141.4250 O   0  0  0  0  0  0  0  0  0  0  0  0
  183.2680  176.9920  139.9860 S   0  0  0  0  0  1  0  0  0  0  0  0
  182.8140  178.7360  140.3590 C   0  0  1  0  0  0  0  0  0  0  0  0
  181.5130  178.6960  140.8180 F   0  0  0  0  0  0  0  0  0  0  0  0
  181.2180  178.2860  137.4560 C   0  0  2  0  0  0  0  0  0  0  0  0
  181.5220  181.3450  137.9040 O   0  0  0  0  0  0  0  0  0  0  0  0
  182.8720  179.6290  139.0720 C   0  0  1  0  0  0  0  0  0  0  0  0
  180.9410  180.8170  140.1260 F   0  0  0  0  0  0  0  0  0  0  0  0
  181.9410  180.8580  139.1630 C   0  0  2  0  0  3  0  0  0  0  0  0
  181.0160  177.0910  138.1240 F   0  0  0  0  0  0  0  0  0  0  0  0
  180.0580  179.2520  137.7430 C   0  0  2  0  0  3  0  0  0  0  0  0
  181.1940  177.9710  135.9740 C   0  0  0  0  0  1  0  0  0  0  0  0
  180.3170  180.7490  137.4480 C   0  0  1  0  0  3  0  0  0  0  0  0
  184.1660  180.1350  138.9420 O   0  0  0  0  0  1  0  0  0  0  0  0
  179.4730  179.0370  138.9930 O   0  0  0  0  0  1  0  0  0  0  0  0
  182.6210  178.8190  137.7790 C   0  0  0  0  0  2  0  0  0  0  0  0
  179.1260  181.6350  137.6580 C   0  0  0  0  0  3  0  0  0  0  0  0
  179.1980  182.6290  138.3610 O   0  0  0  0  0  0  0  0  0  0  0  0
  1  4  1  0  0  0  0
  2  6  1  0  0  0  0
  2 33  1  0  0  0  0
  3  2  2  0  0  0  0
  4  6  2  0  0  0  0
  5  1  2  0  0  0  0
  5  3  1  0  0  0  0
  7  5  1  0  0  0  0
  8  7  2  0  0  0  0
  9 14  1  0  0  0  0
 10 13  2  0  0  0  0
 11 12  1  6  0  0  0
 13  9  1  0  0  0  0
 13 12  1  0  0  0  0
 14 11  1  0  0  0  0
 15 16  1  6  0  0  0
 16 11  1  0  0  0  0
 17 14  2  0  0  0  0
 17 18  1  0  0  0  0
 18 15  1  0  0  0  0
 18  8  1  1  0  0  0
 20 22  2  0  0  0  0
 22 21  1  0  0  0  0
 23 19  2  0  0  0  0
 23 20  1  0  0  0  0
 24 19  1  1  0  0  0
 24 15  1  0  0  0  0
 24 21  1  0  0  0  0
 25 20  1  0  0  0  0
 26 25  2  0  0  0  0
 27 25  1  0  0  0  0
 28 32  1  0  0  0  0
 30 17  1  1  0  0  0
 30 32  1  0  0  0  0
 31 30  1  0  0  0  0
 31 28  1  0  0  0  0
 32 29  2  0  0  0  0
 34 33  1  0  0  0  0
 35 38  1  6  0  0  0
 35 37  1  0  0  0  0
 35 36  1  0  0  0  0
 37 34  1  1  0  0  0
 37 36  1  0  0  0  0
 40 39  1  6  0  0  0
 40 41  1  0  0  0  0
 40 38  1  0  0  0  0
 42 49  1  6  0  0  0
 42 48  1  0  0  0  0
 42 53  1  0  0  0  0
 42 47  1  0  0  0  0
 43 46  1  0  0  0  0
 44 51  1  6  0  0  0
 44 46  1  0  0  0  0
 44 40  1  0  0  0  0
 46 45  1  1  0  0  0
 48 52  1  1  0  0  0
 50 54  1  1  0  0  0
 50 48  1  0  0  0  0
 50 43  1  0  0  0  0
 53 44  1  0  0  0  0
 54 55  2  0  0  0  0
M  END
>  <MODEL>
6

>  <REMARK>
 VINA RESULT:      -7.2      1.652      2.684
  Name = 
  12 active torsions:
  status: ('A' for Active; 'I' for Inactive)
    1  A    between atoms: C_2  and  C_44
    2  A    between atoms: C_6  and  C_20
    3  A    between atoms: C_8  and  O_22
    4  A    between atoms: C_10  and  C_32
    5  A    between atoms: C_11  and  C_38
    6  A    between atoms: C_19  and  C_45
    7  A    between atoms: C_20  and  O_22
    8  A    between atoms: C_27  and  C_54
    9  A    between atoms: N_28  and  C_49
   10  A    between atoms: C_33  and  C_52
   11  A    between atoms: C_43  and  C_51
   12  A    between atoms: C_51  and  C_54
                            x       y       z     vdW  Elec       q    Type
                         _______ _______ _______ _____ _____    ______ ____

>  <TORSDO>
F 12

$$$$
=
 OpenBabel11052415043D

 55 61  0  0  1  0  0  0  0  0999 V2000
  183.6910  178.8160  144.4130 C   0  0  0  0  0  3  0  0  0  0  0  0
  186.3620  178.2550  143.8070 C   0  0  0  0  0  0  0  0  0  0  0  0
  185.3700  178.0690  142.8430 C   0  0  0  0  0  3  0  0  0  0  0  0
  184.6830  179.0060  145.3800 C   0  0  0  0  0  3  0  0  0  0  0  0
  184.0300  178.3510  143.1400 C   0  0  0  0  0  0  0  0  0  0  0  0
  186.0190  178.7240  145.0800 C   0  0  0  0  0  3  0  0  0  0  0  0
  182.9790  178.1360  142.1440 C   0  0  0  0  0  3  0  0  0  0  0  0
  182.4520  179.1380  141.5140 N   0  0  0  0  0  0  0  0  0  0  0  0
  179.4250  175.7320  140.6570 N   0  0  0  0  0  2  0  0  0  0  0  0
  178.9310  173.7140  139.5740 O   0  0  0  0  0  0  0  0  0  0  0  0
  181.4110  176.2850  139.3670 C   0  0  2  0  0  3  0  0  0  0  0  0
  180.7720  175.0490  138.7370 C   0  0  0  0  0  2  0  0  0  0  0  0
  179.6470  174.7440  139.6680 C   0  0  0  0  0  0  0  0  0  0  0  0
  180.4390  176.6970  140.4190 C   0  0  0  0  0  0  0  0  0  0  0  0
  182.1190  178.6530  139.1110 C   0  0  2  0  0  3  0  0  0  0  0  0
  181.5600  177.4230  138.3760 C   0  0  0  0  0  2  0  0  0  0  0  0
  180.4230  177.9320  140.9380 C   0  0  0  0  0  0  0  0  0  0  0  0
  181.4450  178.9580  140.4770 C   0  0  1  0  0  3  0  0  0  0  0  0
  181.1680  179.7760  137.0770 C   0  0  0  0  0  3  0  0  0  0  0  0
  181.1400  182.2170  136.8990 C   0  0  0  0  0  0  0  0  0  0  0  0
  181.8710  181.1890  139.0310 C   0  0  0  0  0  2  0  0  0  0  0  0
  181.7150  182.3630  138.1040 C   0  0  0  0  0  3  0  0  0  0  0  0
  180.7410  180.8690  136.4370 C   0  0  0  0  0  3  0  0  0  0  0  0
  182.1290  179.9020  138.2300 C   0  0  1  0  0  3  0  0  0  0  0  0
  180.9270  183.3810  136.0250 C   0  0  0  0  0  0  0  0  0  0  0  0
  180.4640  183.2340  134.8630 O   0  0  0  0  0  0  0  0  0  0  0  0
  181.2280  184.6590  136.4770 O   0  0  0  0  0  1  0  0  0  0  0  0
  179.6260  179.5290  143.6190 C   0  0  0  0  0  2  0  0  0  0  0  0
  180.1400  177.0820  144.0180 O   0  0  0  0  0  0  0  0  0  0  0  0
  179.3620  178.3060  141.9390 C   0  0  2  0  0  3  0  0  0  0  0  0
  179.1020  180.0810  141.9910 S   0  0  0  0  0  0  0  0  0  0  0  0
  179.8020  178.0520  143.3610 C   0  0  0  0  0  0  0  0  0  0  0  0
  187.7760  177.9140  143.4850 C   0  0  0  0  0  2  0  0  0  0  0  0
  187.8460  177.2510  142.1230 C   0  0  0  0  0  2  0  0  0  0  0  0
  188.6460  177.8460  139.8700 C   0  0  2  0  0  3  0  0  0  0  0  0
  188.5650  179.1150  140.6860 C   0  0  0  0  0  2  0  0  0  0  0  0
  189.0050  177.8250  141.3410 C   0  0  1  0  0  3  0  0  0  0  0  0
  189.8260  177.8560  139.1110 O   0  0  0  0  0  0  0  0  0  0  0  0
  187.9780  176.5150  137.6550 S   0  0  0  0  0  1  0  0  0  0  0  0
  189.7250  176.9830  137.9960 C   0  0  1  0  0  0  0  0  0  0  0  0
  190.1400  177.7140  136.9020 F   0  0  0  0  0  0  0  0  0  0  0  0
  190.1720  174.5010  135.8020 C   0  0  2  0  0  0  0  0  0  0  0  0
  192.8330  174.8780  137.3580 O   0  0  0  0  0  0  0  0  0  0  0  0
  190.6380  175.7170  138.1370 C   0  0  1  0  0  0  0  0  0  0  0  0
  192.3740  177.1720  137.0780 F   0  0  0  0  0  0  0  0  0  0  0  0
  192.1150  176.0130  137.7980 C   0  0  2  0  0  3  0  0  0  0  0  0
  189.0900  175.1940  135.2890 F   0  0  0  0  0  0  0  0  0  0  0  0
  191.4770  175.0380  135.1940 C   0  0  2  0  0  3  0  0  0  0  0  0
  190.0210  173.0600  135.3590 C   0  0  0  0  0  1  0  0  0  0  0  0
  192.7830  174.6960  135.9510 C   0  0  1  0  0  3  0  0  0  0  0  0
  190.6230  175.3070  139.4710 O   0  0  0  0  0  1  0  0  0  0  0  0
  191.3920  176.3850  134.8370 O   0  0  0  0  0  1  0  0  0  0  0  0
  190.1010  174.5090  137.3360 C   0  0  0  0  0  2  0  0  0  0  0  0
  194.0330  175.1650  135.2690 C   0  0  0  0  0  3  0  0  0  0  0  0
  195.1340  174.8610  135.6970 O   0  0  0  0  0  0  0  0  0  0  0  0
  1  4  1  0  0  0  0
  2  6  1  0  0  0  0
  3  5  1  0  0  0  0
  3  2  2  0  0  0  0
  5  1  2  0  0  0  0
  6  4  2  0  0  0  0
  7  5  1  0  0  0  0
  8  7  2  0  0  0  0
 10 13  2  0  0  0  0
 11 16  1  6  0  0  0
 11 14  1  0  0  0  0
 12 11  1  0  0  0  0
 12 13  1  0  0  0  0
 13  9  1  0  0  0  0
 14  9  1  0  0  0  0
 14 17  2  0  0  0  0
 15 16  1  6  0  0  0
 15 18  1  0  0  0  0
 18 17  1  0  0  0  0
 18  8  1  1  0  0  0
 20 22  2  0  0  0  0
 22 21  1  0  0  0  0
 23 20  1  0  0  0  0
 23 19  2  0  0  0  0
 24 19  1  6  0  0  0
 24 21  1  0  0  0  0
 24 15  1  0  0  0  0
 25 27  1  0  0  0  0
 25 20  1  0  0  0  0
 26 25  2  0  0  0  0
 30 17  1  6  0  0  0
 30 31  1  0  0  0  0
 30 32  1  0  0  0  0
 31 28  1  0  0  0  0
 32 28  1  0  0  0  0
 32 29  2  0  0  0  0
 33  2  1  0  0  0  0
 34 33  1  0  0  0  0
 35 38  1  6  0  0  0
 35 36  1  0  0  0  0
 35 37  1  0  0  0  0
 36 37  1  0  0  0  0
 37 34  1  1  0  0  0
 39 40  1  0  0  0  0
 40 41  1  6  0  0  0
 40 44  1  0  0  0  0
 40 38  1  0  0  0  0
 42 49  1  6  0  0  0
 42 53  1  0  0  0  0
 43 46  1  0  0  0  0
 44 51  1  1  0  0  0
 46 45  1  6  0  0  0
 46 44  1  0  0  0  0
 47 42  1  0  0  0  0
 48 52  1  1  0  0  0
 48 42  1  0  0  0  0
 48 50  1  0  0  0  0
 50 54  1  6  0  0  0
 50 43  1  0  0  0  0
 53 44  1  0  0  0  0
 54 55  2  0  0  0  0
M  END
>  <MODEL>
7

>  <REMARK>
 VINA RESULT:      -7.2      3.629     10.122
  Name = 
  12 active torsions:
  status: ('A' for Active; 'I' for Inactive)
    1  A    between atoms: C_2  and  C_44
    2  A    between atoms: C_6  and  C_20
    3  A    between atoms: C_8  and  O_22
    4  A    between atoms: C_10  and  C_32
    5  A    between atoms: C_11  and  C_38
    6  A    between atoms: C_19  and  C_45
    7  A    between atoms: C_20  and  O_22
    8  A    between atoms: C_27  and  C_54
    9  A    between atoms: N_28  and  C_49
   10  A    between atoms: C_33  and  C_52
   11  A    between atoms: C_43  and  C_51
   12  A    between atoms: C_51  and  C_54
                            x       y       z     vdW  Elec       q    Type
                         _______ _______ _______ _____ _____    ______ ____

>  <TORSDO>
F 12

$$$$
=
 OpenBabel11052415043D

 55 61  0  0  1  0  0  0  0  0999 V2000
  180.3280  177.0450  140.1020 C   0  0  0  0  0  3  0  0  0  0  0  0
  181.7610  178.5800  141.9490 C   0  0  0  0  0  0  0  0  0  0  0  0
  182.3750  178.1420  140.7730 C   0  0  0  0  0  3  0  0  0  0  0  0
  179.7100  177.4850  141.2770 C   0  0  0  0  0  3  0  0  0  0  0  0
  181.6610  177.3750  139.8440 C   0  0  0  0  0  0  0  0  0  0  0  0
  180.4250  178.2510  142.2020 C   0  0  0  0  0  3  0  0  0  0  0  0
  182.3020  176.8900  138.6200 C   0  0  0  0  0  3  0  0  0  0  0  0
  182.3300  175.6240  138.3460 N   0  0  0  0  0  0  0  0  0  0  0  0
  181.2630  171.9920  135.6690 N   0  0  0  0  0  2  0  0  0  0  0  0
  181.5670  169.7280  135.1460 O   0  0  0  0  0  0  0  0  0  0  0  0
  183.2130  172.2320  137.1020 C   0  0  2  0  0  3  0  0  0  0  0  0
  183.2630  170.8420  136.4730 C   0  0  0  0  0  2  0  0  0  0  0  0
  181.9770  170.7710  135.7190 C   0  0  0  0  0  0  0  0  0  0  0  0
  182.0530  172.8890  136.4350 C   0  0  0  0  0  0  0  0  0  0  0  0
  184.2880  174.4530  137.3910 C   0  0  2  0  0  3  0  0  0  0  0  0
  184.4600  173.0420  136.8060 C   0  0  0  0  0  2  0  0  0  0  0  0
  181.8960  174.2190  136.4120 C   0  0  0  0  0  0  0  0  0  0  0  0
  182.9080  175.1110  137.1120 C   0  0  1  0  0  3  0  0  0  0  0  0
  185.2990  176.7360  137.6580 C   0  0  0  0  0  3  0  0  0  0  0  0
  187.6870  177.0960  137.2610 C   0  0  0  0  0  0  0  0  0  0  0  0
  186.8110  174.7790  137.2130 C   0  0  0  0  0  2  0  0  0  0  0  0
  187.8860  175.8010  136.9650 C   0  0  0  0  0  3  0  0  0  0  0  0
  186.3630  177.5400  137.7500 C   0  0  0  0  0  3  0  0  0  0  0  0
  185.4210  175.3950  136.9810 C   0  0  1  0  0  3  0  0  0  0  0  0
  188.7660  178.0800  137.0820 C   0  0  0  0  0  0  0  0  0  0  0  0
  189.5380  178.0120  136.0900 O   0  0  0  0  0  0  0  0  0  0  0  0
  188.9400  179.1030  138.0050 O   0  0  0  0  0  1  0  0  0  0  0  0
  179.9830  176.7570  135.8920 C   0  0  0  0  0  2  0  0  0  0  0  0
  178.9740  175.0360  137.4510 O   0  0  0  0  0  0  0  0  0  0  0  0
  180.7450  174.8210  135.6500 C   0  0  2  0  0  3  0  0  0  0  0  0
  181.2550  176.2690  134.7210 S   0  0  0  0  0  0  0  0  0  0  0  0
  179.7120  175.4340  136.5650 C   0  0  0  0  0  0  0  0  0  0  0  0
  182.5460  179.3630  142.9430 C   0  0  0  0  0  2  0  0  0  0  0  0
  183.5990  178.4760  143.5790 C   0  0  0  0  0  2  0  0  0  0  0  0
  186.0040  178.0210  143.2920 C   0  0  2  0  0  3  0  0  0  0  0  0
  185.5170  178.7490  142.0600 C   0  0  0  0  0  2  0  0  0  0  0  0
  184.9610  179.1120  143.4190 C   0  0  1  0  0  3  0  0  0  0  0  0
  187.2520  178.5370  143.6720 O   0  0  0  0  0  0  0  0  0  0  0  0
  187.3830  177.1330  145.9850 S   0  0  0  0  0  1  0  0  0  0  0  0
  188.0390  177.5460  144.3160 C   0  0  1  0  0  0  0  0  0  0  0  0
  187.8990  176.3990  143.5610 F   0  0  0  0  0  0  0  0  0  0  0  0
  190.6870  175.6350  143.5990 C   0  0  2  0  0  0  0  0  0  0  0  0
  191.4070  178.5650  142.8600 O   0  0  0  0  0  0  0  0  0  0  0  0
  189.5580  177.9300  144.3790 C   0  0  1  0  0  0  0  0  0  0  0  0
  189.2150  178.6150  141.9990 F   0  0  0  0  0  0  0  0  0  0  0  0
  190.0250  178.6990  143.1230 C   0  0  2  0  0  3  0  0  0  0  0  0
  189.6380  174.7350  143.6290 F   0  0  0  0  0  0  0  0  0  0  0  0
  190.8960  176.1550  142.1680 C   0  0  2  0  0  3  0  0  0  0  0  0
  191.9350  174.8710  143.9940 C   0  0  0  0  0  1  0  0  0  0  0  0
  191.7120  177.4620  142.0210 C   0  0  1  0  0  3  0  0  0  0  0  0
  189.7510  178.7970  145.4560 O   0  0  0  0  0  1  0  0  0  0  0  0
  189.7170  176.1620  141.4200 O   0  0  0  0  0  1  0  0  0  0  0  0
  190.4640  176.7120  144.6710 C   0  0  0  0  0  2  0  0  0  0  0  0
  191.9640  177.8750  140.6020 C   0  0  0  0  0  3  0  0  0  0  0  0
  192.7080  177.2310  139.8810 O   0  0  0  0  0  0  0  0  0  0  0  0
  1  4  1  0  0  0  0
  2  6  1  0  0  0  0
  2 33  1  0  0  0  0
  3  2  2  0  0  0  0
  4  6  2  0  0  0  0
  5  1  2  0  0  0  0
  5  3  1  0  0  0  0
  7  5  1  0  0  0  0
  8  7  2  0  0  0  0
  9 13  1  0  0  0  0
  9 14  1  0  0  0  0
 10 13  2  0  0  0  0
 11 12  1  6  0  0  0
 13 12  1  0  0  0  0
 14 11  1  0  0  0  0
 15 16  1  6  0  0  0
 16 11  1  0  0  0  0
 17 14  2  0  0  0  0
 17 18  1  0  0  0  0
 18 15  1  0  0  0  0
 18  8  1  1  0  0  0
 19 23  2  0  0  0  0
 20 23  1  0  0  0  0
 22 21  1  0  0  0  0
 22 20  2  0  0  0  0
 24 21  1  1  0  0  0
 24 15  1  0  0  0  0
 24 19  1  0  0  0  0
 25 20  1  0  0  0  0
 25 27  1  0  0  0  0
 26 25  2  0  0  0  0
 28 32  1  0  0  0  0
 30 17  1  1  0  0  0
 30 32  1  0  0  0  0
 31 30  1  0  0  0  0
 31 28  1  0  0  0  0
 32 29  2  0  0  0  0
 33 34  1  0  0  0  0
 35 37  1  0  0  0  0
 35 38  1  1  0  0  0
 36 35  1  0  0  0  0
 36 37  1  0  0  0  0
 37 34  1  6  0  0  0
 38 40  1  0  0  0  0
 40 41  1  6  0  0  0
 40 44  1  0  0  0  0
 40 39  1  0  0  0  0
 42 47  1  0  0  0  0
 42 49  1  1  0  0  0
 42 53  1  0  0  0  0
 43 46  1  0  0  0  0
 44 53  1  0  0  0  0
 44 51  1  1  0  0  0
 46 45  1  6  0  0  0
 46 44  1  0  0  0  0
 48 52  1  1  0  0  0
 48 42  1  0  0  0  0
 50 54  1  6  0  0  0
 50 48  1  0  0  0  0
 50 43  1  0  0  0  0
 55 54  2  0  0  0  0
M  END
>  <MODEL>
8

>  <REMARK>
 VINA RESULT:      -7.1      3.978      8.196
  Name = 
  12 active torsions:
  status: ('A' for Active; 'I' for Inactive)
    1  A    between atoms: C_2  and  C_44
    2  A    between atoms: C_6  and  C_20
    3  A    between atoms: C_8  and  O_22
    4  A    between atoms: C_10  and  C_32
    5  A    between atoms: C_11  and  C_38
    6  A    between atoms: C_19  and  C_45
    7  A    between atoms: C_20  and  O_22
    8  A    between atoms: C_27  and  C_54
    9  A    between atoms: N_28  and  C_49
   10  A    between atoms: C_33  and  C_52
   11  A    between atoms: C_43  and  C_51
   12  A    between atoms: C_51  and  C_54
                            x       y       z     vdW  Elec       q    Type
                         _______ _______ _______ _____ _____    ______ ____

>  <TORSDO>
F 12

$$$$
=
 OpenBabel11052415043D

 55 61  0  0  1  0  0  0  0  0999 V2000
  186.2360  172.9740  137.5200 C   0  0  0  0  0  3  0  0  0  0  0  0
  184.1690  174.1620  136.0580 C   0  0  0  0  0  0  0  0  0  0  0  0
  185.3830  174.8310  136.2300 C   0  0  0  0  0  3  0  0  0  0  0  0
  185.0230  172.3010  137.3480 C   0  0  0  0  0  3  0  0  0  0  0  0
  186.4220  174.2400  136.9590 C   0  0  0  0  0  0  0  0  0  0  0  0
  183.9880  172.8930  136.6190 C   0  0  0  0  0  3  0  0  0  0  0  0
  187.6900  174.9440  137.1650 C   0  0  0  0  0  3  0  0  0  0  0  0
  187.7550  175.9680  137.9550 N   0  0  0  0  0  0  0  0  0  0  0  0
  191.5000  176.7860  135.3470 N   0  0  0  0  0  2  0  0  0  0  0  0
  193.6180  176.1050  134.6090 O   0  0  0  0  0  0  0  0  0  0  0  0
  191.3300  175.2490  137.2240 C   0  0  2  0  0  3  0  0  0  0  0  0
  192.7370  175.1240  136.6420 C   0  0  0  0  0  2  0  0  0  0  0  0
  192.6840  176.0150  135.4470 C   0  0  0  0  0  0  0  0  0  0  0  0
  190.7250  176.3800  136.4650 C   0  0  0  0  0  0  0  0  0  0  0  0
  189.9010  175.8110  139.1760 C   0  0  2  0  0  3  0  0  0  0  0  0
  191.3480  175.6110  138.6960 C   0  0  0  0  0  2  0  0  0  0  0  0
  189.6610  177.0580  136.9140 C   0  0  0  0  0  0  0  0  0  0  0  0
  189.0090  176.6570  138.2270 C   0  0  1  0  0  3  0  0  0  0  0  0
  191.2000  176.4660  141.2220 C   0  0  0  0  0  3  0  0  0  0  0  0
  190.3000  178.1100  142.7970 C   0  0  0  0  0  0  0  0  0  0  0  0
  189.0750  177.6940  140.6850 C   0  0  0  0  0  2  0  0  0  0  0  0
  189.1860  178.2760  142.0670 C   0  0  0  0  0  3  0  0  0  0  0  0
  191.3980  177.2650  142.2760 C   0  0  0  0  0  3  0  0  0  0  0  0
  189.8310  176.3570  140.6030 C   0  0  1  0  0  3  0  0  0  0  0  0
  190.4300  178.7400  144.1200 C   0  0  0  0  0  0  0  0  0  0  0  0
  191.0190  179.8460  144.2490 O   0  0  0  0  0  0  0  0  0  0  0  0
  189.8960  178.1230  145.2440 O   0  0  0  0  0  1  0  0  0  0  0  0
  187.2260  179.0620  136.2600 C   0  0  0  0  0  2  0  0  0  0  0  0
  187.4490  177.1690  134.5940 O   0  0  0  0  0  0  0  0  0  0  0  0
  189.1500  178.2430  136.1370 C   0  0  2  0  0  3  0  0  0  0  0  0
  188.6500  179.5790  137.2260 S   0  0  0  0  0  0  0  0  0  0  0  0
  187.8400  177.9500  135.4440 C   0  0  0  0  0  0  0  0  0  0  0  0
  183.0620  174.8220  135.3120 C   0  0  0  0  0  2  0  0  0  0  0  0
  181.7550  174.6310  136.0570 C   0  0  0  0  0  2  0  0  0  0  0  0
  180.7140  176.2560  137.5890 C   0  0  2  0  0  3  0  0  0  0  0  0
  180.6340  174.8910  138.2330 C   0  0  0  0  0  2  0  0  0  0  0  0
  181.8530  175.2720  137.4220 C   0  0  1  0  0  3  0  0  0  0  0  0
  181.0700  177.2060  138.5580 O   0  0  0  0  0  0  0  0  0  0  0  0
  180.6240  178.7240  136.3600 S   0  0  0  0  0  1  0  0  0  0  0  0
  180.6300  178.5040  138.1870 C   0  0  1  0  0  0  0  0  0  0  0  0
  179.3100  178.5860  138.5810 F   0  0  0  0  0  0  0  0  0  0  0  0
  181.6270  178.6550  141.3740 C   0  0  2  0  0  0  0  0  0  0  0  0
  183.7540  180.1210  139.6480 O   0  0  0  0  0  0  0  0  0  0  0  0
  181.4440  179.6410  138.8960 C   0  0  1  0  0  0  0  0  0  0  0  0
  183.4330  178.3080  138.1760 F   0  0  0  0  0  0  0  0  0  0  0  0
  182.9620  179.5310  138.6360 C   0  0  2  0  0  3  0  0  0  0  0  0
  180.7450  177.5900  141.3620 F   0  0  0  0  0  0  0  0  0  0  0  0
  183.0600  178.1550  141.1340 C   0  0  2  0  0  3  0  0  0  0  0  0
  181.5800  179.2510  142.7670 C   0  0  0  0  0  1  0  0  0  0  0  0
  184.0950  179.2160  140.6880 C   0  0  1  0  0  3  0  0  0  0  0  0
  181.0490  180.8680  138.3600 O   0  0  0  0  0  1  0  0  0  0  0  0
  183.1030  176.9940  140.3600 O   0  0  0  0  0  1  0  0  0  0  0  0
  181.1300  179.7390  140.4070 C   0  0  0  0  0  2  0  0  0  0  0  0
  185.4950  178.6950  140.5550 C   0  0  0  0  0  3  0  0  0  0  0  0
  185.9980  178.5160  139.4580 O   0  0  0  0  0  0  0  0  0  0  0  0
  2  3  2  0  0  0  0
  2  6  1  0  0  0  0
  3  5  1  0  0  0  0
  4  1  1  0  0  0  0
  5  7  1  0  0  0  0
  5  1  2  0  0  0  0
  6  4  2  0  0  0  0
  7  8  2  0  0  0  0
  9 13  1  0  0  0  0
  9 14  1  0  0  0  0
 10 13  2  0  0  0  0
 11 12  1  6  0  0  0
 11 16  1  0  0  0  0
 13 12  1  0  0  0  0
 14 17  2  0  0  0  0
 14 11  1  0  0  0  0
 15 16  1  6  0  0  0
 15 24  1  0  0  0  0
 17 18  1  0  0  0  0
 18  8  1  6  0  0  0
 18 15  1  0  0  0  0
 19 23  2  0  0  0  0
 20 25  1  0  0  0  0
 21 22  1  0  0  0  0
 22 20  2  0  0  0  0
 23 20  1  0  0  0  0
 24 21  1  6  0  0  0
 24 19  1  0  0  0  0
 25 26  2  0  0  0  0
 25 27  1  0  0  0  0
 28 31  1  0  0  0  0
 29 32  2  0  0  0  0
 30 17  1  1  0  0  0
 30 31  1  0  0  0  0
 32 30  1  0  0  0  0
 32 28  1  0  0  0  0
 33 34  1  0  0  0  0
 33  2  1  0  0  0  0
 35 36  1  0  0  0  0
 35 38  1  1  0  0  0
 37 34  1  6  0  0  0
 37 35  1  0  0  0  0
 37 36  1  0  0  0  0
 40 39  1  6  0  0  0
 40 38  1  0  0  0  0
 40 41  1  0  0  0  0
 40 44  1  0  0  0  0
 42 49  1  1  0  0  0
 43 50  1  0  0  0  0
 44 51  1  6  0  0  0
 44 53  1  0  0  0  0
 46 45  1  1  0  0  0
 46 44  1  0  0  0  0
 46 43  1  0  0  0  0
 47 42  1  0  0  0  0
 48 52  1  6  0  0  0
 48 42  1  0  0  0  0
 50 54  1  6  0  0  0
 50 48  1  0  0  0  0
 53 42  1  0  0  0  0
 55 54  2  0  0  0  0
M  END
>  <MODEL>
9

>  <REMARK>
 VINA RESULT:      -6.2      2.518      6.108
  Name = 
  12 active torsions:
  status: ('A' for Active; 'I' for Inactive)
    1  A    between atoms: C_2  and  C_44
    2  A    between atoms: C_6  and  C_20
    3  A    between atoms: C_8  and  O_22
    4  A    between atoms: C_10  and  C_32
    5  A    between atoms: C_11  and  C_38
    6  A    between atoms: C_19  and  C_45
    7  A    between atoms: C_20  and  O_22
    8  A    between atoms: C_27  and  C_54
    9  A    between atoms: N_28  and  C_49
   10  A    between atoms: C_33  and  C_52
   11  A    between atoms: C_43  and  C_51
   12  A    between atoms: C_51  and  C_54
                            x       y       z     vdW  Elec       q    Type
                         _______ _______ _______ _____ _____    ______ ____

>  <TORSDO>
F 12

$$$$
