=
 OpenBabel11052415003D

 55 59  0  0  1  0  0  0  0  0999 V2000
  185.6970  178.6280  143.6690 C   0  0  0  0  0  3  0  0  0  0  0  0
  182.9040  178.7780  143.7220 C   0  0  0  0  0  0  0  0  0  0  0  0
  183.5710  178.5860  142.5090 C   0  0  0  0  0  3  0  0  0  0  0  0
  185.0320  178.8250  144.8820 C   0  0  0  0  0  3  0  0  0  0  0  0
  184.9670  178.5150  142.4800 C   0  0  0  0  0  0  0  0  0  0  0  0
  183.6360  178.9010  144.9090 C   0  0  0  0  0  3  0  0  0  0  0  0
  181.4170  178.8460  143.7430 C   0  0  0  0  0  2  0  0  0  0  0  0
  180.9080  179.6910  142.5890 C   0  0  0  0  0  2  0  0  0  0  0  0
  179.8090  178.9410  141.8590 C   0  0  0  0  0  2  0  0  0  0  0  0
  180.3750  177.6700  141.2490 C   0  0  0  0  0  2  0  0  0  0  0  0
  182.2570  178.2360  139.8530 O   0  0  0  0  0  0  0  0  0  0  0  0
  180.8820  177.9400  139.8450 C   0  0  1  0  0  0  0  0  0  0  0  0
  181.8910  176.9850  139.3100 C   0  0  1  0  0  3  0  0  0  0  0  0
  181.3200  174.7980  137.3820 C   0  0  2  0  0  3  0  0  0  0  0  0
  184.4470  177.7350  137.9060 C   0  0  0  0  0  1  0  0  0  0  0  0
  182.0390  177.0160  137.7780 C   0  0  1  0  0  3  0  0  0  0  0  0
  184.4120  172.5830  136.9850 C   0  0  0  0  0  3  0  0  0  0  0  0
  183.4830  176.9670  135.8980 F   0  0  0  0  0  0  0  0  0  0  0  0
  183.4680  176.7610  137.2690 C   0  0  1  0  0  0  0  0  0  0  0  0
  180.7760  174.4200  138.6100 O   0  0  0  0  0  1  0  0  0  0  0  0
  185.4290  173.4470  136.9420 C   0  0  0  0  0  3  0  0  0  0  0  0
  185.1770  174.9250  136.8530 C   0  0  0  0  0  2  0  0  0  0  0  0
  182.7540  174.3560  137.2620 C   0  0  0  0  0  0  0  0  0  0  0  0
  183.8780  175.3180  137.5810 C   0  0  2  0  0  3  0  0  0  0  0  0
  183.0200  173.0650  137.0420 C   0  0  0  0  0  3  0  0  0  0  0  0
  181.0970  176.1790  137.1230 O   0  0  0  0  0  0  0  0  0  0  0  0
  180.5370  180.0570  138.7720 O   0  0  0  0  0  1  0  0  0  0  0  0
  180.1220  178.8810  138.9550 C   0  0  0  0  0  0  0  0  0  0  0  0
  178.9320  178.4720  138.3690 O   0  0  0  0  0  0  0  0  0  0  0  0
  185.6680  178.2640  141.1940 C   0  0  0  0  0  2  0  0  0  0  0  0
  186.9450  178.9580  141.1920 N   0  0  0  0  0  2  0  0  0  0  0  0
  187.7230  178.4020  140.1040 C   0  0  0  0  0  2  0  0  0  0  0  0
  189.1970  178.4420  140.4660 C   0  0  0  0  0  2  0  0  0  0  0  0
  189.8840  177.0670  140.3390 C   0  0  2  0  0  3  0  0  0  0  0  0
  191.6070  177.3540  142.0190 C   0  0  0  0  0  2  0  0  0  0  0  0
  190.1940  176.9480  143.9300 C   0  0  1  0  0  3  0  0  0  0  0  0
  190.4680  176.5470  141.5840 N   0  0  0  0  0  0  0  0  0  0  0  0
  189.4740  176.5930  142.6530 C   0  0  0  0  0  2  0  0  0  0  0  0
  191.5170  177.5450  143.5160 C   0  0  0  0  0  2  0  0  0  0  0  0
  189.3840  177.8900  144.8230 C   0  0  0  0  0  2  0  0  0  0  0  0
  189.2640  177.1570  147.2070 C   0  0  0  0  0  1  0  0  0  0  0  0
  188.5450  177.1680  145.8720 C   0  0  0  0  0  2  0  0  0  0  0  0
  190.8280  177.0600  139.3030 O   0  0  0  0  0  0  0  0  0  0  0  0
  190.4120  176.0500  138.4250 C   0  0  1  0  0  3  0  0  0  0  0  0
  189.0940  176.4250  137.7500 C   0  0  0  0  0  2  0  0  0  0  0  0
  187.8940  177.9960  136.2260 C   0  0  0  0  0  1  0  0  0  0  0  0
  189.2540  177.5330  136.7170 C   0  0  0  0  0  2  0  0  0  0  0  0
  191.4840  175.6650  137.3970 C   0  0  0  0  0  2  0  0  0  0  0  0
  192.8820  175.6040  137.9380 C   0  0  0  0  0  3  0  0  0  0  0  0
  193.6190  174.5020  137.8130 C   0  0  0  0  0  3  0  0  0  0  0  0
  195.5960  173.0430  138.9340 O   0  0  0  0  0  0  0  0  0  0  0  0
  195.3930  175.5080  139.7870 O   0  0  0  0  0  1  0  0  0  0  0  0
  195.2800  174.4490  138.4730 P   0  0  2  0  0  0  0  0  0  0  0  0
  197.5370  175.3600  137.8800 O   0  0  0  0  0  1  0  0  0  0  0  0
  196.4260  174.9270  137.2380 N   0  0  0  0  0  2  0  0  0  0  0  0
  1  4  1  0  0  0  0
  2  7  1  0  0  0  0
  2  6  1  0  0  0  0
  3  2  2  0  0  0  0
  4  6  2  0  0  0  0
  5  3  1  0  0  0  0
  5  1  2  0  0  0  0
  8  7  1  0  0  0  0
  9  8  1  0  0  0  0
 10  9  1  0  0  0  0
 12 11  1  0  0  0  0
 12 10  1  1  0  0  0
 13 12  1  0  0  0  0
 13 11  1  1  0  0  0
 14 20  1  1  0  0  0
 16 26  1  6  0  0  0
 16 13  1  0  0  0  0
 17 25  1  0  0  0  0
 18 19  1  0  0  0  0
 19 24  1  0  0  0  0
 19 16  1  0  0  0  0
 19 15  1  1  0  0  0
 21 17  2  0  0  0  0
 22 21  1  0  0  0  0
 23 14  1  0  0  0  0
 23 24  1  0  0  0  0
 24 22  1  6  0  0  0
 25 23  2  0  0  0  0
 26 14  1  0  0  0  0
 27 28  1  0  0  0  0
 28 12  1  0  0  0  0
 29 28  2  0  0  0  0
 30  5  1  0  0  0  0
 31 30  1  0  0  0  0
 32 33  1  0  0  0  0
 32 31  1  0  0  0  0
 34 33  1  1  0  0  0
 34 37  1  0  0  0  0
 35 39  1  0  0  0  0
 36 40  1  6  0  0  0
 37 35  1  0  0  0  0
 37 38  1  0  0  0  0
 38 36  1  0  0  0  0
 39 36  1  0  0  0  0
 40 42  1  0  0  0  0
 42 41  1  0  0  0  0
 43 34  1  0  0  0  0
 44 48  1  6  0  0  0
 44 43  1  0  0  0  0
 45 44  1  0  0  0  0
 46 47  1  0  0  0  0
 47 45  1  0  0  0  0
 48 49  1  0  0  0  0
 50 49  2  0  0  0  0
 50 53  1  0  0  0  0
 53 51  2  1  0  0  0
 53 52  1  0  0  0  0
 55 54  1  0  0  0  0
 55 53  1  0  0  0  0
M  END
>  <MODEL>
1

>  <REMARK>
 VINA RESULT:      -7.5      0.000      0.000
  Name = 
  23 active torsions:
  status: ('A' for Active; 'I' for Inactive)
    1  A    between atoms: C_2  and  N_28
    2  A    between atoms: C_2  and  C_44
    3  A    between atoms: C_6  and  C_46
    4  A    between atoms: C_10  and  C_32
    5  A    between atoms: C_10  and  C_47
    6  A    between atoms: C_15  and  C_23
    7  A    between atoms: C_16  and  C_17
    8  A    between atoms: C_16  and  C_26
    9  A    between atoms: C_17  and  C_23
   10  A    between atoms: C_17  and  O_36
   11  A    between atoms: N_19  and  P_40
   12  A    between atoms: C_20  and  C_22
   13  A    between atoms: C_22  and  C_35
   14  A    between atoms: C_27  and  C_54
   15  A    between atoms: N_28  and  C_49
   16  A    between atoms: C_33  and  C_49
   17  A    between atoms: C_33  and  C_52
   18  A    between atoms: N_34  and  C_52
   19  A    between atoms: C_35  and  C_43
   20  A    between atoms: O_36  and  C_52
   21  A    between atoms: P_40  and  C_45
   22  A    between atoms: C_43  and  C_51
   23  A    between atoms: C_51  and  C_54
                            x       y       z     vdW  Elec       q    Type
                         _______ _______ _______ _____ _____    ______ ____

>  <TORSDO>
F 23

$$$$
=
 OpenBabel11052415003D

 55 59  0  0  1  0  0  0  0  0999 V2000
  189.0530  177.2720  146.0860 C   0  0  0  0  0  3  0  0  0  0  0  0
  186.4050  178.1400  145.8460 C   0  0  0  0  0  0  0  0  0  0  0  0
  187.1060  177.7130  144.7150 C   0  0  0  0  0  3  0  0  0  0  0  0
  188.3550  177.7040  147.2170 C   0  0  0  0  0  3  0  0  0  0  0  0
  188.4310  177.2830  144.8320 C   0  0  0  0  0  0  0  0  0  0  0  0
  187.0320  178.1390  147.0970 C   0  0  0  0  0  3  0  0  0  0  0  0
  184.9920  178.5910  145.7110 C   0  0  0  0  0  2  0  0  0  0  0  0
  184.8070  179.3850  144.4300 C   0  0  0  0  0  2  0  0  0  0  0  0
  183.4740  179.0270  143.8010 C   0  0  0  0  0  2  0  0  0  0  0  0
  183.7000  178.4570  142.4110 C   0  0  0  0  0  2  0  0  0  0  0  0
  182.7460  179.6000  140.5140 O   0  0  0  0  0  0  0  0  0  0  0  0
  182.4750  178.6810  141.5440 C   0  0  1  0  0  0  0  0  0  0  0  0
  182.5820  178.2540  140.1220 C   0  0  1  0  0  3  0  0  0  0  0  0
  181.5710  175.8450  138.7070 C   0  0  2  0  0  3  0  0  0  0  0  0
  181.5860  180.1030  137.9640 C   0  0  0  0  0  1  0  0  0  0  0  0
  181.2280  178.0760  139.4120 C   0  0  1  0  0  3  0  0  0  0  0  0
  182.7350  175.8990  135.0650 C   0  0  0  0  0  3  0  0  0  0  0  0
  179.8720  178.5470  137.5260 F   0  0  0  0  0  0  0  0  0  0  0  0
  181.1780  178.6370  137.9810 C   0  0  1  0  0  0  0  0  0  0  0  0
  182.7010  175.4580  139.4280 O   0  0  0  0  0  1  0  0  0  0  0  0
  182.5840  177.1720  134.6930 C   0  0  0  0  0  3  0  0  0  0  0  0
  181.8800  178.1540  135.5860 C   0  0  0  0  0  2  0  0  0  0  0  0
  181.9430  176.3380  137.3350 C   0  0  0  0  0  0  0  0  0  0  0  0
  182.1020  177.8190  137.0730 C   0  0  2  0  0  3  0  0  0  0  0  0
  182.3000  175.4510  136.4000 C   0  0  0  0  0  3  0  0  0  0  0  0
  180.7590  176.7370  139.4620 O   0  0  0  0  0  0  0  0  0  0  0  0
  180.7050  180.1380  142.2500 O   0  0  0  0  0  0  0  0  0  0  0  0
  181.1520  178.9610  142.1960 C   0  0  0  0  0  0  0  0  0  0  0  0
  180.4370  177.9260  142.7870 O   0  0  0  0  0  1  0  0  0  0  0  0
  189.1550  176.7860  143.6340 C   0  0  0  0  0  2  0  0  0  0  0  0
  189.0710  177.7730  142.5700 N   0  0  0  0  0  2  0  0  0  0  0  0
  189.0810  177.0430  141.3190 C   0  0  0  0  0  2  0  0  0  0  0  0
  190.1760  177.5940  140.4220 C   0  0  0  0  0  2  0  0  0  0  0  0
  189.8010  177.5590  138.9270 C   0  0  2  0  0  3  0  0  0  0  0  0
  188.8990  178.9640  137.1700 C   0  0  0  0  0  2  0  0  0  0  0  0
  186.6000  178.2860  137.4330 C   0  0  1  0  0  3  0  0  0  0  0  0
  188.7180  178.4740  138.5370 N   0  0  0  0  0  0  0  0  0  0  0  0
  187.4390  177.7710  138.5760 C   0  0  0  0  0  2  0  0  0  0  0  0
  187.5570  178.9500  136.4740 C   0  0  0  0  0  2  0  0  0  0  0  0
  185.7750  177.1850  136.7620 C   0  0  0  0  0  2  0  0  0  0  0  0
  186.5090  175.2600  135.3510 C   0  0  0  0  0  1  0  0  0  0  0  0
  186.4620  175.8240  136.7580 C   0  0  0  0  0  2  0  0  0  0  0  0
  189.5310  176.2530  138.4960 O   0  0  0  0  0  0  0  0  0  0  0  0
  190.6210  175.8910  137.6940 C   0  0  1  0  0  3  0  0  0  0  0  0
  190.1800  175.6440  136.2530 C   0  0  0  0  0  2  0  0  0  0  0  0
  189.7360  173.2760  136.9050 C   0  0  0  0  0  1  0  0  0  0  0  0
  190.3160  174.1850  135.8370 C   0  0  0  0  0  2  0  0  0  0  0  0
  191.7820  176.8920  137.7660 C   0  0  0  0  0  2  0  0  0  0  0  0
  193.1460  176.2720  137.8240 C   0  0  0  0  0  3  0  0  0  0  0  0
  193.2990  174.9490  137.8600 C   0  0  0  0  0  3  0  0  0  0  0  0
  195.6790  174.5290  136.6550 O   0  0  0  0  0  0  0  0  0  0  0  0
  194.8010  172.5570  138.1340 O   0  0  0  0  0  1  0  0  0  0  0  0
  194.9340  174.2320  137.9380 P   0  0  2  0  0  0  0  0  0  0  0  0
  197.1320  174.8370  138.9770 O   0  0  0  0  0  1  0  0  0  0  0  0
  195.8170  174.9090  139.2910 N   0  0  0  0  0  2  0  0  0  0  0  0
  1  4  1  0  0  0  0
  2  6  1  0  0  0  0
  3  5  1  0  0  0  0
  3  2  2  0  0  0  0
  5  1  2  0  0  0  0
  6  4  2  0  0  0  0
  7  2  1  0  0  0  0
  8  7  1  0  0  0  0
  9  8  1  0  0  0  0
 10  9  1  0  0  0  0
 11 12  1  0  0  0  0
 12 28  1  0  0  0  0
 12 10  1  1  0  0  0
 13 11  1  6  0  0  0
 13 12  1  0  0  0  0
 14 20  1  1  0  0  0
 14 26  1  0  0  0  0
 16 26  1  6  0  0  0
 16 13  1  0  0  0  0
 17 25  1  0  0  0  0
 18 19  1  0  0  0  0
 19 15  1  1  0  0  0
 19 16  1  0  0  0  0
 21 17  2  0  0  0  0
 21 22  1  0  0  0  0
 23 14  1  0  0  0  0
 24 22  1  6  0  0  0
 24 23  1  0  0  0  0
 24 19  1  0  0  0  0
 25 23  2  0  0  0  0
 28 27  2  0  0  0  0
 28 29  1  0  0  0  0
 30  5  1  0  0  0  0
 31 30  1  0  0  0  0
 32 31  1  0  0  0  0
 33 32  1  0  0  0  0
 34 33  1  1  0  0  0
 35 37  1  0  0  0  0
 36 40  1  6  0  0  0
 36 38  1  0  0  0  0
 37 38  1  0  0  0  0
 37 34  1  0  0  0  0
 39 35  1  0  0  0  0
 39 36  1  0  0  0  0
 41 42  1  0  0  0  0
 42 40  1  0  0  0  0
 43 34  1  0  0  0  0
 44 45  1  6  0  0  0
 44 48  1  0  0  0  0
 44 43  1  0  0  0  0
 47 45  1  0  0  0  0
 47 46  1  0  0  0  0
 48 49  1  0  0  0  0
 49 50  2  0  0  0  0
 50 53  1  0  0  0  0
 53 51  2  6  0  0  0
 53 52  1  0  0  0  0
 53 55  1  0  0  0  0
 54 55  1  0  0  0  0
M  END
>  <MODEL>
2

>  <REMARK>
 VINA RESULT:      -7.2      1.842      4.278
  Name = 
  23 active torsions:
  status: ('A' for Active; 'I' for Inactive)
    1  A    between atoms: C_2  and  N_28
    2  A    between atoms: C_2  and  C_44
    3  A    between atoms: C_6  and  C_46
    4  A    between atoms: C_10  and  C_32
    5  A    between atoms: C_10  and  C_47
    6  A    between atoms: C_15  and  C_23
    7  A    between atoms: C_16  and  C_17
    8  A    between atoms: C_16  and  C_26
    9  A    between atoms: C_17  and  C_23
   10  A    between atoms: C_17  and  O_36
   11  A    between atoms: N_19  and  P_40
   12  A    between atoms: C_20  and  C_22
   13  A    between atoms: C_22  and  C_35
   14  A    between atoms: C_27  and  C_54
   15  A    between atoms: N_28  and  C_49
   16  A    between atoms: C_33  and  C_49
   17  A    between atoms: C_33  and  C_52
   18  A    between atoms: N_34  and  C_52
   19  A    between atoms: C_35  and  C_43
   20  A    between atoms: O_36  and  C_52
   21  A    between atoms: P_40  and  C_45
   22  A    between atoms: C_43  and  C_51
   23  A    between atoms: C_51  and  C_54
                            x       y       z     vdW  Elec       q    Type
                         _______ _______ _______ _____ _____    ______ ____

>  <TORSDO>
F 23

$$$$
=
 OpenBabel11052415003D

 55 59  0  0  1  0  0  0  0  0999 V2000
  188.7170  177.2810  144.7850 C   0  0  0  0  0  3  0  0  0  0  0  0
  186.0820  178.1280  145.1950 C   0  0  0  0  0  0  0  0  0  0  0  0
  186.5650  177.9470  143.8950 C   0  0  0  0  0  3  0  0  0  0  0  0
  188.2370  177.4660  146.0850 C   0  0  0  0  0  3  0  0  0  0  0  0
  187.8820  177.5290  143.6890 C   0  0  0  0  0  0  0  0  0  0  0  0
  186.9210  177.8900  146.2900 C   0  0  0  0  0  3  0  0  0  0  0  0
  184.6760  178.5690  145.4040 C   0  0  0  0  0  2  0  0  0  0  0  0
  184.2440  179.5140  144.2970 C   0  0  0  0  0  2  0  0  0  0  0  0
  182.9580  179.0070  143.6720 C   0  0  0  0  0  2  0  0  0  0  0  0
  183.2430  178.4630  142.2820 C   0  0  0  0  0  2  0  0  0  0  0  0
  182.3880  179.5740  140.3210 O   0  0  0  0  0  0  0  0  0  0  0  0
  182.0540  178.6980  141.3700 C   0  0  1  0  0  0  0  0  0  0  0  0
  182.1910  178.2220  139.9660 C   0  0  1  0  0  3  0  0  0  0  0  0
  181.1270  175.7910  138.6310 C   0  0  2  0  0  3  0  0  0  0  0  0
  181.3440  180.0040  137.6920 C   0  0  0  0  0  1  0  0  0  0  0  0
  180.8540  178.0650  139.2200 C   0  0  1  0  0  3  0  0  0  0  0  0
  182.4110  175.6230  135.0330 C   0  0  0  0  0  3  0  0  0  0  0  0
  179.5810  178.4990  137.2670 F   0  0  0  0  0  0  0  0  0  0  0  0
  180.8750  178.5590  137.7630 C   0  0  1  0  0  0  0  0  0  0  0  0
  182.2150  175.3940  139.4080 O   0  0  0  0  0  1  0  0  0  0  0  0
  182.3240  176.8830  134.5970 C   0  0  0  0  0  3  0  0  0  0  0  0
  181.6340  177.9340  135.4180 C   0  0  0  0  0  2  0  0  0  0  0  0
  181.5640  176.2020  137.2510 C   0  0  0  0  0  0  0  0  0  0  0  0
  181.7930  177.6620  136.9260 C   0  0  2  0  0  3  0  0  0  0  0  0
  181.9140  175.2570  136.3710 C   0  0  0  0  0  3  0  0  0  0  0  0
  180.3290  176.7490  139.3150 O   0  0  0  0  0  0  0  0  0  0  0  0
  180.3220  180.2370  141.9890 O   0  0  0  0  0  0  0  0  0  0  0  0
  180.7220  179.0420  141.9700 C   0  0  0  0  0  0  0  0  0  0  0  0
  179.9450  178.0480  142.5510 O   0  0  0  0  0  1  0  0  0  0  0  0
  188.3750  177.2940  142.3060 C   0  0  0  0  0  2  0  0  0  0  0  0
  188.3970  178.5510  141.5770 N   0  0  0  0  0  2  0  0  0  0  0  0
  187.7190  178.3170  140.3190 C   0  0  0  0  0  2  0  0  0  0  0  0
  188.5900  178.8120  139.1770 C   0  0  0  0  0  2  0  0  0  0  0  0
  188.4460  177.9610  137.9000 C   0  0  2  0  0  3  0  0  0  0  0  0
  187.0570  178.1090  135.9190 C   0  0  0  0  0  2  0  0  0  0  0  0
  185.7040  176.1690  136.3900 C   0  0  1  0  0  3  0  0  0  0  0  0
  187.0800  177.8730  137.3620 N   0  0  0  0  0  0  0  0  0  0  0  0
  186.5460  176.5330  137.5880 C   0  0  0  0  0  2  0  0  0  0  0  0
  186.1190  177.1080  135.2840 C   0  0  0  0  0  2  0  0  0  0  0  0
  185.8480  174.6990  135.9900 C   0  0  0  0  0  2  0  0  0  0  0  0
  184.7860  173.1960  137.6770 C   0  0  0  0  0  1  0  0  0  0  0  0
  186.0970  173.7660  137.1700 C   0  0  0  0  0  2  0  0  0  0  0  0
  189.0000  176.6850  138.0690 O   0  0  0  0  0  0  0  0  0  0  0  0
  190.3880  176.8720  138.0410 C   0  0  1  0  0  3  0  0  0  0  0  0
  191.0230  176.4310  139.3580 C   0  0  0  0  0  2  0  0  0  0  0  0
  192.9180  177.2360  140.7690 C   0  0  0  0  0  1  0  0  0  0  0  0
  191.5720  177.5980  140.1690 C   0  0  0  0  0  2  0  0  0  0  0  0
  191.0630  176.2040  136.8360 C   0  0  0  0  0  2  0  0  0  0  0  0
  192.5480  176.0340  136.9610 C   0  0  0  0  0  3  0  0  0  0  0  0
  193.0930  174.8270  137.0990 C   0  0  0  0  0  3  0  0  0  0  0  0
  195.2840  174.9770  138.6700 O   0  0  0  0  0  1  0  0  0  0  0  0
  195.6280  175.7120  136.1820 O   0  0  0  0  0  0  0  0  0  0  0  0
  194.8650  174.6490  137.2540 P   0  0  2  0  0  0  0  0  0  0  0  0
  194.1940  172.3310  136.5790 O   0  0  0  0  0  1  0  0  0  0  0  0
  195.3320  173.0040  136.8750 N   0  0  0  0  0  2  0  0  0  0  0  0
  1  4  1  0  0  0  0
  2  7  1  0  0  0  0
  2  6  1  0  0  0  0
  3  2  2  0  0  0  0
  4  6  2  0  0  0  0
  5  3  1  0  0  0  0
  5  1  2  0  0  0  0
  8  7  1  0  0  0  0
  9  8  1  0  0  0  0
 10  9  1  0  0  0  0
 11 12  1  0  0  0  0
 12 28  1  0  0  0  0
 12 10  1  1  0  0  0
 13 11  1  6  0  0  0
 13 12  1  0  0  0  0
 14 26  1  0  0  0  0
 14 20  1  1  0  0  0
 16 26  1  6  0  0  0
 16 13  1  0  0  0  0
 17 25  1  0  0  0  0
 18 19  1  0  0  0  0
 19 15  1  6  0  0  0
 19 16  1  0  0  0  0
 21 17  2  0  0  0  0
 21 22  1  0  0  0  0
 23 14  1  0  0  0  0
 24 22  1  6  0  0  0
 24 23  1  0  0  0  0
 24 19  1  0  0  0  0
 25 23  2  0  0  0  0
 28 27  2  0  0  0  0
 28 29  1  0  0  0  0
 30  5  1  0  0  0  0
 31 30  1  0  0  0  0
 32 31  1  0  0  0  0
 33 32  1  0  0  0  0
 34 43  1  0  0  0  0
 34 33  1  1  0  0  0
 35 37  1  0  0  0  0
 36 40  1  6  0  0  0
 36 38  1  0  0  0  0
 37 38  1  0  0  0  0
 37 34  1  0  0  0  0
 39 35  1  0  0  0  0
 39 36  1  0  0  0  0
 40 42  1  0  0  0  0
 42 41  1  0  0  0  0
 44 48  1  6  0  0  0
 44 43  1  0  0  0  0
 44 45  1  0  0  0  0
 45 47  1  0  0  0  0
 47 46  1  0  0  0  0
 48 49  1  0  0  0  0
 49 50  2  0  0  0  0
 50 53  1  0  0  0  0
 53 52  2  6  0  0  0
 53 51  1  0  0  0  0
 54 55  1  0  0  0  0
 55 53  1  0  0  0  0
M  END
>  <MODEL>
3

>  <REMARK>
 VINA RESULT:      -6.8      1.845      4.449
  Name = 
  23 active torsions:
  status: ('A' for Active; 'I' for Inactive)
    1  A    between atoms: C_2  and  N_28
    2  A    between atoms: C_2  and  C_44
    3  A    between atoms: C_6  and  C_46
    4  A    between atoms: C_10  and  C_32
    5  A    between atoms: C_10  and  C_47
    6  A    between atoms: C_15  and  C_23
    7  A    between atoms: C_16  and  C_17
    8  A    between atoms: C_16  and  C_26
    9  A    between atoms: C_17  and  C_23
   10  A    between atoms: C_17  and  O_36
   11  A    between atoms: N_19  and  P_40
   12  A    between atoms: C_20  and  C_22
   13  A    between atoms: C_22  and  C_35
   14  A    between atoms: C_27  and  C_54
   15  A    between atoms: N_28  and  C_49
   16  A    between atoms: C_33  and  C_49
   17  A    between atoms: C_33  and  C_52
   18  A    between atoms: N_34  and  C_52
   19  A    between atoms: C_35  and  C_43
   20  A    between atoms: O_36  and  C_52
   21  A    between atoms: P_40  and  C_45
   22  A    between atoms: C_43  and  C_51
   23  A    between atoms: C_51  and  C_54
                            x       y       z     vdW  Elec       q    Type
                         _______ _______ _______ _____ _____    ______ ____

>  <TORSDO>
F 23

$$$$
=
 OpenBabel11052415003D

 55 59  0  0  1  0  0  0  0  0999 V2000
  189.8690  177.4630  144.8000 C   0  0  0  0  0  3  0  0  0  0  0  0
  187.1420  177.6950  144.2200 C   0  0  0  0  0  0  0  0  0  0  0  0
  188.0720  177.5960  143.1810 C   0  0  0  0  0  3  0  0  0  0  0  0
  188.9410  177.5670  145.8400 C   0  0  0  0  0  3  0  0  0  0  0  0
  189.4350  177.4850  143.4690 C   0  0  0  0  0  0  0  0  0  0  0  0
  187.5780  177.6840  145.5500 C   0  0  0  0  0  3  0  0  0  0  0  0
  185.6920  177.8080  143.9030 C   0  0  0  0  0  2  0  0  0  0  0  0
  185.1130  179.0770  144.5020 C   0  0  0  0  0  2  0  0  0  0  0  0
  183.8950  179.5040  143.7050 C   0  0  0  0  0  2  0  0  0  0  0  0
  183.2990  178.2990  142.9970 C   0  0  0  0  0  2  0  0  0  0  0  0
  182.4670  179.6830  141.2070 O   0  0  0  0  0  0  0  0  0  0  0  0
  182.1030  178.7160  142.1630 C   0  0  1  0  0  0  0  0  0  0  0  0
  182.1640  178.3970  140.7100 C   0  0  1  0  0  3  0  0  0  0  0  0
  180.9110  176.2310  139.1080 C   0  0  2  0  0  3  0  0  0  0  0  0
  181.3570  180.5120  138.7250 C   0  0  0  0  0  1  0  0  0  0  0  0
  180.7970  178.4170  140.0010 C   0  0  1  0  0  3  0  0  0  0  0  0
  182.0710  176.4730  135.4730 C   0  0  0  0  0  3  0  0  0  0  0  0
  179.4930  179.1800  138.1740 F   0  0  0  0  0  0  0  0  0  0  0  0
  180.8020  179.0990  138.6220 C   0  0  1  0  0  0  0  0  0  0  0  0
  181.9970  175.6720  139.7840 O   0  0  0  0  0  1  0  0  0  0  0  0
  182.0480  177.7820  135.2100 C   0  0  0  0  0  3  0  0  0  0  0  0
  181.4490  178.7510  136.1880 C   0  0  0  0  0  2  0  0  0  0  0  0
  181.3300  176.7970  137.7790 C   0  0  0  0  0  0  0  0  0  0  0  0
  181.6380  178.2720  137.6400 C   0  0  2  0  0  3  0  0  0  0  0  0
  181.5940  175.9600  136.7690 C   0  0  0  0  0  3  0  0  0  0  0  0
  180.1950  177.1320  139.9430 O   0  0  0  0  0  0  0  0  0  0  0  0
  180.0820  178.1780  143.3370 O   0  0  0  0  0  1  0  0  0  0  0  0
  180.8160  179.0770  142.8480 C   0  0  0  0  0  0  0  0  0  0  0  0
  180.4080  180.4030  142.9010 O   0  0  0  0  0  0  0  0  0  0  0  0
  190.4150  177.3330  142.3620 C   0  0  0  0  0  2  0  0  0  0  0  0
  189.7060  177.1140  141.1120 N   0  0  0  0  0  2  0  0  0  0  0  0
  190.5820  177.5600  140.0490 C   0  0  0  0  0  2  0  0  0  0  0  0
  191.0880  176.3570  139.2730 C   0  0  0  0  0  2  0  0  0  0  0  0
  190.7280  176.4140  137.7750 C   0  0  2  0  0  3  0  0  0  0  0  0
  193.1350  176.5180  137.5050 C   0  0  0  0  0  2  0  0  0  0  0  0
  193.3650  174.4330  136.3150 C   0  0  1  0  0  3  0  0  0  0  0  0
  191.8590  176.2160  136.8560 N   0  0  0  0  0  0  0  0  0  0  0  0
  191.9120  174.8210  136.4310 C   0  0  0  0  0  2  0  0  0  0  0  0
  194.1390  175.4610  137.1050 C   0  0  0  0  0  2  0  0  0  0  0  0
  193.6380  173.0060  136.7950 C   0  0  0  0  0  2  0  0  0  0  0  0
  195.8710  171.9840  137.2450 C   0  0  0  0  0  1  0  0  0  0  0  0
  194.7930  172.9050  137.7850 C   0  0  0  0  0  2  0  0  0  0  0  0
  190.0270  177.5860  137.4600 O   0  0  0  0  0  0  0  0  0  0  0  0
  188.7260  177.1710  137.1480 C   0  0  1  0  0  3  0  0  0  0  0  0
  187.7330  178.3180  137.3210 C   0  0  0  0  0  2  0  0  0  0  0  0
  185.3200  177.7500  137.6140 C   0  0  0  0  0  1  0  0  0  0  0  0
  186.6360  178.0010  138.3290 C   0  0  0  0  0  2  0  0  0  0  0  0
  188.6140  176.5320  135.7580 C   0  0  0  0  0  2  0  0  0  0  0  0
  187.8070  175.2690  135.7090 C   0  0  0  0  0  3  0  0  0  0  0  0
  187.5450  174.5770  136.8160 C   0  0  0  0  0  3  0  0  0  0  0  0
  185.8060  172.8960  138.0160 O   0  0  0  0  0  1  0  0  0  0  0  0
  187.6330  171.7550  136.5300 O   0  0  0  0  0  0  0  0  0  0  0  0
  186.5880  173.0700  136.7330 P   0  0  2  0  0  0  0  0  0  0  0  0
  184.2270  173.0330  135.8940 O   0  0  0  0  0  1  0  0  0  0  0  0
  185.4760  173.1460  135.3810 N   0  0  0  0  0  2  0  0  0  0  0  0
  1  4  1  0  0  0  0
  2  6  1  0  0  0  0
  3  5  1  0  0  0  0
  3  2  2  0  0  0  0
  5  1  2  0  0  0  0
  6  4  2  0  0  0  0
  7  2  1  0  0  0  0
  7  8  1  0  0  0  0
  9  8  1  0  0  0  0
 10  9  1  0  0  0  0
 11 12  1  0  0  0  0
 12 28  1  0  0  0  0
 12 10  1  1  0  0  0
 13 11  1  6  0  0  0
 13 12  1  0  0  0  0
 14 20  1  1  0  0  0
 14 26  1  0  0  0  0
 16 26  1  6  0  0  0
 16 13  1  0  0  0  0
 17 25  1  0  0  0  0
 18 19  1  0  0  0  0
 19 15  1  1  0  0  0
 19 16  1  0  0  0  0
 21 17  2  0  0  0  0
 21 22  1  0  0  0  0
 23 14  1  0  0  0  0
 24 22  1  6  0  0  0
 24 23  1  0  0  0  0
 24 19  1  0  0  0  0
 25 23  2  0  0  0  0
 28 29  2  0  0  0  0
 28 27  1  0  0  0  0
 30  5  1  0  0  0  0
 31 30  1  0  0  0  0
 32 31  1  0  0  0  0
 33 32  1  0  0  0  0
 34 33  1  1  0  0  0
 36 38  1  0  0  0  0
 36 40  1  1  0  0  0
 36 39  1  0  0  0  0
 37 35  1  0  0  0  0
 37 34  1  0  0  0  0
 38 37  1  0  0  0  0
 39 35  1  0  0  0  0
 40 42  1  0  0  0  0
 41 42  1  0  0  0  0
 43 34  1  0  0  0  0
 44 48  1  6  0  0  0
 44 45  1  0  0  0  0
 44 43  1  0  0  0  0
 45 47  1  0  0  0  0
 46 47  1  0  0  0  0
 49 48  1  0  0  0  0
 49 50  2  0  0  0  0
 53 52  2  6  0  0  0
 53 50  1  0  0  0  0
 53 51  1  0  0  0  0
 55 54  1  0  0  0  0
 55 53  1  0  0  0  0
M  END
>  <MODEL>
4

>  <REMARK>
 VINA RESULT:      -6.3      2.851      5.800
  Name = 
  23 active torsions:
  status: ('A' for Active; 'I' for Inactive)
    1  A    between atoms: C_2  and  N_28
    2  A    between atoms: C_2  and  C_44
    3  A    between atoms: C_6  and  C_46
    4  A    between atoms: C_10  and  C_32
    5  A    between atoms: C_10  and  C_47
    6  A    between atoms: C_15  and  C_23
    7  A    between atoms: C_16  and  C_17
    8  A    between atoms: C_16  and  C_26
    9  A    between atoms: C_17  and  C_23
   10  A    between atoms: C_17  and  O_36
   11  A    between atoms: N_19  and  P_40
   12  A    between atoms: C_20  and  C_22
   13  A    between atoms: C_22  and  C_35
   14  A    between atoms: C_27  and  C_54
   15  A    between atoms: N_28  and  C_49
   16  A    between atoms: C_33  and  C_49
   17  A    between atoms: C_33  and  C_52
   18  A    between atoms: N_34  and  C_52
   19  A    between atoms: C_35  and  C_43
   20  A    between atoms: O_36  and  C_52
   21  A    between atoms: P_40  and  C_45
   22  A    between atoms: C_43  and  C_51
   23  A    between atoms: C_51  and  C_54
                            x       y       z     vdW  Elec       q    Type
                         _______ _______ _______ _____ _____    ______ ____

>  <TORSDO>
F 23

$$$$
=
 OpenBabel11052415003D

 55 59  0  0  1  0  0  0  0  0999 V2000
  186.1570  178.3950  145.0250 C   0  0  0  0  0  3  0  0  0  0  0  0
  183.4920  178.7490  144.2500 C   0  0  0  0  0  0  0  0  0  0  0  0
  184.4540  178.3930  143.3020 C   0  0  0  0  0  3  0  0  0  0  0  0
  185.1960  178.7570  145.9740 C   0  0  0  0  0  3  0  0  0  0  0  0
  185.7870  178.2200  143.6860 C   0  0  0  0  0  0  0  0  0  0  0  0
  183.8640  178.9350  145.5860 C   0  0  0  0  0  3  0  0  0  0  0  0
  182.0740  178.9250  143.8320 C   0  0  0  0  0  2  0  0  0  0  0  0
  181.9760  179.0340  142.3200 C   0  0  0  0  0  2  0  0  0  0  0  0
  181.0600  177.9460  141.7930 C   0  0  0  0  0  2  0  0  0  0  0  0
  180.3590  178.4310  140.5350 C   0  0  0  0  0  2  0  0  0  0  0  0
  182.4590  177.6200  139.6730 O   0  0  0  0  0  0  0  0  0  0  0  0
  181.2850  178.3200  139.3390 C   0  0  1  0  0  0  0  0  0  0  0  0
  181.5490  176.9470  138.8290 C   0  0  1  0  0  3  0  0  0  0  0  0
  180.9590  174.9440  136.7160 C   0  0  2  0  0  3  0  0  0  0  0  0
  184.4890  176.9620  138.1810 C   0  0  0  0  0  1  0  0  0  0  0  0
  182.1000  176.9020  137.3930 C   0  0  1  0  0  3  0  0  0  0  0  0
  183.3570  171.9820  137.0350 C   0  0  0  0  0  3  0  0  0  0  0  0
  183.9250  176.4290  135.9560 F   0  0  0  0  0  0  0  0  0  0  0  0
  183.4950  176.2660  137.2630 C   0  0  1  0  0  0  0  0  0  0  0  0
  180.0310  174.7520  137.7390 O   0  0  0  0  0  1  0  0  0  0  0  0
  184.5380  172.5460  137.3010 C   0  0  0  0  0  3  0  0  0  0  0  0
  184.7130  174.0350  137.2210 C   0  0  0  0  0  2  0  0  0  0  0  0
  182.2070  174.1360  136.9540 C   0  0  0  0  0  0  0  0  0  0  0  0
  183.4170  174.7740  137.6020 C   0  0  2  0  0  3  0  0  0  0  0  0
  182.1760  172.8150  136.7490 C   0  0  0  0  0  3  0  0  0  0  0  0
  181.1800  176.3280  136.4750 O   0  0  0  0  0  0  0  0  0  0  0  0
  180.7190  180.0260  137.7500 O   0  0  0  0  0  0  0  0  0  0  0  0
  181.5880  179.5460  138.5260 C   0  0  0  0  0  0  0  0  0  0  0  0
  182.8480  180.1270  138.5910 O   0  0  0  0  0  1  0  0  0  0  0  0
  186.7970  177.7950  142.6820 C   0  0  0  0  0  2  0  0  0  0  0  0
  186.8100  178.7380  141.5750 N   0  0  0  0  0  2  0  0  0  0  0  0
  187.6560  178.1670  140.5480 C   0  0  0  0  0  2  0  0  0  0  0  0
  189.1110  178.2980  140.9630 C   0  0  0  0  0  2  0  0  0  0  0  0
  189.6250  177.0740  141.7460 C   0  0  2  0  0  3  0  0  0  0  0  0
  190.2970  178.7400  143.3730 C   0  0  0  0  0  2  0  0  0  0  0  0
  190.4280  177.2420  145.2580 C   0  0  1  0  0  3  0  0  0  0  0  0
  190.5220  177.3860  142.8690 N   0  0  0  0  0  0  0  0  0  0  0  0
  190.2690  176.4660  143.9740 C   0  0  0  0  0  2  0  0  0  0  0  0
  190.3290  178.7010  144.8840 C   0  0  0  0  0  2  0  0  0  0  0  0
  189.4020  176.8430  146.3220 C   0  0  0  0  0  2  0  0  0  0  0  0
  187.9700  177.6050  148.2190 C   0  0  0  0  0  1  0  0  0  0  0  0
  189.2330  177.8810  147.4260 C   0  0  0  0  0  2  0  0  0  0  0  0
  190.2030  176.1240  140.8930 O   0  0  0  0  0  0  0  0  0  0  0  0
  190.8890  176.8630  139.9210 C   0  0  1  0  0  3  0  0  0  0  0  0
  192.1700  177.4640  140.4960 C   0  0  0  0  0  2  0  0  0  0  0  0
  194.4470  176.5010  140.1480 C   0  0  0  0  0  1  0  0  0  0  0  0
  193.3520  177.3590  139.5400 C   0  0  0  0  0  2  0  0  0  0  0  0
  191.1650  176.0660  138.6400 C   0  0  0  0  0  2  0  0  0  0  0  0
  190.1700  176.2810  137.5380 C   0  0  0  0  0  3  0  0  0  0  0  0
  189.4910  177.4220  137.4380 C   0  0  0  0  0  3  0  0  0  0  0  0
  189.0360  177.8460  134.8100 O   0  0  0  0  0  0  0  0  0  0  0  0
  187.3690  179.0240  136.4470 O   0  0  0  0  0  1  0  0  0  0  0  0
  188.3050  177.6540  136.1210 P   0  0  2  0  0  0  0  0  0  0  0  0
  187.8850  175.3670  135.1870 O   0  0  0  0  0  1  0  0  0  0  0  0
  187.2640  176.2500  136.0050 N   0  0  0  0  0  2  0  0  0  0  0  0
  1  4  1  0  0  0  0
  2  6  1  0  0  0  0
  3  5  1  0  0  0  0
  3  2  2  0  0  0  0
  5  1  2  0  0  0  0
  6  4  2  0  0  0  0
  7  2  1  0  0  0  0
  8  7  1  0  0  0  0
  9  8  1  0  0  0  0
 10  9  1  0  0  0  0
 12 11  1  0  0  0  0
 12 10  1  1  0  0  0
 13 12  1  0  0  0  0
 13 11  1  1  0  0  0
 14 23  1  0  0  0  0
 14 20  1  1  0  0  0
 16 26  1  6  0  0  0
 16 13  1  0  0  0  0
 17 21  2  0  0  0  0
 18 19  1  0  0  0  0
 19 16  1  0  0  0  0
 19 24  1  0  0  0  0
 19 15  1  1  0  0  0
 22 21  1  0  0  0  0
 23 24  1  0  0  0  0
 24 22  1  6  0  0  0
 25 23  2  0  0  0  0
 25 17  1  0  0  0  0
 26 14  1  0  0  0  0
 27 28  2  0  0  0  0
 28 29  1  0  0  0  0
 28 12  1  0  0  0  0
 30  5  1  0  0  0  0
 31 30  1  0  0  0  0
 32 33  1  0  0  0  0
 32 31  1  0  0  0  0
 34 33  1  6  0  0  0
 34 37  1  0  0  0  0
 35 39  1  0  0  0  0
 36 40  1  1  0  0  0
 37 35  1  0  0  0  0
 37 38  1  0  0  0  0
 38 36  1  0  0  0  0
 39 36  1  0  0  0  0
 40 42  1  0  0  0  0
 42 41  1  0  0  0  0
 43 34  1  0  0  0  0
 44 48  1  6  0  0  0
 44 45  1  0  0  0  0
 44 43  1  0  0  0  0
 47 46  1  0  0  0  0
 47 45  1  0  0  0  0
 49 48  1  0  0  0  0
 50 49  2  0  0  0  0
 53 51  2  6  0  0  0
 53 52  1  0  0  0  0
 53 50  1  0  0  0  0
 54 55  1  0  0  0  0
 55 53  1  0  0  0  0
M  END
>  <MODEL>
5

>  <REMARK>
 VINA RESULT:      -6.2      2.498      3.436
  Name = 
  23 active torsions:
  status: ('A' for Active; 'I' for Inactive)
    1  A    between atoms: C_2  and  N_28
    2  A    between atoms: C_2  and  C_44
    3  A    between atoms: C_6  and  C_46
    4  A    between atoms: C_10  and  C_32
    5  A    between atoms: C_10  and  C_47
    6  A    between atoms: C_15  and  C_23
    7  A    between atoms: C_16  and  C_17
    8  A    between atoms: C_16  and  C_26
    9  A    between atoms: C_17  and  C_23
   10  A    between atoms: C_17  and  O_36
   11  A    between atoms: N_19  and  P_40
   12  A    between atoms: C_20  and  C_22
   13  A    between atoms: C_22  and  C_35
   14  A    between atoms: C_27  and  C_54
   15  A    between atoms: N_28  and  C_49
   16  A    between atoms: C_33  and  C_49
   17  A    between atoms: C_33  and  C_52
   18  A    between atoms: N_34  and  C_52
   19  A    between atoms: C_35  and  C_43
   20  A    between atoms: O_36  and  C_52
   21  A    between atoms: P_40  and  C_45
   22  A    between atoms: C_43  and  C_51
   23  A    between atoms: C_51  and  C_54
                            x       y       z     vdW  Elec       q    Type
                         _______ _______ _______ _____ _____    ______ ____

>  <TORSDO>
F 23

$$$$
=
 OpenBabel11052415003D

 55 59  0  0  1  0  0  0  0  0999 V2000
  183.2760  178.8840  144.7460 C   0  0  0  0  0  3  0  0  0  0  0  0
  186.0120  178.4360  145.1150 C   0  0  0  0  0  0  0  0  0  0  0  0
  185.5070  178.6550  143.8300 C   0  0  0  0  0  3  0  0  0  0  0  0
  183.7790  178.6600  146.0300 C   0  0  0  0  0  3  0  0  0  0  0  0
  184.1390  178.8750  143.6440 C   0  0  0  0  0  0  0  0  0  0  0  0
  185.1470  178.4350  146.2150 C   0  0  0  0  0  3  0  0  0  0  0  0
  187.4720  178.2090  145.3040 C   0  0  0  0  0  2  0  0  0  0  0  0
  187.8230  176.7560  145.0390 C   0  0  0  0  0  2  0  0  0  0  0  0
  187.9770  176.5370  143.5460 C   0  0  0  0  0  2  0  0  0  0  0  0
  189.3480  175.9520  143.2530 C   0  0  0  0  0  2  0  0  0  0  0  0
  190.5360  175.7690  141.1630 O   0  0  0  0  0  0  0  0  0  0  0  0
  189.9940  176.6800  142.0890 C   0  0  1  0  0  0  0  0  0  0  0  0
  189.3800  176.4660  140.7500 C   0  0  1  0  0  3  0  0  0  0  0  0
  187.6590  178.6270  139.6570 C   0  0  2  0  0  3  0  0  0  0  0  0
  190.5040  175.8060  138.0360 C   0  0  0  0  0  1  0  0  0  0  0  0
  189.7550  177.5330  139.7060 C   0  0  1  0  0  3  0  0  0  0  0  0
  185.6860  177.3170  136.6550 C   0  0  0  0  0  3  0  0  0  0  0  0
  190.1710  178.0590  137.4320 F   0  0  0  0  0  0  0  0  0  0  0  0
  189.6650  177.0570  138.2460 C   0  0  1  0  0  0  0  0  0  0  0  0
  187.0010  178.0940  140.7660 O   0  0  0  0  0  1  0  0  0  0  0  0
  186.5710  176.5750  135.9820 C   0  0  0  0  0  3  0  0  0  0  0  0
  188.0220  176.5760  136.3660 C   0  0  0  0  0  2  0  0  0  0  0  0
  187.3010  177.8810  138.4000 C   0  0  0  0  0  0  0  0  0  0  0  0
  188.2020  176.7820  137.8810 C   0  0  2  0  0  3  0  0  0  0  0  0
  186.0990  178.0780  137.8470 C   0  0  0  0  0  3  0  0  0  0  0  0
  189.0550  178.7540  139.9000 O   0  0  0  0  0  0  0  0  0  0  0  0
  190.5320  178.8550  142.9450 O   0  0  0  0  0  1  0  0  0  0  0  0
  190.9390  177.8140  142.3630 C   0  0  0  0  0  0  0  0  0  0  0  0
  192.2570  177.7380  141.9300 O   0  0  0  0  0  0  0  0  0  0  0  0
  183.6140  179.1540  142.2810 C   0  0  0  0  0  2  0  0  0  0  0  0
  183.9120  178.0320  141.4060 N   0  0  0  0  0  2  0  0  0  0  0  0
  183.6920  178.4890  140.0500 C   0  0  0  0  0  2  0  0  0  0  0  0
  182.2590  178.1950  139.6440 C   0  0  0  0  0  2  0  0  0  0  0  0
  181.9920  178.4560  138.1490 C   0  0  2  0  0  3  0  0  0  0  0  0
  180.1840  179.7670  139.0910 C   0  0  0  0  0  2  0  0  0  0  0  0
  180.3060  181.5780  137.5030 C   0  0  1  0  0  3  0  0  0  0  0  0
  180.7950  179.2610  137.8620 N   0  0  0  0  0  0  0  0  0  0  0  0
  181.1610  180.4200  137.0530 C   0  0  0  0  0  2  0  0  0  0  0  0
  179.7730  181.2050  138.8650 C   0  0  0  0  0  2  0  0  0  0  0  0
  181.0680  182.9050  137.5220 C   0  0  0  0  0  2  0  0  0  0  0  0
  179.0960  184.4300  137.3810 C   0  0  0  0  0  1  0  0  0  0  0  0
  180.3930  184.0090  136.7160 C   0  0  0  0  0  2  0  0  0  0  0  0
  181.9810  177.2630  137.4140 O   0  0  0  0  0  0  0  0  0  0  0  0
  181.8470  176.2410  138.3610 C   0  0  1  0  0  3  0  0  0  0  0  0
  180.6240  175.3760  138.0620 C   0  0  0  0  0  2  0  0  0  0  0  0
  179.7230  175.5880  140.3800 C   0  0  0  0  0  1  0  0  0  0  0  0
  180.1240  174.6170  139.2840 C   0  0  0  0  0  2  0  0  0  0  0  0
  183.1150  175.3910  138.5150 C   0  0  0  0  0  2  0  0  0  0  0  0
  183.3080  174.3480  137.4550 C   0  0  0  0  0  3  0  0  0  0  0  0
  184.4280  173.6310  137.3910 C   0  0  0  0  0  3  0  0  0  0  0  0
  184.2260  172.9800  134.7780 O   0  0  0  0  0  0  0  0  0  0  0  0
  183.6700  171.0580  136.4650 O   0  0  0  0  0  1  0  0  0  0  0  0
  184.6390  172.3990  136.1130 P   0  0  2  0  0  0  0  0  0  0  0  0
  187.0640  173.0250  136.1700 O   0  0  0  0  0  1  0  0  0  0  0  0
  186.3170  171.9030  136.0370 N   0  0  0  0  0  2  0  0  0  0  0  0
  1  4  1  0  0  0  0
  2  7  1  0  0  0  0
  2  6  1  0  0  0  0
  3  2  2  0  0  0  0
  4  6  2  0  0  0  0
  5  3  1  0  0  0  0
  5  1  2  0  0  0  0
  8  7  1  0  0  0  0
  9  8  1  0  0  0  0
 10  9  1  0  0  0  0
 11 12  1  0  0  0  0
 12 28  1  0  0  0  0
 12 10  1  1  0  0  0
 13 11  1  6  0  0  0
 13 12  1  0  0  0  0
 14 26  1  0  0  0  0
 14 20  1  1  0  0  0
 16 26  1  6  0  0  0
 16 13  1  0  0  0  0
 17 25  1  0  0  0  0
 18 19  1  0  0  0  0
 19 15  1  6  0  0  0
 19 16  1  0  0  0  0
 21 22  1  0  0  0  0
 21 17  2  0  0  0  0
 23 14  1  0  0  0  0
 24 22  1  6  0  0  0
 24 19  1  0  0  0  0
 24 23  1  0  0  0  0
 25 23  2  0  0  0  0
 28 27  1  0  0  0  0
 29 28  2  0  0  0  0
 30  5  1  0  0  0  0
 31 30  1  0  0  0  0
 32 31  1  0  0  0  0
 33 32  1  0  0  0  0
 34 33  1  1  0  0  0
 36 40  1  1  0  0  0
 36 39  1  0  0  0  0
 37 34  1  0  0  0  0
 37 35  1  0  0  0  0
 38 36  1  0  0  0  0
 38 37  1  0  0  0  0
 39 35  1  0  0  0  0
 42 41  1  0  0  0  0
 42 40  1  0  0  0  0
 43 34  1  0  0  0  0
 43 44  1  0  0  0  0
 44 45  1  6  0  0  0
 44 48  1  0  0  0  0
 45 47  1  0  0  0  0
 47 46  1  0  0  0  0
 49 48  1  0  0  0  0
 50 49  2  0  0  0  0
 53 51  2  6  0  0  0
 53 52  1  0  0  0  0
 53 50  1  0  0  0  0
 55 53  1  0  0  0  0
 55 54  1  0  0  0  0
M  END
>  <MODEL>
6

>  <REMARK>
 VINA RESULT:      -5.8      3.344      8.819
  Name = 
  23 active torsions:
  status: ('A' for Active; 'I' for Inactive)
    1  A    between atoms: C_2  and  N_28
    2  A    between atoms: C_2  and  C_44
    3  A    between atoms: C_6  and  C_46
    4  A    between atoms: C_10  and  C_32
    5  A    between atoms: C_10  and  C_47
    6  A    between atoms: C_15  and  C_23
    7  A    between atoms: C_16  and  C_17
    8  A    between atoms: C_16  and  C_26
    9  A    between atoms: C_17  and  C_23
   10  A    between atoms: C_17  and  O_36
   11  A    between atoms: N_19  and  P_40
   12  A    between atoms: C_20  and  C_22
   13  A    between atoms: C_22  and  C_35
   14  A    between atoms: C_27  and  C_54
   15  A    between atoms: N_28  and  C_49
   16  A    between atoms: C_33  and  C_49
   17  A    between atoms: C_33  and  C_52
   18  A    between atoms: N_34  and  C_52
   19  A    between atoms: C_35  and  C_43
   20  A    between atoms: O_36  and  C_52
   21  A    between atoms: P_40  and  C_45
   22  A    between atoms: C_43  and  C_51
   23  A    between atoms: C_51  and  C_54
                            x       y       z     vdW  Elec       q    Type
                         _______ _______ _______ _____ _____    ______ ____

>  <TORSDO>
F 23

$$$$
=
 OpenBabel11052415003D

 55 59  0  0  1  0  0  0  0  0999 V2000
  188.8730  178.0400  139.2810 C   0  0  0  0  0  3  0  0  0  0  0  0
  188.2900  176.5370  136.9950 C   0  0  0  0  0  0  0  0  0  0  0  0
  189.4560  176.2800  137.7220 C   0  0  0  0  0  3  0  0  0  0  0  0
  187.7100  178.3010  138.5510 C   0  0  0  0  0  3  0  0  0  0  0  0
  189.7510  177.0330  138.8620 C   0  0  0  0  0  0  0  0  0  0  0  0
  187.4190  177.5510  137.4080 C   0  0  0  0  0  3  0  0  0  0  0  0
  187.9820  175.7240  135.7850 C   0  0  0  0  0  2  0  0  0  0  0  0
  186.7760  176.2910  135.0570 C   0  0  0  0  0  2  0  0  0  0  0  0
  185.7200  175.2120  134.9110 C   0  0  0  0  0  2  0  0  0  0  0  0
  185.5700  174.4610  136.2230 C   0  0  0  0  0  2  0  0  0  0  0  0
  183.9270  174.4170  137.9880 O   0  0  0  0  0  0  0  0  0  0  0  0
  184.1040  174.3340  136.5940 C   0  0  1  0  0  0  0  0  0  0  0  0
  183.4770  175.5230  137.2350 C   0  0  1  0  0  3  0  0  0  0  0  0
  181.7170  177.3680  135.7110 C   0  0  2  0  0  3  0  0  0  0  0  0
  181.7350  175.6710  139.6860 C   0  0  0  0  0  1  0  0  0  0  0  0
  181.9390  175.5300  137.1810 C   0  0  1  0  0  3  0  0  0  0  0  0
  181.0120  180.4980  137.7930 C   0  0  0  0  0  3  0  0  0  0  0  0
  179.8940  176.0480  138.2640 F   0  0  0  0  0  0  0  0  0  0  0  0
  181.2620  176.2500  138.3600 C   0  0  1  0  0  0  0  0  0  0  0  0
  183.0170  177.5510  135.2380 O   0  0  0  0  0  1  0  0  0  0  0  0
  180.8090  180.0290  139.0270 C   0  0  0  0  0  3  0  0  0  0  0  0
  180.6990  178.5530  139.2790 C   0  0  0  0  0  2  0  0  0  0  0  0
  181.4330  178.2690  136.8820 C   0  0  0  0  0  0  0  0  0  0  0  0
  181.5720  177.7500  138.2960 C   0  0  2  0  0  3  0  0  0  0  0  0
  181.2270  179.5730  136.6660 C   0  0  0  0  0  3  0  0  0  0  0  0
  181.4390  175.9910  135.9350 O   0  0  0  0  0  0  0  0  0  0  0  0
  182.9590  172.2290  136.7040 O   0  0  0  0  0  1  0  0  0  0  0  0
  183.2880  173.2220  136.0010 C   0  0  0  0  0  0  0  0  0  0  0  0
  182.9320  173.2630  134.6590 O   0  0  0  0  0  0  0  0  0  0  0  0
  190.9680  176.7240  139.6570 C   0  0  0  0  0  2  0  0  0  0  0  0
  191.1680  177.7550  140.6620 N   0  0  0  0  0  2  0  0  0  0  0  0
  190.7180  177.2040  141.9230 C   0  0  0  0  0  2  0  0  0  0  0  0
  191.6530  177.6540  143.0320 C   0  0  0  0  0  2  0  0  0  0  0  0
  190.9480  177.7760  144.3980 C   0  0  2  0  0  3  0  0  0  0  0  0
  191.8420  175.5460  144.7200 C   0  0  0  0  0  2  0  0  0  0  0  0
  191.8440  175.6000  147.1310 C   0  0  1  0  0  3  0  0  0  0  0  0
  190.8440  176.5220  145.1590 N   0  0  0  0  0  0  0  0  0  0  0  0
  191.0890  176.7810  146.5740 C   0  0  0  0  0  2  0  0  0  0  0  0
  192.4250  174.8740  145.9420 C   0  0  0  0  0  2  0  0  0  0  0  0
  192.9160  176.0070  148.1440 C   0  0  0  0  0  2  0  0  0  0  0  0
  193.5820  177.4550  150.0670 C   0  0  0  0  0  1  0  0  0  0  0  0
  192.4790  177.1310  149.0770 C   0  0  0  0  0  2  0  0  0  0  0  0
  189.6950  178.3920  144.2760 O   0  0  0  0  0  0  0  0  0  0  0  0
  188.8270  177.6370  145.0750 C   0  0  1  0  0  3  0  0  0  0  0  0
  188.0680  178.5320  146.0520 C   0  0  0  0  0  2  0  0  0  0  0  0
  185.9160  178.6780  147.3080 C   0  0  0  0  0  1  0  0  0  0  0  0
  187.0550  177.7650  146.8910 C   0  0  0  0  0  2  0  0  0  0  0  0
  187.8740  176.7520  144.2610 C   0  0  0  0  0  2  0  0  0  0  0  0
  186.9860  177.4950  143.3070 C   0  0  0  0  0  3  0  0  0  0  0  0
  185.6700  177.5570  143.4990 C   0  0  0  0  0  3  0  0  0  0  0  0
  184.2220  177.5140  141.2200 O   0  0  0  0  0  0  0  0  0  0  0  0
  185.4910  179.7510  141.7080 O   0  0  0  0  0  1  0  0  0  0  0  0
  184.6300  178.4410  142.3440 P   0  0  2  0  0  0  0  0  0  0  0  0
  183.6210  179.8050  144.1880 O   0  0  0  0  0  1  0  0  0  0  0  0
  183.1970  179.0270  143.1630 N   0  0  0  0  0  2  0  0  0  0  0  0
  2  6  2  0  0  0  0
  2  3  1  0  0  0  0
  3  5  2  0  0  0  0
  4  1  2  0  0  0  0
  5  1  1  0  0  0  0
  5 30  1  0  0  0  0
  6  4  1  0  0  0  0
  7  2  1  0  0  0  0
  8  7  1  0  0  0  0
  9  8  1  0  0  0  0
  9 10  1  0  0  0  0
 12 10  1  6  0  0  0
 12 13  1  0  0  0  0
 12 11  1  0  0  0  0
 13 11  1  1  0  0  0
 14 20  1  1  0  0  0
 14 26  1  0  0  0  0
 14 23  1  0  0  0  0
 16 26  1  6  0  0  0
 16 13  1  0  0  0  0
 16 19  1  0  0  0  0
 17 21  2  0  0  0  0
 18 19  1  0  0  0  0
 19 15  1  1  0  0  0
 21 22  1  0  0  0  0
 23 24  1  0  0  0  0
 24 19  1  0  0  0  0
 24 22  1  1  0  0  0
 25 23  2  0  0  0  0
 25 17  1  0  0  0  0
 28 12  1  0  0  0  0
 28 27  1  0  0  0  0
 29 28  2  0  0  0  0
 30 31  1  0  0  0  0
 31 32  1  0  0  0  0
 32 33  1  0  0  0  0
 34 33  1  6  0  0  0
 34 37  1  0  0  0  0
 35 37  1  0  0  0  0
 35 39  1  0  0  0  0
 36 40  1  1  0  0  0
 37 38  1  0  0  0  0
 38 36  1  0  0  0  0
 39 36  1  0  0  0  0
 40 42  1  0  0  0  0
 42 41  1  0  0  0  0
 43 34  1  0  0  0  0
 43 44  1  0  0  0  0
 44 48  1  6  0  0  0
 44 45  1  0  0  0  0
 45 47  1  0  0  0  0
 47 46  1  0  0  0  0
 49 50  2  0  0  0  0
 49 48  1  0  0  0  0
 52 53  1  0  0  0  0
 53 51  2  6  0  0  0
 53 55  1  0  0  0  0
 53 50  1  0  0  0  0
 55 54  1  0  0  0  0
M  END
>  <MODEL>
7

>  <REMARK>
 VINA RESULT:      -5.2      3.660      7.454
  Name = 
  23 active torsions:
  status: ('A' for Active; 'I' for Inactive)
    1  A    between atoms: C_2  and  N_28
    2  A    between atoms: C_2  and  C_44
    3  A    between atoms: C_6  and  C_46
    4  A    between atoms: C_10  and  C_32
    5  A    between atoms: C_10  and  C_47
    6  A    between atoms: C_15  and  C_23
    7  A    between atoms: C_16  and  C_17
    8  A    between atoms: C_16  and  C_26
    9  A    between atoms: C_17  and  C_23
   10  A    between atoms: C_17  and  O_36
   11  A    between atoms: N_19  and  P_40
   12  A    between atoms: C_20  and  C_22
   13  A    between atoms: C_22  and  C_35
   14  A    between atoms: C_27  and  C_54
   15  A    between atoms: N_28  and  C_49
   16  A    between atoms: C_33  and  C_49
   17  A    between atoms: C_33  and  C_52
   18  A    between atoms: N_34  and  C_52
   19  A    between atoms: C_35  and  C_43
   20  A    between atoms: O_36  and  C_52
   21  A    between atoms: P_40  and  C_45
   22  A    between atoms: C_43  and  C_51
   23  A    between atoms: C_51  and  C_54
                            x       y       z     vdW  Elec       q    Type
                         _______ _______ _______ _____ _____    ______ ____

>  <TORSDO>
F 23

$$$$
=
 OpenBabel11052415003D

 55 59  0  0  1  0  0  0  0  0999 V2000
  185.4360  178.4730  143.3620 C   0  0  0  0  0  3  0  0  0  0  0  0
  182.6550  178.6670  143.5890 C   0  0  0  0  0  0  0  0  0  0  0  0
  183.2670  178.8280  142.3430 C   0  0  0  0  0  3  0  0  0  0  0  0
  184.8250  178.3180  144.6090 C   0  0  0  0  0  3  0  0  0  0  0  0
  184.6570  178.7350  142.2290 C   0  0  0  0  0  0  0  0  0  0  0  0
  183.4350  178.4160  144.7230 C   0  0  0  0  0  3  0  0  0  0  0  0
  181.1730  178.7610  143.6990 C   0  0  0  0  0  2  0  0  0  0  0  0
  180.6620  179.9900  142.9680 C   0  0  0  0  0  2  0  0  0  0  0  0
  179.5480  179.5870  142.0200 C   0  0  0  0  0  2  0  0  0  0  0  0
  179.7470  178.1480  141.5770 C   0  0  0  0  0  2  0  0  0  0  0  0
  181.3170  177.7520  139.7900 O   0  0  0  0  0  0  0  0  0  0  0  0
  179.9800  178.0840  140.0790 C   0  0  1  0  0  0  0  0  0  0  0  0
  180.3530  176.7550  139.5210 C   0  0  1  0  0  3  0  0  0  0  0  0
  179.2810  174.4240  138.0250 C   0  0  2  0  0  3  0  0  0  0  0  0
  182.5340  177.2200  137.4990 C   0  0  0  0  0  1  0  0  0  0  0  0
  180.1410  176.6260  138.0020 C   0  0  1  0  0  3  0  0  0  0  0  0
  182.1240  172.0110  137.1770 C   0  0  0  0  0  3  0  0  0  0  0  0
  181.1060  176.3120  135.8600 F   0  0  0  0  0  0  0  0  0  0  0  0
  181.4040  176.2430  137.2120 C   0  0  1  0  0  0  0  0  0  0  0  0
  179.0260  174.2000  139.3780 O   0  0  0  0  0  1  0  0  0  0  0  0
  183.1300  172.8090  136.8090 C   0  0  0  0  0  3  0  0  0  0  0  0
  182.9110  174.2830  136.6190 C   0  0  0  0  0  2  0  0  0  0  0  0
  180.6330  173.8930  137.6300 C   0  0  0  0  0  0  0  0  0  0  0  0
  181.8300  174.8170  137.5770 C   0  0  2  0  0  3  0  0  0  0  0  0
  180.8000  172.5730  137.4970 C   0  0  0  0  0  3  0  0  0  0  0  0
  179.0470  175.7820  137.6750 O   0  0  0  0  0  0  0  0  0  0  0  0
  178.9310  178.9610  138.1080 O   0  0  0  0  0  0  0  0  0  0  0  0
  179.4930  179.2070  139.2090 C   0  0  0  0  0  0  0  0  0  0  0  0
  179.7050  180.5240  139.5950 O   0  0  0  0  0  1  0  0  0  0  0  0
  185.2990  178.8610  140.8940 C   0  0  0  0  0  2  0  0  0  0  0  0
  186.7440  178.8920  141.0490 N   0  0  0  0  0  2  0  0  0  0  0  0
  187.2820  177.8790  140.1660 C   0  0  0  0  0  2  0  0  0  0  0  0
  188.7070  178.2450  139.7870 C   0  0  0  0  0  2  0  0  0  0  0  0
  189.5200  177.0410  139.2750 C   0  0  2  0  0  3  0  0  0  0  0  0
  191.7010  177.4840  140.2350 C   0  0  0  0  0  2  0  0  0  0  0  0
  191.1290  176.8780  142.4980 C   0  0  1  0  0  3  0  0  0  0  0  0
  190.5660  176.5620  140.1910 N   0  0  0  0  0  0  0  0  0  0  0  0
  190.0310  176.4720  141.5470 C   0  0  0  0  0  2  0  0  0  0  0  0
  192.1450  177.6300  141.6730 C   0  0  0  0  0  2  0  0  0  0  0  0
  190.6140  177.7030  143.6790 C   0  0  0  0  0  2  0  0  0  0  0  0
  188.7270  177.7110  145.3150 C   0  0  0  0  0  1  0  0  0  0  0  0
  189.8430  176.8820  144.7080 C   0  0  0  0  0  2  0  0  0  0  0  0
  190.0470  177.2820  137.9980 O   0  0  0  0  0  0  0  0  0  0  0  0
  189.2130  176.5890  137.1120 C   0  0  1  0  0  3  0  0  0  0  0  0
  188.2150  177.5360  136.4490 C   0  0  0  0  0  2  0  0  0  0  0  0
  186.5610  175.8900  137.3370 C   0  0  0  0  0  1  0  0  0  0  0  0
  186.8470  176.8990  136.2390 C   0  0  0  0  0  2  0  0  0  0  0  0
  189.9870  175.7660  136.0740 C   0  0  0  0  0  2  0  0  0  0  0  0
  191.3770  175.3800  136.4850 C   0  0  0  0  0  3  0  0  0  0  0  0
  191.9510  174.2740  136.0160 C   0  0  0  0  0  3  0  0  0  0  0  0
  193.6050  173.4910  138.0010 O   0  0  0  0  0  1  0  0  0  0  0  0
  194.6450  175.1340  136.2500 O   0  0  0  0  0  0  0  0  0  0  0  0
  193.6050  173.8290  136.5260 P   0  0  2  0  0  0  0  0  0  0  0  0
  193.4740  171.3670  136.0790 O   0  0  0  0  0  1  0  0  0  0  0  0
  194.1560  172.4400  135.6120 N   0  0  0  0  0  2  0  0  0  0  0  0
  1  4  1  0  0  0  0
  2  7  1  0  0  0  0
  2  6  1  0  0  0  0
  3  2  2  0  0  0  0
  4  6  2  0  0  0  0
  5  3  1  0  0  0  0
  5  1  2  0  0  0  0
  8  7  1  0  0  0  0
  9  8  1  0  0  0  0
 10  9  1  0  0  0  0
 11 12  1  0  0  0  0
 12 10  1  1  0  0  0
 13 11  1  6  0  0  0
 13 12  1  0  0  0  0
 14 20  1  1  0  0  0
 16 26  1  1  0  0  0
 16 13  1  0  0  0  0
 17 25  1  0  0  0  0
 18 19  1  0  0  0  0
 19 15  1  1  0  0  0
 19 24  1  0  0  0  0
 19 16  1  0  0  0  0
 21 17  2  0  0  0  0
 22 21  1  0  0  0  0
 23 14  1  0  0  0  0
 24 22  1  6  0  0  0
 24 23  1  0  0  0  0
 25 23  2  0  0  0  0
 26 14  1  0  0  0  0
 27 28  2  0  0  0  0
 28 29  1  0  0  0  0
 28 12  1  0  0  0  0
 30 31  1  0  0  0  0
 30  5  1  0  0  0  0
 32 31  1  0  0  0  0
 33 32  1  0  0  0  0
 34 33  1  1  0  0  0
 34 37  1  0  0  0  0
 35 39  1  0  0  0  0
 36 40  1  1  0  0  0
 37 35  1  0  0  0  0
 37 38  1  0  0  0  0
 38 36  1  0  0  0  0
 39 36  1  0  0  0  0
 40 42  1  0  0  0  0
 42 41  1  0  0  0  0
 43 34  1  0  0  0  0
 44 48  1  6  0  0  0
 44 43  1  0  0  0  0
 45 44  1  0  0  0  0
 47 45  1  0  0  0  0
 47 46  1  0  0  0  0
 48 49  1  0  0  0  0
 50 49  2  0  0  0  0
 50 53  1  0  0  0  0
 53 52  2  6  0  0  0
 53 51  1  0  0  0  0
 55 54  1  0  0  0  0
 55 53  1  0  0  0  0
M  END
>  <MODEL>
8

>  <REMARK>
 VINA RESULT:      -4.7      1.517      2.005
  Name = 
  23 active torsions:
  status: ('A' for Active; 'I' for Inactive)
    1  A    between atoms: C_2  and  N_28
    2  A    between atoms: C_2  and  C_44
    3  A    between atoms: C_6  and  C_46
    4  A    between atoms: C_10  and  C_32
    5  A    between atoms: C_10  and  C_47
    6  A    between atoms: C_15  and  C_23
    7  A    between atoms: C_16  and  C_17
    8  A    between atoms: C_16  and  C_26
    9  A    between atoms: C_17  and  C_23
   10  A    between atoms: C_17  and  O_36
   11  A    between atoms: N_19  and  P_40
   12  A    between atoms: C_20  and  C_22
   13  A    between atoms: C_22  and  C_35
   14  A    between atoms: C_27  and  C_54
   15  A    between atoms: N_28  and  C_49
   16  A    between atoms: C_33  and  C_49
   17  A    between atoms: C_33  and  C_52
   18  A    between atoms: N_34  and  C_52
   19  A    between atoms: C_35  and  C_43
   20  A    between atoms: O_36  and  C_52
   21  A    between atoms: P_40  and  C_45
   22  A    between atoms: C_43  and  C_51
   23  A    between atoms: C_51  and  C_54
                            x       y       z     vdW  Elec       q    Type
                         _______ _______ _______ _____ _____    ______ ____

>  <TORSDO>
F 23

$$$$
=
 OpenBabel11052415003D

 55 59  0  0  1  0  0  0  0  0999 V2000
  183.9780  179.0570  138.2410 C   0  0  0  0  0  3  0  0  0  0  0  0
  183.0320  178.5300  140.8200 C   0  0  0  0  0  0  0  0  0  0  0  0
  184.3600  178.2460  140.4910 C   0  0  0  0  0  3  0  0  0  0  0  0
  182.6480  179.3360  138.5680 C   0  0  0  0  0  3  0  0  0  0  0  0
  184.8330  178.5050  139.2020 C   0  0  0  0  0  0  0  0  0  0  0  0
  182.1750  179.0720  139.8560 C   0  0  0  0  0  3  0  0  0  0  0  0
  182.5390  178.2560  142.1990 C   0  0  0  0  0  2  0  0  0  0  0  0
  183.3460  179.0410  143.2180 C   0  0  0  0  0  2  0  0  0  0  0  0
  184.7990  178.6110  143.1540 C   0  0  0  0  0  2  0  0  0  0  0  0
  185.0640  177.5450  144.2030 C   0  0  0  0  0  2  0  0  0  0  0  0
  186.3520  177.0690  146.1850 O   0  0  0  0  0  0  0  0  0  0  0  0
  185.9860  178.0830  145.2800 C   0  0  1  0  0  0  0  0  0  0  0  0
  187.3660  177.5230  145.3130 C   0  0  1  0  0  3  0  0  0  0  0  0
  190.2080  178.0520  144.6300 C   0  0  2  0  0  3  0  0  0  0  0  0
  188.0050  177.1070  148.2260 C   0  0  0  0  0  1  0  0  0  0  0  0
  188.3780  178.3850  146.0900 C   0  0  1  0  0  3  0  0  0  0  0  0
  192.4230  175.2950  146.0830 C   0  0  0  0  0  3  0  0  0  0  0  0
  189.8120  178.5970  147.9650 F   0  0  0  0  0  0  0  0  0  0  0  0
  189.0500  177.6680  147.2740 C   0  0  1  0  0  0  0  0  0  0  0  0
  189.6140  177.4680  143.5100 O   0  0  0  0  0  1  0  0  0  0  0  0
  191.9160  175.0760  147.2990 C   0  0  0  0  0  3  0  0  0  0  0  0
  190.8570  175.9800  147.8630 C   0  0  0  0  0  2  0  0  0  0  0  0
  190.7590  177.0070  145.5610 C   0  0  0  0  0  0  0  0  0  0  0  0
  189.9510  176.5430  146.7530 C   0  0  2  0  0  3  0  0  0  0  0  0
  191.8880  176.3710  145.2300 C   0  0  0  0  0  3  0  0  0  0  0  0
  189.3370  178.9970  145.2400 O   0  0  0  0  0  0  0  0  0  0  0  0
  185.5070  179.3650  147.2510 O   0  0  0  0  0  1  0  0  0  0  0  0
  185.6220  179.3520  145.9960 C   0  0  0  0  0  0  0  0  0  0  0  0
  185.3630  180.5070  145.2690 O   0  0  0  0  0  0  0  0  0  0  0  0
  186.2590  178.2450  138.8720 C   0  0  0  0  0  2  0  0  0  0  0  0
  186.6210  178.9750  137.6680 N   0  0  0  0  0  2  0  0  0  0  0  0
  187.3760  178.0610  136.8350 C   0  0  0  0  0  2  0  0  0  0  0  0
  187.4380  176.7010  137.5070 C   0  0  0  0  0  2  0  0  0  0  0  0
  188.0540  175.6130  136.6050 C   0  0  2  0  0  3  0  0  0  0  0  0
  186.7660  173.6550  137.2210 C   0  0  0  0  0  2  0  0  0  0  0  0
  184.7350  174.3000  136.0930 C   0  0  1  0  0  3  0  0  0  0  0  0
  187.1130  174.5810  136.1440 N   0  0  0  0  0  0  0  0  0  0  0  0
  185.8720  175.2080  135.6980 C   0  0  0  0  0  2  0  0  0  0  0  0
  185.2810  173.3790  137.1570 C   0  0  0  0  0  2  0  0  0  0  0  0
  183.5000  175.0690  136.5680 C   0  0  0  0  0  2  0  0  0  0  0  0
  182.0740  175.7060  138.5160 C   0  0  0  0  0  1  0  0  0  0  0  0
  183.4660  175.2980  138.0750 C   0  0  0  0  0  2  0  0  0  0  0  0
  189.1820  175.0310  137.1990 O   0  0  0  0  0  0  0  0  0  0  0  0
  190.0670  176.0900  137.4400 C   0  0  1  0  0  3  0  0  0  0  0  0
  190.6630  175.9940  138.8430 C   0  0  0  0  0  2  0  0  0  0  0  0
  191.4130  177.5060  140.6820 C   0  0  0  0  0  1  0  0  0  0  0  0
  190.2790  177.1720  139.7300 C   0  0  0  0  0  2  0  0  0  0  0  0
  191.1590  176.2200  136.3700 C   0  0  0  0  0  2  0  0  0  0  0  0
  192.5240  175.7790  136.8070 C   0  0  0  0  0  3  0  0  0  0  0  0
  193.4840  175.5320  135.9170 C   0  0  0  0  0  3  0  0  0  0  0  0
  195.2370  175.2310  137.9490 O   0  0  0  0  0  1  0  0  0  0  0  0
  196.2860  175.8900  135.6440 O   0  0  0  0  0  0  0  0  0  0  0  0
  195.1020  174.9990  136.4600 P   0  0  2  0  0  0  0  0  0  0  0  0
  196.4370  172.9010  136.7600 O   0  0  0  0  0  1  0  0  0  0  0  0
  195.3130  173.2950  136.1150 N   0  0  0  0  0  2  0  0  0  0  0  0
  1  4  2  0  0  0  0
  1  5  1  0  0  0  0
  2  7  1  0  0  0  0
  3  2  1  0  0  0  0
  4  6  1  0  0  0  0
  5  3  2  0  0  0  0
  6  2  2  0  0  0  0
  7  8  1  0  0  0  0
  9  8  1  0  0  0  0
  9 10  1  0  0  0  0
 12 10  1  6  0  0  0
 12 13  1  0  0  0  0
 12 28  1  0  0  0  0
 12 11  1  0  0  0  0
 13 16  1  0  0  0  0
 13 11  1  1  0  0  0
 14 20  1  6  0  0  0
 14 26  1  0  0  0  0
 14 23  1  0  0  0  0
 16 26  1  6  0  0  0
 16 19  1  0  0  0  0
 17 21  2  0  0  0  0
 19 18  1  0  0  0  0
 19 15  1  1  0  0  0
 21 22  1  0  0  0  0
 23 24  1  0  0  0  0
 24 19  1  0  0  0  0
 24 22  1  1  0  0  0
 25 23  2  0  0  0  0
 25 17  1  0  0  0  0
 28 27  1  0  0  0  0
 29 28  2  0  0  0  0
 30  5  1  0  0  0  0
 31 30  1  0  0  0  0
 32 33  1  0  0  0  0
 32 31  1  0  0  0  0
 34 43  1  0  0  0  0
 34 33  1  1  0  0  0
 36 40  1  1  0  0  0
 36 39  1  0  0  0  0
 37 34  1  0  0  0  0
 37 35  1  0  0  0  0
 38 36  1  0  0  0  0
 38 37  1  0  0  0  0
 39 35  1  0  0  0  0
 40 42  1  0  0  0  0
 42 41  1  0  0  0  0
 43 44  1  0  0  0  0
 44 48  1  6  0  0  0
 44 45  1  0  0  0  0
 45 47  1  0  0  0  0
 47 46  1  0  0  0  0
 48 49  1  0  0  0  0
 50 53  1  0  0  0  0
 50 49  2  0  0  0  0
 53 52  2  6  0  0  0
 53 51  1  0  0  0  0
 55 53  1  0  0  0  0
 55 54  1  0  0  0  0
M  END
>  <MODEL>
9

>  <REMARK>
 VINA RESULT:      -4.6      3.598      7.793
  Name = 
  23 active torsions:
  status: ('A' for Active; 'I' for Inactive)
    1  A    between atoms: C_2  and  N_28
    2  A    between atoms: C_2  and  C_44
    3  A    between atoms: C_6  and  C_46
    4  A    between atoms: C_10  and  C_32
    5  A    between atoms: C_10  and  C_47
    6  A    between atoms: C_15  and  C_23
    7  A    between atoms: C_16  and  C_17
    8  A    between atoms: C_16  and  C_26
    9  A    between atoms: C_17  and  C_23
   10  A    between atoms: C_17  and  O_36
   11  A    between atoms: N_19  and  P_40
   12  A    between atoms: C_20  and  C_22
   13  A    between atoms: C_22  and  C_35
   14  A    between atoms: C_27  and  C_54
   15  A    between atoms: N_28  and  C_49
   16  A    between atoms: C_33  and  C_49
   17  A    between atoms: C_33  and  C_52
   18  A    between atoms: N_34  and  C_52
   19  A    between atoms: C_35  and  C_43
   20  A    between atoms: O_36  and  C_52
   21  A    between atoms: P_40  and  C_45
   22  A    between atoms: C_43  and  C_51
   23  A    between atoms: C_51  and  C_54
                            x       y       z     vdW  Elec       q    Type
                         _______ _______ _______ _____ _____    ______ ____

>  <TORSDO>
F 23

$$$$
