=
 OpenBabel11052413413D

 27 31  0  0  1  0  0  0  0  0999 V2000
  187.8890  176.4890  143.6150 N   0  0  0  0  0  0  0  0  0  0  0  0
  186.5800  178.4560  143.5610 C   0  0  0  0  0  0  0  0  0  0  0  0
  186.8940  178.4420  141.1700 N   0  0  0  0  0  2  0  0  0  0  0  0
  182.1880  179.2670  143.4430 C   0  0  0  0  0  3  0  0  0  0  0  0
  181.3220  177.7720  141.7090 F   0  0  0  0  0  0  0  0  0  0  0  0
  185.5820  179.1270  144.3990 C   0  0  0  0  0  3  0  0  0  0  0  0
  183.6230  178.2310  141.7170 C   0  0  0  0  0  0  0  0  0  0  0  0
  189.9770  178.2770  139.3510 N   0  0  0  0  0  0  0  0  0  0  0  0
  183.8260  177.2210  140.2910 Cl  0  0  0  0  0  0  0  0  0  0  0  0
  190.6170  177.2080  139.8810 C   0  0  0  0  0  3  0  0  0  0  0  0
  184.7770  179.0770  142.2050 C   0  0  2  0  0  3  0  0  0  0  0  0
  187.6380  177.7270  144.0980 C   0  0  0  0  0  0  0  0  0  0  0  0
  182.3930  178.4090  142.2440 C   0  0  0  0  0  0  0  0  0  0  0  0
  183.2270  179.7640  144.1250 C   0  0  0  0  0  3  0  0  0  0  0  0
  188.3590  176.1350  142.4480 O   0  0  0  0  0  0  0  0  0  0  0  0
  186.1020  178.3900  142.2620 C   0  0  2  0  0  3  0  0  0  0  0  0
  188.7770  178.6870  139.8310 C   0  0  0  0  0  3  0  0  0  0  0  0
  184.5690  179.4660  143.6260 C   0  0  1  0  0  3  0  0  0  0  0  0
  190.0420  176.5160  140.9430 C   0  0  0  0  0  3  0  0  0  0  0  0
  188.8270  176.9310  141.5000 C   0  0  0  0  0  0  0  0  0  0  0  0
  188.1670  178.0540  140.9230 C   0  0  0  0  0  0  0  0  0  0  0  0
  188.5190  177.5220  148.3120 C   0  0  0  0  0  3  0  0  0  0  0  0
  187.9630  177.9630  145.5470 C   0  0  2  0  0  3  0  0  0  0  0  0
  189.2490  177.2310  145.9370 C   0  0  0  0  0  2  0  0  0  0  0  0
  189.4900  177.2540  147.4260 C   0  0  0  0  0  3  0  0  0  0  0  0
  187.1290  177.9300  147.8920 C   0  0  0  0  0  2  0  0  0  0  0  0
  186.8180  177.5160  146.4560 C   0  0  0  0  0  2  0  0  0  0  0  0
  1 12  2  0  0  0  0
  2 12  1  0  0  0  0
  2  6  2  0  0  0  0
  4 14  2  0  0  0  0
  5 13  1  0  0  0  0
  7 13  2  0  0  0  0
  8 17  2  0  0  0  0
  8 10  1  0  0  0  0
  9  7  1  0  0  0  0
 10 19  2  0  0  0  0
 11  7  1  1  0  0  0
 11 16  1  0  0  0  0
 11 18  1  0  0  0  0
 13  4  1  0  0  0  0
 15  1  1  0  0  0  0
 16  3  1  6  0  0  0
 16  2  1  0  0  0  0
 17 21  1  0  0  0  0
 18 14  1  1  0  0  0
 18  6  1  0  0  0  0
 19 20  1  0  0  0  0
 20 15  1  0  0  0  0
 21  3  1  0  0  0  0
 21 20  2  0  0  0  0
 23 12  1  6  0  0  0
 23 24  1  0  0  0  0
 23 27  1  0  0  0  0
 24 25  1  0  0  0  0
 25 22  2  0  0  0  0
 26 22  1  0  0  0  0
 27 26  1  0  0  0  0
M  END
>  <MODEL>
1

>  <REMARK>
 VINA RESULT:      -9.3      0.000      0.000
  Name = 
  1 active torsions:
  status: ('A' for Active; 'I' for Inactive)
    1  A    between atoms: C_9  and  C_15
                            x       y       z     vdW  Elec       q    Type
                         _______ _______ _______ _____ _____    ______ ____

>  <TORSDO>
F 1

$$$$
=
 OpenBabel11052413413D

 27 31  0  0  1  0  0  0  0  0999 V2000
  186.7640  179.2980  141.7650 N   0  0  0  0  0  0  0  0  0  0  0  0
  186.9140  177.5830  143.3830 C   0  0  1  0  0  3  0  0  0  0  0  0
  189.1420  177.1760  142.5540 N   0  0  0  0  0  2  0  0  0  0  0  0
  188.0110  177.4790  147.7130 C   0  0  0  0  0  3  0  0  0  0  0  0
  190.0610  178.8070  147.8720 F   0  0  0  0  0  0  0  0  0  0  0  0
  186.2760  177.2190  144.6520 C   0  0  0  0  0  3  0  0  0  0  0  0
  189.4390  177.9910  145.7620 C   0  0  0  0  0  0  0  0  0  0  0  0
  190.1580  176.5600  139.1730 N   0  0  0  0  0  0  0  0  0  0  0  0
  190.8760  178.7230  145.0590 Cl  0  0  0  0  0  0  0  0  0  0  0  0
  189.6110  177.5820  138.4720 C   0  0  0  0  0  3  0  0  0  0  0  0
  188.5920  177.0570  144.9280 C   0  0  2  0  0  3  0  0  0  0  0  0
  186.2210  178.2070  142.3500 C   0  0  0  0  0  0  0  0  0  0  0  0
  189.2120  178.0970  147.0870 C   0  0  0  0  0  0  0  0  0  0  0  0
  187.0440  176.9340  146.9660 C   0  0  0  0  0  3  0  0  0  0  0  0
  187.8130  179.3870  140.9900 O   0  0  0  0  0  0  0  0  0  0  0  0
  188.2900  177.5230  143.5410 C   0  0  2  0  0  3  0  0  0  0  0  0
  189.9440  176.4280  140.5050 C   0  0  0  0  0  3  0  0  0  0  0  0
  187.2300  176.9320  145.5160 C   0  0  0  0  0  0  0  0  0  0  0  0
  188.8080  178.5130  139.1220 C   0  0  0  0  0  3  0  0  0  0  0  0
  188.5220  178.3900  140.4870 C   0  0  0  0  0  0  0  0  0  0  0  0
  189.1130  177.3120  141.2070 C   0  0  0  0  0  0  0  0  0  0  0  0
  181.9630  178.8470  142.1440 C   0  0  0  0  0  3  0  0  0  0  0  0
  184.7190  178.1490  142.4040 C   0  0  2  0  0  3  0  0  0  0  0  0
  184.1230  178.3060  141.0030 C   0  0  0  0  0  2  0  0  0  0  0  0
  182.6250  178.4800  141.0360 C   0  0  0  0  0  3  0  0  0  0  0  0
  182.6470  179.0140  143.4790 C   0  0  0  0  0  2  0  0  0  0  0  0
  184.1520  179.2240  143.3310 C   0  0  0  0  0  2  0  0  0  0  0  0
  1 12  2  0  0  0  0
  2 16  1  0  0  0  0
  2  6  1  1  0  0  0
  6 18  2  0  0  0  0
  7 13  2  0  0  0  0
  8 17  1  0  0  0  0
  9  7  1  0  0  0  0
 10 19  1  0  0  0  0
 10  8  2  0  0  0  0
 11 18  1  1  0  0  0
 11  7  1  0  0  0  0
 12  2  1  0  0  0  0
 13  4  1  0  0  0  0
 13  5  1  0  0  0  0
 14  4  2  0  0  0  0
 15  1  1  0  0  0  0
 16  3  1  6  0  0  0
 16 11  1  0  0  0  0
 17 21  2  0  0  0  0
 18 14  1  0  0  0  0
 19 20  2  0  0  0  0
 20 15  1  0  0  0  0
 20 21  1  0  0  0  0
 21  3  1  0  0  0  0
 22 26  1  0  0  0  0
 23 12  1  6  0  0  0
 23 27  1  0  0  0  0
 24 25  1  0  0  0  0
 24 23  1  0  0  0  0
 25 22  2  0  0  0  0
 27 26  1  0  0  0  0
M  END
>  <MODEL>
2

>  <REMARK>
 VINA RESULT:      -8.8      2.912      5.521
  Name = 
  1 active torsions:
  status: ('A' for Active; 'I' for Inactive)
    1  A    between atoms: C_9  and  C_15
                            x       y       z     vdW  Elec       q    Type
                         _______ _______ _______ _____ _____    ______ ____

>  <TORSDO>
F 1

$$$$
=
 OpenBabel11052413413D

 27 31  0  0  1  0  0  0  0  0999 V2000
  187.2190  176.8170  143.2980 N   0  0  0  0  0  0  0  0  0  0  0  0
  187.4770  178.2590  141.4450 C   0  0  0  0  0  0  0  0  0  0  0  0
  189.8460  177.8470  141.6200 N   0  0  0  0  0  2  0  0  0  0  0  0
  187.2410  177.7070  137.0170 C   0  0  0  0  0  3  0  0  0  0  0  0
  188.5690  175.7020  136.5650 F   0  0  0  0  0  0  0  0  0  0  0  0
  186.6650  178.7660  140.3340 C   0  0  0  0  0  3  0  0  0  0  0  0
  188.9040  176.8050  138.6080 C   0  0  0  0  0  0  0  0  0  0  0  0
  191.9430  178.2210  144.5020 N   0  0  0  0  0  0  0  0  0  0  0  0
  190.1390  175.6280  139.0380 Cl  0  0  0  0  0  0  0  0  0  0  0  0
  191.3060  177.5190  145.4680 C   0  0  0  0  0  3  0  0  0  0  0  0
  188.7100  178.0330  139.4690 C   0  0  2  0  0  3  0  0  0  0  0  0
  186.9410  177.9980  142.7030 C   0  0  0  0  0  0  0  0  0  0  0  0
  188.2820  176.7200  137.4140 C   0  0  0  0  0  0  0  0  0  0  0  0
  186.7810  178.6150  137.8860 C   0  0  0  0  0  3  0  0  0  0  0  0
  188.3500  176.3830  143.7920 O   0  0  0  0  0  0  0  0  0  0  0  0
  188.6810  177.7910  140.9420 C   0  0  2  0  0  3  0  0  0  0  0  0
  191.4120  178.3510  143.2610 C   0  0  0  0  0  3  0  0  0  0  0  0
  187.3660  178.6270  139.2260 C   0  0  1  0  0  3  0  0  0  0  0  0
  190.0790  176.9220  145.1930 C   0  0  0  0  0  3  0  0  0  0  0  0
  189.4720  177.0690  143.9400 C   0  0  0  0  0  0  0  0  0  0  0  0
  190.1630  177.8060  142.9360 C   0  0  0  0  0  0  0  0  0  0  0  0
  182.9370  178.9700  143.9680 C   0  0  0  0  0  3  0  0  0  0  0  0
  185.6040  178.6110  143.0150 C   0  0  2  0  0  3  0  0  0  0  0  0
  185.3480  178.6070  144.5250 C   0  0  0  0  0  2  0  0  0  0  0  0
  183.9330  179.0030  144.8650 C   0  0  0  0  0  3  0  0  0  0  0  0
  183.1660  178.6380  142.5140 C   0  0  0  0  0  2  0  0  0  0  0  0
  184.4720  177.8780  142.2970 C   0  0  0  0  0  2  0  0  0  0  0  0
  1 15  1  0  0  0  0
  2 12  1  0  0  0  0
  3 21  1  0  0  0  0
  4 13  1  0  0  0  0
  4 14  2  0  0  0  0
  5 13  1  0  0  0  0
  6  2  2  0  0  0  0
  7  9  1  0  0  0  0
  8 10  1  0  0  0  0
 11  7  1  6  0  0  0
 11 16  1  0  0  0  0
 12  1  2  0  0  0  0
 13  7  2  0  0  0  0
 15 20  1  0  0  0  0
 16  2  1  1  0  0  0
 16  3  1  0  0  0  0
 17  8  2  0  0  0  0
 18 14  1  6  0  0  0
 18 11  1  0  0  0  0
 18  6  1  0  0  0  0
 19 10  2  0  0  0  0
 20 19  1  0  0  0  0
 21 17  1  0  0  0  0
 21 20  2  0  0  0  0
 22 25  2  0  0  0  0
 23 12  1  1  0  0  0
 23 24  1  0  0  0  0
 24 25  1  0  0  0  0
 26 22  1  0  0  0  0
 27 26  1  0  0  0  0
 27 23  1  0  0  0  0
M  END
>  <MODEL>
3

>  <REMARK>
 VINA RESULT:      -8.3      2.903      5.284
  Name = 
  1 active torsions:
  status: ('A' for Active; 'I' for Inactive)
    1  A    between atoms: C_9  and  C_15
                            x       y       z     vdW  Elec       q    Type
                         _______ _______ _______ _____ _____    ______ ____

>  <TORSDO>
F 1

$$$$
=
 OpenBabel11052413413D

 27 31  0  0  1  0  0  0  0  0999 V2000
  186.7960  179.1690  141.2070 N   0  0  0  0  0  0  0  0  0  0  0  0
  187.3850  177.4380  142.7030 C   0  0  0  0  0  0  0  0  0  0  0  0
  189.1340  176.8650  141.1440 N   0  0  0  0  0  2  0  0  0  0  0  0
  189.9430  177.2250  146.3600 C   0  0  0  0  0  3  0  0  0  0  0  0
  192.0070  178.3900  145.7500 F   0  0  0  0  0  0  0  0  0  0  0  0
  187.2160  177.1180  144.1230 C   0  0  0  0  0  3  0  0  0  0  0  0
  190.6150  177.6360  144.0180 C   0  0  0  0  0  0  0  0  0  0  0  0
  188.8300  176.1920  137.6380 N   0  0  0  0  0  0  0  0  0  0  0  0
  191.7570  178.2590  142.8330 Cl  0  0  0  0  0  0  0  0  0  0  0  0
  188.1470  177.2560  137.1550 C   0  0  0  0  0  3  0  0  0  0  0  0
  189.4590  176.7760  143.5610 C   0  0  2  0  0  3  0  0  0  0  0  0
  186.4180  178.1200  141.9700 C   0  0  0  0  0  0  0  0  0  0  0  0
  190.8840  177.7520  145.3350 C   0  0  0  0  0  0  0  0  0  0  0  0
  188.7350  176.7610  146.0190 C   0  0  0  0  0  3  0  0  0  0  0  0
  187.5040  179.1810  140.1080 O   0  0  0  0  0  0  0  0  0  0  0  0
  188.7190  177.2710  142.3620 C   0  0  2  0  0  3  0  0  0  0  0  0
  189.0960  176.0690  138.9620 C   0  0  0  0  0  3  0  0  0  0  0  0
  188.3910  176.7520  144.5980 C   0  0  1  0  0  3  0  0  0  0  0  0
  187.7000  178.2430  138.0270 C   0  0  0  0  0  3  0  0  0  0  0  0
  187.9110  178.1350  139.4070 C   0  0  0  0  0  0  0  0  0  0  0  0
  188.6370  177.0100  139.8930 C   0  0  0  0  0  0  0  0  0  0  0  0
  182.3850  179.0360  143.1850 C   0  0  0  0  0  3  0  0  0  0  0  0
  185.0340  178.1780  142.5570 C   0  0  2  0  0  3  0  0  0  0  0  0
  183.9790  178.2020  141.4480 C   0  0  0  0  0  2  0  0  0  0  0  0
  182.5970  178.4860  141.9800 C   0  0  0  0  0  3  0  0  0  0  0  0
  183.5050  179.3180  144.1560 C   0  0  0  0  0  2  0  0  0  0  0  0
  184.8610  179.3980  143.4600 C   0  0  0  0  0  2  0  0  0  0  0  0
  1 12  2  0  0  0  0
  2  6  2  0  0  0  0
  7 13  2  0  0  0  0
  8 17  1  0  0  0  0
  9  7  1  0  0  0  0
 10  8  2  0  0  0  0
 10 19  1  0  0  0  0
 11  7  1  1  0  0  0
 11 18  1  0  0  0  0
 12  2  1  0  0  0  0
 13  5  1  0  0  0  0
 13  4  1  0  0  0  0
 14  4  2  0  0  0  0
 15  1  1  0  0  0  0
 16  3  1  6  0  0  0
 16  2  1  0  0  0  0
 16 11  1  0  0  0  0
 17 21  2  0  0  0  0
 18  6  1  6  0  0  0
 18 14  1  0  0  0  0
 19 20  2  0  0  0  0
 20 21  1  0  0  0  0
 20 15  1  0  0  0  0
 21  3  1  0  0  0  0
 22 26  1  0  0  0  0
 23 12  1  6  0  0  0
 23 27  1  0  0  0  0
 24 25  1  0  0  0  0
 24 23  1  0  0  0  0
 25 22  2  0  0  0  0
 27 26  1  0  0  0  0
M  END
>  <MODEL>
4

>  <REMARK>
 VINA RESULT:      -8.3      3.199      5.705
  Name = 
  1 active torsions:
  status: ('A' for Active; 'I' for Inactive)
    1  A    between atoms: C_9  and  C_15
                            x       y       z     vdW  Elec       q    Type
                         _______ _______ _______ _____ _____    ______ ____

>  <TORSDO>
F 1

$$$$
=
 OpenBabel11052413413D

 27 31  0  0  1  0  0  0  0  0999 V2000
  187.0740  179.7080  141.3430 N   0  0  0  0  0  0  0  0  0  0  0  0
  186.8130  177.9440  142.8930 C   0  0  0  0  0  0  0  0  0  0  0  0
  188.9570  177.1390  142.1390 N   0  0  0  0  0  2  0  0  0  0  0  0
  187.6590  177.4850  147.2560 C   0  0  0  0  0  3  0  0  0  0  0  0
  189.9160  178.3820  147.5540 F   0  0  0  0  0  0  0  0  0  0  0  0
  186.0560  177.6700  144.1180 C   0  0  0  0  0  3  0  0  0  0  0  0
  189.2510  177.7730  145.3880 C   0  0  0  0  0  0  0  0  0  0  0  0
  189.9970  176.4490  138.7800 N   0  0  0  0  0  0  0  0  0  0  0  0
  190.8350  178.2340  144.7750 Cl  0  0  0  0  0  0  0  0  0  0  0  0
  189.6920  177.5800  138.1000 C   0  0  0  0  0  3  0  0  0  0  0  0
  188.2800  177.0510  144.4820 C   0  0  2  0  0  3  0  0  0  0  0  0
  186.3030  178.7250  141.8590 C   0  0  0  0  0  0  0  0  0  0  0  0
  188.9850  177.8780  146.7060 C   0  0  0  0  0  0  0  0  0  0  0  0
  186.6410  177.1640  146.4480 C   0  0  0  0  0  3  0  0  0  0  0  0
  188.1570  179.6170  140.6170 O   0  0  0  0  0  0  0  0  0  0  0  0
  188.1420  177.6120  143.1040 C   0  0  2  0  0  3  0  0  0  0  0  0
  189.6980  176.3170  140.0960 C   0  0  0  0  0  3  0  0  0  0  0  0
  186.8930  177.1730  145.0070 C   0  0  1  0  0  3  0  0  0  0  0  0
  189.0540  178.6280  138.7560 C   0  0  0  0  0  3  0  0  0  0  0  0
  188.6840  178.5180  140.1020 C   0  0  0  0  0  0  0  0  0  0  0  0
  189.0200  177.3220  140.7990 C   0  0  0  0  0  0  0  0  0  0  0  0
  182.0140  178.6280  142.2700 C   0  0  0  0  0  3  0  0  0  0  0  0
  184.8180  178.9590  141.8490 C   0  0  2  0  0  3  0  0  0  0  0  0
  184.2710  179.0100  143.2780 C   0  0  0  0  0  2  0  0  0  0  0  0
  182.7630  179.0170  143.3130 C   0  0  0  0  0  3  0  0  0  0  0  0
  182.6120  178.2530  140.9370 C   0  0  0  0  0  2  0  0  0  0  0  0
  184.0870  177.8770  141.0550 C   0  0  0  0  0  2  0  0  0  0  0  0
  1 12  2  0  0  0  0
  2 16  1  0  0  0  0
  2  6  2  0  0  0  0
  7 13  2  0  0  0  0
  8 17  1  0  0  0  0
  9  7  1  0  0  0  0
 10 19  1  0  0  0  0
 10  8  2  0  0  0  0
 11 18  1  0  0  0  0
 11  7  1  1  0  0  0
 12  2  1  0  0  0  0
 13  4  1  0  0  0  0
 13  5  1  0  0  0  0
 14  4  2  0  0  0  0
 15  1  1  0  0  0  0
 16  3  1  6  0  0  0
 16 11  1  0  0  0  0
 17 21  2  0  0  0  0
 18  6  1  1  0  0  0
 18 14  1  0  0  0  0
 19 20  2  0  0  0  0
 20 15  1  0  0  0  0
 20 21  1  0  0  0  0
 21  3  1  0  0  0  0
 22 25  2  0  0  0  0
 23 12  1  1  0  0  0
 23 24  1  0  0  0  0
 24 25  1  0  0  0  0
 26 27  1  0  0  0  0
 26 22  1  0  0  0  0
 27 23  1  0  0  0  0
M  END
>  <MODEL>
5

>  <REMARK>
 VINA RESULT:      -7.7      2.873      5.406
  Name = 
  1 active torsions:
  status: ('A' for Active; 'I' for Inactive)
    1  A    between atoms: C_9  and  C_15
                            x       y       z     vdW  Elec       q    Type
                         _______ _______ _______ _____ _____    ______ ____

>  <TORSDO>
F 1

$$$$
=
 OpenBabel11052413413D

 27 31  0  0  1  0  0  0  0  0999 V2000
  184.5270  176.9330  137.9100 N   0  0  0  0  0  0  0  0  0  0  0  0
  186.0830  178.2630  139.0900 C   0  0  1  0  0  3  0  0  0  0  0  0
  184.1920  179.5160  139.9090 N   0  0  0  0  0  2  0  0  0  0  0  0
  188.1300  177.8860  143.0430 C   0  0  0  0  0  3  0  0  0  0  0  0
  186.3530  177.2840  144.6140 F   0  0  0  0  0  0  0  0  0  0  0  0
  187.4570  178.1530  139.5900 C   0  0  0  0  0  3  0  0  0  0  0  0
  185.7320  178.2440  142.5650 C   0  0  0  0  0  0  0  0  0  0  0  0
  181.5780  181.0600  138.0060 N   0  0  0  0  0  0  0  0  0  0  0  0
  184.0410  178.1620  143.0430 Cl  0  0  0  0  0  0  0  0  0  0  0  0
  181.1280  180.0710  137.1980 C   0  0  0  0  0  3  0  0  0  0  0  0
  186.1200  178.9960  141.3120 C   0  0  2  0  0  3  0  0  0  0  0  0
  185.6680  177.6590  137.9070 C   0  0  0  0  0  0  0  0  0  0  0  0
  186.6910  177.8190  143.4140 C   0  0  0  0  0  0  0  0  0  0  0  0
  188.5120  178.2230  141.8050 C   0  0  0  0  0  3  0  0  0  0  0  0
  183.2890  177.3370  138.0300 O   0  0  0  0  0  0  0  0  0  0  0  0
  185.2720  178.7320  140.1110 C   0  0  2  0  0  3  0  0  0  0  0  0
  182.6190  180.8600  138.8510 C   0  0  0  0  0  3  0  0  0  0  0  0
  187.4640  178.5610  140.8430 C   0  0  0  0  0  0  0  0  0  0  0  0
  181.7460  178.8240  137.2240 C   0  0  0  0  0  3  0  0  0  0  0  0
  182.8540  178.5860  138.0460 C   0  0  0  0  0  0  0  0  0  0  0  0
  183.3060  179.6380  138.8930 C   0  0  0  0  0  0  0  0  0  0  0  0
  188.0760  176.2780  134.6090 C   0  0  0  0  0  3  0  0  0  0  0  0
  186.7430  177.2190  136.9520 C   0  0  2  0  0  3  0  0  0  0  0  0
  186.7380  178.0920  135.6950 C   0  0  0  0  0  2  0  0  0  0  0  0
  187.6440  177.5490  134.6180 C   0  0  0  0  0  3  0  0  0  0  0  0
  187.7810  175.3140  135.7310 C   0  0  0  0  0  2  0  0  0  0  0  0
  186.5770  175.7500  136.5620 C   0  0  0  0  0  2  0  0  0  0  0  0
  1 15  1  0  0  0  0
  2  6  1  1  0  0  0
  2 16  1  0  0  0  0
  4 13  1  0  0  0  0
  6 18  2  0  0  0  0
  7  9  1  0  0  0  0
  7 13  2  0  0  0  0
  8 17  1  0  0  0  0
 10 19  1  0  0  0  0
 10  8  2  0  0  0  0
 11 18  1  6  0  0  0
 11  7  1  0  0  0  0
 12  1  2  0  0  0  0
 12  2  1  0  0  0  0
 13  5  1  0  0  0  0
 14  4  2  0  0  0  0
 15 20  1  0  0  0  0
 16  3  1  6  0  0  0
 16 11  1  0  0  0  0
 17 21  2  0  0  0  0
 18 14  1  0  0  0  0
 19 20  2  0  0  0  0
 20 21  1  0  0  0  0
 21  3  1  0  0  0  0
 22 25  2  0  0  0  0
 22 26  1  0  0  0  0
 23 12  1  1  0  0  0
 24 23  1  0  0  0  0
 25 24  1  0  0  0  0
 26 27  1  0  0  0  0
 27 23  1  0  0  0  0
M  END
>  <MODEL>
6

>  <REMARK>
 VINA RESULT:      -7.5      4.053      7.591
  Name = 
  1 active torsions:
  status: ('A' for Active; 'I' for Inactive)
    1  A    between atoms: C_9  and  C_15
                            x       y       z     vdW  Elec       q    Type
                         _______ _______ _______ _____ _____    ______ ____

>  <TORSDO>
F 1

$$$$
=
 OpenBabel11052413413D

 27 31  0  0  1  0  0  0  0  0999 V2000
  187.3100  176.5540  143.1840 N   0  0  0  0  0  0  0  0  0  0  0  0
  186.7430  178.3000  141.6970 C   0  0  0  0  0  0  0  0  0  0  0  0
  188.7630  177.7570  140.4960 N   0  0  0  0  0  2  0  0  0  0  0  0
  184.1260  178.5850  138.0870 C   0  0  0  0  0  3  0  0  0  0  0  0
  184.7220  176.6400  136.7270 F   0  0  0  0  0  0  0  0  0  0  0  0
  185.5450  179.0390  141.2860 C   0  0  0  0  0  3  0  0  0  0  0  0
  186.2360  177.3320  138.3800 C   0  0  0  0  0  0  0  0  0  0  0  0
  192.0950  177.5000  141.7880 N   0  0  0  0  0  0  0  0  0  0  0  0
  187.3360  176.0420  137.9090 Cl  0  0  0  0  0  0  0  0  0  0  0  0
  191.9770  176.6610  142.8450 C   0  0  0  0  0  3  0  0  0  0  0  0
  186.6980  178.3880  139.3590 C   0  0  2  0  0  3  0  0  0  0  0  0
  186.9250  177.8360  142.9970 C   0  0  0  0  0  0  0  0  0  0  0  0
  185.0710  177.4960  137.7190 C   0  0  0  0  0  0  0  0  0  0  0  0
  184.3250  179.3370  139.1770 C   0  0  0  0  0  3  0  0  0  0  0  0
  188.4590  175.9870  142.9190 O   0  0  0  0  0  0  0  0  0  0  0  0
  187.4210  177.8800  140.5630 C   0  0  2  0  0  3  0  0  0  0  0  0
  191.0120  177.8800  141.0670 C   0  0  0  0  0  3  0  0  0  0  0  0
  185.5270  179.0760  139.9680 C   0  0  1  0  0  3  0  0  0  0  0  0
  190.7230  176.1810  143.2070 C   0  0  0  0  0  3  0  0  0  0  0  0
  189.5710  176.5830  142.5200 C   0  0  0  0  0  0  0  0  0  0  0  0
  189.7190  177.4610  141.4080 C   0  0  0  0  0  0  0  0  0  0  0  0
  184.1810  178.7300  146.1980 C   0  0  0  0  0  3  0  0  0  0  0  0
  186.0550  178.4400  144.0650 C   0  0  2  0  0  3  0  0  0  0  0  0
  186.3920  177.8460  145.4350 C   0  0  0  0  0  2  0  0  0  0  0  0
  185.3990  178.2530  146.4940 C   0  0  0  0  0  3  0  0  0  0  0  0
  183.7390  179.0030  144.7820 C   0  0  0  0  0  2  0  0  0  0  0  0
  184.5720  178.2310  143.7620 C   0  0  0  0  0  2  0  0  0  0  0  0
  2 12  1  0  0  0  0
  3 21  1  0  0  0  0
  4 14  2  0  0  0  0
  5 13  1  0  0  0  0
  6  2  2  0  0  0  0
  8 10  1  0  0  0  0
  9  7  1  0  0  0  0
 10 19  2  0  0  0  0
 11  7  1  6  0  0  0
 11 18  1  0  0  0  0
 11 16  1  0  0  0  0
 12  1  2  0  0  0  0
 13  4  1  0  0  0  0
 13  7  2  0  0  0  0
 15  1  1  0  0  0  0
 16  3  1  1  0  0  0
 16  2  1  0  0  0  0
 17 21  1  0  0  0  0
 17  8  2  0  0  0  0
 18 14  1  6  0  0  0
 18  6  1  0  0  0  0
 20 15  1  0  0  0  0
 20 19  1  0  0  0  0
 21 20  2  0  0  0  0
 22 25  2  0  0  0  0
 23 12  1  6  0  0  0
 23 24  1  0  0  0  0
 24 25  1  0  0  0  0
 26 22  1  0  0  0  0
 27 23  1  0  0  0  0
 27 26  1  0  0  0  0
M  END
>  <MODEL>
7

>  <REMARK>
 VINA RESULT:      -7.4      2.487      3.589
  Name = 
  1 active torsions:
  status: ('A' for Active; 'I' for Inactive)
    1  A    between atoms: C_9  and  C_15
                            x       y       z     vdW  Elec       q    Type
                         _______ _______ _______ _____ _____    ______ ____

>  <TORSDO>
F 1

$$$$
=
 OpenBabel11052413413D

 27 31  0  0  1  0  0  0  0  0999 V2000
  186.1160  176.8690  144.4500 N   0  0  0  0  0  0  0  0  0  0  0  0
  187.3360  178.2960  143.0150 C   0  0  0  0  0  0  0  0  0  0  0  0
  189.2320  177.9040  144.4520 N   0  0  0  0  0  2  0  0  0  0  0  0
  189.5400  177.7010  139.1750 C   0  0  0  0  0  3  0  0  0  0  0  0
  190.9040  175.7020  139.5390 F   0  0  0  0  0  0  0  0  0  0  0  0
  187.2560  178.7860  141.6360 C   0  0  0  0  0  3  0  0  0  0  0  0
  190.0760  176.8270  141.4240 C   0  0  0  0  0  0  0  0  0  0  0  0
  189.4300  178.3220  148.0060 N   0  0  0  0  0  0  0  0  0  0  0  0
  190.8820  175.6640  142.4680 Cl  0  0  0  0  0  0  0  0  0  0  0  0
  188.3720  177.6240  148.4810 C   0  0  0  0  0  3  0  0  0  0  0  0
  189.4440  178.0610  142.0260 C   0  0  2  0  0  3  0  0  0  0  0  0
  186.2040  178.0430  143.7850 C   0  0  0  0  0  0  0  0  0  0  0  0
  190.2010  176.7260  140.0840 C   0  0  0  0  0  0  0  0  0  0  0  0
  188.6810  178.6140  139.6440 C   0  0  0  0  0  3  0  0  0  0  0  0
  186.7990  176.4500  145.4830 O   0  0  0  0  0  0  0  0  0  0  0  0
  188.6210  177.8330  143.2520 C   0  0  2  0  0  3  0  0  0  0  0  0
  189.6580  178.4360  146.6740 C   0  0  0  0  0  3  0  0  0  0  0  0
  188.4460  178.6430  141.0870 C   0  0  1  0  0  3  0  0  0  0  0  0
  187.4920  177.0150  147.5910 C   0  0  0  0  0  3  0  0  0  0  0  0
  187.6610  177.1450  146.2070 C   0  0  0  0  0  0  0  0  0  0  0  0
  188.7850  177.8780  145.7300 C   0  0  0  0  0  0  0  0  0  0  0  0
  182.1490  179.0030  142.6840 C   0  0  0  0  0  3  0  0  0  0  0  0
  184.9100  178.6480  143.3150 C   0  0  2  0  0  3  0  0  0  0  0  0
  183.8890  178.6890  144.4540 C   0  0  0  0  0  2  0  0  0  0  0  0
  182.5130  179.0770  143.9740 C   0  0  0  0  0  3  0  0  0  0  0  0
  183.1160  178.6280  141.5890 C   0  0  0  0  0  2  0  0  0  0  0  0
  184.3310  177.8780  142.1290 C   0  0  0  0  0  2  0  0  0  0  0  0
  1 15  1  0  0  0  0
  2 12  1  0  0  0  0
  3 21  1  0  0  0  0
  4 14  2  0  0  0  0
  4 13  1  0  0  0  0
  5 13  1  0  0  0  0
  6  2  2  0  0  0  0
  7  9  1  0  0  0  0
  8 10  1  0  0  0  0
 11  7  1  6  0  0  0
 11 16  1  0  0  0  0
 12  1  2  0  0  0  0
 13  7  2  0  0  0  0
 15 20  1  0  0  0  0
 16  2  1  1  0  0  0
 16  3  1  0  0  0  0
 17  8  2  0  0  0  0
 18 14  1  6  0  0  0
 18  6  1  0  0  0  0
 18 11  1  0  0  0  0
 19 10  2  0  0  0  0
 20 19  1  0  0  0  0
 21 20  2  0  0  0  0
 21 17  1  0  0  0  0
 22 25  2  0  0  0  0
 23 12  1  1  0  0  0
 23 24  1  0  0  0  0
 25 24  1  0  0  0  0
 26 27  1  0  0  0  0
 26 22  1  0  0  0  0
 27 23  1  0  0  0  0
M  END
>  <MODEL>
8

>  <REMARK>
 VINA RESULT:      -7.4      2.936      6.272
  Name = 
  1 active torsions:
  status: ('A' for Active; 'I' for Inactive)
    1  A    between atoms: C_9  and  C_15
                            x       y       z     vdW  Elec       q    Type
                         _______ _______ _______ _____ _____    ______ ____

>  <TORSDO>
F 1

$$$$
=
 OpenBabel11052413413D

 27 31  0  0  1  0  0  0  0  0999 V2000
  189.8080  178.7460  143.0910 N   0  0  0  0  0  0  0  0  0  0  0  0
  187.7380  177.6120  143.0020 C   0  0  1  0  0  3  0  0  0  0  0  0
  187.8880  177.4220  145.4010 N   0  0  0  0  0  2  0  0  0  0  0  0
  183.4700  178.9330  142.9130 C   0  0  0  0  0  3  0  0  0  0  0  0
  183.2990  180.6170  144.6810 F   0  0  0  0  0  0  0  0  0  0  0  0
  186.5910  177.5030  142.0950 C   0  0  0  0  0  3  0  0  0  0  0  0
  185.1220  179.1410  144.7400 C   0  0  0  0  0  0  0  0  0  0  0  0
  190.5890  176.0910  147.3430 N   0  0  0  0  0  0  0  0  0  0  0  0
  185.6900  179.9070  146.2180 Cl  0  0  0  0  0  0  0  0  0  0  0  0
  191.6800  176.7520  146.8890 C   0  0  0  0  0  3  0  0  0  0  0  0
  185.7790  177.8680  144.2570 C   0  0  2  0  0  3  0  0  0  0  0  0
  189.0410  177.7790  142.5420 C   0  0  0  0  0  0  0  0  0  0  0  0
  183.9820  179.5680  144.1580 C   0  0  0  0  0  0  0  0  0  0  0  0
  184.1970  178.0270  142.2480 C   0  0  0  0  0  3  0  0  0  0  0  0
  190.3230  178.8130  144.2920 O   0  0  0  0  0  0  0  0  0  0  0  0
  187.2720  177.8610  144.2840 C   0  0  2  0  0  3  0  0  0  0  0  0
  189.3650  176.2970  146.7990 C   0  0  0  0  0  3  0  0  0  0  0  0
  185.4940  177.6550  142.8120 C   0  0  0  0  0  0  0  0  0  0  0  0
  191.5520  177.6570  145.8410 C   0  0  0  0  0  3  0  0  0  0  0  0
  190.3150  177.8680  145.2180 C   0  0  0  0  0  0  0  0  0  0  0  0
  189.1800  177.1670  145.7160 C   0  0  0  0  0  0  0  0  0  0  0  0
  190.3740  177.5040  138.4520 C   0  0  0  0  0  3  0  0  0  0  0  0
  189.3000  177.4540  141.0960 C   0  0  2  0  0  3  0  0  0  0  0  0
  190.7670  177.0720  140.8840 C   0  0  0  0  0  2  0  0  0  0  0  0
  191.1220  176.9580  139.4230 C   0  0  0  0  0  3  0  0  0  0  0  0
  189.0570  178.1850  138.7290 C   0  0  0  0  0  2  0  0  0  0  0  0
  188.9340  178.6250  140.1860 C   0  0  0  0  0  2  0  0  0  0  0  0
  1 15  1  0  0  0  0
  2  6  1  6  0  0  0
  2 16  1  0  0  0  0
  3 21  1  0  0  0  0
  4 13  1  0  0  0  0
  6 18  2  0  0  0  0
  7  9  1  0  0  0  0
 10  8  1  0  0  0  0
 11 18  1  6  0  0  0
 11 16  1  0  0  0  0
 11  7  1  0  0  0  0
 12  2  1  0  0  0  0
 12  1  2  0  0  0  0
 13  5  1  0  0  0  0
 13  7  2  0  0  0  0
 14 18  1  0  0  0  0
 14  4  2  0  0  0  0
 15 20  1  0  0  0  0
 16  3  1  1  0  0  0
 17  8  2  0  0  0  0
 19 10  2  0  0  0  0
 20 21  2  0  0  0  0
 20 19  1  0  0  0  0
 21 17  1  0  0  0  0
 22 26  1  0  0  0  0
 22 25  2  0  0  0  0
 23 12  1  1  0  0  0
 24 23  1  0  0  0  0
 25 24  1  0  0  0  0
 26 27  1  0  0  0  0
 27 23  1  0  0  0  0
M  END
>  <MODEL>
9

>  <REMARK>
 VINA RESULT:      -7.2      2.336      5.325
  Name = 
  1 active torsions:
  status: ('A' for Active; 'I' for Inactive)
    1  A    between atoms: C_9  and  C_15
                            x       y       z     vdW  Elec       q    Type
                         _______ _______ _______ _____ _____    ______ ____

>  <TORSDO>
F 1

$$$$
