=
 OpenBabel11052413423D

 27 31  0  0  0  0  0  0  0  0999 V2000
  186.0380  178.5970  140.4740 C   0  0  0  0  0  0  0  0  0  0  0  0
  187.9100  177.8420  141.3710 C   0  0  0  0  0  0  0  0  0  0  0  0
  185.8320  178.5370  141.8200 N   0  0  0  0  0  0  0  0  0  0  0  0
  188.9920  177.1480  145.3200 C   0  0  0  0  0  3  0  0  0  0  0  0
  188.4890  177.1190  147.7650 C   0  0  0  0  0  1  0  0  0  0  0  0
  189.1880  177.3800  141.6760 C   0  0  0  0  0  3  0  0  0  0  0  0
  186.4090  178.0880  144.7580 C   0  0  0  0  0  3  0  0  0  0  0  0
  182.3740  179.3170  141.9770 O   0  0  0  0  0  0  0  0  0  0  0  0
  186.7970  177.8430  146.0780 C   0  0  0  0  0  3  0  0  0  0  0  0
  183.3320  177.3530  141.2550 O   0  0  0  0  0  0  0  0  0  0  0  0
  186.9870  178.0860  142.3580 C   0  0  0  0  0  0  0  0  0  0  0  0
  187.3310  178.1600  140.1530 C   0  0  0  0  0  0  0  0  0  0  0  0
  188.0840  177.3760  146.3590 C   0  0  0  0  0  0  0  0  0  0  0  0
  188.6160  177.3880  143.9960 C   0  0  0  0  0  0  0  0  0  0  0  0
  184.9750  178.9590  139.4760 C   0  0  0  0  0  2  0  0  0  0  0  0
  187.3090  177.8660  143.7080 C   0  0  0  0  0  0  0  0  0  0  0  0
  183.3830  178.5640  141.9380 C   0  0  0  0  0  0  0  0  0  0  0  0
  189.5080  177.1620  142.9850 N   0  0  0  0  0  0  0  0  0  0  0  0
  182.8580  177.3130  139.9200 C   0  0  0  0  0  2  0  0  0  0  0  0
  184.2550  177.4440  138.7500 S   0  0  0  0  0  0  0  0  0  0  0  0
  184.6590  179.0090  142.5660 C   0  0  0  0  0  2  0  0  0  0  0  0
  189.1580  177.8700  136.2740 C   0  0  0  0  0  3  0  0  0  0  0  0
  187.9590  178.0650  138.8100 C   0  0  0  0  0  0  0  0  0  0  0  0
  187.7760  176.9200  138.0180 C   0  0  0  0  0  3  0  0  0  0  0  0
  188.3710  176.8220  136.7570 C   0  0  0  0  0  3  0  0  0  0  0  0
  189.3500  179.0140  137.0520 C   0  0  0  0  0  3  0  0  0  0  0  0
  188.7550  179.1080  138.3130 C   0  0  0  0  0  3  0  0  0  0  0  0
  1  3  1  0  0  0  0
  2  6  2  0  0  0  0
  2 11  1  0  0  0  0
  3 11  1  0  0  0  0
  3 21  1  0  0  0  0
  4 13  2  0  0  0  0
  6 18  1  0  0  0  0
  7  9  2  0  0  0  0
  9 13  1  0  0  0  0
 10 17  1  0  0  0  0
 11 16  2  0  0  0  0
 12  1  2  0  0  0  0
 12  2  1  0  0  0  0
 13  5  1  0  0  0  0
 14  4  1  0  0  0  0
 15  1  1  0  0  0  0
 16 14  1  0  0  0  0
 16  7  1  0  0  0  0
 17  8  2  0  0  0  0
 17 21  1  0  0  0  0
 18 14  2  0  0  0  0
 19 10  1  0  0  0  0
 20 15  1  0  0  0  0
 20 19  1  0  0  0  0
 22 25  2  0  0  0  0
 22 26  1  0  0  0  0
 23 12  1  0  0  0  0
 24 23  2  0  0  0  0
 25 24  1  0  0  0  0
 26 27  2  0  0  0  0
 27 23  1  0  0  0  0
M  END
>  <MODEL>
1

>  <REMARK>
 VINA RESULT:      -8.4      0.000      0.000
  Name = 
  1 active torsions:
  status: ('A' for Active; 'I' for Inactive)
    1  A    between atoms: C_9  and  C_15
                            x       y       z     vdW  Elec       q    Type
                         _______ _______ _______ _____ _____    ______ ____

>  <TORSDO>
F 1

$$$$
=
 OpenBabel11052413423D

 27 31  0  0  0  0  0  0  0  0999 V2000
  189.0580  178.0910  143.1540 C   0  0  0  0  0  0  0  0  0  0  0  0
  187.4780  177.8020  144.6700 C   0  0  0  0  0  0  0  0  0  0  0  0
  187.8780  178.4250  142.5600 N   0  0  0  0  0  0  0  0  0  0  0  0
  183.3750  178.4310  144.5320 C   0  0  0  0  0  3  0  0  0  0  0  0
  181.2930  179.1030  143.3300 C   0  0  0  0  0  1  0  0  0  0  0  0
  186.6940  177.5620  145.7970 C   0  0  0  0  0  3  0  0  0  0  0  0
  184.9120  178.9380  142.2390 C   0  0  0  0  0  3  0  0  0  0  0  0
  188.9600  178.9260  139.2180 O   0  0  0  0  0  0  0  0  0  0  0  0
  183.5280  179.1380  142.2180 C   0  0  0  0  0  3  0  0  0  0  0  0
  188.7260  176.9220  140.3250 O   0  0  0  0  0  0  0  0  0  0  0  0
  186.9220  178.2570  143.5010 C   0  0  0  0  0  0  0  0  0  0  0  0
  188.8460  177.6870  144.4800 C   0  0  0  0  0  0  0  0  0  0  0  0
  182.7630  178.8870  143.3600 C   0  0  0  0  0  0  0  0  0  0  0  0
  184.7570  178.2260  144.5660 C   0  0  0  0  0  0  0  0  0  0  0  0
  190.3770  178.0440  142.4370 C   0  0  0  0  0  2  0  0  0  0  0  0
  185.5380  178.4830  143.4070 C   0  0  0  0  0  0  0  0  0  0  0  0
  188.4740  178.2840  140.1860 C   0  0  0  0  0  0  0  0  0  0  0  0
  185.3500  177.7790  145.7140 N   0  0  0  0  0  0  0  0  0  0  0  0
  190.0580  176.4400  140.2660 C   0  0  0  0  0  2  0  0  0  0  0  0
  190.7640  176.3260  141.9470 S   0  0  0  0  0  0  0  0  0  0  0  0
  187.6830  179.0030  141.2240 C   0  0  0  0  0  2  0  0  0  0  0  0
  191.7600  176.3820  147.3560 C   0  0  0  0  0  3  0  0  0  0  0  0
  189.8550  177.2420  145.4750 C   0  0  0  0  0  0  0  0  0  0  0  0
  190.9510  176.4600  145.0770 C   0  0  0  0  0  3  0  0  0  0  0  0
  191.8990  176.0330  146.0110 C   0  0  0  0  0  3  0  0  0  0  0  0
  190.6730  177.1560  147.7670 C   0  0  0  0  0  3  0  0  0  0  0  0
  189.7260  177.5820  146.8310 C   0  0  0  0  0  3  0  0  0  0  0  0
  1 12  2  0  0  0  0
  2  6  1  0  0  0  0
  3  1  1  0  0  0  0
  3 11  1  0  0  0  0
  4 14  1  0  0  0  0
  5 13  1  0  0  0  0
  7 16  1  0  0  0  0
  8 17  2  0  0  0  0
  9  7  2  0  0  0  0
  9 13  1  0  0  0  0
 11  2  2  0  0  0  0
 12  2  1  0  0  0  0
 12 23  1  0  0  0  0
 13  4  2  0  0  0  0
 14 18  1  0  0  0  0
 15  1  1  0  0  0  0
 16 11  1  0  0  0  0
 16 14  2  0  0  0  0
 17 10  1  0  0  0  0
 17 21  1  0  0  0  0
 18  6  2  0  0  0  0
 19 10  1  0  0  0  0
 19 20  1  0  0  0  0
 20 15  1  0  0  0  0
 21  3  1  0  0  0  0
 22 26  1  0  0  0  0
 23 27  1  0  0  0  0
 24 23  2  0  0  0  0
 24 25  1  0  0  0  0
 25 22  2  0  0  0  0
 27 26  2  0  0  0  0
M  END
>  <MODEL>
2

>  <REMARK>
 VINA RESULT:      -8.4      2.928      6.412
  Name = 
  1 active torsions:
  status: ('A' for Active; 'I' for Inactive)
    1  A    between atoms: C_9  and  C_15
                            x       y       z     vdW  Elec       q    Type
                         _______ _______ _______ _____ _____    ______ ____

>  <TORSDO>
F 1

$$$$
=
 OpenBabel11052413423D

 27 31  0  0  0  0  0  0  0  0999 V2000
  189.4150  176.8480  141.0070 C   0  0  0  0  0  0  0  0  0  0  0  0
  187.5010  177.9330  141.2100 C   0  0  0  0  0  0  0  0  0  0  0  0
  189.0970  176.8410  142.3330 N   0  0  0  0  0  0  0  0  0  0  0  0
  185.1280  178.7450  144.5200 C   0  0  0  0  0  3  0  0  0  0  0  0
  184.6560  178.6280  146.9680 C   0  0  0  0  0  1  0  0  0  0  0  0
  186.3030  178.6280  141.0600 C   0  0  0  0  0  3  0  0  0  0  0  0
  187.5280  177.3340  144.8740 C   0  0  0  0  0  3  0  0  0  0  0  0
  192.0440  175.4030  143.6910 O   0  0  0  0  0  0  0  0  0  0  0  0
  186.7130  177.6240  145.9720 C   0  0  0  0  0  3  0  0  0  0  0  0
  191.7860  177.5290  142.8480 O   0  0  0  0  0  0  0  0  0  0  0  0
  187.9200  177.4960  142.4420 C   0  0  0  0  0  0  0  0  0  0  0  0
  188.4380  177.5330  140.2700 C   0  0  0  0  0  0  0  0  0  0  0  0
  185.5170  178.3250  145.7960 C   0  0  0  0  0  0  0  0  0  0  0  0
  185.9340  178.4630  143.4140 C   0  0  0  0  0  0  0  0  0  0  0  0
  190.6990  176.3070  140.4470 C   0  0  0  0  0  2  0  0  0  0  0  0
  187.1500  177.7470  143.5900 C   0  0  0  0  0  0  0  0  0  0  0  0
  191.2710  176.3370  143.3480 C   0  0  0  0  0  0  0  0  0  0  0  0
  185.5500  178.8770  142.1690 N   0  0  0  0  0  0  0  0  0  0  0  0
  192.7340  177.5030  141.7940 C   0  0  0  0  0  2  0  0  0  0  0  0
  191.8900  177.6680  140.1820 S   0  0  0  0  0  0  0  0  0  0  0  0
  189.7960  176.1350  143.4140 C   0  0  0  0  0  2  0  0  0  0  0  0
  188.3280  178.2170  136.0290 C   0  0  0  0  0  3  0  0  0  0  0  0
  188.3970  177.7750  138.8050 C   0  0  0  0  0  0  0  0  0  0  0  0
  187.7070  176.8940  137.9570 C   0  0  0  0  0  3  0  0  0  0  0  0
  187.6710  177.1130  136.5770 C   0  0  0  0  0  3  0  0  0  0  0  0
  189.0210  179.1000  136.8600 C   0  0  0  0  0  3  0  0  0  0  0  0
  189.0550  178.8780  138.2400 C   0  0  0  0  0  3  0  0  0  0  0  0
  1  3  1  0  0  0  0
  2 11  1  0  0  0  0
  3 11  1  0  0  0  0
  3 21  1  0  0  0  0
  4 13  2  0  0  0  0
  6  2  2  0  0  0  0
  6 18  1  0  0  0  0
  7  9  2  0  0  0  0
 10 17  1  0  0  0  0
 11 16  2  0  0  0  0
 12  1  2  0  0  0  0
 12  2  1  0  0  0  0
 13  9  1  0  0  0  0
 13  5  1  0  0  0  0
 14 16  1  0  0  0  0
 14  4  1  0  0  0  0
 15  1  1  0  0  0  0
 16  7  1  0  0  0  0
 17 21  1  0  0  0  0
 17  8  2  0  0  0  0
 18 14  2  0  0  0  0
 19 10  1  0  0  0  0
 20 15  1  0  0  0  0
 20 19  1  0  0  0  0
 22 25  2  0  0  0  0
 22 26  1  0  0  0  0
 23 12  1  0  0  0  0
 24 23  2  0  0  0  0
 25 24  1  0  0  0  0
 26 27  2  0  0  0  0
 27 23  1  0  0  0  0
M  END
>  <MODEL>
3

>  <REMARK>
 VINA RESULT:      -8.1      3.217      4.753
  Name = 
  1 active torsions:
  status: ('A' for Active; 'I' for Inactive)
    1  A    between atoms: C_9  and  C_15
                            x       y       z     vdW  Elec       q    Type
                         _______ _______ _______ _____ _____    ______ ____

>  <TORSDO>
F 1

$$$$
=
 OpenBabel11052413423D

 27 31  0  0  0  0  0  0  0  0999 V2000
  187.7330  177.1470  143.0350 C   0  0  0  0  0  0  0  0  0  0  0  0
  187.7960  177.4910  145.2160 C   0  0  0  0  0  0  0  0  0  0  0  0
  188.9670  176.7510  143.4590 N   0  0  0  0  0  0  0  0  0  0  0  0
  190.7550  176.7610  148.0380 C   0  0  0  0  0  3  0  0  0  0  0  0
  193.0340  175.9710  148.6800 C   0  0  0  0  0  1  0  0  0  0  0  0
  187.5690  177.7790  146.5600 C   0  0  0  0  0  3  0  0  0  0  0  0
  191.2570  176.1530  145.3450 C   0  0  0  0  0  3  0  0  0  0  0  0
  190.5310  176.0760  140.3460 O   0  0  0  0  0  0  0  0  0  0  0  0
  192.2380  175.9200  146.3140 C   0  0  0  0  0  3  0  0  0  0  0  0
  190.0320  178.1370  141.2420 O   0  0  0  0  0  0  0  0  0  0  0  0
  188.9880  176.9540  144.7950 C   0  0  0  0  0  0  0  0  0  0  0  0
  186.9710  177.6250  144.1100 C   0  0  0  0  0  0  0  0  0  0  0  0
  191.9870  176.2210  147.6560 C   0  0  0  0  0  0  0  0  0  0  0  0
  189.7670  176.9990  147.0790 C   0  0  0  0  0  0  0  0  0  0  0  0
  187.3100  177.1810  141.5940 C   0  0  0  0  0  2  0  0  0  0  0  0
  190.0180  176.6910  145.7140 C   0  0  0  0  0  0  0  0  0  0  0  0
  190.2290  176.7640  141.3580 C   0  0  0  0  0  0  0  0  0  0  0  0
  188.5640  177.5270  147.4580 N   0  0  0  0  0  0  0  0  0  0  0  0
  189.1620  178.6450  140.2450 C   0  0  0  0  0  2  0  0  0  0  0  0
  187.4840  178.8760  140.9300 S   0  0  0  0  0  0  0  0  0  0  0  0
  190.0130  176.0910  142.6690 C   0  0  0  0  0  2  0  0  0  0  0  0
  182.9490  179.1370  144.0550 C   0  0  0  0  0  3  0  0  0  0  0  0
  185.5830  178.1530  144.0880 C   0  0  0  0  0  0  0  0  0  0  0  0
  184.9490  178.5400  145.2790 C   0  0  0  0  0  3  0  0  0  0  0  0
  183.6400  179.0310  145.2640 C   0  0  0  0  0  3  0  0  0  0  0  0
  183.5660  178.7520  142.8630 C   0  0  0  0  0  3  0  0  0  0  0  0
  184.8750  178.2620  142.8810 C   0  0  0  0  0  3  0  0  0  0  0  0
  1  3  1  0  0  0  0
  1 12  2  0  0  0  0
  2  6  1  0  0  0  0
  3 11  1  0  0  0  0
  6 18  2  0  0  0  0
  7 16  2  0  0  0  0
  7  9  1  0  0  0  0
  8 17  2  0  0  0  0
  9 13  2  0  0  0  0
 10 17  1  0  0  0  0
 11  2  2  0  0  0  0
 11 16  1  0  0  0  0
 12  2  1  0  0  0  0
 13  4  1  0  0  0  0
 13  5  1  0  0  0  0
 14 18  1  0  0  0  0
 14  4  2  0  0  0  0
 15  1  1  0  0  0  0
 16 14  1  0  0  0  0
 17 21  1  0  0  0  0
 19 20  1  0  0  0  0
 19 10  1  0  0  0  0
 20 15  1  0  0  0  0
 21  3  1  0  0  0  0
 22 25  1  0  0  0  0
 23 12  1  0  0  0  0
 23 24  1  0  0  0  0
 25 24  2  0  0  0  0
 26 27  1  0  0  0  0
 26 22  2  0  0  0  0
 27 23  2  0  0  0  0
M  END
>  <MODEL>
4

>  <REMARK>
 VINA RESULT:      -8.0      3.001      5.898
  Name = 
  1 active torsions:
  status: ('A' for Active; 'I' for Inactive)
    1  A    between atoms: C_9  and  C_15
                            x       y       z     vdW  Elec       q    Type
                         _______ _______ _______ _____ _____    ______ ____

>  <TORSDO>
F 1

$$$$
=
 OpenBabel11052413423D

 27 31  0  0  0  0  0  0  0  0999 V2000
  187.8880  178.2530  139.9000 C   0  0  0  0  0  0  0  0  0  0  0  0
  188.6790  177.3820  141.7700 C   0  0  0  0  0  0  0  0  0  0  0  0
  186.9770  178.5260  140.8760 N   0  0  0  0  0  0  0  0  0  0  0  0
  187.2010  177.3780  145.6510 C   0  0  0  0  0  3  0  0  0  0  0  0
  185.4650  177.9740  147.3430 C   0  0  0  0  0  1  0  0  0  0  0  0
  189.4000  176.7720  142.7940 C   0  0  0  0  0  3  0  0  0  0  0  0
  185.7150  178.6290  143.6260 C   0  0  0  0  0  3  0  0  0  0  0  0
  184.3620  179.9390  138.9380 O   0  0  0  0  0  0  0  0  0  0  0  0
  185.2380  178.6100  144.9400 C   0  0  0  0  0  3  0  0  0  0  0  0
  184.9760  177.7240  139.0530 O   0  0  0  0  0  0  0  0  0  0  0  0
  187.4780  177.9990  142.0160 C   0  0  0  0  0  0  0  0  0  0  0  0
  188.9690  177.5280  140.4220 C   0  0  0  0  0  0  0  0  0  0  0  0
  185.9780  177.9890  145.9490 C   0  0  0  0  0  0  0  0  0  0  0  0
  187.6880  177.3890  144.3410 C   0  0  0  0  0  0  0  0  0  0  0  0
  187.6870  178.5770  138.4470 C   0  0  0  0  0  2  0  0  0  0  0  0
  186.9380  178.0230  143.3140 C   0  0  0  0  0  0  0  0  0  0  0  0
  184.9780  179.0250  139.5480 C   0  0  0  0  0  0  0  0  0  0  0  0
  188.8830  176.7900  144.0560 N   0  0  0  0  0  0  0  0  0  0  0  0
  185.3140  177.4820  137.6980 C   0  0  0  0  0  2  0  0  0  0  0  0
  187.0950  177.0980  137.5510 S   0  0  0  0  0  0  0  0  0  0  0  0
  185.7710  179.3550  140.7650 C   0  0  0  0  0  2  0  0  0  0  0  0
  192.4490  176.1030  138.3430 C   0  0  0  0  0  3  0  0  0  0  0  0
  190.1710  177.0300  139.7060 C   0  0  0  0  0  0  0  0  0  0  0  0
  191.4480  177.5030  140.0440 C   0  0  0  0  0  3  0  0  0  0  0  0
  192.5820  177.0420  139.3680 C   0  0  0  0  0  3  0  0  0  0  0  0
  191.1840  175.6270  137.9940 C   0  0  0  0  0  3  0  0  0  0  0  0
  190.0520  176.0890  138.6710 C   0  0  0  0  0  3  0  0  0  0  0  0
  1 12  2  0  0  0  0
  1  3  1  0  0  0  0
  2 11  2  0  0  0  0
  2  6  1  0  0  0  0
  3 11  1  0  0  0  0
  4 13  1  0  0  0  0
  6 18  2  0  0  0  0
  7  9  1  0  0  0  0
  8 17  2  0  0  0  0
  9 13  2  0  0  0  0
 10 17  1  0  0  0  0
 11 16  1  0  0  0  0
 12  2  1  0  0  0  0
 13  5  1  0  0  0  0
 14  4  2  0  0  0  0
 15  1  1  0  0  0  0
 16  7  2  0  0  0  0
 16 14  1  0  0  0  0
 17 21  1  0  0  0  0
 18 14  1  0  0  0  0
 19 10  1  0  0  0  0
 20 19  1  0  0  0  0
 20 15  1  0  0  0  0
 21  3  1  0  0  0  0
 22 25  1  0  0  0  0
 23 24  1  0  0  0  0
 23 12  1  0  0  0  0
 25 24  2  0  0  0  0
 26 22  2  0  0  0  0
 26 27  1  0  0  0  0
 27 23  2  0  0  0  0
M  END
>  <MODEL>
5

>  <REMARK>
 VINA RESULT:      -8.0      2.107      2.706
  Name = 
  1 active torsions:
  status: ('A' for Active; 'I' for Inactive)
    1  A    between atoms: C_9  and  C_15
                            x       y       z     vdW  Elec       q    Type
                         _______ _______ _______ _____ _____    ______ ____

>  <TORSDO>
F 1

$$$$
=
 OpenBabel11052413423D

 27 31  0  0  0  0  0  0  0  0999 V2000
  188.0430  178.2880  140.4680 C   0  0  0  0  0  0  0  0  0  0  0  0
  186.8410  178.1480  142.3160 C   0  0  0  0  0  0  0  0  0  0  0  0
  186.7430  178.4850  140.1070 N   0  0  0  0  0  0  0  0  0  0  0  0
  182.7660  178.5750  142.9950 C   0  0  0  0  0  3  0  0  0  0  0  0
  180.4350  178.9820  142.1980 C   0  0  0  0  0  1  0  0  0  0  0  0
  186.3300  178.0360  143.6080 C   0  0  0  0  0  3  0  0  0  0  0  0
  183.7470  178.8200  140.3770 C   0  0  0  0  0  3  0  0  0  0  0  0
  187.0620  178.5560  136.5740 O   0  0  0  0  0  0  0  0  0  0  0  0
  182.3790  178.9560  140.6320 C   0  0  0  0  0  3  0  0  0  0  0  0
  187.2100  176.7200  137.9530 O   0  0  0  0  0  0  0  0  0  0  0  0
  186.0210  178.4090  141.2470 C   0  0  0  0  0  0  0  0  0  0  0  0
  188.1430  178.0660  141.8490 C   0  0  0  0  0  0  0  0  0  0  0  0
  181.8900  178.8350  141.9350 C   0  0  0  0  0  0  0  0  0  0  0  0
  184.1360  178.4370  142.7530 C   0  0  0  0  0  0  0  0  0  0  0  0
  189.1820  178.1980  139.4930 C   0  0  0  0  0  2  0  0  0  0  0  0
  184.6350  178.5610  141.4290 C   0  0  0  0  0  0  0  0  0  0  0  0
  186.8370  178.0360  137.6990 C   0  0  0  0  0  0  0  0  0  0  0  0
  184.9860  178.1810  143.7920 N   0  0  0  0  0  0  0  0  0  0  0  0
  188.5310  176.2920  137.6680 C   0  0  0  0  0  2  0  0  0  0  0  0
  189.5800  176.4460  139.1560 S   0  0  0  0  0  0  0  0  0  0  0  0
  186.2310  178.8600  138.7830 C   0  0  0  0  0  2  0  0  0  0  0  0
  191.6760  177.3130  144.1770 C   0  0  0  0  0  3  0  0  0  0  0  0
  189.3680  177.8090  142.6500 C   0  0  0  0  0  0  0  0  0  0  0  0
  189.8050  176.4950  142.8790 C   0  0  0  0  0  3  0  0  0  0  0  0
  190.9530  176.2470  143.6380 C   0  0  0  0  0  3  0  0  0  0  0  0
  191.2510  178.6250  143.9600 C   0  0  0  0  0  3  0  0  0  0  0  0
  190.1020  178.8700  143.2010 C   0  0  0  0  0  3  0  0  0  0  0  0
  1 12  2  0  0  0  0
  2  6  1  0  0  0  0
  3  1  1  0  0  0  0
  3 11  1  0  0  0  0
  6 18  2  0  0  0  0
  7  9  2  0  0  0  0
  7 16  1  0  0  0  0
  8 17  2  0  0  0  0
  9 13  1  0  0  0  0
 11 16  1  0  0  0  0
 11  2  2  0  0  0  0
 12  2  1  0  0  0  0
 12 23  1  0  0  0  0
 13  5  1  0  0  0  0
 13  4  2  0  0  0  0
 14  4  1  0  0  0  0
 14 18  1  0  0  0  0
 15  1  1  0  0  0  0
 16 14  2  0  0  0  0
 17 10  1  0  0  0  0
 17 21  1  0  0  0  0
 19 10  1  0  0  0  0
 19 20  1  0  0  0  0
 20 15  1  0  0  0  0
 21  3  1  0  0  0  0
 23 24  2  0  0  0  0
 23 27  1  0  0  0  0
 24 25  1  0  0  0  0
 25 22  2  0  0  0  0
 26 22  1  0  0  0  0
 27 26  2  0  0  0  0
M  END
>  <MODEL>
6

>  <REMARK>
 VINA RESULT:      -7.9      2.748      5.529
  Name = 
  1 active torsions:
  status: ('A' for Active; 'I' for Inactive)
    1  A    between atoms: C_9  and  C_15
                            x       y       z     vdW  Elec       q    Type
                         _______ _______ _______ _____ _____    ______ ____

>  <TORSDO>
F 1

$$$$
=
 OpenBabel11052413423D

 27 31  0  0  0  0  0  0  0  0999 V2000
  188.2710  178.2190  143.1680 C   0  0  0  0  0  0  0  0  0  0  0  0
  186.1630  178.1810  143.8260 C   0  0  0  0  0  0  0  0  0  0  0  0
  187.5080  178.3870  142.0510 N   0  0  0  0  0  0  0  0  0  0  0  0
  182.6090  178.6280  141.7240 C   0  0  0  0  0  3  0  0  0  0  0  0
  181.3370  178.9760  139.6040 C   0  0  0  0  0  1  0  0  0  0  0  0
  184.9430  178.1430  144.4970 C   0  0  0  0  0  3  0  0  0  0  0  0
  185.0420  178.7230  140.3280 C   0  0  0  0  0  3  0  0  0  0  0  0
  190.0090  178.2530  139.5370 O   0  0  0  0  0  0  0  0  0  0  0  0
  183.8310  178.8670  139.6440 C   0  0  0  0  0  3  0  0  0  0  0  0
  189.1810  176.5020  140.7800 O   0  0  0  0  0  0  0  0  0  0  0  0
  186.2230  178.3750  142.4680 C   0  0  0  0  0  0  0  0  0  0  0  0
  187.4610  178.0780  144.3030 C   0  0  0  0  0  0  0  0  0  0  0  0
  182.6200  178.8210  140.3390 C   0  0  0  0  0  0  0  0  0  0  0  0
  183.8120  178.4820  142.4200 C   0  0  0  0  0  0  0  0  0  0  0  0
  189.7670  178.0760  143.1510 C   0  0  0  0  0  2  0  0  0  0  0  0
  185.0460  178.5310  141.7160 C   0  0  0  0  0  0  0  0  0  0  0  0
  189.1010  177.7990  140.2820 C   0  0  0  0  0  0  0  0  0  0  0  0
  183.7960  178.2920  143.7730 N   0  0  0  0  0  0  0  0  0  0  0  0
  190.3650  176.0640  141.4250 C   0  0  0  0  0  2  0  0  0  0  0  0
  190.2290  176.3100  143.2300 S   0  0  0  0  0  0  0  0  0  0  0  0
  187.9710  178.6820  140.6890 C   0  0  0  0  0  2  0  0  0  0  0  0
  188.6860  177.5050  148.3820 C   0  0  0  0  0  3  0  0  0  0  0  0
  187.8830  177.8740  145.7120 C   0  0  0  0  0  0  0  0  0  0  0  0
  187.1450  178.4360  146.7650 C   0  0  0  0  0  3  0  0  0  0  0  0
  187.5430  178.2530  148.0930 C   0  0  0  0  0  3  0  0  0  0  0  0
  189.4320  176.9420  147.3430 C   0  0  0  0  0  3  0  0  0  0  0  0
  189.0320  177.1280  146.0170 C   0  0  0  0  0  3  0  0  0  0  0  0
  1 12  2  0  0  0  0
  2 12  1  0  0  0  0
  2  6  1  0  0  0  0
  3 11  1  0  0  0  0
  3  1  1  0  0  0  0
  4 14  1  0  0  0  0
  5 13  1  0  0  0  0
  7 16  1  0  0  0  0
  8 17  2  0  0  0  0
  9  7  2  0  0  0  0
  9 13  1  0  0  0  0
 10 19  1  0  0  0  0
 11  2  2  0  0  0  0
 12 23  1  0  0  0  0
 13  4  2  0  0  0  0
 14 18  1  0  0  0  0
 15  1  1  0  0  0  0
 15 20  1  0  0  0  0
 16 14  2  0  0  0  0
 16 11  1  0  0  0  0
 17 21  1  0  0  0  0
 17 10  1  0  0  0  0
 18  6  2  0  0  0  0
 19 20  1  0  0  0  0
 21  3  1  0  0  0  0
 23 27  2  0  0  0  0
 23 24  1  0  0  0  0
 24 25  2  0  0  0  0
 25 22  1  0  0  0  0
 26 22  2  0  0  0  0
 27 26  1  0  0  0  0
M  END
>  <MODEL>
7

>  <REMARK>
 VINA RESULT:      -7.8      2.933      7.051
  Name = 
  1 active torsions:
  status: ('A' for Active; 'I' for Inactive)
    1  A    between atoms: C_9  and  C_15
                            x       y       z     vdW  Elec       q    Type
                         _______ _______ _______ _____ _____    ______ ____

>  <TORSDO>
F 1

$$$$
=
 OpenBabel11052413423D

 27 31  0  0  0  0  0  0  0  0999 V2000
  189.1530  177.1220  142.3470 C   0  0  0  0  0  0  0  0  0  0  0  0
  187.3850  177.8920  141.2700 C   0  0  0  0  0  0  0  0  0  0  0  0
  188.1980  177.3690  143.2870 N   0  0  0  0  0  0  0  0  0  0  0  0
  183.6260  179.0440  142.6080 C   0  0  0  0  0  3  0  0  0  0  0  0
  181.9610  179.4210  144.4290 C   0  0  0  0  0  1  0  0  0  0  0  0
  186.4200  178.3240  140.3620 C   0  0  0  0  0  3  0  0  0  0  0  0
  185.5310  178.1710  144.4750 C   0  0  0  0  0  3  0  0  0  0  0  0
  190.0530  176.7940  146.2570 O   0  0  0  0  0  0  0  0  0  0  0  0
  184.2590  178.5680  144.8990 C   0  0  0  0  0  3  0  0  0  0  0  0
  190.2180  178.5940  144.8330 O   0  0  0  0  0  0  0  0  0  0  0  0
  187.1180  177.8270  142.6150 C   0  0  0  0  0  0  0  0  0  0  0  0
  188.6820  177.4450  141.0670 C   0  0  0  0  0  0  0  0  0  0  0  0
  183.3100  179.0010  143.9700 C   0  0  0  0  0  0  0  0  0  0  0  0
  184.8940  178.6510  142.1700 C   0  0  0  0  0  0  0  0  0  0  0  0
  190.5550  176.6860  142.6670 C   0  0  0  0  0  2  0  0  0  0  0  0
  185.8600  178.2070  143.1140 C   0  0  0  0  0  0  0  0  0  0  0  0
  189.5460  177.4820  145.3310 C   0  0  0  0  0  0  0  0  0  0  0  0
  185.1970  178.6960  140.8390 N   0  0  0  0  0  0  0  0  0  0  0  0
  191.5740  178.4820  144.4350 C   0  0  0  0  0  2  0  0  0  0  0  0
  191.6790  178.1270  142.6460 S   0  0  0  0  0  0  0  0  0  0  0  0
  188.2540  177.0590  144.7210 C   0  0  0  0  0  2  0  0  0  0  0  0
  190.7360  177.1100  137.3080 C   0  0  0  0  0  3  0  0  0  0  0  0
  189.3970  177.3310  139.7710 C   0  0  0  0  0  0  0  0  0  0  0  0
  189.0760  178.1840  138.7030 C   0  0  0  0  0  3  0  0  0  0  0  0
  189.7410  178.0750  137.4780 C   0  0  0  0  0  3  0  0  0  0  0  0
  191.0630  176.2520  138.3610 C   0  0  0  0  0  3  0  0  0  0  0  0
  190.3960  176.3630  139.5840 C   0  0  0  0  0  3  0  0  0  0  0  0
  1 15  1  0  0  0  0
  1  3  1  0  0  0  0
  2 11  1  0  0  0  0
  3 21  1  0  0  0  0
  4 13  2  0  0  0  0
  6 18  1  0  0  0  0
  6  2  2  0  0  0  0
  7  9  2  0  0  0  0
 10 17  1  0  0  0  0
 11 16  2  0  0  0  0
 11  3  1  0  0  0  0
 12  2  1  0  0  0  0
 12  1  2  0  0  0  0
 13  5  1  0  0  0  0
 13  9  1  0  0  0  0
 14  4  1  0  0  0  0
 14 16  1  0  0  0  0
 16  7  1  0  0  0  0
 17  8  2  0  0  0  0
 18 14  2  0  0  0  0
 19 10  1  0  0  0  0
 20 15  1  0  0  0  0
 20 19  1  0  0  0  0
 21 17  1  0  0  0  0
 22 25  2  0  0  0  0
 22 26  1  0  0  0  0
 23 12  1  0  0  0  0
 24 23  2  0  0  0  0
 25 24  1  0  0  0  0
 26 27  2  0  0  0  0
 27 23  1  0  0  0  0
M  END
>  <MODEL>
8

>  <REMARK>
 VINA RESULT:      -7.8      3.164      5.078
  Name = 
  1 active torsions:
  status: ('A' for Active; 'I' for Inactive)
    1  A    between atoms: C_9  and  C_15
                            x       y       z     vdW  Elec       q    Type
                         _______ _______ _______ _____ _____    ______ ____

>  <TORSDO>
F 1

$$$$
=
 OpenBabel11052413423D

 27 31  0  0  0  0  0  0  0  0999 V2000
  186.7700  178.6790  141.0480 C   0  0  0  0  0  0  0  0  0  0  0  0
  188.6880  177.6350  141.3750 C   0  0  0  0  0  0  0  0  0  0  0  0
  186.9230  178.5540  142.3960 N   0  0  0  0  0  0  0  0  0  0  0  0
  190.6750  176.5440  144.8550 C   0  0  0  0  0  3  0  0  0  0  0  0
  190.8420  176.4120  147.3420 C   0  0  0  0  0  1  0  0  0  0  0  0
  189.9240  176.9960  141.3050 C   0  0  0  0  0  3  0  0  0  0  0  0
  188.1930  177.8380  145.0490 C   0  0  0  0  0  3  0  0  0  0  0  0
  183.7760  179.7520  143.5160 O   0  0  0  0  0  0  0  0  0  0  0  0
  188.8810  177.4570  146.2050 C   0  0  0  0  0  3  0  0  0  0  0  0
  184.2230  177.7360  142.4990 O   0  0  0  0  0  0  0  0  0  0  0  0
  188.1060  177.9260  142.5830 C   0  0  0  0  0  0  0  0  0  0  0  0
  187.8560  178.1060  140.3720 C   0  0  0  0  0  0  0  0  0  0  0  0
  190.1170  176.8140  146.1090 C   0  0  0  0  0  0  0  0  0  0  0  0
  189.9980  176.9190  143.6920 C   0  0  0  0  0  0  0  0  0  0  0  0
  185.5410  179.2400  140.3890 C   0  0  0  0  0  2  0  0  0  0  0  0
  188.7410  177.5760  143.7870 C   0  0  0  0  0  0  0  0  0  0  0  0
  184.6230  178.8820  143.1790 C   0  0  0  0  0  0  0  0  0  0  0  0
  190.5470  176.6520  142.4690 N   0  0  0  0  0  0  0  0  0  0  0  0
  183.4100  177.8470  141.3430 C   0  0  0  0  0  2  0  0  0  0  0  0
  184.4490  177.8800  139.8400 S   0  0  0  0  0  0  0  0  0  0  0  0
  186.0700  179.1190  143.4480 C   0  0  0  0  0  2  0  0  0  0  0  0
  188.5080  177.8830  136.1300 C   0  0  0  0  0  3  0  0  0  0  0  0
  188.0840  178.0240  138.9070 C   0  0  0  0  0  0  0  0  0  0  0  0
  188.8400  179.0060  138.2470 C   0  0  0  0  0  3  0  0  0  0  0  0
  189.0530  178.9360  136.8670 C   0  0  0  0  0  3  0  0  0  0  0  0
  187.7510  176.9000  136.7720 C   0  0  0  0  0  3  0  0  0  0  0  0
  187.5410  176.9720  138.1520 C   0  0  0  0  0  3  0  0  0  0  0  0
  1  3  1  0  0  0  0
  2 11  1  0  0  0  0
  3 11  1  0  0  0  0
  3 21  1  0  0  0  0
  4 13  2  0  0  0  0
  6  2  2  0  0  0  0
  6 18  1  0  0  0  0
  7  9  2  0  0  0  0
 10 17  1  0  0  0  0
 11 16  2  0  0  0  0
 12  1  2  0  0  0  0
 12  2  1  0  0  0  0
 13  9  1  0  0  0  0
 13  5  1  0  0  0  0
 14 16  1  0  0  0  0
 14  4  1  0  0  0  0
 15  1  1  0  0  0  0
 16  7  1  0  0  0  0
 17 21  1  0  0  0  0
 17  8  2  0  0  0  0
 18 14  2  0  0  0  0
 19 10  1  0  0  0  0
 20 15  1  0  0  0  0
 20 19  1  0  0  0  0
 22 26  2  0  0  0  0
 22 25  1  0  0  0  0
 23 12  1  0  0  0  0
 24 23  1  0  0  0  0
 25 24  2  0  0  0  0
 26 27  1  0  0  0  0
 27 23  2  0  0  0  0
M  END
>  <MODEL>
9

>  <REMARK>
 VINA RESULT:      -7.6      1.169      1.676
  Name = 
  1 active torsions:
  status: ('A' for Active; 'I' for Inactive)
    1  A    between atoms: C_9  and  C_15
                            x       y       z     vdW  Elec       q    Type
                         _______ _______ _______ _____ _____    ______ ____

>  <TORSDO>
F 1

$$$$
