=
 OpenBabel11052414413D

 32 37  0  0  1  0  0  0  0  0999 V2000
  186.1210  178.4500  141.2320 C   0  0  0  0  0  0  0  0  0  0  0  0
  187.3180  178.0510  143.4440 C   0  0  1  0  0  3  0  0  0  0  0  0
  184.9430  178.7130  140.5130 C   0  0  0  0  0  3  0  0  0  0  0  0
  186.0580  178.2700  142.6310 C   0  0  0  0  0  0  0  0  0  0  0  0
  187.0450  177.7850  144.9330 C   0  0  1  0  0  3  0  0  0  0  0  0
  191.6230  175.7410  143.9700 C   0  0  0  0  0  3  0  0  0  0  0  0
  188.1730  176.9020  142.9100 C   0  0  0  0  0  2  0  0  0  0  0  0
  190.6260  176.9150  145.8390 C   0  0  0  0  0  3  0  0  0  0  0  0
  189.4760  177.1570  145.0820 C   0  0  0  0  0  0  0  0  0  0  0  0
  184.8220  178.4350  143.2900 C   0  0  0  0  0  0  0  0  0  0  0  0
  188.3680  177.9800  145.6860 C   0  0  0  0  0  2  0  0  0  0  0  0
  184.7230  178.2910  144.7780 C   0  0  0  0  0  2  0  0  0  0  0  0
  183.6600  178.6870  142.5570 C   0  0  0  0  0  3  0  0  0  0  0  0
  189.4120  176.7090  143.7410 C   0  0  0  0  0  0  0  0  0  0  0  0
  185.9780  178.6660  145.4340 N   0  0  0  0  0  0  0  0  0  0  0  0
  183.7200  178.8240  141.1720 C   0  0  0  0  0  3  0  0  0  0  0  0
  191.6950  176.2060  145.2860 C   0  0  0  0  0  3  0  0  0  0  0  0
  190.4820  175.9890  143.2020 C   0  0  0  0  0  3  0  0  0  0  0  0
  185.7840  178.4880  146.8780 C   0  0  0  0  0  2  0  0  0  0  0  0
  185.7210  179.7190  147.5430 O   0  0  0  0  0  1  0  0  0  0  0  0
  187.3550  178.3740  140.5780 O   0  0  0  0  0  0  0  0  0  0  0  0
  187.4810  178.1450  139.1810 C   0  0  0  0  0  2  0  0  0  0  0  0
  189.4600  176.6490  136.8260 C   0  0  2  0  0  0  0  0  0  0  0  0
  189.4050  175.1690  137.2090 C   0  0  0  0  0  1  0  0  0  0  0  0
  189.9050  177.9180  139.3080 C   0  0  2  0  0  3  0  0  0  0  0  0
  188.6640  177.2330  138.9350 C   0  0  2  0  0  3  0  0  0  0  0  0
  190.6630  177.1650  137.2420 O   0  0  0  0  0  0  0  0  0  0  0  0
  189.5210  177.8250  137.7940 C   0  0  1  0  0  0  0  0  0  0  0  0
  191.9900  177.5170  140.3970 O   0  0  0  0  0  1  0  0  0  0  0  0
  190.8830  176.8740  139.8440 C   0  0  0  0  0  2  0  0  0  0  0  0
  189.2190  176.9950  135.3710 C   0  0  0  0  0  2  0  0  0  0  0  0
  188.0880  176.3260  134.9040 O   0  0  0  0  0  1  0  0  0  0  0  0
  1  4  1  0  0  0  0
  2  7  1  6  0  0  0
  2  5  1  0  0  0  0
  3 16  1  0  0  0  0
  3  1  2  0  0  0  0
  4 10  2  0  0  0  0
  4  2  1  0  0  0  0
  5 15  1  0  0  0  0
  5 11  1  1  0  0  0
  6 17  1  0  0  0  0
  7 14  1  0  0  0  0
  9 11  1  0  0  0  0
  9  8  1  0  0  0  0
 10 12  1  0  0  0  0
 12 15  1  0  0  0  0
 13 10  1  0  0  0  0
 14  9  2  0  0  0  0
 15 19  1  0  0  0  0
 16 13  2  0  0  0  0
 17  8  2  0  0  0  0
 18 14  1  0  0  0  0
 18  6  2  0  0  0  0
 19 20  1  0  0  0  0
 21  1  1  0  0  0  0
 22 21  1  0  0  0  0
 23 24  1  1  0  0  0
 23 27  1  0  0  0  0
 23 28  1  0  0  0  0
 25 30  1  6  0  0  0
 26 22  1  1  0  0  0
 26 25  1  0  0  0  0
 28 27  1  1  0  0  0
 28 26  1  0  0  0  0
 28 25  1  0  0  0  0
 30 29  1  0  0  0  0
 31 23  1  0  0  0  0
 32 31  1  0  0  0  0
M  END
>  <MODEL>
1

>  <REMARK>
 VINA RESULT:      -9.5      0.000      0.000
  Name = 
  6 active torsions:
  status: ('A' for Active; 'I' for Inactive)
    1  A    between atoms: C_1  and  O_27
    2  A    between atoms: C_3  and  C_22
    3  A    between atoms: C_13  and  N_29
    4  A    between atoms: C_15  and  C_26
    5  A    between atoms: C_16  and  C_24
    6  A    between atoms: C_24  and  O_27
                            x       y       z     vdW  Elec       q    Type
                         _______ _______ _______ _____ _____    ______ ____

>  <TORSDO>
F 6

$$$$
=
 OpenBabel11052414413D

 32 37  0  0  1  0  0  0  0  0999 V2000
  189.6120  176.6830  143.1440 C   0  0  0  0  0  0  0  0  0  0  0  0
  187.6780  177.3580  144.6570 C   0  0  1  0  0  3  0  0  0  0  0  0
  190.9730  176.3900  142.9620 C   0  0  0  0  0  3  0  0  0  0  0  0
  189.1500  177.0980  144.4120 C   0  0  0  0  0  0  0  0  0  0  0  0
  187.3770  177.8870  146.0680 C   0  0  1  0  0  3  0  0  0  0  0  0
  183.4730  179.4080  143.1530 C   0  0  0  0  0  3  0  0  0  0  0  0
  187.0760  178.3380  143.6500 C   0  0  0  0  0  2  0  0  0  0  0  0
  183.7120  178.6360  145.4360 C   0  0  0  0  0  3  0  0  0  0  0  0
  185.0620  178.3540  145.2070 C   0  0  0  0  0  0  0  0  0  0  0  0
  190.0550  177.1330  145.4940 C   0  0  0  0  0  0  0  0  0  0  0  0
  185.8710  177.7250  146.3110 C   0  0  0  0  0  2  0  0  0  0  0  0
  189.5940  177.5300  146.8630 C   0  0  0  0  0  2  0  0  0  0  0  0
  191.4070  176.8470  145.2930 C   0  0  0  0  0  3  0  0  0  0  0  0
  185.6160  178.5770  143.9240 C   0  0  0  0  0  0  0  0  0  0  0  0
  188.1870  177.1800  147.0740 N   0  0  0  0  0  0  0  0  0  0  0  0
  191.8660  176.4780  144.0300 C   0  0  0  0  0  3  0  0  0  0  0  0
  182.9210  179.1650  144.4130 C   0  0  0  0  0  3  0  0  0  0  0  0
  184.8190  179.1180  142.9110 C   0  0  0  0  0  3  0  0  0  0  0  0
  187.8310  177.6090  148.4320 C   0  0  0  0  0  2  0  0  0  0  0  0
  188.8720  178.3250  149.0340 O   0  0  0  0  0  1  0  0  0  0  0  0
  188.7080  176.5610  142.0830 O   0  0  0  0  0  0  0  0  0  0  0  0
  188.5830  177.5310  141.0530 C   0  0  0  0  0  2  0  0  0  0  0  0
  188.4290  177.5960  137.6360 C   0  0  2  0  0  0  0  0  0  0  0  0
  188.1880  176.1320  137.2670 C   0  0  0  0  0  1  0  0  0  0  0  0
  190.4990  177.4250  139.5480 C   0  0  2  0  0  3  0  0  0  0  0  0
  189.1280  176.9550  139.7630 C   0  0  2  0  0  3  0  0  0  0  0  0
  189.7480  177.8980  137.3980 O   0  0  0  0  0  0  0  0  0  0  0  0
  189.3360  178.1040  138.7510 C   0  0  1  0  0  0  0  0  0  0  0  0
  192.6130  176.6960  138.7120 O   0  0  0  0  0  1  0  0  0  0  0  0
  191.2760  176.3180  138.8380 C   0  0  0  0  0  2  0  0  0  0  0  0
  187.5330  178.6290  136.9840 C   0  0  0  0  0  2  0  0  0  0  0  0
  186.3050  178.6750  137.6430 O   0  0  0  0  0  1  0  0  0  0  0  0
  1  4  1  0  0  0  0
  2  7  1  6  0  0  0
  2  5  1  0  0  0  0
  3  1  2  0  0  0  0
  3 16  1  0  0  0  0
  4  2  1  0  0  0  0
  4 10  2  0  0  0  0
  5 11  1  1  0  0  0
  5 15  1  0  0  0  0
  6 17  1  0  0  0  0
  7 14  1  0  0  0  0
  9  8  1  0  0  0  0
  9 11  1  0  0  0  0
 10 12  1  0  0  0  0
 12 15  1  0  0  0  0
 13 10  1  0  0  0  0
 14  9  2  0  0  0  0
 15 19  1  0  0  0  0
 16 13  2  0  0  0  0
 17  8  2  0  0  0  0
 18  6  2  0  0  0  0
 18 14  1  0  0  0  0
 19 20  1  0  0  0  0
 21  1  1  0  0  0  0
 22 21  1  0  0  0  0
 23 24  1  1  0  0  0
 23 28  1  0  0  0  0
 25 30  1  6  0  0  0
 25 26  1  0  0  0  0
 26 22  1  1  0  0  0
 27 23  1  0  0  0  0
 28 27  1  6  0  0  0
 28 25  1  0  0  0  0
 28 26  1  0  0  0  0
 29 30  1  0  0  0  0
 31 23  1  0  0  0  0
 31 32  1  0  0  0  0
M  END
>  <MODEL>
2

>  <REMARK>
 VINA RESULT:      -9.3      1.693      4.642
  Name = 
  6 active torsions:
  status: ('A' for Active; 'I' for Inactive)
    1  A    between atoms: C_1  and  O_27
    2  A    between atoms: C_3  and  C_22
    3  A    between atoms: C_13  and  N_29
    4  A    between atoms: C_15  and  C_26
    5  A    between atoms: C_16  and  C_24
    6  A    between atoms: C_24  and  O_27
                            x       y       z     vdW  Elec       q    Type
                         _______ _______ _______ _____ _____    ______ ____

>  <TORSDO>
F 6

$$$$
=
 OpenBabel11052414413D

 32 37  0  0  1  0  0  0  0  0999 V2000
  189.7040  176.8810  142.9570 C   0  0  0  0  0  0  0  0  0  0  0  0
  187.2560  177.5480  143.1760 C   0  0  1  0  0  3  0  0  0  0  0  0
  190.9670  176.6710  143.5350 C   0  0  0  0  0  3  0  0  0  0  0  0
  188.6460  177.3740  143.7520 C   0  0  0  0  0  0  0  0  0  0  0  0
  186.2610  178.1790  144.1630 C   0  0  1  0  0  3  0  0  0  0  0  0
  184.4070  179.1490  139.5070 C   0  0  0  0  0  3  0  0  0  0  0  0
  187.2480  178.3890  141.8990 C   0  0  0  0  0  2  0  0  0  0  0  0
  183.4410  178.6030  141.6590 C   0  0  0  0  0  3  0  0  0  0  0  0
  184.7190  178.4000  142.1890 C   0  0  0  0  0  0  0  0  0  0  0  0
  188.8600  177.5700  145.1330 C   0  0  0  0  0  0  0  0  0  0  0  0
  184.8490  177.9320  143.6150 C   0  0  0  0  0  2  0  0  0  0  0  0
  187.7500  178.0550  146.0160 C   0  0  0  0  0  2  0  0  0  0  0  0
  190.1250  177.3650  145.6880 C   0  0  0  0  0  3  0  0  0  0  0  0
  185.8530  178.5460  141.3560 C   0  0  0  0  0  0  0  0  0  0  0  0
  186.4430  177.6250  145.5140 N   0  0  0  0  0  0  0  0  0  0  0  0
  191.1770  176.9180  144.8900 C   0  0  0  0  0  3  0  0  0  0  0  0
  183.2860  178.9800  140.3230 C   0  0  0  0  0  3  0  0  0  0  0  0
  185.6870  178.9360  140.0240 C   0  0  0  0  0  3  0  0  0  0  0  0
  185.4290  178.1470  146.4380 C   0  0  0  0  0  2  0  0  0  0  0  0
  185.6790  179.4840  146.7730 O   0  0  0  0  0  1  0  0  0  0  0  0
  189.4820  176.6000  141.6050 O   0  0  0  0  0  0  0  0  0  0  0  0
  190.4380  176.8670  140.5880 C   0  0  0  0  0  2  0  0  0  0  0  0
  188.9980  177.8300  137.6390 C   0  0  2  0  0  0  0  0  0  0  0  0
  187.7340  176.9710  137.5670 C   0  0  0  0  0  1  0  0  0  0  0  0
  190.9790  175.9640  138.3900 C   0  0  2  0  0  3  0  0  0  0  0  0
  189.8840  176.4080  139.2560 C   0  0  2  0  0  3  0  0  0  0  0  0
  189.9400  177.2970  136.7920 O   0  0  0  0  0  0  0  0  0  0  0  0
  190.3600  177.3820  138.1550 C   0  0  1  0  0  0  0  0  0  0  0  0
  191.3810  173.7770  137.5210 O   0  0  0  0  0  1  0  0  0  0  0  0
  190.4600  174.8250  137.5130 C   0  0  0  0  0  2  0  0  0  0  0  0
  188.8400  179.3140  137.3750 C   0  0  0  0  0  2  0  0  0  0  0  0
  187.5410  179.5850  136.9490 O   0  0  0  0  0  1  0  0  0  0  0  0
  1  3  2  0  0  0  0
  1  4  1  0  0  0  0
  2  7  1  6  0  0  0
  2  4  1  0  0  0  0
  2  5  1  0  0  0  0
  3 16  1  0  0  0  0
  4 10  2  0  0  0  0
  5 11  1  6  0  0  0
  5 15  1  0  0  0  0
  6 18  2  0  0  0  0
  6 17  1  0  0  0  0
  8  9  1  0  0  0  0
  9 11  1  0  0  0  0
 10 13  1  0  0  0  0
 10 12  1  0  0  0  0
 14  7  1  0  0  0  0
 14  9  2  0  0  0  0
 15 12  1  0  0  0  0
 15 19  1  0  0  0  0
 16 13  2  0  0  0  0
 17  8  2  0  0  0  0
 18 14  1  0  0  0  0
 19 20  1  0  0  0  0
 21  1  1  0  0  0  0
 22 21  1  0  0  0  0
 23 24  1  1  0  0  0
 23 28  1  0  0  0  0
 25 30  1  6  0  0  0
 25 26  1  0  0  0  0
 26 22  1  1  0  0  0
 27 23  1  0  0  0  0
 28 27  1  6  0  0  0
 28 25  1  0  0  0  0
 28 26  1  0  0  0  0
 30 29  1  0  0  0  0
 31 23  1  0  0  0  0
 32 31  1  0  0  0  0
M  END
>  <MODEL>
3

>  <REMARK>
 VINA RESULT:      -9.1      1.434      4.711
  Name = 
  6 active torsions:
  status: ('A' for Active; 'I' for Inactive)
    1  A    between atoms: C_1  and  O_27
    2  A    between atoms: C_3  and  C_22
    3  A    between atoms: C_13  and  N_29
    4  A    between atoms: C_15  and  C_26
    5  A    between atoms: C_16  and  C_24
    6  A    between atoms: C_24  and  O_27
                            x       y       z     vdW  Elec       q    Type
                         _______ _______ _______ _____ _____    ______ ____

>  <TORSDO>
F 6

$$$$
=
 OpenBabel11052414413D

 32 37  0  0  1  0  0  0  0  0999 V2000
  190.0440  177.9110  142.4890 C   0  0  0  0  0  0  0  0  0  0  0  0
  187.6280  178.4130  141.8600 C   0  0  1  0  0  3  0  0  0  0  0  0
  191.3360  177.4920  142.1300 C   0  0  0  0  0  3  0  0  0  0  0  0
  189.0150  177.9060  141.5220 C   0  0  0  0  0  0  0  0  0  0  0  0
  186.6200  178.2470  140.7110 C   0  0  1  0  0  3  0  0  0  0  0  0
  183.8340  178.4920  144.9810 C   0  0  0  0  0  3  0  0  0  0  0  0
  187.0400  177.7430  143.1020 C   0  0  0  0  0  2  0  0  0  0  0  0
  183.5690  179.2910  142.7110 C   0  0  0  0  0  3  0  0  0  0  0  0
  184.8630  178.8620  142.4020 C   0  0  0  0  0  0  0  0  0  0  0  0
  189.3250  177.5550  140.1920 C   0  0  0  0  0  0  0  0  0  0  0  0
  185.4110  179.1380  141.0260 C   0  0  0  0  0  2  0  0  0  0  0  0
  188.2690  177.5760  139.1290 C   0  0  0  0  0  2  0  0  0  0  0  0
  190.6130  177.1320  139.8550 C   0  0  0  0  0  3  0  0  0  0  0  0
  185.6630  178.2660  143.4060 C   0  0  0  0  0  0  0  0  0  0  0  0
  187.2410  178.5790  139.4190 N   0  0  0  0  0  0  0  0  0  0  0  0
  191.6160  177.0990  140.8230 C   0  0  0  0  0  3  0  0  0  0  0  0
  183.0550  179.1020  143.9960 C   0  0  0  0  0  3  0  0  0  0  0  0
  185.1340  178.0710  144.6850 C   0  0  0  0  0  3  0  0  0  0  0  0
  186.2570  178.5210  138.3320 C   0  0  0  0  0  2  0  0  0  0  0  0
  186.8080  178.9490  137.1170 O   0  0  0  0  0  1  0  0  0  0  0  0
  189.7690  178.3390  143.7920 O   0  0  0  0  0  0  0  0  0  0  0  0
  190.7550  178.8920  144.6530 C   0  0  0  0  0  2  0  0  0  0  0  0
  188.7570  177.6910  147.1560 C   0  0  2  0  0  0  0  0  0  0  0  0
  189.3500  178.3260  148.4150 C   0  0  0  0  0  1  0  0  0  0  0  0
  191.0450  176.7570  145.7920 C   0  0  2  0  0  3  0  0  0  0  0  0
  190.7100  178.1710  145.9820 C   0  0  2  0  0  3  0  0  0  0  0  0
  189.1570  176.3780  147.0960 O   0  0  0  0  0  0  0  0  0  0  0  0
  189.5430  177.1590  145.9630 C   0  0  1  0  0  0  0  0  0  0  0  0
  192.4380  175.0730  146.7510 O   0  0  0  0  0  1  0  0  0  0  0  0
  191.7810  176.2690  147.0380 C   0  0  0  0  0  2  0  0  0  0  0  0
  187.2560  177.7870  146.9750 C   0  0  0  0  0  2  0  0  0  0  0  0
  186.7550  178.8550  147.7180 O   0  0  0  0  0  1  0  0  0  0  0  0
  1 21  1  0  0  0  0
  2  7  1  1  0  0  0
  3  1  1  0  0  0  0
  4  2  1  0  0  0  0
  4  1  2  0  0  0  0
  5 11  1  1  0  0  0
  5  2  1  0  0  0  0
  7 14  1  0  0  0  0
  8 17  1  0  0  0  0
  9  8  2  0  0  0  0
  9 14  1  0  0  0  0
 10  4  1  0  0  0  0
 11  9  1  0  0  0  0
 12 15  1  0  0  0  0
 12 10  1  0  0  0  0
 13 10  2  0  0  0  0
 13 16  1  0  0  0  0
 14 18  2  0  0  0  0
 15  5  1  0  0  0  0
 16  3  2  0  0  0  0
 17  6  2  0  0  0  0
 18  6  1  0  0  0  0
 19 15  1  0  0  0  0
 20 19  1  0  0  0  0
 21 22  1  0  0  0  0
 23 24  1  1  0  0  0
 25 28  1  0  0  0  0
 25 26  1  0  0  0  0
 25 30  1  1  0  0  0
 26 22  1  6  0  0  0
 27 23  1  0  0  0  0
 28 26  1  0  0  0  0
 28 27  1  1  0  0  0
 28 23  1  0  0  0  0
 29 30  1  0  0  0  0
 31 23  1  0  0  0  0
 31 32  1  0  0  0  0
M  END
>  <MODEL>
4

>  <REMARK>
 VINA RESULT:      -9.0      2.430      7.560
  Name = 
  6 active torsions:
  status: ('A' for Active; 'I' for Inactive)
    1  A    between atoms: C_1  and  O_27
    2  A    between atoms: C_3  and  C_22
    3  A    between atoms: C_13  and  N_29
    4  A    between atoms: C_15  and  C_26
    5  A    between atoms: C_16  and  C_24
    6  A    between atoms: C_24  and  O_27
                            x       y       z     vdW  Elec       q    Type
                         _______ _______ _______ _____ _____    ______ ____

>  <TORSDO>
F 6

$$$$
=
 OpenBabel11052414413D

 32 37  0  0  1  0  0  0  0  0999 V2000
  186.2960  178.3060  144.1610 C   0  0  0  0  0  0  0  0  0  0  0  0
  188.6870  177.8730  143.4020 C   0  0  1  0  0  3  0  0  0  0  0  0
  185.3230  178.3290  145.1750 C   0  0  0  0  0  3  0  0  0  0  0  0
  187.5980  177.8480  144.4550 C   0  0  0  0  0  0  0  0  0  0  0  0
  190.0100  177.2520  143.8760 C   0  0  1  0  0  3  0  0  0  0  0  0
  190.0770  176.9400  138.7820 C   0  0  0  0  0  3  0  0  0  0  0  0
  188.2750  177.1680  142.1090 C   0  0  0  0  0  2  0  0  0  0  0  0
  191.7330  177.3650  140.4970 C   0  0  0  0  0  3  0  0  0  0  0  0
  190.7290  177.3850  141.4710 C   0  0  0  0  0  0  0  0  0  0  0  0
  187.9190  177.4950  145.7820 C   0  0  0  0  0  0  0  0  0  0  0  0
  191.1050  177.6940  142.8960 C   0  0  0  0  0  2  0  0  0  0  0  0
  189.3010  177.0410  146.1400 C   0  0  0  0  0  2  0  0  0  0  0  0
  186.9370  177.5150  146.7750 C   0  0  0  0  0  3  0  0  0  0  0  0
  189.3780  177.2070  141.0880 C   0  0  0  0  0  0  0  0  0  0  0  0
  190.3050  177.6480  145.2630 N   0  0  0  0  0  0  0  0  0  0  0  0
  185.6410  177.9290  146.4720 C   0  0  0  0  0  3  0  0  0  0  0  0
  191.4080  177.1400  139.1570 C   0  0  0  0  0  3  0  0  0  0  0  0
  189.0660  176.9700  139.7460 C   0  0  0  0  0  3  0  0  0  0  0  0
  191.6160  177.1430  145.6870 C   0  0  0  0  0  2  0  0  0  0  0  0
  191.7260  177.1080  147.0830 O   0  0  0  0  0  1  0  0  0  0  0  0
  185.9890  178.7410  142.8680 O   0  0  0  0  0  0  0  0  0  0  0  0
  184.6590  178.9530  142.4150 C   0  0  0  0  0  2  0  0  0  0  0  0
  182.4310  178.0250  139.9900 C   0  0  2  0  0  0  0  0  0  0  0  0
  182.6800  176.5230  139.8400 C   0  0  0  0  0  1  0  0  0  0  0  0
  185.0460  179.0900  140.0120 C   0  0  2  0  0  3  0  0  0  0  0  0
  184.4760  178.2640  141.0800 C   0  0  2  0  0  3  0  0  0  0  0  0
  183.0260  178.6760  138.9360 O   0  0  0  0  0  0  0  0  0  0  0  0
  183.4950  179.0930  140.2200 C   0  0  1  0  0  0  0  0  0  0  0  0
  186.2750  178.9130  137.9730 O   0  0  0  0  0  1  0  0  0  0  0  0
  185.6020  178.1600  138.9350 C   0  0  0  0  0  2  0  0  0  0  0  0
  180.9920  178.4760  140.1360 C   0  0  0  0  0  2  0  0  0  0  0  0
  180.5700  178.2960  141.4530 O   0  0  0  0  0  1  0  0  0  0  0  0
  1  4  2  0  0  0  0
  1  3  1  0  0  0  0
  2  7  1  6  0  0  0
  2  5  1  0  0  0  0
  2  4  1  0  0  0  0
  3 16  2  0  0  0  0
  4 10  1  0  0  0  0
  5 11  1  6  0  0  0
  5 15  1  0  0  0  0
  6 17  2  0  0  0  0
  6 18  1  0  0  0  0
  8  9  2  0  0  0  0
  9 11  1  0  0  0  0
 10 12  1  0  0  0  0
 10 13  2  0  0  0  0
 14  9  1  0  0  0  0
 14  7  1  0  0  0  0
 15 19  1  0  0  0  0
 15 12  1  0  0  0  0
 16 13  1  0  0  0  0
 17  8  1  0  0  0  0
 18 14  2  0  0  0  0
 19 20  1  0  0  0  0
 21  1  1  0  0  0  0
 22 21  1  0  0  0  0
 23 24  1  1  0  0  0
 23 31  1  0  0  0  0
 23 28  1  0  0  0  0
 25 30  1  6  0  0  0
 25 28  1  0  0  0  0
 25 26  1  0  0  0  0
 26 22  1  1  0  0  0
 27 23  1  0  0  0  0
 28 27  1  6  0  0  0
 28 26  1  0  0  0  0
 29 30  1  0  0  0  0
 31 32  1  0  0  0  0
M  END
>  <MODEL>
5

>  <REMARK>
 VINA RESULT:      -8.7      2.494      5.502
  Name = 
  6 active torsions:
  status: ('A' for Active; 'I' for Inactive)
    1  A    between atoms: C_1  and  O_27
    2  A    between atoms: C_3  and  C_22
    3  A    between atoms: C_13  and  N_29
    4  A    between atoms: C_15  and  C_26
    5  A    between atoms: C_16  and  C_24
    6  A    between atoms: C_24  and  O_27
                            x       y       z     vdW  Elec       q    Type
                         _______ _______ _______ _____ _____    ______ ____

>  <TORSDO>
F 6

$$$$
=
 OpenBabel11052414413D

 32 37  0  0  1  0  0  0  0  0999 V2000
  189.3900  177.2990  142.6260 C   0  0  0  0  0  0  0  0  0  0  0  0
  186.9120  177.7950  142.9410 C   0  0  1  0  0  3  0  0  0  0  0  0
  190.6820  177.1560  143.1570 C   0  0  0  0  0  3  0  0  0  0  0  0
  188.3290  177.6960  143.4680 C   0  0  0  0  0  0  0  0  0  0  0  0
  185.9110  178.3290  143.9770 C   0  0  1  0  0  3  0  0  0  0  0  0
  183.8460  179.3110  139.4130 C   0  0  0  0  0  3  0  0  0  0  0  0
  186.8070  178.6710  141.6920 C   0  0  0  0  0  2  0  0  0  0  0  0
  182.9890  178.6400  141.5760 C   0  0  0  0  0  3  0  0  0  0  0  0
  184.2940  178.5060  142.0600 C   0  0  0  0  0  0  0  0  0  0  0  0
  188.5740  177.8660  144.8470 C   0  0  0  0  0  0  0  0  0  0  0  0
  184.5000  178.0060  143.4650 C   0  0  0  0  0  2  0  0  0  0  0  0
  187.4650  178.2490  145.7790 C   0  0  0  0  0  2  0  0  0  0  0  0
  189.8680  177.7290  145.3560 C   0  0  0  0  0  3  0  0  0  0  0  0
  185.3890  178.7510  141.1970 C   0  0  0  0  0  0  0  0  0  0  0  0
  186.1730  177.7490  145.3040 N   0  0  0  0  0  0  0  0  0  0  0  0
  190.9200  177.3770  144.5130 C   0  0  0  0  0  3  0  0  0  0  0  0
  182.7650  179.0450  140.2580 C   0  0  0  0  0  3  0  0  0  0  0  0
  185.1540  179.1680  139.8840 C   0  0  0  0  0  3  0  0  0  0  0  0
  185.1580  178.1750  146.2740 C   0  0  0  0  0  2  0  0  0  0  0  0
  185.5500  179.3370  146.9520 O   0  0  0  0  0  1  0  0  0  0  0  0
  189.1420  177.0430  141.2730 O   0  0  0  0  0  0  0  0  0  0  0  0
  190.1570  176.6540  140.3570 C   0  0  0  0  0  2  0  0  0  0  0  0
  189.6080  175.6030  137.1480 C   0  0  2  0  0  0  0  0  0  0  0  0
  190.4770  176.5470  136.3160 C   0  0  0  0  0  1  0  0  0  0  0  0
  188.3090  177.3630  138.9330 C   0  0  2  0  0  3  0  0  0  0  0  0
  189.7430  177.0610  138.9590 C   0  0  2  0  0  3  0  0  0  0  0  0
  188.2990  176.0050  137.0440 O   0  0  0  0  0  0  0  0  0  0  0  0
  188.7990  175.9820  138.3830 C   0  0  1  0  0  0  0  0  0  0  0  0
  189.0240  179.4810  138.0950 O   0  0  0  0  0  1  0  0  0  0  0  0
  188.0750  178.4750  137.9130 C   0  0  0  0  0  2  0  0  0  0  0  0
  189.7230  174.1210  136.8560 C   0  0  0  0  0  2  0  0  0  0  0  0
  190.9260  173.6290  137.3610 O   0  0  0  0  0  1  0  0  0  0  0  0
  1  3  2  0  0  0  0
  1  4  1  0  0  0  0
  2  7  1  6  0  0  0
  2  4  1  0  0  0  0
  2  5  1  0  0  0  0
  3 16  1  0  0  0  0
  4 10  2  0  0  0  0
  5 11  1  6  0  0  0
  5 15  1  0  0  0  0
  6 18  2  0  0  0  0
  6 17  1  0  0  0  0
  8  9  1  0  0  0  0
  9 11  1  0  0  0  0
 10 13  1  0  0  0  0
 10 12  1  0  0  0  0
 14  7  1  0  0  0  0
 14  9  2  0  0  0  0
 15 12  1  0  0  0  0
 15 19  1  0  0  0  0
 16 13  2  0  0  0  0
 17  8  2  0  0  0  0
 18 14  1  0  0  0  0
 19 20  1  0  0  0  0
 21  1  1  0  0  0  0
 22 21  1  0  0  0  0
 23 24  1  6  0  0  0
 23 28  1  0  0  0  0
 25 30  1  6  0  0  0
 25 26  1  0  0  0  0
 26 22  1  1  0  0  0
 27 23  1  0  0  0  0
 28 27  1  6  0  0  0
 28 25  1  0  0  0  0
 28 26  1  0  0  0  0
 30 29  1  0  0  0  0
 31 23  1  0  0  0  0
 31 32  1  0  0  0  0
M  END
>  <MODEL>
6

>  <REMARK>
 VINA RESULT:      -8.6      1.383      4.788
  Name = 
  6 active torsions:
  status: ('A' for Active; 'I' for Inactive)
    1  A    between atoms: C_1  and  O_27
    2  A    between atoms: C_3  and  C_22
    3  A    between atoms: C_13  and  N_29
    4  A    between atoms: C_15  and  C_26
    5  A    between atoms: C_16  and  C_24
    6  A    between atoms: C_24  and  O_27
                            x       y       z     vdW  Elec       q    Type
                         _______ _______ _______ _____ _____    ______ ____

>  <TORSDO>
F 6

$$$$
=
 OpenBabel11052414413D

 32 37  0  0  1  0  0  0  0  0999 V2000
  186.6190  178.3450  140.9870 C   0  0  0  0  0  0  0  0  0  0  0  0
  187.6350  177.9870  143.2940 C   0  0  1  0  0  3  0  0  0  0  0  0
  185.5070  178.6200  140.1730 C   0  0  0  0  0  3  0  0  0  0  0  0
  186.4470  178.2180  142.3820 C   0  0  0  0  0  0  0  0  0  0  0  0
  187.2450  177.7840  144.7670 C   0  0  1  0  0  3  0  0  0  0  0  0
  191.8040  175.5560  144.2180 C   0  0  0  0  0  3  0  0  0  0  0  0
  188.4850  176.7910  142.8640 C   0  0  0  0  0  2  0  0  0  0  0  0
  190.7160  176.8290  145.9660 C   0  0  0  0  0  3  0  0  0  0  0  0
  189.6330  177.0820  145.1180 C   0  0  0  0  0  0  0  0  0  0  0  0
  185.1730  178.4490  142.9410 C   0  0  0  0  0  0  0  0  0  0  0  0
  188.5140  177.9630  145.6090 C   0  0  0  0  0  2  0  0  0  0  0  0
  184.9600  178.3610  144.4220 C   0  0  0  0  0  2  0  0  0  0  0  0
  184.0770  178.7120  142.1160 C   0  0  0  0  0  3  0  0  0  0  0  0
  189.6520  176.5880  143.7920 C   0  0  0  0  0  0  0  0  0  0  0  0
  186.1760  178.7180  145.1570 N   0  0  0  0  0  0  0  0  0  0  0  0
  184.2430  178.7960  140.7350 C   0  0  0  0  0  3  0  0  0  0  0  0
  191.7960  176.0650  145.5180 C   0  0  0  0  0  3  0  0  0  0  0  0
  190.7320  175.8140  143.3590 C   0  0  0  0  0  3  0  0  0  0  0  0
  185.8700  178.6000  146.5870 C   0  0  0  0  0  2  0  0  0  0  0  0
  184.4960  178.4450  146.8080 O   0  0  0  0  0  1  0  0  0  0  0  0
  187.8940  178.2040  140.4290 O   0  0  0  0  0  0  0  0  0  0  0  0
  188.2800  178.8180  139.2070 C   0  0  0  0  0  2  0  0  0  0  0  0
  186.6110  176.8990  136.9200 C   0  0  2  0  0  0  0  0  0  0  0  0
  187.0430  175.4750  137.2730 C   0  0  0  0  0  1  0  0  0  0  0  0
  189.0520  178.3170  136.9500 C   0  0  2  0  0  3  0  0  0  0  0  0
  188.4030  177.7540  138.1370 C   0  0  2  0  0  3  0  0  0  0  0  0
  187.3010  177.3030  135.8030 O   0  0  0  0  0  0  0  0  0  0  0  0
  187.4970  178.1390  136.9450 C   0  0  1  0  0  0  0  0  0  0  0  0
  190.6960  176.6130  137.2520 O   0  0  0  0  0  1  0  0  0  0  0  0
  189.8810  177.2150  136.2930 C   0  0  0  0  0  2  0  0  0  0  0  0
  185.1280  177.1440  136.7330 C   0  0  0  0  0  2  0  0  0  0  0  0
  184.4080  176.4830  137.7270 O   0  0  0  0  0  1  0  0  0  0  0  0
  1  4  1  0  0  0  0
  2  7  1  6  0  0  0
  2  5  1  0  0  0  0
  3 16  1  0  0  0  0
  3  1  2  0  0  0  0
  4 10  2  0  0  0  0
  4  2  1  0  0  0  0
  5 15  1  0  0  0  0
  5 11  1  1  0  0  0
  6 17  1  0  0  0  0
  7 14  1  0  0  0  0
  9 11  1  0  0  0  0
  9  8  1  0  0  0  0
 10 12  1  0  0  0  0
 12 15  1  0  0  0  0
 13 10  1  0  0  0  0
 14  9  2  0  0  0  0
 15 19  1  0  0  0  0
 16 13  2  0  0  0  0
 17  8  2  0  0  0  0
 18 14  1  0  0  0  0
 18  6  2  0  0  0  0
 19 20  1  0  0  0  0
 21  1  1  0  0  0  0
 22 21  1  0  0  0  0
 23 28  1  0  0  0  0
 23 24  1  1  0  0  0
 25 30  1  6  0  0  0
 25 26  1  0  0  0  0
 26 22  1  1  0  0  0
 27 23  1  0  0  0  0
 28 27  1  6  0  0  0
 28 25  1  0  0  0  0
 28 26  1  0  0  0  0
 30 29  1  0  0  0  0
 31 23  1  0  0  0  0
 31 32  1  0  0  0  0
M  END
>  <MODEL>
7

>  <REMARK>
 VINA RESULT:      -8.5      1.424      1.889
  Name = 
  6 active torsions:
  status: ('A' for Active; 'I' for Inactive)
    1  A    between atoms: C_1  and  O_27
    2  A    between atoms: C_3  and  C_22
    3  A    between atoms: C_13  and  N_29
    4  A    between atoms: C_15  and  C_26
    5  A    between atoms: C_16  and  C_24
    6  A    between atoms: C_24  and  O_27
                            x       y       z     vdW  Elec       q    Type
                         _______ _______ _______ _____ _____    ______ ____

>  <TORSDO>
F 6

$$$$
=
 OpenBabel11052414413D

 32 37  0  0  1  0  0  0  0  0999 V2000
  187.1410  178.4240  141.4780 C   0  0  0  0  0  0  0  0  0  0  0  0
  187.9240  178.0300  143.8680 C   0  0  1  0  0  3  0  0  0  0  0  0
  186.1100  178.6820  140.5590 C   0  0  0  0  0  3  0  0  0  0  0  0
  186.8300  178.2440  142.8430 C   0  0  0  0  0  0  0  0  0  0  0  0
  187.3910  177.7640  145.2850 C   0  0  1  0  0  3  0  0  0  0  0  0
  192.0720  175.7330  145.1590 C   0  0  0  0  0  3  0  0  0  0  0  0
  188.8640  176.8820  143.4980 C   0  0  0  0  0  2  0  0  0  0  0  0
  190.7540  176.9050  146.8180 C   0  0  0  0  0  3  0  0  0  0  0  0
  189.7570  177.1440  145.8670 C   0  0  0  0  0  0  0  0  0  0  0  0
  185.4950  178.4070  143.2700 C   0  0  0  0  0  0  0  0  0  0  0  0
  188.5570  177.9640  146.2630 C   0  0  0  0  0  2  0  0  0  0  0  0
  185.1330  178.2630  144.7170 C   0  0  0  0  0  2  0  0  0  0  0  0
  184.4820  178.6550  142.3410 C   0  0  0  0  0  3  0  0  0  0  0  0
  189.9350  176.6940  144.5370 C   0  0  0  0  0  0  0  0  0  0  0  0
  186.2490  178.6420  145.5860 N   0  0  0  0  0  0  0  0  0  0  0  0
  184.7890  178.7900  140.9880 C   0  0  0  0  0  3  0  0  0  0  0  0
  191.9070  176.1990  146.4660 C   0  0  0  0  0  3  0  0  0  0  0  0
  191.0860  175.9770  144.1990 C   0  0  0  0  0  3  0  0  0  0  0  0
  185.8010  178.4650  146.9730 C   0  0  0  0  0  2  0  0  0  0  0  0
  184.4040  178.4040  147.0570 O   0  0  0  0  0  1  0  0  0  0  0  0
  188.4730  178.3500  141.0550 O   0  0  0  0  0  0  0  0  0  0  0  0
  189.0470  177.1760  140.4980 C   0  0  0  0  0  2  0  0  0  0  0  0
  190.1740  175.8710  137.5440 C   0  0  2  0  0  0  0  0  0  0  0  0
  191.5030  176.5950  137.3230 C   0  0  0  0  0  1  0  0  0  0  0  0
  188.4340  177.9700  138.2760 C   0  0  2  0  0  3  0  0  0  0  0  0
  189.5430  177.4830  139.1020 C   0  0  2  0  0  3  0  0  0  0  0  0
  189.2270  176.4320  136.7220 O   0  0  0  0  0  0  0  0  0  0  0  0
  188.9000  176.4850  138.1120 C   0  0  1  0  0  0  0  0  0  0  0  0
  187.9580  179.8090  136.8320 O   0  0  0  0  0  1  0  0  0  0  0  0
  188.9910  178.9880  137.2820 C   0  0  0  0  0  2  0  0  0  0  0  0
  190.1750  174.3640  137.3870 C   0  0  0  0  0  2  0  0  0  0  0  0
  191.4480  173.9250  137.0270 O   0  0  0  0  0  1  0  0  0  0  0  0
  1  4  1  0  0  0  0
  2  7  1  6  0  0  0
  2  5  1  0  0  0  0
  3 16  1  0  0  0  0
  3  1  2  0  0  0  0
  4 10  2  0  0  0  0
  4  2  1  0  0  0  0
  5 15  1  0  0  0  0
  5 11  1  1  0  0  0
  6 17  1  0  0  0  0
  7 14  1  0  0  0  0
  9 11  1  0  0  0  0
  9  8  1  0  0  0  0
 10 12  1  0  0  0  0
 12 15  1  0  0  0  0
 13 10  1  0  0  0  0
 14  9  2  0  0  0  0
 15 19  1  0  0  0  0
 16 13  2  0  0  0  0
 17  8  2  0  0  0  0
 18 14  1  0  0  0  0
 18  6  2  0  0  0  0
 19 20  1  0  0  0  0
 21  1  1  0  0  0  0
 22 21  1  0  0  0  0
 23 24  1  1  0  0  0
 23 28  1  0  0  0  0
 25 30  1  6  0  0  0
 25 26  1  0  0  0  0
 26 22  1  1  0  0  0
 27 23  1  0  0  0  0
 28 27  1  6  0  0  0
 28 25  1  0  0  0  0
 28 26  1  0  0  0  0
 29 30  1  0  0  0  0
 31 23  1  0  0  0  0
 32 31  1  0  0  0  0
M  END
>  <MODEL>
8

>  <REMARK>
 VINA RESULT:      -8.5      1.345      1.974
  Name = 
  6 active torsions:
  status: ('A' for Active; 'I' for Inactive)
    1  A    between atoms: C_1  and  O_27
    2  A    between atoms: C_3  and  C_22
    3  A    between atoms: C_13  and  N_29
    4  A    between atoms: C_15  and  C_26
    5  A    between atoms: C_16  and  C_24
    6  A    between atoms: C_24  and  O_27
                            x       y       z     vdW  Elec       q    Type
                         _______ _______ _______ _____ _____    ______ ____

>  <TORSDO>
F 6

$$$$
=
 OpenBabel11052414413D

 32 37  0  0  1  0  0  0  0  0999 V2000
  185.4070  178.2140  143.6240 C   0  0  0  0  0  0  0  0  0  0  0  0
  184.5900  178.0280  141.2200 C   0  0  1  0  0  3  0  0  0  0  0  0
  185.1670  178.5250  144.9730 C   0  0  0  0  0  3  0  0  0  0  0  0
  184.3860  178.4150  142.6700 C   0  0  0  0  0  0  0  0  0  0  0  0
  183.4050  178.4030  140.3150 C   0  0  1  0  0  3  0  0  0  0  0  0
  187.4590  178.0710  137.2310 C   0  0  0  0  0  3  0  0  0  0  0  0
  185.8530  178.6420  140.6170 C   0  0  0  0  0  2  0  0  0  0  0  0
  185.1100  177.5110  137.0450 C   0  0  0  0  0  3  0  0  0  0  0  0
  184.9210  177.8270  138.3930 C   0  0  0  0  0  0  0  0  0  0  0  0
  183.1160  178.8490  143.1050 C   0  0  0  0  0  0  0  0  0  0  0  0
  183.5600  177.6200  139.0040 C   0  0  0  0  0  2  0  0  0  0  0  0
  181.9950  179.0350  142.1280 C   0  0  0  0  0  2  0  0  0  0  0  0
  182.8990  179.1620  144.4490 C   0  0  0  0  0  3  0  0  0  0  0  0
  186.0240  178.2420  139.1770 C   0  0  0  0  0  0  0  0  0  0  0  0
  182.1260  178.1240  140.9880 N   0  0  0  0  0  0  0  0  0  0  0  0
  183.9230  179.0020  145.3810 C   0  0  0  0  0  3  0  0  0  0  0  0
  186.3750  177.6370  136.4640 C   0  0  0  0  0  3  0  0  0  0  0  0
  187.2820  178.3770  138.5830 C   0  0  0  0  0  3  0  0  0  0  0  0
  180.9930  178.3830  140.0920 C   0  0  0  0  0  2  0  0  0  0  0  0
  180.1160  177.2920  140.0430 O   0  0  0  0  0  1  0  0  0  0  0  0
  186.6440  177.7020  143.2190 O   0  0  0  0  0  0  0  0  0  0  0  0
  187.7050  177.4280  144.1230 C   0  0  0  0  0  2  0  0  0  0  0  0
  191.1010  177.0510  144.2820 C   0  0  2  0  0  0  0  0  0  0  0  0
  191.6240  178.4670  144.0340 C   0  0  0  0  0  1  0  0  0  0  0  0
  189.1410  176.7490  142.2730 C   0  0  2  0  0  3  0  0  0  0  0  0
  189.0250  177.6570  143.4180 C   0  0  2  0  0  3  0  0  0  0  0  0
  191.2590  176.3170  143.1320 O   0  0  0  0  0  0  0  0  0  0  0  0
  189.9090  176.4010  143.5910 C   0  0  1  0  0  0  0  0  0  0  0  0
  190.1270  176.5940  140.1050 O   0  0  0  0  0  1  0  0  0  0  0  0
  189.9300  177.4640  141.1770 C   0  0  0  0  0  2  0  0  0  0  0  0
  191.6790  176.2990  145.4640 C   0  0  0  0  0  2  0  0  0  0  0  0
  191.6800  177.1180  146.5930 O   0  0  0  0  0  1  0  0  0  0  0  0
  1  3  1  0  0  0  0
  2  7  1  6  0  0  0
  2  4  1  0  0  0  0
  3 16  2  0  0  0  0
  4 10  1  0  0  0  0
  4  1  2  0  0  0  0
  5 11  1  6  0  0  0
  5 15  1  0  0  0  0
  5  2  1  0  0  0  0
  6 18  1  0  0  0  0
  8  9  2  0  0  0  0
  9 11  1  0  0  0  0
  9 14  1  0  0  0  0
 10 13  2  0  0  0  0
 12 10  1  0  0  0  0
 13 16  1  0  0  0  0
 14  7  1  0  0  0  0
 15 12  1  0  0  0  0
 17  8  1  0  0  0  0
 17  6  2  0  0  0  0
 18 14  2  0  0  0  0
 19 15  1  0  0  0  0
 20 19  1  0  0  0  0
 21  1  1  0  0  0  0
 21 22  1  0  0  0  0
 23 24  1  6  0  0  0
 23 31  1  0  0  0  0
 25 30  1  6  0  0  0
 25 26  1  0  0  0  0
 25 28  1  0  0  0  0
 26 28  1  0  0  0  0
 26 22  1  1  0  0  0
 27 23  1  0  0  0  0
 28 27  1  6  0  0  0
 28 23  1  0  0  0  0
 29 30  1  0  0  0  0
 31 32  1  0  0  0  0
M  END
>  <MODEL>
9

>  <REMARK>
 VINA RESULT:      -8.4      2.643      6.473
  Name = 
  6 active torsions:
  status: ('A' for Active; 'I' for Inactive)
    1  A    between atoms: C_1  and  O_27
    2  A    between atoms: C_3  and  C_22
    3  A    between atoms: C_13  and  N_29
    4  A    between atoms: C_15  and  C_26
    5  A    between atoms: C_16  and  C_24
    6  A    between atoms: C_24  and  O_27
                            x       y       z     vdW  Elec       q    Type
                         _______ _______ _______ _____ _____    ______ ____

>  <TORSDO>
F 6

$$$$
