=
 OpenBabel11052413223D

 28 30  0  0  1  0  0  0  0  0999 V2000
  186.2250  178.3460  139.9590 C   0  0  2  0  0  3  0  0  0  0  0  0
  183.6760  178.4270  141.2630 C   0  0  0  0  0  2  0  0  0  0  0  0
  187.2370  179.0010  142.0080 O   0  0  0  0  0  0  0  0  0  0  0  0
  183.8250  178.9390  139.8560 C   0  0  0  0  0  3  0  0  0  0  0  0
  184.8700  178.8540  142.1400 C   0  0  2  0  0  3  0  0  0  0  0  0
  185.0170  178.8960  139.2460 C   0  0  0  0  0  3  0  0  0  0  0  0
  186.1980  178.7580  141.4120 C   0  0  0  0  0  0  0  0  0  0  0  0
  187.3910  178.8010  139.3310 O   0  0  0  0  0  0  0  0  0  0  0  0
  187.7260  177.8000  138.4110 C   0  0  2  0  0  3  0  0  0  0  0  0
  189.9540  176.9990  136.6860 N   0  0  0  0  0  2  0  0  0  0  0  0
  188.9510  177.0300  138.9100 C   0  0  0  0  0  2  0  0  0  0  0  0
  187.4940  179.4610  136.7230 O   0  0  0  0  0  0  0  0  0  0  0  0
  187.9940  178.3970  137.0520 C   0  0  0  0  0  0  0  0  0  0  0  0
  188.7780  177.5970  136.0540 C   0  0  0  0  0  2  0  0  0  0  0  0
  189.5180  176.1540  137.7970 C   0  0  0  0  0  2  0  0  0  0  0  0
  184.8850  178.1320  143.4160 N   0  0  0  0  0  2  0  0  0  0  0  0
  184.6920  179.0560  144.5330 C   0  0  0  0  0  2  0  0  0  0  0  0
  184.9990  178.6380  146.8600 F   0  0  0  0  0  0  0  0  0  0  0  0
  185.6750  178.7580  145.6570 C   0  0  1  0  0  3  0  0  0  0  0  0
  186.4720  177.4910  145.3600 C   0  0  0  0  0  2  0  0  0  0  0  0
  188.9340  177.6640  144.7100 C   0  0  0  0  0  2  0  0  0  0  0  0
  188.1390  177.5650  147.1360 C   0  0  0  0  0  3  0  0  0  0  0  0
  190.9240  176.8980  145.9840 C   0  0  0  0  0  0  0  0  0  0  0  0
  187.8920  177.6300  145.8100 C   0  0  0  0  0  0  0  0  0  0  0  0
  190.4950  176.7460  147.2390 C   0  0  0  0  0  3  0  0  0  0  0  0
  189.4750  177.6760  147.8190 C   0  0  0  0  0  2  0  0  0  0  0  0
  191.8850  176.0700  145.4970 F   0  0  0  0  0  0  0  0  0  0  0  0
  190.3690  177.9870  145.1190 C   0  0  0  0  0  2  0  0  0  0  0  0
  1  8  1  6  0  0  0
  1  7  1  0  0  0  0
  2  5  1  0  0  0  0
  4  2  1  0  0  0  0
  5 16  1  1  0  0  0
  6  4  2  0  0  0  0
  6  1  1  0  0  0  0
  7  3  2  0  0  0  0
  7  5  1  0  0  0  0
  9 11  1  0  0  0  0
  9  8  1  1  0  0  0
 10 15  1  0  0  0  0
 12 13  2  0  0  0  0
 13  9  1  0  0  0  0
 14 10  1  0  0  0  0
 14 13  1  0  0  0  0
 15 11  1  0  0  0  0
 16 17  1  0  0  0  0
 17 19  1  0  0  0  0
 19 18  1  1  0  0  0
 20 19  1  0  0  0  0
 20 24  1  0  0  0  0
 21 28  1  0  0  0  0
 21 24  1  0  0  0  0
 22 26  1  0  0  0  0
 23 25  2  0  0  0  0
 24 22  2  0  0  0  0
 25 26  1  0  0  0  0
 27 23  1  0  0  0  0
 28 23  1  0  0  0  0
M  END
>  <MODEL>
1

>  <REMARK>
 VINA RESULT:      -8.4      0.000      0.000
  Name = 
  7 active torsions:
  status: ('A' for Active; 'I' for Inactive)
    1  A    between atoms: C_1  and  O_2
    2  A    between atoms: O_2  and  C_3
    3  A    between atoms: N_5  and  C_20
    4  A    between atoms: N_5  and  C_21
    5  A    between atoms: C_10  and  C_13
    6  A    between atoms: C_10  and  C_25
    7  A    between atoms: C_20  and  C_25
                            x       y       z     vdW  Elec       q    Type
                         _______ _______ _______ _____ _____    ______ ____

>  <TORSDO>
F 7

$$$$
=
 OpenBabel11052413223D

 28 30  0  0  1  0  0  0  0  0999 V2000
  190.3790  177.2230  142.7510 C   0  0  2  0  0  3  0  0  0  0  0  0
  190.7610  178.5930  145.2370 C   0  0  0  0  0  2  0  0  0  0  0  0
  191.2010  175.2420  143.7740 O   0  0  0  0  0  0  0  0  0  0  0  0
  191.0990  179.2710  143.9380 C   0  0  0  0  0  3  0  0  0  0  0  0
  191.2130  177.1190  145.2300 C   0  0  2  0  0  3  0  0  0  0  0  0
  190.9160  178.6310  142.7750 C   0  0  0  0  0  3  0  0  0  0  0  0
  190.9550  176.4320  143.9020 C   0  0  0  0  0  0  0  0  0  0  0  0
  190.6880  176.6220  141.5250 O   0  0  0  0  0  0  0  0  0  0  0  0
  190.1220  177.4560  140.5540 C   0  0  2  0  0  3  0  0  0  0  0  0
  188.2390  177.3270  138.3130 N   0  0  0  0  0  2  0  0  0  0  0  0
  188.6000  177.4830  140.7210 C   0  0  0  0  0  2  0  0  0  0  0  0
  191.5110  176.3390  138.9770 O   0  0  0  0  0  0  0  0  0  0  0  0
  190.4930  176.9870  139.1690 C   0  0  0  0  0  0  0  0  0  0  0  0
  189.6650  177.4450  138.0050 C   0  0  0  0  0  2  0  0  0  0  0  0
  187.9420  178.1240  139.5030 C   0  0  0  0  0  2  0  0  0  0  0  0
  190.6410  176.3760  146.3570 N   0  0  0  0  0  2  0  0  0  0  0  0
  189.9050  177.2750  147.2460 C   0  0  0  0  0  2  0  0  0  0  0  0
  188.1270  176.1500  148.3690 F   0  0  0  0  0  0  0  0  0  0  0  0
  188.4230  176.9250  147.2590 C   0  0  1  0  0  3  0  0  0  0  0  0
  187.5660  178.1880  147.2420 C   0  0  0  0  0  2  0  0  0  0  0  0
  187.1860  177.7830  144.7510 C   0  0  0  0  0  2  0  0  0  0  0  0
  185.3570  178.6380  146.3170 C   0  0  0  0  0  3  0  0  0  0  0  0
  185.5380  178.8720  143.2440 C   0  0  0  0  0  0  0  0  0  0  0  0
  186.6050  178.1710  146.0960 C   0  0  0  0  0  0  0  0  0  0  0  0
  184.6280  179.4100  144.0580 C   0  0  0  0  0  3  0  0  0  0  0  0
  184.2290  178.7210  145.3260 C   0  0  0  0  0  2  0  0  0  0  0  0
  185.8480  179.4940  142.0760 F   0  0  0  0  0  0  0  0  0  0  0  0
  186.2040  177.5790  143.6000 C   0  0  0  0  0  2  0  0  0  0  0  0
  1  8  1  6  0  0  0
  1  6  1  0  0  0  0
  1  7  1  0  0  0  0
  3  7  2  0  0  0  0
  4  2  1  0  0  0  0
  5  2  1  0  0  0  0
  5 16  1  1  0  0  0
  6  4  2  0  0  0  0
  7  5  1  0  0  0  0
  9 11  1  0  0  0  0
  9  8  1  1  0  0  0
 10 15  1  0  0  0  0
 12 13  2  0  0  0  0
 13  9  1  0  0  0  0
 14 10  1  0  0  0  0
 14 13  1  0  0  0  0
 15 11  1  0  0  0  0
 16 17  1  0  0  0  0
 17 19  1  0  0  0  0
 19 18  1  1  0  0  0
 20 19  1  0  0  0  0
 21 24  1  0  0  0  0
 23 28  1  0  0  0  0
 23 25  2  0  0  0  0
 24 22  2  0  0  0  0
 24 20  1  0  0  0  0
 25 26  1  0  0  0  0
 26 22  1  0  0  0  0
 27 23  1  0  0  0  0
 28 21  1  0  0  0  0
M  END
>  <MODEL>
2

>  <REMARK>
 VINA RESULT:      -8.4      2.783      5.237
  Name = 
  7 active torsions:
  status: ('A' for Active; 'I' for Inactive)
    1  A    between atoms: C_1  and  O_2
    2  A    between atoms: O_2  and  C_3
    3  A    between atoms: N_5  and  C_20
    4  A    between atoms: N_5  and  C_21
    5  A    between atoms: C_10  and  C_13
    6  A    between atoms: C_10  and  C_25
    7  A    between atoms: C_20  and  C_25
                            x       y       z     vdW  Elec       q    Type
                         _______ _______ _______ _____ _____    ______ ____

>  <TORSDO>
F 7

$$$$
=
 OpenBabel11052413223D

 28 30  0  0  1  0  0  0  0  0999 V2000
  188.2780  178.4770  141.6300 C   0  0  2  0  0  3  0  0  0  0  0  0
  187.6600  176.6400  143.7380 C   0  0  0  0  0  2  0  0  0  0  0  0
  186.0250  179.2290  141.6940 O   0  0  0  0  0  0  0  0  0  0  0  0
  188.5500  176.2170  142.6010 C   0  0  0  0  0  3  0  0  0  0  0  0
  186.4670  177.4730  143.2310 C   0  0  2  0  0  3  0  0  0  0  0  0
  188.8420  177.0790  141.6170 C   0  0  0  0  0  3  0  0  0  0  0  0
  186.8570  178.4540  142.1410 C   0  0  0  0  0  0  0  0  0  0  0  0
  188.3380  179.0200  140.3410 O   0  0  0  0  0  0  0  0  0  0  0  0
  188.5070  177.9220  139.4880 C   0  0  2  0  0  3  0  0  0  0  0  0
  189.0430  177.3400  136.6680 N   0  0  0  0  0  2  0  0  0  0  0  0
  189.9040  177.9640  138.8630 C   0  0  0  0  0  2  0  0  0  0  0  0
  186.3680  178.4590  138.5940 O   0  0  0  0  0  0  0  0  0  0  0  0
  187.4470  177.9180  138.4140 C   0  0  0  0  0  0  0  0  0  0  0  0
  187.6860  177.1160  137.1680 C   0  0  0  0  0  2  0  0  0  0  0  0
  190.0010  176.9710  137.7100 C   0  0  0  0  0  2  0  0  0  0  0  0
  185.7600  178.1270  144.3370 N   0  0  0  0  0  2  0  0  0  0  0  0
  186.0970  177.4930  145.6110 C   0  0  0  0  0  2  0  0  0  0  0  0
  186.2040  179.2730  147.1930 F   0  0  0  0  0  0  0  0  0  0  0  0
  186.9850  178.4040  146.4490 C   0  0  1  0  0  3  0  0  0  0  0  0
  187.8970  177.5860  147.3590 C   0  0  0  0  0  2  0  0  0  0  0  0
  189.5120  178.2370  145.4940 C   0  0  0  0  0  2  0  0  0  0  0  0
  190.1730  176.7210  147.4410 C   0  0  0  0  0  3  0  0  0  0  0  0
  191.4950  176.9910  144.6640 C   0  0  0  0  0  0  0  0  0  0  0  0
  189.2870  177.5210  146.8100 C   0  0  0  0  0  0  0  0  0  0  0  0
  191.7900  176.1240  145.6340 C   0  0  0  0  0  3  0  0  0  0  0  0
  191.6150  176.4940  147.0740 C   0  0  0  0  0  2  0  0  0  0  0  0
  191.7070  176.6470  143.3670 F   0  0  0  0  0  0  0  0  0  0  0  0
  190.9510  178.3470  144.9970 C   0  0  0  0  0  2  0  0  0  0  0  0
  1  8  1  6  0  0  0
  1  7  1  0  0  0  0
  3  7  2  0  0  0  0
  4  2  1  0  0  0  0
  5  2  1  0  0  0  0
  5 16  1  1  0  0  0
  6  1  1  0  0  0  0
  6  4  2  0  0  0  0
  7  5  1  0  0  0  0
  9  8  1  1  0  0  0
 10 14  1  0  0  0  0
 10 15  1  0  0  0  0
 11  9  1  0  0  0  0
 13 12  2  0  0  0  0
 13  9  1  0  0  0  0
 14 13  1  0  0  0  0
 15 11  1  0  0  0  0
 16 17  1  0  0  0  0
 17 19  1  0  0  0  0
 19 18  1  1  0  0  0
 19 20  1  0  0  0  0
 21 24  1  0  0  0  0
 23 28  1  0  0  0  0
 23 25  2  0  0  0  0
 24 20  1  0  0  0  0
 24 22  2  0  0  0  0
 25 26  1  0  0  0  0
 26 22  1  0  0  0  0
 27 23  1  0  0  0  0
 28 21  1  0  0  0  0
M  END
>  <MODEL>
3

>  <REMARK>
 VINA RESULT:      -8.1      1.707      2.428
  Name = 
  7 active torsions:
  status: ('A' for Active; 'I' for Inactive)
    1  A    between atoms: C_1  and  O_2
    2  A    between atoms: O_2  and  C_3
    3  A    between atoms: N_5  and  C_20
    4  A    between atoms: N_5  and  C_21
    5  A    between atoms: C_10  and  C_13
    6  A    between atoms: C_10  and  C_25
    7  A    between atoms: C_20  and  C_25
                            x       y       z     vdW  Elec       q    Type
                         _______ _______ _______ _____ _____    ______ ____

>  <TORSDO>
F 7

$$$$
=
 OpenBabel11052413223D

 28 30  0  0  1  0  0  0  0  0999 V2000
  183.9010  178.5310  142.1020 C   0  0  2  0  0  3  0  0  0  0  0  0
  186.2760  177.9290  143.5850 C   0  0  0  0  0  2  0  0  0  0  0  0
  185.2650  179.4720  140.3980 O   0  0  0  0  0  0  0  0  0  0  0  0
  185.0490  178.4390  144.2920 C   0  0  0  0  0  3  0  0  0  0  0  0
  186.5090  178.6820  142.2610 C   0  0  2  0  0  3  0  0  0  0  0  0
  183.9370  178.7170  143.5970 C   0  0  0  0  0  3  0  0  0  0  0  0
  185.2230  178.9440  141.4990 C   0  0  0  0  0  0  0  0  0  0  0  0
  182.8490  179.2790  141.5600 O   0  0  0  0  0  0  0  0  0  0  0  0
  181.7480  178.4140  141.5570 C   0  0  2  0  0  3  0  0  0  0  0  0
  179.1110  178.1490  140.3080 N   0  0  0  0  0  2  0  0  0  0  0  0
  181.5290  177.8620  140.1460 C   0  0  0  0  0  2  0  0  0  0  0  0
  180.5930  180.0950  142.7840 O   0  0  0  0  0  0  0  0  0  0  0  0
  180.5110  179.1280  142.0430 C   0  0  0  0  0  0  0  0  0  0  0  0
  179.1660  178.5490  141.7140 C   0  0  0  0  0  2  0  0  0  0  0  0
  180.1710  177.1740  140.0480 C   0  0  0  0  0  2  0  0  0  0  0  0
  187.5170  178.0130  141.4320 N   0  0  0  0  0  2  0  0  0  0  0  0
  188.8580  178.4920  141.7660 C   0  0  0  0  0  2  0  0  0  0  0  0
  190.3070  176.6440  141.3500 F   0  0  0  0  0  0  0  0  0  0  0  0
  189.6990  177.3700  142.3610 C   0  0  1  0  0  3  0  0  0  0  0  0
  190.7420  177.9270  143.3260 C   0  0  0  0  0  2  0  0  0  0  0  0
  189.2270  177.7670  145.3730 C   0  0  0  0  0  2  0  0  0  0  0  0
  191.5730  176.7590  145.2970 C   0  0  0  0  0  3  0  0  0  0  0  0
  189.8760  177.5250  147.7590 C   0  0  0  0  0  0  0  0  0  0  0  0
  190.5360  177.3920  144.7090 C   0  0  0  0  0  0  0  0  0  0  0  0
  191.1380  177.0930  147.7330 C   0  0  0  0  0  3  0  0  0  0  0  0
  191.6040  176.1460  146.6700 C   0  0  0  0  0  2  0  0  0  0  0  0
  189.4670  178.3470  148.7610 F   0  0  0  0  0  0  0  0  0  0  0  0
  188.9040  177.0940  146.7050 C   0  0  0  0  0  2  0  0  0  0  0  0
  1  8  1  6  0  0  0
  1  6  1  0  0  0  0
  2  4  1  0  0  0  0
  3  7  2  0  0  0  0
  5 16  1  6  0  0  0
  5  2  1  0  0  0  0
  6  4  2  0  0  0  0
  7  1  1  0  0  0  0
  7  5  1  0  0  0  0
  9  8  1  6  0  0  0
  9 13  1  0  0  0  0
 10 14  1  0  0  0  0
 11  9  1  0  0  0  0
 13 12  2  0  0  0  0
 14 13  1  0  0  0  0
 15 11  1  0  0  0  0
 15 10  1  0  0  0  0
 16 17  1  0  0  0  0
 17 19  1  0  0  0  0
 19 18  1  6  0  0  0
 19 20  1  0  0  0  0
 20 24  1  0  0  0  0
 21 28  1  0  0  0  0
 22 26  1  0  0  0  0
 23 27  1  0  0  0  0
 24 22  2  0  0  0  0
 24 21  1  0  0  0  0
 25 23  2  0  0  0  0
 26 25  1  0  0  0  0
 28 23  1  0  0  0  0
M  END
>  <MODEL>
4

>  <REMARK>
 VINA RESULT:      -8.1      3.012      5.782
  Name = 
  7 active torsions:
  status: ('A' for Active; 'I' for Inactive)
    1  A    between atoms: C_1  and  O_2
    2  A    between atoms: O_2  and  C_3
    3  A    between atoms: N_5  and  C_20
    4  A    between atoms: N_5  and  C_21
    5  A    between atoms: C_10  and  C_13
    6  A    between atoms: C_10  and  C_25
    7  A    between atoms: C_20  and  C_25
                            x       y       z     vdW  Elec       q    Type
                         _______ _______ _______ _____ _____    ______ ____

>  <TORSDO>
F 7

$$$$
=
 OpenBabel11052413223D

 28 30  0  0  1  0  0  0  0  0999 V2000
  185.2010  178.3390  139.2550 C   0  0  2  0  0  3  0  0  0  0  0  0
  182.8920  178.1070  140.9340 C   0  0  0  0  0  2  0  0  0  0  0  0
  186.3410  179.3910  141.0560 O   0  0  0  0  0  0  0  0  0  0  0  0
  182.7410  178.4760  139.4830 C   0  0  0  0  0  3  0  0  0  0  0  0
  184.0890  178.8380  141.5720 C   0  0  2  0  0  3  0  0  0  0  0  0
  183.8220  178.5800  138.6970 C   0  0  0  0  0  3  0  0  0  0  0  0
  185.2960  178.9010  140.6550 C   0  0  0  0  0  0  0  0  0  0  0  0
  186.1570  178.9220  138.4150 O   0  0  0  0  0  0  0  0  0  0  0  0
  187.0650  177.8960  138.1250 C   0  0  2  0  0  3  0  0  0  0  0  0
  189.5070  177.4400  136.5730 N   0  0  0  0  0  2  0  0  0  0  0  0
  188.4630  178.2930  138.6070 C   0  0  0  0  0  2  0  0  0  0  0  0
  186.1070  177.8470  135.9470 O   0  0  0  0  0  0  0  0  0  0  0  0
  187.0790  177.6030  136.6460 C   0  0  0  0  0  0  0  0  0  0  0  0
  188.2560  176.8770  136.0650 C   0  0  0  0  0  2  0  0  0  0  0  0
  189.5120  177.3460  138.0330 C   0  0  0  0  0  2  0  0  0  0  0  0
  184.4220  178.2780  142.8860 N   0  0  0  0  0  2  0  0  0  0  0  0
  184.3390  179.3090  143.9200 C   0  0  0  0  0  2  0  0  0  0  0  0
  184.2110  178.6000  146.1940 F   0  0  0  0  0  0  0  0  0  0  0  0
  185.1000  178.8830  145.1690 C   0  0  1  0  0  3  0  0  0  0  0  0
  185.9880  177.6760  144.8800 C   0  0  0  0  0  2  0  0  0  0  0  0
  188.5220  177.7870  144.6060 C   0  0  0  0  0  2  0  0  0  0  0  0
  187.3660  177.8210  146.8840 C   0  0  0  0  0  3  0  0  0  0  0  0
  190.2800  177.0640  146.2050 C   0  0  0  0  0  0  0  0  0  0  0  0
  187.3250  177.8210  145.5340 C   0  0  0  0  0  0  0  0  0  0  0  0
  189.6630  176.9810  147.3850 C   0  0  0  0  0  3  0  0  0  0  0  0
  188.5840  177.9510  147.7570 C   0  0  0  0  0  2  0  0  0  0  0  0
  191.2880  176.2010  145.9120 F   0  0  0  0  0  0  0  0  0  0  0  0
  189.8840  178.1130  145.2130 C   0  0  0  0  0  2  0  0  0  0  0  0
  1  8  1  6  0  0  0
  1  7  1  0  0  0  0
  2  5  1  0  0  0  0
  4  2  1  0  0  0  0
  5 16  1  1  0  0  0
  6  1  1  0  0  0  0
  6  4  2  0  0  0  0
  7  3  2  0  0  0  0
  7  5  1  0  0  0  0
  9  8  1  6  0  0  0
  9 11  1  0  0  0  0
 10 15  1  0  0  0  0
 12 13  2  0  0  0  0
 13  9  1  0  0  0  0
 14 10  1  0  0  0  0
 14 13  1  0  0  0  0
 15 11  1  0  0  0  0
 16 17  1  0  0  0  0
 17 19  1  0  0  0  0
 19 18  1  1  0  0  0
 20 19  1  0  0  0  0
 20 24  1  0  0  0  0
 21 28  1  0  0  0  0
 21 24  1  0  0  0  0
 22 26  1  0  0  0  0
 23 25  2  0  0  0  0
 24 22  2  0  0  0  0
 25 26  1  0  0  0  0
 27 23  1  0  0  0  0
 28 23  1  0  0  0  0
M  END
>  <MODEL>
5

>  <REMARK>
 VINA RESULT:      -8.1      1.012      1.064
  Name = 
  7 active torsions:
  status: ('A' for Active; 'I' for Inactive)
    1  A    between atoms: C_1  and  O_2
    2  A    between atoms: O_2  and  C_3
    3  A    between atoms: N_5  and  C_20
    4  A    between atoms: N_5  and  C_21
    5  A    between atoms: C_10  and  C_13
    6  A    between atoms: C_10  and  C_25
    7  A    between atoms: C_20  and  C_25
                            x       y       z     vdW  Elec       q    Type
                         _______ _______ _______ _____ _____    ______ ____

>  <TORSDO>
F 7

$$$$
=
 OpenBabel11052413223D

 28 30  0  0  1  0  0  0  0  0999 V2000
  186.5660  178.1900  139.5400 C   0  0  2  0  0  3  0  0  0  0  0  0
  183.9470  178.2270  140.6990 C   0  0  0  0  0  2  0  0  0  0  0  0
  187.4420  178.9370  141.6200 O   0  0  0  0  0  0  0  0  0  0  0  0
  184.1580  178.7030  139.2880 C   0  0  0  0  0  3  0  0  0  0  0  0
  185.0760  178.7190  141.6270 C   0  0  2  0  0  3  0  0  0  0  0  0
  185.3840  178.6810  138.7450 C   0  0  0  0  0  3  0  0  0  0  0  0
  186.4450  178.6450  140.9760 C   0  0  0  0  0  0  0  0  0  0  0  0
  187.7500  178.6640  138.9630 O   0  0  0  0  0  0  0  0  0  0  0  0
  188.4520  177.5170  138.5740 C   0  0  2  0  0  3  0  0  0  0  0  0
  191.0600  176.7510  137.4810 N   0  0  0  0  0  2  0  0  0  0  0  0
  189.7190  177.3740  139.4220 C   0  0  0  0  0  2  0  0  0  0  0  0
  188.1360  178.2490  136.3310 O   0  0  0  0  0  0  0  0  0  0  0  0
  188.8020  177.5820  137.1080 C   0  0  0  0  0  0  0  0  0  0  0  0
  189.9020  176.7030  136.5880 C   0  0  0  0  0  2  0  0  0  0  0  0
  190.6480  176.3250  138.8180 C   0  0  0  0  0  2  0  0  0  0  0  0
  185.0420  178.0350  142.9240 N   0  0  0  0  0  2  0  0  0  0  0  0
  184.9630  179.0050  144.0150 C   0  0  0  0  0  2  0  0  0  0  0  0
  185.4920  179.0080  146.3400 F   0  0  0  0  0  0  0  0  0  0  0  0
  185.9970  178.6950  145.0890 C   0  0  1  0  0  3  0  0  0  0  0  0
  186.4190  177.2300  145.0300 C   0  0  0  0  0  2  0  0  0  0  0  0
  188.8180  177.8770  145.6100 C   0  0  0  0  0  2  0  0  0  0  0  0
  188.2150  176.4370  143.5870 C   0  0  0  0  0  3  0  0  0  0  0  0
  190.7680  178.1010  144.0860 C   0  0  0  0  0  0  0  0  0  0  0  0
  187.8760  177.1000  144.7130 C   0  0  0  0  0  0  0  0  0  0  0  0
  190.4230  177.4340  142.9820 C   0  0  0  0  0  3  0  0  0  0  0  0
  189.6040  176.1840  143.0650 C   0  0  0  0  0  2  0  0  0  0  0  0
  191.5510  179.2060  143.9860 F   0  0  0  0  0  0  0  0  0  0  0  0
  190.3140  177.6270  145.4320 C   0  0  0  0  0  2  0  0  0  0  0  0
  1  8  1  6  0  0  0
  1  7  1  0  0  0  0
  2  5  1  0  0  0  0
  4  2  1  0  0  0  0
  5 16  1  1  0  0  0
  6  4  2  0  0  0  0
  6  1  1  0  0  0  0
  7  3  2  0  0  0  0
  7  5  1  0  0  0  0
  9  8  1  1  0  0  0
  9 11  1  0  0  0  0
 10 15  1  0  0  0  0
 12 13  2  0  0  0  0
 13  9  1  0  0  0  0
 14 13  1  0  0  0  0
 14 10  1  0  0  0  0
 15 11  1  0  0  0  0
 16 17  1  0  0  0  0
 17 19  1  0  0  0  0
 19 18  1  1  0  0  0
 20 19  1  0  0  0  0
 22 24  2  0  0  0  0
 23 28  1  0  0  0  0
 24 20  1  0  0  0  0
 24 21  1  0  0  0  0
 25 26  1  0  0  0  0
 25 23  2  0  0  0  0
 26 22  1  0  0  0  0
 27 23  1  0  0  0  0
 28 21  1  0  0  0  0
M  END
>  <MODEL>
6

>  <REMARK>
 VINA RESULT:      -8.0      1.268      1.826
  Name = 
  7 active torsions:
  status: ('A' for Active; 'I' for Inactive)
    1  A    between atoms: C_1  and  O_2
    2  A    between atoms: O_2  and  C_3
    3  A    between atoms: N_5  and  C_20
    4  A    between atoms: N_5  and  C_21
    5  A    between atoms: C_10  and  C_13
    6  A    between atoms: C_10  and  C_25
    7  A    between atoms: C_20  and  C_25
                            x       y       z     vdW  Elec       q    Type
                         _______ _______ _______ _____ _____    ______ ____

>  <TORSDO>
F 7

$$$$
=
 OpenBabel11052413223D

 28 30  0  0  1  0  0  0  0  0999 V2000
  189.2030  178.6180  138.4240 C   0  0  2  0  0  3  0  0  0  0  0  0
  190.8710  176.7760  139.8480 C   0  0  0  0  0  2  0  0  0  0  0  0
  187.8890  178.8680  140.3900 O   0  0  0  0  0  0  0  0  0  0  0  0
  190.5000  176.5110  138.4140 C   0  0  0  0  0  3  0  0  0  0  0  0
  189.6660  177.3120  140.6450 C   0  0  2  0  0  3  0  0  0  0  0  0
  189.7230  177.3760  137.7480 C   0  0  0  0  0  3  0  0  0  0  0  0
  188.8370  178.3100  139.8580 C   0  0  0  0  0  0  0  0  0  0  0  0
  188.0970  179.1100  137.7200 O   0  0  0  0  0  0  0  0  0  0  0  0
  187.4610  177.9760  137.1990 C   0  0  2  0  0  3  0  0  0  0  0  0
  185.3630  177.2690  135.2810 N   0  0  0  0  0  2  0  0  0  0  0  0
  187.6820  177.9110  135.6850 C   0  0  0  0  0  2  0  0  0  0  0  0
  185.5630  178.6140  138.4850 O   0  0  0  0  0  0  0  0  0  0  0  0
  185.9870  178.0010  137.5180 C   0  0  0  0  0  0  0  0  0  0  0  0
  185.0580  177.1460  136.7060 C   0  0  0  0  0  2  0  0  0  0  0  0
  186.7540  176.8760  135.0560 C   0  0  0  0  0  2  0  0  0  0  0  0
  190.0760  177.8420  141.9500 N   0  0  0  0  0  2  0  0  0  0  0  0
  191.2230  177.0970  142.4690 C   0  0  0  0  0  2  0  0  0  0  0  0
  191.7500  175.3360  143.9880 F   0  0  0  0  0  0  0  0  0  0  0  0
  190.8550  176.3680  143.7550 C   0  0  1  0  0  3  0  0  0  0  0  0
  190.8260  177.3320  144.9370 C   0  0  0  0  0  2  0  0  0  0  0  0
  188.2880  177.5500  144.7950 C   0  0  0  0  0  2  0  0  0  0  0  0
  189.5270  177.1330  146.9890 C   0  0  0  0  0  3  0  0  0  0  0  0
  186.7010  178.2960  146.5550 C   0  0  0  0  0  0  0  0  0  0  0  0
  189.5100  177.2740  145.6470 C   0  0  0  0  0  0  0  0  0  0  0  0
  187.3740  178.1770  147.7010 C   0  0  0  0  0  3  0  0  0  0  0  0
  188.3400  177.0530  147.9110 C   0  0  0  0  0  2  0  0  0  0  0  0
  185.7950  179.2980  146.4080 F   0  0  0  0  0  0  0  0  0  0  0  0
  186.9230  177.3220  145.4400 C   0  0  0  0  0  2  0  0  0  0  0  0
  1  8  1  6  0  0  0
  1  7  1  0  0  0  0
  2  5  1  0  0  0  0
  4  2  1  0  0  0  0
  5 16  1  1  0  0  0
  6  4  2  0  0  0  0
  6  1  1  0  0  0  0
  7  3  2  0  0  0  0
  7  5  1  0  0  0  0
  9 13  1  0  0  0  0
  9  8  1  6  0  0  0
 10 14  1  0  0  0  0
 11  9  1  0  0  0  0
 13 12  2  0  0  0  0
 14 13  1  0  0  0  0
 15 10  1  0  0  0  0
 15 11  1  0  0  0  0
 16 17  1  0  0  0  0
 17 19  1  0  0  0  0
 19 18  1  1  0  0  0
 19 20  1  0  0  0  0
 20 24  1  0  0  0  0
 21 28  1  0  0  0  0
 21 24  1  0  0  0  0
 22 26  1  0  0  0  0
 23 25  2  0  0  0  0
 24 22  2  0  0  0  0
 25 26  1  0  0  0  0
 27 23  1  0  0  0  0
 28 23  1  0  0  0  0
M  END
>  <MODEL>
7

>  <REMARK>
 VINA RESULT:      -8.0      2.356      4.512
  Name = 
  7 active torsions:
  status: ('A' for Active; 'I' for Inactive)
    1  A    between atoms: C_1  and  O_2
    2  A    between atoms: O_2  and  C_3
    3  A    between atoms: N_5  and  C_20
    4  A    between atoms: N_5  and  C_21
    5  A    between atoms: C_10  and  C_13
    6  A    between atoms: C_10  and  C_25
    7  A    between atoms: C_20  and  C_25
                            x       y       z     vdW  Elec       q    Type
                         _______ _______ _______ _____ _____    ______ ____

>  <TORSDO>
F 7

$$$$
=
 OpenBabel11052413223D

 28 30  0  0  1  0  0  0  0  0999 V2000
  183.5920  178.4290  141.4030 C   0  0  2  0  0  3  0  0  0  0  0  0
  185.8720  178.2970  143.1320 C   0  0  0  0  0  2  0  0  0  0  0  0
  184.9680  179.4420  139.7510 O   0  0  0  0  0  0  0  0  0  0  0  0
  184.5220  178.6660  143.6840 C   0  0  0  0  0  3  0  0  0  0  0  0
  186.1240  178.9820  141.7740 C   0  0  2  0  0  3  0  0  0  0  0  0
  183.4550  178.7230  142.8750 C   0  0  0  0  0  3  0  0  0  0  0  0
  184.8940  178.9920  140.8840 C   0  0  0  0  0  0  0  0  0  0  0  0
  182.5020  178.9700  140.7110 O   0  0  0  0  0  0  0  0  0  0  0  0
  181.5090  177.9840  140.7650 C   0  0  2  0  0  3  0  0  0  0  0  0
  179.1150  177.1360  139.3050 N   0  0  0  0  0  2  0  0  0  0  0  0
  181.5480  177.1420  139.4860 C   0  0  0  0  0  2  0  0  0  0  0  0
  180.0250  179.7070  141.4680 O   0  0  0  0  0  0  0  0  0  0  0  0
  180.1480  178.6110  140.9440 C   0  0  0  0  0  0  0  0  0  0  0  0
  178.9310  177.8070  140.5920 C   0  0  0  0  0  2  0  0  0  0  0  0
  180.2960  176.2770  139.3810 C   0  0  0  0  0  2  0  0  0  0  0  0
  187.2930  178.4150  141.0950 N   0  0  0  0  0  2  0  0  0  0  0  0
  188.4750  178.4940  141.9530 C   0  0  0  0  0  2  0  0  0  0  0  0
  190.6690  177.5670  141.8330 F   0  0  0  0  0  0  0  0  0  0  0  0
  189.3230  177.2360  141.8210 C   0  0  1  0  0  3  0  0  0  0  0  0
  189.0030  176.2450  142.9360 C   0  0  0  0  0  2  0  0  0  0  0  0
  191.0160  176.5170  144.4800 C   0  0  0  0  0  2  0  0  0  0  0  0
  188.6400  177.1550  145.1670 C   0  0  0  0  0  3  0  0  0  0  0  0
  191.0680  176.5180  146.9640 C   0  0  0  0  0  0  0  0  0  0  0  0
  189.5330  176.7240  144.2510 C   0  0  0  0  0  0  0  0  0  0  0  0
  189.8080  176.7520  147.3370 C   0  0  0  0  0  3  0  0  0  0  0  0
  188.9330  177.6770  146.5480 C   0  0  0  0  0  2  0  0  0  0  0  0
  191.8550  175.7120  147.7240 F   0  0  0  0  0  0  0  0  0  0  0  0
  191.6240  177.1530  145.7270 C   0  0  0  0  0  2  0  0  0  0  0  0
  1  8  1  6  0  0  0
  1  6  1  0  0  0  0
  2  4  1  0  0  0  0
  3  7  2  0  0  0  0
  5 16  1  6  0  0  0
  5  2  1  0  0  0  0
  6  4  2  0  0  0  0
  7  1  1  0  0  0  0
  7  5  1  0  0  0  0
  9  8  1  6  0  0  0
  9 13  1  0  0  0  0
 10 15  1  0  0  0  0
 10 14  1  0  0  0  0
 11  9  1  0  0  0  0
 13 12  2  0  0  0  0
 14 13  1  0  0  0  0
 15 11  1  0  0  0  0
 16 17  1  0  0  0  0
 19 18  1  1  0  0  0
 19 17  1  0  0  0  0
 19 20  1  0  0  0  0
 20 24  1  0  0  0  0
 21 28  1  0  0  0  0
 22 26  1  0  0  0  0
 23 25  2  0  0  0  0
 23 27  1  0  0  0  0
 24 21  1  0  0  0  0
 24 22  2  0  0  0  0
 26 25  1  0  0  0  0
 28 23  1  0  0  0  0
M  END
>  <MODEL>
8

>  <REMARK>
 VINA RESULT:      -8.0      3.112      5.460
  Name = 
  7 active torsions:
  status: ('A' for Active; 'I' for Inactive)
    1  A    between atoms: C_1  and  O_2
    2  A    between atoms: O_2  and  C_3
    3  A    between atoms: N_5  and  C_20
    4  A    between atoms: N_5  and  C_21
    5  A    between atoms: C_10  and  C_13
    6  A    between atoms: C_10  and  C_25
    7  A    between atoms: C_20  and  C_25
                            x       y       z     vdW  Elec       q    Type
                         _______ _______ _______ _____ _____    ______ ____

>  <TORSDO>
F 7

$$$$
=
 OpenBabel11052413223D

 28 30  0  0  1  0  0  0  0  0999 V2000
  190.1190  177.2700  142.1020 C   0  0  2  0  0  3  0  0  0  0  0  0
  190.3830  178.1480  144.8150 C   0  0  0  0  0  2  0  0  0  0  0  0
  187.9280  176.5050  142.6160 O   0  0  0  0  0  0  0  0  0  0  0  0
  191.5410  177.4920  144.1150 C   0  0  0  0  0  3  0  0  0  0  0  0
  189.0570  177.4330  144.4890 C   0  0  2  0  0  3  0  0  0  0  0  0
  191.4180  177.0850  142.8440 C   0  0  0  0  0  3  0  0  0  0  0  0
  188.9550  177.0210  143.0320 C   0  0  0  0  0  0  0  0  0  0  0  0
  190.0770  176.4020  141.0040 O   0  0  0  0  0  0  0  0  0  0  0  0
  190.2740  177.2190  139.8840 C   0  0  2  0  0  3  0  0  0  0  0  0
  189.0970  177.7310  137.2510 N   0  0  0  0  0  2  0  0  0  0  0  0
  189.0390  178.0970  139.6620 C   0  0  0  0  0  2  0  0  0  0  0  0
  191.0360  175.2660  138.7600 O   0  0  0  0  0  0  0  0  0  0  0  0
  190.5550  176.3830  138.6600 C   0  0  0  0  0  0  0  0  0  0  0  0
  190.3620  176.9990  137.3050 C   0  0  0  0  0  2  0  0  0  0  0  0
  189.0980  178.7610  138.2900 C   0  0  0  0  0  2  0  0  0  0  0  0
  187.8990  178.2210  144.9240 N   0  0  0  0  0  2  0  0  0  0  0  0
  187.1620  177.5180  145.9730 C   0  0  0  0  0  2  0  0  0  0  0  0
  185.6340  178.6370  147.4210 F   0  0  0  0  0  0  0  0  0  0  0  0
  185.7710  178.1120  146.1460 C   0  0  1  0  0  3  0  0  0  0  0  0
  185.5020  179.1830  145.0920 C   0  0  0  0  0  2  0  0  0  0  0  0
  184.8470  178.4360  142.7420 C   0  0  0  0  0  2  0  0  0  0  0  0
  183.1410  178.8380  144.6000 C   0  0  0  0  0  3  0  0  0  0  0  0
  182.7030  178.8100  141.5440 C   0  0  0  0  0  0  0  0  0  0  0  0
  184.4140  178.7580  144.1570 C   0  0  0  0  0  0  0  0  0  0  0  0
  181.8230  179.1210  142.4980 C   0  0  0  0  0  3  0  0  0  0  0  0
  181.8910  178.4720  143.8460 C   0  0  0  0  0  2  0  0  0  0  0  0
  182.5910  179.3780  140.3150 F   0  0  0  0  0  0  0  0  0  0  0  0
  183.7990  177.8270  141.8140 C   0  0  0  0  0  2  0  0  0  0  0  0
  1  8  1  6  0  0  0
  1  6  1  0  0  0  0
  1  7  1  0  0  0  0
  3  7  2  0  0  0  0
  4  2  1  0  0  0  0
  5  2  1  0  0  0  0
  5 16  1  6  0  0  0
  6  4  2  0  0  0  0
  7  5  1  0  0  0  0
  9  8  1  1  0  0  0
 10 14  1  0  0  0  0
 10 15  1  0  0  0  0
 11  9  1  0  0  0  0
 13 12  2  0  0  0  0
 13  9  1  0  0  0  0
 14 13  1  0  0  0  0
 15 11  1  0  0  0  0
 16 17  1  0  0  0  0
 17 19  1  0  0  0  0
 19 18  1  1  0  0  0
 20 19  1  0  0  0  0
 21 24  1  0  0  0  0
 23 28  1  0  0  0  0
 23 25  2  0  0  0  0
 24 22  2  0  0  0  0
 24 20  1  0  0  0  0
 25 26  1  0  0  0  0
 26 22  1  0  0  0  0
 27 23  1  0  0  0  0
 28 21  1  0  0  0  0
M  END
>  <MODEL>
9

>  <REMARK>
 VINA RESULT:      -7.9      2.568      5.645
  Name = 
  7 active torsions:
  status: ('A' for Active; 'I' for Inactive)
    1  A    between atoms: C_1  and  O_2
    2  A    between atoms: O_2  and  C_3
    3  A    between atoms: N_5  and  C_20
    4  A    between atoms: N_5  and  C_21
    5  A    between atoms: C_10  and  C_13
    6  A    between atoms: C_10  and  C_25
    7  A    between atoms: C_20  and  C_25
                            x       y       z     vdW  Elec       q    Type
                         _______ _______ _______ _____ _____    ______ ____

>  <TORSDO>
F 7

$$$$
