=
 OpenBabel11052413103D

 31 35  0  0  0  0  0  0  0  0999 V2000
  188.8560  177.3660  144.1100 C   0  0  0  0  0  0  0  0  0  0  0  0
  189.4350  177.2890  145.3970 C   0  0  0  0  0  0  0  0  0  0  0  0
  189.2900  177.5430  147.7610 C   0  0  0  0  0  0  0  0  0  0  0  0
  187.5310  177.7790  143.8670 C   0  0  0  0  0  0  0  0  0  0  0  0
  185.4590  178.4670  143.9820 C   0  0  0  0  0  0  0  0  0  0  0  0
  188.7360  177.6160  146.5210 N   0  0  0  0  0  2  0  0  0  0  0  0
  189.0930  177.0750  141.6740 C   0  0  0  0  0  0  0  0  0  0  0  0
  191.4950  176.5300  144.4170 N   0  0  0  0  0  0  0  0  0  0  0  0
  188.6100  177.8540  148.7720 O   0  0  0  0  0  0  0  0  0  0  0  0
  187.7640  177.4970  141.5170 C   0  0  0  0  0  3  0  0  0  0  0  0
  189.6380  177.0110  142.9770 C   0  0  0  0  0  0  0  0  0  0  0  0
  186.5630  178.1750  144.7770 C   0  0  0  0  0  3  0  0  0  0  0  0
  190.6130  177.1230  147.9140 C   0  0  0  0  0  3  0  0  0  0  0  0
  187.0460  177.8280  142.6150 N   0  0  0  0  0  0  0  0  0  0  0  0
  185.7730  178.2480  142.6530 C   0  0  0  0  0  3  0  0  0  0  0  0
  190.9630  176.5940  143.1700 C   0  0  0  0  0  3  0  0  0  0  0  0
  190.7740  176.8610  145.5190 C   0  0  0  0  0  0  0  0  0  0  0  0
  191.3560  176.7820  146.7840 C   0  0  0  0  0  3  0  0  0  0  0  0
  189.4770  178.5520  139.1620 O   0  0  0  0  0  0  0  0  0  0  0  0
  190.0720  177.4530  139.3210 C   0  0  0  0  0  0  0  0  0  0  0  0
  189.9010  176.7120  140.5410 N   0  0  0  0  0  2  0  0  0  0  0  0
  192.5020  175.8490  136.1550 C   0  0  0  0  0  0  0  0  0  0  0  0
  190.3570  176.4900  137.0600 C   0  0  0  0  0  3  0  0  0  0  0  0
  193.2540  177.2640  139.8320 Cl  0  0  0  0  0  0  0  0  0  0  0  0
  193.3170  175.2910  135.0450 C   0  0  0  0  0  1  0  0  0  0  0  0
  191.1200  175.9650  136.0160 C   0  0  0  0  0  3  0  0  0  0  0  0
  192.3640  176.7840  138.3910 C   0  0  0  0  0  0  0  0  0  0  0  0
  190.9560  176.9060  138.2600 C   0  0  0  0  0  0  0  0  0  0  0  0
  193.1180  176.2570  137.3380 C   0  0  0  0  0  3  0  0  0  0  0  0
  184.1560  178.9350  144.4600 C   0  0  0  0  0  3  0  0  0  0  0  0
  183.8860  178.9780  145.7230 N   0  0  0  0  0  2  0  0  0  0  0  0
  1  2  1  0  0  0  0
  2 17  2  0  0  0  0
  2  6  1  0  0  0  0
  3 13  1  0  0  0  0
  3  9  2  0  0  0  0
  4  1  1  0  0  0  0
  4 12  2  0  0  0  0
  5 30  1  0  0  0  0
  5 12  1  0  0  0  0
  6  3  1  0  0  0  0
  7 11  1  0  0  0  0
  8 17  1  0  0  0  0
 10  7  2  0  0  0  0
 10 14  1  0  0  0  0
 11 16  1  0  0  0  0
 11  1  2  0  0  0  0
 14 15  1  0  0  0  0
 14  4  1  0  0  0  0
 15  5  2  0  0  0  0
 16  8  2  0  0  0  0
 17 18  1  0  0  0  0
 18 13  2  0  0  0  0
 19 20  2  0  0  0  0
 20 21  1  0  0  0  0
 21  7  1  0  0  0  0
 22 29  1  0  0  0  0
 23 28  2  0  0  0  0
 25 22  1  0  0  0  0
 26 22  2  0  0  0  0
 26 23  1  0  0  0  0
 27 24  1  0  0  0  0
 28 27  1  0  0  0  0
 28 20  1  0  0  0  0
 29 27  2  0  0  0  0
 30 31  2  0  0  0  0
M  END
>  <MODEL>
1

>  <REMARK>
 VINA RESULT:      -9.9      0.000      0.000
  Name = 
  3 active torsions:
  status: ('A' for Active; 'I' for Inactive)
    1  A    between atoms: C_2  and  C_13
    2  A    between atoms: C_9  and  C_22
    3  A    between atoms: C_15  and  N_23
                            x       y       z     vdW  Elec       q    Type
                         _______ _______ _______ _____ _____    ______ ____

>  <TORSDO>
F 3

$$$$
=
 OpenBabel11052413103D

 31 35  0  0  0  0  0  0  0  0999 V2000
  189.5250  177.4340  139.0180 C   0  0  0  0  0  0  0  0  0  0  0  0
  188.5010  177.6640  138.0700 C   0  0  0  0  0  0  0  0  0  0  0  0
  187.7280  177.7260  135.8190 C   0  0  0  0  0  0  0  0  0  0  0  0
  190.8310  177.0290  138.6810 C   0  0  0  0  0  0  0  0  0  0  0  0
  192.6850  176.4160  137.6970 C   0  0  0  0  0  0  0  0  0  0  0  0
  188.7110  177.5060  136.7330 N   0  0  0  0  0  2  0  0  0  0  0  0
  190.2400  177.3970  141.3760 C   0  0  0  0  0  0  0  0  0  0  0  0
  186.9900  178.2350  139.8520 N   0  0  0  0  0  0  0  0  0  0  0  0
  187.9640  177.5680  134.5940 O   0  0  0  0  0  0  0  0  0  0  0  0
  191.5180  176.9940  140.9590 C   0  0  0  0  0  3  0  0  0  0  0  0
  189.2420  177.6170  140.4000 C   0  0  0  0  0  0  0  0  0  0  0  0
  191.3690  176.7810  137.4290 C   0  0  0  0  0  3  0  0  0  0  0  0
  186.4580  178.1260  136.2370 C   0  0  0  0  0  3  0  0  0  0  0  0
  191.7550  176.8290  139.6370 N   0  0  0  0  0  0  0  0  0  0  0  0
  192.9060  176.4510  139.0620 C   0  0  0  0  0  3  0  0  0  0  0  0
  187.9550  178.0200  140.7820 C   0  0  0  0  0  3  0  0  0  0  0  0
  187.2280  178.0690  138.5260 C   0  0  0  0  0  0  0  0  0  0  0  0
  186.2100  178.2980  137.5990 C   0  0  0  0  0  3  0  0  0  0  0  0
  188.7850  175.5960  143.1850 O   0  0  0  0  0  0  0  0  0  0  0  0
  189.2200  176.6900  143.6340 C   0  0  0  0  0  0  0  0  0  0  0  0
  189.9350  177.5880  142.7690 N   0  0  0  0  0  2  0  0  0  0  0  0
  188.4440  177.8170  147.7120 C   0  0  0  0  0  0  0  0  0  0  0  0
  187.7130  177.4580  145.4390 C   0  0  0  0  0  3  0  0  0  0  0  0
  191.6960  176.5980  145.7050 Cl  0  0  0  0  0  0  0  0  0  0  0  0
  188.1480  178.2110  149.1130 C   0  0  0  0  0  1  0  0  0  0  0  0
  187.4310  177.8290  146.7550 C   0  0  0  0  0  3  0  0  0  0  0  0
  190.0310  177.0600  146.0360 C   0  0  0  0  0  0  0  0  0  0  0  0
  189.0060  177.0700  145.0530 C   0  0  0  0  0  0  0  0  0  0  0  0
  189.7360  177.4350  147.3510 C   0  0  0  0  0  3  0  0  0  0  0  0
  193.6950  176.0490  136.7020 C   0  0  0  0  0  3  0  0  0  0  0  0
  194.5100  176.9310  136.2250 N   0  0  0  0  0  2  0  0  0  0  0  0
  1 11  1  0  0  0  0
  2 17  1  0  0  0  0
  2  1  2  0  0  0  0
  3 13  1  0  0  0  0
  3  6  1  0  0  0  0
  4  1  1  0  0  0  0
  4 14  1  0  0  0  0
  5 15  2  0  0  0  0
  6  2  1  0  0  0  0
  7 21  1  0  0  0  0
  8 16  1  0  0  0  0
  9  3  2  0  0  0  0
 10  7  2  0  0  0  0
 11 16  2  0  0  0  0
 11  7  1  0  0  0  0
 12  5  1  0  0  0  0
 12  4  2  0  0  0  0
 13 18  2  0  0  0  0
 14 10  1  0  0  0  0
 15 14  1  0  0  0  0
 17  8  2  0  0  0  0
 18 17  1  0  0  0  0
 19 20  2  0  0  0  0
 20 28  1  0  0  0  0
 21 20  1  0  0  0  0
 22 25  1  0  0  0  0
 23 26  1  0  0  0  0
 24 27  1  0  0  0  0
 26 22  2  0  0  0  0
 27 29  2  0  0  0  0
 28 23  2  0  0  0  0
 28 27  1  0  0  0  0
 29 22  1  0  0  0  0
 30  5  1  0  0  0  0
 31 30  2  0  0  0  0
M  END
>  <MODEL>
2

>  <REMARK>
 VINA RESULT:      -9.5      2.825      9.035
  Name = 
  3 active torsions:
  status: ('A' for Active; 'I' for Inactive)
    1  A    between atoms: C_2  and  C_13
    2  A    between atoms: C_9  and  C_22
    3  A    between atoms: C_15  and  N_23
                            x       y       z     vdW  Elec       q    Type
                         _______ _______ _______ _____ _____    ______ ____

>  <TORSDO>
F 3

$$$$
=
 OpenBabel11052413103D

 31 35  0  0  0  0  0  0  0  0999 V2000
  187.1700  178.2580  139.3350 C   0  0  0  0  0  0  0  0  0  0  0  0
  187.7530  178.0560  138.0630 C   0  0  0  0  0  0  0  0  0  0  0  0
  187.5990  178.0280  135.6870 C   0  0  0  0  0  0  0  0  0  0  0  0
  185.8300  178.6430  139.5330 C   0  0  0  0  0  0  0  0  0  0  0  0
  183.7320  179.2310  139.3480 C   0  0  0  0  0  0  0  0  0  0  0  0
  187.0420  178.2220  136.9120 N   0  0  0  0  0  2  0  0  0  0  0  0
  187.4180  178.2610  141.7870 C   0  0  0  0  0  0  0  0  0  0  0  0
  189.8410  177.4970  139.1160 N   0  0  0  0  0  0  0  0  0  0  0  0
  186.9080  178.1930  134.6490 O   0  0  0  0  0  0  0  0  0  0  0  0
  186.0730  178.6450  141.9000 C   0  0  0  0  0  3  0  0  0  0  0  0
  187.9660  178.0680  140.4980 C   0  0  0  0  0  0  0  0  0  0  0  0
  184.8480  178.8930  138.5880 C   0  0  0  0  0  3  0  0  0  0  0  0
  188.9380  177.6470  135.5770 C   0  0  0  0  0  3  0  0  0  0  0  0
  185.3420  178.8170  140.7740 N   0  0  0  0  0  0  0  0  0  0  0  0
  184.0540  179.1800  140.6930 C   0  0  0  0  0  3  0  0  0  0  0  0
  189.3060  177.6850  140.3490 C   0  0  0  0  0  3  0  0  0  0  0  0
  189.1080  177.6700  137.9870 C   0  0  0  0  0  0  0  0  0  0  0  0
  189.6940  177.4680  136.7360 C   0  0  0  0  0  3  0  0  0  0  0  0
  187.9970  175.7530  143.2030 O   0  0  0  0  0  0  0  0  0  0  0  0
  188.5060  176.8240  143.6270 C   0  0  0  0  0  0  0  0  0  0  0  0
  188.2380  178.0640  142.9520 N   0  0  0  0  0  2  0  0  0  0  0  0
  191.1820  176.7950  146.9950 C   0  0  0  0  0  0  0  0  0  0  0  0
  190.7460  176.5260  144.6360 C   0  0  0  0  0  3  0  0  0  0  0  0
  187.2630  177.5120  146.5270 Cl  0  0  0  0  0  0  0  0  0  0  0  0
  192.1280  176.7780  148.1410 C   0  0  0  0  0  1  0  0  0  0  0  0
  191.6370  176.5090  145.7100 C   0  0  0  0  0  3  0  0  0  0  0  0
  188.9330  177.1170  146.1370 C   0  0  0  0  0  0  0  0  0  0  0  0
  189.3870  176.8270  144.8230 C   0  0  0  0  0  0  0  0  0  0  0  0
  189.8360  177.0970  147.2050 C   0  0  0  0  0  3  0  0  0  0  0  0
  182.4110  179.5880  138.8250 C   0  0  0  0  0  3  0  0  0  0  0  0
  182.0990  180.8200  138.5920 N   0  0  0  0  0  2  0  0  0  0  0  0
  1  4  1  0  0  0  0
  1 11  1  0  0  0  0
  2  1  2  0  0  0  0
  3  6  1  0  0  0  0
  4 14  1  0  0  0  0
  5 15  2  0  0  0  0
  6  2  1  0  0  0  0
  7 10  2  0  0  0  0
  7 21  1  0  0  0  0
  8 16  1  0  0  0  0
  9  3  2  0  0  0  0
 11  7  1  0  0  0  0
 12  5  1  0  0  0  0
 12  4  2  0  0  0  0
 13  3  1  0  0  0  0
 13 18  2  0  0  0  0
 14 10  1  0  0  0  0
 15 14  1  0  0  0  0
 16 11  2  0  0  0  0
 17  2  1  0  0  0  0
 17  8  2  0  0  0  0
 18 17  1  0  0  0  0
 19 20  2  0  0  0  0
 20 28  1  0  0  0  0
 21 20  1  0  0  0  0
 22 29  1  0  0  0  0
 22 25  1  0  0  0  0
 23 28  2  0  0  0  0
 23 26  1  0  0  0  0
 26 22  2  0  0  0  0
 27 24  1  0  0  0  0
 27 29  2  0  0  0  0
 28 27  1  0  0  0  0
 30  5  1  0  0  0  0
 31 30  2  0  0  0  0
M  END
>  <MODEL>
3

>  <REMARK>
 VINA RESULT:      -9.3      3.330      7.874
  Name = 
  3 active torsions:
  status: ('A' for Active; 'I' for Inactive)
    1  A    between atoms: C_2  and  C_13
    2  A    between atoms: C_9  and  C_22
    3  A    between atoms: C_15  and  N_23
                            x       y       z     vdW  Elec       q    Type
                         _______ _______ _______ _____ _____    ______ ____

>  <TORSDO>
F 3

$$$$
=
 OpenBabel11052413103D

 31 35  0  0  0  0  0  0  0  0999 V2000
  188.7810  177.4860  143.8900 C   0  0  0  0  0  0  0  0  0  0  0  0
  189.3110  177.2820  145.1840 C   0  0  0  0  0  0  0  0  0  0  0  0
  191.1570  176.8860  146.6350 C   0  0  0  0  0  0  0  0  0  0  0  0
  189.5580  177.5030  142.7150 C   0  0  0  0  0  0  0  0  0  0  0  0
  191.1380  177.4490  141.2050 C   0  0  0  0  0  0  0  0  0  0  0  0
  190.6430  177.0830  145.3920 N   0  0  0  0  0  2  0  0  0  0  0  0
  186.8140  177.8970  142.4610 C   0  0  0  0  0  0  0  0  0  0  0  0
  187.1020  177.4810  146.1130 N   0  0  0  0  0  0  0  0  0  0  0  0
  192.3930  176.7060  146.7830 O   0  0  0  0  0  0  0  0  0  0  0  0
  187.6570  177.8990  141.3400 C   0  0  0  0  0  3  0  0  0  0  0  0
  187.3810  177.6890  143.7400 C   0  0  0  0  0  0  0  0  0  0  0  0
  190.9260  177.3350  142.5760 C   0  0  0  0  0  3  0  0  0  0  0  0
  190.3150  176.8840  147.7500 C   0  0  0  0  0  3  0  0  0  0  0  0
  188.9850  177.7030  141.5160 N   0  0  0  0  0  0  0  0  0  0  0  0
  189.9310  177.6750  140.5670 C   0  0  0  0  0  3  0  0  0  0  0  0
  186.5670  177.6800  144.8810 C   0  0  0  0  0  3  0  0  0  0  0  0
  188.4330  177.2850  146.2900 C   0  0  0  0  0  0  0  0  0  0  0  0
  188.9460  177.0850  147.5720 C   0  0  0  0  0  3  0  0  0  0  0  0
  185.3770  179.4520  140.4250 O   0  0  0  0  0  0  0  0  0  0  0  0
  184.7160  178.8660  141.3230 C   0  0  0  0  0  0  0  0  0  0  0  0
  185.3960  178.0990  142.3300 N   0  0  0  0  0  2  0  0  0  0  0  0
  180.4230  179.1210  141.2630 C   0  0  0  0  0  0  0  0  0  0  0  0
  182.5510  178.9840  140.1310 C   0  0  0  0  0  3  0  0  0  0  0  0
  183.1890  178.9850  144.1650 Cl  0  0  0  0  0  0  0  0  0  0  0  0
  178.9410  179.2090  141.2140 C   0  0  0  0  0  1  0  0  0  0  0  0
  181.1590  179.0660  140.0810 C   0  0  0  0  0  3  0  0  0  0  0  0
  182.4750  179.0120  142.5570 C   0  0  0  0  0  0  0  0  0  0  0  0
  183.2350  178.9550  141.3580 C   0  0  0  0  0  0  0  0  0  0  0  0
  181.0810  179.0950  142.4930 C   0  0  0  0  0  3  0  0  0  0  0  0
  192.4300  177.3460  140.5230 C   0  0  0  0  0  3  0  0  0  0  0  0
  192.4990  177.0340  139.2710 N   0  0  0  0  0  2  0  0  0  0  0  0
  1  2  1  0  0  0  0
  2  6  1  0  0  0  0
  2 17  2  0  0  0  0
  3  9  2  0  0  0  0
  3 13  1  0  0  0  0
  4  1  1  0  0  0  0
  5 12  1  0  0  0  0
  6  3  1  0  0  0  0
  7 11  1  0  0  0  0
  8 17  1  0  0  0  0
 10 14  1  0  0  0  0
 10  7  2  0  0  0  0
 11  1  2  0  0  0  0
 11 16  1  0  0  0  0
 12  4  2  0  0  0  0
 14  4  1  0  0  0  0
 15  5  2  0  0  0  0
 15 14  1  0  0  0  0
 16  8  2  0  0  0  0
 17 18  1  0  0  0  0
 18 13  2  0  0  0  0
 19 20  2  0  0  0  0
 20 28  1  0  0  0  0
 20 21  1  0  0  0  0
 21  7  1  0  0  0  0
 22 29  1  0  0  0  0
 23 28  2  0  0  0  0
 25 22  1  0  0  0  0
 26 23  1  0  0  0  0
 26 22  2  0  0  0  0
 27 24  1  0  0  0  0
 28 27  1  0  0  0  0
 29 27  2  0  0  0  0
 30  5  1  0  0  0  0
 31 30  2  0  0  0  0
M  END
>  <MODEL>
4

>  <REMARK>
 VINA RESULT:      -9.2      3.295      7.244
  Name = 
  3 active torsions:
  status: ('A' for Active; 'I' for Inactive)
    1  A    between atoms: C_2  and  C_13
    2  A    between atoms: C_9  and  C_22
    3  A    between atoms: C_15  and  N_23
                            x       y       z     vdW  Elec       q    Type
                         _______ _______ _______ _____ _____    ______ ____

>  <TORSDO>
F 3

$$$$
=
 OpenBabel11052413103D

 31 35  0  0  0  0  0  0  0  0999 V2000
  189.7340  177.2750  138.7620 C   0  0  0  0  0  0  0  0  0  0  0  0
  190.9420  176.8790  138.1430 C   0  0  0  0  0  0  0  0  0  0  0  0
  192.1970  176.3280  136.1960 C   0  0  0  0  0  0  0  0  0  0  0  0
  188.5390  177.5290  138.0620 C   0  0  0  0  0  0  0  0  0  0  0  0
  186.9560  177.8070  136.5790 C   0  0  0  0  0  0  0  0  0  0  0  0
  191.0370  176.7100  136.7940 N   0  0  0  0  0  2  0  0  0  0  0  0
  188.5110  177.8300  140.8280 C   0  0  0  0  0  0  0  0  0  0  0  0
  192.0130  176.8120  140.2950 N   0  0  0  0  0  0  0  0  0  0  0  0
  192.2420  176.1840  134.9470 O   0  0  0  0  0  0  0  0  0  0  0  0
  187.3610  178.0640  140.0580 C   0  0  0  0  0  3  0  0  0  0  0  0
  189.7010  177.4340  140.1750 C   0  0  0  0  0  0  0  0  0  0  0  0
  188.2960  177.4520  136.7000 C   0  0  0  0  0  3  0  0  0  0  0  0
  193.3400  176.0960  136.9650 C   0  0  0  0  0  3  0  0  0  0  0  0
  187.4260  177.9030  138.7160 N   0  0  0  0  0  0  0  0  0  0  0  0
  186.4350  178.0820  137.8310 C   0  0  0  0  0  3  0  0  0  0  0  0
  190.8670  177.1920  140.9130 C   0  0  0  0  0  3  0  0  0  0  0  0
  192.0790  176.6520  138.9490 C   0  0  0  0  0  0  0  0  0  0  0  0
  193.2760  176.2600  138.3490 C   0  0  0  0  0  3  0  0  0  0  0  0
  188.1150  175.7640  142.8810 O   0  0  0  0  0  0  0  0  0  0  0  0
  188.3000  176.9560  143.2430 C   0  0  0  0  0  0  0  0  0  0  0  0
  188.4960  177.9840  142.2580 N   0  0  0  0  0  2  0  0  0  0  0  0
  188.5120  177.9670  147.4180 C   0  0  0  0  0  0  0  0  0  0  0  0
  189.5250  177.1510  145.3840 C   0  0  0  0  0  3  0  0  0  0  0  0
  185.6200  178.0910  144.6420 Cl  0  0  0  0  0  0  0  0  0  0  0  0
  188.6140  178.3080  148.8610 C   0  0  0  0  0  1  0  0  0  0  0  0
  189.6230  177.4710  146.7390 C   0  0  0  0  0  3  0  0  0  0  0  0
  187.1940  177.8260  145.3840 C   0  0  0  0  0  0  0  0  0  0  0  0
  188.3190  177.3200  144.6830 C   0  0  0  0  0  0  0  0  0  0  0  0
  187.3050  178.1420  146.7420 C   0  0  0  0  0  3  0  0  0  0  0  0
  186.1950  177.8840  135.3300 C   0  0  0  0  0  3  0  0  0  0  0  0
  185.3660  176.9500  134.9970 N   0  0  0  0  0  2  0  0  0  0  0  0
  1 11  1  0  0  0  0
  2  1  2  0  0  0  0
  2 17  1  0  0  0  0
  3  6  1  0  0  0  0
  3 13  1  0  0  0  0
  4 14  1  0  0  0  0
  4  1  1  0  0  0  0
  5 12  1  0  0  0  0
  5 15  2  0  0  0  0
  6  2  1  0  0  0  0
  7 21  1  0  0  0  0
  8 16  1  0  0  0  0
  9  3  2  0  0  0  0
 10  7  2  0  0  0  0
 11  7  1  0  0  0  0
 11 16  2  0  0  0  0
 12  4  2  0  0  0  0
 13 18  2  0  0  0  0
 14 10  1  0  0  0  0
 15 14  1  0  0  0  0
 17  8  2  0  0  0  0
 18 17  1  0  0  0  0
 19 20  2  0  0  0  0
 20 28  1  0  0  0  0
 21 20  1  0  0  0  0
 22 25  1  0  0  0  0
 23 26  1  0  0  0  0
 24 27  1  0  0  0  0
 26 22  2  0  0  0  0
 27 29  2  0  0  0  0
 28 23  2  0  0  0  0
 28 27  1  0  0  0  0
 29 22  1  0  0  0  0
 30  5  1  0  0  0  0
 31 30  2  0  0  0  0
M  END
>  <MODEL>
5

>  <REMARK>
 VINA RESULT:      -9.0      3.129      8.368
  Name = 
  3 active torsions:
  status: ('A' for Active; 'I' for Inactive)
    1  A    between atoms: C_2  and  C_13
    2  A    between atoms: C_9  and  C_22
    3  A    between atoms: C_15  and  N_23
                            x       y       z     vdW  Elec       q    Type
                         _______ _______ _______ _____ _____    ______ ____

>  <TORSDO>
F 3

$$$$
=
 OpenBabel11052413103D

 31 35  0  0  0  0  0  0  0  0999 V2000
  187.4700  178.0400  142.7210 C   0  0  0  0  0  0  0  0  0  0  0  0
  188.6910  177.7760  142.0590 C   0  0  0  0  0  0  0  0  0  0  0  0
  190.9730  177.0980  142.1000 C   0  0  0  0  0  0  0  0  0  0  0  0
  187.2810  177.8960  144.1090 C   0  0  0  0  0  0  0  0  0  0  0  0
  187.4610  177.5330  146.2570 C   0  0  0  0  0  0  0  0  0  0  0  0
  189.7970  177.3530  142.7340 N   0  0  0  0  0  2  0  0  0  0  0  0
  185.1140  178.7520  142.5860 C   0  0  0  0  0  0  0  0  0  0  0  0
  187.6770  178.3760  139.9630 N   0  0  0  0  0  0  0  0  0  0  0  0
  191.9710  176.7100  142.7610 O   0  0  0  0  0  0  0  0  0  0  0  0
  185.0070  178.5840  143.9750 C   0  0  0  0  0  3  0  0  0  0  0  0
  186.3510  178.4780  141.9590 C   0  0  0  0  0  0  0  0  0  0  0  0
  188.1900  177.4900  145.0730 C   0  0  0  0  0  3  0  0  0  0  0  0
  191.0770  177.2660  140.7180 C   0  0  0  0  0  3  0  0  0  0  0  0
  186.0900  178.1660  144.6710 N   0  0  0  0  0  0  0  0  0  0  0  0
  186.1690  177.9520  145.9920 C   0  0  0  0  0  3  0  0  0  0  0  0
  186.4930  178.6360  140.5740 C   0  0  0  0  0  3  0  0  0  0  0  0
  188.7620  177.9560  140.6610 C   0  0  0  0  0  0  0  0  0  0  0  0
  189.9630  177.6980  139.9970 C   0  0  0  0  0  3  0  0  0  0  0  0
  183.3510  177.1520  140.8640 O   0  0  0  0  0  0  0  0  0  0  0  0
  183.1460  178.3910  140.9630 C   0  0  0  0  0  0  0  0  0  0  0  0
  183.9950  179.1950  141.7990 N   0  0  0  0  0  2  0  0  0  0  0  0
  180.0270  180.3200  138.7150 C   0  0  0  0  0  0  0  0  0  0  0  0
  182.3450  179.7270  139.0410 C   0  0  0  0  0  3  0  0  0  0  0  0
  180.1340  178.1830  142.1070 Cl  0  0  0  0  0  0  0  0  0  0  0  0
  178.9700  180.9950  137.9190 C   0  0  0  0  0  1  0  0  0  0  0  0
  181.3540  180.3620  138.2910 C   0  0  0  0  0  3  0  0  0  0  0  0
  180.6770  179.0030  140.6480 C   0  0  0  0  0  0  0  0  0  0  0  0
  182.0320  179.0400  140.2250 C   0  0  0  0  0  0  0  0  0  0  0  0
  179.6940  179.6430  139.8880 C   0  0  0  0  0  3  0  0  0  0  0  0
  187.9660  177.1930  147.5900 C   0  0  0  0  0  3  0  0  0  0  0  0
  188.3530  178.1140  148.4100 N   0  0  0  0  0  2  0  0  0  0  0  0
  1  4  1  0  0  0  0
  2  1  1  0  0  0  0
  2  6  1  0  0  0  0
  3  6  1  0  0  0  0
  3  9  2  0  0  0  0
  4 14  1  0  0  0  0
  4 12  2  0  0  0  0
  5 30  1  0  0  0  0
  7 10  2  0  0  0  0
  8 16  2  0  0  0  0
  8 17  1  0  0  0  0
 10 14  1  0  0  0  0
 11  7  1  0  0  0  0
 11  1  2  0  0  0  0
 12  5  1  0  0  0  0
 13  3  1  0  0  0  0
 14 15  1  0  0  0  0
 15  5  2  0  0  0  0
 16 11  1  0  0  0  0
 17  2  2  0  0  0  0
 18 17  1  0  0  0  0
 18 13  2  0  0  0  0
 19 20  2  0  0  0  0
 20 21  1  0  0  0  0
 21  7  1  0  0  0  0
 22 29  1  0  0  0  0
 23 28  2  0  0  0  0
 25 22  1  0  0  0  0
 26 22  2  0  0  0  0
 26 23  1  0  0  0  0
 27 24  1  0  0  0  0
 28 27  1  0  0  0  0
 28 20  1  0  0  0  0
 29 27  2  0  0  0  0
 30 31  2  0  0  0  0
M  END
>  <MODEL>
6

>  <REMARK>
 VINA RESULT:      -8.9      4.379      7.667
  Name = 
  3 active torsions:
  status: ('A' for Active; 'I' for Inactive)
    1  A    between atoms: C_2  and  C_13
    2  A    between atoms: C_9  and  C_22
    3  A    between atoms: C_15  and  N_23
                            x       y       z     vdW  Elec       q    Type
                         _______ _______ _______ _____ _____    ______ ____

>  <TORSDO>
F 3

$$$$
=
 OpenBabel11052413103D

 31 35  0  0  0  0  0  0  0  0999 V2000
  187.2490  178.1120  143.2060 C   0  0  0  0  0  0  0  0  0  0  0  0
  187.3700  177.9030  144.5990 C   0  0  0  0  0  0  0  0  0  0  0  0
  188.6320  177.2060  146.4940 C   0  0  0  0  0  0  0  0  0  0  0  0
  188.2720  177.8380  142.2780 C   0  0  0  0  0  0  0  0  0  0  0  0
  190.1100  177.2720  141.2390 C   0  0  0  0  0  0  0  0  0  0  0  0
  188.5120  177.4090  145.1550 N   0  0  0  0  0  2  0  0  0  0  0  0
  185.8710  178.8520  141.3010 C   0  0  0  0  0  0  0  0  0  0  0  0
  185.1250  178.7070  144.9080 N   0  0  0  0  0  0  0  0  0  0  0  0
  189.7040  176.7490  146.9670 O   0  0  0  0  0  0  0  0  0  0  0  0
  186.9390  178.5540  140.4420 C   0  0  0  0  0  3  0  0  0  0  0  0
  186.0290  178.6300  142.6880 C   0  0  0  0  0  0  0  0  0  0  0  0
  189.5420  177.3350  142.5080 C   0  0  0  0  0  3  0  0  0  0  0  0
  187.5680  177.5050  147.3470 C   0  0  0  0  0  3  0  0  0  0  0  0
  188.0860  178.0620  140.9660 N   0  0  0  0  0  0  0  0  0  0  0  0
  189.2000  177.7230  140.3000 C   0  0  0  0  0  3  0  0  0  0  0  0
  184.9830  178.9170  143.5750 C   0  0  0  0  0  3  0  0  0  0  0  0
  186.2750  178.2140  145.4340 C   0  0  0  0  0  0  0  0  0  0  0  0
  186.3840  178.0110  146.8100 C   0  0  0  0  0  3  0  0  0  0  0  0
  183.4400  177.3790  140.5580 O   0  0  0  0  0  0  0  0  0  0  0  0
  183.4530  178.6330  140.4390 C   0  0  0  0  0  0  0  0  0  0  0  0
  184.6310  179.3760  140.7960 N   0  0  0  0  0  2  0  0  0  0  0  0
  180.0940  180.7970  138.8460 C   0  0  0  0  0  0  0  0  0  0  0  0
  182.4010  180.0930  138.7410 C   0  0  0  0  0  3  0  0  0  0  0  0
  180.6760  178.4950  142.0790 Cl  0  0  0  0  0  0  0  0  0  0  0  0
  178.9500  181.5530  138.2740 C   0  0  0  0  0  1  0  0  0  0  0  0
  181.3280  180.8040  138.2000 C   0  0  0  0  0  3  0  0  0  0  0  0
  181.0000  179.3610  140.5820 C   0  0  0  0  0  0  0  0  0  0  0  0
  182.2630  179.3630  139.9320 C   0  0  0  0  0  0  0  0  0  0  0  0
  179.9340  180.0790  140.0320 C   0  0  0  0  0  3  0  0  0  0  0  0
  191.4620  176.8020  140.9240 C   0  0  0  0  0  3  0  0  0  0  0  0
  192.2550  177.5050  140.1850 N   0  0  0  0  0  2  0  0  0  0  0  0
  1  2  1  0  0  0  0
  2  6  1  0  0  0  0
  2 17  2  0  0  0  0
  3  9  2  0  0  0  0
  3 13  1  0  0  0  0
  4 12  2  0  0  0  0
  4  1  1  0  0  0  0
  5 12  1  0  0  0  0
  6  3  1  0  0  0  0
  7 11  1  0  0  0  0
  8 17  1  0  0  0  0
 10 14  1  0  0  0  0
 10  7  2  0  0  0  0
 11  1  2  0  0  0  0
 11 16  1  0  0  0  0
 14  4  1  0  0  0  0
 15 14  1  0  0  0  0
 15  5  2  0  0  0  0
 16  8  2  0  0  0  0
 17 18  1  0  0  0  0
 18 13  2  0  0  0  0
 20 19  2  0  0  0  0
 20 21  1  0  0  0  0
 21  7  1  0  0  0  0
 22 29  1  0  0  0  0
 23 28  2  0  0  0  0
 25 22  1  0  0  0  0
 26 23  1  0  0  0  0
 26 22  2  0  0  0  0
 27 24  1  0  0  0  0
 28 20  1  0  0  0  0
 28 27  1  0  0  0  0
 29 27  2  0  0  0  0
 30  5  1  0  0  0  0
 31 30  2  0  0  0  0
M  END
>  <MODEL>
7

>  <REMARK>
 VINA RESULT:      -8.9      4.241      7.601
  Name = 
  3 active torsions:
  status: ('A' for Active; 'I' for Inactive)
    1  A    between atoms: C_2  and  C_13
    2  A    between atoms: C_9  and  C_22
    3  A    between atoms: C_15  and  N_23
                            x       y       z     vdW  Elec       q    Type
                         _______ _______ _______ _____ _____    ______ ____

>  <TORSDO>
F 3

$$$$
=
 OpenBabel11052413103D

 31 35  0  0  0  0  0  0  0  0999 V2000
  189.2120  177.4100  142.4040 C   0  0  0  0  0  0  0  0  0  0  0  0
  190.0860  177.4370  141.2930 C   0  0  0  0  0  0  0  0  0  0  0  0
  192.2750  177.2940  140.3660 C   0  0  0  0  0  0  0  0  0  0  0  0
  189.6350  177.2100  143.7330 C   0  0  0  0  0  0  0  0  0  0  0  0
  190.7410  176.8710  145.5890 C   0  0  0  0  0  0  0  0  0  0  0  0
  191.4310  177.2680  141.4330 N   0  0  0  0  0  2  0  0  0  0  0  0
  186.9130  177.5710  143.2790 C   0  0  0  0  0  0  0  0  0  0  0  0
  188.2110  177.8180  139.8370 N   0  0  0  0  0  0  0  0  0  0  0  0
  193.5100  177.1340  140.5380 O   0  0  0  0  0  0  0  0  0  0  0  0
  187.4150  177.3660  144.5730 C   0  0  0  0  0  3  0  0  0  0  0  0
  187.8180  177.5920  142.1920 C   0  0  0  0  0  0  0  0  0  0  0  0
  190.9190  177.0080  144.2150 C   0  0  0  0  0  3  0  0  0  0  0  0
  191.7720  177.4980  139.0790 C   0  0  0  0  0  3  0  0  0  0  0  0
  188.7470  177.1960  144.7410 N   0  0  0  0  0  0  0  0  0  0  0  0
  189.3970  176.9890  145.8960 C   0  0  0  0  0  3  0  0  0  0  0  0
  187.3500  177.7950  140.8870 C   0  0  0  0  0  3  0  0  0  0  0  0
  189.5470  177.6460  140.0060 C   0  0  0  0  0  0  0  0  0  0  0  0
  190.4000  177.6750  138.9020 C   0  0  0  0  0  3  0  0  0  0  0  0
  185.1590  179.6880  144.3170 O   0  0  0  0  0  0  0  0  0  0  0  0
  184.6690  178.8040  143.5650 C   0  0  0  0  0  0  0  0  0  0  0  0
  185.5070  177.7580  143.0440 N   0  0  0  0  0  2  0  0  0  0  0  0
  180.4610  178.8600  142.6760 C   0  0  0  0  0  0  0  0  0  0  0  0
  182.2920  178.7910  144.2490 C   0  0  0  0  0  3  0  0  0  0  0  0
  183.8020  178.9280  140.4570 Cl  0  0  0  0  0  0  0  0  0  0  0  0
  179.0020  178.8790  142.3980 C   0  0  0  0  0  1  0  0  0  0  0  0
  180.9200  178.8080  143.9910 C   0  0  0  0  0  3  0  0  0  0  0  0
  182.7510  178.8790  141.8680 C   0  0  0  0  0  0  0  0  0  0  0  0
  183.2290  178.8250  143.2040 C   0  0  0  0  0  0  0  0  0  0  0  0
  181.3740  178.8950  141.6220 C   0  0  0  0  0  3  0  0  0  0  0  0
  191.7990  176.6390  146.5740 C   0  0  0  0  0  3  0  0  0  0  0  0
  191.6580  177.0100  147.8030 N   0  0  0  0  0  2  0  0  0  0  0  0
  1  4  1  0  0  0  0
  2  6  1  0  0  0  0
  2  1  2  0  0  0  0
  3  9  2  0  0  0  0
  3  6  1  0  0  0  0
  4 12  2  0  0  0  0
  4 14  1  0  0  0  0
  5 15  2  0  0  0  0
  5 30  1  0  0  0  0
  7 10  2  0  0  0  0
  8 17  2  0  0  0  0
  8 16  1  0  0  0  0
 10 14  1  0  0  0  0
 11  1  1  0  0  0  0
 11  7  1  0  0  0  0
 12  5  1  0  0  0  0
 13  3  1  0  0  0  0
 14 15  1  0  0  0  0
 16 11  2  0  0  0  0
 17  2  1  0  0  0  0
 18 13  2  0  0  0  0
 18 17  1  0  0  0  0
 20 19  2  0  0  0  0
 21  7  1  0  0  0  0
 21 20  1  0  0  0  0
 22 26  1  0  0  0  0
 24 27  1  0  0  0  0
 25 22  1  0  0  0  0
 26 23  2  0  0  0  0
 27 28  2  0  0  0  0
 28 20  1  0  0  0  0
 28 23  1  0  0  0  0
 29 27  1  0  0  0  0
 29 22  2  0  0  0  0
 30 31  2  0  0  0  0
M  END
>  <MODEL>
8

>  <REMARK>
 VINA RESULT:      -8.7      2.982      8.090
  Name = 
  3 active torsions:
  status: ('A' for Active; 'I' for Inactive)
    1  A    between atoms: C_2  and  C_13
    2  A    between atoms: C_9  and  C_22
    3  A    between atoms: C_15  and  N_23
                            x       y       z     vdW  Elec       q    Type
                         _______ _______ _______ _____ _____    ______ ____

>  <TORSDO>
F 3

$$$$
=
 OpenBabel11052413103D

 31 35  0  0  0  0  0  0  0  0999 V2000
  185.4840  178.4610  140.6790 C   0  0  0  0  0  0  0  0  0  0  0  0
  184.0870  178.6460  140.7870 C   0  0  0  0  0  0  0  0  0  0  0  0
  181.9530  178.9870  139.7880 C   0  0  0  0  0  0  0  0  0  0  0  0
  186.1810  178.4270  139.4560 C   0  0  0  0  0  0  0  0  0  0  0  0
  186.8140  178.4450  137.3630 C   0  0  0  0  0  0  0  0  0  0  0  0
  183.2970  178.8090  139.6880 N   0  0  0  0  0  2  0  0  0  0  0  0
  187.6530  178.1090  141.7960 C   0  0  0  0  0  0  0  0  0  0  0  0
  184.2600  178.5030  143.1810 N   0  0  0  0  0  0  0  0  0  0  0  0
  181.2600  179.1330  138.7480 O   0  0  0  0  0  0  0  0  0  0  0  0
  188.2730  178.0870  140.5370 C   0  0  0  0  0  3  0  0  0  0  0  0
  186.2530  178.2960  141.8640 C   0  0  0  0  0  0  0  0  0  0  0  0
  185.6850  178.5590  138.1680 C   0  0  0  0  0  3  0  0  0  0  0  0
  181.3390  179.0080  141.0420 C   0  0  0  0  0  3  0  0  0  0  0  0
  187.5130  178.2470  139.4290 N   0  0  0  0  0  0  0  0  0  0  0  0
  187.9320  178.2530  138.1550 C   0  0  0  0  0  3  0  0  0  0  0  0
  185.6030  178.3230  143.1050 C   0  0  0  0  0  3  0  0  0  0  0  0
  183.4980  178.6620  142.0690 C   0  0  0  0  0  0  0  0  0  0  0  0
  182.1190  178.8440  142.1870 C   0  0  0  0  0  3  0  0  0  0  0  0
  188.2990  175.6200  143.2190 O   0  0  0  0  0  0  0  0  0  0  0  0
  188.7170  176.7140  143.6830 C   0  0  0  0  0  0  0  0  0  0  0  0
  188.4140  177.9440  143.0050 N   0  0  0  0  0  2  0  0  0  0  0  0
  191.1830  176.7800  147.2070 C   0  0  0  0  0  0  0  0  0  0  0  0
  190.8800  176.3990  144.8420 C   0  0  0  0  0  3  0  0  0  0  0  0
  187.3270  177.5960  146.4610 Cl  0  0  0  0  0  0  0  0  0  0  0  0
  192.0570  176.7940  148.4080 C   0  0  0  0  0  1  0  0  0  0  0  0
  191.7040  176.4110  145.9680 C   0  0  0  0  0  3  0  0  0  0  0  0
  189.0030  177.1280  146.1960 C   0  0  0  0  0  0  0  0  0  0  0  0
  189.5240  176.7530  144.9290 C   0  0  0  0  0  0  0  0  0  0  0  0
  189.8380  177.1360  147.3170 C   0  0  0  0  0  3  0  0  0  0  0  0
  186.8360  178.5150  135.9000 C   0  0  0  0  0  3  0  0  0  0  0  0
  187.0520  177.4600  135.1860 N   0  0  0  0  0  2  0  0  0  0  0  0
  1  2  2  0  0  0  0
  1 11  1  0  0  0  0
  2 17  1  0  0  0  0
  3 13  1  0  0  0  0
  4  1  1  0  0  0  0
  5 15  2  0  0  0  0
  5 12  1  0  0  0  0
  6  3  1  0  0  0  0
  6  2  1  0  0  0  0
  7 11  1  0  0  0  0
  7 21  1  0  0  0  0
  9  3  2  0  0  0  0
 10  7  2  0  0  0  0
 11 16  2  0  0  0  0
 12  4  2  0  0  0  0
 13 18  2  0  0  0  0
 14  4  1  0  0  0  0
 14 10  1  0  0  0  0
 15 14  1  0  0  0  0
 16  8  1  0  0  0  0
 17 18  1  0  0  0  0
 17  8  2  0  0  0  0
 19 20  2  0  0  0  0
 20 28  1  0  0  0  0
 21 20  1  0  0  0  0
 22 29  1  0  0  0  0
 22 25  1  0  0  0  0
 23 28  2  0  0  0  0
 23 26  1  0  0  0  0
 26 22  2  0  0  0  0
 27 24  1  0  0  0  0
 27 29  2  0  0  0  0
 28 27  1  0  0  0  0
 30  5  1  0  0  0  0
 31 30  2  0  0  0  0
M  END
>  <MODEL>
9

>  <REMARK>
 VINA RESULT:      -8.7      3.571      8.111
  Name = 
  3 active torsions:
  status: ('A' for Active; 'I' for Inactive)
    1  A    between atoms: C_2  and  C_13
    2  A    between atoms: C_9  and  C_22
    3  A    between atoms: C_15  and  N_23
                            x       y       z     vdW  Elec       q    Type
                         _______ _______ _______ _____ _____    ______ ____

>  <TORSDO>
F 3

$$$$
