=
 OpenBabel11052414263D

 32 37  0  0  1  0  0  0  0  0999 V2000
  184.6410  178.5110  142.8610 C   0  0  0  0  0  0  0  0  0  0  0  0
  186.9870  177.9810  143.2520 C   0  0  0  0  0  0  0  0  0  0  0  0
  183.3610  178.7700  143.3710 C   0  0  0  0  0  3  0  0  0  0  0  0
  185.7090  178.2760  143.7570 C   0  0  0  0  0  0  0  0  0  0  0  0
  188.0530  177.6550  144.1100 C   0  0  0  0  0  0  0  0  0  0  0  0
  189.9920  177.0840  139.4330 C   0  0  0  0  0  2  0  0  0  0  0  0
  187.1960  177.9900  141.8590 C   0  0  0  0  0  0  0  0  0  0  0  0
  190.8880  177.0310  141.7520 C   0  0  0  0  0  2  0  0  0  0  0  0
  189.5210  177.4210  142.2430 C   0  0  0  0  0  0  0  0  0  0  0  0
  185.4880  178.3500  145.1470 C   0  0  0  0  0  0  0  0  0  0  0  0
  189.2720  177.3630  143.5790 N   0  0  0  0  0  0  0  0  0  0  0  0
  186.6420  178.3000  146.1050 C   0  0  0  0  0  2  0  0  0  0  0  0
  184.2090  178.6280  145.6340 C   0  0  0  0  0  3  0  0  0  0  0  0
  186.1520  178.2460  141.0230 N   0  0  0  0  0  0  0  0  0  0  0  0
  184.8930  178.4930  141.4770 C   0  0  0  0  0  0  0  0  0  0  0  0
  188.4710  177.7130  141.3440 C   0  0  0  0  0  0  0  0  0  0  0  0
  187.7980  177.4380  145.5850 C   0  0  2  0  0  3  0  0  0  0  0  0
  183.1450  178.8210  144.7500 C   0  0  0  0  0  3  0  0  0  0  0  0
  191.1490  177.5030  140.3250 C   0  0  0  0  0  2  0  0  0  0  0  0
  188.7270  177.8190  139.8600 C   0  0  0  0  0  2  0  0  0  0  0  0
  182.8170  177.6260  138.3720 C   0  0  1  0  0  3  0  0  0  0  0  0
  180.6730  180.6720  138.6250 C   0  0  0  0  0  1  0  0  0  0  0  0
  182.5230  176.3870  137.8010 O   0  0  0  0  0  1  0  0  0  0  0  0
  183.0000  180.4450  138.7180 C   0  0  0  0  0  2  0  0  0  0  0  0
  183.7950  178.7490  140.4890 C   0  0  1  0  0  3  0  0  0  0  0  0
  181.5890  178.5460  138.2860 C   0  0  0  0  0  2  0  0  0  0  0  0
  184.1810  179.8900  139.5350 C   0  0  0  0  0  2  0  0  0  0  0  0
  183.3770  177.4420  139.7910 C   0  0  1  0  0  3  0  0  0  0  0  0
  182.4650  176.7520  140.5920 O   0  0  0  0  0  1  0  0  0  0  0  0
  181.7380  179.7850  139.0560 N   0  0  0  0  0  0  0  0  0  0  0  0
  189.0460  177.7080  146.4140 C   0  0  0  0  0  2  0  0  0  0  0  0
  189.2330  176.6840  147.3440 O   0  0  0  0  0  1  0  0  0  0  0  0
  1  3  2  0  0  0  0
  1  4  1  0  0  0  0
  2  4  1  0  0  0  0
  2  5  1  0  0  0  0
  3 18  1  0  0  0  0
  4 10  2  0  0  0  0
  5 17  1  0  0  0  0
  6 20  1  0  0  0  0
  6 19  1  0  0  0  0
  7  2  2  0  0  0  0
  8  9  1  0  0  0  0
  9 11  1  0  0  0  0
 10 13  1  0  0  0  0
 10 12  1  0  0  0  0
 11  5  2  0  0  0  0
 14 15  2  0  0  0  0
 14  7  1  0  0  0  0
 15  1  1  0  0  0  0
 16  7  1  0  0  0  0
 16  9  2  0  0  0  0
 17 12  1  0  0  0  0
 17 31  1  1  0  0  0
 18 13  2  0  0  0  0
 19  8  1  0  0  0  0
 20 16  1  0  0  0  0
 21 23  1  1  0  0  0
 21 28  1  0  0  0  0
 22 30  1  0  0  0  0
 24 30  1  0  0  0  0
 24 27  1  0  0  0  0
 25 15  1  1  0  0  0
 26 21  1  0  0  0  0
 26 30  1  0  0  0  0
 27 25  1  0  0  0  0
 28 25  1  0  0  0  0
 28 29  1  1  0  0  0
 31 32  1  0  0  0  0
M  END
>  <MODEL>
1

>  <REMARK>
 VINA RESULT:     -10.1      0.000      0.000
  Name = 
  2 active torsions:
  status: ('A' for Active; 'I' for Inactive)
    1  A    between atoms: C_13  and  C_29
    2  A    between atoms: C_16  and  C_27
                            x       y       z     vdW  Elec       q    Type
                         _______ _______ _______ _____ _____    ______ ____

>  <TORSDO>
F 2

$$$$
=
 OpenBabel11052414263D

 32 37  0  0  1  0  0  0  0  0999 V2000
  185.8990  178.0660  144.5780 C   0  0  0  0  0  0  0  0  0  0  0  0
  188.1510  177.6770  143.7340 C   0  0  0  0  0  0  0  0  0  0  0  0
  185.0250  178.2090  145.6660 C   0  0  0  0  0  3  0  0  0  0  0  0
  187.2760  177.8550  144.8190 C   0  0  0  0  0  0  0  0  0  0  0  0
  189.5110  177.3770  143.9350 C   0  0  0  0  0  0  0  0  0  0  0  0
  188.9270  177.2000  138.8770 C   0  0  0  0  0  2  0  0  0  0  0  0
  187.6500  177.7770  142.4210 C   0  0  0  0  0  0  0  0  0  0  0  0
  190.8450  177.0790  140.4550 C   0  0  0  0  0  2  0  0  0  0  0  0
  189.8820  177.3480  141.5790 C   0  0  0  0  0  0  0  0  0  0  0  0
  187.7610  177.8360  146.1410 C   0  0  0  0  0  0  0  0  0  0  0  0
  190.3220  177.1990  142.8570 N   0  0  0  0  0  0  0  0  0  0  0  0
  189.2380  177.8120  146.4110 C   0  0  0  0  0  2  0  0  0  0  0  0
  186.8770  178.0000  147.2100 C   0  0  0  0  0  3  0  0  0  0  0  0
  186.3230  178.0070  142.2220 N   0  0  0  0  0  0  0  0  0  0  0  0
  185.4400  178.1420  143.2500 C   0  0  0  0  0  0  0  0  0  0  0  0
  188.5180  177.6170  141.3300 C   0  0  0  0  0  0  0  0  0  0  0  0
  190.0180  177.0620  145.3250 C   0  0  2  0  0  3  0  0  0  0  0  0
  185.5110  178.1680  146.9740 C   0  0  0  0  0  3  0  0  0  0  0  0
  190.3590  177.6470  139.1250 C   0  0  0  0  0  2  0  0  0  0  0  0
  188.0100  177.8220  139.9240 C   0  0  0  0  0  2  0  0  0  0  0  0
  182.5700  179.3600  141.0180 C   0  0  1  0  0  3  0  0  0  0  0  0
  179.9170  178.4790  143.4910 C   0  0  0  0  0  1  0  0  0  0  0  0
  182.4850  179.4490  139.6280 O   0  0  0  0  0  1  0  0  0  0  0  0
  181.9150  179.6620  143.7720 C   0  0  0  0  0  2  0  0  0  0  0  0
  183.9910  178.3780  142.9450 C   0  0  1  0  0  3  0  0  0  0  0  0
  181.2230  178.9030  141.5970 C   0  0  0  0  0  2  0  0  0  0  0  0
  183.4510  179.5620  143.7610 C   0  0  0  0  0  2  0  0  0  0  0  0
  183.7680  178.4890  141.4260 C   0  0  1  0  0  3  0  0  0  0  0  0
  183.6550  177.2110  140.8720 O   0  0  0  0  0  1  0  0  0  0  0  0
  181.2880  178.5720  143.0240 N   0  0  0  0  0  0  0  0  0  0  0  0
  191.5030  177.3690  145.4620 C   0  0  0  0  0  2  0  0  0  0  0  0
  192.0230  176.7240  146.5840 O   0  0  0  0  0  1  0  0  0  0  0  0
  1  4  1  0  0  0  0
  1  3  2  0  0  0  0
  2  5  1  0  0  0  0
  2  4  1  0  0  0  0
  3 18  1  0  0  0  0
  4 10  2  0  0  0  0
  5 17  1  0  0  0  0
  6 19  1  0  0  0  0
  6 20  1  0  0  0  0
  7  2  2  0  0  0  0
  8  9  1  0  0  0  0
  9 11  1  0  0  0  0
 10 12  1  0  0  0  0
 10 13  1  0  0  0  0
 11  5  2  0  0  0  0
 14  7  1  0  0  0  0
 14 15  2  0  0  0  0
 15  1  1  0  0  0  0
 16  9  2  0  0  0  0
 16  7  1  0  0  0  0
 17 31  1  6  0  0  0
 17 12  1  0  0  0  0
 18 13  2  0  0  0  0
 19  8  1  0  0  0  0
 20 16  1  0  0  0  0
 21 23  1  6  0  0  0
 21 28  1  0  0  0  0
 21 26  1  0  0  0  0
 25 15  1  6  0  0  0
 25 27  1  0  0  0  0
 26 30  1  0  0  0  0
 27 24  1  0  0  0  0
 28 29  1  1  0  0  0
 28 25  1  0  0  0  0
 30 22  1  0  0  0  0
 30 24  1  0  0  0  0
 31 32  1  0  0  0  0
M  END
>  <MODEL>
2

>  <REMARK>
 VINA RESULT:     -10.1      1.781      2.667
  Name = 
  2 active torsions:
  status: ('A' for Active; 'I' for Inactive)
    1  A    between atoms: C_13  and  C_29
    2  A    between atoms: C_16  and  C_27
                            x       y       z     vdW  Elec       q    Type
                         _______ _______ _______ _____ _____    ______ ____

>  <TORSDO>
F 2

$$$$
=
 OpenBabel11052414263D

 32 37  0  0  1  0  0  0  0  0999 V2000
  187.1400  178.0810  141.6680 C   0  0  0  0  0  0  0  0  0  0  0  0
  187.5300  177.8070  144.0580 C   0  0  0  0  0  0  0  0  0  0  0  0
  186.2720  178.4060  140.6160 C   0  0  0  0  0  3  0  0  0  0  0  0
  186.6760  178.1650  143.0010 C   0  0  0  0  0  0  0  0  0  0  0  0
  187.0770  177.7930  145.3890 C   0  0  0  0  0  0  0  0  0  0  0  0
  191.8470  176.0260  145.6740 C   0  0  0  0  0  2  0  0  0  0  0  0
  188.8580  177.4330  143.7730 C   0  0  0  0  0  0  0  0  0  0  0  0
  190.0870  176.6780  147.3060 C   0  0  0  0  0  2  0  0  0  0  0  0
  189.2360  177.1190  146.1470 C   0  0  0  0  0  0  0  0  0  0  0  0
  185.3670  178.6170  143.2600 C   0  0  0  0  0  0  0  0  0  0  0  0
  187.9330  177.4270  146.3820 N   0  0  0  0  0  0  0  0  0  0  0  0
  184.9230  178.9010  144.6650 C   0  0  0  0  0  2  0  0  0  0  0  0
  184.5240  178.9550  142.1980 C   0  0  0  0  0  3  0  0  0  0  0  0
  189.2830  177.3870  142.4810 N   0  0  0  0  0  0  0  0  0  0  0  0
  188.4700  177.6870  141.4310 C   0  0  0  0  0  0  0  0  0  0  0  0
  189.7240  177.0890  144.8220 C   0  0  0  0  0  0  0  0  0  0  0  0
  185.6070  177.9890  145.6900 C   0  0  2  0  0  3  0  0  0  0  0  0
  184.9700  178.8340  140.8800 C   0  0  0  0  0  3  0  0  0  0  0  0
  191.5780  176.7410  146.9890 C   0  0  0  0  0  2  0  0  0  0  0  0
  191.1750  176.7850  144.5350 C   0  0  0  0  0  2  0  0  0  0  0  0
  191.3230  177.4610  138.8790 C   0  0  1  0  0  3  0  0  0  0  0  0
  189.0390  177.4560  135.9260 C   0  0  0  0  0  1  0  0  0  0  0  0
  192.6030  176.9200  139.0030 O   0  0  0  0  0  1  0  0  0  0  0  0
  189.0960  178.8630  137.7940 C   0  0  0  0  0  2  0  0  0  0  0  0
  189.0120  177.5950  140.0360 C   0  0  1  0  0  3  0  0  0  0  0  0
  190.7580  177.1520  137.4840 C   0  0  0  0  0  2  0  0  0  0  0  0
  188.8850  178.9460  139.3160 C   0  0  0  0  0  2  0  0  0  0  0  0
  190.4320  177.0010  140.0430 C   0  0  1  0  0  3  0  0  0  0  0  0
  190.3590  175.6070  140.0830 O   0  0  0  0  0  1  0  0  0  0  0  0
  189.3380  177.4910  137.3460 N   0  0  0  0  0  0  0  0  0  0  0  0
  185.3920  178.5470  147.0900 C   0  0  0  0  0  2  0  0  0  0  0  0
  185.7740  179.8880  147.1340 O   0  0  0  0  0  1  0  0  0  0  0  0
  1  4  1  0  0  0  0
  2  5  1  0  0  0  0
  3 18  2  0  0  0  0
  3  1  1  0  0  0  0
  4 10  1  0  0  0  0
  4  2  2  0  0  0  0
  5 17  1  0  0  0  0
  5 11  2  0  0  0  0
  6 19  1  0  0  0  0
  7  2  1  0  0  0  0
  7 16  1  0  0  0  0
  9 11  1  0  0  0  0
  9  8  1  0  0  0  0
 10 12  1  0  0  0  0
 12 17  1  0  0  0  0
 13 10  2  0  0  0  0
 14  7  2  0  0  0  0
 15  1  2  0  0  0  0
 15 14  1  0  0  0  0
 16  9  2  0  0  0  0
 17 31  1  1  0  0  0
 18 13  1  0  0  0  0
 19  8  1  0  0  0  0
 20 16  1  0  0  0  0
 20  6  1  0  0  0  0
 21 23  1  1  0  0  0
 21 28  1  0  0  0  0
 22 30  1  0  0  0  0
 24 27  1  0  0  0  0
 25 28  1  0  0  0  0
 25 15  1  1  0  0  0
 26 21  1  0  0  0  0
 27 25  1  0  0  0  0
 28 29  1  6  0  0  0
 30 26  1  0  0  0  0
 30 24  1  0  0  0  0
 31 32  1  0  0  0  0
M  END
>  <MODEL>
3

>  <REMARK>
 VINA RESULT:      -9.9      3.216      5.460
  Name = 
  2 active torsions:
  status: ('A' for Active; 'I' for Inactive)
    1  A    between atoms: C_13  and  C_29
    2  A    between atoms: C_16  and  C_27
                            x       y       z     vdW  Elec       q    Type
                         _______ _______ _______ _____ _____    ______ ____

>  <TORSDO>
F 2

$$$$
=
 OpenBabel11052414263D

 32 37  0  0  1  0  0  0  0  0999 V2000
  185.1960  178.2090  143.8120 C   0  0  0  0  0  0  0  0  0  0  0  0
  187.5490  177.7970  144.2930 C   0  0  0  0  0  0  0  0  0  0  0  0
  183.8940  178.4510  144.2730 C   0  0  0  0  0  3  0  0  0  0  0  0
  186.2480  178.0740  144.7460 C   0  0  0  0  0  0  0  0  0  0  0  0
  188.6030  177.5680  145.1960 C   0  0  0  0  0  0  0  0  0  0  0  0
  190.6860  176.7730  140.6140 C   0  0  0  0  0  2  0  0  0  0  0  0
  187.7940  177.7240  142.9080 C   0  0  0  0  0  0  0  0  0  0  0  0
  191.5210  176.9030  142.9530 C   0  0  0  0  0  2  0  0  0  0  0  0
  190.1280  177.2720  143.3840 C   0  0  0  0  0  0  0  0  0  0  0  0
  185.9870  178.2280  146.1230 C   0  0  0  0  0  0  0  0  0  0  0  0
  189.8460  177.2900  144.7150 N   0  0  0  0  0  0  0  0  0  0  0  0
  187.1160  178.2850  147.1100 C   0  0  0  0  0  2  0  0  0  0  0  0
  184.6860  178.4880  146.5590 C   0  0  0  0  0  3  0  0  0  0  0  0
  186.7650  177.8860  142.0320 N   0  0  0  0  0  0  0  0  0  0  0  0
  185.4850  178.1130  142.4390 C   0  0  0  0  0  0  0  0  0  0  0  0
  189.0920  177.4640  142.4430 C   0  0  0  0  0  0  0  0  0  0  0  0
  188.3170  177.4370  146.6750 C   0  0  2  0  0  3  0  0  0  0  0  0
  183.6400  178.5830  145.6390 C   0  0  0  0  0  3  0  0  0  0  0  0
  191.8030  177.2930  141.5050 C   0  0  0  0  0  2  0  0  0  0  0  0
  189.3830  177.4840  140.9620 C   0  0  0  0  0  2  0  0  0  0  0  0
  183.6900  179.9830  139.6130 C   0  0  1  0  0  3  0  0  0  0  0  0
  181.0290  177.3930  139.2280 C   0  0  0  0  0  1  0  0  0  0  0  0
  184.1870  180.8820  138.6690 O   0  0  0  0  0  1  0  0  0  0  0  0
  181.8480  178.4480  141.1480 C   0  0  0  0  0  2  0  0  0  0  0  0
  184.4050  178.2620  141.4090 C   0  0  1  0  0  3  0  0  0  0  0  0
  182.6380  179.0700  138.9630 C   0  0  0  0  0  2  0  0  0  0  0  0
  183.0660  178.6100  142.0760 C   0  0  0  0  0  2  0  0  0  0  0  0
  184.8440  179.2370  140.3010 C   0  0  1  0  0  3  0  0  0  0  0  0
  185.6190  178.5580  139.3570 O   0  0  0  0  0  1  0  0  0  0  0  0
  182.2270  177.9560  139.8230 N   0  0  0  0  0  0  0  0  0  0  0  0
  189.5310  177.8070  147.5150 C   0  0  0  0  0  2  0  0  0  0  0  0
  189.1260  178.2340  148.7800 O   0  0  0  0  0  1  0  0  0  0  0  0
  1  3  2  0  0  0  0
  1  4  1  0  0  0  0
  2  4  1  0  0  0  0
  2  5  1  0  0  0  0
  3 18  1  0  0  0  0
  4 10  2  0  0  0  0
  5 17  1  0  0  0  0
  6 20  1  0  0  0  0
  6 19  1  0  0  0  0
  7  2  2  0  0  0  0
  8  9  1  0  0  0  0
  9 11  1  0  0  0  0
 10 13  1  0  0  0  0
 10 12  1  0  0  0  0
 11  5  2  0  0  0  0
 14 15  2  0  0  0  0
 14  7  1  0  0  0  0
 15  1  1  0  0  0  0
 16  7  1  0  0  0  0
 16  9  2  0  0  0  0
 17 12  1  0  0  0  0
 17 31  1  1  0  0  0
 18 13  2  0  0  0  0
 19  8  1  0  0  0  0
 20 16  1  0  0  0  0
 21 23  1  6  0  0  0
 21 28  1  0  0  0  0
 22 30  1  0  0  0  0
 24 27  1  0  0  0  0
 25 27  1  0  0  0  0
 25 15  1  1  0  0  0
 26 21  1  0  0  0  0
 26 30  1  0  0  0  0
 28 29  1  6  0  0  0
 28 25  1  0  0  0  0
 30 24  1  0  0  0  0
 31 32  1  0  0  0  0
M  END
>  <MODEL>
4

>  <REMARK>
 VINA RESULT:      -9.7      1.576      1.991
  Name = 
  2 active torsions:
  status: ('A' for Active; 'I' for Inactive)
    1  A    between atoms: C_13  and  C_29
    2  A    between atoms: C_16  and  C_27
                            x       y       z     vdW  Elec       q    Type
                         _______ _______ _______ _____ _____    ______ ____

>  <TORSDO>
F 2

$$$$
=
 OpenBabel11052414263D

 32 37  0  0  1  0  0  0  0  0999 V2000
  189.7430  177.2960  142.2050 C   0  0  0  0  0  0  0  0  0  0  0  0
  188.0180  177.7150  143.8750 C   0  0  0  0  0  0  0  0  0  0  0  0
  191.0750  176.9850  141.8970 C   0  0  0  0  0  3  0  0  0  0  0  0
  189.3440  177.3700  143.5590 C   0  0  0  0  0  0  0  0  0  0  0  0
  187.6070  177.8850  145.2100 C   0  0  0  0  0  0  0  0  0  0  0  0
  183.4990  179.1350  142.4660 C   0  0  0  0  0  2  0  0  0  0  0  0
  187.0930  177.9180  142.8330 C   0  0  0  0  0  0  0  0  0  0  0  0
  183.9990  178.8130  144.8810 C   0  0  0  0  0  2  0  0  0  0  0  0
  185.3850  178.3770  144.4920 C   0  0  0  0  0  0  0  0  0  0  0  0
  190.2730  177.0870  144.5800 C   0  0  0  0  0  0  0  0  0  0  0  0
  186.3170  178.2330  145.4720 N   0  0  0  0  0  0  0  0  0  0  0  0
  189.8230  176.9670  146.0070 C   0  0  0  0  0  2  0  0  0  0  0  0
  191.5900  176.7600  144.2510 C   0  0  0  0  0  3  0  0  0  0  0  0
  187.5010  177.8130  141.5390 N   0  0  0  0  0  0  0  0  0  0  0  0
  188.7870  177.5220  141.1970 C   0  0  0  0  0  0  0  0  0  0  0  0
  185.7630  178.2470  143.1370 C   0  0  0  0  0  0  0  0  0  0  0  0
  188.6300  177.8770  146.3230 C   0  0  2  0  0  3  0  0  0  0  0  0
  191.9950  176.7260  142.9150 C   0  0  0  0  0  3  0  0  0  0  0  0
  182.9790  178.5620  143.7750 C   0  0  0  0  0  2  0  0  0  0  0  0
  184.7420  178.3670  142.0310 C   0  0  0  0  0  2  0  0  0  0  0  0
  188.1430  178.1170  137.4640 C   0  0  1  0  0  3  0  0  0  0  0  0
  191.3350  176.5100  136.3840 C   0  0  0  0  0  1  0  0  0  0  0  0
  187.3940  179.1050  136.8250 O   0  0  0  0  0  1  0  0  0  0  0  0
  189.6890  175.7600  137.8680 C   0  0  0  0  0  2  0  0  0  0  0  0
  189.1590  177.4420  139.7470 C   0  0  1  0  0  3  0  0  0  0  0  0
  189.4170  177.8210  136.6570 C   0  0  0  0  0  2  0  0  0  0  0  0
  189.0150  176.0030  139.2300 C   0  0  0  0  0  2  0  0  0  0  0  0
  188.3930  178.4990  138.9310 C   0  0  1  0  0  3  0  0  0  0  0  0
  189.0560  179.7270  139.0110 O   0  0  0  0  0  1  0  0  0  0  0  0
  190.3660  176.9570  137.3670 N   0  0  0  0  0  0  0  0  0  0  0  0
  188.0100  177.4590  147.6500 C   0  0  0  0  0  2  0  0  0  0  0  0
  188.5260  178.2390  148.6850 O   0  0  0  0  0  1  0  0  0  0  0  0
  1  4  1  0  0  0  0
  2  5  1  0  0  0  0
  3  1  2  0  0  0  0
  3 18  1  0  0  0  0
  4  2  1  0  0  0  0
  4 10  2  0  0  0  0
  5 11  2  0  0  0  0
  5 17  1  0  0  0  0
  6 19  1  0  0  0  0
  7 16  1  0  0  0  0
  7  2  2  0  0  0  0
  9  8  1  0  0  0  0
  9 11  1  0  0  0  0
 10 12  1  0  0  0  0
 12 17  1  0  0  0  0
 13 10  1  0  0  0  0
 14  7  1  0  0  0  0
 15 14  2  0  0  0  0
 15  1  1  0  0  0  0
 16  9  2  0  0  0  0
 17 31  1  1  0  0  0
 18 13  2  0  0  0  0
 19  8  1  0  0  0  0
 20  6  1  0  0  0  0
 20 16  1  0  0  0  0
 21 23  1  6  0  0  0
 21 28  1  0  0  0  0
 22 30  1  0  0  0  0
 24 27  1  0  0  0  0
 25 15  1  1  0  0  0
 26 30  1  0  0  0  0
 26 21  1  0  0  0  0
 27 25  1  0  0  0  0
 28 29  1  6  0  0  0
 28 25  1  0  0  0  0
 30 24  1  0  0  0  0
 31 32  1  0  0  0  0
M  END
>  <MODEL>
5

>  <REMARK>
 VINA RESULT:      -9.6      2.771      5.996
  Name = 
  2 active torsions:
  status: ('A' for Active; 'I' for Inactive)
    1  A    between atoms: C_13  and  C_29
    2  A    between atoms: C_16  and  C_27
                            x       y       z     vdW  Elec       q    Type
                         _______ _______ _______ _____ _____    ______ ____

>  <TORSDO>
F 2

$$$$
=
 OpenBabel11052414263D

 32 37  0  0  1  0  0  0  0  0999 V2000
  185.9290  178.4370  143.6930 C   0  0  0  0  0  0  0  0  0  0  0  0
  185.9120  178.4620  141.2570 C   0  0  0  0  0  0  0  0  0  0  0  0
  185.2420  178.5830  144.9070 C   0  0  0  0  0  3  0  0  0  0  0  0
  185.2220  178.5730  142.4760 C   0  0  0  0  0  0  0  0  0  0  0  0
  185.2610  178.6790  140.0280 C   0  0  0  0  0  0  0  0  0  0  0  0
  190.1330  177.9150  138.7460 C   0  0  0  0  0  2  0  0  0  0  0  0
  187.2850  178.1500  141.2690 C   0  0  0  0  0  0  0  0  0  0  0  0
  187.9870  178.1780  137.5170 C   0  0  0  0  0  2  0  0  0  0  0  0
  187.2810  178.2160  138.8450 C   0  0  0  0  0  0  0  0  0  0  0  0
  183.8330  178.8080  142.4950 C   0  0  0  0  0  0  0  0  0  0  0  0
  185.9690  178.5740  138.8710 N   0  0  0  0  0  0  0  0  0  0  0  0
  183.0350  178.7590  141.2240 C   0  0  0  0  0  2  0  0  0  0  0  0
  183.1640  178.9320  143.7140 C   0  0  0  0  0  3  0  0  0  0  0  0
  187.9320  177.9980  142.4570 N   0  0  0  0  0  0  0  0  0  0  0  0
  187.3040  178.1420  143.6570 C   0  0  0  0  0  0  0  0  0  0  0  0
  187.9810  178.0200  140.0570 C   0  0  0  0  0  0  0  0  0  0  0  0
  183.8470  179.2150  140.0060 C   0  0  2  0  0  3  0  0  0  0  0  0
  183.8690  178.8370  144.9170 C   0  0  0  0  0  3  0  0  0  0  0  0
  189.3010  177.4050  137.5800 C   0  0  0  0  0  2  0  0  0  0  0  0
  189.4270  177.5890  140.0570 C   0  0  0  0  0  2  0  0  0  0  0  0
  190.2880  176.8310  145.6770 C   0  0  1  0  0  3  0  0  0  0  0  0
  189.0740  178.2640  148.9040 C   0  0  0  0  0  1  0  0  0  0  0  0
  191.5930  176.5470  145.2750 O   0  0  0  0  0  1  0  0  0  0  0  0
  187.9520  176.9870  147.2970 C   0  0  0  0  0  2  0  0  0  0  0  0
  188.0930  177.9750  144.9210 C   0  0  1  0  0  3  0  0  0  0  0  0
  190.2980  177.4700  147.0750 C   0  0  0  0  0  2  0  0  0  0  0  0
  187.4090  176.9670  145.8570 C   0  0  0  0  0  2  0  0  0  0  0  0
  189.5660  177.6600  144.6030 C   0  0  1  0  0  3  0  0  0  0  0  0
  190.2580  178.8480  144.3540 O   0  0  0  0  0  1  0  0  0  0  0  0
  188.9920  178.0010  147.4790 N   0  0  0  0  0  0  0  0  0  0  0  0
  183.1180  178.8150  138.7310 C   0  0  0  0  0  2  0  0  0  0  0  0
  182.2760  179.8490  138.3180 O   0  0  0  0  0  1  0  0  0  0  0  0
  1  3  2  0  0  0  0
  2  7  1  0  0  0  0
  2  4  1  0  0  0  0
  3 18  1  0  0  0  0
  4 10  2  0  0  0  0
  4  1  1  0  0  0  0
  5  2  2  0  0  0  0
  6 20  1  0  0  0  0
  7 14  1  0  0  0  0
  8 19  1  0  0  0  0
  8  9  1  0  0  0  0
  9 11  2  0  0  0  0
  9 16  1  0  0  0  0
 10 13  1  0  0  0  0
 11  5  1  0  0  0  0
 12 10  1  0  0  0  0
 13 18  2  0  0  0  0
 14 15  2  0  0  0  0
 15  1  1  0  0  0  0
 16  7  2  0  0  0  0
 17 31  1  6  0  0  0
 17  5  1  0  0  0  0
 17 12  1  0  0  0  0
 19  6  1  0  0  0  0
 20 16  1  0  0  0  0
 21 23  1  6  0  0  0
 21 26  1  0  0  0  0
 24 30  1  0  0  0  0
 25 15  1  6  0  0  0
 25 27  1  0  0  0  0
 26 30  1  0  0  0  0
 27 24  1  0  0  0  0
 28 29  1  1  0  0  0
 28 25  1  0  0  0  0
 28 21  1  0  0  0  0
 30 22  1  0  0  0  0
 32 31  1  0  0  0  0
M  END
>  <MODEL>
6

>  <REMARK>
 VINA RESULT:      -9.5      1.864      6.957
  Name = 
  2 active torsions:
  status: ('A' for Active; 'I' for Inactive)
    1  A    between atoms: C_13  and  C_29
    2  A    between atoms: C_16  and  C_27
                            x       y       z     vdW  Elec       q    Type
                         _______ _______ _______ _____ _____    ______ ____

>  <TORSDO>
F 2

$$$$
=
 OpenBabel11052414263D

 32 37  0  0  1  0  0  0  0  0999 V2000
  184.2010  178.3910  142.5770 C   0  0  0  0  0  0  0  0  0  0  0  0
  186.3640  178.0810  143.6560 C   0  0  0  0  0  0  0  0  0  0  0  0
  182.8240  178.6380  142.6800 C   0  0  0  0  0  3  0  0  0  0  0  0
  184.9900  178.3620  143.7490 C   0  0  0  0  0  0  0  0  0  0  0  0
  187.1630  177.9560  144.8070 C   0  0  0  0  0  0  0  0  0  0  0  0
  190.3160  176.8300  140.9670 C   0  0  0  0  0  2  0  0  0  0  0  0
  186.9440  177.8980  142.3850 C   0  0  0  0  0  0  0  0  0  0  0  0
  190.5470  177.1790  143.4180 C   0  0  0  0  0  2  0  0  0  0  0  0
  189.0890  177.5470  143.4590 C   0  0  0  0  0  0  0  0  0  0  0  0
  184.3970  178.6250  145.0000 C   0  0  0  0  0  0  0  0  0  0  0  0
  188.4870  177.6700  144.6720 N   0  0  0  0  0  0  0  0  0  0  0  0
  185.2460  178.7940  146.2260 C   0  0  0  0  0  2  0  0  0  0  0  0
  183.0270  178.8880  145.0790 C   0  0  0  0  0  3  0  0  0  0  0  0
  186.1630  177.9580  141.2720 N   0  0  0  0  0  0  0  0  0  0  0  0
  184.8210  178.1860  141.3310 C   0  0  0  0  0  0  0  0  0  0  0  0
  188.3180  177.6330  142.2790 C   0  0  0  0  0  0  0  0  0  0  0  0
  186.5200  177.9430  146.1760 C   0  0  2  0  0  3  0  0  0  0  0  0
  182.2400  178.8780  143.9250 C   0  0  0  0  0  3  0  0  0  0  0  0
  191.1760  177.4520  142.0550 C   0  0  0  0  0  2  0  0  0  0  0  0
  188.9660  177.5350  140.9190 C   0  0  0  0  0  2  0  0  0  0  0  0
  182.2390  179.7270  138.9510 C   0  0  1  0  0  3  0  0  0  0  0  0
  182.5940  177.0310  136.3920 C   0  0  0  0  0  1  0  0  0  0  0  0
  181.8480  181.0550  138.7820 O   0  0  0  0  0  1  0  0  0  0  0  0
  182.2830  176.8910  138.7060 C   0  0  0  0  0  2  0  0  0  0  0  0
  184.0290  178.2210  140.0580 C   0  0  1  0  0  3  0  0  0  0  0  0
  182.2920  179.0200  137.5880 C   0  0  0  0  0  2  0  0  0  0  0  0
  182.9190  177.1580  140.0820 C   0  0  0  0  0  2  0  0  0  0  0  0
  183.5430  179.6510  139.7600 C   0  0  1  0  0  3  0  0  0  0  0  0
  184.5570  180.3690  139.1220 O   0  0  0  0  0  1  0  0  0  0  0  0
  182.9040  177.6880  137.6480 N   0  0  0  0  0  0  0  0  0  0  0  0
  187.4880  178.4140  147.2530 C   0  0  0  0  0  2  0  0  0  0  0  0
  187.8810  177.3350  148.0470 O   0  0  0  0  0  1  0  0  0  0  0  0
  1  3  2  0  0  0  0
  1  4  1  0  0  0  0
  2  4  1  0  0  0  0
  2  5  1  0  0  0  0
  3 18  1  0  0  0  0
  4 10  2  0  0  0  0
  5 17  1  0  0  0  0
  6 19  1  0  0  0  0
  7  2  2  0  0  0  0
  8  9  1  0  0  0  0
  9 11  1  0  0  0  0
 10 13  1  0  0  0  0
 10 12  1  0  0  0  0
 11  5  2  0  0  0  0
 14 15  2  0  0  0  0
 14  7  1  0  0  0  0
 15  1  1  0  0  0  0
 16  7  1  0  0  0  0
 16  9  2  0  0  0  0
 17 12  1  0  0  0  0
 17 31  1  1  0  0  0
 18 13  2  0  0  0  0
 19  8  1  0  0  0  0
 20  6  1  0  0  0  0
 20 16  1  0  0  0  0
 21 23  1  6  0  0  0
 21 28  1  0  0  0  0
 22 30  1  0  0  0  0
 24 27  1  0  0  0  0
 25 27  1  0  0  0  0
 25 15  1  1  0  0  0
 26 30  1  0  0  0  0
 26 21  1  0  0  0  0
 28 29  1  6  0  0  0
 28 25  1  0  0  0  0
 30 24  1  0  0  0  0
 31 32  1  0  0  0  0
M  END
>  <MODEL>
7

>  <REMARK>
 VINA RESULT:      -9.5      1.586      2.095
  Name = 
  2 active torsions:
  status: ('A' for Active; 'I' for Inactive)
    1  A    between atoms: C_13  and  C_29
    2  A    between atoms: C_16  and  C_27
                            x       y       z     vdW  Elec       q    Type
                         _______ _______ _______ _____ _____    ______ ____

>  <TORSDO>
F 2

$$$$
=
 OpenBabel11052414263D

 32 37  0  0  1  0  0  0  0  0999 V2000
  185.6610  178.3370  143.6340 C   0  0  0  0  0  0  0  0  0  0  0  0
  183.6200  178.5250  142.3150 C   0  0  0  0  0  0  0  0  0  0  0  0
  186.3010  178.3830  144.8810 C   0  0  0  0  0  3  0  0  0  0  0  0
  184.2630  178.5340  143.5650 C   0  0  0  0  0  0  0  0  0  0  0  0
  182.2470  178.8050  142.1980 C   0  0  0  0  0  0  0  0  0  0  0  0
  183.8270  178.2680  137.3840 C   0  0  0  0  0  2  0  0  0  0  0  0
  184.3740  178.2520  141.1560 C   0  0  0  0  0  0  0  0  0  0  0  0
  181.6320  178.5520  138.5190 C   0  0  0  0  0  2  0  0  0  0  0  0
  182.3520  178.4800  139.8370 C   0  0  0  0  0  0  0  0  0  0  0  0
  183.5230  178.7280  144.7490 C   0  0  0  0  0  0  0  0  0  0  0  0
  181.6660  178.7980  140.9670 N   0  0  0  0  0  0  0  0  0  0  0  0
  182.0230  178.7410  144.7160 C   0  0  0  0  0  2  0  0  0  0  0  0
  184.1770  178.7500  145.9820 C   0  0  0  0  0  3  0  0  0  0  0  0
  185.7140  178.0400  141.2580 N   0  0  0  0  0  0  0  0  0  0  0  0
  186.3750  178.0850  142.4480 C   0  0  0  0  0  0  0  0  0  0  0  0
  183.7400  178.2240  139.9040 C   0  0  0  0  0  0  0  0  0  0  0  0
  181.4710  179.3000  143.3990 C   0  0  2  0  0  3  0  0  0  0  0  0
  185.5640  178.5950  146.0470 C   0  0  0  0  0  3  0  0  0  0  0  0
  182.3760  177.8150  137.4090 C   0  0  0  0  0  2  0  0  0  0  0  0
  184.5190  177.8350  138.6710 C   0  0  0  0  0  2  0  0  0  0  0  0
  189.7110  177.1160  140.8260 C   0  0  1  0  0  3  0  0  0  0  0  0
  191.6770  177.5730  143.9670 C   0  0  0  0  0  1  0  0  0  0  0  0
  190.1330  177.2190  139.5000 O   0  0  0  0  0  1  0  0  0  0  0  0
  189.6810  176.4160  143.5850 C   0  0  0  0  0  2  0  0  0  0  0  0
  187.8570  177.8570  142.4720 C   0  0  1  0  0  3  0  0  0  0  0  0
  190.8740  177.4520  141.7720 C   0  0  0  0  0  2  0  0  0  0  0  0
  188.1920  176.5560  143.2180 C   0  0  0  0  0  2  0  0  0  0  0  0
  188.4430  177.9530  141.0520 C   0  0  1  0  0  3  0  0  0  0  0  0
  188.6760  179.2920  140.7290 O   0  0  0  0  0  1  0  0  0  0  0  0
  190.4620  177.5830  143.1740 N   0  0  0  0  0  0  0  0  0  0  0  0
  179.9900  178.9660  143.2850 C   0  0  0  0  0  2  0  0  0  0  0  0
  179.6850  177.8690  144.0910 O   0  0  0  0  0  1  0  0  0  0  0  0
  1  3  2  0  0  0  0
  2  4  1  0  0  0  0
  3 18  1  0  0  0  0
  4  1  1  0  0  0  0
  4 10  2  0  0  0  0
  5  2  1  0  0  0  0
  5 17  1  0  0  0  0
  6 19  1  0  0  0  0
  6 20  1  0  0  0  0
  7 14  1  0  0  0  0
  7  2  2  0  0  0  0
  8  9  1  0  0  0  0
  9 16  2  0  0  0  0
  9 11  1  0  0  0  0
 10 13  1  0  0  0  0
 11  5  2  0  0  0  0
 12 10  1  0  0  0  0
 13 18  2  0  0  0  0
 14 15  2  0  0  0  0
 15  1  1  0  0  0  0
 16  7  1  0  0  0  0
 17 31  1  6  0  0  0
 17 12  1  0  0  0  0
 19  8  1  0  0  0  0
 20 16  1  0  0  0  0
 21 23  1  6  0  0  0
 21 28  1  0  0  0  0
 21 26  1  0  0  0  0
 25 15  1  6  0  0  0
 25 27  1  0  0  0  0
 26 30  1  0  0  0  0
 27 24  1  0  0  0  0
 28 29  1  1  0  0  0
 28 25  1  0  0  0  0
 30 24  1  0  0  0  0
 30 22  1  0  0  0  0
 31 32  1  0  0  0  0
M  END
>  <MODEL>
8

>  <REMARK>
 VINA RESULT:      -9.1      2.374      6.722
  Name = 
  2 active torsions:
  status: ('A' for Active; 'I' for Inactive)
    1  A    between atoms: C_13  and  C_29
    2  A    between atoms: C_16  and  C_27
                            x       y       z     vdW  Elec       q    Type
                         _______ _______ _______ _____ _____    ______ ____

>  <TORSDO>
F 2

$$$$
=
 OpenBabel11052414263D

 32 37  0  0  1  0  0  0  0  0999 V2000
  186.4640  178.3120  141.3570 C   0  0  0  0  0  0  0  0  0  0  0  0
  188.1270  177.9270  143.0960 C   0  0  0  0  0  0  0  0  0  0  0  0
  186.1480  178.4470  139.9970 C   0  0  0  0  0  3  0  0  0  0  0  0
  187.7970  178.0300  141.7340 C   0  0  0  0  0  0  0  0  0  0  0  0
  189.4570  177.7370  143.5130 C   0  0  0  0  0  0  0  0  0  0  0  0
  186.8470  178.2460  147.8590 C   0  0  0  0  0  2  0  0  0  0  0  0
  187.1070  178.0420  144.0620 C   0  0  0  0  0  0  0  0  0  0  0  0
  189.1830  177.6560  147.2410 C   0  0  0  0  0  2  0  0  0  0  0  0
  188.7670  177.7030  145.7960 C   0  0  0  0  0  0  0  0  0  0  0  0
  188.7810  177.8440  140.7430 C   0  0  0  0  0  0  0  0  0  0  0  0
  189.7350  177.6560  144.8430 N   0  0  0  0  0  0  0  0  0  0  0  0
  190.1500  177.3520  141.1120 C   0  0  0  0  0  2  0  0  0  0  0  0
  188.4410  177.9640  139.3940 C   0  0  0  0  0  3  0  0  0  0  0  0
  185.8280  178.2870  143.6660 N   0  0  0  0  0  0  0  0  0  0  0  0
  185.4820  178.4340  142.3570 C   0  0  0  0  0  0  0  0  0  0  0  0
  187.4220  177.9260  145.4240 C   0  0  0  0  0  0  0  0  0  0  0  0
  190.5830  177.8190  142.5070 C   0  0  2  0  0  3  0  0  0  0  0  0
  187.1330  178.2810  139.0220 C   0  0  0  0  0  3  0  0  0  0  0  0
  188.0180  177.3280  148.1700 C   0  0  0  0  0  2  0  0  0  0  0  0
  186.3230  177.9470  146.4590 C   0  0  0  0  0  2  0  0  0  0  0  0
  181.7260  178.5330  143.1260 C   0  0  1  0  0  3  0  0  0  0  0  0
  180.7990  179.8400  139.7540 C   0  0  0  0  0  1  0  0  0  0  0  0
  181.0580  178.6800  144.3420 O   0  0  0  0  0  1  0  0  0  0  0  0
  182.1860  178.0560  140.3570 C   0  0  0  0  0  2  0  0  0  0  0  0
  184.0520  178.7200  142.0060 C   0  0  1  0  0  3  0  0  0  0  0  0
  180.9840  179.3050  142.0240 C   0  0  0  0  0  2  0  0  0  0  0  0
  183.5130  177.6620  141.0300 C   0  0  0  0  0  2  0  0  0  0  0  0
  183.2080  178.9090  143.2790 C   0  0  1  0  0  3  0  0  0  0  0  0
  183.3350  180.2230  143.7370 O   0  0  0  0  0  1  0  0  0  0  0  0
  181.7340  179.3860  140.7660 N   0  0  0  0  0  0  0  0  0  0  0  0
  191.7960  177.0170  142.9580 C   0  0  0  0  0  2  0  0  0  0  0  0
  191.4220  175.7030  143.2410 O   0  0  0  0  0  1  0  0  0  0  0  0
  1  4  2  0  0  0  0
  1 15  1  0  0  0  0
  2  5  2  0  0  0  0
  2  7  1  0  0  0  0
  3  1  1  0  0  0  0
  4  2  1  0  0  0  0
  5 11  1  0  0  0  0
  6 19  1  0  0  0  0
  7 16  2  0  0  0  0
  8 19  1  0  0  0  0
  9  8  1  0  0  0  0
 10 12  1  0  0  0  0
 10  4  1  0  0  0  0
 11  9  2  0  0  0  0
 12 17  1  0  0  0  0
 13 10  2  0  0  0  0
 14  7  1  0  0  0  0
 15 14  2  0  0  0  0
 16  9  1  0  0  0  0
 16 20  1  0  0  0  0
 17 31  1  1  0  0  0
 17  5  1  0  0  0  0
 18 13  1  0  0  0  0
 18  3  2  0  0  0  0
 20  6  1  0  0  0  0
 21 28  1  0  0  0  0
 21 23  1  1  0  0  0
 22 30  1  0  0  0  0
 24 30  1  0  0  0  0
 24 27  1  0  0  0  0
 25 15  1  1  0  0  0
 25 28  1  0  0  0  0
 26 21  1  0  0  0  0
 27 25  1  0  0  0  0
 28 29  1  6  0  0  0
 30 26  1  0  0  0  0
 31 32  1  0  0  0  0
M  END
>  <MODEL>
9

>  <REMARK>
 VINA RESULT:      -9.0      2.213      4.695
  Name = 
  2 active torsions:
  status: ('A' for Active; 'I' for Inactive)
    1  A    between atoms: C_13  and  C_29
    2  A    between atoms: C_16  and  C_27
                            x       y       z     vdW  Elec       q    Type
                         _______ _______ _______ _____ _____    ______ ____

>  <TORSDO>
F 2

$$$$
