=
 OpenBabel11052414563D

 55 59  0  0  1  0  0  0  0  0999 V2000
  185.5340  178.4990  140.7500 C   0  0  0  0  0  3  0  0  0  0  0  0
  189.8010  177.8760  135.6750 C   0  0  0  0  0  2  0  0  0  0  0  0
  187.0640  175.8050  135.6260 O   0  0  0  0  0  0  0  0  0  0  0  0
  185.1040  172.8080  136.7640 C   0  0  0  0  0  3  0  0  0  0  0  0
  184.0240  172.4510  137.5730 C   0  0  0  0  0  3  0  0  0  0  0  0
  184.6830  175.1560  137.2180 C   0  0  0  0  0  0  0  0  0  0  0  0
  183.6010  174.7850  138.0340 C   0  0  0  0  0  3  0  0  0  0  0  0
  187.2260  173.5660  135.1120 O   0  0  0  0  0  0  0  0  0  0  0  0
  183.2740  173.4400  138.2100 C   0  0  0  0  0  3  0  0  0  0  0  0
  185.4500  174.1560  136.5790 C   0  0  0  0  0  0  0  0  0  0  0  0
  184.9220  179.8070  138.7850 C   0  0  0  0  0  2  0  0  0  0  0  0
  187.8420  179.2870  140.1240 C   0  0  0  0  0  2  0  0  0  0  0  0
  185.2960  178.7700  137.7270 C   0  0  0  0  0  2  0  0  0  0  0  0
  188.8210  179.9860  137.2450 O   0  0  0  0  0  1  0  0  0  0  0  0
  185.0050  176.5060  137.0360 O   0  0  0  0  0  0  0  0  0  0  0  0
  188.4470  177.6560  135.0040 C   0  0  0  0  0  2  0  0  0  0  0  0
  188.1670  176.1780  134.8130 C   0  0  0  0  0  2  0  0  0  0  0  0
  189.7690  177.7650  137.2050 C   0  0  1  0  0  3  0  0  0  0  0  0
  184.6900  179.2250  140.0940 N   0  0  0  0  0  0  0  0  0  0  0  0
  186.6190  174.4850  135.7300 C   0  0  0  0  0  0  0  0  0  0  0  0
  186.8880  178.0980  140.2310 C   0  0  1  0  0  3  0  0  0  0  0  0
  188.7720  178.7340  137.8600 C   0  0  1  0  0  3  0  0  0  0  0  0
  184.3480  177.5800  137.6950 C   0  0  2  0  0  3  0  0  0  0  0  0
  189.0890  178.9050  139.3390 C   0  0  0  0  0  2  0  0  0  0  0  0
  183.0800  177.9280  136.9850 C   0  0  0  0  0  0  0  0  0  0  0  0
  181.0450  178.8410  136.7550 C   0  0  0  0  0  0  0  0  0  0  0  0
  182.8610  177.5650  135.6560 C   0  0  0  0  0  3  0  0  0  0  0  0
  181.3440  178.1700  135.2470 S   0  0  0  0  0  0  0  0  0  0  0  0
  182.0860  178.6380  137.5870 N   0  0  0  0  0  0  0  0  0  0  0  0
  179.8330  179.6340  137.1220 C   0  0  0  0  0  3  0  0  0  0  0  0
  179.4310  180.5230  135.9600 C   0  0  0  0  0  2  0  0  0  0  0  0
  180.1670  181.1150  137.1400 C   0  0  0  0  0  2  0  0  0  0  0  0
  187.4710  176.9510  141.0580 C   0  0  0  0  0  2  0  0  0  0  0  0
  187.1560  177.5940  145.1350 C   0  0  0  0  0  1  0  0  0  0  0  0
  187.2660  177.3660  143.6940 C   0  0  0  0  0  0  0  0  0  0  0  0
  187.3580  177.1780  142.5060 C   0  0  0  0  0  0  0  0  0  0  0  0
  189.5170  176.3210  137.6270 C   0  0  0  0  0  2  0  0  0  0  0  0
  190.7210  175.4480  137.3430 C   0  0  0  0  0  2  0  0  0  0  0  0
  191.5490  175.3180  138.6060 C   0  0  0  0  0  2  0  0  0  0  0  0
  192.8610  176.0740  138.4510 C   0  0  2  0  0  3  0  0  0  0  0  0
  194.2480  177.1890  140.2850 C   0  0  0  0  0  1  0  0  0  0  0  0
  192.9820  177.2420  139.4400 C   0  0  2  0  0  3  0  0  0  0  0  0
  191.7420  177.3500  140.3170 C   0  0  0  0  0  2  0  0  0  0  0  0
  191.0950  177.8530  142.5150 C   0  0  1  0  0  3  0  0  0  0  0  0
  192.0870  177.1250  141.7100 N   0  0  0  0  0  0  0  0  0  0  0  0
  190.9510  176.4160  142.3140 C   0  0  0  0  0  2  0  0  0  0  0  0
  191.6730  178.1160  143.8930 C   0  0  0  0  0  2  0  0  0  0  0  0
  190.7870  177.5120  144.9710 C   0  0  0  0  0  2  0  0  0  0  0  0
  192.0680  175.5660  145.4820 O   0  0  0  0  0  0  0  0  0  0  0  0
  191.7590  177.0300  147.2160 O   0  0  0  0  0  1  0  0  0  0  0  0
  191.5830  176.6520  145.8930 C   0  0  0  0  0  0  0  0  0  0  0  0
  193.1970  176.4010  136.9870 C   0  0  0  0  0  2  0  0  0  0  0  0
  195.5920  175.9620  136.4470 O   0  0  0  0  0  1  0  0  0  0  0  0
  193.9840  174.4360  135.8710 O   0  0  0  0  0  0  0  0  0  0  0  0
  194.2710  175.5390  136.4050 C   0  0  0  0  0  0  0  0  0  0  0  0
  2 18  1  0  0  0  0
  3 20  1  0  0  0  0
  4  5  1  0  0  0  0
  5  9  2  0  0  0  0
  6  7  2  0  0  0  0
  7  9  1  0  0  0  0
  8 20  2  0  0  0  0
 10  4  2  0  0  0  0
 10  6  1  0  0  0  0
 11 19  1  0  0  0  0
 12 21  1  0  0  0  0
 13 11  1  0  0  0  0
 15  6  1  0  0  0  0
 15 23  1  0  0  0  0
 16  2  1  0  0  0  0
 17 16  1  0  0  0  0
 17  3  1  0  0  0  0
 18 37  1  6  0  0  0
 18 22  1  0  0  0  0
 19  1  2  0  0  0  0
 20 10  1  0  0  0  0
 21  1  1  0  0  0  0
 21 33  1  1  0  0  0
 22 14  1  6  0  0  0
 22 24  1  0  0  0  0
 23 25  1  6  0  0  0
 23 13  1  0  0  0  0
 24 12  1  0  0  0  0
 25 29  1  0  0  0  0
 26 30  1  0  0  0  0
 26 29  2  0  0  0  0
 27 25  2  0  0  0  0
 28 27  1  0  0  0  0
 28 26  1  0  0  0  0
 30 32  1  0  0  0  0
 31 30  1  0  0  0  0
 31 32  1  0  0  0  0
 33 36  1  0  0  0  0
 35 34  1  0  0  0  0
 36 35  3  0  0  0  0
 38 37  1  0  0  0  0
 38 39  1  0  0  0  0
 40 52  1  6  0  0  0
 40 39  1  0  0  0  0
 40 42  1  0  0  0  0
 42 41  1  1  0  0  0
 42 43  1  0  0  0  0
 43 45  1  0  0  0  0
 44 47  1  1  0  0  0
 45 46  1  0  0  0  0
 45 44  1  0  0  0  0
 46 44  1  0  0  0  0
 47 48  1  0  0  0  0
 48 51  1  0  0  0  0
 49 51  2  0  0  0  0
 51 50  1  0  0  0  0
 54 55  2  0  0  0  0
 55 53  1  0  0  0  0
 55 52  1  0  0  0  0
M  END
>  <MODEL>
1

>  <REMARK>
 VINA RESULT:      -3.2      0.000      0.000
  Name = 
  16 active torsions:
  status: ('A' for Active; 'I' for Inactive)
    1  A    between atoms: C_3  and  C_14
    2  A    between atoms: C_6  and  C_14
    3  A    between atoms: C_6  and  C_38
    4  A    between atoms: C_7  and  N_21
    5  A    between atoms: C_7  and  C_46
    6  A    between atoms: C_8  and  C_20
    7  A    between atoms: C_8  and  C_22
    8  A    between atoms: C_10  and  C_32
    9  A    between atoms: C_12  and  C_20
   10  A    between atoms: C_12  and  C_42
   11  A    between atoms: C_12  and  C_46
   12  A    between atoms: C_13  and  C_52
   13  A    between atoms: C_22  and  C_43
   14  A    between atoms: C_27  and  C_49
   15  A    between atoms: C_27  and  C_55
   16  A    between atoms: C_42  and  C_50
                            x       y       z     vdW  Elec       q    Type
                         _______ _______ _______ _____ _____    ______ ____

>  <TORSDO>
F 16

$$$$
=
 OpenBabel11052414563D

 55 59  0  0  1  0  0  0  0  0999 V2000
  185.8670  178.2390  140.6740 C   0  0  0  0  0  3  0  0  0  0  0  0
  190.1350  177.6660  135.5950 C   0  0  0  0  0  2  0  0  0  0  0  0
  187.4030  175.5890  135.5290 O   0  0  0  0  0  0  0  0  0  0  0  0
  185.4500  172.5780  136.6440 C   0  0  0  0  0  3  0  0  0  0  0  0
  184.3700  172.2130  137.4510 C   0  0  0  0  0  3  0  0  0  0  0  0
  185.0230  174.9220  137.1170 C   0  0  0  0  0  0  0  0  0  0  0  0
  183.9430  174.5420  137.9300 C   0  0  0  0  0  3  0  0  0  0  0  0
  187.5700  173.3550  134.9980 O   0  0  0  0  0  0  0  0  0  0  0  0
  183.6190  173.1950  138.0960 C   0  0  0  0  0  3  0  0  0  0  0  0
  185.7920  173.9280  136.4700 C   0  0  0  0  0  0  0  0  0  0  0  0
  185.2510  179.5610  138.7200 C   0  0  0  0  0  2  0  0  0  0  0  0
  188.1730  179.0370  140.0550 C   0  0  0  0  0  2  0  0  0  0  0  0
  185.6280  178.5330  137.6540 C   0  0  0  0  0  2  0  0  0  0  0  0
  189.1500  179.7610  137.1810 O   0  0  0  0  0  1  0  0  0  0  0  0
  185.3420  176.2740  136.9450 O   0  0  0  0  0  0  0  0  0  0  0  0
  188.7810  177.4480  134.9220 C   0  0  0  0  0  2  0  0  0  0  0  0
  188.5040  175.9700  134.7200 C   0  0  0  0  0  2  0  0  0  0  0  0
  190.1030  177.5420  137.1240 C   0  0  1  0  0  3  0  0  0  0  0  0
  185.0220  178.9680  140.0240 N   0  0  0  0  0  0  0  0  0  0  0  0
  186.9610  174.2670  135.6240 C   0  0  0  0  0  0  0  0  0  0  0  0
  187.2220  177.8450  140.1530 C   0  0  1  0  0  3  0  0  0  0  0  0
  189.1040  178.5040  137.7870 C   0  0  1  0  0  3  0  0  0  0  0  0
  184.6830  177.3420  137.6130 C   0  0  2  0  0  3  0  0  0  0  0  0
  189.4210  178.6650  139.2670 C   0  0  0  0  0  2  0  0  0  0  0  0
  183.4140  177.6920  136.9060 C   0  0  0  0  0  0  0  0  0  0  0  0
  181.3350  178.5120  136.7120 C   0  0  0  0  0  0  0  0  0  0  0  0
  183.2470  177.4590  135.5410 C   0  0  0  0  0  3  0  0  0  0  0  0
  181.7080  178.0200  135.1520 S   0  0  0  0  0  0  0  0  0  0  0  0
  182.3670  178.2800  137.5480 N   0  0  0  0  0  0  0  0  0  0  0  0
  180.0720  179.1950  137.1230 C   0  0  0  0  0  3  0  0  0  0  0  0
  179.9990  179.2700  138.6370 C   0  0  0  0  0  2  0  0  0  0  0  0
  179.1890  178.2310  137.8960 C   0  0  0  0  0  2  0  0  0  0  0  0
  187.8070  176.6930  140.9710 C   0  0  0  0  0  2  0  0  0  0  0  0
  188.8060  177.8030  144.8310 C   0  0  0  0  0  1  0  0  0  0  0  0
  188.4540  177.4120  143.4660 C   0  0  0  0  0  0  0  0  0  0  0  0
  188.1620  177.0900  142.3410 C   0  0  0  0  0  0  0  0  0  0  0  0
  189.8540  176.0950  137.5340 C   0  0  0  0  0  2  0  0  0  0  0  0
  191.1570  175.3500  137.7390 C   0  0  0  0  0  2  0  0  0  0  0  0
  191.2820  174.2680  136.6850 C   0  0  0  0  0  2  0  0  0  0  0  0
  192.6610  174.3210  136.0430 C   0  0  2  0  0  3  0  0  0  0  0  0
  191.9940  172.0440  135.0920 C   0  0  0  0  0  1  0  0  0  0  0  0
  193.1320  172.9420  135.5580 C   0  0  2  0  0  3  0  0  0  0  0  0
  193.9800  172.2480  136.6170 C   0  0  0  0  0  2  0  0  0  0  0  0
  196.2820  172.2610  137.0600 C   0  0  1  0  0  3  0  0  0  0  0  0
  195.2700  171.8740  136.0650 N   0  0  0  0  0  0  0  0  0  0  0  0
  195.8410  170.8740  136.9780 C   0  0  0  0  0  2  0  0  0  0  0  0
  197.6250  172.4070  136.3660 C   0  0  0  0  0  2  0  0  0  0  0  0
  198.6100  173.1510  137.2540 C   0  0  0  0  0  2  0  0  0  0  0  0
  197.9460  175.2960  138.0570 O   0  0  0  0  0  1  0  0  0  0  0  0
  198.7940  175.2560  135.9290 O   0  0  0  0  0  0  0  0  0  0  0  0
  198.4410  174.6260  137.1140 C   0  0  0  0  0  0  0  0  0  0  0  0
  193.6790  175.1220  136.8700 C   0  0  0  0  0  2  0  0  0  0  0  0
  194.6620  177.2650  136.0570 O   0  0  0  0  0  1  0  0  0  0  0  0
  195.5070  175.2630  135.3320 O   0  0  0  0  0  0  0  0  0  0  0  0
  194.6700  175.8770  136.0440 C   0  0  0  0  0  0  0  0  0  0  0  0
  2 18  1  0  0  0  0
  3 20  1  0  0  0  0
  4  5  1  0  0  0  0
  5  9  2  0  0  0  0
  6  7  2  0  0  0  0
  7  9  1  0  0  0  0
  8 20  2  0  0  0  0
 10  4  2  0  0  0  0
 10  6  1  0  0  0  0
 11 19  1  0  0  0  0
 12 21  1  0  0  0  0
 13 11  1  0  0  0  0
 15  6  1  0  0  0  0
 15 23  1  0  0  0  0
 16  2  1  0  0  0  0
 17 16  1  0  0  0  0
 17  3  1  0  0  0  0
 18 37  1  6  0  0  0
 18 22  1  0  0  0  0
 19  1  2  0  0  0  0
 20 10  1  0  0  0  0
 21  1  1  0  0  0  0
 21 33  1  1  0  0  0
 22 14  1  6  0  0  0
 22 24  1  0  0  0  0
 23 25  1  6  0  0  0
 23 13  1  0  0  0  0
 24 12  1  0  0  0  0
 25 29  1  0  0  0  0
 26 30  1  0  0  0  0
 26 29  2  0  0  0  0
 27 25  2  0  0  0  0
 28 27  1  0  0  0  0
 28 26  1  0  0  0  0
 30 32  1  0  0  0  0
 30 31  1  0  0  0  0
 32 31  1  0  0  0  0
 33 36  1  0  0  0  0
 35 34  1  0  0  0  0
 36 35  3  0  0  0  0
 37 38  1  0  0  0  0
 39 38  1  0  0  0  0
 40 39  1  1  0  0  0
 40 52  1  0  0  0  0
 42 41  1  1  0  0  0
 42 40  1  0  0  0  0
 42 43  1  0  0  0  0
 44 47  1  6  0  0  0
 45 43  1  0  0  0  0
 45 46  1  0  0  0  0
 45 44  1  0  0  0  0
 46 44  1  0  0  0  0
 47 48  1  0  0  0  0
 50 51  2  0  0  0  0
 51 48  1  0  0  0  0
 51 49  1  0  0  0  0
 54 55  2  0  0  0  0
 55 53  1  0  0  0  0
 55 52  1  0  0  0  0
M  END
>  <MODEL>
2

>  <REMARK>
 VINA RESULT:      -2.7      2.578      4.456
  Name = 
  16 active torsions:
  status: ('A' for Active; 'I' for Inactive)
    1  A    between atoms: C_3  and  C_14
    2  A    between atoms: C_6  and  C_14
    3  A    between atoms: C_6  and  C_38
    4  A    between atoms: C_7  and  N_21
    5  A    between atoms: C_7  and  C_46
    6  A    between atoms: C_8  and  C_20
    7  A    between atoms: C_8  and  C_22
    8  A    between atoms: C_10  and  C_32
    9  A    between atoms: C_12  and  C_20
   10  A    between atoms: C_12  and  C_42
   11  A    between atoms: C_12  and  C_46
   12  A    between atoms: C_13  and  C_52
   13  A    between atoms: C_22  and  C_43
   14  A    between atoms: C_27  and  C_49
   15  A    between atoms: C_27  and  C_55
   16  A    between atoms: C_42  and  C_50
                            x       y       z     vdW  Elec       q    Type
                         _______ _______ _______ _____ _____    ______ ____

>  <TORSDO>
F 16

$$$$
=
 OpenBabel11052414563D

 55 59  0  0  1  0  0  0  0  0999 V2000
  185.6460  178.3960  140.9250 C   0  0  0  0  0  3  0  0  0  0  0  0
  190.0210  177.8560  135.9340 C   0  0  0  0  0  2  0  0  0  0  0  0
  187.2800  175.7940  135.7860 O   0  0  0  0  0  0  0  0  0  0  0  0
  185.2880  172.7820  136.8240 C   0  0  0  0  0  3  0  0  0  0  0  0
  184.1890  172.4140  137.6030 C   0  0  0  0  0  3  0  0  0  0  0  0
  184.8630  175.1230  137.3130 C   0  0  0  0  0  0  0  0  0  0  0  0
  183.7630  174.7400  138.0980 C   0  0  0  0  0  3  0  0  0  0  0  0
  187.4470  173.5650  135.2340 O   0  0  0  0  0  0  0  0  0  0  0  0
  183.4280  173.3930  138.2420 C   0  0  0  0  0  3  0  0  0  0  0  0
  185.6410  174.1320  136.6720 C   0  0  0  0  0  0  0  0  0  0  0  0
  185.0800  179.7420  138.9730 C   0  0  0  0  0  2  0  0  0  0  0  0
  187.9690  179.1890  140.3660 C   0  0  0  0  0  2  0  0  0  0  0  0
  185.4740  178.7240  137.9040 C   0  0  0  0  0  2  0  0  0  0  0  0
  189.0130  179.9380  137.5210 O   0  0  0  0  0  1  0  0  0  0  0  0
  185.1930  176.4750  137.1640 O   0  0  0  0  0  0  0  0  0  0  0  0
  188.6810  177.6530  135.2300 C   0  0  0  0  0  2  0  0  0  0  0  0
  188.4010  176.1780  135.0050 C   0  0  0  0  0  2  0  0  0  0  0  0
  189.9550  177.7150  137.4610 C   0  0  1  0  0  3  0  0  0  0  0  0
  184.8190  179.1370  140.2650 N   0  0  0  0  0  0  0  0  0  0  0  0
  186.8290  174.4740  135.8560 C   0  0  0  0  0  0  0  0  0  0  0  0
  187.0090  178.0010  140.4290 C   0  0  1  0  0  3  0  0  0  0  0  0
  188.9470  178.6750  138.1120 C   0  0  1  0  0  3  0  0  0  0  0  0
  184.5240  177.5390  137.8280 C   0  0  2  0  0  3  0  0  0  0  0  0
  189.2320  178.8180  139.6010 C   0  0  0  0  0  2  0  0  0  0  0  0
  183.2730  177.9040  137.0980 C   0  0  0  0  0  0  0  0  0  0  0  0
  181.2980  178.9240  136.7990 C   0  0  0  0  0  0  0  0  0  0  0  0
  183.0150  177.4390  135.8080 C   0  0  0  0  0  3  0  0  0  0  0  0
  181.5360  178.1030  135.3550 S   0  0  0  0  0  0  0  0  0  0  0  0
  182.3340  178.7280  137.6390 N   0  0  0  0  0  0  0  0  0  0  0  0
  180.1450  179.8240  137.1000 C   0  0  0  0  0  3  0  0  0  0  0  0
  180.3300  181.1510  136.3890 C   0  0  0  0  0  2  0  0  0  0  0  0
  180.6240  181.0440  137.8670 C   0  0  0  0  0  2  0  0  0  0  0  0
  187.5710  176.8360  141.2470 C   0  0  0  0  0  2  0  0  0  0  0  0
  187.8650  177.7080  145.2820 C   0  0  0  0  0  1  0  0  0  0  0  0
  187.7590  177.3990  143.8560 C   0  0  0  0  0  0  0  0  0  0  0  0
  187.6740  177.1440  142.6800 C   0  0  0  0  0  0  0  0  0  0  0  0
  189.6900  176.2650  137.8490 C   0  0  0  0  0  2  0  0  0  0  0  0
  190.9830  175.4910  138.0000 C   0  0  0  0  0  2  0  0  0  0  0  0
  191.1700  174.5970  136.7900 C   0  0  0  0  0  2  0  0  0  0  0  0
  192.6480  174.2930  136.5890 C   0  0  2  0  0  3  0  0  0  0  0  0
  194.4480  175.9940  135.9590 C   0  0  0  0  0  1  0  0  0  0  0  0
  193.5500  175.4430  137.0590 C   0  0  2  0  0  3  0  0  0  0  0  0
  194.3650  175.0390  138.2810 C   0  0  0  0  0  2  0  0  0  0  0  0
  196.4130  174.2530  139.1110 C   0  0  1  0  0  3  0  0  0  0  0  0
  195.6630  174.5280  137.8760 N   0  0  0  0  0  0  0  0  0  0  0  0
  195.7560  173.1600  138.4030 C   0  0  0  0  0  2  0  0  0  0  0  0
  197.8970  174.2410  138.7940 C   0  0  0  0  0  2  0  0  0  0  0  0
  198.6170  175.3430  139.5550 C   0  0  0  0  0  2  0  0  0  0  0  0
  197.9140  174.9640  141.8020 O   0  0  0  0  0  1  0  0  0  0  0  0
  197.0920  176.8610  140.8150 O   0  0  0  0  0  0  0  0  0  0  0  0
  197.8690  175.7110  140.7910 C   0  0  0  0  0  0  0  0  0  0  0  0
  192.9620  173.7250  135.1950 C   0  0  0  0  0  2  0  0  0  0  0  0
  194.9090  172.1710  135.0910 O   0  0  0  0  0  0  0  0  0  0  0  0
  192.7890  171.3440  135.3460 O   0  0  0  0  0  1  0  0  0  0  0  0
  193.5390  172.3470  135.2180 C   0  0  0  0  0  0  0  0  0  0  0  0
  2 18  1  0  0  0  0
  3 20  1  0  0  0  0
  4  5  1  0  0  0  0
  5  9  2  0  0  0  0
  6  7  2  0  0  0  0
  7  9  1  0  0  0  0
  8 20  2  0  0  0  0
 10  4  2  0  0  0  0
 10  6  1  0  0  0  0
 11 19  1  0  0  0  0
 12 21  1  0  0  0  0
 13 11  1  0  0  0  0
 15  6  1  0  0  0  0
 15 23  1  0  0  0  0
 16  2  1  0  0  0  0
 17 16  1  0  0  0  0
 17  3  1  0  0  0  0
 18 37  1  6  0  0  0
 18 22  1  0  0  0  0
 19  1  2  0  0  0  0
 20 10  1  0  0  0  0
 21  1  1  0  0  0  0
 21 33  1  1  0  0  0
 22 14  1  6  0  0  0
 22 24  1  0  0  0  0
 23 25  1  6  0  0  0
 23 13  1  0  0  0  0
 24 12  1  0  0  0  0
 25 29  1  0  0  0  0
 26 30  1  0  0  0  0
 26 29  2  0  0  0  0
 27 25  2  0  0  0  0
 28 27  1  0  0  0  0
 28 26  1  0  0  0  0
 30 32  1  0  0  0  0
 31 30  1  0  0  0  0
 31 32  1  0  0  0  0
 33 36  1  0  0  0  0
 35 34  1  0  0  0  0
 36 35  3  0  0  0  0
 37 38  1  0  0  0  0
 39 38  1  0  0  0  0
 40 52  1  6  0  0  0
 40 39  1  0  0  0  0
 40 42  1  0  0  0  0
 42 41  1  6  0  0  0
 42 43  1  0  0  0  0
 44 47  1  6  0  0  0
 45 43  1  0  0  0  0
 45 46  1  0  0  0  0
 45 44  1  0  0  0  0
 46 44  1  0  0  0  0
 47 48  1  0  0  0  0
 48 51  1  0  0  0  0
 51 50  2  0  0  0  0
 51 49  1  0  0  0  0
 52 55  1  0  0  0  0
 53 55  2  0  0  0  0
 55 54  1  0  0  0  0
M  END
>  <MODEL>
3

>  <REMARK>
 VINA RESULT:      -2.3      2.236      3.324
  Name = 
  16 active torsions:
  status: ('A' for Active; 'I' for Inactive)
    1  A    between atoms: C_3  and  C_14
    2  A    between atoms: C_6  and  C_14
    3  A    between atoms: C_6  and  C_38
    4  A    between atoms: C_7  and  N_21
    5  A    between atoms: C_7  and  C_46
    6  A    between atoms: C_8  and  C_20
    7  A    between atoms: C_8  and  C_22
    8  A    between atoms: C_10  and  C_32
    9  A    between atoms: C_12  and  C_20
   10  A    between atoms: C_12  and  C_42
   11  A    between atoms: C_12  and  C_46
   12  A    between atoms: C_13  and  C_52
   13  A    between atoms: C_22  and  C_43
   14  A    between atoms: C_27  and  C_49
   15  A    between atoms: C_27  and  C_55
   16  A    between atoms: C_42  and  C_50
                            x       y       z     vdW  Elec       q    Type
                         _______ _______ _______ _____ _____    ______ ____

>  <TORSDO>
F 16

$$$$
=
 OpenBabel11052414563D

 55 59  0  0  1  0  0  0  0  0999 V2000
  183.1630  178.8840  140.2220 C   0  0  0  0  0  3  0  0  0  0  0  0
  187.7330  177.5290  135.5720 C   0  0  0  0  0  2  0  0  0  0  0  0
  184.9010  175.5910  135.5330 O   0  0  0  0  0  0  0  0  0  0  0  0
  182.7100  172.8250  136.8250 C   0  0  0  0  0  3  0  0  0  0  0  0
  181.5580  172.6060  137.5840 C   0  0  0  0  0  3  0  0  0  0  0  0
  182.3830  175.2250  137.0010 C   0  0  0  0  0  0  0  0  0  0  0  0
  181.2290  174.9930  137.7680 C   0  0  0  0  0  3  0  0  0  0  0  0
  184.9790  173.3050  135.2670 O   0  0  0  0  0  0  0  0  0  0  0  0
  180.8200  173.6910  138.0570 C   0  0  0  0  0  3  0  0  0  0  0  0
  183.1390  174.1280  136.5280 C   0  0  0  0  0  0  0  0  0  0  0  0
  182.7590  180.0010  138.0930 C   0  0  0  0  0  2  0  0  0  0  0  0
  185.5470  179.4960  139.6930 C   0  0  0  0  0  2  0  0  0  0  0  0
  183.1500  178.8410  137.1780 C   0  0  0  0  0  2  0  0  0  0  0  0
  186.7600  179.8370  136.8380 O   0  0  0  0  0  1  0  0  0  0  0  0
  182.7890  176.5320  136.7050 O   0  0  0  0  0  0  0  0  0  0  0  0
  186.4190  177.3010  134.8290 C   0  0  0  0  0  2  0  0  0  0  0  0
  186.0750  175.8240  134.7710 C   0  0  0  0  0  2  0  0  0  0  0  0
  187.5890  177.5840  137.1000 C   0  0  1  0  0  3  0  0  0  0  0  0
  182.4070  179.5740  139.4330 N   0  0  0  0  0  0  0  0  0  0  0  0
  184.3800  174.3110  135.7400 C   0  0  0  0  0  0  0  0  0  0  0  0
  184.5260  178.3690  139.8500 C   0  0  1  0  0  3  0  0  0  0  0  0
  186.6020  178.6610  137.5740 C   0  0  1  0  0  3  0  0  0  0  0  0
  182.1450  177.6990  137.1980 C   0  0  2  0  0  3  0  0  0  0  0  0
  186.8230  178.9760  139.0470 C   0  0  0  0  0  2  0  0  0  0  0  0
  180.9500  178.0270  136.3640 C   0  0  0  0  0  0  0  0  0  0  0  0
  179.5150  179.3620  135.2740 C   0  0  0  0  0  0  0  0  0  0  0  0
  180.1200  177.0300  135.8500 C   0  0  0  0  0  3  0  0  0  0  0  0
  178.9300  177.8210  134.9580 S   0  0  0  0  0  0  0  0  0  0  0  0
  180.6240  179.3080  136.0400 N   0  0  0  0  0  0  0  0  0  0  0  0
  178.9500  180.6300  134.7210 C   0  0  0  0  0  3  0  0  0  0  0  0
  180.0190  181.7070  134.7120 C   0  0  0  0  0  2  0  0  0  0  0  0
  178.9580  181.7100  135.7880 C   0  0  0  0  0  2  0  0  0  0  0  0
  184.9880  177.2920  140.8330 C   0  0  0  0  0  2  0  0  0  0  0  0
  185.1290  178.6390  144.7440 C   0  0  0  0  0  1  0  0  0  0  0  0
  185.0780  178.1630  143.3610 C   0  0  0  0  0  0  0  0  0  0  0  0
  185.0360  177.7700  142.2220 C   0  0  0  0  0  0  0  0  0  0  0  0
  187.2320  176.2060  137.6480 C   0  0  0  0  0  2  0  0  0  0  0  0
  188.3960  175.5940  138.3980 C   0  0  0  0  0  2  0  0  0  0  0  0
  188.9010  176.5860  139.4270 C   0  0  0  0  0  2  0  0  0  0  0  0
  190.4230  176.5960  139.4420 C   0  0  2  0  0  3  0  0  0  0  0  0
  192.4920  177.5230  140.6200 C   0  0  0  0  0  1  0  0  0  0  0  0
  190.9910  177.2810  140.6930 C   0  0  2  0  0  3  0  0  0  0  0  0
  190.6190  176.5140  141.9560 C   0  0  0  0  0  2  0  0  0  0  0  0
  190.0110  176.8790  144.1910 C   0  0  1  0  0  3  0  0  0  0  0  0
  189.7730  177.3280  142.8110 N   0  0  0  0  0  0  0  0  0  0  0  0
  190.6730  178.0810  143.6950 C   0  0  0  0  0  2  0  0  0  0  0  0
  188.8240  177.2740  145.0500 C   0  0  0  0  0  2  0  0  0  0  0  0
  188.9810  176.7370  146.4640 C   0  0  0  0  0  2  0  0  0  0  0  0
  187.0580  177.7940  147.3980 O   0  0  0  0  0  0  0  0  0  0  0  0
  189.0530  178.3040  148.4020 O   0  0  0  0  0  1  0  0  0  0  0  0
  188.3040  177.6280  147.4490 C   0  0  0  0  0  0  0  0  0  0  0  0
  191.0340  177.0390  138.1030 C   0  0  0  0  0  2  0  0  0  0  0  0
  191.6930  175.9340  135.9660 O   0  0  0  0  0  0  0  0  0  0  0  0
  192.3020  175.0140  137.9730 O   0  0  0  0  0  1  0  0  0  0  0  0
  191.7150  175.9390  137.3540 C   0  0  0  0  0  0  0  0  0  0  0  0
  2 18  1  0  0  0  0
  3 20  1  0  0  0  0
  4  5  1  0  0  0  0
  5  9  2  0  0  0  0
  6  7  2  0  0  0  0
  7  9  1  0  0  0  0
  8 20  2  0  0  0  0
 10  4  2  0  0  0  0
 10  6  1  0  0  0  0
 11 19  1  0  0  0  0
 12 21  1  0  0  0  0
 13 23  1  0  0  0  0
 13 11  1  0  0  0  0
 15  6  1  0  0  0  0
 15 23  1  0  0  0  0
 16  2  1  0  0  0  0
 17 16  1  0  0  0  0
 17  3  1  0  0  0  0
 18 22  1  0  0  0  0
 18 37  1  6  0  0  0
 19  1  2  0  0  0  0
 20 10  1  0  0  0  0
 21  1  1  0  0  0  0
 21 33  1  1  0  0  0
 22 14  1  6  0  0  0
 22 24  1  0  0  0  0
 23 25  1  6  0  0  0
 24 12  1  0  0  0  0
 26 29  2  0  0  0  0
 27 25  2  0  0  0  0
 28 26  1  0  0  0  0
 28 27  1  0  0  0  0
 29 25  1  0  0  0  0
 30 26  1  0  0  0  0
 30 32  1  0  0  0  0
 31 30  1  0  0  0  0
 31 32  1  0  0  0  0
 33 36  1  0  0  0  0
 35 34  1  0  0  0  0
 36 35  3  0  0  0  0
 37 38  1  0  0  0  0
 38 39  1  0  0  0  0
 39 40  1  0  0  0  0
 40 52  1  6  0  0  0
 40 42  1  0  0  0  0
 42 41  1  6  0  0  0
 42 43  1  0  0  0  0
 43 45  1  0  0  0  0
 44 47  1  1  0  0  0
 45 46  1  0  0  0  0
 45 44  1  0  0  0  0
 46 44  1  0  0  0  0
 47 48  1  0  0  0  0
 48 51  1  0  0  0  0
 49 51  2  0  0  0  0
 51 50  1  0  0  0  0
 53 55  2  0  0  0  0
 55 54  1  0  0  0  0
 55 52  1  0  0  0  0
M  END
>  <MODEL>
4

>  <REMARK>
 VINA RESULT:      -1.6      1.972      2.561
  Name = 
  16 active torsions:
  status: ('A' for Active; 'I' for Inactive)
    1  A    between atoms: C_3  and  C_14
    2  A    between atoms: C_6  and  C_14
    3  A    between atoms: C_6  and  C_38
    4  A    between atoms: C_7  and  N_21
    5  A    between atoms: C_7  and  C_46
    6  A    between atoms: C_8  and  C_20
    7  A    between atoms: C_8  and  C_22
    8  A    between atoms: C_10  and  C_32
    9  A    between atoms: C_12  and  C_20
   10  A    between atoms: C_12  and  C_42
   11  A    between atoms: C_12  and  C_46
   12  A    between atoms: C_13  and  C_52
   13  A    between atoms: C_22  and  C_43
   14  A    between atoms: C_27  and  C_49
   15  A    between atoms: C_27  and  C_55
   16  A    between atoms: C_42  and  C_50
                            x       y       z     vdW  Elec       q    Type
                         _______ _______ _______ _____ _____    ______ ____

>  <TORSDO>
F 16

$$$$
=
 OpenBabel11052414563D

 55 59  0  0  1  0  0  0  0  0999 V2000
  185.7630  178.1590  141.0390 C   0  0  0  0  0  3  0  0  0  0  0  0
  189.6620  178.0130  135.6430 C   0  0  0  0  0  2  0  0  0  0  0  0
  186.9070  175.9660  135.5860 O   0  0  0  0  0  0  0  0  0  0  0  0
  184.9990  172.8800  136.5660 C   0  0  0  0  0  3  0  0  0  0  0  0
  183.9740  172.4510  137.4110 C   0  0  0  0  0  3  0  0  0  0  0  0
  184.6340  175.1760  137.2720 C   0  0  0  0  0  0  0  0  0  0  0  0
  183.6090  174.7310  138.1220 C   0  0  0  0  0  3  0  0  0  0  0  0
  187.0100  173.7870  134.8510 O   0  0  0  0  0  0  0  0  0  0  0  0
  183.2800  173.3770  138.1900 C   0  0  0  0  0  3  0  0  0  0  0  0
  185.3450  174.2390  136.4870 C   0  0  0  0  0  0  0  0  0  0  0  0
  185.0290  179.6520  139.2570 C   0  0  0  0  0  2  0  0  0  0  0  0
  188.0290  178.9960  140.3330 C   0  0  0  0  0  2  0  0  0  0  0  0
  185.3190  178.7210  138.0810 C   0  0  0  0  0  2  0  0  0  0  0  0
  188.8150  179.9650  137.4720 O   0  0  0  0  0  1  0  0  0  0  0  0
  184.9580  176.5360  137.1980 O   0  0  0  0  0  0  0  0  0  0  0  0
  188.2630  177.8630  135.0510 C   0  0  0  0  0  2  0  0  0  0  0  0
  187.9550  176.4110  134.7390 C   0  0  0  0  0  2  0  0  0  0  0  0
  189.7350  177.7540  137.1540 C   0  0  1  0  0  3  0  0  0  0  0  0
  184.8830  178.9480  140.5160 N   0  0  0  0  0  0  0  0  0  0  0  0
  186.4560  174.6440  135.5950 C   0  0  0  0  0  0  0  0  0  0  0  0
  187.0730  177.8050  140.3910 C   0  0  1  0  0  3  0  0  0  0  0  0
  188.7950  178.6590  137.9670 C   0  0  1  0  0  3  0  0  0  0  0  0
  184.3590  177.5440  138.0010 C   0  0  2  0  0  3  0  0  0  0  0  0
  189.2150  178.6860  139.4300 C   0  0  0  0  0  2  0  0  0  0  0  0
  183.0490  177.9630  137.4180 C   0  0  0  0  0  0  0  0  0  0  0  0
  181.1100  179.0870  137.3320 C   0  0  0  0  0  0  0  0  0  0  0  0
  182.6090  177.4850  136.1830 C   0  0  0  0  0  3  0  0  0  0  0  0
  181.1230  178.2220  135.8950 S   0  0  0  0  0  0  0  0  0  0  0  0
  182.2290  178.8510  138.0460 N   0  0  0  0  0  0  0  0  0  0  0  0
  180.0510  180.0570  137.7460 C   0  0  0  0  0  3  0  0  0  0  0  0
  179.5800  180.8470  136.5390 C   0  0  0  0  0  2  0  0  0  0  0  0
  180.5360  181.4790  137.5250 C   0  0  0  0  0  2  0  0  0  0  0  0
  187.7000  176.5820  141.0620 C   0  0  0  0  0  2  0  0  0  0  0  0
  189.1830  177.4080  144.8370 C   0  0  0  0  0  1  0  0  0  0  0  0
  188.6600  177.1150  143.5020 C   0  0  0  0  0  0  0  0  0  0  0  0
  188.2280  176.8740  142.4020 C   0  0  0  0  0  0  0  0  0  0  0  0
  189.4970  176.2780  137.4520 C   0  0  0  0  0  2  0  0  0  0  0  0
  190.7500  175.4610  137.2130 C   0  0  0  0  0  2  0  0  0  0  0  0
  190.5840  174.6590  135.9370 C   0  0  0  0  0  2  0  0  0  0  0  0
  191.4490  173.4070  135.9900 C   0  0  2  0  0  3  0  0  0  0  0  0
  193.5750  174.3480  134.9300 C   0  0  0  0  0  1  0  0  0  0  0  0
  192.9380  173.7350  136.1700 C   0  0  2  0  0  3  0  0  0  0  0  0
  193.7170  172.5120  136.6390 C   0  0  0  0  0  2  0  0  0  0  0  0
  195.0520  173.4930  138.2990 C   0  0  1  0  0  3  0  0  0  0  0  0
  195.0850  172.8790  136.9630 N   0  0  0  0  0  0  0  0  0  0  0  0
  195.4560  172.0990  138.1520 C   0  0  0  0  0  2  0  0  0  0  0  0
  196.2840  174.3610  138.4740 C   0  0  0  0  0  2  0  0  0  0  0  0
  196.4030  174.8420  139.9120 C   0  0  0  0  0  2  0  0  0  0  0  0
  198.5550  175.6690  139.3000 O   0  0  0  0  0  0  0  0  0  0  0  0
  198.2880  175.1520  141.5150 O   0  0  0  0  0  1  0  0  0  0  0  0
  197.8020  175.2560  140.2190 C   0  0  0  0  0  0  0  0  0  0  0  0
  191.1170  172.3990  134.8790 C   0  0  0  0  0  2  0  0  0  0  0  0
  189.8890  170.2470  134.5950 O   0  0  0  0  0  0  0  0  0  0  0  0
  189.0940  171.8450  136.0300 O   0  0  0  0  0  1  0  0  0  0  0  0
  189.9770  171.4890  135.2070 C   0  0  0  0  0  0  0  0  0  0  0  0
  2 18  1  0  0  0  0
  3 20  1  0  0  0  0
  4  5  1  0  0  0  0
  5  9  2  0  0  0  0
  6  7  2  0  0  0  0
  7  9  1  0  0  0  0
  8 20  2  0  0  0  0
 10  4  2  0  0  0  0
 10  6  1  0  0  0  0
 11 19  1  0  0  0  0
 12 21  1  0  0  0  0
 13 11  1  0  0  0  0
 15  6  1  0  0  0  0
 15 23  1  0  0  0  0
 16  2  1  0  0  0  0
 17 16  1  0  0  0  0
 17  3  1  0  0  0  0
 18 37  1  6  0  0  0
 18 22  1  0  0  0  0
 19  1  2  0  0  0  0
 20 10  1  0  0  0  0
 21  1  1  0  0  0  0
 21 33  1  1  0  0  0
 22 14  1  6  0  0  0
 22 24  1  0  0  0  0
 23 25  1  6  0  0  0
 23 13  1  0  0  0  0
 24 12  1  0  0  0  0
 25 29  1  0  0  0  0
 26 30  1  0  0  0  0
 26 29  2  0  0  0  0
 27 25  2  0  0  0  0
 28 27  1  0  0  0  0
 28 26  1  0  0  0  0
 31 32  1  0  0  0  0
 31 30  1  0  0  0  0
 32 30  1  0  0  0  0
 33 36  1  0  0  0  0
 35 34  1  0  0  0  0
 36 35  3  0  0  0  0
 38 37  1  0  0  0  0
 39 40  1  0  0  0  0
 39 38  1  0  0  0  0
 40 52  1  6  0  0  0
 40 42  1  0  0  0  0
 42 41  1  6  0  0  0
 42 43  1  0  0  0  0
 43 45  1  0  0  0  0
 44 47  1  6  0  0  0
 45 46  1  0  0  0  0
 45 44  1  0  0  0  0
 46 44  1  0  0  0  0
 47 48  1  0  0  0  0
 48 51  1  0  0  0  0
 49 51  2  0  0  0  0
 51 50  1  0  0  0  0
 52 55  1  0  0  0  0
 53 55  2  0  0  0  0
 55 54  1  0  0  0  0
M  END
>  <MODEL>
5

>  <REMARK>
 VINA RESULT:      -1.5      2.441      3.854
  Name = 
  16 active torsions:
  status: ('A' for Active; 'I' for Inactive)
    1  A    between atoms: C_3  and  C_14
    2  A    between atoms: C_6  and  C_14
    3  A    between atoms: C_6  and  C_38
    4  A    between atoms: C_7  and  N_21
    5  A    between atoms: C_7  and  C_46
    6  A    between atoms: C_8  and  C_20
    7  A    between atoms: C_8  and  C_22
    8  A    between atoms: C_10  and  C_32
    9  A    between atoms: C_12  and  C_20
   10  A    between atoms: C_12  and  C_42
   11  A    between atoms: C_12  and  C_46
   12  A    between atoms: C_13  and  C_52
   13  A    between atoms: C_22  and  C_43
   14  A    between atoms: C_27  and  C_49
   15  A    between atoms: C_27  and  C_55
   16  A    between atoms: C_42  and  C_50
                            x       y       z     vdW  Elec       q    Type
                         _______ _______ _______ _____ _____    ______ ____

>  <TORSDO>
F 16

$$$$
=
 OpenBabel11052414563D

 55 59  0  0  1  0  0  0  0  0999 V2000
  188.6200  172.9330  137.3830 C   0  0  0  0  0  3  0  0  0  0  0  0
  186.3520  179.0640  136.1190 C   0  0  0  0  0  2  0  0  0  0  0  0
  188.2980  178.7100  138.9240 O   0  0  0  0  0  0  0  0  0  0  0  0
  188.8940  177.6630  142.4830 C   0  0  0  0  0  3  0  0  0  0  0  0
  189.4970  176.6570  143.2400 C   0  0  0  0  0  3  0  0  0  0  0  0
  189.7300  176.6440  140.4440 C   0  0  0  0  0  0  0  0  0  0  0  0
  190.3290  175.6350  141.2150 C   0  0  0  0  0  3  0  0  0  0  0  0
  187.7440  179.6850  140.9350 O   0  0  0  0  0  0  0  0  0  0  0  0
  190.2130  175.6420  142.6060 C   0  0  0  0  0  3  0  0  0  0  0  0
  188.9970  177.6690  141.0830 C   0  0  0  0  0  0  0  0  0  0  0  0
  190.1880  174.3220  136.1380 C   0  0  0  0  0  2  0  0  0  0  0  0
  186.9590  174.0450  135.8550 C   0  0  0  0  0  2  0  0  0  0  0  0
  189.9440  175.6290  136.8920 C   0  0  0  0  0  2  0  0  0  0  0  0
  187.2460  176.8860  134.5940 O   0  0  0  0  0  1  0  0  0  0  0  0
  189.8540  176.6400  139.0490 O   0  0  0  0  0  0  0  0  0  0  0  0
  187.7460  179.3310  136.6800 C   0  0  0  0  0  2  0  0  0  0  0  0
  187.6790  179.7220  138.1450 C   0  0  0  0  0  2  0  0  0  0  0  0
  185.8260  177.6480  136.3910 C   0  0  1  0  0  3  0  0  0  0  0  0
  189.7960  173.1490  136.8940 N   0  0  0  0  0  0  0  0  0  0  0  0
  188.3190  178.7440  140.3210 C   0  0  0  0  0  0  0  0  0  0  0  0
  187.4730  173.9000  137.2860 C   0  0  1  0  0  3  0  0  0  0  0  0
  186.7530  176.5470  135.8550 C   0  0  1  0  0  3  0  0  0  0  0  0
  190.5000  175.6150  138.3070 C   0  0  2  0  0  3  0  0  0  0  0  0
  186.0030  175.2260  135.7460 C   0  0  0  0  0  2  0  0  0  0  0  0
  191.9790  175.8300  138.3010 C   0  0  0  0  0  0  0  0  0  0  0  0
  194.1330  175.2490  138.0770 C   0  0  0  0  0  0  0  0  0  0  0  0
  192.5370  177.0860  138.5400 C   0  0  0  0  0  3  0  0  0  0  0  0
  194.2050  176.8920  138.4140 S   0  0  0  0  0  0  0  0  0  0  0  0
  192.8550  174.8220  138.0370 N   0  0  0  0  0  0  0  0  0  0  0  0
  195.3090  174.3780  137.7760 C   0  0  0  0  0  3  0  0  0  0  0  0
  194.9380  172.9230  137.9950 C   0  0  0  0  0  2  0  0  0  0  0  0
  195.7550  173.6550  139.0340 C   0  0  0  0  0  2  0  0  0  0  0  0
  186.3630  173.5300  138.2730 C   0  0  0  0  0  2  0  0  0  0  0  0
  183.2640  171.4390  136.4970 C   0  0  0  0  0  1  0  0  0  0  0  0
  184.3610  172.1770  137.1240 C   0  0  0  0  0  0  0  0  0  0  0  0
  185.2640  172.7860  137.6420 C   0  0  0  0  0  0  0  0  0  0  0  0
  185.5320  177.4690  137.8770 C   0  0  0  0  0  2  0  0  0  0  0  0
  184.2880  178.2290  138.2870 C   0  0  0  0  0  2  0  0  0  0  0  0
  184.4570  178.7270  139.7090 C   0  0  0  0  0  2  0  0  0  0  0  0
  183.1050  178.7830  140.4070 C   0  0  2  0  0  3  0  0  0  0  0  0
  182.3650  179.1370  142.8270 C   0  0  0  0  0  1  0  0  0  0  0  0
  183.1770  178.2880  141.8590 C   0  0  2  0  0  3  0  0  0  0  0  0
  184.6220  178.1560  142.3230 C   0  0  0  0  0  2  0  0  0  0  0  0
  186.1350  178.2520  144.1120 C   0  0  1  0  0  3  0  0  0  0  0  0
  184.7180  178.4060  143.7510 N   0  0  0  0  0  0  0  0  0  0  0  0
  185.5800  179.5850  143.9110 C   0  0  0  0  0  2  0  0  0  0  0  0
  186.2370  177.9650  145.5990 C   0  0  0  0  0  2  0  0  0  0  0  0
  187.5640  177.3000  145.9290 C   0  0  0  0  0  2  0  0  0  0  0  0
  187.1590  177.7770  148.2300 O   0  0  0  0  0  1  0  0  0  0  0  0
  189.3500  177.8780  147.5700 O   0  0  0  0  0  0  0  0  0  0  0  0
  188.0060  177.6520  147.3080 C   0  0  0  0  0  0  0  0  0  0  0  0
  181.9650  178.1980  139.5580 C   0  0  0  0  0  2  0  0  0  0  0  0
  179.9480  177.8780  140.9890 O   0  0  0  0  0  1  0  0  0  0  0  0
  181.2190  176.0750  140.3720 O   0  0  0  0  0  0  0  0  0  0  0  0
  181.0290  177.3190  140.3230 C   0  0  0  0  0  0  0  0  0  0  0  0
  2 18  1  0  0  0  0
  2 16  1  0  0  0  0
  3 20  1  0  0  0  0
  4  5  1  0  0  0  0
  6 10  1  0  0  0  0
  6  7  2  0  0  0  0
  7  9  1  0  0  0  0
  9  5  2  0  0  0  0
 10  4  2  0  0  0  0
 11 13  1  0  0  0  0
 11 19  1  0  0  0  0
 12 21  1  0  0  0  0
 13 23  1  0  0  0  0
 15  6  1  0  0  0  0
 16 17  1  0  0  0  0
 17  3  1  0  0  0  0
 18 37  1  1  0  0  0
 19  1  2  0  0  0  0
 20  8  2  0  0  0  0
 20 10  1  0  0  0  0
 21  1  1  0  0  0  0
 21 33  1  1  0  0  0
 22 14  1  6  0  0  0
 22 18  1  0  0  0  0
 23 25  1  6  0  0  0
 23 15  1  0  0  0  0
 24 22  1  0  0  0  0
 24 12  1  0  0  0  0
 25 27  2  0  0  0  0
 26 28  1  0  0  0  0
 28 27  1  0  0  0  0
 29 26  2  0  0  0  0
 29 25  1  0  0  0  0
 30 31  1  0  0  0  0
 30 26  1  0  0  0  0
 30 32  1  0  0  0  0
 31 32  1  0  0  0  0
 34 35  1  0  0  0  0
 35 36  3  0  0  0  0
 36 33  1  0  0  0  0
 37 38  1  0  0  0  0
 38 39  1  0  0  0  0
 39 40  1  0  0  0  0
 40 52  1  6  0  0  0
 40 42  1  0  0  0  0
 42 43  1  0  0  0  0
 42 41  1  1  0  0  0
 43 45  1  0  0  0  0
 44 47  1  1  0  0  0
 45 46  1  0  0  0  0
 45 44  1  0  0  0  0
 46 44  1  0  0  0  0
 47 48  1  0  0  0  0
 48 51  1  0  0  0  0
 51 50  2  0  0  0  0
 51 49  1  0  0  0  0
 52 55  1  0  0  0  0
 55 54  2  0  0  0  0
 55 53  1  0  0  0  0
M  END
>  <MODEL>
6

>  <REMARK>
 VINA RESULT:      -1.3      3.213      8.924
  Name = 
  16 active torsions:
  status: ('A' for Active; 'I' for Inactive)
    1  A    between atoms: C_3  and  C_14
    2  A    between atoms: C_6  and  C_14
    3  A    between atoms: C_6  and  C_38
    4  A    between atoms: C_7  and  N_21
    5  A    between atoms: C_7  and  C_46
    6  A    between atoms: C_8  and  C_20
    7  A    between atoms: C_8  and  C_22
    8  A    between atoms: C_10  and  C_32
    9  A    between atoms: C_12  and  C_20
   10  A    between atoms: C_12  and  C_42
   11  A    between atoms: C_12  and  C_46
   12  A    between atoms: C_13  and  C_52
   13  A    between atoms: C_22  and  C_43
   14  A    between atoms: C_27  and  C_49
   15  A    between atoms: C_27  and  C_55
   16  A    between atoms: C_42  and  C_50
                            x       y       z     vdW  Elec       q    Type
                         _______ _______ _______ _____ _____    ______ ____

>  <TORSDO>
F 16

$$$$
=
 OpenBabel11052414563D

 55 59  0  0  1  0  0  0  0  0999 V2000
  184.4880  179.0890  141.0020 C   0  0  0  0  0  3  0  0  0  0  0  0
  187.1790  177.0750  135.2540 C   0  0  0  0  0  2  0  0  0  0  0  0
  184.0100  175.9410  135.9310 O   0  0  0  0  0  0  0  0  0  0  0  0
  181.5490  173.7150  137.6940 C   0  0  0  0  0  3  0  0  0  0  0  0
  180.6130  173.7250  138.7300 C   0  0  0  0  0  3  0  0  0  0  0  0
  181.9470  176.0890  138.0160 C   0  0  0  0  0  0  0  0  0  0  0  0
  181.0070  176.0860  139.0610 C   0  0  0  0  0  3  0  0  0  0  0  0
  183.3900  173.7490  135.5930 O   0  0  0  0  0  0  0  0  0  0  0  0
  180.3440  174.9100  139.4150 C   0  0  0  0  0  3  0  0  0  0  0  0
  182.2280  174.8880  137.3270 C   0  0  0  0  0  0  0  0  0  0  0  0
  183.8780  180.4770  139.0930 C   0  0  0  0  0  2  0  0  0  0  0  0
  186.7330  179.1180  139.8640 C   0  0  0  0  0  2  0  0  0  0  0  0
  183.6920  179.3520  138.0760 C   0  0  0  0  0  2  0  0  0  0  0  0
  187.2270  179.4180  136.7970 O   0  0  0  0  0  1  0  0  0  0  0  0
  182.6050  177.2710  137.6570 O   0  0  0  0  0  0  0  0  0  0  0  0
  185.7080  177.2650  134.8880 C   0  0  0  0  0  2  0  0  0  0  0  0
  184.9710  175.9390  134.8860 C   0  0  0  0  0  2  0  0  0  0  0  0
  187.4470  177.0130  136.7640 C   0  0  1  0  0  3  0  0  0  0  0  0
  183.7740  180.0240  140.4660 N   0  0  0  0  0  0  0  0  0  0  0  0
  183.2300  174.8230  136.2370 C   0  0  0  0  0  0  0  0  0  0  0  0
  185.5170  178.2810  140.2620 C   0  0  1  0  0  3  0  0  0  0  0  0
  186.9460  178.2550  137.5170 C   0  0  1  0  0  3  0  0  0  0  0  0
  182.4520  178.5100  138.3370 C   0  0  2  0  0  3  0  0  0  0  0  0
  187.6110  178.3550  138.8830 C   0  0  0  0  0  2  0  0  0  0  0  0
  181.2210  179.2130  137.8660 C   0  0  0  0  0  0  0  0  0  0  0  0
  179.9380  180.3520  136.4220 C   0  0  0  0  0  0  0  0  0  0  0  0
  180.0770  179.2980  138.6590 C   0  0  0  0  0  3  0  0  0  0  0  0
  178.9340  180.1360  137.7490 S   0  0  0  0  0  0  0  0  0  0  0  0
  181.1420  179.7840  136.6320 N   0  0  0  0  0  0  0  0  0  0  0  0
  179.5430  181.0070  135.1380 C   0  0  0  0  0  3  0  0  0  0  0  0
  180.7070  181.8140  134.5950 C   0  0  0  0  0  2  0  0  0  0  0  0
  179.5690  182.5170  135.2970 C   0  0  0  0  0  2  0  0  0  0  0  0
  185.9010  177.0300  141.0530 C   0  0  0  0  0  2  0  0  0  0  0  0
  186.7380  177.8400  145.0250 C   0  0  0  0  0  1  0  0  0  0  0  0
  186.4410  177.5530  143.6210 C   0  0  0  0  0  0  0  0  0  0  0  0
  186.1970  177.3160  142.4640 C   0  0  0  0  0  0  0  0  0  0  0  0
  186.8780  175.7260  137.3510 C   0  0  0  0  0  2  0  0  0  0  0  0
  187.8180  174.5590  137.1330 C   0  0  0  0  0  2  0  0  0  0  0  0
  188.8100  174.9170  136.0430 C   0  0  0  0  0  2  0  0  0  0  0  0
  190.2320  174.8100  136.5760 C   0  0  2  0  0  3  0  0  0  0  0  0
  191.8800  176.7350  136.9060 C   0  0  0  0  0  1  0  0  0  0  0  0
  190.6330  176.0290  137.4200 C   0  0  2  0  0  3  0  0  0  0  0  0
  190.7800  175.6540  138.8890 C   0  0  0  0  0  2  0  0  0  0  0  0
  190.8530  176.4730  141.0860 C   0  0  1  0  0  3  0  0  0  0  0  0
  190.3390  176.7490  139.7360 N   0  0  0  0  0  0  0  0  0  0  0  0
  191.5530  177.4170  140.2230 C   0  0  0  0  0  2  0  0  0  0  0  0
  190.0170  177.2360  142.0980 C   0  0  0  0  0  2  0  0  0  0  0  0
  190.5040  176.9610  143.5120 C   0  0  0  0  0  2  0  0  0  0  0  0
  189.8480  178.1490  145.4730 O   0  0  0  0  0  1  0  0  0  0  0  0
  190.9310  179.3890  143.8810 O   0  0  0  0  0  0  0  0  0  0  0  0
  190.4170  178.1900  144.3520 C   0  0  0  0  0  0  0  0  0  0  0  0
  191.2450  174.3790  135.5030 C   0  0  0  0  0  2  0  0  0  0  0  0
  191.8330  171.9620  135.3330 O   0  0  0  0  0  0  0  0  0  0  0  0
  193.0070  173.3360  136.7400 O   0  0  0  0  0  1  0  0  0  0  0  0
  192.0820  173.2050  135.8960 C   0  0  0  0  0  0  0  0  0  0  0  0
  2 18  1  0  0  0  0
  3 20  1  0  0  0  0
  4  5  1  0  0  0  0
  5  9  2  0  0  0  0
  6  7  2  0  0  0  0
  7  9  1  0  0  0  0
  8 20  2  0  0  0  0
 10  4  2  0  0  0  0
 10  6  1  0  0  0  0
 11 19  1  0  0  0  0
 12 21  1  0  0  0  0
 13 23  1  0  0  0  0
 13 11  1  0  0  0  0
 15  6  1  0  0  0  0
 15 23  1  0  0  0  0
 16  2  1  0  0  0  0
 17 16  1  0  0  0  0
 17  3  1  0  0  0  0
 18 37  1  1  0  0  0
 18 22  1  0  0  0  0
 19  1  2  0  0  0  0
 20 10  1  0  0  0  0
 21  1  1  0  0  0  0
 21 33  1  1  0  0  0
 22 14  1  6  0  0  0
 22 24  1  0  0  0  0
 23 25  1  6  0  0  0
 24 12  1  0  0  0  0
 25 27  2  0  0  0  0
 26 29  2  0  0  0  0
 26 28  1  0  0  0  0
 28 27  1  0  0  0  0
 29 25  1  0  0  0  0
 30 32  1  0  0  0  0
 30 26  1  0  0  0  0
 31 30  1  0  0  0  0
 31 32  1  0  0  0  0
 33 36  1  0  0  0  0
 35 34  1  0  0  0  0
 36 35  3  0  0  0  0
 38 37  1  0  0  0  0
 39 40  1  0  0  0  0
 39 38  1  0  0  0  0
 40 52  1  6  0  0  0
 40 42  1  0  0  0  0
 42 41  1  6  0  0  0
 42 43  1  0  0  0  0
 43 45  1  0  0  0  0
 44 47  1  1  0  0  0
 45 46  1  0  0  0  0
 45 44  1  0  0  0  0
 46 44  1  0  0  0  0
 47 48  1  0  0  0  0
 48 51  1  0  0  0  0
 50 51  2  0  0  0  0
 51 49  1  0  0  0  0
 52 55  1  0  0  0  0
 53 55  2  0  0  0  0
 55 54  1  0  0  0  0
M  END
>  <MODEL>
7

>  <REMARK>
 VINA RESULT:      -0.9      2.014      2.810
  Name = 
  16 active torsions:
  status: ('A' for Active; 'I' for Inactive)
    1  A    between atoms: C_3  and  C_14
    2  A    between atoms: C_6  and  C_14
    3  A    between atoms: C_6  and  C_38
    4  A    between atoms: C_7  and  N_21
    5  A    between atoms: C_7  and  C_46
    6  A    between atoms: C_8  and  C_20
    7  A    between atoms: C_8  and  C_22
    8  A    between atoms: C_10  and  C_32
    9  A    between atoms: C_12  and  C_20
   10  A    between atoms: C_12  and  C_42
   11  A    between atoms: C_12  and  C_46
   12  A    between atoms: C_13  and  C_52
   13  A    between atoms: C_22  and  C_43
   14  A    between atoms: C_27  and  C_49
   15  A    between atoms: C_27  and  C_55
   16  A    between atoms: C_42  and  C_50
                            x       y       z     vdW  Elec       q    Type
                         _______ _______ _______ _____ _____    ______ ____

>  <TORSDO>
F 16

$$$$
=
 OpenBabel11052414563D

 55 59  0  0  1  0  0  0  0  0999 V2000
  189.5320  173.2690  137.2370 C   0  0  0  0  0  3  0  0  0  0  0  0
  187.2390  179.4120  136.0750 C   0  0  0  0  0  2  0  0  0  0  0  0
  188.5310  178.8360  139.2020 O   0  0  0  0  0  0  0  0  0  0  0  0
  188.3830  177.4430  142.6890 C   0  0  0  0  0  3  0  0  0  0  0  0
  188.8630  176.3850  143.4650 C   0  0  0  0  0  3  0  0  0  0  0  0
  189.7110  176.6760  140.8060 C   0  0  0  0  0  0  0  0  0  0  0  0
  190.1820  175.6140  141.5940 C   0  0  0  0  0  3  0  0  0  0  0  0
  187.4880  179.5720  141.1180 O   0  0  0  0  0  0  0  0  0  0  0  0
  189.7600  175.4700  142.9170 C   0  0  0  0  0  3  0  0  0  0  0  0
  188.7940  177.6000  141.3560 C   0  0  0  0  0  0  0  0  0  0  0  0
  191.2520  174.8400  136.5170 C   0  0  0  0  0  2  0  0  0  0  0  0
  188.1880  174.4750  135.4830 C   0  0  0  0  0  2  0  0  0  0  0  0
  190.7690  176.0500  137.3160 C   0  0  0  0  0  2  0  0  0  0  0  0
  188.5790  177.4410  134.5940 O   0  0  0  0  0  1  0  0  0  0  0  0
  190.1410  176.8240  139.4820 O   0  0  0  0  0  0  0  0  0  0  0  0
  188.4560  179.6700  136.9610 C   0  0  0  0  0  2  0  0  0  0  0  0
  188.0420  179.9010  138.4020 C   0  0  0  0  0  2  0  0  0  0  0  0
  186.7510  177.9570  136.0860 C   0  0  1  0  0  3  0  0  0  0  0  0
  190.7730  173.5790  137.0500 N   0  0  0  0  0  0  0  0  0  0  0  0
  188.2400  178.7230  140.5640 C   0  0  0  0  0  0  0  0  0  0  0  0
  188.3790  174.1980  136.9740 C   0  0  1  0  0  3  0  0  0  0  0  0
  187.8390  176.9530  135.6720 C   0  0  1  0  0  3  0  0  0  0  0  0
  190.9970  175.9070  138.8130 C   0  0  2  0  0  3  0  0  0  0  0  0
  187.2130  175.6240  135.2720 C   0  0  0  0  0  2  0  0  0  0  0  0
  192.4240  176.1760  139.1630 C   0  0  0  0  0  0  0  0  0  0  0  0
  194.6030  175.6990  139.3910 C   0  0  0  0  0  0  0  0  0  0  0  0
  192.8420  177.4240  139.6260 C   0  0  0  0  0  3  0  0  0  0  0  0
  194.5040  177.3040  139.8690 S   0  0  0  0  0  0  0  0  0  0  0  0
  193.3930  175.2300  139.0240 N   0  0  0  0  0  0  0  0  0  0  0  0
  195.8640  174.9030  139.2950 C   0  0  0  0  0  3  0  0  0  0  0  0
  196.2490  174.7260  137.8380 C   0  0  0  0  0  2  0  0  0  0  0  0
  195.5960  173.5880  138.5860 C   0  0  0  0  0  2  0  0  0  0  0  0
  187.1030  173.6860  137.6430 C   0  0  0  0  0  2  0  0  0  0  0  0
  185.1840  170.7730  135.4160 C   0  0  0  0  0  1  0  0  0  0  0  0
  185.8610  171.8030  136.2040 C   0  0  0  0  0  0  0  0  0  0  0  0
  186.4190  172.6520  136.8530 C   0  0  0  0  0  0  0  0  0  0  0  0
  186.1460  177.6110  137.4420 C   0  0  0  0  0  2  0  0  0  0  0  0
  184.6390  177.7580  137.4260 C   0  0  0  0  0  2  0  0  0  0  0  0
  184.1620  178.1370  138.8130 C   0  0  0  0  0  2  0  0  0  0  0  0
  182.6850  178.5070  138.7750 C   0  0  2  0  0  3  0  0  0  0  0  0
  180.4720  177.5390  139.6080 C   0  0  0  0  0  1  0  0  0  0  0  0
  181.9050  177.9170  139.9590 C   0  0  2  0  0  3  0  0  0  0  0  0
  181.9470  178.8480  141.1630 C   0  0  0  0  0  2  0  0  0  0  0  0
  183.2410  179.3700  143.0490 C   0  0  1  0  0  3  0  0  0  0  0  0
  182.7340  178.2570  142.2310 N   0  0  0  0  0  0  0  0  0  0  0  0
  182.0700  178.6200  143.4910 C   0  0  0  0  0  2  0  0  0  0  0  0
  184.4620  178.9010  143.8180 C   0  0  0  0  0  2  0  0  0  0  0  0
  184.3270  179.2360  145.2950 C   0  0  0  0  0  2  0  0  0  0  0  0
  185.9430  179.3650  147.0450 O   0  0  0  0  0  1  0  0  0  0  0  0
  186.1050  177.5320  145.6820 O   0  0  0  0  0  0  0  0  0  0  0  0
  185.4920  178.7150  146.0670 C   0  0  0  0  0  0  0  0  0  0  0  0
  182.0510  178.3050  137.3900 C   0  0  0  0  0  2  0  0  0  0  0  0
  180.9660  179.5510  135.5210 O   0  0  0  0  0  0  0  0  0  0  0  0
  181.2100  180.5380  137.5740 O   0  0  0  0  0  1  0  0  0  0  0  0
  181.3860  179.5270  136.8430 C   0  0  0  0  0  0  0  0  0  0  0  0
  2 18  1  0  0  0  0
  2 16  1  0  0  0  0
  3 20  1  0  0  0  0
  4  5  1  0  0  0  0
  6 10  1  0  0  0  0
  6  7  2  0  0  0  0
  7  9  1  0  0  0  0
  9  5  2  0  0  0  0
 10  4  2  0  0  0  0
 11 19  1  0  0  0  0
 11 13  1  0  0  0  0
 12 21  1  0  0  0  0
 13 23  1  0  0  0  0
 15  6  1  0  0  0  0
 16 17  1  0  0  0  0
 17  3  1  0  0  0  0
 18 37  1  1  0  0  0
 19  1  2  0  0  0  0
 20  8  2  0  0  0  0
 20 10  1  0  0  0  0
 21  1  1  0  0  0  0
 21 33  1  6  0  0  0
 22 14  1  6  0  0  0
 22 18  1  0  0  0  0
 23 25  1  6  0  0  0
 23 15  1  0  0  0  0
 24 12  1  0  0  0  0
 24 22  1  0  0  0  0
 25 27  2  0  0  0  0
 26 28  1  0  0  0  0
 27 28  1  0  0  0  0
 29 25  1  0  0  0  0
 29 26  2  0  0  0  0
 30 26  1  0  0  0  0
 31 32  1  0  0  0  0
 31 30  1  0  0  0  0
 32 30  1  0  0  0  0
 34 35  1  0  0  0  0
 35 36  3  0  0  0  0
 36 33  1  0  0  0  0
 38 37  1  0  0  0  0
 38 39  1  0  0  0  0
 40 52  1  6  0  0  0
 40 39  1  0  0  0  0
 40 42  1  0  0  0  0
 42 41  1  6  0  0  0
 42 43  1  0  0  0  0
 43 45  1  0  0  0  0
 44 46  1  0  0  0  0
 44 47  1  1  0  0  0
 45 44  1  0  0  0  0
 45 46  1  0  0  0  0
 47 48  1  0  0  0  0
 48 51  1  0  0  0  0
 50 51  2  0  0  0  0
 51 49  1  0  0  0  0
 53 55  2  0  0  0  0
 55 52  1  0  0  0  0
 55 54  1  0  0  0  0
M  END
>  <MODEL>
8

>  <REMARK>
 VINA RESULT:      -0.8      3.364      9.343
  Name = 
  16 active torsions:
  status: ('A' for Active; 'I' for Inactive)
    1  A    between atoms: C_3  and  C_14
    2  A    between atoms: C_6  and  C_14
    3  A    between atoms: C_6  and  C_38
    4  A    between atoms: C_7  and  N_21
    5  A    between atoms: C_7  and  C_46
    6  A    between atoms: C_8  and  C_20
    7  A    between atoms: C_8  and  C_22
    8  A    between atoms: C_10  and  C_32
    9  A    between atoms: C_12  and  C_20
   10  A    between atoms: C_12  and  C_42
   11  A    between atoms: C_12  and  C_46
   12  A    between atoms: C_13  and  C_52
   13  A    between atoms: C_22  and  C_43
   14  A    between atoms: C_27  and  C_49
   15  A    between atoms: C_27  and  C_55
   16  A    between atoms: C_42  and  C_50
                            x       y       z     vdW  Elec       q    Type
                         _______ _______ _______ _____ _____    ______ ____

>  <TORSDO>
F 16

$$$$
=
 OpenBabel11052414563D

 55 59  0  0  1  0  0  0  0  0999 V2000
  182.8980  177.6850  140.3430 C   0  0  0  0  0  3  0  0  0  0  0  0
  187.9780  178.6820  136.1550 C   0  0  0  0  0  2  0  0  0  0  0  0
  186.2280  175.7570  135.7560 O   0  0  0  0  0  0  0  0  0  0  0  0
  185.2950  172.2460  136.7190 C   0  0  0  0  0  3  0  0  0  0  0  0
  184.2830  171.5170  137.3460 C   0  0  0  0  0  3  0  0  0  0  0  0
  183.9820  174.2780  136.9400 C   0  0  0  0  0  0  0  0  0  0  0  0
  182.9730  173.5350  137.5730 C   0  0  0  0  0  3  0  0  0  0  0  0
  187.2750  173.7330  135.4240 O   0  0  0  0  0  0  0  0  0  0  0  0
  183.1230  172.1620  137.7750 C   0  0  0  0  0  3  0  0  0  0  0  0
  185.1630  173.6280  136.5120 C   0  0  0  0  0  0  0  0  0  0  0  0
  182.2390  178.6890  138.2210 C   0  0  0  0  0  2  0  0  0  0  0  0
  184.8430  179.2620  140.0870 C   0  0  0  0  0  2  0  0  0  0  0  0
  183.1520  177.8640  137.3150 C   0  0  0  0  0  2  0  0  0  0  0  0
  186.0310  180.2820  137.3870 O   0  0  0  0  0  1  0  0  0  0  0  0
  183.8280  175.6530  136.7310 O   0  0  0  0  0  0  0  0  0  0  0  0
  186.9450  177.9870  135.2710 C   0  0  0  0  0  2  0  0  0  0  0  0
  187.2550  176.5090  135.1290 C   0  0  0  0  0  2  0  0  0  0  0  0
  187.7010  178.5590  137.6600 C   0  0  1  0  0  3  0  0  0  0  0  0
  181.9900  178.0570  139.5030 N   0  0  0  0  0  0  0  0  0  0  0  0
  186.2740  174.3640  135.8650 C   0  0  0  0  0  0  0  0  0  0  0  0
  184.3770  177.8070  140.1000 C   0  0  1  0  0  3  0  0  0  0  0  0
  186.3190  179.0960  138.0640 C   0  0  1  0  0  3  0  0  0  0  0  0
  182.7180  176.4110  137.1920 C   0  0  2  0  0  3  0  0  0  0  0  0
  186.2680  179.3640  139.5620 C   0  0  0  0  0  2  0  0  0  0  0  0
  181.5680  176.2770  136.2480 C   0  0  0  0  0  0  0  0  0  0  0  0
  179.8840  175.2240  135.2060 C   0  0  0  0  0  0  0  0  0  0  0  0
  181.1170  177.3540  135.4840 C   0  0  0  0  0  3  0  0  0  0  0  0
  179.8060  176.7840  134.5940 S   0  0  0  0  0  0  0  0  0  0  0  0
  180.8850  175.1090  136.1030 N   0  0  0  0  0  0  0  0  0  0  0  0
  178.9310  174.1200  134.8800 C   0  0  0  0  0  3  0  0  0  0  0  0
  179.0190  173.0380  135.9400 C   0  0  0  0  0  2  0  0  0  0  0  0
  179.6970  172.8380  134.6050 C   0  0  0  0  0  2  0  0  0  0  0  0
  185.1650  176.9470  141.0890 C   0  0  0  0  0  2  0  0  0  0  0  0
  185.7920  178.8360  144.7180 C   0  0  0  0  0  1  0  0  0  0  0  0
  185.5690  178.1690  143.4350 C   0  0  0  0  0  0  0  0  0  0  0  0
  185.3860  177.6180  142.3780 C   0  0  0  0  0  0  0  0  0  0  0  0
  187.9080  177.1210  138.1220 C   0  0  0  0  0  2  0  0  0  0  0  0
  189.3710  176.7320  138.0670 C   0  0  0  0  0  2  0  0  0  0  0  0
  190.1720  177.6870  138.9300 C   0  0  0  0  0  2  0  0  0  0  0  0
  190.8960  176.9190  140.0270 C   0  0  2  0  0  3  0  0  0  0  0  0
  188.9600  177.8670  141.3990 C   0  0  0  0  0  1  0  0  0  0  0  0
  190.0700  176.8270  141.3180 C   0  0  2  0  0  3  0  0  0  0  0  0
  190.9660  176.8840  142.5490 C   0  0  0  0  0  2  0  0  0  0  0  0
  190.4170  177.2280  144.8020 C   0  0  1  0  0  3  0  0  0  0  0  0
  190.4740  177.8800  143.4850 N   0  0  0  0  0  0  0  0  0  0  0  0
  191.5430  178.0920  144.4700 C   0  0  0  0  0  2  0  0  0  0  0  0
  189.4420  177.9850  145.6860 C   0  0  0  0  0  2  0  0  0  0  0  0
  189.5900  177.5580  147.1380 C   0  0  0  0  0  2  0  0  0  0  0  0
  187.2110  177.5280  147.3070 O   0  0  0  0  0  0  0  0  0  0  0  0
  188.3280  178.1960  149.1910 O   0  0  0  0  0  1  0  0  0  0  0  0
  188.3100  177.7450  147.8790 C   0  0  0  0  0  0  0  0  0  0  0  0
  192.3600  177.3540  140.2000 C   0  0  0  0  0  2  0  0  0  0  0  0
  193.0490  177.1630  137.8100 O   0  0  0  0  0  0  0  0  0  0  0  0
  194.2490  176.0960  139.4430 O   0  0  0  0  0  1  0  0  0  0  0  0
  193.2760  176.8350  139.1390 C   0  0  0  0  0  0  0  0  0  0  0  0
  2 18  1  0  0  0  0
  3 20  1  0  0  0  0
  4  5  1  0  0  0  0
  5  9  2  0  0  0  0
  6  7  2  0  0  0  0
  7  9  1  0  0  0  0
  8 20  2  0  0  0  0
 10  4  2  0  0  0  0
 10  6  1  0  0  0  0
 11 19  1  0  0  0  0
 12 21  1  0  0  0  0
 13 11  1  0  0  0  0
 15  6  1  0  0  0  0
 15 23  1  0  0  0  0
 16  2  1  0  0  0  0
 17 16  1  0  0  0  0
 17  3  1  0  0  0  0
 18 22  1  0  0  0  0
 18 37  1  6  0  0  0
 19  1  2  0  0  0  0
 20 10  1  0  0  0  0
 21  1  1  0  0  0  0
 21 33  1  1  0  0  0
 22 14  1  6  0  0  0
 22 24  1  0  0  0  0
 23 25  1  6  0  0  0
 23 13  1  0  0  0  0
 24 12  1  0  0  0  0
 26 29  2  0  0  0  0
 27 25  2  0  0  0  0
 28 26  1  0  0  0  0
 28 27  1  0  0  0  0
 29 25  1  0  0  0  0
 30 26  1  0  0  0  0
 30 31  1  0  0  0  0
 32 30  1  0  0  0  0
 32 31  1  0  0  0  0
 33 36  1  0  0  0  0
 35 34  1  0  0  0  0
 36 35  3  0  0  0  0
 38 37  1  0  0  0  0
 38 39  1  0  0  0  0
 40 39  1  6  0  0  0
 40 52  1  0  0  0  0
 40 42  1  0  0  0  0
 42 41  1  1  0  0  0
 42 43  1  0  0  0  0
 43 45  1  0  0  0  0
 44 47  1  1  0  0  0
 45 46  1  0  0  0  0
 45 44  1  0  0  0  0
 46 44  1  0  0  0  0
 47 48  1  0  0  0  0
 48 51  1  0  0  0  0
 49 51  2  0  0  0  0
 51 50  1  0  0  0  0
 53 55  2  0  0  0  0
 55 54  1  0  0  0  0
 55 52  1  0  0  0  0
M  END
>  <MODEL>
9

>  <REMARK>
 VINA RESULT:      -0.4      2.245      3.139
  Name = 
  16 active torsions:
  status: ('A' for Active; 'I' for Inactive)
    1  A    between atoms: C_3  and  C_14
    2  A    between atoms: C_6  and  C_14
    3  A    between atoms: C_6  and  C_38
    4  A    between atoms: C_7  and  N_21
    5  A    between atoms: C_7  and  C_46
    6  A    between atoms: C_8  and  C_20
    7  A    between atoms: C_8  and  C_22
    8  A    between atoms: C_10  and  C_32
    9  A    between atoms: C_12  and  C_20
   10  A    between atoms: C_12  and  C_42
   11  A    between atoms: C_12  and  C_46
   12  A    between atoms: C_13  and  C_52
   13  A    between atoms: C_22  and  C_43
   14  A    between atoms: C_27  and  C_49
   15  A    between atoms: C_27  and  C_55
   16  A    between atoms: C_42  and  C_50
                            x       y       z     vdW  Elec       q    Type
                         _______ _______ _______ _____ _____    ______ ____

>  <TORSDO>
F 16

$$$$
