=
 OpenBabel11052414213D

 34 37  0  0  1  0  0  0  0  0999 V2000
  188.4400  177.4110  143.5360 N   0  0  0  0  0  0  0  0  0  0  0  0
  190.4370  176.1740  142.9500 C   0  0  2  0  0  3  0  0  0  0  0  0
  189.1850  177.1120  144.7570 C   0  0  1  0  0  3  0  0  0  0  0  0
  190.5870  176.7100  144.3560 C   0  0  1  0  0  3  0  0  0  0  0  0
  189.2130  176.8920  142.4050 C   0  0  2  0  0  3  0  0  0  0  0  0
  190.1820  174.7990  142.9630 O   0  0  0  0  0  1  0  0  0  0  0  0
  191.2170  176.8330  139.8830 C   0  0  0  0  0  3  0  0  0  0  0  0
  189.4010  177.8070  137.8580 C   0  0  0  0  0  3  0  0  0  0  0  0
  189.6250  178.0410  141.4770 C   0  0  2  0  0  3  0  0  0  0  0  0
  190.5350  176.9320  137.3680 C   0  0  0  0  0  2  0  0  0  0  0  0
  189.2430  178.0250  139.1630 C   0  0  0  0  0  0  0  0  0  0  0  0
  188.4450  178.8870  141.1650 N   0  0  0  0  0  0  0  0  0  0  0  0
  190.1160  177.5270  140.1630 C   0  0  0  0  0  0  0  0  0  0  0  0
  191.4960  176.5160  138.4660 C   0  0  0  0  0  0  0  0  0  0  0  0
  192.5390  175.8760  138.1700 O   0  0  0  0  0  0  0  0  0  0  0  0
  188.2630  178.8270  139.7670 N   0  0  0  0  0  0  0  0  0  0  0  0
  191.0960  175.7440  145.2310 O   0  0  0  0  0  0  0  0  0  0  0  0
  192.0040  176.4330  146.0360 C   0  0  0  0  0  2  0  0  0  0  0  0
  192.2060  175.6760  147.3320 C   0  0  0  0  0  1  0  0  0  0  0  0
  187.2030  176.6480  143.5880 C   0  0  0  0  0  2  0  0  0  0  0  0
  186.0610  177.5510  144.0140 C   0  0  0  0  0  2  0  0  0  0  0  0
  184.7520  178.4080  141.8530 C   0  0  0  0  0  0  0  0  0  0  0  0
  185.3430  178.0210  142.8300 C   0  0  0  0  0  0  0  0  0  0  0  0
  182.5790  176.9450  140.3720 O   0  0  0  0  0  0  0  0  0  0  0  0
  184.0330  178.8820  140.6650 C   0  0  2  0  0  3  0  0  0  0  0  0
  183.4460  177.7460  139.9320 C   0  0  0  0  0  0  0  0  0  0  0  0
  183.7250  176.9190  137.7170 O   0  0  0  0  0  0  0  0  0  0  0  0
  184.9300  178.8700  138.5290 C   0  0  0  0  0  2  0  0  0  0  0  0
  184.9420  179.5370  139.7870 O   0  0  0  0  0  0  0  0  0  0  0  0
  183.9940  177.7410  138.6310 C   0  0  0  0  0  0  0  0  0  0  0  0
  189.2210  178.3440  145.6460 C   0  0  0  0  0  2  0  0  0  0  0  0
  189.0740  177.8650  147.3920 S   0  0  0  0  0  0  0  0  0  0  0  0
  187.3040  177.5160  147.2110 C   0  0  0  0  0  2  0  0  0  0  0  0
  186.5200  178.8040  147.3460 C   0  0  0  0  0  1  0  0  0  0  0  0
  1 20  1  0  0  0  0
  1  3  1  0  0  0  0
  2  6  1  1  0  0  0
  2  4  1  0  0  0  0
  3 31  1  1  0  0  0
  4  3  1  0  0  0  0
  4 17  1  1  0  0  0
  5  2  1  0  0  0  0
  5  1  1  1  0  0  0
  7 13  2  0  0  0  0
  8 11  2  0  0  0  0
  9 13  1  6  0  0  0
  9  5  1  0  0  0  0
 10  8  1  0  0  0  0
 10 14  1  0  0  0  0
 11 16  1  0  0  0  0
 11 13  1  0  0  0  0
 12  9  1  0  0  0  0
 14  7  1  0  0  0  0
 15 14  2  0  0  0  0
 16 12  2  0  0  0  0
 17 18  1  0  0  0  0
 18 19  1  0  0  0  0
 20 21  1  0  0  0  0
 22 23  3  0  0  0  0
 23 21  1  0  0  0  0
 25 22  1  1  0  0  0
 26 24  2  0  0  0  0
 26 25  1  0  0  0  0
 27 30  2  0  0  0  0
 28 30  1  0  0  0  0
 28 29  1  0  0  0  0
 29 25  1  0  0  0  0
 30 26  1  0  0  0  0
 31 32  1  0  0  0  0
 33 34  1  0  0  0  0
 33 32  1  0  0  0  0
M  END
>  <MODEL>
1

>  <REMARK>
 VINA RESULT:      -7.3      0.000      0.000
  Name = 
  10 active torsions:
  status: ('A' for Active; 'I' for Inactive)
    1  A    between atoms: C_3  and  C_13
    2  A    between atoms: C_4  and  C_31
    3  A    between atoms: N_5  and  C_18
    4  A    between atoms: C_7  and  O_8
    5  A    between atoms: O_8  and  C_28
    6  A    between atoms: C_12  and  S_16
    7  A    between atoms: S_16  and  C_23
    8  A    between atoms: C_17  and  C_29
    9  A    between atoms: C_18  and  C_29
   10  A    between atoms: C_23  and  C_26
                            x       y       z     vdW  Elec       q    Type
                         _______ _______ _______ _____ _____    ______ ____

>  <TORSDO>
F 10

$$$$
=
 OpenBabel11052414213D

 34 37  0  0  1  0  0  0  0  0999 V2000
  188.9110  177.5460  141.9950 N   0  0  0  0  0  0  0  0  0  0  0  0
  190.3560  177.1580  140.0910 C   0  0  2  0  0  3  0  0  0  0  0  0
  190.3020  177.6360  142.4330 C   0  0  1  0  0  3  0  0  0  0  0  0
  191.1650  177.7930  141.2010 C   0  0  1  0  0  3  0  0  0  0  0  0
  188.9140  177.3050  140.5500 C   0  0  2  0  0  3  0  0  0  0  0  0
  190.6520  175.7970  139.9710 O   0  0  0  0  0  1  0  0  0  0  0  0
  188.8960  177.9880  137.4010 C   0  0  0  0  0  3  0  0  0  0  0  0
  186.0410  177.9610  136.9630 C   0  0  0  0  0  3  0  0  0  0  0  0
  188.2270  178.4660  139.8220 C   0  0  2  0  0  3  0  0  0  0  0  0
  186.9010  177.6420  135.7590 C   0  0  0  0  0  2  0  0  0  0  0  0
  186.6070  178.1590  138.1530 C   0  0  0  0  0  0  0  0  0  0  0  0
  186.8770  178.6950  140.3960 N   0  0  0  0  0  0  0  0  0  0  0  0
  188.0070  178.1470  138.3790 C   0  0  0  0  0  0  0  0  0  0  0  0
  188.3900  177.7480  136.0340 C   0  0  0  0  0  0  0  0  0  0  0  0
  189.2070  177.6110  135.0860 O   0  0  0  0  0  0  0  0  0  0  0  0
  185.9520  178.4850  139.3510 N   0  0  0  0  0  0  0  0  0  0  0  0
  192.3990  177.1580  141.3740 O   0  0  0  0  0  0  0  0  0  0  0  0
  193.2060  177.6590  140.3510 C   0  0  0  0  0  2  0  0  0  0  0  0
  194.1240  176.5640  139.8500 C   0  0  0  0  0  1  0  0  0  0  0  0
  188.3380  176.3620  142.6190 C   0  0  0  0  0  2  0  0  0  0  0  0
  187.7680  176.7240  143.9770 C   0  0  0  0  0  2  0  0  0  0  0  0
  185.7360  178.4250  143.6650 C   0  0  0  0  0  0  0  0  0  0  0  0
  186.6550  177.6560  143.8050 C   0  0  0  0  0  0  0  0  0  0  0  0
  183.6820  179.1630  145.7360 O   0  0  0  0  0  0  0  0  0  0  0  0
  184.6180  179.3580  143.4910 C   0  0  2  0  0  3  0  0  0  0  0  0
  183.5630  179.0870  144.4840 C   0  0  0  0  0  0  0  0  0  0  0  0
  181.2670  178.4850  144.2960 O   0  0  0  0  0  0  0  0  0  0  0  0
  182.6740  178.8370  142.3430 C   0  0  0  0  0  2  0  0  0  0  0  0
  184.0480  179.1840  142.1990 O   0  0  0  0  0  0  0  0  0  0  0  0
  182.3800  178.7690  143.7820 C   0  0  0  0  0  0  0  0  0  0  0  0
  190.4690  178.8330  143.3530 C   0  0  0  0  0  2  0  0  0  0  0  0
  191.8960  178.5900  144.4500 S   0  0  0  0  0  0  0  0  0  0  0  0
  191.3940  176.8890  144.8290 C   0  0  0  0  0  2  0  0  0  0  0  0
  191.1610  176.7530  146.3180 C   0  0  0  0  0  1  0  0  0  0  0  0
  1  3  1  0  0  0  0
  1 20  1  0  0  0  0
  2  6  1  1  0  0  0
  2  5  1  0  0  0  0
  2  4  1  0  0  0  0
  3 31  1  1  0  0  0
  4 17  1  1  0  0  0
  4  3  1  0  0  0  0
  5  1  1  1  0  0  0
  7 13  2  0  0  0  0
  8 11  2  0  0  0  0
  9 13  1  6  0  0  0
  9 12  1  0  0  0  0
  9  5  1  0  0  0  0
 10 14  1  0  0  0  0
 10  8  1  0  0  0  0
 11 13  1  0  0  0  0
 11 16  1  0  0  0  0
 14  7  1  0  0  0  0
 15 14  2  0  0  0  0
 16 12  2  0  0  0  0
 18 17  1  0  0  0  0
 19 18  1  0  0  0  0
 20 21  1  0  0  0  0
 22 23  3  0  0  0  0
 23 21  1  0  0  0  0
 25 22  1  1  0  0  0
 25 26  1  0  0  0  0
 26 24  2  0  0  0  0
 28 30  1  0  0  0  0
 29 28  1  0  0  0  0
 29 25  1  0  0  0  0
 30 27  2  0  0  0  0
 30 26  1  0  0  0  0
 31 32  1  0  0  0  0
 32 33  1  0  0  0  0
 33 34  1  0  0  0  0
M  END
>  <MODEL>
2

>  <REMARK>
 VINA RESULT:      -6.8      2.492      3.952
  Name = 
  10 active torsions:
  status: ('A' for Active; 'I' for Inactive)
    1  A    between atoms: C_3  and  C_13
    2  A    between atoms: C_4  and  C_31
    3  A    between atoms: N_5  and  C_18
    4  A    between atoms: C_7  and  O_8
    5  A    between atoms: O_8  and  C_28
    6  A    between atoms: C_12  and  S_16
    7  A    between atoms: S_16  and  C_23
    8  A    between atoms: C_17  and  C_29
    9  A    between atoms: C_18  and  C_29
   10  A    between atoms: C_23  and  C_26
                            x       y       z     vdW  Elec       q    Type
                         _______ _______ _______ _____ _____    ______ ____

>  <TORSDO>
F 10

$$$$
=
 OpenBabel11052414213D

 34 37  0  0  1  0  0  0  0  0999 V2000
  182.8890  178.0440  139.6370 N   0  0  0  0  0  0  0  0  0  0  0  0
  181.7100  179.0000  141.5230 C   0  0  2  0  0  3  0  0  0  0  0  0
  181.6200  178.5960  139.1680 C   0  0  1  0  0  3  0  0  0  0  0  0
  181.0940  179.5220  140.2420 C   0  0  1  0  0  3  0  0  0  0  0  0
  182.9940  178.3250  141.0710 C   0  0  2  0  0  3  0  0  0  0  0  0
  180.8850  178.0430  142.1200 O   0  0  0  0  0  1  0  0  0  0  0  0
  184.8310  178.4910  143.7120 C   0  0  0  0  0  3  0  0  0  0  0  0
  187.3910  177.9110  142.5030 C   0  0  0  0  0  3  0  0  0  0  0  0
  184.2060  179.2230  141.3440 C   0  0  2  0  0  3  0  0  0  0  0  0
  187.2520  177.5580  143.9690 C   0  0  0  0  0  2  0  0  0  0  0  0
  186.3430  178.3870  141.8310 C   0  0  0  0  0  0  0  0  0  0  0  0
  185.0580  179.3060  140.1300 N   0  0  0  0  0  0  0  0  0  0  0  0
  185.0770  178.6480  142.4130 C   0  0  0  0  0  0  0  0  0  0  0  0
  185.9140  177.9570  144.5640 C   0  0  0  0  0  0  0  0  0  0  0  0
  185.7170  177.8140  145.7990 O   0  0  0  0  0  0  0  0  0  0  0  0
  186.3190  178.7810  140.4840 N   0  0  0  0  0  0  0  0  0  0  0  0
  179.6970  179.4900  140.2860 O   0  0  0  0  0  0  0  0  0  0  0  0
  179.3220  180.7700  140.6950 C   0  0  0  0  0  2  0  0  0  0  0  0
  179.5390  181.7470  139.5590 C   0  0  0  0  0  1  0  0  0  0  0  0
  182.8090  176.5980  139.4950 C   0  0  0  0  0  2  0  0  0  0  0  0
  182.9090  176.2200  138.0290 C   0  0  0  0  0  2  0  0  0  0  0  0
  185.3700  176.7460  137.1430 C   0  0  0  0  0  0  0  0  0  0  0  0
  184.2580  176.5090  137.5430 C   0  0  0  0  0  0  0  0  0  0  0  0
  187.6980  174.8400  137.0730 O   0  0  0  0  0  0  0  0  0  0  0  0
  186.7230  177.0380  136.6560 C   0  0  2  0  0  3  0  0  0  0  0  0
  187.6920  176.0900  137.2340 C   0  0  0  0  0  0  0  0  0  0  0  0
  189.6280  176.3670  138.5920 O   0  0  0  0  0  0  0  0  0  0  0  0
  188.2860  178.2570  137.8550 C   0  0  0  0  0  2  0  0  0  0  0  0
  187.1050  178.3470  137.0650 O   0  0  0  0  0  0  0  0  0  0  0  0
  188.6430  176.8350  137.9640 C   0  0  0  0  0  0  0  0  0  0  0  0
  181.8450  179.3600  137.8740 C   0  0  0  0  0  2  0  0  0  0  0  0
  180.4660  179.0740  136.7270 S   0  0  0  0  0  0  0  0  0  0  0  0
  180.5640  180.7680  136.0880 C   0  0  0  0  0  2  0  0  0  0  0  0
  180.8600  180.7300  134.6040 C   0  0  0  0  0  1  0  0  0  0  0  0
  2  6  1  6  0  0  0
  3 31  1  6  0  0  0
  3  1  1  0  0  0  0
  3  4  1  0  0  0  0
  4 17  1  1  0  0  0
  4  2  1  0  0  0  0
  5  1  1  6  0  0  0
  5  9  1  0  0  0  0
  5  2  1  0  0  0  0
  7 14  1  0  0  0  0
  8 10  1  0  0  0  0
  9 12  1  6  0  0  0
  9 13  1  0  0  0  0
 10 14  1  0  0  0  0
 11 13  1  0  0  0  0
 11  8  2  0  0  0  0
 12 16  2  0  0  0  0
 13  7  2  0  0  0  0
 14 15  2  0  0  0  0
 16 11  1  0  0  0  0
 17 18  1  0  0  0  0
 19 18  1  0  0  0  0
 20  1  1  0  0  0  0
 21 20  1  0  0  0  0
 22 23  3  0  0  0  0
 23 21  1  0  0  0  0
 24 26  2  0  0  0  0
 25 29  1  0  0  0  0
 25 22  1  1  0  0  0
 25 26  1  0  0  0  0
 26 30  1  0  0  0  0
 28 30  1  0  0  0  0
 29 28  1  0  0  0  0
 30 27  2  0  0  0  0
 32 31  1  0  0  0  0
 33 32  1  0  0  0  0
 34 33  1  0  0  0  0
M  END
>  <MODEL>
3

>  <REMARK>
 VINA RESULT:      -6.4      3.909      8.625
  Name = 
  10 active torsions:
  status: ('A' for Active; 'I' for Inactive)
    1  A    between atoms: C_3  and  C_13
    2  A    between atoms: C_4  and  C_31
    3  A    between atoms: N_5  and  C_18
    4  A    between atoms: C_7  and  O_8
    5  A    between atoms: O_8  and  C_28
    6  A    between atoms: C_12  and  S_16
    7  A    between atoms: S_16  and  C_23
    8  A    between atoms: C_17  and  C_29
    9  A    between atoms: C_18  and  C_29
   10  A    between atoms: C_23  and  C_26
                            x       y       z     vdW  Elec       q    Type
                         _______ _______ _______ _____ _____    ______ ____

>  <TORSDO>
F 10

$$$$
=
 OpenBabel11052414213D

 34 37  0  0  1  0  0  0  0  0999 V2000
  183.4030  177.8000  137.7590 N   0  0  0  0  0  0  0  0  0  0  0  0
  182.1110  177.0710  139.6710 C   0  0  2  0  0  3  0  0  0  0  0  0
  182.0560  177.4560  137.3130 C   0  0  1  0  0  3  0  0  0  0  0  0
  181.1660  177.3940  138.5340 C   0  0  1  0  0  3  0  0  0  0  0  0
  183.4500  177.6230  139.2120 C   0  0  2  0  0  3  0  0  0  0  0  0
  182.2300  175.6890  139.8440 O   0  0  0  0  0  1  0  0  0  0  0  0
  182.3800  178.7310  142.0420 C   0  0  0  0  0  3  0  0  0  0  0  0
  184.9280  179.1860  143.3270 C   0  0  0  0  0  3  0  0  0  0  0  0
  183.7490  178.9630  139.8960 C   0  0  2  0  0  3  0  0  0  0  0  0
  183.7570  178.9130  144.2490 C   0  0  0  0  0  2  0  0  0  0  0  0
  184.7620  179.1310  142.0060 C   0  0  0  0  0  0  0  0  0  0  0  0
  185.1850  179.3060  139.7290 N   0  0  0  0  0  0  0  0  0  0  0  0
  183.5190  178.8820  141.3700 C   0  0  0  0  0  0  0  0  0  0  0  0
  182.4350  178.7600  143.5190 C   0  0  0  0  0  0  0  0  0  0  0  0
  181.3720  178.6370  144.1810 O   0  0  0  0  0  0  0  0  0  0  0  0
  185.7350  179.3820  141.0270 N   0  0  0  0  0  0  0  0  0  0  0  0
  180.1800  176.4150  138.3820 O   0  0  0  0  0  0  0  0  0  0  0  0
  179.0220  176.9880  138.9100 C   0  0  0  0  0  2  0  0  0  0  0  0
  178.9310  176.6730  140.3880 C   0  0  0  0  0  1  0  0  0  0  0  0
  184.3120  176.8190  137.1850 C   0  0  0  0  0  2  0  0  0  0  0  0
  185.1880  177.4820  136.1400 C   0  0  0  0  0  2  0  0  0  0  0  0
  187.5440  178.1120  137.2240 C   0  0  0  0  0  0  0  0  0  0  0  0
  186.4790  177.8280  136.7340 C   0  0  0  0  0  0  0  0  0  0  0  0
  190.1800  176.7610  136.6940 O   0  0  0  0  0  0  0  0  0  0  0  0
  188.8380  178.4580  137.8220 C   0  0  2  0  0  3  0  0  0  0  0  0
  189.7610  177.3120  137.7470 C   0  0  0  0  0  0  0  0  0  0  0  0
  190.9140  176.0390  139.3970 O   0  0  0  0  0  0  0  0  0  0  0  0
  189.4480  177.8900  139.9840 C   0  0  0  0  0  2  0  0  0  0  0  0
  188.6570  178.7760  139.1970 O   0  0  0  0  0  0  0  0  0  0  0  0
  190.1310  176.9680  139.0650 C   0  0  0  0  0  0  0  0  0  0  0  0
  181.5540  178.5140  136.3440 C   0  0  0  0  0  2  0  0  0  0  0  0
  181.0960  180.0240  137.2450 S   0  0  0  0  0  0  0  0  0  0  0  0
  180.5080  180.8250  135.7290 C   0  0  0  0  0  2  0  0  0  0  0  0
  180.4150  182.3190  135.9520 C   0  0  0  0  0  1  0  0  0  0  0  0
  2  6  1  6  0  0  0
  3 31  1  6  0  0  0
  3  1  1  0  0  0  0
  3  4  1  0  0  0  0
  4 17  1  6  0  0  0
  4  2  1  0  0  0  0
  5  1  1  6  0  0  0
  5  2  1  0  0  0  0
  5  9  1  0  0  0  0
  7 14  1  0  0  0  0
  8 10  1  0  0  0  0
  9 12  1  1  0  0  0
  9 13  1  0  0  0  0
 11  8  2  0  0  0  0
 12 16  2  0  0  0  0
 13 11  1  0  0  0  0
 13  7  2  0  0  0  0
 14 15  2  0  0  0  0
 14 10  1  0  0  0  0
 16 11  1  0  0  0  0
 17 18  1  0  0  0  0
 18 19  1  0  0  0  0
 20  1  1  0  0  0  0
 21 23  1  0  0  0  0
 21 20  1  0  0  0  0
 23 22  3  0  0  0  0
 24 26  2  0  0  0  0
 25 22  1  1  0  0  0
 25 29  1  0  0  0  0
 26 25  1  0  0  0  0
 26 30  1  0  0  0  0
 29 28  1  0  0  0  0
 30 27  2  0  0  0  0
 30 28  1  0  0  0  0
 31 32  1  0  0  0  0
 33 34  1  0  0  0  0
 33 32  1  0  0  0  0
M  END
>  <MODEL>
4

>  <REMARK>
 VINA RESULT:      -6.3      4.048      9.227
  Name = 
  10 active torsions:
  status: ('A' for Active; 'I' for Inactive)
    1  A    between atoms: C_3  and  C_13
    2  A    between atoms: C_4  and  C_31
    3  A    between atoms: N_5  and  C_18
    4  A    between atoms: C_7  and  O_8
    5  A    between atoms: O_8  and  C_28
    6  A    between atoms: C_12  and  S_16
    7  A    between atoms: S_16  and  C_23
    8  A    between atoms: C_17  and  C_29
    9  A    between atoms: C_18  and  C_29
   10  A    between atoms: C_23  and  C_26
                            x       y       z     vdW  Elec       q    Type
                         _______ _______ _______ _____ _____    ______ ____

>  <TORSDO>
F 10

$$$$
=
 OpenBabel11052414213D

 34 37  0  0  1  0  0  0  0  0999 V2000
  188.7200  177.6500  140.8640 N   0  0  0  0  0  0  0  0  0  0  0  0
  191.0320  176.9990  141.1680 C   0  0  2  0  0  3  0  0  0  0  0  0
  189.2890  177.3120  139.5610 C   0  0  1  0  0  3  0  0  0  0  0  0
  190.5680  176.5410  139.8020 C   0  0  1  0  0  3  0  0  0  0  0  0
  189.7530  177.4160  141.8760 C   0  0  2  0  0  3  0  0  0  0  0  0
  191.8710  178.1120  141.0630 O   0  0  0  0  0  1  0  0  0  0  0  0
  190.8650  176.7570  144.8270 C   0  0  0  0  0  3  0  0  0  0  0  0
  188.3980  177.0550  146.3010 C   0  0  0  0  0  3  0  0  0  0  0  0
  189.2950  176.3290  142.8560 C   0  0  2  0  0  3  0  0  0  0  0  0
  189.6720  177.2990  147.0820 C   0  0  0  0  0  2  0  0  0  0  0  0
  188.4550  176.7980  144.9950 C   0  0  0  0  0  0  0  0  0  0  0  0
  187.8130  176.2260  142.8390 N   0  0  0  0  0  0  0  0  0  0  0  0
  189.6630  176.6760  144.2610 C   0  0  0  0  0  0  0  0  0  0  0  0
  190.9330  177.0520  146.2740 C   0  0  0  0  0  0  0  0  0  0  0  0
  192.0550  177.1160  146.8400 O   0  0  0  0  0  0  0  0  0  0  0  0
  187.3720  176.5280  144.1450 N   0  0  0  0  0  0  0  0  0  0  0  0
  191.5120  176.8220  138.8100 O   0  0  0  0  0  0  0  0  0  0  0  0
  191.9330  175.5730  138.3510 C   0  0  0  0  0  2  0  0  0  0  0  0
  191.3020  175.2910  137.0040 C   0  0  0  0  0  1  0  0  0  0  0  0
  188.4500  179.0800  140.8590 C   0  0  0  0  0  2  0  0  0  0  0  0
  187.2280  179.3730  141.7090 C   0  0  0  0  0  2  0  0  0  0  0  0
  185.0260  178.6870  140.3670 C   0  0  0  0  0  0  0  0  0  0  0  0
  186.0210  178.9970  140.9730 C   0  0  0  0  0  0  0  0  0  0  0  0
  183.2820  180.5110  138.7280 O   0  0  0  0  0  0  0  0  0  0  0  0
  183.8160  178.3080  139.6290 C   0  0  2  0  0  3  0  0  0  0  0  0
  182.9660  179.4880  139.3920 C   0  0  0  0  0  0  0  0  0  0  0  0
  180.7330  180.0360  140.0090 O   0  0  0  0  0  0  0  0  0  0  0  0
  181.7640  177.9230  140.6330 C   0  0  0  0  0  2  0  0  0  0  0  0
  183.0600  177.3790  140.3980 O   0  0  0  0  0  0  0  0  0  0  0  0
  181.7170  179.2520  140.0050 C   0  0  0  0  0  0  0  0  0  0  0  0
  188.3000  176.4650  138.7780 C   0  0  0  0  0  2  0  0  0  0  0  0
  187.3840  177.4990  137.5980 S   0  0  0  0  0  0  0  0  0  0  0  0
  188.9170  178.1490  136.8820 C   0  0  0  0  0  2  0  0  0  0  0  0
  188.9480  177.8470  135.3990 C   0  0  0  0  0  1  0  0  0  0  0  0
  2  6  1  6  0  0  0
  2  5  1  0  0  0  0
  3 31  1  6  0  0  0
  3  4  1  0  0  0  0
  3  1  1  0  0  0  0
  4 17  1  6  0  0  0
  4  2  1  0  0  0  0
  5  1  1  6  0  0  0
  5  9  1  0  0  0  0
  7 14  1  0  0  0  0
  8 10  1  0  0  0  0
  9 12  1  1  0  0  0
  9 13  1  0  0  0  0
 11  8  2  0  0  0  0
 12 16  2  0  0  0  0
 13  7  2  0  0  0  0
 13 11  1  0  0  0  0
 14 15  2  0  0  0  0
 14 10  1  0  0  0  0
 16 11  1  0  0  0  0
 18 17  1  0  0  0  0
 19 18  1  0  0  0  0
 20  1  1  0  0  0  0
 20 21  1  0  0  0  0
 22 23  3  0  0  0  0
 23 21  1  0  0  0  0
 24 26  2  0  0  0  0
 25 22  1  1  0  0  0
 25 29  1  0  0  0  0
 26 25  1  0  0  0  0
 26 30  1  0  0  0  0
 29 28  1  0  0  0  0
 30 27  2  0  0  0  0
 30 28  1  0  0  0  0
 32 31  1  0  0  0  0
 33 32  1  0  0  0  0
 34 33  1  0  0  0  0
M  END
>  <MODEL>
5

>  <REMARK>
 VINA RESULT:      -6.1      2.420      6.022
  Name = 
  10 active torsions:
  status: ('A' for Active; 'I' for Inactive)
    1  A    between atoms: C_3  and  C_13
    2  A    between atoms: C_4  and  C_31
    3  A    between atoms: N_5  and  C_18
    4  A    between atoms: C_7  and  O_8
    5  A    between atoms: O_8  and  C_28
    6  A    between atoms: C_12  and  S_16
    7  A    between atoms: S_16  and  C_23
    8  A    between atoms: C_17  and  C_29
    9  A    between atoms: C_18  and  C_29
   10  A    between atoms: C_23  and  C_26
                            x       y       z     vdW  Elec       q    Type
                         _______ _______ _______ _____ _____    ______ ____

>  <TORSDO>
F 10

$$$$
=
 OpenBabel11052414213D

 34 37  0  0  1  0  0  0  0  0999 V2000
  182.1970  178.0170  138.0270 N   0  0  0  0  0  0  0  0  0  0  0  0
  183.0780  179.6840  139.5460 C   0  0  2  0  0  3  0  0  0  0  0  0
  182.6930  177.3460  139.2270 C   0  0  1  0  0  3  0  0  0  0  0  0
  182.8610  178.3930  140.3050 C   0  0  1  0  0  3  0  0  0  0  0  0
  182.3730  179.4590  138.2190 C   0  0  2  0  0  3  0  0  0  0  0  0
  184.4380  179.8980  139.3030 O   0  0  0  0  0  1  0  0  0  0  0  0
  181.7290  182.6090  138.0070 C   0  0  0  0  0  3  0  0  0  0  0  0
  180.0860  182.5620  135.6320 C   0  0  0  0  0  3  0  0  0  0  0  0
  181.0110  180.1630  138.1990 C   0  0  2  0  0  3  0  0  0  0  0  0
  180.8150  183.8600  135.9100 C   0  0  0  0  0  2  0  0  0  0  0  0
  180.2820  181.5050  136.4190 C   0  0  0  0  0  0  0  0  0  0  0  0
  180.0570  179.3950  137.3600 N   0  0  0  0  0  0  0  0  0  0  0  0
  181.1090  181.5150  137.5720 C   0  0  0  0  0  0  0  0  0  0  0  0
  181.5980  183.8460  137.2110 C   0  0  0  0  0  0  0  0  0  0  0  0
  182.1600  184.9000  137.6070 O   0  0  0  0  0  0  0  0  0  0  0  0
  179.6660  180.2490  136.3070 N   0  0  0  0  0  0  0  0  0  0  0  0
  183.9460  178.0850  141.1310 O   0  0  0  0  0  0  0  0  0  0  0  0
  183.5640  178.5190  142.4020 C   0  0  0  0  0  2  0  0  0  0  0  0
  184.7860  178.6180  143.2900 C   0  0  0  0  0  1  0  0  0  0  0  0
  183.0650  177.6290  136.9260 C   0  0  0  0  0  2  0  0  0  0  0  0
  183.9610  176.4840  137.3590 C   0  0  0  0  0  2  0  0  0  0  0  0
  186.5070  177.2810  137.3140 C   0  0  0  0  0  0  0  0  0  0  0  0
  185.3570  176.9210  137.3350 C   0  0  0  0  0  0  0  0  0  0  0  0
  188.9360  175.5070  137.2200 O   0  0  0  0  0  0  0  0  0  0  0  0
  187.9070  177.7180  137.2930 C   0  0  2  0  0  3  0  0  0  0  0  0
  188.7920  176.6360  137.7610 C   0  0  0  0  0  0  0  0  0  0  0  0
  190.3310  176.4590  139.5690 O   0  0  0  0  0  0  0  0  0  0  0  0
  189.0450  178.4830  139.1610 C   0  0  0  0  0  2  0  0  0  0  0  0
  188.0750  178.8230  138.1740 O   0  0  0  0  0  0  0  0  0  0  0  0
  189.4830  177.1040  138.8990 C   0  0  0  0  0  0  0  0  0  0  0  0
  181.6950  176.2870  139.6660 C   0  0  0  0  0  2  0  0  0  0  0  0
  180.2210  177.0710  140.3820 S   0  0  0  0  0  0  0  0  0  0  0  0
  179.1160  176.1320  139.2940 C   0  0  0  0  0  2  0  0  0  0  0  0
  179.1890  174.6620  139.6510 C   0  0  0  0  0  1  0  0  0  0  0  0
  1  3  1  0  0  0  0
  2  6  1  6  0  0  0
  2  4  1  0  0  0  0
  3 31  1  1  0  0  0
  3  4  1  0  0  0  0
  4 17  1  1  0  0  0
  5  1  1  1  0  0  0
  5  2  1  0  0  0  0
  8 10  1  0  0  0  0
  8 11  2  0  0  0  0
  9 12  1  6  0  0  0
  9  5  1  0  0  0  0
 10 14  1  0  0  0  0
 11 13  1  0  0  0  0
 13  7  2  0  0  0  0
 13  9  1  0  0  0  0
 14 15  2  0  0  0  0
 14  7  1  0  0  0  0
 16 11  1  0  0  0  0
 16 12  2  0  0  0  0
 17 18  1  0  0  0  0
 18 19  1  0  0  0  0
 20 21  1  0  0  0  0
 20  1  1  0  0  0  0
 22 23  3  0  0  0  0
 23 21  1  0  0  0  0
 24 26  2  0  0  0  0
 25 22  1  1  0  0  0
 25 26  1  0  0  0  0
 25 29  1  0  0  0  0
 26 30  1  0  0  0  0
 29 28  1  0  0  0  0
 30 28  1  0  0  0  0
 30 27  2  0  0  0  0
 31 32  1  0  0  0  0
 33 34  1  0  0  0  0
 33 32  1  0  0  0  0
M  END
>  <MODEL>
6

>  <REMARK>
 VINA RESULT:      -6.0      4.625      9.006
  Name = 
  10 active torsions:
  status: ('A' for Active; 'I' for Inactive)
    1  A    between atoms: C_3  and  C_13
    2  A    between atoms: C_4  and  C_31
    3  A    between atoms: N_5  and  C_18
    4  A    between atoms: C_7  and  O_8
    5  A    between atoms: O_8  and  C_28
    6  A    between atoms: C_12  and  S_16
    7  A    between atoms: S_16  and  C_23
    8  A    between atoms: C_17  and  C_29
    9  A    between atoms: C_18  and  C_29
   10  A    between atoms: C_23  and  C_26
                            x       y       z     vdW  Elec       q    Type
                         _______ _______ _______ _____ _____    ______ ____

>  <TORSDO>
F 10

$$$$
=
 OpenBabel11052414213D

 34 37  0  0  1  0  0  0  0  0999 V2000
  188.6360  177.6350  140.8160 N   0  0  0  0  0  0  0  0  0  0  0  0
  190.9490  177.0890  141.2780 C   0  0  2  0  0  3  0  0  0  0  0  0
  189.2960  177.2790  139.5620 C   0  0  1  0  0  3  0  0  0  0  0  0
  190.5870  176.5690  139.9040 C   0  0  1  0  0  3  0  0  0  0  0  0
  189.6150  177.4760  141.8940 C   0  0  2  0  0  3  0  0  0  0  0  0
  191.7490  178.2320  141.1850 O   0  0  0  0  0  1  0  0  0  0  0  0
  190.7870  176.7520  144.8070 C   0  0  0  0  0  3  0  0  0  0  0  0
  188.3810  177.1450  146.3570 C   0  0  0  0  0  3  0  0  0  0  0  0
  189.1410  176.4040  142.8820 C   0  0  2  0  0  3  0  0  0  0  0  0
  189.6870  177.3300  147.1000 C   0  0  0  0  0  2  0  0  0  0  0  0
  188.3870  176.8940  145.0490 C   0  0  0  0  0  0  0  0  0  0  0  0
  187.6570  176.3630  142.9100 N   0  0  0  0  0  0  0  0  0  0  0  0
  189.5660  176.7260  144.2780 C   0  0  0  0  0  0  0  0  0  0  0  0
  190.9120  177.0350  146.2520 C   0  0  0  0  0  0  0  0  0  0  0  0
  192.0520  177.0480  146.7840 O   0  0  0  0  0  0  0  0  0  0  0  0
  187.2680  176.6750  144.2310 N   0  0  0  0  0  0  0  0  0  0  0  0
  191.5780  176.8570  138.9600 O   0  0  0  0  0  0  0  0  0  0  0  0
  191.8050  175.6490  138.2990 C   0  0  0  0  0  2  0  0  0  0  0  0
  192.1810  175.9240  136.8590 C   0  0  0  0  0  1  0  0  0  0  0  0
  188.3120  179.0520  140.7450 C   0  0  0  0  0  2  0  0  0  0  0  0
  187.0380  179.3240  141.5220 C   0  0  0  0  0  2  0  0  0  0  0  0
  184.9260  178.7290  140.0040 C   0  0  0  0  0  0  0  0  0  0  0  0
  185.8800  178.9990  140.6900 C   0  0  0  0  0  0  0  0  0  0  0  0
  182.1070  178.2690  140.9500 O   0  0  0  0  0  0  0  0  0  0  0  0
  183.7660  178.4040  139.1670 C   0  0  2  0  0  3  0  0  0  0  0  0
  182.7150  177.7570  139.9730 C   0  0  0  0  0  0  0  0  0  0  0  0
  181.6430  175.6350  139.8480 O   0  0  0  0  0  0  0  0  0  0  0  0
  183.3730  176.3020  138.2740 C   0  0  0  0  0  2  0  0  0  0  0  0
  184.1540  177.4870  138.1500 O   0  0  0  0  0  0  0  0  0  0  0  0
  182.4780  176.4770  139.4270 C   0  0  0  0  0  0  0  0  0  0  0  0
  188.3900  176.3680  138.7500 C   0  0  0  0  0  2  0  0  0  0  0  0
  187.6320  177.2910  137.3820 S   0  0  0  0  0  0  0  0  0  0  0  0
  188.3300  176.1600  136.1500 C   0  0  0  0  0  2  0  0  0  0  0  0
  188.5310  174.7960  136.7750 C   0  0  0  0  0  1  0  0  0  0  0  0
  2  6  1  6  0  0  0
  2  5  1  0  0  0  0
  3 31  1  6  0  0  0
  3  4  1  0  0  0  0
  3  1  1  0  0  0  0
  4 17  1  6  0  0  0
  4  2  1  0  0  0  0
  5  1  1  6  0  0  0
  5  9  1  0  0  0  0
  7 14  1  0  0  0  0
  8 10  1  0  0  0  0
  9 12  1  1  0  0  0
  9 13  1  0  0  0  0
 11  8  2  0  0  0  0
 12 16  2  0  0  0  0
 13  7  2  0  0  0  0
 13 11  1  0  0  0  0
 14 15  2  0  0  0  0
 14 10  1  0  0  0  0
 16 11  1  0  0  0  0
 18 17  1  0  0  0  0
 19 18  1  0  0  0  0
 20  1  1  0  0  0  0
 20 21  1  0  0  0  0
 22 23  3  0  0  0  0
 23 21  1  0  0  0  0
 25 26  1  0  0  0  0
 25 22  1  1  0  0  0
 26 24  2  0  0  0  0
 28 30  1  0  0  0  0
 29 28  1  0  0  0  0
 29 25  1  0  0  0  0
 30 27  2  0  0  0  0
 30 26  1  0  0  0  0
 32 31  1  0  0  0  0
 33 34  1  0  0  0  0
 33 32  1  0  0  0  0
M  END
>  <MODEL>
7

>  <REMARK>
 VINA RESULT:      -6.0      2.427      5.933
  Name = 
  10 active torsions:
  status: ('A' for Active; 'I' for Inactive)
    1  A    between atoms: C_3  and  C_13
    2  A    between atoms: C_4  and  C_31
    3  A    between atoms: N_5  and  C_18
    4  A    between atoms: C_7  and  O_8
    5  A    between atoms: O_8  and  C_28
    6  A    between atoms: C_12  and  S_16
    7  A    between atoms: S_16  and  C_23
    8  A    between atoms: C_17  and  C_29
    9  A    between atoms: C_18  and  C_29
   10  A    between atoms: C_23  and  C_26
                            x       y       z     vdW  Elec       q    Type
                         _______ _______ _______ _____ _____    ______ ____

>  <TORSDO>
F 10

$$$$
=
 OpenBabel11052414213D

 34 37  0  0  1  0  0  0  0  0999 V2000
  190.5250  176.5350  139.9830 N   0  0  0  0  0  0  0  0  0  0  0  0
  188.6200  177.8560  139.2840 C   0  0  2  0  0  3  0  0  0  0  0  0
  189.9640  177.2070  141.1520 C   0  0  1  0  0  3  0  0  0  0  0  0
  188.5770  177.6880  140.7880 C   0  0  1  0  0  3  0  0  0  0  0  0
  189.6870  176.8740  138.8300 C   0  0  2  0  0  3  0  0  0  0  0  0
  189.0230  179.1500  138.9380 O   0  0  0  0  0  1  0  0  0  0  0  0
  186.9350  176.5680  137.1820 C   0  0  0  0  0  3  0  0  0  0  0  0
  187.9930  175.3540  134.7840 C   0  0  0  0  0  3  0  0  0  0  0  0
  189.0480  175.6060  138.2510 C   0  0  2  0  0  3  0  0  0  0  0  0
  186.7100  176.1420  134.6200 C   0  0  0  0  0  2  0  0  0  0  0  0
  188.6050  175.3160  135.9660 C   0  0  0  0  0  0  0  0  0  0  0  0
  190.0950  174.7410  137.6510 N   0  0  0  0  0  0  0  0  0  0  0  0
  188.1040  175.9330  137.1410 C   0  0  0  0  0  0  0  0  0  0  0  0
  186.1650  176.6890  135.9270 C   0  0  0  0  0  0  0  0  0  0  0  0
  185.0480  177.2690  135.9390 O   0  0  0  0  0  0  0  0  0  0  0  0
  189.7790  174.6150  136.2820 N   0  0  0  0  0  0  0  0  0  0  0  0
  188.2800  178.8900  141.4380 O   0  0  0  0  0  0  0  0  0  0  0  0
  186.9260  178.7980  141.7600 C   0  0  0  0  0  2  0  0  0  0  0  0
  186.7500  177.8720  142.9450 C   0  0  0  0  0  1  0  0  0  0  0  0
  191.8360  177.1180  139.7380 C   0  0  0  0  0  2  0  0  0  0  0  0
  192.1870  176.9870  138.2680 C   0  0  0  0  0  2  0  0  0  0  0  0
  194.1110  175.1620  137.9710 C   0  0  0  0  0  0  0  0  0  0  0  0
  193.2420  175.9870  138.1060 C   0  0  0  0  0  0  0  0  0  0  0  0
  196.3620  174.6060  139.8890 O   0  0  0  0  0  0  0  0  0  0  0  0
  195.1670  174.1570  137.8100 C   0  0  2  0  0  3  0  0  0  0  0  0
  196.3380  174.5050  138.6340 C   0  0  0  0  0  0  0  0  0  0  0  0
  198.6180  174.9540  138.1140 O   0  0  0  0  0  0  0  0  0  0  0  0
  196.9830  174.4140  136.3950 C   0  0  0  0  0  2  0  0  0  0  0  0
  195.5900  174.1230  136.4520 O   0  0  0  0  0  0  0  0  0  0  0  0
  197.4430  174.6610  137.7690 C   0  0  0  0  0  0  0  0  0  0  0  0
  189.8980  176.2330  142.3160 C   0  0  0  0  0  2  0  0  0  0  0  0
  191.2210  176.5880  143.5090 S   0  0  0  0  0  0  0  0  0  0  0  0
  190.3680  178.0720  144.1070 C   0  0  0  0  0  2  0  0  0  0  0  0
  191.2860  179.2680  143.9730 C   0  0  0  0  0  1  0  0  0  0  0  0
  1  3  1  0  0  0  0
  2  6  1  1  0  0  0
  2  4  1  0  0  0  0
  3 31  1  1  0  0  0
  4  3  1  0  0  0  0
  4 17  1  1  0  0  0
  5  2  1  0  0  0  0
  5  1  1  1  0  0  0
  8 11  2  0  0  0  0
  9 13  1  6  0  0  0
  9  5  1  0  0  0  0
 10  8  1  0  0  0  0
 10 14  1  0  0  0  0
 11 16  1  0  0  0  0
 11 13  1  0  0  0  0
 12  9  1  0  0  0  0
 13  7  2  0  0  0  0
 14 15  2  0  0  0  0
 14  7  1  0  0  0  0
 16 12  2  0  0  0  0
 17 18  1  0  0  0  0
 18 19  1  0  0  0  0
 20  1  1  0  0  0  0
 21 20  1  0  0  0  0
 22 23  3  0  0  0  0
 23 21  1  0  0  0  0
 25 22  1  6  0  0  0
 25 26  1  0  0  0  0
 26 24  2  0  0  0  0
 28 29  1  0  0  0  0
 28 30  1  0  0  0  0
 29 25  1  0  0  0  0
 30 27  2  0  0  0  0
 30 26  1  0  0  0  0
 31 32  1  0  0  0  0
 32 33  1  0  0  0  0
 34 33  1  0  0  0  0
M  END
>  <MODEL>
8

>  <REMARK>
 VINA RESULT:      -6.0      3.568      8.047
  Name = 
  10 active torsions:
  status: ('A' for Active; 'I' for Inactive)
    1  A    between atoms: C_3  and  C_13
    2  A    between atoms: C_4  and  C_31
    3  A    between atoms: N_5  and  C_18
    4  A    between atoms: C_7  and  O_8
    5  A    between atoms: O_8  and  C_28
    6  A    between atoms: C_12  and  S_16
    7  A    between atoms: S_16  and  C_23
    8  A    between atoms: C_17  and  C_29
    9  A    between atoms: C_18  and  C_29
   10  A    between atoms: C_23  and  C_26
                            x       y       z     vdW  Elec       q    Type
                         _______ _______ _______ _____ _____    ______ ____

>  <TORSDO>
F 10

$$$$
=
 OpenBabel11052414213D

 34 37  0  0  1  0  0  0  0  0999 V2000
  184.4050  178.3680  140.8890 N   0  0  0  0  0  0  0  0  0  0  0  0
  184.2970  179.4370  138.7200 C   0  0  2  0  0  3  0  0  0  0  0  0
  183.0200  178.3500  140.4240 C   0  0  1  0  0  3  0  0  0  0  0  0
  183.0280  178.6430  138.9400 C   0  0  1  0  0  3  0  0  0  0  0  0
  185.2200  178.9830  139.8390 C   0  0  2  0  0  3  0  0  0  0  0  0
  184.0600  180.8080  138.8620 O   0  0  0  0  0  1  0  0  0  0  0  0
  185.2500  177.3840  137.0420 C   0  0  0  0  0  3  0  0  0  0  0  0
  187.8070  178.2900  136.0470 C   0  0  0  0  0  3  0  0  0  0  0  0
  186.2540  177.9780  139.3170 C   0  0  2  0  0  3  0  0  0  0  0  0
  186.7940  177.8760  134.9990 C   0  0  0  0  0  2  0  0  0  0  0  0
  187.4680  178.2940  137.3350 C   0  0  0  0  0  0  0  0  0  0  0  0
  187.6240  178.4450  139.6470 N   0  0  0  0  0  0  0  0  0  0  0  0
  186.2060  177.8750  137.8280 C   0  0  0  0  0  0  0  0  0  0  0  0
  185.5020  177.3380  135.5870 C   0  0  0  0  0  0  0  0  0  0  0  0
  184.6240  176.8620  134.8210 O   0  0  0  0  0  0  0  0  0  0  0  0
  188.2960  178.6260  138.4190 N   0  0  0  0  0  0  0  0  0  0  0  0
  181.8900  179.3670  138.5710 O   0  0  0  0  0  0  0  0  0  0  0  0
  181.6100  178.9530  137.2680 C   0  0  0  0  0  2  0  0  0  0  0  0
  180.8460  180.0430  136.5450 C   0  0  0  0  0  1  0  0  0  0  0  0
  184.4620  179.2550  142.0410 C   0  0  0  0  0  2  0  0  0  0  0  0
  184.5660  178.4350  143.3140 C   0  0  0  0  0  2  0  0  0  0  0  0
  187.0240  177.4180  143.5190 C   0  0  0  0  0  0  0  0  0  0  0  0
  185.9130  177.8780  143.4260 C   0  0  0  0  0  0  0  0  0  0  0  0
  189.0550  178.0610  145.6440 O   0  0  0  0  0  0  0  0  0  0  0  0
  188.3760  176.8620  143.6310 C   0  0  2  0  0  3  0  0  0  0  0  0
  189.2330  177.7500  144.4370 C   0  0  0  0  0  0  0  0  0  0  0  0
  191.2580  178.9150  143.9760 O   0  0  0  0  0  0  0  0  0  0  0  0
  190.1560  177.5300  142.3070 C   0  0  0  0  0  2  0  0  0  0  0  0
  188.9590  176.7590  142.3360 O   0  0  0  0  0  0  0  0  0  0  0  0
  190.3160  178.1560  143.6280 C   0  0  0  0  0  0  0  0  0  0  0  0
  182.4120  176.9830  140.6900 C   0  0  0  0  0  2  0  0  0  0  0  0
  182.5020  175.9520  139.1980 S   0  0  0  0  0  0  0  0  0  0  0  0
  180.8320  175.3010  139.4710 C   0  0  0  0  0  2  0  0  0  0  0  0
  179.8270  176.4280  139.3560 C   0  0  0  0  0  1  0  0  0  0  0  0
  1 20  1  0  0  0  0
  2  6  1  1  0  0  0
  2  4  1  0  0  0  0
  2  5  1  0  0  0  0
  3 31  1  6  0  0  0
  3  1  1  0  0  0  0
  4 17  1  1  0  0  0
  4  3  1  0  0  0  0
  5  1  1  1  0  0  0
  7 13  2  0  0  0  0
  8 11  2  0  0  0  0
  9 13  1  6  0  0  0
  9 12  1  0  0  0  0
  9  5  1  0  0  0  0
 10 14  1  0  0  0  0
 10  8  1  0  0  0  0
 11 13  1  0  0  0  0
 11 16  1  0  0  0  0
 14  7  1  0  0  0  0
 15 14  2  0  0  0  0
 16 12  2  0  0  0  0
 18 17  1  0  0  0  0
 19 18  1  0  0  0  0
 20 21  1  0  0  0  0
 21 23  1  0  0  0  0
 23 22  3  0  0  0  0
 25 22  1  6  0  0  0
 25 26  1  0  0  0  0
 26 24  2  0  0  0  0
 28 29  1  0  0  0  0
 28 30  1  0  0  0  0
 29 25  1  0  0  0  0
 30 27  2  0  0  0  0
 30 26  1  0  0  0  0
 32 33  1  0  0  0  0
 32 31  1  0  0  0  0
 34 33  1  0  0  0  0
M  END
>  <MODEL>
9

>  <REMARK>
 VINA RESULT:      -5.9      3.130      7.719
  Name = 
  10 active torsions:
  status: ('A' for Active; 'I' for Inactive)
    1  A    between atoms: C_3  and  C_13
    2  A    between atoms: C_4  and  C_31
    3  A    between atoms: N_5  and  C_18
    4  A    between atoms: C_7  and  O_8
    5  A    between atoms: O_8  and  C_28
    6  A    between atoms: C_12  and  S_16
    7  A    between atoms: S_16  and  C_23
    8  A    between atoms: C_17  and  C_29
    9  A    between atoms: C_18  and  C_29
   10  A    between atoms: C_23  and  C_26
                            x       y       z     vdW  Elec       q    Type
                         _______ _______ _______ _____ _____    ______ ____

>  <TORSDO>
F 10

$$$$
