=
 OpenBabel11052414523D

 55 60  0  0  1  0  0  0  0  0999 V2000
  180.8010  178.3430  141.2880 O   0  0  0  0  0  0  0  0  0  0  0  0
  185.4000  176.9440  137.7460 C   0  0  0  0  0  2  0  0  0  0  0  0
  183.1020  178.6280  136.1690 S   0  0  0  0  0  1  0  0  0  0  0  0
  182.0890  178.6830  138.7800 C   0  0  0  0  0  2  0  0  0  0  0  0
  182.8420  179.6150  144.1310 C   0  0  0  0  0  3  0  0  0  0  0  0
  184.2100  178.4690  142.4650 C   0  0  0  0  0  0  0  0  0  0  0  0
  180.6800  177.0460  140.7710 C   0  0  0  0  0  2  0  0  0  0  0  0
  183.1330  178.0690  141.7840 C   0  0  0  0  0  3  0  0  0  0  0  0
  186.3660  178.0290  138.2260 C   0  0  0  0  0  2  0  0  0  0  0  0
  183.9890  177.0920  138.3180 C   0  0  0  0  0  2  0  0  0  0  0  0
  183.3620  178.4400  137.9680 C   0  0  1  0  0  3  0  0  0  0  0  0
  181.6610  179.5190  143.1960 C   0  0  0  0  0  2  0  0  0  0  0  0
  186.6860  177.8890  139.7080 C   0  0  2  0  0  3  0  0  0  0  0  0
  181.7360  178.2540  142.3300 C   0  0  1  0  0  3  0  0  0  0  0  0
  180.8780  177.8850  138.2820 C   0  0  1  0  0  3  0  0  0  0  0  0
  180.1130  177.0540  139.3490 C   0  0  1  0  0  3  0  0  0  0  0  0
  185.7160  178.7310  140.5250 C   0  0  0  0  0  2  0  0  0  0  0  0
  185.5720  178.1710  141.9330 C   0  0  0  0  0  2  0  0  0  0  0  0
  184.0430  179.1570  143.7610 C   0  0  0  0  0  3  0  0  0  0  0  0
  179.8750  175.6030  138.9090 C   0  0  1  0  0  0  0  0  0  0  0  0
  180.6610  175.0520  137.7720 C   0  0  2  0  0  3  0  0  0  0  0  0
  179.3360  174.7080  139.8410 O   0  0  0  0  0  1  0  0  0  0  0  0
  179.3070  175.4410  137.6320 O   0  0  0  0  0  0  0  0  0  0  0  0
  180.7510  173.5320  137.7890 C   0  0  0  0  0  2  0  0  0  0  0  0
  181.3920  173.0310  136.5060 C   0  0  0  0  0  2  0  0  0  0  0  0
  181.3830  171.5120  136.4630 C   0  0  0  0  0  2  0  0  0  0  0  0
  182.4760  171.0090  135.5300 C   0  0  1  0  0  3  0  0  0  0  0  0
  184.4480  171.3560  135.9350 C   0  0  0  0  0  2  0  0  0  0  0  0
  183.4170  172.1300  135.1510 C   0  0  0  0  0  2  0  0  0  0  0  0
  183.4990  170.3090  136.2940 N   0  0  0  0  0  2  0  0  0  0  0  0
  188.1280  178.3040  139.9810 C   0  0  0  0  0  2  0  0  0  0  0  0
  188.8240  177.2880  140.6460 O   0  0  0  0  0  0  0  0  0  0  0  0
  190.8360  178.8440  143.9200 C   0  0  1  0  0  3  0  0  0  0  0  0
  189.9260  176.0760  144.2070 C   0  0  0  0  0  2  0  0  0  0  0  0
  190.6730  177.0100  142.1710 C   0  0  1  0  0  3  0  0  0  0  0  0
  187.5320  176.7830  144.2810 C   0  0  0  0  0  1  0  0  0  0  0  0
  188.9600  177.2090  144.6200 C   0  0  2  0  0  0  0  0  0  0  0  0
  189.6090  177.9540  141.5910 C   0  0  2  0  0  3  0  0  0  0  0  0
  191.6260  177.8490  143.0510 C   0  0  0  0  0  2  0  0  0  0  0  0
  191.0600  180.1440  143.4640 O   0  0  0  0  0  1  0  0  0  0  0  0
  188.7740  178.5700  142.5650 O   0  0  0  0  0  0  0  0  0  0  0  0
  190.0380  175.9040  142.8070 O   0  0  0  0  0  0  0  0  0  0  0  0
  189.3200  178.5300  143.8820 C   0  0  2  0  0  3  0  0  0  0  0  0
  190.2260  176.6270  146.7800 C   0  0  0  0  0  1  0  0  0  0  0  0
  189.0920  177.4350  146.1450 C   0  0  2  0  0  3  0  0  0  0  0  0
  187.7640  177.2730  146.9070 C   0  0  1  0  0  3  0  0  0  0  0  0
  187.9630  176.7990  148.2100 O   0  0  0  0  0  1  0  0  0  0  0  0
  186.9440  178.5610  146.9140 C   0  0  0  0  0  2  0  0  0  0  0  0
  185.5770  178.2840  146.9520 O   0  0  0  0  0  1  0  0  0  0  0  0
  179.9510  178.8100  137.4820 C   0  0  1  0  0  3  0  0  0  0  0  0
  179.2940  178.1080  136.3290 C   0  0  0  0  0  3  0  0  0  0  0  0
  179.8970  177.9060  135.2850 O   0  0  0  0  0  0  0  0  0  0  0  0
  178.9420  179.5410  138.3710 C   0  0  0  0  0  2  0  0  0  0  0  0
  179.4390  180.9300  138.7400 C   0  0  0  0  0  2  0  0  0  0  0  0
  178.9310  181.9620  137.7520 C   0  0  0  0  0  1  0  0  0  0  0  0
  1 14  1  0  0  0  0
  2  9  1  0  0  0  0
  2 10  1  0  0  0  0
  6 19  1  0  0  0  0
  7  1  1  0  0  0  0
  8  6  2  0  0  0  0
  9 13  1  0  0  0  0
 11  3  1  6  0  0  0
 11 10  1  0  0  0  0
 11  4  1  0  0  0  0
 12  5  1  0  0  0  0
 13 31  1  6  0  0  0
 13 17  1  0  0  0  0
 14  8  1  6  0  0  0
 14 12  1  0  0  0  0
 15 50  1  1  0  0  0
 15  4  1  0  0  0  0
 15 16  1  0  0  0  0
 16  7  1  1  0  0  0
 17 18  1  0  0  0  0
 18  6  1  0  0  0  0
 19  5  2  0  0  0  0
 20 16  1  0  0  0  0
 20 22  1  1  0  0  0
 21 24  1  1  0  0  0
 21 20  1  0  0  0  0
 23 21  1  0  0  0  0
 23 20  1  0  0  0  0
 25 24  1  0  0  0  0
 26 25  1  0  0  0  0
 27 30  1  0  0  0  0
 27 26  1  1  0  0  0
 28 30  1  0  0  0  0
 29 27  1  0  0  0  0
 29 28  1  0  0  0  0
 31 32  1  0  0  0  0
 33 40  1  6  0  0  0
 34 37  1  0  0  0  0
 35 42  1  0  0  0  0
 35 39  1  1  0  0  0
 37 36  1  6  0  0  0
 37 45  1  0  0  0  0
 38 32  1  6  0  0  0
 38 35  1  0  0  0  0
 38 41  1  0  0  0  0
 39 33  1  0  0  0  0
 42 34  1  0  0  0  0
 43 41  1  6  0  0  0
 43 33  1  0  0  0  0
 43 37  1  0  0  0  0
 45 44  1  1  0  0  0
 45 46  1  0  0  0  0
 46 48  1  0  0  0  0
 46 47  1  1  0  0  0
 48 49  1  0  0  0  0
 50 51  1  6  0  0  0
 50 53  1  0  0  0  0
 52 51  2  0  0  0  0
 53 54  1  0  0  0  0
 55 54  1  0  0  0  0
M  END
>  <MODEL>
1

>  <REMARK>
 VINA RESULT:      -5.7      0.000      0.000
  Name = 
  15 active torsions:
  status: ('A' for Active; 'I' for Inactive)
    1  A    between atoms: C_8  and  O_22
    2  A    between atoms: C_8  and  C_43
    3  A    between atoms: C_9  and  C_15
    4  A    between atoms: C_9  and  C_26
    5  A    between atoms: C_10  and  C_32
    6  A    between atoms: C_11  and  C_29
    7  A    between atoms: C_13  and  C_34
    8  A    between atoms: C_13  and  C_48
    9  A    between atoms: C_14  and  C_38
   10  A    between atoms: C_16  and  C_26
   11  A    between atoms: C_20  and  O_22
   12  A    between atoms: C_26  and  C_45
   13  A    between atoms: C_29  and  C_38
   14  A    between atoms: C_32  and  C_48
   15  A    between atoms: C_33  and  C_49
                            x       y       z     vdW  Elec       q    Type
                         _______ _______ _______ _____ _____    ______ ____

>  <TORSDO>
F 15

$$$$
=
 OpenBabel11052414523D

 55 60  0  0  1  0  0  0  0  0999 V2000
  180.4380  178.1530  141.0120 O   0  0  0  0  0  0  0  0  0  0  0  0
  185.2420  176.9950  137.6610 C   0  0  0  0  0  2  0  0  0  0  0  0
  182.9150  178.5330  135.9820 S   0  0  0  0  0  1  0  0  0  0  0  0
  181.8000  178.5480  138.5520 C   0  0  0  0  0  2  0  0  0  0  0  0
  182.2920  179.5600  143.9180 C   0  0  0  0  0  3  0  0  0  0  0  0
  183.7870  178.4820  142.3170 C   0  0  0  0  0  0  0  0  0  0  0  0
  180.4120  176.8470  140.5030 C   0  0  0  0  0  2  0  0  0  0  0  0
  182.7610  178.0160  141.5990 C   0  0  0  0  0  3  0  0  0  0  0  0
  186.1250  178.1370  138.1670 C   0  0  0  0  0  2  0  0  0  0  0  0
  183.8040  177.0660  138.1770 C   0  0  0  0  0  2  0  0  0  0  0  0
  183.1150  178.3730  137.7910 C   0  0  1  0  0  3  0  0  0  0  0  0
  181.1560  179.3890  142.9410 C   0  0  0  0  0  2  0  0  0  0  0  0
  186.3950  178.0260  139.6610 C   0  0  2  0  0  3  0  0  0  0  0  0
  181.3360  178.1250  142.0900 C   0  0  1  0  0  3  0  0  0  0  0  0
  180.6570  177.6790  138.0150 C   0  0  1  0  0  3  0  0  0  0  0  0
  179.9000  176.8120  139.0600 C   0  0  1  0  0  3  0  0  0  0  0  0
  185.3480  178.8170  140.4340 C   0  0  0  0  0  2  0  0  0  0  0  0
  185.1830  178.2590  141.8400 C   0  0  0  0  0  2  0  0  0  0  0  0
  183.5310  179.1690  143.5990 C   0  0  0  0  0  3  0  0  0  0  0  0
  179.7630  175.3470  138.6250 C   0  0  1  0  0  0  0  0  0  0  0  0
  180.4300  174.8970  137.3740 C   0  0  2  0  0  3  0  0  0  0  0  0
  179.4680  174.3900  139.6040 O   0  0  0  0  0  1  0  0  0  0  0  0
  179.0350  175.1320  137.4400 O   0  0  0  0  0  0  0  0  0  0  0  0
  180.6900  173.3970  137.3420 C   0  0  0  0  0  2  0  0  0  0  0  0
  182.0010  173.1080  136.6320 C   0  0  0  0  0  2  0  0  0  0  0  0
  183.1800  173.5150  137.5010 C   0  0  0  0  0  2  0  0  0  0  0  0
  184.4190  172.7260  137.1050 C   0  0  1  0  0  3  0  0  0  0  0  0
  186.2630  173.6040  137.0830 C   0  0  0  0  0  2  0  0  0  0  0  0
  185.1960  173.4480  136.0280 C   0  0  0  0  0  2  0  0  0  0  0  0
  185.4690  172.9190  138.0950 N   0  0  0  0  0  2  0  0  0  0  0  0
  187.8000  178.5250  139.9860 C   0  0  0  0  0  2  0  0  0  0  0  0
  187.8890  178.9400  141.3190 O   0  0  0  0  0  0  0  0  0  0  0  0
  191.0730  177.1230  143.2530 C   0  0  1  0  0  3  0  0  0  0  0  0
  188.4310  176.0400  143.8990 C   0  0  0  0  0  2  0  0  0  0  0  0
  189.0310  176.8630  141.7680 C   0  0  1  0  0  3  0  0  0  0  0  0
  187.7840  178.1190  145.1200 C   0  0  0  0  0  1  0  0  0  0  0  0
  188.9610  177.2210  144.7410 C   0  0  2  0  0  0  0  0  0  0  0  0
  189.0900  178.3970  141.7830 C   0  0  2  0  0  3  0  0  0  0  0  0
  190.4420  176.3270  142.0980 C   0  0  0  0  0  2  0  0  0  0  0  0
  192.1230  177.9030  142.7660 O   0  0  0  0  0  1  0  0  0  0  0  0
  189.4190  178.9620  143.0470 O   0  0  0  0  0  0  0  0  0  0  0  0
  187.9740  176.4160  142.6140 O   0  0  0  0  0  0  0  0  0  0  0  0
  190.0220  178.0290  143.9410 C   0  0  2  0  0  3  0  0  0  0  0  0
  188.8610  177.0070  147.3010 C   0  0  0  0  0  1  0  0  0  0  0  0
  189.6230  176.6550  146.0210 C   0  0  2  0  0  3  0  0  0  0  0  0
  191.1250  176.9750  146.1280 C   0  0  1  0  0  3  0  0  0  0  0  0
  191.3880  177.9090  147.1400 O   0  0  0  0  0  1  0  0  0  0  0  0
  191.9690  175.7170  146.3130 C   0  0  0  0  0  2  0  0  0  0  0  0
  191.8470  175.2180  147.6100 O   0  0  0  0  0  1  0  0  0  0  0  0
  179.7100  178.5430  137.1730 C   0  0  1  0  0  3  0  0  0  0  0  0
  179.2080  179.7440  137.9220 C   0  0  0  0  0  3  0  0  0  0  0  0
  179.5430  180.8750  137.6010 O   0  0  0  0  0  0  0  0  0  0  0  0
  180.3060  178.9130  135.8120 C   0  0  0  0  0  2  0  0  0  0  0  0
  179.3390  178.5950  134.6830 C   0  0  0  0  0  2  0  0  0  0  0  0
  179.0670  177.1050  134.6140 C   0  0  0  0  0  1  0  0  0  0  0  0
  1 14  1  0  0  0  0
  2  9  1  0  0  0  0
  2 10  1  0  0  0  0
  6 19  1  0  0  0  0
  7  1  1  0  0  0  0
  8  6  2  0  0  0  0
  9 13  1  0  0  0  0
 11  3  1  6  0  0  0
 11 10  1  0  0  0  0
 11  4  1  0  0  0  0
 12  5  1  0  0  0  0
 13 31  1  6  0  0  0
 13 17  1  0  0  0  0
 14  8  1  6  0  0  0
 14 12  1  0  0  0  0
 15 50  1  1  0  0  0
 15  4  1  0  0  0  0
 15 16  1  0  0  0  0
 16  7  1  1  0  0  0
 17 18  1  0  0  0  0
 18  6  1  0  0  0  0
 19  5  2  0  0  0  0
 20 16  1  0  0  0  0
 20 22  1  1  0  0  0
 21 24  1  1  0  0  0
 21 23  1  0  0  0  0
 21 20  1  0  0  0  0
 23 20  1  0  0  0  0
 25 24  1  0  0  0  0
 25 26  1  0  0  0  0
 27 26  1  1  0  0  0
 27 30  1  0  0  0  0
 28 30  1  0  0  0  0
 29 28  1  0  0  0  0
 29 27  1  0  0  0  0
 31 32  1  0  0  0  0
 33 40  1  6  0  0  0
 33 43  1  0  0  0  0
 34 37  1  0  0  0  0
 35 38  1  0  0  0  0
 35 39  1  1  0  0  0
 35 42  1  0  0  0  0
 37 36  1  1  0  0  0
 37 45  1  0  0  0  0
 38 32  1  1  0  0  0
 38 41  1  0  0  0  0
 39 33  1  0  0  0  0
 42 34  1  0  0  0  0
 43 41  1  6  0  0  0
 43 37  1  0  0  0  0
 45 46  1  0  0  0  0
 45 44  1  1  0  0  0
 46 48  1  0  0  0  0
 46 47  1  1  0  0  0
 48 49  1  0  0  0  0
 50 53  1  6  0  0  0
 50 51  1  0  0  0  0
 52 51  2  0  0  0  0
 54 53  1  0  0  0  0
 55 54  1  0  0  0  0
M  END
>  <MODEL>
2

>  <REMARK>
 VINA RESULT:      -4.9      1.531      2.260
  Name = 
  15 active torsions:
  status: ('A' for Active; 'I' for Inactive)
    1  A    between atoms: C_8  and  O_22
    2  A    between atoms: C_8  and  C_43
    3  A    between atoms: C_9  and  C_15
    4  A    between atoms: C_9  and  C_26
    5  A    between atoms: C_10  and  C_32
    6  A    between atoms: C_11  and  C_29
    7  A    between atoms: C_13  and  C_34
    8  A    between atoms: C_13  and  C_48
    9  A    between atoms: C_14  and  C_38
   10  A    between atoms: C_16  and  C_26
   11  A    between atoms: C_20  and  O_22
   12  A    between atoms: C_26  and  C_45
   13  A    between atoms: C_29  and  C_38
   14  A    between atoms: C_32  and  C_48
   15  A    between atoms: C_33  and  C_49
                            x       y       z     vdW  Elec       q    Type
                         _______ _______ _______ _____ _____    ______ ____

>  <TORSDO>
F 15

$$$$
=
 OpenBabel11052414523D

 55 60  0  0  1  0  0  0  0  0999 V2000
  191.4760  175.8320  139.2660 O   0  0  0  0  0  0  0  0  0  0  0  0
  187.8760  176.7700  134.5950 C   0  0  0  0  0  2  0  0  0  0  0  0
  189.1330  173.7650  134.5940 S   0  0  0  0  0  1  0  0  0  0  0  0
  190.0950  174.7330  137.0410 C   0  0  0  0  0  2  0  0  0  0  0  0
  189.1700  177.2070  141.8460 C   0  0  0  0  0  3  0  0  0  0  0  0
  188.4060  177.7030  139.5800 C   0  0  0  0  0  0  0  0  0  0  0  0
  192.1460  176.4760  138.2170 C   0  0  0  0  0  2  0  0  0  0  0  0
  189.5270  177.2150  139.0430 C   0  0  0  0  0  3  0  0  0  0  0  0
  186.5430  176.5940  135.3240 C   0  0  0  0  0  2  0  0  0  0  0  0
  189.0900  176.4150  135.4560 C   0  0  0  0  0  2  0  0  0  0  0  0
  189.0400  174.9750  135.9610 C   0  0  1  0  0  3  0  0  0  0  0  0
  190.2410  176.3160  141.2670 C   0  0  0  0  0  2  0  0  0  0  0  0
  186.3650  177.6210  136.4350 C   0  0  2  0  0  3  0  0  0  0  0  0
  190.7100  176.8240  139.8970 C   0  0  1  0  0  3  0  0  0  0  0  0
  191.5180  174.5880  136.4900 C   0  0  1  0  0  3  0  0  0  0  0  0
  192.6070  175.4840  137.1450 C   0  0  1  0  0  3  0  0  0  0  0  0
  186.8820  177.0520  137.7490 C   0  0  0  0  0  2  0  0  0  0  0  0
  187.3030  178.1720  138.6900 C   0  0  0  0  0  2  0  0  0  0  0  0
  188.2880  177.8200  141.0480 C   0  0  0  0  0  3  0  0  0  0  0  0
  193.4520  176.2390  136.1110 C   0  0  1  0  0  0  0  0  0  0  0  0
  194.9330  176.1140  136.1550 C   0  0  2  0  0  3  0  0  0  0  0  0
  192.8500  176.5980  134.8980 O   0  0  0  0  0  1  0  0  0  0  0  0
  194.2620  177.2690  136.6240 O   0  0  0  0  0  0  0  0  0  0  0  0
  195.6000  176.4220  134.8210 C   0  0  0  0  0  2  0  0  0  0  0  0
  197.0530  175.9810  134.8460 C   0  0  0  0  0  2  0  0  0  0  0  0
  197.1510  174.4650  134.7930 C   0  0  0  0  0  2  0  0  0  0  0  0
  198.4550  174.0030  135.4280 C   0  0  1  0  0  3  0  0  0  0  0  0
  198.4530  172.8040  137.0820 C   0  0  0  0  0  2  0  0  0  0  0  0
  198.4680  174.3020  136.9100 C   0  0  0  0  0  2  0  0  0  0  0  0
  198.4200  172.5630  135.6440 N   0  0  0  0  0  2  0  0  0  0  0  0
  184.8980  178.0210  136.5570 C   0  0  0  0  0  2  0  0  0  0  0  0
  184.0850  177.1920  135.7770 O   0  0  0  0  0  0  0  0  0  0  0  0
  181.2260  175.9020  138.4880 C   0  0  1  0  0  3  0  0  0  0  0  0
  180.3370  177.9720  136.6180 C   0  0  0  0  0  2  0  0  0  0  0  0
  181.8740  176.2680  136.0600 C   0  0  1  0  0  3  0  0  0  0  0  0
  181.7980  179.6890  137.6920 C   0  0  0  0  0  1  0  0  0  0  0  0
  180.9870  178.4190  137.9460 C   0  0  2  0  0  0  0  0  0  0  0  0
  183.2450  176.5530  136.6920 C   0  0  2  0  0  3  0  0  0  0  0  0
  181.0670  175.3920  137.0450 C   0  0  0  0  0  2  0  0  0  0  0  0
  181.9900  174.9950  139.2240 O   0  0  0  0  0  1  0  0  0  0  0  0
  183.1910  177.3020  137.9020 O   0  0  0  0  0  0  0  0  0  0  0  0
  181.2650  177.4940  135.6630 O   0  0  0  0  0  0  0  0  0  0  0  0
  181.9020  177.2960  138.5110 C   0  0  2  0  0  3  0  0  0  0  0  0
  179.0330  179.9480  138.6170 C   0  0  0  0  0  1  0  0  0  0  0  0
  179.8620  178.7110  138.9690 C   0  0  2  0  0  3  0  0  0  0  0  0
  180.3500  178.7320  140.4290 C   0  0  1  0  0  3  0  0  0  0  0  0
  180.0990  179.9650  141.0460 O   0  0  0  0  0  1  0  0  0  0  0  0
  179.7660  177.5830  141.2470 C   0  0  0  0  0  2  0  0  0  0  0  0
  179.3600  178.0220  142.5070 O   0  0  0  0  0  1  0  0  0  0  0  0
  191.9110  173.1050  136.4740 C   0  0  1  0  0  3  0  0  0  0  0  0
  191.7720  172.4890  135.1110 C   0  0  0  0  0  3  0  0  0  0  0  0
  191.3210  171.3610  134.9700 O   0  0  0  0  0  0  0  0  0  0  0  0
  193.2900  172.8550  137.0880 C   0  0  0  0  0  2  0  0  0  0  0  0
  194.3390  172.6240  136.0120 C   0  0  0  0  0  2  0  0  0  0  0  0
  194.9750  171.2570  136.1680 C   0  0  0  0  0  1  0  0  0  0  0  0
  1 14  1  0  0  0  0
  2  9  1  0  0  0  0
  2 10  1  0  0  0  0
  6 19  1  0  0  0  0
  7  1  1  0  0  0  0
  8  6  2  0  0  0  0
  9 13  1  0  0  0  0
 10 11  1  0  0  0  0
 11  3  1  6  0  0  0
 11  4  1  0  0  0  0
 12  5  1  0  0  0  0
 13 31  1  1  0  0  0
 13 17  1  0  0  0  0
 14  8  1  6  0  0  0
 14 12  1  0  0  0  0
 15 50  1  1  0  0  0
 15  4  1  0  0  0  0
 15 16  1  0  0  0  0
 16  7  1  1  0  0  0
 17 18  1  0  0  0  0
 18  6  1  0  0  0  0
 19  5  2  0  0  0  0
 20 22  1  6  0  0  0
 20 21  1  0  0  0  0
 20 23  1  0  0  0  0
 20 16  1  0  0  0  0
 21 24  1  6  0  0  0
 21 23  1  0  0  0  0
 24 25  1  0  0  0  0
 26 25  1  0  0  0  0
 27 26  1  1  0  0  0
 27 30  1  0  0  0  0
 27 29  1  0  0  0  0
 29 28  1  0  0  0  0
 30 28  1  0  0  0  0
 32 31  1  0  0  0  0
 33 43  1  0  0  0  0
 33 40  1  1  0  0  0
 34 37  1  0  0  0  0
 35 38  1  0  0  0  0
 35 39  1  1  0  0  0
 37 36  1  6  0  0  0
 37 43  1  0  0  0  0
 37 45  1  0  0  0  0
 38 32  1  6  0  0  0
 38 41  1  0  0  0  0
 39 33  1  0  0  0  0
 42 35  1  0  0  0  0
 42 34  1  0  0  0  0
 43 41  1  6  0  0  0
 45 44  1  6  0  0  0
 45 46  1  0  0  0  0
 46 47  1  1  0  0  0
 46 48  1  0  0  0  0
 48 49  1  0  0  0  0
 50 51  1  6  0  0  0
 50 53  1  0  0  0  0
 52 51  2  0  0  0  0
 54 55  1  0  0  0  0
 54 53  1  0  0  0  0
M  END
>  <MODEL>
3

>  <REMARK>
 VINA RESULT:      -4.7      5.637     11.397
  Name = 
  15 active torsions:
  status: ('A' for Active; 'I' for Inactive)
    1  A    between atoms: C_8  and  O_22
    2  A    between atoms: C_8  and  C_43
    3  A    between atoms: C_9  and  C_15
    4  A    between atoms: C_9  and  C_26
    5  A    between atoms: C_10  and  C_32
    6  A    between atoms: C_11  and  C_29
    7  A    between atoms: C_13  and  C_34
    8  A    between atoms: C_13  and  C_48
    9  A    between atoms: C_14  and  C_38
   10  A    between atoms: C_16  and  C_26
   11  A    between atoms: C_20  and  O_22
   12  A    between atoms: C_26  and  C_45
   13  A    between atoms: C_29  and  C_38
   14  A    between atoms: C_32  and  C_48
   15  A    between atoms: C_33  and  C_49
                            x       y       z     vdW  Elec       q    Type
                         _______ _______ _______ _____ _____    ______ ____

>  <TORSDO>
F 15

$$$$
=
 OpenBabel11052414523D

 55 60  0  0  1  0  0  0  0  0999 V2000
  191.0200  175.6750  139.8690 O   0  0  0  0  0  0  0  0  0  0  0  0
  186.9920  178.1180  136.1990 C   0  0  0  0  0  2  0  0  0  0  0  0
  187.5300  174.9790  135.5190 S   0  0  0  0  0  1  0  0  0  0  0  0
  189.0780  175.2830  137.8340 C   0  0  0  0  0  2  0  0  0  0  0  0
  189.5410  176.9770  143.0290 C   0  0  0  0  0  3  0  0  0  0  0  0
  188.5400  178.0130  141.0570 C   0  0  0  0  0  0  0  0  0  0  0  0
  191.6320  176.3580  138.8090 C   0  0  0  0  0  2  0  0  0  0  0  0
  189.4180  177.4240  140.2410 C   0  0  0  0  0  3  0  0  0  0  0  0
  185.7940  178.0730  137.1500 C   0  0  0  0  0  2  0  0  0  0  0  0
  188.2230  177.3870  136.7390 C   0  0  0  0  0  2  0  0  0  0  0  0
  187.9380  175.9160  137.0350 C   0  0  1  0  0  3  0  0  0  0  0  0
  190.2740  176.0170  142.1260 C   0  0  0  0  0  2  0  0  0  0  0  0
  186.0370  178.8960  138.4070 C   0  0  2  0  0  3  0  0  0  0  0  0
  190.6110  176.6650  140.7770 C   0  0  1  0  0  3  0  0  0  0  0  0
  190.3210  174.9700  136.9940 C   0  0  1  0  0  3  0  0  0  0  0  0
  191.6750  175.5070  137.5370 C   0  0  1  0  0  3  0  0  0  0  0  0
  186.6260  178.0100  139.4960 C   0  0  0  0  0  2  0  0  0  0  0  0
  187.4370  178.8380  140.4830 C   0  0  0  0  0  2  0  0  0  0  0  0
  188.6970  177.8830  142.5200 C   0  0  0  0  0  3  0  0  0  0  0  0
  192.4830  176.2590  136.4720 C   0  0  1  0  0  0  0  0  0  0  0  0
  193.9060  175.8920  136.2480 C   0  0  2  0  0  3  0  0  0  0  0  0
  191.7850  176.8860  135.4310 O   0  0  0  0  0  1  0  0  0  0  0  0
  193.5330  177.0590  136.9590 O   0  0  0  0  0  0  0  0  0  0  0  0
  194.4140  176.2830  134.8660 C   0  0  0  0  0  2  0  0  0  0  0  0
  195.9040  176.5750  134.9190 C   0  0  0  0  0  2  0  0  0  0  0  0
  196.6950  175.2870  135.0730 C   0  0  0  0  0  2  0  0  0  0  0  0
  197.1380  175.1160  136.5190 C   0  0  1  0  0  3  0  0  0  0  0  0
  198.5070  173.6910  137.0390 C   0  0  0  0  0  2  0  0  0  0  0  0
  197.0010  173.6750  136.9570 C   0  0  0  0  0  2  0  0  0  0  0  0
  198.5920  175.0760  136.5930 N   0  0  0  0  0  2  0  0  0  0  0  0
  184.7380  179.5420  138.8780 C   0  0  0  0  0  2  0  0  0  0  0  0
  183.6640  179.1550  138.0680 O   0  0  0  0  0  0  0  0  0  0  0  0
  180.2820  178.5980  140.4000 C   0  0  1  0  0  3  0  0  0  0  0  0
  181.9030  176.2020  139.9500 C   0  0  0  0  0  2  0  0  0  0  0  0
  182.8020  178.3740  140.1820 C   0  0  1  0  0  3  0  0  0  0  0  0
  181.2780  176.1300  137.5340 C   0  0  0  0  0  1  0  0  0  0  0  0
  180.7960  176.5370  138.9260 C   0  0  2  0  0  0  0  0  0  0  0  0
  182.5490  179.1980  138.9100 C   0  0  2  0  0  3  0  0  0  0  0  0
  181.6240  178.6210  141.1520 C   0  0  0  0  0  2  0  0  0  0  0  0
  179.7480  179.8870  140.3550 O   0  0  0  0  0  1  0  0  0  0  0  0
  181.3830  178.8210  138.1870 O   0  0  0  0  0  0  0  0  0  0  0  0
  183.0550  177.0160  139.8310 O   0  0  0  0  0  0  0  0  0  0  0  0
  180.4620  178.0560  138.9600 C   0  0  2  0  0  3  0  0  0  0  0  0
  179.1560  175.8400  140.7790 C   0  0  0  0  0  1  0  0  0  0  0  0
  179.5250  175.7360  139.2970 C   0  0  2  0  0  3  0  0  0  0  0  0
  179.5540  174.2780  138.8050 C   0  0  1  0  0  3  0  0  0  0  0  0
  178.9310  173.4080  139.7100 O   0  0  0  0  0  1  0  0  0  0  0  0
  178.9570  174.1300  137.4080 C   0  0  0  0  0  2  0  0  0  0  0  0
  179.7650  173.3320  136.5990 O   0  0  0  0  0  1  0  0  0  0  0  0
  190.3650  173.4680  136.6880 C   0  0  1  0  0  3  0  0  0  0  0  0
  189.0380  172.7970  136.9080 C   0  0  0  0  0  3  0  0  0  0  0  0
  188.6370  171.9260  136.1510 O   0  0  0  0  0  0  0  0  0  0  0  0
  190.9480  173.1650  135.3060 C   0  0  0  0  0  2  0  0  0  0  0  0
  192.0000  172.0710  135.3790 C   0  0  0  0  0  2  0  0  0  0  0  0
  193.3710  172.6210  135.0380 C   0  0  0  0  0  1  0  0  0  0  0  0
  1 14  1  0  0  0  0
  2 10  1  0  0  0  0
  2  9  1  0  0  0  0
  6 19  1  0  0  0  0
  7  1  1  0  0  0  0
  8  6  2  0  0  0  0
  9 13  1  0  0  0  0
 10 11  1  0  0  0  0
 11  3  1  6  0  0  0
 11  4  1  0  0  0  0
 12  5  1  0  0  0  0
 13 31  1  1  0  0  0
 13 17  1  0  0  0  0
 14  8  1  6  0  0  0
 14 12  1  0  0  0  0
 15 50  1  1  0  0  0
 15 16  1  0  0  0  0
 15  4  1  0  0  0  0
 16  7  1  1  0  0  0
 17 18  1  0  0  0  0
 18  6  1  0  0  0  0
 19  5  2  0  0  0  0
 20 22  1  6  0  0  0
 20 23  1  0  0  0  0
 20 16  1  0  0  0  0
 21 24  1  6  0  0  0
 21 20  1  0  0  0  0
 21 23  1  0  0  0  0
 24 25  1  0  0  0  0
 25 26  1  0  0  0  0
 27 26  1  6  0  0  0
 27 30  1  0  0  0  0
 27 29  1  0  0  0  0
 29 28  1  0  0  0  0
 30 28  1  0  0  0  0
 32 31  1  0  0  0  0
 33 40  1  6  0  0  0
 33 39  1  0  0  0  0
 35 39  1  1  0  0  0
 37 36  1  6  0  0  0
 37 43  1  0  0  0  0
 37 45  1  0  0  0  0
 37 34  1  0  0  0  0
 38 32  1  6  0  0  0
 38 35  1  0  0  0  0
 41 38  1  0  0  0  0
 42 34  1  0  0  0  0
 42 35  1  0  0  0  0
 43 41  1  1  0  0  0
 43 33  1  0  0  0  0
 45 44  1  1  0  0  0
 46 45  1  0  0  0  0
 46 47  1  1  0  0  0
 48 46  1  0  0  0  0
 49 48  1  0  0  0  0
 50 53  1  6  0  0  0
 50 51  1  0  0  0  0
 52 51  2  0  0  0  0
 53 54  1  0  0  0  0
 55 54  1  0  0  0  0
M  END
>  <MODEL>
4

>  <REMARK>
 VINA RESULT:      -3.9      5.076     10.744
  Name = 
  15 active torsions:
  status: ('A' for Active; 'I' for Inactive)
    1  A    between atoms: C_8  and  O_22
    2  A    between atoms: C_8  and  C_43
    3  A    between atoms: C_9  and  C_15
    4  A    between atoms: C_9  and  C_26
    5  A    between atoms: C_10  and  C_32
    6  A    between atoms: C_11  and  C_29
    7  A    between atoms: C_13  and  C_34
    8  A    between atoms: C_13  and  C_48
    9  A    between atoms: C_14  and  C_38
   10  A    between atoms: C_16  and  C_26
   11  A    between atoms: C_20  and  O_22
   12  A    between atoms: C_26  and  C_45
   13  A    between atoms: C_29  and  C_38
   14  A    between atoms: C_32  and  C_48
   15  A    between atoms: C_33  and  C_49
                            x       y       z     vdW  Elec       q    Type
                         _______ _______ _______ _____ _____    ______ ____

>  <TORSDO>
F 15

$$$$
=
 OpenBabel11052414523D

 55 60  0  0  1  0  0  0  0  0999 V2000
  183.6890  178.1560  139.9310 O   0  0  0  0  0  0  0  0  0  0  0  0
  187.5460  175.6710  136.1100 C   0  0  0  0  0  2  0  0  0  0  0  0
  185.3280  177.5120  134.5940 S   0  0  0  0  0  1  0  0  0  0  0  0
  184.6780  178.0120  137.2730 C   0  0  0  0  0  2  0  0  0  0  0  0
  186.2400  179.3970  142.3430 C   0  0  0  0  0  3  0  0  0  0  0  0
  187.2050  177.8740  140.6970 C   0  0  0  0  0  0  0  0  0  0  0  0
  183.3190  176.8450  139.6010 C   0  0  0  0  0  2  0  0  0  0  0  0
  186.0030  177.5760  140.1960 C   0  0  0  0  0  3  0  0  0  0  0  0
  188.7100  176.6380  136.3360 C   0  0  0  0  0  2  0  0  0  0  0  0
  186.2560  176.1010  136.8110 C   0  0  0  0  0  2  0  0  0  0  0  0
  185.7880  177.4840  136.3630 C   0  0  1  0  0  3  0  0  0  0  0  0
  184.9470  179.3850  141.5650 C   0  0  0  0  0  2  0  0  0  0  0  0
  189.1960  176.6130  137.7790 C   0  0  2  0  0  3  0  0  0  0  0  0
  184.7290  178.0370  140.8660 C   0  0  1  0  0  3  0  0  0  0  0  0
  183.3120  177.3640  137.0180 C   0  0  1  0  0  3  0  0  0  0  0  0
  182.5800  176.7860  138.2620 C   0  0  1  0  0  3  0  0  0  0  0  0
  188.4690  177.6820  138.5840 C   0  0  0  0  0  2  0  0  0  0  0  0
  188.4300  177.3090  140.0590 C   0  0  0  0  0  2  0  0  0  0  0  0
  187.3060  178.7180  141.9040 C   0  0  0  0  0  3  0  0  0  0  0  0
  182.0830  175.3500  138.0400 C   0  0  1  0  0  0  0  0  0  0  0  0
  180.6550  175.1230  137.6940 C   0  0  2  0  0  3  0  0  0  0  0  0
  183.0200  174.3740  137.6800 O   0  0  0  0  0  1  0  0  0  0  0  0
  181.1630  174.8730  138.9920 O   0  0  0  0  0  0  0  0  0  0  0  0
  180.4170  173.7980  136.9800 C   0  0  0  0  0  2  0  0  0  0  0  0
  179.9450  172.7480  137.9710 C   0  0  0  0  0  2  0  0  0  0  0  0
  179.6770  171.4290  137.2630 C   0  0  0  0  0  2  0  0  0  0  0  0
  180.3420  171.4270  135.8940 C   0  0  1  0  0  3  0  0  0  0  0  0
  181.2360  169.7420  135.1620 C   0  0  0  0  0  2  0  0  0  0  0  0
  181.7550  170.8960  135.9830 C   0  0  0  0  0  2  0  0  0  0  0  0
  179.8820  170.2820  135.1210 N   0  0  0  0  0  2  0  0  0  0  0  0
  190.7050  176.8240  137.8360 C   0  0  0  0  0  2  0  0  0  0  0  0
  191.3190  176.3710  136.6620 O   0  0  0  0  0  0  0  0  0  0  0  0
  195.0630  174.7390  137.3750 C   0  0  1  0  0  3  0  0  0  0  0  0
  193.9290  174.1690  134.7370 C   0  0  0  0  0  2  0  0  0  0  0  0
  193.6010  176.2000  135.8990 C   0  0  1  0  0  3  0  0  0  0  0  0
  192.1700  172.6940  135.7190 C   0  0  0  0  0  1  0  0  0  0  0  0
  193.5990  173.2040  135.8970 C   0  0  2  0  0  0  0  0  0  0  0  0
  192.6090  176.0020  137.0540 C   0  0  2  0  0  3  0  0  0  0  0  0
  195.0260  175.9670  136.4500 C   0  0  0  0  0  2  0  0  0  0  0  0
  195.2540  175.1530  138.6950 O   0  0  0  0  0  1  0  0  0  0  0  0
  192.5910  174.6870  137.5980 O   0  0  0  0  0  0  0  0  0  0  0  0
  193.2150  175.3900  134.7910 O   0  0  0  0  0  0  0  0  0  0  0  0
  193.7490  173.9250  137.2670 C   0  0  2  0  0  3  0  0  0  0  0  0
  194.2530  170.9030  136.8380 C   0  0  0  0  0  1  0  0  0  0  0  0
  194.5910  172.0160  135.8440 C   0  0  2  0  0  3  0  0  0  0  0  0
  196.0670  172.4450  135.9280 C   0  0  1  0  0  3  0  0  0  0  0  0
  196.7150  171.8720  137.0310 O   0  0  0  0  0  1  0  0  0  0  0  0
  196.8250  172.1520  134.6370 C   0  0  0  0  0  2  0  0  0  0  0  0
  197.8510  171.2320  134.8560 O   0  0  0  0  0  1  0  0  0  0  0  0
  182.4310  178.3290  136.2150 C   0  0  1  0  0  3  0  0  0  0  0  0
  181.6420  177.6310  135.1440 C   0  0  0  0  0  3  0  0  0  0  0  0
  181.9510  176.5140  134.7580 O   0  0  0  0  0  0  0  0  0  0  0  0
  181.5510  179.2050  137.1100 C   0  0  0  0  0  2  0  0  0  0  0  0
  180.2920  179.6470  136.3800 C   0  0  0  0  0  2  0  0  0  0  0  0
  180.2800  181.1530  136.1980 C   0  0  0  0  0  1  0  0  0  0  0  0
  1 14  1  0  0  0  0
  2  9  1  0  0  0  0
  2 10  1  0  0  0  0
  6 19  1  0  0  0  0
  7  1  1  0  0  0  0
  8  6  2  0  0  0  0
  9 13  1  0  0  0  0
 11  3  1  6  0  0  0
 11 10  1  0  0  0  0
 11  4  1  0  0  0  0
 12  5  1  0  0  0  0
 13 31  1  6  0  0  0
 13 17  1  0  0  0  0
 14  8  1  6  0  0  0
 14 12  1  0  0  0  0
 15 50  1  1  0  0  0
 15  4  1  0  0  0  0
 15 16  1  0  0  0  0
 16  7  1  1  0  0  0
 17 18  1  0  0  0  0
 18  6  1  0  0  0  0
 19  5  2  0  0  0  0
 20 22  1  6  0  0  0
 20 16  1  0  0  0  0
 20 23  1  0  0  0  0
 21 24  1  6  0  0  0
 21 20  1  0  0  0  0
 21 23  1  0  0  0  0
 24 25  1  0  0  0  0
 26 25  1  0  0  0  0
 27 29  1  0  0  0  0
 27 26  1  1  0  0  0
 28 29  1  0  0  0  0
 30 28  1  0  0  0  0
 30 27  1  0  0  0  0
 32 31  1  0  0  0  0
 33 40  1  1  0  0  0
 34 42  1  0  0  0  0
 34 37  1  0  0  0  0
 35 39  1  1  0  0  0
 35 38  1  0  0  0  0
 37 36  1  6  0  0  0
 37 43  1  0  0  0  0
 38 32  1  6  0  0  0
 38 41  1  0  0  0  0
 39 33  1  0  0  0  0
 42 35  1  0  0  0  0
 43 33  1  0  0  0  0
 43 41  1  6  0  0  0
 45 37  1  0  0  0  0
 45 46  1  0  0  0  0
 45 44  1  1  0  0  0
 46 47  1  1  0  0  0
 48 49  1  0  0  0  0
 48 46  1  0  0  0  0
 50 51  1  6  0  0  0
 50 53  1  0  0  0  0
 52 51  2  0  0  0  0
 54 53  1  0  0  0  0
 55 54  1  0  0  0  0
M  END
>  <MODEL>
5

>  <REMARK>
 VINA RESULT:      -3.2      4.944      6.847
  Name = 
  15 active torsions:
  status: ('A' for Active; 'I' for Inactive)
    1  A    between atoms: C_8  and  O_22
    2  A    between atoms: C_8  and  C_43
    3  A    between atoms: C_9  and  C_15
    4  A    between atoms: C_9  and  C_26
    5  A    between atoms: C_10  and  C_32
    6  A    between atoms: C_11  and  C_29
    7  A    between atoms: C_13  and  C_34
    8  A    between atoms: C_13  and  C_48
    9  A    between atoms: C_14  and  C_38
   10  A    between atoms: C_16  and  C_26
   11  A    between atoms: C_20  and  O_22
   12  A    between atoms: C_26  and  C_45
   13  A    between atoms: C_29  and  C_38
   14  A    between atoms: C_32  and  C_48
   15  A    between atoms: C_33  and  C_49
                            x       y       z     vdW  Elec       q    Type
                         _______ _______ _______ _____ _____    ______ ____

>  <TORSDO>
F 15

$$$$
=
 OpenBabel11052414523D

 55 60  0  0  1  0  0  0  0  0999 V2000
  182.4710  178.2780  140.6960 O   0  0  0  0  0  0  0  0  0  0  0  0
  184.7170  176.5270  135.4480 C   0  0  0  0  0  2  0  0  0  0  0  0
  182.0400  178.3470  135.0930 S   0  0  0  0  0  1  0  0  0  0  0  0
  182.4110  178.5000  137.8650 C   0  0  0  0  0  2  0  0  0  0  0  0
  185.6940  179.4390  142.1560 C   0  0  0  0  0  3  0  0  0  0  0  0
  186.0280  178.1820  140.0890 C   0  0  0  0  0  0  0  0  0  0  0  0
  182.0460  176.9860  140.3560 C   0  0  0  0  0  2  0  0  0  0  0  0
  184.7360  177.8500  140.0250 C   0  0  0  0  0  3  0  0  0  0  0  0
  185.8520  177.5480  135.3590 C   0  0  0  0  0  2  0  0  0  0  0  0
  183.7650  176.7780  136.6180 C   0  0  0  0  0  2  0  0  0  0  0  0
  183.1220  178.1610  136.5540 C   0  0  1  0  0  3  0  0  0  0  0  0
  184.2060  179.4130  141.9060 C   0  0  0  0  0  2  0  0  0  0  0  0
  186.8370  177.4030  136.5110 C   0  0  2  0  0  3  0  0  0  0  0  0
  183.7870  178.1370  141.1650 C   0  0  1  0  0  3  0  0  0  0  0  0
  181.0690  177.7820  138.0420 C   0  0  1  0  0  3  0  0  0  0  0  0
  180.8660  177.0170  139.3800 C   0  0  1  0  0  3  0  0  0  0  0  0
  186.4270  178.3190  137.6560 C   0  0  0  0  0  2  0  0  0  0  0  0
  186.9480  177.7860  138.9830 C   0  0  0  0  0  2  0  0  0  0  0  0
  186.5430  178.8950  141.2760 C   0  0  0  0  0  3  0  0  0  0  0  0
  180.3670  175.5810  139.1700 C   0  0  1  0  0  0  0  0  0  0  0  0
  180.5000  174.9580  137.8270 C   0  0  2  0  0  3  0  0  0  0  0  0
  180.2740  174.7420  140.2880 O   0  0  0  0  0  1  0  0  0  0  0  0
  179.2610  175.4430  138.3120 O   0  0  0  0  0  0  0  0  0  0  0  0
  180.4990  173.4350  137.8730 C   0  0  0  0  0  2  0  0  0  0  0  0
  181.6240  172.8850  137.0130 C   0  0  0  0  0  2  0  0  0  0  0  0
  182.9450  173.5430  137.3780 C   0  0  0  0  0  2  0  0  0  0  0  0
  184.0980  172.5870  137.1060 C   0  0  1  0  0  3  0  0  0  0  0  0
  184.3290  171.7110  135.2750 C   0  0  0  0  0  2  0  0  0  0  0  0
  183.5930  171.2870  136.5210 C   0  0  0  0  0  2  0  0  0  0  0  0
  184.7760  172.9630  135.8740 N   0  0  0  0  0  2  0  0  0  0  0  0
  188.2530  177.7210  136.0420 C   0  0  0  0  0  2  0  0  0  0  0  0
  188.5930  176.9570  134.9200 O   0  0  0  0  0  0  0  0  0  0  0  0
  190.4640  173.6010  136.4780 C   0  0  1  0  0  3  0  0  0  0  0  0
  191.7510  176.1560  137.1000 C   0  0  0  0  0  2  0  0  0  0  0  0
  189.4130  175.8710  136.9130 C   0  0  1  0  0  3  0  0  0  0  0  0
  192.4490  176.4790  134.7250 C   0  0  0  0  0  1  0  0  0  0  0  0
  192.1590  175.4310  135.7990 C   0  0  2  0  0  0  0  0  0  0  0  0
  189.0070  175.7270  135.4390 C   0  0  2  0  0  3  0  0  0  0  0  0
  189.6680  174.4560  137.4790 C   0  0  0  0  0  2  0  0  0  0  0  0
  189.6380  172.6050  135.9530 O   0  0  0  0  0  1  0  0  0  0  0  0
  190.0120  175.1640  134.6040 O   0  0  0  0  0  0  0  0  0  0  0  0
  190.4920  176.7970  137.0250 O   0  0  0  0  0  0  0  0  0  0  0  0
  191.0270  174.4740  135.3290 C   0  0  2  0  0  3  0  0  0  0  0  0
  193.2690  173.6120  137.2370 C   0  0  0  0  0  1  0  0  0  0  0  0
  193.4340  174.6000  136.0790 C   0  0  2  0  0  3  0  0  0  0  0  0
  194.7060  175.4560  136.2190 C   0  0  1  0  0  3  0  0  0  0  0  0
  195.2970  175.3100  137.4820 O   0  0  0  0  0  1  0  0  0  0  0  0
  195.7140  175.1740  135.1090 C   0  0  0  0  0  2  0  0  0  0  0  0
  196.2430  176.3600  134.6000 O   0  0  0  0  0  1  0  0  0  0  0  0
  179.9240  178.7600  137.7460 C   0  0  1  0  0  3  0  0  0  0  0  0
  178.9310  178.2020  136.7670 C   0  0  0  0  0  3  0  0  0  0  0  0
  179.2710  177.4010  135.9090 O   0  0  0  0  0  0  0  0  0  0  0  0
  179.2550  179.2850  139.0180 C   0  0  0  0  0  2  0  0  0  0  0  0
  180.0320  180.4510  139.6080 C   0  0  0  0  0  2  0  0  0  0  0  0
  179.5140  181.7690  139.0650 C   0  0  0  0  0  1  0  0  0  0  0  0
  1 14  1  0  0  0  0
  2 10  1  0  0  0  0
  4 15  1  0  0  0  0
  6 19  1  0  0  0  0
  7  1  1  0  0  0  0
  8  6  2  0  0  0  0
  9  2  1  0  0  0  0
  9 13  1  0  0  0  0
 11  3  1  6  0  0  0
 11 10  1  0  0  0  0
 11  4  1  0  0  0  0
 12  5  1  0  0  0  0
 13 31  1  6  0  0  0
 13 17  1  0  0  0  0
 14  8  1  6  0  0  0
 14 12  1  0  0  0  0
 15 50  1  1  0  0  0
 15 16  1  0  0  0  0
 16  7  1  6  0  0  0
 17 18  1  0  0  0  0
 18  6  1  0  0  0  0
 19  5  2  0  0  0  0
 20 16  1  0  0  0  0
 20 22  1  1  0  0  0
 21 24  1  1  0  0  0
 21 23  1  0  0  0  0
 21 20  1  0  0  0  0
 23 20  1  0  0  0  0
 25 26  1  0  0  0  0
 25 24  1  0  0  0  0
 27 26  1  6  0  0  0
 28 30  1  0  0  0  0
 28 29  1  0  0  0  0
 29 27  1  0  0  0  0
 30 27  1  0  0  0  0
 32 31  1  0  0  0  0
 33 40  1  6  0  0  0
 33 39  1  0  0  0  0
 35 42  1  0  0  0  0
 35 39  1  6  0  0  0
 37 36  1  6  0  0  0
 37 45  1  0  0  0  0
 37 34  1  0  0  0  0
 38 32  1  6  0  0  0
 38 35  1  0  0  0  0
 41 38  1  0  0  0  0
 42 34  1  0  0  0  0
 43 41  1  1  0  0  0
 43 37  1  0  0  0  0
 43 33  1  0  0  0  0
 45 46  1  0  0  0  0
 45 44  1  1  0  0  0
 46 47  1  1  0  0  0
 48 46  1  0  0  0  0
 49 48  1  0  0  0  0
 50 51  1  6  0  0  0
 50 53  1  0  0  0  0
 52 51  2  0  0  0  0
 53 54  1  0  0  0  0
 55 54  1  0  0  0  0
M  END
>  <MODEL>
6

>  <REMARK>
 VINA RESULT:      -3.1      3.905      6.106
  Name = 
  15 active torsions:
  status: ('A' for Active; 'I' for Inactive)
    1  A    between atoms: C_8  and  O_22
    2  A    between atoms: C_8  and  C_43
    3  A    between atoms: C_9  and  C_15
    4  A    between atoms: C_9  and  C_26
    5  A    between atoms: C_10  and  C_32
    6  A    between atoms: C_11  and  C_29
    7  A    between atoms: C_13  and  C_34
    8  A    between atoms: C_13  and  C_48
    9  A    between atoms: C_14  and  C_38
   10  A    between atoms: C_16  and  C_26
   11  A    between atoms: C_20  and  O_22
   12  A    between atoms: C_26  and  C_45
   13  A    between atoms: C_29  and  C_38
   14  A    between atoms: C_32  and  C_48
   15  A    between atoms: C_33  and  C_49
                            x       y       z     vdW  Elec       q    Type
                         _______ _______ _______ _____ _____    ______ ____

>  <TORSDO>
F 15

$$$$
