=
 OpenBabel11052413013D

 31 35  0  0  1  0  0  0  0  0999 V2000
  185.5720  178.8520  146.0800 C   0  0  0  0  0  0  0  0  0  0  0  0
  188.6240  177.5900  144.2380 C   0  0  0  0  0  0  0  0  0  0  0  0
  189.5550  177.1660  145.2260 C   0  0  0  0  0  0  0  0  0  0  0  0
  190.0760  176.3780  147.4730 C   0  0  0  0  0  3  0  0  0  0  0  0
  187.1220  177.6890  144.5120 C   0  0  1  0  0  3  0  0  0  0  0  0
  184.5190  178.9920  145.0030 C   0  0  0  0  0  2  0  0  0  0  0  0
  189.1440  176.7780  146.5130 C   0  0  0  0  0  3  0  0  0  0  0  0
  188.1630  178.1040  141.8520 N   0  0  0  0  0  0  0  0  0  0  0  0
  185.3050  179.3620  147.3430 O   0  0  0  0  0  1  0  0  0  0  0  0
  191.3810  177.4190  143.6310 C   0  0  0  0  0  3  0  0  0  0  0  0
  192.3390  175.9690  148.0940 F   0  0  0  0  0  0  0  0  0  0  0  0
  186.7390  177.8780  142.0560 C   0  0  0  0  0  2  0  0  0  0  0  0
  189.0950  177.8200  142.9160 C   0  0  0  0  0  0  0  0  0  0  0  0
  186.7740  178.3140  145.8380 C   0  0  0  0  0  3  0  0  0  0  0  0
  191.4360  176.3570  147.1620 C   0  0  0  0  0  0  0  0  0  0  0  0
  186.3610  178.4340  143.4110 C   0  0  1  0  0  3  0  0  0  0  0  0
  184.8730  178.2890  143.6860 C   0  0  0  0  0  2  0  0  0  0  0  0
  190.4670  177.7570  142.6400 C   0  0  0  0  0  3  0  0  0  0  0  0
  190.9370  177.1100  144.9140 C   0  0  0  0  0  0  0  0  0  0  0  0
  191.8660  176.7160  145.8830 C   0  0  0  0  0  3  0  0  0  0  0  0
  188.5920  178.7550  140.6210 C   0  0  0  0  0  2  0  0  0  0  0  0
  187.9840  175.5800  135.7000 C   0  0  2  0  0  3  0  0  0  0  0  0
  187.5790  178.1590  138.3870 N   0  0  0  0  0  2  0  0  0  0  0  0
  186.0560  177.0650  135.1880 C   0  0  0  0  0  3  0  0  0  0  0  0
  189.1260  176.7530  139.4530 O   0  0  0  0  0  0  0  0  0  0  0  0
  188.3550  174.2630  135.8940 F   0  0  0  0  0  0  0  0  0  0  0  0
  188.4490  177.8150  139.4720 C   0  0  0  0  0  0  0  0  0  0  0  0
  188.0820  176.3150  136.9650 N   0  0  0  0  0  0  0  0  0  0  0  0
  186.4290  177.8780  136.1790 C   0  0  0  0  0  3  0  0  0  0  0  0
  187.4060  177.4080  137.1800 C   0  0  0  0  0  0  0  0  0  0  0  0
  186.5610  175.6490  135.1400 C   0  0  0  0  0  2  0  0  0  0  0  0
  1  9  1  0  0  0  0
  2  5  1  0  0  0  0
  2  3  1  0  0  0  0
  3  7  1  0  0  0  0
  5 14  1  1  0  0  0
  6  1  1  0  0  0  0
  7  4  2  0  0  0  0
  8 12  1  0  0  0  0
  8 13  1  0  0  0  0
 10 19  1  0  0  0  0
 13  2  2  0  0  0  0
 14  1  2  0  0  0  0
 15  4  1  0  0  0  0
 15 11  1  0  0  0  0
 16 12  1  6  0  0  0
 16 17  1  0  0  0  0
 16  5  1  0  0  0  0
 17  6  1  0  0  0  0
 18 13  1  0  0  0  0
 18 10  2  0  0  0  0
 19  3  2  0  0  0  0
 19 20  1  0  0  0  0
 20 15  2  0  0  0  0
 21  8  1  0  0  0  0
 22 26  1  1  0  0  0
 22 28  1  0  0  0  0
 23 27  1  0  0  0  0
 24 29  2  0  0  0  0
 25 27  2  0  0  0  0
 27 21  1  0  0  0  0
 28 30  2  0  0  0  0
 29 30  1  0  0  0  0
 30 23  1  0  0  0  0
 31 24  1  0  0  0  0
 31 22  1  0  0  0  0
M  END
>  <MODEL>
1

>  <REMARK>
 VINA RESULT:     -11.1      0.000      0.000
  Name = 
  2 active torsions:
  status: ('A' for Active; 'I' for Inactive)
    1  A    between atoms: C_9  and  C_23
    2  A    between atoms: N_15  and  C_23
                            x       y       z     vdW  Elec       q    Type
                         _______ _______ _______ _____ _____    ______ ____

>  <TORSDO>
F 2

$$$$
=
 OpenBabel11052413013D

 31 35  0  0  1  0  0  0  0  0999 V2000
  185.5860  178.8480  146.0600 C   0  0  0  0  0  0  0  0  0  0  0  0
  188.6580  177.5450  144.2790 C   0  0  0  0  0  0  0  0  0  0  0  0
  189.5730  177.1320  145.2850 C   0  0  0  0  0  0  0  0  0  0  0  0
  190.0600  176.3750  147.5510 C   0  0  0  0  0  3  0  0  0  0  0  0
  187.1530  177.6550  144.5310 C   0  0  1  0  0  3  0  0  0  0  0  0
  184.5490  178.9770  144.9670 C   0  0  0  0  0  2  0  0  0  0  0  0
  189.1430  176.7650  146.5730 C   0  0  0  0  0  3  0  0  0  0  0  0
  188.2310  178.0260  141.8800 N   0  0  0  0  0  0  0  0  0  0  0  0
  185.3060  179.3780  147.3120 O   0  0  0  0  0  1  0  0  0  0  0  0
  191.4220  177.3530  143.7120 C   0  0  0  0  0  3  0  0  0  0  0  0
  192.3130  175.9660  148.2090 F   0  0  0  0  0  0  0  0  0  0  0  0
  186.8040  177.8090  142.0670 C   0  0  0  0  0  2  0  0  0  0  0  0
  189.1480  177.7540  142.9610 C   0  0  0  0  0  0  0  0  0  0  0  0
  186.7900  178.3010  145.8430 C   0  0  0  0  0  3  0  0  0  0  0  0
  191.4240  176.3430  147.2590 C   0  0  0  0  0  0  0  0  0  0  0  0
  186.4100  178.3870  143.4090 C   0  0  1  0  0  3  0  0  0  0  0  0
  184.9180  178.2530  143.6650 C   0  0  0  0  0  2  0  0  0  0  0  0
  190.5230  177.6810  142.7040 C   0  0  0  0  0  3  0  0  0  0  0  0
  190.9590  177.0660  144.9940 C   0  0  0  0  0  0  0  0  0  0  0  0
  191.8730  176.6820  145.9810 C   0  0  0  0  0  3  0  0  0  0  0  0
  188.6800  178.6560  140.6450 C   0  0  0  0  0  2  0  0  0  0  0  0
  190.9440  174.4370  137.2200 C   0  0  2  0  0  3  0  0  0  0  0  0
  190.5260  177.4220  139.4440 N   0  0  0  0  0  2  0  0  0  0  0  0
  193.1100  175.6300  137.4810 C   0  0  0  0  0  3  0  0  0  0  0  0
  188.2650  176.8950  139.1020 O   0  0  0  0  0  0  0  0  0  0  0  0
  190.0260  173.9850  136.2910 F   0  0  0  0  0  0  0  0  0  0  0  0
  189.1250  177.6150  139.6740 C   0  0  0  0  0  0  0  0  0  0  0  0
  190.3640  175.5330  138.0010 N   0  0  0  0  0  0  0  0  0  0  0  0
  192.5720  176.3790  138.4460 C   0  0  0  0  0  3  0  0  0  0  0  0
  191.1080  176.4100  138.6160 C   0  0  0  0  0  0  0  0  0  0  0  0
  192.2260  174.8890  136.5160 C   0  0  0  0  0  2  0  0  0  0  0  0
  1  9  1  0  0  0  0
  2  5  1  0  0  0  0
  2  3  1  0  0  0  0
  3  7  1  0  0  0  0
  5 14  1  1  0  0  0
  6  1  1  0  0  0  0
  7  4  2  0  0  0  0
  8 12  1  0  0  0  0
  8 13  1  0  0  0  0
 10 19  1  0  0  0  0
 13  2  2  0  0  0  0
 14  1  2  0  0  0  0
 15  4  1  0  0  0  0
 15 11  1  0  0  0  0
 16 12  1  6  0  0  0
 16 17  1  0  0  0  0
 16  5  1  0  0  0  0
 17  6  1  0  0  0  0
 18 13  1  0  0  0  0
 18 10  2  0  0  0  0
 19  3  2  0  0  0  0
 19 20  1  0  0  0  0
 20 15  2  0  0  0  0
 21  8  1  0  0  0  0
 22 26  1  6  0  0  0
 22 28  1  0  0  0  0
 23 27  1  0  0  0  0
 24 29  2  0  0  0  0
 25 27  2  0  0  0  0
 27 21  1  0  0  0  0
 28 30  2  0  0  0  0
 29 30  1  0  0  0  0
 30 23  1  0  0  0  0
 31 22  1  0  0  0  0
 31 24  1  0  0  0  0
M  END
>  <MODEL>
2

>  <REMARK>
 VINA RESULT:     -11.1      1.950      2.461
  Name = 
  2 active torsions:
  status: ('A' for Active; 'I' for Inactive)
    1  A    between atoms: C_9  and  C_23
    2  A    between atoms: N_15  and  C_23
                            x       y       z     vdW  Elec       q    Type
                         _______ _______ _______ _____ _____    ______ ____

>  <TORSDO>
F 2

$$$$
=
 OpenBabel11052413013D

 31 35  0  0  1  0  0  0  0  0999 V2000
  185.5410  178.8950  146.4580 C   0  0  0  0  0  0  0  0  0  0  0  0
  188.2030  177.5620  144.1240 C   0  0  0  0  0  0  0  0  0  0  0  0
  189.3010  177.1680  144.9360 C   0  0  0  0  0  0  0  0  0  0  0  0
  190.2330  176.4520  147.0720 C   0  0  0  0  0  3  0  0  0  0  0  0
  186.7770  177.6760  144.6690 C   0  0  1  0  0  3  0  0  0  0  0  0
  184.3070  179.0030  145.5910 C   0  0  0  0  0  2  0  0  0  0  0  0
  189.1380  176.8240  146.2890 C   0  0  0  0  0  3  0  0  0  0  0  0
  187.3050  177.9990  141.8500 N   0  0  0  0  0  0  0  0  0  0  0  0
  185.5130  179.4470  147.7310 O   0  0  0  0  0  1  0  0  0  0  0  0
  190.7990  177.3620  143.0230 C   0  0  0  0  0  3  0  0  0  0  0  0
  192.5730  176.0570  147.2750 F   0  0  0  0  0  0  0  0  0  0  0  0
  185.9440  177.7850  142.3220 C   0  0  0  0  0  2  0  0  0  0  0  0
  188.4190  177.7470  142.7320 C   0  0  0  0  0  0  0  0  0  0  0  0
  186.6800  178.3450  146.0150 C   0  0  0  0  0  3  0  0  0  0  0  0
  191.5120  176.4160  146.5150 C   0  0  0  0  0  0  0  0  0  0  0  0
  185.8230  178.3870  143.7040 C   0  0  1  0  0  3  0  0  0  0  0  0
  184.4120  178.2560  144.2550 C   0  0  0  0  0  2  0  0  0  0  0  0
  189.7160  177.6710  142.2070 C   0  0  0  0  0  3  0  0  0  0  0  0
  190.6020  177.0980  144.3760 C   0  0  0  0  0  0  0  0  0  0  0  0
  191.6950  176.7320  145.1670 C   0  0  0  0  0  3  0  0  0  0  0  0
  187.4970  178.6080  140.5390 C   0  0  0  0  0  2  0  0  0  0  0  0
  182.4120  178.1930  137.6020 C   0  0  2  0  0  3  0  0  0  0  0  0
  185.9680  177.7850  138.7080 N   0  0  0  0  0  2  0  0  0  0  0  0
  183.6700  176.8030  135.9680 C   0  0  0  0  0  3  0  0  0  0  0  0
  185.3050  179.4670  140.2040 O   0  0  0  0  0  0  0  0  0  0  0  0
  181.6500  179.3380  137.7360 F   0  0  0  0  0  0  0  0  0  0  0  0
  186.1970  178.6690  139.8110 C   0  0  0  0  0  0  0  0  0  0  0  0
  183.6960  178.3670  138.2870 N   0  0  0  0  0  0  0  0  0  0  0  0
  184.6920  176.7360  136.8250 C   0  0  0  0  0  3  0  0  0  0  0  0
  184.7470  177.6630  137.9710 C   0  0  0  0  0  0  0  0  0  0  0  0
  182.6250  177.8730  136.1200 C   0  0  0  0  0  2  0  0  0  0  0  0
  1  9  1  0  0  0  0
  2  5  1  0  0  0  0
  2  3  1  0  0  0  0
  3  7  1  0  0  0  0
  5 14  1  1  0  0  0
  6  1  1  0  0  0  0
  7  4  2  0  0  0  0
  8 12  1  0  0  0  0
  8 13  1  0  0  0  0
 10 19  1  0  0  0  0
 13  2  2  0  0  0  0
 14  1  2  0  0  0  0
 15  4  1  0  0  0  0
 15 11  1  0  0  0  0
 16 12  1  6  0  0  0
 16 17  1  0  0  0  0
 16  5  1  0  0  0  0
 17  6  1  0  0  0  0
 18 13  1  0  0  0  0
 18 10  2  0  0  0  0
 19  3  2  0  0  0  0
 19 20  1  0  0  0  0
 20 15  2  0  0  0  0
 21  8  1  0  0  0  0
 22 26  1  6  0  0  0
 22 28  1  0  0  0  0
 23 27  1  0  0  0  0
 24 31  1  0  0  0  0
 24 29  2  0  0  0  0
 27 25  2  0  0  0  0
 27 21  1  0  0  0  0
 29 30  1  0  0  0  0
 30 28  2  0  0  0  0
 30 23  1  0  0  0  0
 31 22  1  0  0  0  0
M  END
>  <MODEL>
3

>  <REMARK>
 VINA RESULT:      -9.8      2.397      2.673
  Name = 
  2 active torsions:
  status: ('A' for Active; 'I' for Inactive)
    1  A    between atoms: C_9  and  C_23
    2  A    between atoms: N_15  and  C_23
                            x       y       z     vdW  Elec       q    Type
                         _______ _______ _______ _____ _____    ______ ____

>  <TORSDO>
F 2

$$$$
=
 OpenBabel11052413013D

 31 35  0  0  1  0  0  0  0  0999 V2000
  189.6190  176.9410  140.7070 C   0  0  0  0  0  0  0  0  0  0  0  0
  188.2430  177.7560  144.1340 C   0  0  0  0  0  0  0  0  0  0  0  0
  189.2560  177.4220  145.0740 C   0  0  0  0  0  0  0  0  0  0  0  0
  191.5930  177.0330  145.6520 C   0  0  0  0  0  3  0  0  0  0  0  0
  188.5510  178.0540  142.6650 C   0  0  1  0  0  3  0  0  0  0  0  0
  188.6470  177.5930  139.7510 C   0  0  0  0  0  2  0  0  0  0  0  0
  190.6140  177.3770  144.7160 C   0  0  0  0  0  3  0  0  0  0  0  0
  185.8860  178.4150  143.7120 N   0  0  0  0  0  0  0  0  0  0  0  0
  190.5880  176.0880  140.1950 O   0  0  0  0  0  1  0  0  0  0  0  0
  187.5790  177.2420  146.8340 C   0  0  0  0  0  3  0  0  0  0  0  0
  192.1780  176.3960  147.8710 F   0  0  0  0  0  0  0  0  0  0  0  0
  186.2540  178.9940  142.4280 C   0  0  0  0  0  2  0  0  0  0  0  0
  186.9130  177.9300  144.6030 C   0  0  0  0  0  0  0  0  0  0  0  0
  189.5370  177.1050  142.0340 C   0  0  0  0  0  3  0  0  0  0  0  0
  191.2290  176.7300  146.9640 C   0  0  0  0  0  0  0  0  0  0  0  0
  187.2950  178.1020  141.7890 C   0  0  1  0  0  3  0  0  0  0  0  0
  187.7000  178.6040  140.4120 C   0  0  0  0  0  2  0  0  0  0  0  0
  186.5960  177.6450  145.9380 C   0  0  0  0  0  3  0  0  0  0  0  0
  188.9050  177.1410  146.4180 C   0  0  0  0  0  0  0  0  0  0  0  0
  189.8880  176.7900  147.3490 C   0  0  0  0  0  3  0  0  0  0  0  0
  184.4720  178.2070  143.9990 C   0  0  0  0  0  2  0  0  0  0  0  0
  181.1730  179.1240  139.2100 C   0  0  2  0  0  3  0  0  0  0  0  0
  183.7590  177.8530  141.6040 N   0  0  0  0  0  2  0  0  0  0  0  0
  182.7290  177.5670  138.0540 C   0  0  0  0  0  3  0  0  0  0  0  0
  182.8420  179.5640  142.9230 O   0  0  0  0  0  0  0  0  0  0  0  0
  180.6560  180.4060  139.1840 F   0  0  0  0  0  0  0  0  0  0  0  0
  183.6500  178.6030  142.8200 C   0  0  0  0  0  0  0  0  0  0  0  0
  182.0440  178.9630  140.3780 N   0  0  0  0  0  0  0  0  0  0  0  0
  183.2490  177.2230  139.2340 C   0  0  0  0  0  3  0  0  0  0  0  0
  182.9760  178.0530  140.4220 C   0  0  0  0  0  0  0  0  0  0  0  0
  181.9410  178.8400  137.9160 C   0  0  0  0  0  2  0  0  0  0  0  0
  1 14  2  0  0  0  0
  2 13  2  0  0  0  0
  2  3  1  0  0  0  0
  3 19  1  0  0  0  0
  4 15  2  0  0  0  0
  5 14  1  6  0  0  0
  5  2  1  0  0  0  0
  6 17  1  0  0  0  0
  6  1  1  0  0  0  0
  7  3  2  0  0  0  0
  7  4  1  0  0  0  0
  8 21  1  0  0  0  0
  8 13  1  0  0  0  0
  9  1  1  0  0  0  0
 12  8  1  0  0  0  0
 13 18  1  0  0  0  0
 15 20  1  0  0  0  0
 15 11  1  0  0  0  0
 16 17  1  6  0  0  0
 16 12  1  0  0  0  0
 16  5  1  0  0  0  0
 18 10  2  0  0  0  0
 19 10  1  0  0  0  0
 19 20  2  0  0  0  0
 22 26  1  6  0  0  0
 22 28  1  0  0  0  0
 23 27  1  0  0  0  0
 24 29  2  0  0  0  0
 27 25  2  0  0  0  0
 27 21  1  0  0  0  0
 28 30  2  0  0  0  0
 29 30  1  0  0  0  0
 30 23  1  0  0  0  0
 31 24  1  0  0  0  0
 31 22  1  0  0  0  0
M  END
>  <MODEL>
4

>  <REMARK>
 VINA RESULT:      -9.8      3.243      5.149
  Name = 
  2 active torsions:
  status: ('A' for Active; 'I' for Inactive)
    1  A    between atoms: C_9  and  C_23
    2  A    between atoms: N_15  and  C_23
                            x       y       z     vdW  Elec       q    Type
                         _______ _______ _______ _____ _____    ______ ____

>  <TORSDO>
F 2

$$$$
=
 OpenBabel11052413013D

 31 35  0  0  1  0  0  0  0  0999 V2000
  189.6830  176.8910  140.2420 C   0  0  0  0  0  0  0  0  0  0  0  0
  187.7730  177.9050  143.3450 C   0  0  0  0  0  0  0  0  0  0  0  0
  188.6150  177.6260  144.4560 C   0  0  0  0  0  0  0  0  0  0  0  0
  190.8210  177.2710  145.4300 C   0  0  0  0  0  3  0  0  0  0  0  0
  188.3190  178.1160  141.9320 C   0  0  1  0  0  3  0  0  0  0  0  0
  188.8860  177.4870  139.1040 C   0  0  0  0  0  2  0  0  0  0  0  0
  190.0130  177.5600  144.3280 C   0  0  0  0  0  3  0  0  0  0  0  0
  185.5230  178.5400  142.5060 N   0  0  0  0  0  0  0  0  0  0  0  0
  190.7140  176.0090  139.9460 O   0  0  0  0  0  1  0  0  0  0  0  0
  186.6710  177.5500  145.9250 C   0  0  0  0  0  3  0  0  0  0  0  0
  191.0290  176.7640  147.7480 F   0  0  0  0  0  0  0  0  0  0  0  0
  186.1020  179.0430  141.2680 C   0  0  0  0  0  2  0  0  0  0  0  0
  186.3850  178.1070  143.5790 C   0  0  0  0  0  0  0  0  0  0  0  0
  189.3860  177.1320  141.5260 C   0  0  0  0  0  3  0  0  0  0  0  0
  190.2450  177.0450  146.6810 C   0  0  0  0  0  0  0  0  0  0  0  0
  187.2250  178.1140  140.8600 C   0  0  1  0  0  3  0  0  0  0  0  0
  187.8540  178.5350  139.5420 C   0  0  0  0  0  2  0  0  0  0  0  0
  185.8520  177.9000  144.8580 C   0  0  0  0  0  3  0  0  0  0  0  0
  188.0460  177.4240  145.7390 C   0  0  0  0  0  0  0  0  0  0  0  0
  188.8600  177.1280  146.8360 C   0  0  0  0  0  3  0  0  0  0  0  0
  184.0790  178.3490  142.5680 C   0  0  0  0  0  2  0  0  0  0  0  0
  182.1150  178.4630  137.0200 C   0  0  2  0  0  3  0  0  0  0  0  0
  182.9620  179.3770  140.5520 N   0  0  0  0  0  2  0  0  0  0  0  0
  181.1790  180.6970  137.5810 C   0  0  0  0  0  3  0  0  0  0  0  0
  183.5900  177.1160  140.5940 O   0  0  0  0  0  0  0  0  0  0  0  0
  181.7860  177.1980  136.5690 F   0  0  0  0  0  0  0  0  0  0  0  0
  183.5220  178.2240  141.1910 C   0  0  0  0  0  0  0  0  0  0  0  0
  182.5290  178.3970  138.4240 N   0  0  0  0  0  0  0  0  0  0  0  0
  181.8780  180.6950  138.7180 C   0  0  0  0  0  3  0  0  0  0  0  0
  182.4720  179.4370  139.2080 C   0  0  0  0  0  0  0  0  0  0  0  0
  180.9240  179.4090  136.8470 C   0  0  0  0  0  2  0  0  0  0  0  0
  1 14  2  0  0  0  0
  2 13  2  0  0  0  0
  2  3  1  0  0  0  0
  3 19  1  0  0  0  0
  4 15  2  0  0  0  0
  5 14  1  6  0  0  0
  5  2  1  0  0  0  0
  6 17  1  0  0  0  0
  6  1  1  0  0  0  0
  7  3  2  0  0  0  0
  7  4  1  0  0  0  0
  8 21  1  0  0  0  0
  8 13  1  0  0  0  0
  9  1  1  0  0  0  0
 12  8  1  0  0  0  0
 13 18  1  0  0  0  0
 15 20  1  0  0  0  0
 15 11  1  0  0  0  0
 16 17  1  6  0  0  0
 16 12  1  0  0  0  0
 16  5  1  0  0  0  0
 18 10  2  0  0  0  0
 19 10  1  0  0  0  0
 19 20  2  0  0  0  0
 22 26  1  1  0  0  0
 22 28  1  0  0  0  0
 23 27  1  0  0  0  0
 24 29  2  0  0  0  0
 25 27  2  0  0  0  0
 27 21  1  0  0  0  0
 28 30  2  0  0  0  0
 29 30  1  0  0  0  0
 30 23  1  0  0  0  0
 31 22  1  0  0  0  0
 31 24  1  0  0  0  0
M  END
>  <MODEL>
5

>  <REMARK>
 VINA RESULT:      -9.6      3.287      5.047
  Name = 
  2 active torsions:
  status: ('A' for Active; 'I' for Inactive)
    1  A    between atoms: C_9  and  C_23
    2  A    between atoms: N_15  and  C_23
                            x       y       z     vdW  Elec       q    Type
                         _______ _______ _______ _____ _____    ______ ____

>  <TORSDO>
F 2

$$$$
=
 OpenBabel11052413013D

 31 35  0  0  1  0  0  0  0  0999 V2000
  189.8890  176.8710  140.2750 C   0  0  0  0  0  0  0  0  0  0  0  0
  187.9120  177.8730  143.3400 C   0  0  0  0  0  0  0  0  0  0  0  0
  188.7360  177.6040  144.4660 C   0  0  0  0  0  0  0  0  0  0  0  0
  190.9280  177.2710  145.4820 C   0  0  0  0  0  3  0  0  0  0  0  0
  188.4830  178.0870  141.9360 C   0  0  1  0  0  3  0  0  0  0  0  0
  189.1080  177.4570  139.1200 C   0  0  0  0  0  2  0  0  0  0  0  0
  190.1370  177.5500  144.3650 C   0  0  0  0  0  3  0  0  0  0  0  0
  185.6730  178.4850  142.4580 N   0  0  0  0  0  0  0  0  0  0  0  0
  190.9330  175.9980  139.9990 O   0  0  0  0  0  1  0  0  0  0  0  0
  186.7670  177.5120  145.9000 C   0  0  0  0  0  3  0  0  0  0  0  0
  191.0980  176.7710  147.8040 F   0  0  0  0  0  0  0  0  0  0  0  0
  186.2700  178.9910  141.2300 C   0  0  0  0  0  2  0  0  0  0  0  0
  186.5190  178.0620  143.5470 C   0  0  0  0  0  0  0  0  0  0  0  0
  189.5660  177.1110  141.5520 C   0  0  0  0  0  3  0  0  0  0  0  0
  190.3310  177.0420  146.7220 C   0  0  0  0  0  0  0  0  0  0  0  0
  187.4090  178.0720  140.8450 C   0  0  1  0  0  3  0  0  0  0  0  0
  188.0580  178.4960  139.5380 C   0  0  0  0  0  2  0  0  0  0  0  0
  185.9640  177.8530  144.8170 C   0  0  0  0  0  3  0  0  0  0  0  0
  188.1460  177.3990  145.7390 C   0  0  0  0  0  0  0  0  0  0  0  0
  188.9420  177.1120  146.8520 C   0  0  0  0  0  3  0  0  0  0  0  0
  184.2300  178.2810  142.4940 C   0  0  0  0  0  2  0  0  0  0  0  0
  181.7250  177.8040  137.1880 C   0  0  2  0  0  3  0  0  0  0  0  0
  183.4650  177.0610  140.4210 N   0  0  0  0  0  2  0  0  0  0  0  0
  182.4600  175.4290  137.2470 C   0  0  0  0  0  3  0  0  0  0  0  0
  183.3700  179.4010  140.5800 O   0  0  0  0  0  0  0  0  0  0  0  0
  181.8190  178.9820  136.4710 F   0  0  0  0  0  0  0  0  0  0  0  0
  183.6780  178.2990  141.1090 C   0  0  0  0  0  0  0  0  0  0  0  0
  182.4220  177.9450  138.4690 N   0  0  0  0  0  0  0  0  0  0  0  0
  182.7620  175.5640  138.5400 C   0  0  0  0  0  3  0  0  0  0  0  0
  182.8630  176.9110  139.1300 C   0  0  0  0  0  0  0  0  0  0  0  0
  182.3080  176.6450  136.3750 C   0  0  0  0  0  2  0  0  0  0  0  0
  1 14  2  0  0  0  0
  2 13  2  0  0  0  0
  2  3  1  0  0  0  0
  3 19  1  0  0  0  0
  4 15  2  0  0  0  0
  5 14  1  6  0  0  0
  5  2  1  0  0  0  0
  6 17  1  0  0  0  0
  6  1  1  0  0  0  0
  7  3  2  0  0  0  0
  7  4  1  0  0  0  0
  8 21  1  0  0  0  0
  8 13  1  0  0  0  0
  9  1  1  0  0  0  0
 12  8  1  0  0  0  0
 13 18  1  0  0  0  0
 15 20  1  0  0  0  0
 15 11  1  0  0  0  0
 16 17  1  6  0  0  0
 16 12  1  0  0  0  0
 16  5  1  0  0  0  0
 18 10  2  0  0  0  0
 19 10  1  0  0  0  0
 19 20  2  0  0  0  0
 22 26  1  6  0  0  0
 22 28  1  0  0  0  0
 23 27  1  0  0  0  0
 24 29  2  0  0  0  0
 25 27  2  0  0  0  0
 27 21  1  0  0  0  0
 28 30  2  0  0  0  0
 29 30  1  0  0  0  0
 30 23  1  0  0  0  0
 31 22  1  0  0  0  0
 31 24  1  0  0  0  0
M  END
>  <MODEL>
6

>  <REMARK>
 VINA RESULT:      -9.5      3.138      4.877
  Name = 
  2 active torsions:
  status: ('A' for Active; 'I' for Inactive)
    1  A    between atoms: C_9  and  C_23
    2  A    between atoms: N_15  and  C_23
                            x       y       z     vdW  Elec       q    Type
                         _______ _______ _______ _____ _____    ______ ____

>  <TORSDO>
F 2

$$$$
=
 OpenBabel11052413013D

 31 35  0  0  1  0  0  0  0  0999 V2000
  185.0950  178.9390  145.8540 C   0  0  0  0  0  0  0  0  0  0  0  0
  186.8360  178.0230  142.6230 C   0  0  0  0  0  0  0  0  0  0  0  0
  188.1550  177.6200  142.9670 C   0  0  0  0  0  0  0  0  0  0  0  0
  189.7770  176.7540  144.5680 C   0  0  0  0  0  3  0  0  0  0  0  0
  185.6790  177.9890  143.6240 C   0  0  1  0  0  3  0  0  0  0  0  0
  183.6370  179.0550  145.4700 C   0  0  0  0  0  2  0  0  0  0  0  0
  188.4710  177.1320  144.2470 C   0  0  0  0  0  3  0  0  0  0  0  0
  185.2060  178.6290  140.8500 N   0  0  0  0  0  0  0  0  0  0  0  0
  185.4870  179.3570  147.1180 O   0  0  0  0  0  1  0  0  0  0  0  0
  188.9060  178.1020  140.6990 C   0  0  0  0  0  3  0  0  0  0  0  0
  192.0560  176.4910  143.9260 F   0  0  0  0  0  0  0  0  0  0  0  0
  184.0930  178.2810  141.7220 C   0  0  0  0  0  2  0  0  0  0  0  0
  186.5600  178.3610  141.2700 C   0  0  0  0  0  0  0  0  0  0  0  0
  186.0280  178.5110  144.9940 C   0  0  0  0  0  3  0  0  0  0  0  0
  190.7900  176.8560  143.6140 C   0  0  0  0  0  0  0  0  0  0  0  0
  184.4350  178.7310  143.1260 C   0  0  1  0  0  3  0  0  0  0  0  0
  183.3000  178.4550  144.0980 C   0  0  0  0  0  2  0  0  0  0  0  0
  187.6020  178.4210  140.3360 C   0  0  0  0  0  3  0  0  0  0  0  0
  189.1880  177.6900  141.9990 C   0  0  0  0  0  0  0  0  0  0  0  0
  190.4950  177.3180  142.3290 C   0  0  0  0  0  3  0  0  0  0  0  0
  184.9230  179.3770  139.6310 C   0  0  0  0  0  2  0  0  0  0  0  0
  182.7750  175.3820  135.8800 C   0  0  2  0  0  3  0  0  0  0  0  0
  185.0670  177.4900  137.9620 N   0  0  0  0  0  2  0  0  0  0  0  0
  185.1480  174.8500  135.3610 C   0  0  0  0  0  3  0  0  0  0  0  0
  183.0440  178.5970  138.4010 O   0  0  0  0  0  0  0  0  0  0  0  0
  181.5790  175.7940  135.3240 F   0  0  0  0  0  0  0  0  0  0  0  0
  184.2790  178.4870  138.6240 C   0  0  0  0  0  0  0  0  0  0  0  0
  183.3090  176.4340  136.7490 N   0  0  0  0  0  0  0  0  0  0  0  0
  185.5330  175.5820  136.4080 C   0  0  0  0  0  3  0  0  0  0  0  0
  184.5770  176.5080  137.0430 C   0  0  0  0  0  0  0  0  0  0  0  0
  183.7750  175.0300  134.7750 C   0  0  0  0  0  2  0  0  0  0  0  0
  1  9  1  0  0  0  0
  2  3  1  0  0  0  0
  2  5  1  0  0  0  0
  3  7  1  0  0  0  0
  5 14  1  1  0  0  0
  6  1  1  0  0  0  0
  7  4  2  0  0  0  0
  8 13  1  0  0  0  0
  8 12  1  0  0  0  0
 10 19  1  0  0  0  0
 13  2  2  0  0  0  0
 14  1  2  0  0  0  0
 15 11  1  0  0  0  0
 15  4  1  0  0  0  0
 16 12  1  6  0  0  0
 16  5  1  0  0  0  0
 16 17  1  0  0  0  0
 17  6  1  0  0  0  0
 18 10  2  0  0  0  0
 18 13  1  0  0  0  0
 19 20  1  0  0  0  0
 19  3  2  0  0  0  0
 20 15  2  0  0  0  0
 21  8  1  0  0  0  0
 22 26  1  6  0  0  0
 22 28  1  0  0  0  0
 23 27  1  0  0  0  0
 24 29  2  0  0  0  0
 25 27  2  0  0  0  0
 27 21  1  0  0  0  0
 28 30  2  0  0  0  0
 29 30  1  0  0  0  0
 30 23  1  0  0  0  0
 31 24  1  0  0  0  0
 31 22  1  0  0  0  0
M  END
>  <MODEL>
7

>  <REMARK>
 VINA RESULT:      -9.3      2.672      3.421
  Name = 
  2 active torsions:
  status: ('A' for Active; 'I' for Inactive)
    1  A    between atoms: C_9  and  C_23
    2  A    between atoms: N_15  and  C_23
                            x       y       z     vdW  Elec       q    Type
                         _______ _______ _______ _____ _____    ______ ____

>  <TORSDO>
F 2

$$$$
=
 OpenBabel11052413013D

 31 35  0  0  1  0  0  0  0  0999 V2000
  186.5950  178.6370  140.4390 C   0  0  0  0  0  0  0  0  0  0  0  0
  189.4650  177.5670  142.6590 C   0  0  0  0  0  0  0  0  0  0  0  0
  188.9700  177.5520  143.9920 C   0  0  0  0  0  0  0  0  0  0  0  0
  187.1350  177.3960  145.5890 C   0  0  0  0  0  3  0  0  0  0  0  0
  188.5470  177.4520  141.4400 C   0  0  1  0  0  3  0  0  0  0  0  0
  187.0790  178.3380  139.0380 C   0  0  0  0  0  2  0  0  0  0  0  0
  187.6020  177.3950  144.2730 C   0  0  0  0  0  3  0  0  0  0  0  0
  191.4160  177.4400  141.1280 N   0  0  0  0  0  0  0  0  0  0  0  0
  185.4220  179.3600  140.6010 O   0  0  0  0  0  1  0  0  0  0  0  0
  191.2410  177.7670  144.8500 C   0  0  0  0  0  3  0  0  0  0  0  0
  187.5750  177.5540  147.9250 F   0  0  0  0  0  0  0  0  0  0  0  0
  190.5580  177.0120  140.0330 C   0  0  0  0  0  2  0  0  0  0  0  0
  190.8720  177.5760  142.4580 C   0  0  0  0  0  0  0  0  0  0  0  0
  187.2940  178.2850  141.5270 C   0  0  0  0  0  3  0  0  0  0  0  0
  188.0290  177.5520  146.6490 C   0  0  0  0  0  0  0  0  0  0  0  0
  189.2580  177.7800  140.1240 C   0  0  1  0  0  3  0  0  0  0  0  0
  188.3170  177.4340  138.9810 C   0  0  0  0  0  2  0  0  0  0  0  0
  191.7360  177.7020  143.5530 C   0  0  0  0  0  3  0  0  0  0  0  0
  189.8700  177.6790  145.0800 C   0  0  0  0  0  0  0  0  0  0  0  0
  189.3960  177.6870  146.3950 C   0  0  0  0  0  3  0  0  0  0  0  0
  192.7760  177.8650  140.8180 C   0  0  0  0  0  2  0  0  0  0  0  0
  194.8920  174.7100  136.3210 C   0  0  2  0  0  3  0  0  0  0  0  0
  192.6890  176.7630  138.5490 N   0  0  0  0  0  2  0  0  0  0  0  0
  192.6280  174.9410  135.3200 C   0  0  0  0  0  3  0  0  0  0  0  0
  194.4830  176.4120  140.0220 O   0  0  0  0  0  0  0  0  0  0  0  0
  195.8360  173.7910  136.7410 F   0  0  0  0  0  0  0  0  0  0  0  0
  193.3700  176.9590  139.7940 C   0  0  0  0  0  0  0  0  0  0  0  0
  194.3410  175.4210  137.4780 N   0  0  0  0  0  0  0  0  0  0  0  0
  192.3220  175.8560  136.2430 C   0  0  0  0  0  3  0  0  0  0  0  0
  193.1740  175.9990  137.4390 C   0  0  0  0  0  0  0  0  0  0  0  0
  193.7830  174.0030  135.5380 C   0  0  0  0  0  2  0  0  0  0  0  0
  1  9  1  0  0  0  0
  1 14  2  0  0  0  0
  2  3  1  0  0  0  0
  3  7  2  0  0  0  0
  3 19  1  0  0  0  0
  4 15  2  0  0  0  0
  5 14  1  1  0  0  0
  5  2  1  0  0  0  0
  6  1  1  0  0  0  0
  7  4  1  0  0  0  0
  8 13  1  0  0  0  0
 10 19  1  0  0  0  0
 12 16  1  0  0  0  0
 12  8  1  0  0  0  0
 13  2  2  0  0  0  0
 13 18  1  0  0  0  0
 15 11  1  0  0  0  0
 16 17  1  6  0  0  0
 16  5  1  0  0  0  0
 17  6  1  0  0  0  0
 18 10  2  0  0  0  0
 19 20  2  0  0  0  0
 20 15  1  0  0  0  0
 21  8  1  0  0  0  0
 22 26  1  1  0  0  0
 22 28  1  0  0  0  0
 23 27  1  0  0  0  0
 24 31  1  0  0  0  0
 24 29  2  0  0  0  0
 27 25  2  0  0  0  0
 27 21  1  0  0  0  0
 29 30  1  0  0  0  0
 30 28  2  0  0  0  0
 30 23  1  0  0  0  0
 31 22  1  0  0  0  0
M  END
>  <MODEL>
8

>  <REMARK>
 VINA RESULT:      -9.1      3.647      4.890
  Name = 
  2 active torsions:
  status: ('A' for Active; 'I' for Inactive)
    1  A    between atoms: C_9  and  C_23
    2  A    between atoms: N_15  and  C_23
                            x       y       z     vdW  Elec       q    Type
                         _______ _______ _______ _____ _____    ______ ____

>  <TORSDO>
F 2

$$$$
=
 OpenBabel11052413013D

 31 35  0  0  1  0  0  0  0  0999 V2000
  183.7660  179.1230  143.4590 C   0  0  0  0  0  0  0  0  0  0  0  0
  187.3930  178.0480  143.4900 C   0  0  0  0  0  0  0  0  0  0  0  0
  187.7590  177.8780  144.8530 C   0  0  0  0  0  0  0  0  0  0  0  0
  187.1860  177.4550  147.1850 C   0  0  0  0  0  3  0  0  0  0  0  0
  185.9390  177.9840  143.0150 C   0  0  1  0  0  3  0  0  0  0  0  0
  183.3510  178.9870  142.0120 C   0  0  0  0  0  2  0  0  0  0  0  0
  186.8060  177.6060  145.8490 C   0  0  0  0  0  3  0  0  0  0  0  0
  188.1000  178.1920  141.1140 N   0  0  0  0  0  0  0  0  0  0  0  0
  182.9010  179.7490  144.3460 O   0  0  0  0  0  1  0  0  0  0  0  0
  190.1090  178.1640  144.2690 C   0  0  0  0  0  3  0  0  0  0  0  0
  188.8960  177.4280  148.8430 F   0  0  0  0  0  0  0  0  0  0  0  0
  186.7670  177.8090  140.6700 C   0  0  0  0  0  2  0  0  0  0  0  0
  188.4240  178.1690  142.5190 C   0  0  0  0  0  0  0  0  0  0  0  0
  184.9660  178.7200  143.8990 C   0  0  0  0  0  3  0  0  0  0  0  0
  188.5280  177.5730  147.5470 C   0  0  0  0  0  0  0  0  0  0  0  0
  185.7570  178.4780  141.5770 C   0  0  1  0  0  3  0  0  0  0  0  0
  184.3300  178.1760  141.1520 C   0  0  0  0  0  2  0  0  0  0  0  0
  189.7630  178.2520  142.9250 C   0  0  0  0  0  3  0  0  0  0  0  0
  189.1230  177.9640  145.2320 C   0  0  0  0  0  0  0  0  0  0  0  0
  189.4960  177.8210  146.5720 C   0  0  0  0  0  3  0  0  0  0  0  0
  189.0290  178.7320  140.1290 C   0  0  0  0  0  2  0  0  0  0  0  0
  191.9780  174.5440  137.2260 C   0  0  2  0  0  3  0  0  0  0  0  0
  189.2960  176.8390  138.4810 N   0  0  0  0  0  2  0  0  0  0  0  0
  189.7810  173.9280  136.2360 C   0  0  0  0  0  3  0  0  0  0  0  0
  191.0190  177.4410  139.9560 O   0  0  0  0  0  0  0  0  0  0  0  0
  193.0400  174.0620  137.9670 F   0  0  0  0  0  0  0  0  0  0  0  0
  189.8450  177.6310  139.5410 C   0  0  0  0  0  0  0  0  0  0  0  0
  191.2300  175.5300  138.0130 N   0  0  0  0  0  0  0  0  0  0  0  0
  189.2550  175.0530  136.7250 C   0  0  0  0  0  3  0  0  0  0  0  0
  189.9830  175.8120  137.7590 C   0  0  0  0  0  0  0  0  0  0  0  0
  191.0690  173.3900  136.7960 C   0  0  0  0  0  2  0  0  0  0  0  0
  1 14  2  0  0  0  0
  1  9  1  0  0  0  0
  2  3  1  0  0  0  0
  3 19  2  0  0  0  0
  3  7  1  0  0  0  0
  4 15  1  0  0  0  0
  5  2  1  0  0  0  0
  5 14  1  1  0  0  0
  6  1  1  0  0  0  0
  7  4  2  0  0  0  0
  8 13  1  0  0  0  0
 10 19  1  0  0  0  0
 12  8  1  0  0  0  0
 13 18  1  0  0  0  0
 13  2  2  0  0  0  0
 15 11  1  0  0  0  0
 16 12  1  6  0  0  0
 16  5  1  0  0  0  0
 17 16  1  0  0  0  0
 17  6  1  0  0  0  0
 18 10  2  0  0  0  0
 19 20  1  0  0  0  0
 20 15  2  0  0  0  0
 21  8  1  0  0  0  0
 22 26  1  1  0  0  0
 22 28  1  0  0  0  0
 23 27  1  0  0  0  0
 24 29  2  0  0  0  0
 24 31  1  0  0  0  0
 27 25  2  0  0  0  0
 27 21  1  0  0  0  0
 29 30  1  0  0  0  0
 30 28  2  0  0  0  0
 30 23  1  0  0  0  0
 31 22  1  0  0  0  0
M  END
>  <MODEL>
9

>  <REMARK>
 VINA RESULT:      -9.0      2.288      2.947
  Name = 
  2 active torsions:
  status: ('A' for Active; 'I' for Inactive)
    1  A    between atoms: C_9  and  C_23
    2  A    between atoms: N_15  and  C_23
                            x       y       z     vdW  Elec       q    Type
                         _______ _______ _______ _____ _____    ______ ____

>  <TORSDO>
F 2

$$$$
