=
 OpenBabel11052416333D

 43 48  0  0  1  0  0  0  0  0999 V2000
  191.0950  177.0550  147.0500 C   0  0  0  0  0  0  0  0  0  0  0  0
  189.3760  177.6970  142.2920 C   0  0  0  0  0  0  0  0  0  0  0  0
  187.3330  177.8680  143.6010 C   0  0  0  0  0  3  0  0  0  0  0  0
  190.9480  177.2950  144.6810 C   0  0  0  0  0  0  0  0  0  0  0  0
  189.6260  176.7800  147.1970 C   0  0  0  0  0  2  0  0  0  0  0  0
  191.8290  177.0900  148.0730 O   0  0  0  0  0  0  0  0  0  0  0  0
  189.4740  177.2860  144.7610 C   0  0  0  0  0  0  0  0  0  0  0  0
  191.6760  177.2230  145.7520 N   0  0  0  0  0  0  0  0  0  0  0  0
  188.8660  177.0880  145.9380 C   0  0  0  0  0  3  0  0  0  0  0  0
  186.6090  178.2120  142.4570 C   0  0  0  0  0  0  0  0  0  0  0  0
  188.7100  177.6060  143.5360 C   0  0  0  0  0  0  0  0  0  0  0  0
  190.8320  177.3140  142.1650 C   0  0  0  0  0  2  0  0  0  0  0  0
  188.6560  178.0370  141.1340 C   0  0  0  0  0  0  0  0  0  0  0  0
  187.2800  178.2910  141.2330 C   0  0  0  0  0  3  0  0  0  0  0  0
  191.5690  177.4920  143.4130 N   0  0  0  0  0  2  0  0  0  0  0  0
  185.1570  178.4750  142.5560 C   0  0  0  0  0  0  0  0  0  0  0  0
  184.5590  179.4300  143.7570 S   0  0  0  0  0  0  0  0  0  0  0  0
  184.2790  177.8890  141.5850 N   0  0  0  0  0  2  0  0  0  0  0  0
  183.3780  177.7790  139.0970 O   0  0  0  0  0  0  0  0  0  0  0  0
  183.5770  178.7330  140.2410 S   0  0  0  0  0  0  0  0  0  0  0  0
  184.4930  179.8490  139.8220 O   0  0  0  0  0  0  0  0  0  0  0  0
  181.9940  179.4180  140.7540 C   0  0  2  0  0  3  0  0  0  0  0  0
  180.1650  178.1930  139.1690 S   0  0  0  0  0  0  0  0  0  0  0  0
  181.2790  178.4320  141.6520 C   0  0  0  0  0  2  0  0  0  0  0  0
  181.0240  179.7360  139.6130 C   0  0  1  0  0  0  0  0  0  0  0  0
  180.0860  180.6320  140.0890 F   0  0  0  0  0  0  0  0  0  0  0  0
  180.5620  177.4230  140.7750 C   0  0  0  0  0  2  0  0  0  0  0  0
  181.7150  180.3550  138.3980 C   0  0  0  0  0  2  0  0  0  0  0  0
  180.8830  181.3890  137.8000 N   0  0  0  0  0  0  0  0  0  0  0  0
  180.9830  183.7520  137.0690 C   0  0  0  0  0  2  0  0  0  0  0  0
  180.1210  182.2490  135.6120 C   0  0  0  0  0  2  0  0  0  0  0  0
  179.7850  183.3080  136.4800 O   0  0  0  0  0  0  0  0  0  0  0  0
  180.7660  181.0790  136.3750 C   0  0  0  0  0  2  0  0  0  0  0  0
  181.5870  182.6650  137.9710 C   0  0  0  0  0  2  0  0  0  0  0  0
  189.3260  178.0730  139.8960 O   0  0  0  0  0  0  0  0  0  0  0  0
  188.0730  176.1670  136.9440 C   0  0  0  0  0  3  0  0  0  0  0  0
  189.1200  175.2540  136.7730 C   0  0  0  0  0  0  0  0  0  0  0  0
  190.2650  176.2280  138.6750 C   0  0  0  0  0  3  0  0  0  0  0  0
  188.1240  177.1030  137.9790 C   0  0  0  0  0  3  0  0  0  0  0  0
  189.2200  177.1370  138.8570 C   0  0  0  0  0  0  0  0  0  0  0  0
  190.2160  175.2900  137.6400 C   0  0  0  0  0  3  0  0  0  0  0  0
  188.0090  173.6670  135.3390 N   0  0  0  0  0  2  0  0  0  0  0  0
  189.1010  174.2640  135.6870 C   0  0  0  0  0  3  0  0  0  0  0  0
  1  5  1  0  0  0  0
  1  6  2  0  0  0  0
  2 11  1  0  0  0  0
  4  7  1  0  0  0  0
  4  8  2  0  0  0  0
  7  9  2  0  0  0  0
  8  1  1  0  0  0  0
  9  5  1  0  0  0  0
 10 16  1  0  0  0  0
 10  3  1  0  0  0  0
 11  3  2  0  0  0  0
 11  7  1  0  0  0  0
 12  2  1  0  0  0  0
 12 15  1  0  0  0  0
 13 14  1  0  0  0  0
 13  2  2  0  0  0  0
 14 10  2  0  0  0  0
 15  4  1  0  0  0  0
 16 17  2  0  0  0  0
 18 16  1  0  0  0  0
 19 20  2  0  0  0  0
 20 18  1  0  0  0  0
 21 20  2  0  0  0  0
 22 20  1  6  0  0  0
 22 24  1  0  0  0  0
 23 25  1  0  0  0  0
 23 27  1  0  0  0  0
 25 26  1  1  0  0  0
 25 22  1  0  0  0  0
 27 24  1  0  0  0  0
 28 25  1  0  0  0  0
 29 34  1  0  0  0  0
 29 28  1  0  0  0  0
 30 34  1  0  0  0  0
 31 33  1  0  0  0  0
 31 32  1  0  0  0  0
 32 30  1  0  0  0  0
 33 29  1  0  0  0  0
 35 13  1  0  0  0  0
 36 39  1  0  0  0  0
 37 36  2  0  0  0  0
 37 41  1  0  0  0  0
 38 40  1  0  0  0  0
 39 40  2  0  0  0  0
 40 35  1  0  0  0  0
 41 38  2  0  0  0  0
 42 43  2  0  0  0  0
 43 37  1  0  0  0  0
M  END
>  <MODEL>
1

>  <REMARK>
 VINA RESULT:      -9.2      0.000      0.000
  Name = 
  9 active torsions:
  status: ('A' for Active; 'I' for Inactive)
    1  A    between atoms: O_1  and  C_34
    2  A    between atoms: O_1  and  C_35
    3  A    between atoms: C_2  and  N_6
    4  A    between atoms: C_2  and  C_27
    5  A    between atoms: C_4  and  S_12
    6  A    between atoms: N_6  and  S_12
    7  A    between atoms: N_11  and  C_14
    8  A    between atoms: C_14  and  C_22
    9  A    between atoms: C_19  and  C_37
                            x       y       z     vdW  Elec       q    Type
                         _______ _______ _______ _____ _____    ______ ____

>  <TORSDO>
F 9

$$$$
=
 OpenBabel11052416333D

 43 48  0  0  1  0  0  0  0  0999 V2000
  191.3470  176.2080  147.2190 C   0  0  0  0  0  0  0  0  0  0  0  0
  187.3660  177.9310  144.5400 C   0  0  0  0  0  0  0  0  0  0  0  0
  189.0320  177.5720  142.8050 C   0  0  0  0  0  3  0  0  0  0  0  0
  189.1970  177.0170  146.5770 C   0  0  0  0  0  0  0  0  0  0  0  0
  191.9860  176.6390  145.9310 C   0  0  0  0  0  2  0  0  0  0  0  0
  192.0390  175.6220  148.0940 O   0  0  0  0  0  0  0  0  0  0  0  0
  189.6810  177.2400  145.2000 C   0  0  0  0  0  0  0  0  0  0  0  0
  189.9720  176.5070  147.4840 N   0  0  0  0  0  0  0  0  0  0  0  0
  190.9670  177.0230  144.8970 C   0  0  0  0  0  3  0  0  0  0  0  0
  188.0920  177.8700  141.8160 C   0  0  0  0  0  0  0  0  0  0  0  0
  188.6880  177.6010  144.1650 C   0  0  0  0  0  0  0  0  0  0  0  0
  186.9890  178.0790  145.9960 C   0  0  0  0  0  2  0  0  0  0  0  0
  186.4120  178.2380  143.5540 C   0  0  0  0  0  0  0  0  0  0  0  0
  186.7890  178.2020  142.2030 C   0  0  0  0  0  3  0  0  0  0  0  0
  187.8270  177.2700  146.8760 N   0  0  0  0  0  2  0  0  0  0  0  0
  188.4870  177.8390  140.3910 C   0  0  0  0  0  0  0  0  0  0  0  0
  189.8810  177.0990  139.9250 S   0  0  0  0  0  0  0  0  0  0  0  0
  187.6310  178.4600  139.4210 N   0  0  0  0  0  2  0  0  0  0  0  0
  189.1040  178.6020  137.2250 O   0  0  0  0  0  0  0  0  0  0  0  0
  187.7320  178.2200  137.7070 S   0  0  0  0  0  0  0  0  0  0  0  0
  186.6960  179.0690  137.0230 O   0  0  0  0  0  0  0  0  0  0  0  0
  187.4150  176.4840  137.3490 C   0  0  2  0  0  3  0  0  0  0  0  0
  185.7840  176.5120  135.1820 S   0  0  0  0  0  0  0  0  0  0  0  0
  188.2790  176.0370  136.1890 C   0  0  0  0  0  2  0  0  0  0  0  0
  185.9720  176.1550  136.9580 C   0  0  1  0  0  0  0  0  0  0  0  0
  185.7780  174.8000  137.1490 F   0  0  0  0  0  0  0  0  0  0  0  0
  187.5850  176.4330  134.9000 C   0  0  0  0  0  2  0  0  0  0  0  0
  184.9400  176.9170  137.7880 C   0  0  0  0  0  2  0  0  0  0  0  0
  183.5870  176.5510  137.3960 N   0  0  0  0  0  0  0  0  0  0  0  0
  181.5450  175.4850  138.3020 C   0  0  0  0  0  2  0  0  0  0  0  0
  181.2960  177.4620  137.2290 C   0  0  0  0  0  2  0  0  0  0  0  0
  181.0720  176.0760  137.1160 O   0  0  0  0  0  0  0  0  0  0  0  0
  182.7940  177.7800  137.3820 C   0  0  0  0  0  2  0  0  0  0  0  0
  183.0690  175.6410  138.4230 C   0  0  0  0  0  2  0  0  0  0  0  0
  185.1140  178.6130  143.9480 O   0  0  0  0  0  0  0  0  0  0  0  0
  182.8120  178.2780  141.0320 C   0  0  0  0  0  3  0  0  0  0  0  0
  181.6030  178.6660  141.6200 C   0  0  0  0  0  0  0  0  0  0  0  0
  182.7540  179.0140  143.7260 C   0  0  0  0  0  3  0  0  0  0  0  0
  183.9850  178.2610  141.7880 C   0  0  0  0  0  3  0  0  0  0  0  0
  183.9660  178.6350  143.1420 C   0  0  0  0  0  0  0  0  0  0  0  0
  181.5790  179.0310  142.9700 C   0  0  0  0  0  3  0  0  0  0  0  0
  179.6780  177.6000  140.6380 N   0  0  0  0  0  2  0  0  0  0  0  0
  180.3500  178.6830  140.8550 C   0  0  0  0  0  3  0  0  0  0  0  0
  1  8  1  0  0  0  0
  1  6  2  0  0  0  0
  2 12  1  0  0  0  0
  3 11  2  0  0  0  0
  4 15  1  0  0  0  0
  4  8  2  0  0  0  0
  5  1  1  0  0  0  0
  7  4  1  0  0  0  0
  9  7  2  0  0  0  0
  9  5  1  0  0  0  0
 10 14  2  0  0  0  0
 10  3  1  0  0  0  0
 11  2  1  0  0  0  0
 11  7  1  0  0  0  0
 12 15  1  0  0  0  0
 13 35  1  0  0  0  0
 13  2  2  0  0  0  0
 14 13  1  0  0  0  0
 16 10  1  0  0  0  0
 17 16  2  0  0  0  0
 18 16  1  0  0  0  0
 19 20  2  0  0  0  0
 20 18  1  0  0  0  0
 21 20  2  0  0  0  0
 22 20  1  6  0  0  0
 23 25  1  0  0  0  0
 24 22  1  0  0  0  0
 25 26  1  1  0  0  0
 25 22  1  0  0  0  0
 25 28  1  0  0  0  0
 27 23  1  0  0  0  0
 27 24  1  0  0  0  0
 29 28  1  0  0  0  0
 29 34  1  0  0  0  0
 30 34  1  0  0  0  0
 31 33  1  0  0  0  0
 32 31  1  0  0  0  0
 32 30  1  0  0  0  0
 33 29  1  0  0  0  0
 36 37  2  0  0  0  0
 36 39  1  0  0  0  0
 37 41  1  0  0  0  0
 39 40  2  0  0  0  0
 40 38  1  0  0  0  0
 40 35  1  0  0  0  0
 41 38  2  0  0  0  0
 42 43  2  0  0  0  0
 43 37  1  0  0  0  0
M  END
>  <MODEL>
2

>  <REMARK>
 VINA RESULT:      -9.1      3.557      6.153
  Name = 
  9 active torsions:
  status: ('A' for Active; 'I' for Inactive)
    1  A    between atoms: O_1  and  C_34
    2  A    between atoms: O_1  and  C_35
    3  A    between atoms: C_2  and  N_6
    4  A    between atoms: C_2  and  C_27
    5  A    between atoms: C_4  and  S_12
    6  A    between atoms: N_6  and  S_12
    7  A    between atoms: N_11  and  C_14
    8  A    between atoms: C_14  and  C_22
    9  A    between atoms: C_19  and  C_37
                            x       y       z     vdW  Elec       q    Type
                         _______ _______ _______ _____ _____    ______ ____

>  <TORSDO>
F 9

$$$$
=
 OpenBabel11052416333D

 43 48  0  0  1  0  0  0  0  0999 V2000
  191.0980  176.9440  146.9490 C   0  0  0  0  0  0  0  0  0  0  0  0
  189.4630  177.7380  142.1850 C   0  0  0  0  0  0  0  0  0  0  0  0
  187.4200  178.0010  143.4770 C   0  0  0  0  0  3  0  0  0  0  0  0
  190.9880  177.2220  144.5820 C   0  0  0  0  0  0  0  0  0  0  0  0
  189.6160  176.7450  147.0790 C   0  0  0  0  0  2  0  0  0  0  0  0
  191.8230  176.9260  147.9790 O   0  0  0  0  0  0  0  0  0  0  0  0
  189.5150  177.2900  144.6490 C   0  0  0  0  0  0  0  0  0  0  0  0
  191.7010  177.0970  145.6590 N   0  0  0  0  0  0  0  0  0  0  0  0
  188.8860  177.1100  145.8170 C   0  0  0  0  0  3  0  0  0  0  0  0
  186.7250  178.3980  142.3320 C   0  0  0  0  0  0  0  0  0  0  0  0
  188.7810  177.6660  143.4220 C   0  0  0  0  0  0  0  0  0  0  0  0
  190.8980  177.2800  142.0660 C   0  0  0  0  0  2  0  0  0  0  0  0
  188.7740  178.1310  141.0250 C   0  0  0  0  0  0  0  0  0  0  0  0
  187.4120  178.4570  141.1150 C   0  0  0  0  0  3  0  0  0  0  0  0
  191.6310  177.4020  143.3230 N   0  0  0  0  0  2  0  0  0  0  0  0
  185.2880  178.7370  142.4210 C   0  0  0  0  0  0  0  0  0  0  0  0
  184.4780  178.5770  143.8460 S   0  0  0  0  0  0  0  0  0  0  0  0
  184.6140  179.2130  141.2480 N   0  0  0  0  0  2  0  0  0  0  0  0
  181.9840  178.9080  141.2930 O   0  0  0  0  0  0  0  0  0  0  0  0
  183.2120  178.4780  140.5400 S   0  0  0  0  0  0  0  0  0  0  0  0
  183.3500  176.9820  140.6010 O   0  0  0  0  0  0  0  0  0  0  0  0
  183.0940  178.9990  138.8210 C   0  0  2  0  0  3  0  0  0  0  0  0
  180.4310  179.1140  138.3150 S   0  0  0  0  0  0  0  0  0  0  0  0
  182.7590  180.4730  138.7570 C   0  0  0  0  0  2  0  0  0  0  0  0
  182.0200  178.2830  137.9970 C   0  0  1  0  0  0  0  0  0  0  0  0
  182.3320  178.4420  136.6610 F   0  0  0  0  0  0  0  0  0  0  0  0
  181.2580  180.6270  138.9110 C   0  0  0  0  0  2  0  0  0  0  0  0
  181.9330  176.7870  138.3020 C   0  0  0  0  0  2  0  0  0  0  0  0
  182.2930  175.9980  137.1330 N   0  0  0  0  0  0  0  0  0  0  0  0
  183.6690  174.0470  136.4810 C   0  0  0  0  0  2  0  0  0  0  0  0
  181.5240  174.0930  135.7600 C   0  0  0  0  0  2  0  0  0  0  0  0
  182.8630  174.2370  135.3440 O   0  0  0  0  0  0  0  0  0  0  0  0
  181.1480  175.1430  136.8200 C   0  0  0  0  0  2  0  0  0  0  0  0
  183.4420  175.1660  137.5080 C   0  0  0  0  0  2  0  0  0  0  0  0
  189.4560  178.1470  139.7940 O   0  0  0  0  0  0  0  0  0  0  0  0
  188.2610  178.2430  136.2610 C   0  0  0  0  0  3  0  0  0  0  0  0
  187.9600  176.8910  136.0620 C   0  0  0  0  0  0  0  0  0  0  0  0
  188.6500  176.4140  138.3370 C   0  0  0  0  0  3  0  0  0  0  0  0
  188.7520  178.6760  137.4950 C   0  0  0  0  0  3  0  0  0  0  0  0
  188.9450  177.7640  138.5460 C   0  0  0  0  0  0  0  0  0  0  0  0
  188.1590  175.9790  137.1030 C   0  0  0  0  0  3  0  0  0  0  0  0
  186.5010  175.5300  134.7100 N   0  0  0  0  0  2  0  0  0  0  0  0
  187.4530  176.4020  134.7730 C   0  0  0  0  0  3  0  0  0  0  0  0
  1  5  1  0  0  0  0
  1  6  2  0  0  0  0
  2 11  1  0  0  0  0
  4  7  1  0  0  0  0
  4  8  2  0  0  0  0
  7  9  2  0  0  0  0
  8  1  1  0  0  0  0
  9  5  1  0  0  0  0
 10 16  1  0  0  0  0
 10  3  1  0  0  0  0
 11  3  2  0  0  0  0
 11  7  1  0  0  0  0
 12  2  1  0  0  0  0
 12 15  1  0  0  0  0
 13 14  1  0  0  0  0
 13  2  2  0  0  0  0
 14 10  2  0  0  0  0
 15  4  1  0  0  0  0
 16 17  2  0  0  0  0
 18 16  1  0  0  0  0
 20 21  2  0  0  0  0
 20 18  1  0  0  0  0
 20 19  2  0  0  0  0
 22 20  1  1  0  0  0
 23 27  1  0  0  0  0
 24 22  1  0  0  0  0
 24 27  1  0  0  0  0
 25 26  1  6  0  0  0
 25 28  1  0  0  0  0
 25 23  1  0  0  0  0
 25 22  1  0  0  0  0
 29 34  1  0  0  0  0
 29 28  1  0  0  0  0
 30 34  1  0  0  0  0
 31 33  1  0  0  0  0
 32 31  1  0  0  0  0
 32 30  1  0  0  0  0
 33 29  1  0  0  0  0
 35 13  1  0  0  0  0
 36 39  1  0  0  0  0
 37 36  2  0  0  0  0
 37 41  1  0  0  0  0
 38 40  1  0  0  0  0
 39 40  2  0  0  0  0
 40 35  1  0  0  0  0
 41 38  2  0  0  0  0
 42 43  2  0  0  0  0
 43 37  1  0  0  0  0
M  END
>  <MODEL>
3

>  <REMARK>
 VINA RESULT:      -8.6      2.349      3.487
  Name = 
  9 active torsions:
  status: ('A' for Active; 'I' for Inactive)
    1  A    between atoms: O_1  and  C_34
    2  A    between atoms: O_1  and  C_35
    3  A    between atoms: C_2  and  N_6
    4  A    between atoms: C_2  and  C_27
    5  A    between atoms: C_4  and  S_12
    6  A    between atoms: N_6  and  S_12
    7  A    between atoms: N_11  and  C_14
    8  A    between atoms: C_14  and  C_22
    9  A    between atoms: C_19  and  C_37
                            x       y       z     vdW  Elec       q    Type
                         _______ _______ _______ _____ _____    ______ ____

>  <TORSDO>
F 9

$$$$
=
 OpenBabel11052416333D

 43 48  0  0  1  0  0  0  0  0999 V2000
  189.4810  177.4050  146.8560 C   0  0  0  0  0  0  0  0  0  0  0  0
  187.5260  178.2530  142.2240 C   0  0  0  0  0  0  0  0  0  0  0  0
  185.5360  178.2320  143.6220 C   0  0  0  0  0  3  0  0  0  0  0  0
  189.2190  177.7860  144.5160 C   0  0  0  0  0  0  0  0  0  0  0  0
  188.0360  177.0440  147.0440 C   0  0  0  0  0  2  0  0  0  0  0  0
  190.2560  177.4140  147.8490 O   0  0  0  0  0  0  0  0  0  0  0  0
  187.7520  177.6930  144.6550 C   0  0  0  0  0  0  0  0  0  0  0  0
  189.9960  177.6850  145.5500 N   0  0  0  0  0  0  0  0  0  0  0  0
  187.2070  177.3900  145.8400 C   0  0  0  0  0  3  0  0  0  0  0  0
  184.7460  178.6090  142.5340 C   0  0  0  0  0  0  0  0  0  0  0  0
  186.9200  178.0480  143.4850 C   0  0  0  0  0  0  0  0  0  0  0  0
  188.9920  177.9570  142.0130 C   0  0  0  0  0  2  0  0  0  0  0  0
  186.7400  178.6260  141.1200 C   0  0  0  0  0  0  0  0  0  0  0  0
  185.3580  178.8000  141.2910 C   0  0  0  0  0  3  0  0  0  0  0  0
  189.7730  178.0950  143.2400 N   0  0  0  0  0  2  0  0  0  0  0  0
  183.2880  178.7880  142.7080 C   0  0  0  0  0  0  0  0  0  0  0  0
  182.6460  179.0050  144.2080 S   0  0  0  0  0  0  0  0  0  0  0  0
  182.4450  178.7740  141.5480 N   0  0  0  0  0  2  0  0  0  0  0  0
  180.3150  180.2750  142.0190 O   0  0  0  0  0  0  0  0  0  0  0  0
  180.7150  178.8970  141.5740 S   0  0  0  0  0  0  0  0  0  0  0  0
  180.1580  177.8720  142.5230 O   0  0  0  0  0  0  0  0  0  0  0  0
  180.0890  178.5800  139.9160 C   0  0  2  0  0  3  0  0  0  0  0  0
  182.3080  178.3580  138.3710 S   0  0  0  0  0  0  0  0  0  0  0  0
  180.2120  177.1060  139.5980 C   0  0  0  0  0  2  0  0  0  0  0  0
  180.8210  179.3210  138.7940 C   0  0  1  0  0  0  0  0  0  0  0  0
  179.9920  179.3440  137.6880 F   0  0  0  0  0  0  0  0  0  0  0  0
  181.6260  176.8390  139.1190 C   0  0  0  0  0  2  0  0  0  0  0  0
  181.1800  180.7600  139.1630 C   0  0  0  0  0  2  0  0  0  0  0  0
  180.6320  181.6960  138.1930 N   0  0  0  0  0  0  0  0  0  0  0  0
  179.0150  183.5640  138.0260 C   0  0  0  0  0  2  0  0  0  0  0  0
  181.0730  183.8880  137.1400 C   0  0  0  0  0  2  0  0  0  0  0  0
  179.7200  183.6690  136.8130 O   0  0  0  0  0  0  0  0  0  0  0  0
  181.6520  182.7170  137.9540 C   0  0  0  0  0  2  0  0  0  0  0  0
  179.4510  182.3140  138.8070 C   0  0  0  0  0  2  0  0  0  0  0  0
  187.3530  178.7760  139.8610 O   0  0  0  0  0  0  0  0  0  0  0  0
  186.1540  177.0840  136.7600 C   0  0  0  0  0  3  0  0  0  0  0  0
  187.1650  176.1320  136.5870 C   0  0  0  0  0  0  0  0  0  0  0  0
  188.2640  176.9530  138.5860 C   0  0  0  0  0  3  0  0  0  0  0  0
  186.1980  177.9630  137.8440 C   0  0  0  0  0  3  0  0  0  0  0  0
  187.2530  177.9000  138.7700 C   0  0  0  0  0  0  0  0  0  0  0  0
  188.2210  176.0730  137.5020 C   0  0  0  0  0  3  0  0  0  0  0  0
  188.2510  174.7700  134.9210 N   0  0  0  0  0  2  0  0  0  0  0  0
  187.1530  175.2020  135.4510 C   0  0  0  0  0  3  0  0  0  0  0  0
  1  5  1  0  0  0  0
  1  6  2  0  0  0  0
  2 11  1  0  0  0  0
  4  7  1  0  0  0  0
  4  8  2  0  0  0  0
  7  9  2  0  0  0  0
  8  1  1  0  0  0  0
  9  5  1  0  0  0  0
 10 16  1  0  0  0  0
 10  3  1  0  0  0  0
 11  3  2  0  0  0  0
 11  7  1  0  0  0  0
 12  2  1  0  0  0  0
 12 15  1  0  0  0  0
 13 14  1  0  0  0  0
 13  2  2  0  0  0  0
 14 10  2  0  0  0  0
 15  4  1  0  0  0  0
 16 17  2  0  0  0  0
 18 20  1  0  0  0  0
 18 16  1  0  0  0  0
 20 19  2  0  0  0  0
 20 21  2  0  0  0  0
 22 20  1  1  0  0  0
 23 25  1  0  0  0  0
 23 27  1  0  0  0  0
 24 22  1  0  0  0  0
 25 26  1  6  0  0  0
 25 28  1  0  0  0  0
 25 22  1  0  0  0  0
 27 24  1  0  0  0  0
 29 34  1  0  0  0  0
 29 28  1  0  0  0  0
 30 34  1  0  0  0  0
 31 33  1  0  0  0  0
 32 31  1  0  0  0  0
 32 30  1  0  0  0  0
 33 29  1  0  0  0  0
 35 13  1  0  0  0  0
 36 39  1  0  0  0  0
 37 36  2  0  0  0  0
 37 41  1  0  0  0  0
 38 40  1  0  0  0  0
 39 40  2  0  0  0  0
 40 35  1  0  0  0  0
 41 38  2  0  0  0  0
 42 43  2  0  0  0  0
 43 37  1  0  0  0  0
M  END
>  <MODEL>
4

>  <REMARK>
 VINA RESULT:      -8.5      1.808      2.248
  Name = 
  9 active torsions:
  status: ('A' for Active; 'I' for Inactive)
    1  A    between atoms: O_1  and  C_34
    2  A    between atoms: O_1  and  C_35
    3  A    between atoms: C_2  and  N_6
    4  A    between atoms: C_2  and  C_27
    5  A    between atoms: C_4  and  S_12
    6  A    between atoms: N_6  and  S_12
    7  A    between atoms: N_11  and  C_14
    8  A    between atoms: C_14  and  C_22
    9  A    between atoms: C_19  and  C_37
                            x       y       z     vdW  Elec       q    Type
                         _______ _______ _______ _____ _____    ______ ____

>  <TORSDO>
F 9

$$$$
=
 OpenBabel11052416333D

 43 48  0  0  1  0  0  0  0  0999 V2000
  187.9710  177.1570  147.0750 C   0  0  0  0  0  0  0  0  0  0  0  0
  186.5490  178.5830  142.3910 C   0  0  0  0  0  0  0  0  0  0  0  0
  188.7100  177.5490  141.9750 C   0  0  0  0  0  3  0  0  0  0  0  0
  186.7570  178.0320  145.2170 C   0  0  0  0  0  0  0  0  0  0  0  0
  189.2690  177.1310  146.3210 C   0  0  0  0  0  2  0  0  0  0  0  0
  187.9320  176.7490  148.2650 O   0  0  0  0  0  0  0  0  0  0  0  0
  187.9200  177.8050  144.3370 C   0  0  0  0  0  0  0  0  0  0  0  0
  186.7890  177.6940  146.4690 N   0  0  0  0  0  0  0  0  0  0  0  0
  189.0690  177.3470  144.8480 C   0  0  0  0  0  3  0  0  0  0  0  0
  188.5300  177.6830  140.5970 C   0  0  0  0  0  0  0  0  0  0  0  0
  187.7360  177.9930  142.8820 C   0  0  0  0  0  0  0  0  0  0  0  0
  185.5300  179.1730  143.3370 C   0  0  0  0  0  2  0  0  0  0  0  0
  186.3590  178.7290  141.0060 C   0  0  0  0  0  0  0  0  0  0  0  0
  187.3530  178.2760  140.1260 C   0  0  0  0  0  3  0  0  0  0  0  0
  185.5490  178.5350  144.6500 N   0  0  0  0  0  2  0  0  0  0  0  0
  189.5790  177.2110  139.6660 C   0  0  0  0  0  0  0  0  0  0  0  0
  191.1540  177.1570  140.1410 S   0  0  0  0  0  0  0  0  0  0  0  0
  189.1990  176.7970  138.3470 N   0  0  0  0  0  2  0  0  0  0  0  0
  190.3890  174.4650  137.9480 O   0  0  0  0  0  0  0  0  0  0  0  0
  190.1610  175.8030  137.3010 S   0  0  0  0  0  0  0  0  0  0  0  0
  191.4800  176.4780  137.0480 O   0  0  0  0  0  0  0  0  0  0  0  0
  189.2870  175.5920  135.7410 C   0  0  2  0  0  3  0  0  0  0  0  0
  187.4440  177.5810  135.7080 S   0  0  0  0  0  0  0  0  0  0  0  0
  189.7970  176.5960  134.7310 C   0  0  0  0  0  2  0  0  0  0  0  0
  187.7710  175.7930  135.8140 C   0  0  1  0  0  0  0  0  0  0  0  0
  187.2070  175.1830  134.7110 F   0  0  0  0  0  0  0  0  0  0  0  0
  189.0760  177.9100  134.9620 C   0  0  0  0  0  2  0  0  0  0  0  0
  187.1490  175.1910  137.0740 C   0  0  0  0  0  2  0  0  0  0  0  0
  185.9320  174.4610  136.7530 N   0  0  0  0  0  0  0  0  0  0  0  0
  184.5890  172.5280  137.5220 C   0  0  0  0  0  2  0  0  0  0  0  0
  183.4930  174.4730  137.1500 C   0  0  0  0  0  2  0  0  0  0  0  0
  183.7030  173.1760  136.6420 O   0  0  0  0  0  0  0  0  0  0  0  0
  184.8060  175.2720  137.2140 C   0  0  0  0  0  2  0  0  0  0  0  0
  185.9710  173.2000  137.5030 C   0  0  0  0  0  2  0  0  0  0  0  0
  185.1930  179.3650  140.5370 O   0  0  0  0  0  0  0  0  0  0  0  0
  182.4900  178.5140  138.1100 C   0  0  0  0  0  3  0  0  0  0  0  0
  181.9020  177.4230  138.7620 C   0  0  0  0  0  0  0  0  0  0  0  0
  183.5030  177.6550  140.5680 C   0  0  0  0  0  3  0  0  0  0  0  0
  183.5780  179.1720  138.6890 C   0  0  0  0  0  3  0  0  0  0  0  0
  184.0900  178.7500  139.9270 C   0  0  0  0  0  0  0  0  0  0  0  0
  182.4150  176.9960  139.9910 C   0  0  0  0  0  3  0  0  0  0  0  0
  180.0350  175.9050  138.8820 N   0  0  0  0  0  2  0  0  0  0  0  0
  180.7650  176.7030  138.1750 C   0  0  0  0  0  3  0  0  0  0  0  0
  1  6  2  0  0  0  0
  2 11  1  0  0  0  0
  2 12  1  0  0  0  0
  3 11  2  0  0  0  0
  4  8  2  0  0  0  0
  5  1  1  0  0  0  0
  7  9  2  0  0  0  0
  7  4  1  0  0  0  0
  8  1  1  0  0  0  0
  9  5  1  0  0  0  0
 10  3  1  0  0  0  0
 11  7  1  0  0  0  0
 12 15  1  0  0  0  0
 13  2  2  0  0  0  0
 14 10  2  0  0  0  0
 14 13  1  0  0  0  0
 15  4  1  0  0  0  0
 16 17  2  0  0  0  0
 16 10  1  0  0  0  0
 18 16  1  0  0  0  0
 20 19  2  0  0  0  0
 20 18  1  0  0  0  0
 21 20  2  0  0  0  0
 22 25  1  0  0  0  0
 22 20  1  1  0  0  0
 23 25  1  0  0  0  0
 24 27  1  0  0  0  0
 24 22  1  0  0  0  0
 25 26  1  6  0  0  0
 25 28  1  0  0  0  0
 27 23  1  0  0  0  0
 29 28  1  0  0  0  0
 29 33  1  0  0  0  0
 29 34  1  0  0  0  0
 31 33  1  0  0  0  0
 32 31  1  0  0  0  0
 32 30  1  0  0  0  0
 34 30  1  0  0  0  0
 35 13  1  0  0  0  0
 36 39  2  0  0  0  0
 36 37  1  0  0  0  0
 37 41  2  0  0  0  0
 39 40  1  0  0  0  0
 40 35  1  0  0  0  0
 40 38  2  0  0  0  0
 41 38  1  0  0  0  0
 43 37  1  0  0  0  0
 43 42  2  0  0  0  0
M  END
>  <MODEL>
5

>  <REMARK>
 VINA RESULT:      -8.5      3.823      7.064
  Name = 
  9 active torsions:
  status: ('A' for Active; 'I' for Inactive)
    1  A    between atoms: O_1  and  C_34
    2  A    between atoms: O_1  and  C_35
    3  A    between atoms: C_2  and  N_6
    4  A    between atoms: C_2  and  C_27
    5  A    between atoms: C_4  and  S_12
    6  A    between atoms: N_6  and  S_12
    7  A    between atoms: N_11  and  C_14
    8  A    between atoms: C_14  and  C_22
    9  A    between atoms: C_19  and  C_37
                            x       y       z     vdW  Elec       q    Type
                         _______ _______ _______ _____ _____    ______ ____

>  <TORSDO>
F 9

$$$$
=
 OpenBabel11052416333D

 43 48  0  0  1  0  0  0  0  0999 V2000
  191.1750  176.7620  146.2900 C   0  0  0  0  0  0  0  0  0  0  0  0
  186.6310  178.1700  144.4550 C   0  0  0  0  0  0  0  0  0  0  0  0
  187.9980  178.1110  142.4450 C   0  0  0  0  0  3  0  0  0  0  0  0
  188.8730  177.3540  146.0810 C   0  0  0  0  0  0  0  0  0  0  0  0
  191.5320  177.3400  144.9520 C   0  0  0  0  0  2  0  0  0  0  0  0
  192.0650  176.2090  146.9890 O   0  0  0  0  0  0  0  0  0  0  0  0
  189.0850  177.7140  144.6650 C   0  0  0  0  0  0  0  0  0  0  0  0
  189.8430  176.8830  146.8030 N   0  0  0  0  0  0  0  0  0  0  0  0
  190.3140  177.6650  144.1350 C   0  0  0  0  0  3  0  0  0  0  0  0
  186.8740  178.3560  141.6520 C   0  0  0  0  0  0  0  0  0  0  0  0
  187.8950  178.0180  143.8410 C   0  0  0  0  0  0  0  0  0  0  0  0
  186.5000  178.1870  145.9600 C   0  0  0  0  0  2  0  0  0  0  0  0
  185.4940  178.4230  143.6690 C   0  0  0  0  0  0  0  0  0  0  0  0
  185.6320  178.5120  142.2750 C   0  0  0  0  0  3  0  0  0  0  0  0
  187.5580  177.4290  146.6230 N   0  0  0  0  0  2  0  0  0  0  0  0
  187.0160  178.4560  140.1830 C   0  0  0  0  0  0  0  0  0  0  0  0
  185.7000  178.3100  139.2040 S   0  0  0  0  0  0  0  0  0  0  0  0
  188.3170  178.6890  139.6270 N   0  0  0  0  0  2  0  0  0  0  0  0
  188.5700  176.1710  138.8480 O   0  0  0  0  0  0  0  0  0  0  0  0
  189.2910  177.4900  138.8390 S   0  0  0  0  0  0  0  0  0  0  0  0
  190.6020  177.3590  139.5640 O   0  0  0  0  0  0  0  0  0  0  0  0
  189.5930  178.0150  137.1440 C   0  0  2  0  0  3  0  0  0  0  0  0
  188.0350  176.3920  135.6290 S   0  0  0  0  0  0  0  0  0  0  0  0
  188.4500  178.8840  136.6690 C   0  0  0  0  0  2  0  0  0  0  0  0
  189.7180  176.8800  136.1250 C   0  0  1  0  0  0  0  0  0  0  0  0
  190.3700  177.3760  135.0120 F   0  0  0  0  0  0  0  0  0  0  0  0
  187.3300  177.9780  136.1920 C   0  0  0  0  0  2  0  0  0  0  0  0
  190.5070  175.6840  136.6570 C   0  0  0  0  0  2  0  0  0  0  0  0
  191.9370  175.9540  136.6350 N   0  0  0  0  0  0  0  0  0  0  0  0
  194.0570  175.1770  137.6500 C   0  0  0  0  0  2  0  0  0  0  0  0
  194.0030  175.3990  135.3980 C   0  0  0  0  0  2  0  0  0  0  0  0
  194.5110  175.9710  136.5810 O   0  0  0  0  0  0  0  0  0  0  0  0
  192.4650  175.3890  135.3930 C   0  0  0  0  0  2  0  0  0  0  0  0
  192.5280  175.2590  137.7840 C   0  0  0  0  0  2  0  0  0  0  0  0
  184.2520  178.6220  144.3020 O   0  0  0  0  0  0  0  0  0  0  0  0
  180.5600  178.6550  143.7690 C   0  0  0  0  0  3  0  0  0  0  0  0
  180.5090  178.7160  142.3710 C   0  0  0  0  0  0  0  0  0  0  0  0
  182.9320  178.7050  142.2940 C   0  0  0  0  0  3  0  0  0  0  0  0
  181.7930  178.6160  144.4230 C   0  0  0  0  0  3  0  0  0  0  0  0
  182.9910  178.6360  143.6890 C   0  0  0  0  0  0  0  0  0  0  0  0
  181.6990  178.7440  141.6380 C   0  0  0  0  0  3  0  0  0  0  0  0
  179.1800  178.8340  140.3640 N   0  0  0  0  0  2  0  0  0  0  0  0
  179.2280  178.7690  141.6540 C   0  0  0  0  0  3  0  0  0  0  0  0
  1  8  1  0  0  0  0
  1  6  2  0  0  0  0
  2 12  1  0  0  0  0
  3 11  2  0  0  0  0
  4 15  1  0  0  0  0
  4  8  2  0  0  0  0
  5  1  1  0  0  0  0
  7  4  1  0  0  0  0
  9  7  2  0  0  0  0
  9  5  1  0  0  0  0
 10 14  2  0  0  0  0
 10  3  1  0  0  0  0
 11  2  1  0  0  0  0
 11  7  1  0  0  0  0
 12 15  1  0  0  0  0
 13 35  1  0  0  0  0
 13  2  2  0  0  0  0
 14 13  1  0  0  0  0
 16 10  1  0  0  0  0
 17 16  2  0  0  0  0
 18 16  1  0  0  0  0
 20 19  2  0  0  0  0
 20 21  2  0  0  0  0
 20 18  1  0  0  0  0
 22 20  1  1  0  0  0
 23 25  1  0  0  0  0
 23 27  1  0  0  0  0
 24 22  1  0  0  0  0
 25 26  1  6  0  0  0
 25 28  1  0  0  0  0
 25 22  1  0  0  0  0
 27 24  1  0  0  0  0
 29 28  1  0  0  0  0
 29 34  1  0  0  0  0
 30 34  1  0  0  0  0
 31 32  1  0  0  0  0
 32 30  1  0  0  0  0
 33 31  1  0  0  0  0
 33 29  1  0  0  0  0
 36 39  1  0  0  0  0
 37 36  2  0  0  0  0
 38 40  1  0  0  0  0
 40 35  1  0  0  0  0
 40 39  2  0  0  0  0
 41 38  2  0  0  0  0
 41 37  1  0  0  0  0
 42 43  2  0  0  0  0
 43 37  1  0  0  0  0
M  END
>  <MODEL>
6

>  <REMARK>
 VINA RESULT:      -8.2      3.917      8.425
  Name = 
  9 active torsions:
  status: ('A' for Active; 'I' for Inactive)
    1  A    between atoms: O_1  and  C_34
    2  A    between atoms: O_1  and  C_35
    3  A    between atoms: C_2  and  N_6
    4  A    between atoms: C_2  and  C_27
    5  A    between atoms: C_4  and  S_12
    6  A    between atoms: N_6  and  S_12
    7  A    between atoms: N_11  and  C_14
    8  A    between atoms: C_14  and  C_22
    9  A    between atoms: C_19  and  C_37
                            x       y       z     vdW  Elec       q    Type
                         _______ _______ _______ _____ _____    ______ ____

>  <TORSDO>
F 9

$$$$
=
 OpenBabel11052416333D

 43 48  0  0  1  0  0  0  0  0999 V2000
  187.8870  177.5010  147.6410 C   0  0  0  0  0  0  0  0  0  0  0  0
  185.9690  178.6630  143.0620 C   0  0  0  0  0  0  0  0  0  0  0  0
  188.1760  177.8150  142.4910 C   0  0  0  0  0  3  0  0  0  0  0  0
  186.4530  178.2120  145.8720 C   0  0  0  0  0  0  0  0  0  0  0  0
  189.1170  177.5710  146.7840 C   0  0  0  0  0  2  0  0  0  0  0  0
  187.9820  177.1240  148.8390 O   0  0  0  0  0  0  0  0  0  0  0  0
  187.5570  178.0650  144.9040 C   0  0  0  0  0  0  0  0  0  0  0  0
  186.6170  177.9130  147.1240 N   0  0  0  0  0  0  0  0  0  0  0  0
  188.7810  177.7260  145.3270 C   0  0  0  0  0  3  0  0  0  0  0  0
  187.8740  177.8940  141.1290 C   0  0  0  0  0  0  0  0  0  0  0  0
  187.2410  178.1960  143.4650 C   0  0  0  0  0  0  0  0  0  0  0  0
  184.9800  179.1860  144.0760 C   0  0  0  0  0  2  0  0  0  0  0  0
  185.6560  178.7530  141.6940 C   0  0  0  0  0  0  0  0  0  0  0  0
  186.6140  178.3660  140.7450 C   0  0  0  0  0  3  0  0  0  0  0  0
  185.1630  178.5880  145.3960 N   0  0  0  0  0  2  0  0  0  0  0  0
  188.8830  177.4920  140.1260 C   0  0  0  0  0  0  0  0  0  0  0  0
  190.4790  177.4290  140.5240 S   0  0  0  0  0  0  0  0  0  0  0  0
  188.4470  177.1540  138.8020 N   0  0  0  0  0  2  0  0  0  0  0  0
  189.4210  179.2870  137.5700 O   0  0  0  0  0  0  0  0  0  0  0  0
  188.3160  178.2720  137.4820 S   0  0  0  0  0  0  0  0  0  0  0  0
  186.9820  178.9620  137.5460 O   0  0  0  0  0  0  0  0  0  0  0  0
  188.4430  177.3560  135.9370 C   0  0  2  0  0  3  0  0  0  0  0  0
  187.0350  175.0780  136.3660 S   0  0  0  0  0  0  0  0  0  0  0  0
  187.1650  177.5170  135.1430 C   0  0  0  0  0  2  0  0  0  0  0  0
  188.6610  175.8490  136.0910 C   0  0  1  0  0  0  0  0  0  0  0  0
  189.1730  175.3680  134.9010 F   0  0  0  0  0  0  0  0  0  0  0  0
  186.1540  176.5120  135.6590 C   0  0  0  0  0  2  0  0  0  0  0  0
  189.6360  175.4990  137.2160 C   0  0  0  0  0  2  0  0  0  0  0  0
  190.9950  175.3900  136.7080 N   0  0  0  0  0  0  0  0  0  0  0  0
  193.3030  176.1250  137.2200 C   0  0  0  0  0  2  0  0  0  0  0  0
  192.9870  173.9280  136.7770 C   0  0  0  0  0  2  0  0  0  0  0  0
  193.5160  175.1250  136.2540 O   0  0  0  0  0  0  0  0  0  0  0  0
  191.4770  174.0510  137.0450 C   0  0  0  0  0  2  0  0  0  0  0  0
  191.8030  176.3950  137.4100 C   0  0  0  0  0  2  0  0  0  0  0  0
  184.4040  179.2680  141.3100 O   0  0  0  0  0  0  0  0  0  0  0  0
  182.2780  178.9140  138.2650 C   0  0  0  0  0  3  0  0  0  0  0  0
  181.8570  177.5860  138.4060 C   0  0  0  0  0  0  0  0  0  0  0  0
  183.1270  177.4150  140.4640 C   0  0  0  0  0  3  0  0  0  0  0  0
  183.1170  179.4870  139.2220 C   0  0  0  0  0  3  0  0  0  0  0  0
  183.5440  178.7430  140.3350 C   0  0  0  0  0  0  0  0  0  0  0  0
  182.2870  176.8400  139.5070 C   0  0  0  0  0  3  0  0  0  0  0  0
  180.3930  175.8270  137.6520 N   0  0  0  0  0  2  0  0  0  0  0  0
  180.9840  176.9510  137.4100 C   0  0  0  0  0  3  0  0  0  0  0  0
  1  6  2  0  0  0  0
  2 11  1  0  0  0  0
  2 12  1  0  0  0  0
  3 11  2  0  0  0  0
  4  8  2  0  0  0  0
  5  1  1  0  0  0  0
  7  9  2  0  0  0  0
  7  4  1  0  0  0  0
  8  1  1  0  0  0  0
  9  5  1  0  0  0  0
 10  3  1  0  0  0  0
 11  7  1  0  0  0  0
 12 15  1  0  0  0  0
 13  2  2  0  0  0  0
 14 10  2  0  0  0  0
 14 13  1  0  0  0  0
 15  4  1  0  0  0  0
 16 17  2  0  0  0  0
 16 10  1  0  0  0  0
 18 16  1  0  0  0  0
 20 21  2  0  0  0  0
 20 19  2  0  0  0  0
 20 18  1  0  0  0  0
 22 25  1  0  0  0  0
 22 20  1  1  0  0  0
 24 27  1  0  0  0  0
 24 22  1  0  0  0  0
 25 26  1  6  0  0  0
 25 23  1  0  0  0  0
 25 28  1  0  0  0  0
 27 23  1  0  0  0  0
 29 33  1  0  0  0  0
 29 28  1  0  0  0  0
 29 34  1  0  0  0  0
 30 34  1  0  0  0  0
 31 33  1  0  0  0  0
 32 31  1  0  0  0  0
 32 30  1  0  0  0  0
 35 13  1  0  0  0  0
 36 37  2  0  0  0  0
 36 39  1  0  0  0  0
 37 41  1  0  0  0  0
 39 40  2  0  0  0  0
 40 38  1  0  0  0  0
 40 35  1  0  0  0  0
 41 38  2  0  0  0  0
 43 42  2  0  0  0  0
 43 37  1  0  0  0  0
M  END
>  <MODEL>
7

>  <REMARK>
 VINA RESULT:      -8.1      3.828      7.747
  Name = 
  9 active torsions:
  status: ('A' for Active; 'I' for Inactive)
    1  A    between atoms: O_1  and  C_34
    2  A    between atoms: O_1  and  C_35
    3  A    between atoms: C_2  and  N_6
    4  A    between atoms: C_2  and  C_27
    5  A    between atoms: C_4  and  S_12
    6  A    between atoms: N_6  and  S_12
    7  A    between atoms: N_11  and  C_14
    8  A    between atoms: C_14  and  C_22
    9  A    between atoms: C_19  and  C_37
                            x       y       z     vdW  Elec       q    Type
                         _______ _______ _______ _____ _____    ______ ____

>  <TORSDO>
F 9

$$$$
=
 OpenBabel11052416333D

 43 48  0  0  1  0  0  0  0  0999 V2000
  188.9920  177.7560  147.5550 C   0  0  0  0  0  0  0  0  0  0  0  0
  188.2510  178.2470  142.5340 C   0  0  0  0  0  0  0  0  0  0  0  0
  185.9730  178.1400  143.3780 C   0  0  0  0  0  3  0  0  0  0  0  0
  189.3200  178.0100  145.2050 C   0  0  0  0  0  0  0  0  0  0  0  0
  187.5730  177.2960  147.3910 C   0  0  0  0  0  2  0  0  0  0  0  0
  189.4830  177.8670  148.7090 O   0  0  0  0  0  0  0  0  0  0  0  0
  187.8760  177.8140  144.9720 C   0  0  0  0  0  0  0  0  0  0  0  0
  189.8090  178.0150  146.4070 N   0  0  0  0  0  0  0  0  0  0  0  0
  187.0630  177.5250  145.9960 C   0  0  0  0  0  3  0  0  0  0  0  0
  185.4690  178.4070  142.1030 C   0  0  0  0  0  0  0  0  0  0  0  0
  187.3540  178.0540  143.6100 C   0  0  0  0  0  0  0  0  0  0  0  0
  189.7380  178.0520  142.7220 C   0  0  0  0  0  2  0  0  0  0  0  0
  187.7560  178.5110  141.2450 C   0  0  0  0  0  0  0  0  0  0  0  0
  186.3690  178.5880  141.0480 C   0  0  0  0  0  3  0  0  0  0  0  0
  190.1660  178.3030  144.0960 N   0  0  0  0  0  2  0  0  0  0  0  0
  184.0080  178.4840  141.8890 C   0  0  0  0  0  0  0  0  0  0  0  0
  183.0130  179.0110  143.0910 S   0  0  0  0  0  0  0  0  0  0  0  0
  183.4720  178.0970  140.6160 N   0  0  0  0  0  2  0  0  0  0  0  0
  184.1260  179.8300  138.7240 O   0  0  0  0  0  0  0  0  0  0  0  0
  182.9350  179.1970  139.3870 S   0  0  0  0  0  0  0  0  0  0  0  0
  182.0730  180.2580  140.0120 O   0  0  0  0  0  0  0  0  0  0  0  0
  181.9710  178.2790  138.1740 C   0  0  2  0  0  3  0  0  0  0  0  0
  181.3680  175.9360  139.4010 S   0  0  0  0  0  0  0  0  0  0  0  0
  180.5000  178.3720  138.5170 C   0  0  0  0  0  2  0  0  0  0  0  0
  182.2950  176.7860  138.0830 C   0  0  1  0  0  0  0  0  0  0  0  0
  181.8350  176.3240  136.8650 F   0  0  0  0  0  0  0  0  0  0  0  0
  180.1900  177.3200  139.5650 C   0  0  0  0  0  2  0  0  0  0  0  0
  183.7920  176.4910  138.1820 C   0  0  0  0  0  2  0  0  0  0  0  0
  184.3110  176.0160  136.9090 N   0  0  0  0  0  0  0  0  0  0  0  0
  185.9990  176.5830  135.1890 C   0  0  0  0  0  2  0  0  0  0  0  0
  185.9620  174.4490  135.9450 C   0  0  0  0  0  2  0  0  0  0  0  0
  185.6480  175.2660  134.8400 O   0  0  0  0  0  0  0  0  0  0  0  0
  185.1660  174.8640  137.1950 C   0  0  0  0  0  2  0  0  0  0  0  0
  185.1190  177.0990  136.3380 C   0  0  0  0  0  2  0  0  0  0  0  0
  188.6620  178.6490  140.1770 O   0  0  0  0  0  0  0  0  0  0  0  0
  190.9360  176.0850  138.7040 C   0  0  0  0  0  3  0  0  0  0  0  0
  190.0910  175.5240  137.7390 C   0  0  0  0  0  0  0  0  0  0  0  0
  188.3310  177.0510  138.4120 C   0  0  0  0  0  3  0  0  0  0  0  0
  190.4800  177.1260  139.5150 C   0  0  0  0  0  3  0  0  0  0  0  0
  189.1730  177.6210  139.3710 C   0  0  0  0  0  0  0  0  0  0  0  0
  188.7870  176.0100  137.6000 C   0  0  0  0  0  3  0  0  0  0  0  0
  189.8730  174.0770  135.8250 N   0  0  0  0  0  2  0  0  0  0  0  0
  190.5380  174.4210  136.8790 C   0  0  0  0  0  3  0  0  0  0  0  0
  1  6  2  0  0  0  0
  2 12  1  0  0  0  0
  2 11  1  0  0  0  0
  3 11  2  0  0  0  0
  4  8  2  0  0  0  0
  5  1  1  0  0  0  0
  7  4  1  0  0  0  0
  7  9  2  0  0  0  0
  8  1  1  0  0  0  0
  9  5  1  0  0  0  0
 10  3  1  0  0  0  0
 11  7  1  0  0  0  0
 12 15  1  0  0  0  0
 13  2  2  0  0  0  0
 14 13  1  0  0  0  0
 14 10  2  0  0  0  0
 15  4  1  0  0  0  0
 16 10  1  0  0  0  0
 16 17  2  0  0  0  0
 18 16  1  0  0  0  0
 19 20  2  0  0  0  0
 20 21  2  0  0  0  0
 20 18  1  0  0  0  0
 22 24  1  0  0  0  0
 22 20  1  1  0  0  0
 23 27  1  0  0  0  0
 24 27  1  0  0  0  0
 25 26  1  6  0  0  0
 25 22  1  0  0  0  0
 25 28  1  0  0  0  0
 25 23  1  0  0  0  0
 29 33  1  0  0  0  0
 29 28  1  0  0  0  0
 30 34  1  0  0  0  0
 31 33  1  0  0  0  0
 32 30  1  0  0  0  0
 32 31  1  0  0  0  0
 34 29  1  0  0  0  0
 35 13  1  0  0  0  0
 36 39  1  0  0  0  0
 37 36  2  0  0  0  0
 38 40  1  0  0  0  0
 40 39  2  0  0  0  0
 40 35  1  0  0  0  0
 41 37  1  0  0  0  0
 41 38  2  0  0  0  0
 42 43  2  0  0  0  0
 43 37  1  0  0  0  0
M  END
>  <MODEL>
8

>  <REMARK>
 VINA RESULT:      -8.0      2.447      3.779
  Name = 
  9 active torsions:
  status: ('A' for Active; 'I' for Inactive)
    1  A    between atoms: O_1  and  C_34
    2  A    between atoms: O_1  and  C_35
    3  A    between atoms: C_2  and  N_6
    4  A    between atoms: C_2  and  C_27
    5  A    between atoms: C_4  and  S_12
    6  A    between atoms: N_6  and  S_12
    7  A    between atoms: N_11  and  C_14
    8  A    between atoms: C_14  and  C_22
    9  A    between atoms: C_19  and  C_37
                            x       y       z     vdW  Elec       q    Type
                         _______ _______ _______ _____ _____    ______ ____

>  <TORSDO>
F 9

$$$$
=
 OpenBabel11052416333D

 43 48  0  0  1  0  0  0  0  0999 V2000
  191.2920  176.1720  147.1450 C   0  0  0  0  0  0  0  0  0  0  0  0
  187.6660  177.9460  144.0290 C   0  0  0  0  0  0  0  0  0  0  0  0
  189.4180  177.3110  142.4660 C   0  0  0  0  0  3  0  0  0  0  0  0
  189.2660  177.0810  146.2720 C   0  0  0  0  0  0  0  0  0  0  0  0
  192.0550  176.4380  145.8800 C   0  0  0  0  0  2  0  0  0  0  0  0
  191.8690  175.6160  148.1160 O   0  0  0  0  0  0  0  0  0  0  0  0
  189.8650  177.1440  144.9240 C   0  0  0  0  0  0  0  0  0  0  0  0
  189.9300  176.5960  147.2750 N   0  0  0  0  0  0  0  0  0  0  0  0
  191.1470  176.8050  144.7410 C   0  0  0  0  0  3  0  0  0  0  0  0
  188.5780  177.5890  141.3850 C   0  0  0  0  0  0  0  0  0  0  0  0
  188.9810  177.4850  143.7880 C   0  0  0  0  0  0  0  0  0  0  0  0
  187.2000  178.2510  145.4330 C   0  0  0  0  0  2  0  0  0  0  0  0
  186.8150  178.2350  142.9490 C   0  0  0  0  0  0  0  0  0  0  0  0
  187.2830  178.0520  141.6400 C   0  0  0  0  0  3  0  0  0  0  0  0
  187.9040  177.4630  146.4410 N   0  0  0  0  0  2  0  0  0  0  0  0
  189.0700  177.4030  140.0020 C   0  0  0  0  0  0  0  0  0  0  0  0
  190.6810  177.4690  139.6720 S   0  0  0  0  0  0  0  0  0  0  0  0
  188.1200  177.1570  138.9560 N   0  0  0  0  0  2  0  0  0  0  0  0
  188.8180  179.2790  137.5330 O   0  0  0  0  0  0  0  0  0  0  0  0
  187.7040  178.2840  137.7050 S   0  0  0  0  0  0  0  0  0  0  0  0
  186.4360  178.9990  138.0810 O   0  0  0  0  0  0  0  0  0  0  0  0
  187.4470  177.3760  136.1730 C   0  0  2  0  0  3  0  0  0  0  0  0
  187.0520  174.8070  136.9500 S   0  0  0  0  0  0  0  0  0  0  0  0
  185.9700  177.1180  135.9740 C   0  0  0  0  0  2  0  0  0  0  0  0
  188.1310  176.0080  136.1070 C   0  0  1  0  0  0  0  0  0  0  0  0
  188.2280  175.6430  134.7780 F   0  0  0  0  0  0  0  0  0  0  0  0
  185.5900  175.8860  136.7720 C   0  0  0  0  0  2  0  0  0  0  0  0
  189.5340  176.0110  136.7140 C   0  0  0  0  0  2  0  0  0  0  0  0
  190.4340  175.1670  135.9430 N   0  0  0  0  0  0  0  0  0  0  0  0
  192.7620  175.1040  135.1010 C   0  0  0  0  0  2  0  0  0  0  0  0
  191.9950  173.2650  136.1750 C   0  0  0  0  0  2  0  0  0  0  0  0
  192.3380  173.7760  134.9080 O   0  0  0  0  0  0  0  0  0  0  0  0
  190.8470  174.0670  136.8140 C   0  0  0  0  0  2  0  0  0  0  0  0
  191.6020  175.9840  135.5920 C   0  0  0  0  0  2  0  0  0  0  0  0
  185.5270  178.7420  143.2080 O   0  0  0  0  0  0  0  0  0  0  0  0
  183.5220  178.9910  140.0720 C   0  0  0  0  0  3  0  0  0  0  0  0
  182.2300  178.8330  140.5870 C   0  0  0  0  0  0  0  0  0  0  0  0
  183.1570  178.6270  142.8180 C   0  0  0  0  0  3  0  0  0  0  0  0
  184.6240  178.9690  140.9290 C   0  0  0  0  0  3  0  0  0  0  0  0
  184.4500  178.7930  142.3120 C   0  0  0  0  0  0  0  0  0  0  0  0
  182.0530  178.6490  141.9620 C   0  0  0  0  0  3  0  0  0  0  0  0
  180.2320  179.8390  139.6910 N   0  0  0  0  0  2  0  0  0  0  0  0
  181.0510  178.8400  139.7110 C   0  0  0  0  0  3  0  0  0  0  0  0
  1  8  1  0  0  0  0
  1  6  2  0  0  0  0
  2 12  1  0  0  0  0
  3 11  2  0  0  0  0
  4 15  1  0  0  0  0
  4  8  2  0  0  0  0
  5  1  1  0  0  0  0
  7  4  1  0  0  0  0
  9  7  2  0  0  0  0
  9  5  1  0  0  0  0
 10 14  2  0  0  0  0
 10  3  1  0  0  0  0
 11  2  1  0  0  0  0
 11  7  1  0  0  0  0
 12 15  1  0  0  0  0
 13 35  1  0  0  0  0
 13  2  2  0  0  0  0
 14 13  1  0  0  0  0
 16 10  1  0  0  0  0
 17 16  2  0  0  0  0
 18 16  1  0  0  0  0
 19 20  2  0  0  0  0
 20 21  2  0  0  0  0
 20 18  1  0  0  0  0
 22 20  1  1  0  0  0
 24 22  1  0  0  0  0
 24 27  1  0  0  0  0
 25 26  1  6  0  0  0
 25 22  1  0  0  0  0
 25 28  1  0  0  0  0
 25 23  1  0  0  0  0
 27 23  1  0  0  0  0
 29 28  1  0  0  0  0
 29 33  1  0  0  0  0
 30 34  1  0  0  0  0
 31 33  1  0  0  0  0
 32 30  1  0  0  0  0
 32 31  1  0  0  0  0
 34 29  1  0  0  0  0
 36 37  2  0  0  0  0
 36 39  1  0  0  0  0
 37 41  1  0  0  0  0
 39 40  2  0  0  0  0
 40 38  1  0  0  0  0
 40 35  1  0  0  0  0
 41 38  2  0  0  0  0
 42 43  2  0  0  0  0
 43 37  1  0  0  0  0
M  END
>  <MODEL>
9

>  <REMARK>
 VINA RESULT:      -8.0      3.523      7.598
  Name = 
  9 active torsions:
  status: ('A' for Active; 'I' for Inactive)
    1  A    between atoms: O_1  and  C_34
    2  A    between atoms: O_1  and  C_35
    3  A    between atoms: C_2  and  N_6
    4  A    between atoms: C_2  and  C_27
    5  A    between atoms: C_4  and  S_12
    6  A    between atoms: N_6  and  S_12
    7  A    between atoms: N_11  and  C_14
    8  A    between atoms: C_14  and  C_22
    9  A    between atoms: C_19  and  C_37
                            x       y       z     vdW  Elec       q    Type
                         _______ _______ _______ _____ _____    ______ ____

>  <TORSDO>
F 9

$$$$
