=
 OpenBabel11052412533D

 25 28  0  0  1  0  0  0  0  0999 V2000
  189.4180  178.0350  144.1360 C   0  0  2  0  0  0  0  0  0  0  0  0
  189.4910  177.9630  142.5890 C   0  0  2  0  0  3  0  0  0  0  0  0
  191.3980  176.3420  144.1930 C   0  0  0  0  0  2  0  0  0  0  0  0
  188.0840  178.4490  144.7700 C   0  0  0  0  0  2  0  0  0  0  0  0
  188.2580  176.6690  148.1330 C   0  0  0  0  0  1  0  0  0  0  0  0
  190.6890  175.7210  143.0050 C   0  0  0  0  0  2  0  0  0  0  0  0
  188.7580  177.4240  146.9200 C   0  0  2  0  0  3  0  0  0  0  0  0
  187.6550  177.5040  145.8820 C   0  0  0  0  0  2  0  0  0  0  0  0
  189.6830  176.2040  140.8940 O   0  0  0  0  0  0  0  0  0  0  0  0
  189.3370  177.2230  139.9830 C   0  0  0  0  0  2  0  0  0  0  0  0
  188.2070  177.9640  142.0110 O   0  0  0  0  0  0  0  0  0  0  0  0
  190.5850  178.7530  144.8490 C   0  0  1  0  0  3  0  0  0  0  0  0
  190.4300  177.2340  144.9710 C   0  0  1  0  0  0  0  0  0  0  0  0
  189.9650  176.6980  146.3350 C   0  0  0  0  0  2  0  0  0  0  0  0
  191.7210  179.1860  143.9230 C   0  0  0  0  0  1  0  0  0  0  0  0
  188.3740  178.2340  140.6350 C   0  0  2  0  0  3  0  0  0  0  0  0
  190.3430  176.8020  141.9900 C   0  0  1  0  0  3  0  0  0  0  0  0
  187.0280  178.1730  139.9310 C   0  0  0  0  0  2  0  0  0  0  0  0
  185.9760  178.9870  140.6740 C   0  0  0  0  0  2  0  0  0  0  0  0
  184.5870  178.3750  140.5350 C   0  0  0  0  0  2  0  0  0  0  0  0
  183.8450  178.3670  141.8660 C   0  0  0  0  0  2  0  0  0  0  0  0
  184.8080  178.3320  143.0460 C   0  0  0  0  0  2  0  0  0  0  0  0
  184.4950  179.4350  144.0500 C   0  0  0  0  0  2  0  0  0  0  0  0
  183.6010  178.9310  145.1700 C   0  0  0  0  0  2  0  0  0  0  0  0
  184.3390  178.8020  146.3480 O   0  0  0  0  0  1  0  0  0  0  0  0
  1  4  1  1  0  0  0
  1 12  1  0  0  0  0
  1 13  1  0  0  0  0
  2 11  1  6  0  0  0
  2  1  1  0  0  0  0
  4  8  1  0  0  0  0
  6  3  1  0  0  0  0
  7  5  1  1  0  0  0
  8  7  1  0  0  0  0
  9 17  1  0  0  0  0
 10 16  1  0  0  0  0
 10  9  1  0  0  0  0
 12 15  1  6  0  0  0
 12 13  1  0  0  0  0
 13  3  1  6  0  0  0
 13 14  1  0  0  0  0
 14  7  1  0  0  0  0
 16 18  1  6  0  0  0
 16 11  1  0  0  0  0
 17  2  1  0  0  0  0
 17  6  1  1  0  0  0
 18 19  1  0  0  0  0
 20 19  1  0  0  0  0
 20 21  1  0  0  0  0
 21 22  1  0  0  0  0
 22 23  1  0  0  0  0
 23 24  1  0  0  0  0
 24 25  1  0  0  0  0
M  END
>  <MODEL>
1

>  <REMARK>
 VINA RESULT:      -7.4      0.000      0.000
  Name = 
  7 active torsions:
  status: ('A' for Active; 'I' for Inactive)
    1  A    between atoms: C_2  and  C_7
    2  A    between atoms: C_2  and  C_25
    3  A    between atoms: C_6  and  C_15
    4  A    between atoms: C_6  and  C_21
    5  A    between atoms: C_15  and  C_20
    6  A    between atoms: C_20  and  C_23
    7  A    between atoms: C_21  and  C_25
                            x       y       z     vdW  Elec       q    Type
                         _______ _______ _______ _____ _____    ______ ____

>  <TORSDO>
F 7

$$$$
=
 OpenBabel11052412533D

 25 28  0  0  1  0  0  0  0  0999 V2000
  189.2490  176.9670  143.0150 C   0  0  2  0  0  0  0  0  0  0  0  0
  189.1570  177.0580  144.5590 C   0  0  2  0  0  3  0  0  0  0  0  0
  191.7540  177.6460  143.2390 C   0  0  0  0  0  2  0  0  0  0  0  0
  187.9540  177.1400  142.2110 C   0  0  0  0  0  2  0  0  0  0  0  0
  189.2820  178.5470  138.9300 C   0  0  0  0  0  1  0  0  0  0  0  0
  191.2420  178.5540  144.3400 C   0  0  0  0  0  2  0  0  0  0  0  0
  189.2580  177.6970  140.1820 C   0  0  2  0  0  3  0  0  0  0  0  0
  188.1110  178.1360  141.0710 C   0  0  0  0  0  2  0  0  0  0  0  0
  189.8780  178.6280  146.2980 O   0  0  0  0  0  0  0  0  0  0  0  0
  189.0200  177.8900  147.1380 C   0  0  0  0  0  2  0  0  0  0  0  0
  187.9370  177.6280  144.9720 O   0  0  0  0  0  0  0  0  0  0  0  0
  190.0710  175.7920  142.4410 C   0  0  1  0  0  3  0  0  0  0  0  0
  190.6000  177.2260  142.3280 C   0  0  1  0  0  0  0  0  0  0  0  0
  190.5790  177.8580  140.9270 C   0  0  0  0  0  2  0  0  0  0  0  0
  190.7900  174.9490  143.4940 C   0  0  0  0  0  1  0  0  0  0  0  0
  187.8030  177.3650  146.3520 C   0  0  2  0  0  3  0  0  0  0  0  0
  190.3450  177.7640  145.2820 C   0  0  1  0  0  3  0  0  0  0  0  0
  186.5400  178.0230  146.8820 C   0  0  0  0  0  2  0  0  0  0  0  0
  185.8540  178.8540  145.8050 C   0  0  0  0  0  2  0  0  0  0  0  0
  184.3440  178.6420  145.8050 C   0  0  0  0  0  2  0  0  0  0  0  0
  183.7300  179.0050  144.4580 C   0  0  0  0  0  2  0  0  0  0  0  0
  184.7970  179.2060  143.3900 C   0  0  0  0  0  2  0  0  0  0  0  0
  184.5960  178.2520  142.2180 C   0  0  0  0  0  2  0  0  0  0  0  0
  183.9880  178.9620  141.0210 C   0  0  0  0  0  2  0  0  0  0  0  0
  184.9970  179.5280  140.2400 O   0  0  0  0  0  1  0  0  0  0  0  0
  1  4  1  6  0  0  0
  1  2  1  0  0  0  0
  2 11  1  6  0  0  0
  2 17  1  0  0  0  0
  3  6  1  0  0  0  0
  7  5  1  6  0  0  0
  7 14  1  0  0  0  0
  7  8  1  0  0  0  0
  8  4  1  0  0  0  0
  9 10  1  0  0  0  0
 11 16  1  0  0  0  0
 12  1  1  0  0  0  0
 12 15  1  1  0  0  0
 13 14  1  6  0  0  0
 13 12  1  0  0  0  0
 13  1  1  0  0  0  0
 13  3  1  0  0  0  0
 16 18  1  1  0  0  0
 16 10  1  0  0  0  0
 17  6  1  6  0  0  0
 17  9  1  0  0  0  0
 19 20  1  0  0  0  0
 19 18  1  0  0  0  0
 21 20  1  0  0  0  0
 22 21  1  0  0  0  0
 23 22  1  0  0  0  0
 24 23  1  0  0  0  0
 25 24  1  0  0  0  0
M  END
>  <MODEL>
2

>  <REMARK>
 VINA RESULT:      -7.2      1.738      4.781
  Name = 
  7 active torsions:
  status: ('A' for Active; 'I' for Inactive)
    1  A    between atoms: C_2  and  C_7
    2  A    between atoms: C_2  and  C_25
    3  A    between atoms: C_6  and  C_15
    4  A    between atoms: C_6  and  C_21
    5  A    between atoms: C_15  and  C_20
    6  A    between atoms: C_20  and  C_23
    7  A    between atoms: C_21  and  C_25
                            x       y       z     vdW  Elec       q    Type
                         _______ _______ _______ _____ _____    ______ ____

>  <TORSDO>
F 7

$$$$
=
 OpenBabel11052412533D

 25 28  0  0  1  0  0  0  0  0999 V2000
  190.0460  177.6390  145.2990 C   0  0  2  0  0  0  0  0  0  0  0  0
  188.8520  177.9040  144.3480 C   0  0  2  0  0  3  0  0  0  0  0  0
  191.1730  176.3480  143.3370 C   0  0  0  0  0  2  0  0  0  0  0  0
  189.7780  177.6710  146.8090 C   0  0  0  0  0  2  0  0  0  0  0  0
  192.4540  175.2900  148.1040 C   0  0  0  0  0  1  0  0  0  0  0  0
  189.7610  175.8730  143.0530 C   0  0  0  0  0  2  0  0  0  0  0  0
  191.8330  176.3570  147.2280 C   0  0  2  0  0  3  0  0  0  0  0  0
  190.3490  176.4550  147.5230 C   0  0  0  0  0  2  0  0  0  0  0  0
  187.5040  176.5980  142.7720 O   0  0  0  0  0  0  0  0  0  0  0  0
  186.6340  177.7070  142.7970 C   0  0  0  0  0  2  0  0  0  0  0  0
  187.6200  177.8000  145.0230 O   0  0  0  0  0  0  0  0  0  0  0  0
  191.3590  178.3880  144.9820 C   0  0  1  0  0  3  0  0  0  0  0  0
  191.2700  176.8730  144.7690 C   0  0  1  0  0  0  0  0  0  0  0  0
  192.0450  175.9920  145.7620 C   0  0  0  0  0  2  0  0  0  0  0  0
  191.3290  179.1980  143.6860 C   0  0  0  0  0  1  0  0  0  0  0  0
  186.6390  178.3740  144.1860 C   0  0  2  0  0  3  0  0  0  0  0  0
  188.8120  177.0630  143.0360 C   0  0  1  0  0  3  0  0  0  0  0  0
  185.2670  178.2240  144.8220 C   0  0  0  0  0  2  0  0  0  0  0  0
  184.3440  179.3700  144.4270 C   0  0  0  0  0  2  0  0  0  0  0  0
  182.8850  178.9310  144.3850 C   0  0  0  0  0  2  0  0  0  0  0  0
  182.4700  178.5040  142.9820 C   0  0  0  0  0  2  0  0  0  0  0  0
  183.3770  179.1100  141.9190 C   0  0  0  0  0  2  0  0  0  0  0  0
  183.5490  178.1680  140.7330 C   0  0  0  0  0  2  0  0  0  0  0  0
  184.6430  178.6500  139.7950 C   0  0  0  0  0  2  0  0  0  0  0  0
  184.4250  179.9850  139.4540 O   0  0  0  0  0  1  0  0  0  0  0  0
  1  4  1  1  0  0  0
  2 11  1  1  0  0  0
  2  1  1  0  0  0  0
  4  8  1  0  0  0  0
  6  3  1  0  0  0  0
  7  8  1  0  0  0  0
  7  5  1  1  0  0  0
  9 10  1  0  0  0  0
  9 17  1  0  0  0  0
 10 16  1  0  0  0  0
 12 15  1  6  0  0  0
 12  1  1  0  0  0  0
 13  3  1  6  0  0  0
 13 12  1  0  0  0  0
 13  1  1  0  0  0  0
 13 14  1  0  0  0  0
 14  7  1  0  0  0  0
 16 18  1  1  0  0  0
 16 11  1  0  0  0  0
 17  6  1  1  0  0  0
 17  2  1  0  0  0  0
 19 18  1  0  0  0  0
 20 19  1  0  0  0  0
 21 20  1  0  0  0  0
 22 21  1  0  0  0  0
 23 22  1  0  0  0  0
 24 23  1  0  0  0  0
 25 24  1  0  0  0  0
M  END
>  <MODEL>
3

>  <REMARK>
 VINA RESULT:      -7.2      1.791      3.328
  Name = 
  7 active torsions:
  status: ('A' for Active; 'I' for Inactive)
    1  A    between atoms: C_2  and  C_7
    2  A    between atoms: C_2  and  C_25
    3  A    between atoms: C_6  and  C_15
    4  A    between atoms: C_6  and  C_21
    5  A    between atoms: C_15  and  C_20
    6  A    between atoms: C_20  and  C_23
    7  A    between atoms: C_21  and  C_25
                            x       y       z     vdW  Elec       q    Type
                         _______ _______ _______ _____ _____    ______ ____

>  <TORSDO>
F 7

$$$$
=
 OpenBabel11052412533D

 25 28  0  0  1  0  0  0  0  0999 V2000
  189.8640  177.7680  145.2490 C   0  0  2  0  0  0  0  0  0  0  0  0
  188.6440  178.0560  144.3390 C   0  0  2  0  0  3  0  0  0  0  0  0
  190.8990  176.4530  143.2520 C   0  0  0  0  0  2  0  0  0  0  0  0
  189.6480  177.8060  146.7680 C   0  0  0  0  0  2  0  0  0  0  0  0
  192.3200  175.3750  147.9750 C   0  0  0  0  0  1  0  0  0  0  0  0
  189.4690  176.0050  143.0170 C   0  0  0  0  0  2  0  0  0  0  0  0
  191.6910  176.4520  147.1190 C   0  0  2  0  0  3  0  0  0  0  0  0
  190.2190  176.5800  147.4630 C   0  0  0  0  0  2  0  0  0  0  0  0
  187.2180  176.7740  142.8110 O   0  0  0  0  0  0  0  0  0  0  0  0
  186.3710  177.9000  142.8640 C   0  0  0  0  0  2  0  0  0  0  0  0
  187.4340  177.9760  145.0550 O   0  0  0  0  0  0  0  0  0  0  0  0
  191.1810  178.4910  144.8870 C   0  0  1  0  0  3  0  0  0  0  0  0
  191.0540  176.9780  144.6790 C   0  0  1  0  0  0  0  0  0  0  0  0
  191.8450  176.0830  145.6470 C   0  0  0  0  0  2  0  0  0  0  0  0
  191.1220  179.2990  143.5910 C   0  0  0  0  0  1  0  0  0  0  0  0
  186.4370  178.5690  144.2510 C   0  0  2  0  0  3  0  0  0  0  0  0
  188.5430  177.2130  143.0310 C   0  0  1  0  0  3  0  0  0  0  0  0
  185.0840  178.4460  144.9340 C   0  0  0  0  0  2  0  0  0  0  0  0
  184.0150  179.2410  144.1930 C   0  0  0  0  0  2  0  0  0  0  0  0
  182.6290  178.6360  144.3830 C   0  0  0  0  0  2  0  0  0  0  0  0
  181.5720  179.4080  143.6030 C   0  0  0  0  0  2  0  0  0  0  0  0
  180.4820  178.4870  143.0700 C   0  0  0  0  0  2  0  0  0  0  0  0
  180.6060  178.2930  141.5640 C   0  0  0  0  0  2  0  0  0  0  0  0
  180.4730  179.6110  140.8200 C   0  0  0  0  0  2  0  0  0  0  0  0
  181.4640  179.7100  139.8430 O   0  0  0  0  0  1  0  0  0  0  0  0
  1  4  1  1  0  0  0
  2 11  1  1  0  0  0
  2  1  1  0  0  0  0
  4  8  1  0  0  0  0
  6  3  1  0  0  0  0
  7  8  1  0  0  0  0
  7  5  1  1  0  0  0
  9 10  1  0  0  0  0
  9 17  1  0  0  0  0
 10 16  1  0  0  0  0
 12 15  1  6  0  0  0
 12  1  1  0  0  0  0
 13  3  1  6  0  0  0
 13 12  1  0  0  0  0
 13  1  1  0  0  0  0
 13 14  1  0  0  0  0
 14  7  1  0  0  0  0
 16 18  1  1  0  0  0
 16 11  1  0  0  0  0
 17  6  1  1  0  0  0
 17  2  1  0  0  0  0
 19 20  1  0  0  0  0
 19 18  1  0  0  0  0
 21 20  1  0  0  0  0
 22 21  1  0  0  0  0
 23 22  1  0  0  0  0
 24 23  1  0  0  0  0
 25 24  1  0  0  0  0
M  END
>  <MODEL>
4

>  <REMARK>
 VINA RESULT:      -6.7      2.393      3.535
  Name = 
  7 active torsions:
  status: ('A' for Active; 'I' for Inactive)
    1  A    between atoms: C_2  and  C_7
    2  A    between atoms: C_2  and  C_25
    3  A    between atoms: C_6  and  C_15
    4  A    between atoms: C_6  and  C_21
    5  A    between atoms: C_15  and  C_20
    6  A    between atoms: C_20  and  C_23
    7  A    between atoms: C_21  and  C_25
                            x       y       z     vdW  Elec       q    Type
                         _______ _______ _______ _____ _____    ______ ____

>  <TORSDO>
F 7

$$$$
=
 OpenBabel11052412533D

 25 28  0  0  1  0  0  0  0  0999 V2000
  189.8650  177.8580  144.6370 C   0  0  2  0  0  0  0  0  0  0  0  0
  188.9780  178.1570  143.4010 C   0  0  2  0  0  3  0  0  0  0  0  0
  191.6820  176.9960  142.9810 C   0  0  0  0  0  2  0  0  0  0  0  0
  189.1630  177.6300  145.9820 C   0  0  0  0  0  2  0  0  0  0  0  0
  191.6350  175.3330  147.7480 C   0  0  0  0  0  1  0  0  0  0  0  0
  190.4930  176.4430  142.2190 C   0  0  0  0  0  2  0  0  0  0  0  0
  191.1610  176.4610  146.8570 C   0  0  2  0  0  3  0  0  0  0  0  0
  189.6570  176.3760  146.6860 C   0  0  0  0  0  2  0  0  0  0  0  0
  188.3420  176.9940  141.3400 O   0  0  0  0  0  0  0  0  0  0  0  0
  187.3620  178.0000  141.2270 C   0  0  0  0  0  2  0  0  0  0  0  0
  187.6290  177.8370  143.6440 O   0  0  0  0  0  0  0  0  0  0  0  0
  191.1000  178.7640  144.8350 C   0  0  1  0  0  3  0  0  0  0  0  0
  191.2820  177.2990  144.4250 C   0  0  1  0  0  0  0  0  0  0  0  0
  191.8420  176.3500  145.4960 C   0  0  0  0  0  2  0  0  0  0  0  0
  191.3430  179.7590  143.7010 C   0  0  0  0  0  1  0  0  0  0  0  0
  186.8690  178.4420  142.6190 C   0  0  2  0  0  3  0  0  0  0  0  0
  189.4400  177.5290  142.0510 C   0  0  1  0  0  3  0  0  0  0  0  0
  185.4040  178.0700  142.7750 C   0  0  0  0  0  2  0  0  0  0  0  0
  184.5120  179.3060  142.7560 C   0  0  0  0  0  2  0  0  0  0  0  0
  183.3510  179.1790  143.7350 C   0  0  0  0  0  2  0  0  0  0  0  0
  183.7500  178.3890  144.9750 C   0  0  0  0  0  2  0  0  0  0  0  0
  184.8790  179.0720  145.7370 C   0  0  0  0  0  2  0  0  0  0  0  0
  185.6480  178.0770  146.5980 C   0  0  0  0  0  2  0  0  0  0  0  0
  186.4030  178.7760  147.7160 C   0  0  0  0  0  2  0  0  0  0  0  0
  186.0560  180.1280  147.7530 O   0  0  0  0  0  1  0  0  0  0  0  0
  1 12  1  0  0  0  0
  1  4  1  1  0  0  0
  2 11  1  1  0  0  0
  2  1  1  0  0  0  0
  4  8  1  0  0  0  0
  6  3  1  0  0  0  0
  7  5  1  1  0  0  0
  8  7  1  0  0  0  0
  9 17  1  0  0  0  0
 10  9  1  0  0  0  0
 10 16  1  0  0  0  0
 12 15  1  6  0  0  0
 13  3  1  6  0  0  0
 13  1  1  0  0  0  0
 13 12  1  0  0  0  0
 13 14  1  0  0  0  0
 14  7  1  0  0  0  0
 16 18  1  1  0  0  0
 16 11  1  0  0  0  0
 17  6  1  1  0  0  0
 17  2  1  0  0  0  0
 19 18  1  0  0  0  0
 19 20  1  0  0  0  0
 20 21  1  0  0  0  0
 21 22  1  0  0  0  0
 22 23  1  0  0  0  0
 23 24  1  0  0  0  0
 24 25  1  0  0  0  0
M  END
>  <MODEL>
5

>  <REMARK>
 VINA RESULT:      -6.5      1.431      2.343
  Name = 
  7 active torsions:
  status: ('A' for Active; 'I' for Inactive)
    1  A    between atoms: C_2  and  C_7
    2  A    between atoms: C_2  and  C_25
    3  A    between atoms: C_6  and  C_15
    4  A    between atoms: C_6  and  C_21
    5  A    between atoms: C_15  and  C_20
    6  A    between atoms: C_20  and  C_23
    7  A    between atoms: C_21  and  C_25
                            x       y       z     vdW  Elec       q    Type
                         _______ _______ _______ _____ _____    ______ ____

>  <TORSDO>
F 7

$$$$
=
 OpenBabel11052412533D

 25 28  0  0  1  0  0  0  0  0999 V2000
  189.4490  178.0190  143.9200 C   0  0  2  0  0  0  0  0  0  0  0  0
  189.7410  177.8770  142.4050 C   0  0  2  0  0  3  0  0  0  0  0  0
  191.4560  176.4110  144.3390 C   0  0  0  0  0  2  0  0  0  0  0  0
  188.0260  178.4080  144.3420 C   0  0  0  0  0  2  0  0  0  0  0  0
  187.7860  176.7970  147.7840 C   0  0  0  0  0  1  0  0  0  0  0  0
  190.9420  175.7070  143.0980 C   0  0  0  0  0  2  0  0  0  0  0  0
  188.4250  177.5130  146.6150 C   0  0  2  0  0  3  0  0  0  0  0  0
  187.4770  177.5000  145.4310 C   0  0  0  0  0  2  0  0  0  0  0  0
  190.2270  176.0490  140.8460 O   0  0  0  0  0  0  0  0  0  0  0  0
  189.9780  177.0100  139.8450 C   0  0  0  0  0  2  0  0  0  0  0  0
  188.5510  177.8000  141.6550 O   0  0  0  0  0  0  0  0  0  0  0  0
  190.4800  178.8160  144.7500 C   0  0  1  0  0  3  0  0  0  0  0  0
  190.3600  177.2990  144.9290 C   0  0  1  0  0  0  0  0  0  0  0  0
  189.7260  176.8100  146.2410 C   0  0  0  0  0  2  0  0  0  0  0  0
  191.7200  179.2500  143.9690 C   0  0  0  0  0  1  0  0  0  0  0  0
  188.9000  178.0110  140.3040 C   0  0  2  0  0  3  0  0  0  0  0  0
  190.7060  176.7250  141.9910 C   0  0  1  0  0  3  0  0  0  0  0  0
  187.6690  177.8630  139.4240 C   0  0  0  0  0  2  0  0  0  0  0  0
  187.9540  178.3000  137.9930 C   0  0  0  0  0  2  0  0  0  0  0  0
  186.7170  178.1830  137.1100 C   0  0  0  0  0  2  0  0  0  0  0  0
  185.7840  177.0830  137.6010 C   0  0  0  0  0  2  0  0  0  0  0  0
  184.3250  177.5180  137.5500 C   0  0  0  0  0  2  0  0  0  0  0  0
  183.8080  177.8900  138.9350 C   0  0  0  0  0  2  0  0  0  0  0  0
  183.4290  179.3590  139.0100 C   0  0  0  0  0  2  0  0  0  0  0  0
  184.5560  180.1280  139.3080 O   0  0  0  0  0  1  0  0  0  0  0  0
  1  4  1  1  0  0  0
  1 12  1  0  0  0  0
  1 13  1  0  0  0  0
  2 11  1  6  0  0  0
  2  1  1  0  0  0  0
  4  8  1  0  0  0  0
  6  3  1  0  0  0  0
  7  5  1  1  0  0  0
  8  7  1  0  0  0  0
  9 17  1  0  0  0  0
 10 16  1  0  0  0  0
 10  9  1  0  0  0  0
 12 15  1  6  0  0  0
 12 13  1  0  0  0  0
 13  3  1  6  0  0  0
 13 14  1  0  0  0  0
 14  7  1  0  0  0  0
 16 18  1  6  0  0  0
 16 11  1  0  0  0  0
 17  2  1  0  0  0  0
 17  6  1  1  0  0  0
 19 18  1  0  0  0  0
 20 21  1  0  0  0  0
 20 19  1  0  0  0  0
 22 21  1  0  0  0  0
 22 23  1  0  0  0  0
 23 24  1  0  0  0  0
 24 25  1  0  0  0  0
M  END
>  <MODEL>
6

>  <REMARK>
 VINA RESULT:      -6.5      2.052      2.863
  Name = 
  7 active torsions:
  status: ('A' for Active; 'I' for Inactive)
    1  A    between atoms: C_2  and  C_7
    2  A    between atoms: C_2  and  C_25
    3  A    between atoms: C_6  and  C_15
    4  A    between atoms: C_6  and  C_21
    5  A    between atoms: C_15  and  C_20
    6  A    between atoms: C_20  and  C_23
    7  A    between atoms: C_21  and  C_25
                            x       y       z     vdW  Elec       q    Type
                         _______ _______ _______ _____ _____    ______ ____

>  <TORSDO>
F 7

$$$$
=
 OpenBabel11052412533D

 25 28  0  0  1  0  0  0  0  0999 V2000
  182.0680  177.9720  140.4120 C   0  0  2  0  0  0  0  0  0  0  0  0
  182.6290  178.6910  141.6650 C   0  0  2  0  0  3  0  0  0  0  0  0
  179.6830  178.4990  141.3200 C   0  0  0  0  0  2  0  0  0  0  0  0
  182.9630  176.9330  139.7230 C   0  0  0  0  0  2  0  0  0  0  0  0
  180.3730  174.6040  138.1820 C   0  0  0  0  0  1  0  0  0  0  0  0
  180.3090  178.2040  142.6700 C   0  0  0  0  0  2  0  0  0  0  0  0
  180.9860  175.9100  138.6410 C   0  0  2  0  0  3  0  0  0  0  0  0
  182.2310  175.6260  139.4580 C   0  0  0  0  0  2  0  0  0  0  0  0
  182.1780  178.6880  144.0740 O   0  0  0  0  0  0  0  0  0  0  0  0
  183.4020  179.3810  144.1730 C   0  0  0  0  0  2  0  0  0  0  0  0
  183.7590  178.0270  142.1790 O   0  0  0  0  0  0  0  0  0  0  0  0
  181.3860  178.8640  139.3520 C   0  0  1  0  0  3  0  0  0  0  0  0
  180.5460  177.9080  140.2050 C   0  0  1  0  0  0  0  0  0  0  0  0
  179.9740  176.6720  139.4900 C   0  0  0  0  0  2  0  0  0  0  0  0
  181.2500  180.3330  139.7550 C   0  0  0  0  0  1  0  0  0  0  0  0
  184.3850  178.9130  143.0820 C   0  0  2  0  0  3  0  0  0  0  0  0
  181.6130  178.9770  142.8120 C   0  0  1  0  0  3  0  0  0  0  0  0
  185.5740  178.2280  143.7370 C   0  0  0  0  0  2  0  0  0  0  0  0
  185.6700  178.5790  145.2170 C   0  0  0  0  0  2  0  0  0  0  0  0
  186.8860  177.9340  145.8710 C   0  0  0  0  0  2  0  0  0  0  0  0
  187.9210  177.5150  144.8350 C   0  0  0  0  0  2  0  0  0  0  0  0
  189.3360  177.5770  145.3950 C   0  0  0  0  0  2  0  0  0  0  0  0
  189.3520  177.3000  146.8940 C   0  0  0  0  0  2  0  0  0  0  0  0
  190.6970  176.7530  147.3430 C   0  0  0  0  0  2  0  0  0  0  0  0
  191.6840  177.0950  146.4190 O   0  0  0  0  0  1  0  0  0  0  0  0
  1  4  1  6  0  0  0
  1  2  1  0  0  0  0
  2 11  1  1  0  0  0
  2 17  1  0  0  0  0
  3  6  1  0  0  0  0
  7  5  1  1  0  0  0
  7  8  1  0  0  0  0
  7 14  1  0  0  0  0
  8  4  1  0  0  0  0
  9 10  1  0  0  0  0
 11 16  1  0  0  0  0
 12 15  1  1  0  0  0
 12 13  1  0  0  0  0
 12  1  1  0  0  0  0
 13 14  1  6  0  0  0
 13  1  1  0  0  0  0
 13  3  1  0  0  0  0
 16 18  1  1  0  0  0
 16 10  1  0  0  0  0
 17  6  1  6  0  0  0
 17  9  1  0  0  0  0
 18 19  1  0  0  0  0
 19 20  1  0  0  0  0
 21 22  1  0  0  0  0
 21 20  1  0  0  0  0
 22 23  1  0  0  0  0
 23 24  1  0  0  0  0
 25 24  1  0  0  0  0
M  END
>  <MODEL>
7

>  <REMARK>
 VINA RESULT:      -6.3      3.225      8.596
  Name = 
  7 active torsions:
  status: ('A' for Active; 'I' for Inactive)
    1  A    between atoms: C_2  and  C_7
    2  A    between atoms: C_2  and  C_25
    3  A    between atoms: C_6  and  C_15
    4  A    between atoms: C_6  and  C_21
    5  A    between atoms: C_15  and  C_20
    6  A    between atoms: C_20  and  C_23
    7  A    between atoms: C_21  and  C_25
                            x       y       z     vdW  Elec       q    Type
                         _______ _______ _______ _____ _____    ______ ____

>  <TORSDO>
F 7

$$$$
=
 OpenBabel11052412533D

 25 28  0  0  1  0  0  0  0  0999 V2000
  182.1260  178.4960  140.7200 C   0  0  2  0  0  0  0  0  0  0  0  0
  183.4780  178.3100  141.4550 C   0  0  2  0  0  3  0  0  0  0  0  0
  183.4820  178.6150  138.4990 C   0  0  0  0  0  2  0  0  0  0  0  0
  180.9500  179.0690  141.5210 C   0  0  0  0  0  2  0  0  0  0  0  0
  178.9310  180.7820  138.7830 C   0  0  0  0  0  1  0  0  0  0  0  0
  184.4840  179.3820  139.3400 C   0  0  0  0  0  2  0  0  0  0  0  0
  179.8120  179.7320  139.4260 C   0  0  2  0  0  3  0  0  0  0  0  0
  180.2580  180.2110  140.7940 C   0  0  0  0  0  2  0  0  0  0  0  0
  185.6960  179.3500  141.3970 O   0  0  0  0  0  0  0  0  0  0  0  0
  185.9140  178.6500  142.6010 C   0  0  0  0  0  2  0  0  0  0  0  0
  183.5070  179.0200  142.6710 O   0  0  0  0  0  0  0  0  0  0  0  0
  181.6450  177.3130  139.8520 C   0  0  1  0  0  3  0  0  0  0  0  0
  182.1170  178.6090  139.1870 C   0  0  1  0  0  0  0  0  0  0  0  0
  181.0310  179.4870  138.5420 C   0  0  0  0  0  2  0  0  0  0  0  0
  182.6440  176.1610  139.7420 C   0  0  0  0  0  1  0  0  0  0  0  0
  184.6070  178.5320  143.4090 C   0  0  2  0  0  3  0  0  0  0  0  0
  184.7630  178.6190  140.6280 C   0  0  1  0  0  3  0  0  0  0  0  0
  184.7450  179.3130  144.7060 C   0  0  0  0  0  2  0  0  0  0  0  0
  184.4790  178.4280  145.9170 C   0  0  0  0  0  2  0  0  0  0  0  0
  185.6820  178.3730  146.8510 C   0  0  0  0  0  2  0  0  0  0  0  0
  186.9580  178.0160  146.0980 C   0  0  0  0  0  2  0  0  0  0  0  0
  188.0260  177.4620  147.0320 C   0  0  0  0  0  2  0  0  0  0  0  0
  189.3220  177.1740  146.2840 C   0  0  0  0  0  2  0  0  0  0  0  0
  189.4410  178.0240  145.0310 C   0  0  0  0  0  2  0  0  0  0  0  0
  189.8370  177.2310  143.9520 O   0  0  0  0  0  1  0  0  0  0  0  0
  1  2  1  0  0  0  0
  1  4  1  1  0  0  0
  2 11  1  1  0  0  0
  3  6  1  0  0  0  0
  7  5  1  6  0  0  0
  7  8  1  0  0  0  0
  8  4  1  0  0  0  0
  9 10  1  0  0  0  0
 10 16  1  0  0  0  0
 11 16  1  0  0  0  0
 12 15  1  6  0  0  0
 12  1  1  0  0  0  0
 13  3  1  6  0  0  0
 13 12  1  0  0  0  0
 13  1  1  0  0  0  0
 14 13  1  0  0  0  0
 14  7  1  0  0  0  0
 16 18  1  1  0  0  0
 17  6  1  6  0  0  0
 17  9  1  0  0  0  0
 17  2  1  0  0  0  0
 18 19  1  0  0  0  0
 19 20  1  0  0  0  0
 21 20  1  0  0  0  0
 21 22  1  0  0  0  0
 23 22  1  0  0  0  0
 24 23  1  0  0  0  0
 25 24  1  0  0  0  0
M  END
>  <MODEL>
8

>  <REMARK>
 VINA RESULT:      -6.3      2.755      8.025
  Name = 
  7 active torsions:
  status: ('A' for Active; 'I' for Inactive)
    1  A    between atoms: C_2  and  C_7
    2  A    between atoms: C_2  and  C_25
    3  A    between atoms: C_6  and  C_15
    4  A    between atoms: C_6  and  C_21
    5  A    between atoms: C_15  and  C_20
    6  A    between atoms: C_20  and  C_23
    7  A    between atoms: C_21  and  C_25
                            x       y       z     vdW  Elec       q    Type
                         _______ _______ _______ _____ _____    ______ ____

>  <TORSDO>
F 7

$$$$
=
 OpenBabel11052412533D

 25 28  0  0  1  0  0  0  0  0999 V2000
  189.4970  178.0370  144.0270 C   0  0  2  0  0  0  0  0  0  0  0  0
  189.8100  177.8780  142.5180 C   0  0  2  0  0  3  0  0  0  0  0  0
  191.5660  176.5250  144.4980 C   0  0  0  0  0  2  0  0  0  0  0  0
  188.0540  178.3730  144.4270 C   0  0  0  0  0  2  0  0  0  0  0  0
  187.8470  176.8210  147.8990 C   0  0  0  0  0  1  0  0  0  0  0  0
  191.0950  175.7760  143.2660 C   0  0  0  0  0  2  0  0  0  0  0  0
  188.4670  177.5410  146.7210 C   0  0  2  0  0  3  0  0  0  0  0  0
  187.5330  177.4640  145.5290 C   0  0  0  0  0  2  0  0  0  0  0  0
  190.3890  176.0420  141.0010 O   0  0  0  0  0  0  0  0  0  0  0  0
  190.1110  176.9720  139.9780 C   0  0  0  0  0  2  0  0  0  0  0  0
  188.6330  177.7360  141.7590 O   0  0  0  0  0  0  0  0  0  0  0  0
  190.4840  178.8930  144.8510 C   0  0  1  0  0  3  0  0  0  0  0  0
  190.4270  177.3760  145.0590 C   0  0  1  0  0  0  0  0  0  0  0  0
  189.8010  176.8860  146.3750 C   0  0  0  0  0  2  0  0  0  0  0  0
  191.7120  179.3650  144.0730 C   0  0  0  0  0  1  0  0  0  0  0  0
  188.9860  177.9350  140.4060 C   0  0  2  0  0  3  0  0  0  0  0  0
  190.8270  176.7600  142.1370 C   0  0  1  0  0  3  0  0  0  0  0  0
  187.7720  177.7170  139.5180 C   0  0  0  0  0  2  0  0  0  0  0  0
  188.0150  178.2400  138.1080 C   0  0  0  0  0  2  0  0  0  0  0  0
  187.3920  177.3320  137.0540 C   0  0  0  0  0  2  0  0  0  0  0  0
  187.7210  175.8670  137.3150 C   0  0  0  0  0  2  0  0  0  0  0  0
  189.0860  175.4890  136.7540 C   0  0  0  0  0  2  0  0  0  0  0  0
  189.4020  174.0200  137.0060 C   0  0  0  0  0  2  0  0  0  0  0  0
  190.8940  173.7480  136.9120 C   0  0  0  0  0  2  0  0  0  0  0  0
  191.5690  174.4380  137.9200 O   0  0  0  0  0  1  0  0  0  0  0  0
  1  4  1  1  0  0  0
  1 12  1  0  0  0  0
  1 13  1  0  0  0  0
  2 11  1  6  0  0  0
  2  1  1  0  0  0  0
  4  8  1  0  0  0  0
  6  3  1  0  0  0  0
  7  5  1  1  0  0  0
  8  7  1  0  0  0  0
  9 17  1  0  0  0  0
 10 16  1  0  0  0  0
 10  9  1  0  0  0  0
 12 15  1  6  0  0  0
 12 13  1  0  0  0  0
 13  3  1  6  0  0  0
 13 14  1  0  0  0  0
 14  7  1  0  0  0  0
 16 18  1  6  0  0  0
 16 11  1  0  0  0  0
 17  2  1  0  0  0  0
 17  6  1  1  0  0  0
 19 18  1  0  0  0  0
 20 21  1  0  0  0  0
 20 19  1  0  0  0  0
 22 23  1  0  0  0  0
 22 21  1  0  0  0  0
 24 23  1  0  0  0  0
 24 25  1  0  0  0  0
M  END
>  <MODEL>
9

>  <REMARK>
 VINA RESULT:      -6.3      2.267      4.641
  Name = 
  7 active torsions:
  status: ('A' for Active; 'I' for Inactive)
    1  A    between atoms: C_2  and  C_7
    2  A    between atoms: C_2  and  C_25
    3  A    between atoms: C_6  and  C_15
    4  A    between atoms: C_6  and  C_21
    5  A    between atoms: C_15  and  C_20
    6  A    between atoms: C_20  and  C_23
    7  A    between atoms: C_21  and  C_25
                            x       y       z     vdW  Elec       q    Type
                         _______ _______ _______ _____ _____    ______ ____

>  <TORSDO>
F 7

$$$$
