=
 OpenBabel11052414403D

 32 37  0  0  1  0  0  0  0  0999 V2000
  184.5320  178.7380  141.6540 C   0  0  0  0  0  0  0  0  0  0  0  0
  186.9480  178.5260  141.6360 C   0  0  0  0  0  0  0  0  0  0  0  0
  183.2300  178.7300  142.4170 C   0  0  0  0  0  2  0  0  0  0  0  0
  185.7530  178.5910  142.3480 C   0  0  0  0  0  0  0  0  0  0  0  0
  188.2460  178.4460  142.3990 C   0  0  2  0  0  3  0  0  0  0  0  0
  189.0200  176.3490  138.0140 C   0  0  0  0  0  2  0  0  0  0  0  0
  186.9220  178.4240  140.2470 C   0  0  0  0  0  0  0  0  0  0  0  0
  190.5420  177.2210  139.8090 C   0  0  0  0  0  2  0  0  0  0  0  0
  189.2050  177.5030  140.4980 C   0  0  1  0  0  3  0  0  0  0  0  0
  185.8340  178.5110  143.8590 C   0  0  2  0  0  3  0  0  0  0  0  0
  189.4200  178.3500  141.6060 O   0  0  0  0  0  0  0  0  0  0  0  0
  186.8240  177.4150  144.2970 C   0  0  0  0  0  2  0  0  0  0  0  0
  184.4770  178.2530  144.5100 C   0  0  0  0  0  2  0  0  0  0  0  0
  185.7420  178.5580  139.5860 N   0  0  0  0  0  0  0  0  0  0  0  0
  184.5550  178.7400  140.2350 C   0  0  0  0  0  0  0  0  0  0  0  0
  188.1980  178.1410  139.5130 C   0  0  1  0  0  3  0  0  0  0  0  0
  188.1730  177.4120  143.5340 C   0  0  2  0  0  3  0  0  0  0  0  0
  183.4130  179.1350  143.8750 C   0  0  0  0  0  2  0  0  0  0  0  0
  190.3920  176.9480  138.3120 C   0  0  0  0  0  2  0  0  0  0  0  0
  187.9310  177.2810  138.3440 N   0  0  0  0  0  2  0  0  0  0  0  0
  182.0590  177.5500  137.7160 C   0  0  0  0  0  0  0  0  0  0  0  0
  180.1700  180.2540  136.5830 O   0  0  0  0  0  1  0  0  0  0  0  0
  181.3740  176.2940  137.2790 C   0  0  0  0  0  1  0  0  0  0  0  0
  181.7050  180.5020  138.3430 C   0  0  0  0  0  3  0  0  0  0  0  0
  183.3300  178.8870  139.4090 C   0  0  0  0  0  0  0  0  0  0  0  0
  182.0830  178.6750  136.7370 C   0  0  0  0  0  2  0  0  0  0  0  0
  182.8670  180.1280  139.1720 C   0  0  0  0  0  3  0  0  0  0  0  0
  182.6510  177.6460  138.9240 C   0  0  0  0  0  0  0  0  0  0  0  0
  182.6470  176.4610  139.8430 C   0  0  0  0  0  1  0  0  0  0  0  0
  181.3080  179.8370  137.2600 C   0  0  0  0  0  0  0  0  0  0  0  0
  189.3520  177.5370  144.4970 C   0  0  0  0  0  2  0  0  0  0  0  0
  188.9100  177.5030  145.9520 C   0  0  0  0  0  1  0  0  0  0  0  0
  1  4  1  0  0  0  0
  1  3  1  0  0  0  0
  2  4  2  0  0  0  0
  2  5  1  0  0  0  0
  3 18  1  0  0  0  0
  4 10  1  0  0  0  0
  5 11  1  6  0  0  0
  5 17  1  0  0  0  0
  6 19  1  0  0  0  0
  6 20  1  0  0  0  0
  7  2  1  0  0  0  0
  9  8  1  6  0  0  0
  9 11  1  0  0  0  0
 10 12  1  6  0  0  0
 10 13  1  0  0  0  0
 14 15  1  0  0  0  0
 14  7  2  0  0  0  0
 15  1  2  0  0  0  0
 16 20  1  6  0  0  0
 16  7  1  0  0  0  0
 16  9  1  0  0  0  0
 17 12  1  0  0  0  0
 17 31  1  1  0  0  0
 18 13  1  0  0  0  0
 19  8  1  0  0  0  0
 21 28  2  0  0  0  0
 22 30  1  0  0  0  0
 23 21  1  0  0  0  0
 24 27  1  0  0  0  0
 25 15  1  0  0  0  0
 26 30  1  0  0  0  0
 26 21  1  0  0  0  0
 27 25  2  0  0  0  0
 28 25  1  0  0  0  0
 28 29  1  0  0  0  0
 30 24  2  0  0  0  0
 31 32  1  0  0  0  0
M  END
>  <MODEL>
1

>  <REMARK>
 VINA RESULT:      -9.7      0.000      0.000
  Name = 
  2 active torsions:
  status: ('A' for Active; 'I' for Inactive)
    1  A    between atoms: C_13  and  C_29
    2  A    between atoms: C_16  and  C_27
                            x       y       z     vdW  Elec       q    Type
                         _______ _______ _______ _____ _____    ______ ____

>  <TORSDO>
F 2

$$$$
=
 OpenBabel11052414403D

 32 37  0  0  1  0  0  0  0  0999 V2000
  189.3200  177.5830  141.7160 C   0  0  0  0  0  0  0  0  0  0  0  0
  187.9910  177.4160  143.7370 C   0  0  0  0  0  0  0  0  0  0  0  0
  190.6720  177.6490  141.0480 C   0  0  0  0  0  2  0  0  0  0  0  0
  189.2360  177.4050  143.1130 C   0  0  0  0  0  0  0  0  0  0  0  0
  187.9160  177.1470  145.2180 C   0  0  2  0  0  3  0  0  0  0  0  0
  184.0000  179.8910  144.0530 C   0  0  0  0  0  2  0  0  0  0  0  0
  186.8580  177.7820  143.0140 C   0  0  0  0  0  0  0  0  0  0  0  0
  184.5890  178.4690  146.0360 C   0  0  0  0  0  2  0  0  0  0  0  0
  185.8780  178.2730  145.2320 C   0  0  1  0  0  3  0  0  0  0  0  0
  190.4540  177.1830  143.9880 C   0  0  2  0  0  3  0  0  0  0  0  0
  186.6170  177.2080  145.7890 O   0  0  0  0  0  0  0  0  0  0  0  0
  190.3540  178.0090  145.2840 C   0  0  0  0  0  2  0  0  0  0  0  0
  191.7610  177.5210  143.2750 C   0  0  0  0  0  2  0  0  0  0  0  0
  186.9480  177.9610  141.6690 N   0  0  0  0  0  0  0  0  0  0  0  0
  188.1280  177.8470  140.9920 C   0  0  0  0  0  0  0  0  0  0  0  0
  185.5660  177.9980  143.7440 C   0  0  1  0  0  3  0  0  0  0  0  0
  188.9770  177.9460  145.9930 C   0  0  2  0  0  3  0  0  0  0  0  0
  191.7540  176.9520  141.8650 C   0  0  0  0  0  2  0  0  0  0  0  0
  183.4470  179.0400  145.1940 C   0  0  0  0  0  2  0  0  0  0  0  0
  184.8040  179.0950  143.1140 N   0  0  0  0  0  2  0  0  0  0  0  0
  186.6110  177.4960  137.5910 C   0  0  0  0  0  0  0  0  0  0  0  0
  189.0280  178.1610  135.1660 O   0  0  0  0  0  1  0  0  0  0  0  0
  185.2740  177.4970  136.9210 C   0  0  0  0  0  1  0  0  0  0  0  0
  189.4800  178.4880  137.4470 C   0  0  0  0  0  3  0  0  0  0  0  0
  188.1040  178.0520  139.5230 C   0  0  0  0  0  0  0  0  0  0  0  0
  187.7340  176.8610  136.8420 C   0  0  0  0  0  2  0  0  0  0  0  0
  189.2690  178.3030  138.8970 C   0  0  0  0  0  3  0  0  0  0  0  0
  186.7830  178.0160  138.8230 C   0  0  0  0  0  0  0  0  0  0  0  0
  185.6040  178.5870  139.5540 C   0  0  0  0  0  1  0  0  0  0  0  0
  188.7720  177.8760  136.5000 C   0  0  0  0  0  0  0  0  0  0  0  0
  189.1190  177.4590  147.4340 C   0  0  0  0  0  2  0  0  0  0  0  0
  188.3690  178.3460  148.4150 C   0  0  0  0  0  1  0  0  0  0  0  0
  1  4  1  0  0  0  0
  3  1  1  0  0  0  0
  3 18  1  0  0  0  0
  4  2  2  0  0  0  0
  4 10  1  0  0  0  0
  5  2  1  6  0  0  0
  5 11  1  0  0  0  0
  5 17  1  0  0  0  0
  6 19  1  0  0  0  0
  7  2  1  0  0  0  0
  9 11  1  0  0  0  0
  9  8  1  1  0  0  0
 10 13  1  6  0  0  0
 10 12  1  0  0  0  0
 12 17  1  0  0  0  0
 14  7  2  0  0  0  0
 15 14  1  0  0  0  0
 15  1  2  0  0  0  0
 16  7  1  6  0  0  0
 16  9  1  0  0  0  0
 17 31  1  1  0  0  0
 18 13  1  0  0  0  0
 19  8  1  0  0  0  0
 20 16  1  0  0  0  0
 20  6  1  0  0  0  0
 21 28  2  0  0  0  0
 22 30  1  0  0  0  0
 23 21  1  0  0  0  0
 24 27  1  0  0  0  0
 25 15  1  0  0  0  0
 26 21  1  0  0  0  0
 27 25  2  0  0  0  0
 28 25  1  0  0  0  0
 28 29  1  0  0  0  0
 30 26  1  0  0  0  0
 30 24  2  0  0  0  0
 31 32  1  0  0  0  0
M  END
>  <MODEL>
2

>  <REMARK>
 VINA RESULT:      -9.2      2.996      5.830
  Name = 
  2 active torsions:
  status: ('A' for Active; 'I' for Inactive)
    1  A    between atoms: C_13  and  C_29
    2  A    between atoms: C_16  and  C_27
                            x       y       z     vdW  Elec       q    Type
                         _______ _______ _______ _____ _____    ______ ____

>  <TORSDO>
F 2

$$$$
=
 OpenBabel11052414403D

 32 37  0  0  1  0  0  0  0  0999 V2000
  185.3480  178.2780  143.3210 C   0  0  0  0  0  0  0  0  0  0  0  0
  187.4280  178.3080  142.0760 C   0  0  0  0  0  0  0  0  0  0  0  0
  184.6080  178.0380  144.6140 C   0  0  0  0  0  2  0  0  0  0  0  0
  186.7540  178.1570  143.2850 C   0  0  0  0  0  0  0  0  0  0  0  0
  188.9350  178.2510  142.0710 C   0  0  2  0  0  3  0  0  0  0  0  0
  187.4270  176.8620  137.5970 C   0  0  0  0  0  2  0  0  0  0  0  0
  186.7080  178.3960  140.8870 C   0  0  0  0  0  0  0  0  0  0  0  0
  189.6330  177.6240  138.5210 C   0  0  0  0  0  2  0  0  0  0  0  0
  188.8200  177.6760  139.8180 C   0  0  1  0  0  3  0  0  0  0  0  0
  187.5870  177.8780  144.5200 C   0  0  2  0  0  3  0  0  0  0  0  0
  189.5510  178.3800  140.7980 O   0  0  0  0  0  0  0  0  0  0  0  0
  188.6790  176.8350  144.2200 C   0  0  0  0  0  2  0  0  0  0  0  0
  186.7470  177.4020  145.7030 C   0  0  0  0  0  2  0  0  0  0  0  0
  185.3530  178.5030  140.9300 N   0  0  0  0  0  0  0  0  0  0  0  0
  184.6520  178.4770  142.1010 C   0  0  0  0  0  0  0  0  0  0  0  0
  187.4450  178.3420  139.5820 C   0  0  1  0  0  3  0  0  0  0  0  0
  189.4600  177.0690  142.9010 C   0  0  2  0  0  3  0  0  0  0  0  0
  185.4940  178.2540  145.8360 C   0  0  0  0  0  2  0  0  0  0  0  0
  188.7530  177.5460  137.2730 C   0  0  0  0  0  2  0  0  0  0  0  0
  186.6380  177.6290  138.5730 N   0  0  0  0  0  2  0  0  0  0  0  0
  181.4110  178.7740  140.2580 C   0  0  0  0  0  0  0  0  0  0  0  0
  178.9400  179.9310  142.4310 O   0  0  0  0  0  1  0  0  0  0  0  0
  180.7370  178.2630  139.0250 C   0  0  0  0  0  1  0  0  0  0  0  0
  181.0820  179.3780  143.2190 C   0  0  0  0  0  3  0  0  0  0  0  0
  183.1770  178.6150  142.0260 C   0  0  0  0  0  0  0  0  0  0  0  0
  180.8580  180.0250  140.8540 C   0  0  0  0  0  2  0  0  0  0  0  0
  182.5290  179.1120  143.0960 C   0  0  0  0  0  3  0  0  0  0  0  0
  182.4830  178.1500  140.7850 C   0  0  0  0  0  0  0  0  0  0  0  0
  183.0330  176.9290  140.1090 C   0  0  0  0  0  1  0  0  0  0  0  0
  180.2990  179.7540  142.2090 C   0  0  0  0  0  0  0  0  0  0  0  0
  190.9620  177.1750  143.1610 C   0  0  0  0  0  2  0  0  0  0  0  0
  191.3180  178.4140  143.9680 C   0  0  0  0  0  1  0  0  0  0  0  0
  1  3  1  0  0  0  0
  2  4  2  0  0  0  0
  3 18  1  0  0  0  0
  4  1  1  0  0  0  0
  4 10  1  0  0  0  0
  5 11  1  6  0  0  0
  5  2  1  0  0  0  0
  5 17  1  0  0  0  0
  6 20  1  0  0  0  0
  7 14  2  0  0  0  0
  7  2  1  0  0  0  0
  9  8  1  6  0  0  0
  9 11  1  0  0  0  0
 10 12  1  6  0  0  0
 10 13  1  0  0  0  0
 13 18  1  0  0  0  0
 14 15  1  0  0  0  0
 15  1  2  0  0  0  0
 16 20  1  6  0  0  0
 16  9  1  0  0  0  0
 16  7  1  0  0  0  0
 17 31  1  1  0  0  0
 17 12  1  0  0  0  0
 19  6  1  0  0  0  0
 19  8  1  0  0  0  0
 21 28  2  0  0  0  0
 21 26  1  0  0  0  0
 23 21  1  0  0  0  0
 25 15  1  0  0  0  0
 25 27  2  0  0  0  0
 26 30  1  0  0  0  0
 27 24  1  0  0  0  0
 28 25  1  0  0  0  0
 29 28  1  0  0  0  0
 30 22  1  0  0  0  0
 30 24  2  0  0  0  0
 31 32  1  0  0  0  0
M  END
>  <MODEL>
3

>  <REMARK>
 VINA RESULT:      -8.6      1.813      2.652
  Name = 
  2 active torsions:
  status: ('A' for Active; 'I' for Inactive)
    1  A    between atoms: C_13  and  C_29
    2  A    between atoms: C_16  and  C_27
                            x       y       z     vdW  Elec       q    Type
                         _______ _______ _______ _____ _____    ______ ____

>  <TORSDO>
F 2

$$$$
=
 OpenBabel11052414403D

 32 37  0  0  1  0  0  0  0  0999 V2000
  185.4190  178.2680  142.8070 C   0  0  0  0  0  0  0  0  0  0  0  0
  187.1800  178.4440  141.1500 C   0  0  0  0  0  0  0  0  0  0  0  0
  184.9800  177.9250  144.2090 C   0  0  0  0  0  2  0  0  0  0  0  0
  186.7860  178.1980  142.4620 C   0  0  0  0  0  0  0  0  0  0  0  0
  188.6510  178.4400  140.8190 C   0  0  2  0  0  3  0  0  0  0  0  0
  186.2430  177.2690  136.6900 C   0  0  0  0  0  2  0  0  0  0  0  0
  186.2190  178.5770  140.1510 C   0  0  0  0  0  0  0  0  0  0  0  0
  188.5790  178.0500  137.1680 C   0  0  0  0  0  2  0  0  0  0  0  0
  188.0650  177.9970  138.6090 C   0  0  1  0  0  3  0  0  0  0  0  0
  187.8710  177.8750  143.4700 C   0  0  2  0  0  3  0  0  0  0  0  0
  188.9750  178.6660  139.4540 O   0  0  0  0  0  0  0  0  0  0  0  0
  188.8950  176.8900  142.8740 C   0  0  0  0  0  2  0  0  0  0  0  0
  187.3170  177.3000  144.7710 C   0  0  0  0  0  2  0  0  0  0  0  0
  184.9030  178.6350  140.4900 N   0  0  0  0  0  0  0  0  0  0  0  0
  184.4720  178.5150  141.7790 C   0  0  0  0  0  0  0  0  0  0  0  0
  186.6580  178.6270  138.7180 C   0  0  1  0  0  3  0  0  0  0  0  0
  189.3680  177.2300  141.4380 C   0  0  2  0  0  3  0  0  0  0  0  0
  186.1050  178.0990  145.2250 C   0  0  0  0  0  2  0  0  0  0  0  0
  187.4530  178.0160  136.1350 C   0  0  0  0  0  2  0  0  0  0  0  0
  185.6670  177.9480  137.8600 N   0  0  0  0  0  2  0  0  0  0  0  0
  180.8980  178.7170  140.6950 C   0  0  0  0  0  0  0  0  0  0  0  0
  178.9310  179.7830  143.3710 O   0  0  0  0  0  1  0  0  0  0  0  0
  179.9850  178.1920  139.6330 C   0  0  0  0  0  1  0  0  0  0  0  0
  181.2090  179.2950  143.6630 C   0  0  0  0  0  3  0  0  0  0  0  0
  183.0130  178.6060  142.0310 C   0  0  0  0  0  0  0  0  0  0  0  0
  180.4510  179.9470  141.4130 C   0  0  0  0  0  2  0  0  0  0  0  0
  182.6010  179.0760  143.2230 C   0  0  0  0  0  3  0  0  0  0  0  0
  182.0780  178.1250  140.9670 C   0  0  0  0  0  0  0  0  0  0  0  0
  182.5020  176.9270  140.1710 C   0  0  0  0  0  1  0  0  0  0  0  0
  180.2120  179.6500  142.8540 C   0  0  0  0  0  0  0  0  0  0  0  0
  190.8880  177.3720  141.3760 C   0  0  0  0  0  2  0  0  0  0  0  0
  191.5070  177.5030  142.7590 C   0  0  0  0  0  1  0  0  0  0  0  0
  1  3  1  0  0  0  0
  2  4  2  0  0  0  0
  3 18  1  0  0  0  0
  4  1  1  0  0  0  0
  4 10  1  0  0  0  0
  5 11  1  6  0  0  0
  5  2  1  0  0  0  0
  5 17  1  0  0  0  0
  6 20  1  0  0  0  0
  7 14  2  0  0  0  0
  7  2  1  0  0  0  0
  9  8  1  6  0  0  0
  9 16  1  0  0  0  0
  9 11  1  0  0  0  0
 10 12  1  6  0  0  0
 10 13  1  0  0  0  0
 13 18  1  0  0  0  0
 14 15  1  0  0  0  0
 15 25  1  0  0  0  0
 15  1  2  0  0  0  0
 16 20  1  6  0  0  0
 16  7  1  0  0  0  0
 17 31  1  1  0  0  0
 17 12  1  0  0  0  0
 19  6  1  0  0  0  0
 19  8  1  0  0  0  0
 21 28  2  0  0  0  0
 21 26  1  0  0  0  0
 23 21  1  0  0  0  0
 25 27  2  0  0  0  0
 26 30  1  0  0  0  0
 27 24  1  0  0  0  0
 28 25  1  0  0  0  0
 29 28  1  0  0  0  0
 30 22  1  0  0  0  0
 30 24  2  0  0  0  0
 31 32  1  0  0  0  0
M  END
>  <MODEL>
4

>  <REMARK>
 VINA RESULT:      -8.6      2.197      3.200
  Name = 
  2 active torsions:
  status: ('A' for Active; 'I' for Inactive)
    1  A    between atoms: C_13  and  C_29
    2  A    between atoms: C_16  and  C_27
                            x       y       z     vdW  Elec       q    Type
                         _______ _______ _______ _____ _____    ______ ____

>  <TORSDO>
F 2

$$$$
=
 OpenBabel11052414403D

 32 37  0  0  1  0  0  0  0  0999 V2000
  184.1820  178.6800  141.4360 C   0  0  0  0  0  0  0  0  0  0  0  0
  186.6030  178.5790  141.3450 C   0  0  0  0  0  0  0  0  0  0  0  0
  182.9070  178.6410  142.2410 C   0  0  0  0  0  2  0  0  0  0  0  0
  185.4300  178.6150  142.0930 C   0  0  0  0  0  0  0  0  0  0  0  0
  187.9270  178.5880  142.0660 C   0  0  2  0  0  3  0  0  0  0  0  0
  188.6600  176.3650  137.7360 C   0  0  0  0  0  2  0  0  0  0  0  0
  186.5380  178.4240  139.9620 C   0  0  0  0  0  0  0  0  0  0  0  0
  190.1960  177.3730  139.4460 C   0  0  0  0  0  2  0  0  0  0  0  0
  188.8690  177.6180  140.1690 C   0  0  1  0  0  3  0  0  0  0  0  0
  185.5620  178.5960  143.6030 C   0  0  2  0  0  3  0  0  0  0  0  0
  189.0790  178.5160  141.2370 O   0  0  0  0  0  0  0  0  0  0  0  0
  186.6170  177.5640  144.0460 C   0  0  0  0  0  2  0  0  0  0  0  0
  184.2410  178.3010  144.3080 C   0  0  0  0  0  2  0  0  0  0  0  0
  185.3320  178.4780  139.3370 N   0  0  0  0  0  0  0  0  0  0  0  0
  184.1590  178.6300  140.0180 C   0  0  0  0  0  0  0  0  0  0  0  0
  187.8030  178.1720  139.1960 C   0  0  1  0  0  3  0  0  0  0  0  0
  187.9400  177.5950  143.2390 C   0  0  2  0  0  3  0  0  0  0  0  0
  183.1160  179.1080  143.6780 C   0  0  0  0  0  2  0  0  0  0  0  0
  190.0110  177.0370  137.9660 C   0  0  0  0  0  2  0  0  0  0  0  0
  187.5390  177.2570  138.0680 N   0  0  0  0  0  2  0  0  0  0  0  0
  180.9800  180.2590  138.9100 C   0  0  0  0  0  0  0  0  0  0  0  0
  178.9360  177.8900  137.3680 O   0  0  0  0  0  1  0  0  0  0  0  0
  180.4270  181.6140  138.6030 C   0  0  0  0  0  1  0  0  0  0  0  0
  181.1300  177.3580  138.0150 C   0  0  0  0  0  3  0  0  0  0  0  0
  182.9040  178.6890  139.2290 C   0  0  0  0  0  0  0  0  0  0  0  0
  179.9890  179.1840  139.2100 C   0  0  0  0  0  2  0  0  0  0  0  0
  182.3850  177.5340  138.7710 C   0  0  0  0  0  3  0  0  0  0  0  0
  182.3080  180.0300  138.9440 C   0  0  0  0  0  0  0  0  0  0  0  0
  183.2580  181.1640  138.6940 C   0  0  0  0  0  1  0  0  0  0  0  0
  180.0470  178.1180  138.1690 C   0  0  0  0  0  0  0  0  0  0  0  0
  189.1410  177.8100  144.1570 C   0  0  0  0  0  2  0  0  0  0  0  0
  188.8070  177.5290  145.6140 C   0  0  0  0  0  1  0  0  0  0  0  0
  1  4  1  0  0  0  0
  1  3  1  0  0  0  0
  2  5  1  0  0  0  0
  2  4  2  0  0  0  0
  3 18  1  0  0  0  0
  4 10  1  0  0  0  0
  5 11  1  6  0  0  0
  5 17  1  0  0  0  0
  6 19  1  0  0  0  0
  6 20  1  0  0  0  0
  7  2  1  0  0  0  0
  9  8  1  6  0  0  0
  9 11  1  0  0  0  0
 10 12  1  6  0  0  0
 10 13  1  0  0  0  0
 14  7  2  0  0  0  0
 14 15  1  0  0  0  0
 15  1  2  0  0  0  0
 16 20  1  6  0  0  0
 16  7  1  0  0  0  0
 16  9  1  0  0  0  0
 17 12  1  0  0  0  0
 17 31  1  1  0  0  0
 18 13  1  0  0  0  0
 19  8  1  0  0  0  0
 21 28  2  0  0  0  0
 21 26  1  0  0  0  0
 22 30  1  0  0  0  0
 23 21  1  0  0  0  0
 24 30  2  0  0  0  0
 24 27  1  0  0  0  0
 25 15  1  0  0  0  0
 27 25  2  0  0  0  0
 28 25  1  0  0  0  0
 29 28  1  0  0  0  0
 30 26  1  0  0  0  0
 31 32  1  0  0  0  0
M  END
>  <MODEL>
5

>  <REMARK>
 VINA RESULT:      -8.6      0.954      1.908
  Name = 
  2 active torsions:
  status: ('A' for Active; 'I' for Inactive)
    1  A    between atoms: C_13  and  C_29
    2  A    between atoms: C_16  and  C_27
                            x       y       z     vdW  Elec       q    Type
                         _______ _______ _______ _____ _____    ______ ____

>  <TORSDO>
F 2

$$$$
=
 OpenBabel11052414403D

 32 37  0  0  1  0  0  0  0  0999 V2000
  186.7350  178.1530  141.5980 C   0  0  0  0  0  0  0  0  0  0  0  0
  187.8900  177.4780  143.6200 C   0  0  0  0  0  0  0  0  0  0  0  0
  186.7770  178.5210  140.1350 C   0  0  0  0  0  2  0  0  0  0  0  0
  187.9170  177.7490  142.2550 C   0  0  0  0  0  0  0  0  0  0  0  0
  189.1440  176.9740  144.2880 C   0  0  2  0  0  3  0  0  0  0  0  0
  186.4900  179.2560  147.7480 C   0  0  0  0  0  2  0  0  0  0  0  0
  186.7520  177.7810  144.3640 C   0  0  0  0  0  0  0  0  0  0  0  0
  188.4140  177.6450  147.8230 C   0  0  0  0  0  2  0  0  0  0  0  0
  188.2890  177.7700  146.3020 C   0  0  1  0  0  3  0  0  0  0  0  0
  189.2390  177.5760  141.5340 C   0  0  2  0  0  3  0  0  0  0  0  0
  189.0490  176.7530  145.6870 O   0  0  0  0  0  0  0  0  0  0  0  0
  190.3950  178.1660  142.3630 C   0  0  0  0  0  2  0  0  0  0  0  0
  189.2410  178.2110  140.1450 C   0  0  0  0  0  2  0  0  0  0  0  0
  185.6190  178.1790  143.7250 N   0  0  0  0  0  0  0  0  0  0  0  0
  185.5610  178.3470  142.3720 C   0  0  0  0  0  0  0  0  0  0  0  0
  186.8110  177.6870  145.8590 C   0  0  1  0  0  3  0  0  0  0  0  0
  190.3770  177.7910  143.8670 C   0  0  2  0  0  3  0  0  0  0  0  0
  187.9520  177.8730  139.4110 C   0  0  0  0  0  2  0  0  0  0  0  0
  187.1810  178.1660  148.5630 C   0  0  0  0  0  2  0  0  0  0  0  0
  185.9780  178.7430  146.4670 N   0  0  0  0  0  2  0  0  0  0  0  0
  181.8330  178.6580  142.3610 C   0  0  0  0  0  0  0  0  0  0  0  0
  180.7430  179.4490  139.1440 O   0  0  0  0  0  1  0  0  0  0  0  0
  180.6950  178.8870  143.3030 C   0  0  0  0  0  1  0  0  0  0  0  0
  183.0320  179.3830  139.6640 C   0  0  0  0  0  3  0  0  0  0  0  0
  184.2670  178.7720  141.7830 C   0  0  0  0  0  0  0  0  0  0  0  0
  181.5000  178.0390  141.0450 C   0  0  0  0  0  2  0  0  0  0  0  0
  184.2170  179.0030  140.4580 C   0  0  0  0  0  3  0  0  0  0  0  0
  183.1010  178.9680  142.6990 C   0  0  0  0  0  0  0  0  0  0  0  0
  183.3850  179.5320  144.0600 C   0  0  0  0  0  1  0  0  0  0  0  0
  181.7880  178.9910  139.9340 C   0  0  0  0  0  0  0  0  0  0  0  0
  191.6810  177.1120  144.2820 C   0  0  0  0  0  2  0  0  0  0  0  0
  191.6850  175.6280  143.9500 C   0  0  0  0  0  1  0  0  0  0  0  0
  1  4  2  0  0  0  0
  1 15  1  0  0  0  0
  2  7  2  0  0  0  0
  3  1  1  0  0  0  0
  4  2  1  0  0  0  0
  5  2  1  1  0  0  0
  5 11  1  0  0  0  0
  6 19  1  0  0  0  0
  8 19  1  0  0  0  0
  9  8  1  1  0  0  0
 10 13  1  6  0  0  0
 10  4  1  0  0  0  0
 10 12  1  0  0  0  0
 11  9  1  0  0  0  0
 12 17  1  0  0  0  0
 14  7  1  0  0  0  0
 15 14  2  0  0  0  0
 16  7  1  6  0  0  0
 16  9  1  0  0  0  0
 16 20  1  0  0  0  0
 17 31  1  6  0  0  0
 17  5  1  0  0  0  0
 18  3  1  0  0  0  0
 18 13  1  0  0  0  0
 20  6  1  0  0  0  0
 21 28  2  0  0  0  0
 21 23  1  0  0  0  0
 22 30  1  0  0  0  0
 24 30  2  0  0  0  0
 24 27  1  0  0  0  0
 25 15  1  0  0  0  0
 25 28  1  0  0  0  0
 26 21  1  0  0  0  0
 27 25  2  0  0  0  0
 28 29  1  0  0  0  0
 30 26  1  0  0  0  0
 32 31  1  0  0  0  0
M  END
>  <MODEL>
6

>  <REMARK>
 VINA RESULT:      -8.3      2.262      5.157
  Name = 
  2 active torsions:
  status: ('A' for Active; 'I' for Inactive)
    1  A    between atoms: C_13  and  C_29
    2  A    between atoms: C_16  and  C_27
                            x       y       z     vdW  Elec       q    Type
                         _______ _______ _______ _____ _____    ______ ____

>  <TORSDO>
F 2

$$$$
=
 OpenBabel11052414403D

 32 37  0  0  1  0  0  0  0  0999 V2000
  189.4470  177.1860  140.5510 C   0  0  0  0  0  0  0  0  0  0  0  0
  187.5780  178.1770  139.3660 C   0  0  0  0  0  0  0  0  0  0  0  0
  190.7320  176.3940  140.5270 C   0  0  0  0  0  2  0  0  0  0  0  0
  188.7990  177.5100  139.3390 C   0  0  0  0  0  0  0  0  0  0  0  0
  186.9400  178.5820  138.0610 C   0  0  2  0  0  3  0  0  0  0  0  0
  183.3060  178.0580  141.3380 C   0  0  0  0  0  2  0  0  0  0  0  0
  186.9150  178.3580  140.5770 C   0  0  0  0  0  0  0  0  0  0  0  0
  183.4670  179.1730  139.0950 C   0  0  0  0  0  2  0  0  0  0  0  0
  184.8950  178.6270  139.1730 C   0  0  1  0  0  3  0  0  0  0  0  0
  189.3830  177.1750  137.9810 C   0  0  2  0  0  3  0  0  0  0  0  0
  185.6800  179.2280  138.1670 O   0  0  0  0  0  0  0  0  0  0  0  0
  188.2940  176.6310  137.0360 C   0  0  0  0  0  2  0  0  0  0  0  0
  190.5280  176.1670  138.0630 C   0  0  0  0  0  2  0  0  0  0  0  0
  187.5410  178.0350  141.7400 N   0  0  0  0  0  0  0  0  0  0  0  0
  188.7890  177.4850  141.7720 C   0  0  0  0  0  0  0  0  0  0  0  0
  185.5100  178.8830  140.5680 C   0  0  1  0  0  3  0  0  0  0  0  0
  186.9700  177.4360  137.0360 C   0  0  2  0  0  3  0  0  0  0  0  0
  191.4700  176.5320  139.2000 C   0  0  0  0  0  2  0  0  0  0  0  0
  182.7560  179.1710  140.4490 C   0  0  0  0  0  2  0  0  0  0  0  0
  184.7280  178.2580  141.6530 N   0  0  0  0  0  2  0  0  0  0  0  0
  188.8860  177.6720  145.5070 C   0  0  0  0  0  0  0  0  0  0  0  0
  192.0550  176.7530  146.6350 O   0  0  0  0  0  1  0  0  0  0  0  0
  187.9620  177.6800  146.6830 C   0  0  0  0  0  1  0  0  0  0  0  0
  191.4750  176.5600  144.3680 C   0  0  0  0  0  3  0  0  0  0  0  0
  189.3790  177.1850  143.1010 C   0  0  0  0  0  0  0  0  0  0  0  0
  190.2590  178.2110  145.7300 C   0  0  0  0  0  2  0  0  0  0  0  0
  190.6800  176.8480  143.1570 C   0  0  0  0  0  3  0  0  0  0  0  0
  188.4850  177.2280  144.2990 C   0  0  0  0  0  0  0  0  0  0  0  0
  187.0730  176.7530  144.1190 C   0  0  0  0  0  1  0  0  0  0  0  0
  191.2760  177.1360  145.5520 C   0  0  0  0  0  0  0  0  0  0  0  0
  186.6160  177.9170  135.6310 C   0  0  0  0  0  2  0  0  0  0  0  0
  187.7020  177.5820  134.6200 C   0  0  0  0  0  1  0  0  0  0  0  0
  1 15  1  0  0  0  0
  2  7  2  0  0  0  0
  3  1  1  0  0  0  0
  4  2  1  0  0  0  0
  4  1  2  0  0  0  0
  5 11  1  1  0  0  0
  5  2  1  0  0  0  0
  6 20  1  0  0  0  0
  7 14  1  0  0  0  0
  8 19  1  0  0  0  0
  9  8  1  1  0  0  0
  9 16  1  0  0  0  0
 10 12  1  6  0  0  0
 10 13  1  0  0  0  0
 10  4  1  0  0  0  0
 11  9  1  0  0  0  0
 13 18  1  0  0  0  0
 14 15  2  0  0  0  0
 15 25  1  0  0  0  0
 16  7  1  6  0  0  0
 16 20  1  0  0  0  0
 17 31  1  6  0  0  0
 17 12  1  0  0  0  0
 17  5  1  0  0  0  0
 18  3  1  0  0  0  0
 19  6  1  0  0  0  0
 21 26  1  0  0  0  0
 21 23  1  0  0  0  0
 24 30  2  0  0  0  0
 25 27  2  0  0  0  0
 25 28  1  0  0  0  0
 27 24  1  0  0  0  0
 28 21  2  0  0  0  0
 29 28  1  0  0  0  0
 30 26  1  0  0  0  0
 30 22  1  0  0  0  0
 32 31  1  0  0  0  0
M  END
>  <MODEL>
7

>  <REMARK>
 VINA RESULT:      -8.3      2.305      8.226
  Name = 
  2 active torsions:
  status: ('A' for Active; 'I' for Inactive)
    1  A    between atoms: C_13  and  C_29
    2  A    between atoms: C_16  and  C_27
                            x       y       z     vdW  Elec       q    Type
                         _______ _______ _______ _____ _____    ______ ____

>  <TORSDO>
F 2

$$$$
=
 OpenBabel11052414403D

 32 37  0  0  1  0  0  0  0  0999 V2000
  188.9220  177.6250  141.4870 C   0  0  0  0  0  0  0  0  0  0  0  0
  187.3160  178.2860  139.7950 C   0  0  0  0  0  0  0  0  0  0  0  0
  190.2130  176.9380  141.8590 C   0  0  0  0  0  2  0  0  0  0  0  0
  188.5410  177.7170  140.1310 C   0  0  0  0  0  0  0  0  0  0  0  0
  186.9620  178.4450  138.3380 C   0  0  2  0  0  3  0  0  0  0  0  0
  182.7260  178.1360  140.8250 C   0  0  0  0  0  2  0  0  0  0  0  0
  186.3980  178.5940  140.7960 C   0  0  0  0  0  0  0  0  0  0  0  0
  183.3250  178.9180  138.5160 C   0  0  0  0  0  2  0  0  0  0  0  0
  184.7230  178.4980  138.9770 C   0  0  1  0  0  3  0  0  0  0  0  0
  189.4210  177.2300  138.9960 C   0  0  2  0  0  3  0  0  0  0  0  0
  185.6820  179.0030  138.0740 O   0  0  0  0  0  0  0  0  0  0  0  0
  188.5880  176.4730  137.9450 C   0  0  0  0  0  2  0  0  0  0  0  0
  190.5610  176.3350  139.4760 C   0  0  0  0  0  2  0  0  0  0  0  0
  186.7680  178.4940  142.1010 N   0  0  0  0  0  0  0  0  0  0  0  0
  188.0020  178.0510  142.4800 C   0  0  0  0  0  0  0  0  0  0  0  0
  185.0080  179.0030  140.4100 C   0  0  1  0  0  3  0  0  0  0  0  0
  187.2620  177.1660  137.5400 C   0  0  2  0  0  3  0  0  0  0  0  0
  191.2160  176.9340  140.7110 C   0  0  0  0  0  2  0  0  0  0  0  0
  182.3370  179.0620  139.6750 C   0  0  0  0  0  2  0  0  0  0  0  0
  184.0350  178.4880  141.3940 N   0  0  0  0  0  2  0  0  0  0  0  0
  190.2630  177.5150  145.4120 C   0  0  0  0  0  0  0  0  0  0  0  0
  188.3480  177.1000  148.2960 O   0  0  0  0  0  1  0  0  0  0  0  0
  191.6810  177.7440  145.8290 C   0  0  0  0  0  1  0  0  0  0  0  0
  187.3490  177.6920  146.2550 C   0  0  0  0  0  3  0  0  0  0  0  0
  188.3000  177.9950  143.9330 C   0  0  0  0  0  0  0  0  0  0  0  0
  189.4960  176.4910  146.1790 C   0  0  0  0  0  2  0  0  0  0  0  0
  187.2740  177.8240  144.7870 C   0  0  0  0  0  3  0  0  0  0  0  0
  189.7170  178.1800  144.3730 C   0  0  0  0  0  0  0  0  0  0  0  0
  190.5540  179.1540  143.5990 C   0  0  0  0  0  1  0  0  0  0  0  0
  188.3630  177.1280  146.9090 C   0  0  0  0  0  0  0  0  0  0  0  0
  187.2030  177.4070  136.0330 C   0  0  0  0  0  2  0  0  0  0  0  0
  188.5880  177.4580  135.4060 C   0  0  0  0  0  1  0  0  0  0  0  0
  1  3  1  0  0  0  0
  1 15  1  0  0  0  0
  2  4  1  0  0  0  0
  2  7  2  0  0  0  0
  4  1  2  0  0  0  0
  5 11  1  1  0  0  0
  5  2  1  0  0  0  0
  6 20  1  0  0  0  0
  7 14  1  0  0  0  0
  8 19  1  0  0  0  0
  9  8  1  6  0  0  0
  9 16  1  0  0  0  0
 10 12  1  6  0  0  0
 10 13  1  0  0  0  0
 10  4  1  0  0  0  0
 11  9  1  0  0  0  0
 13 18  1  0  0  0  0
 14 15  2  0  0  0  0
 15 25  1  0  0  0  0
 16  7  1  1  0  0  0
 16 20  1  0  0  0  0
 17 31  1  6  0  0  0
 17 12  1  0  0  0  0
 17  5  1  0  0  0  0
 18  3  1  0  0  0  0
 19  6  1  0  0  0  0
 21 23  1  0  0  0  0
 21 26  1  0  0  0  0
 24 30  2  0  0  0  0
 25 28  1  0  0  0  0
 25 27  2  0  0  0  0
 26 30  1  0  0  0  0
 27 24  1  0  0  0  0
 28 21  2  0  0  0  0
 29 28  1  0  0  0  0
 30 22  1  0  0  0  0
 32 31  1  0  0  0  0
M  END
>  <MODEL>
8

>  <REMARK>
 VINA RESULT:      -7.7      2.260      7.980
  Name = 
  2 active torsions:
  status: ('A' for Active; 'I' for Inactive)
    1  A    between atoms: C_13  and  C_29
    2  A    between atoms: C_16  and  C_27
                            x       y       z     vdW  Elec       q    Type
                         _______ _______ _______ _____ _____    ______ ____

>  <TORSDO>
F 2

$$$$
=
 OpenBabel11052414403D

 32 37  0  0  1  0  0  0  0  0999 V2000
  190.2570  177.1910  142.9100 C   0  0  0  0  0  0  0  0  0  0  0  0
  187.9710  177.2900  143.7110 C   0  0  0  0  0  0  0  0  0  0  0  0
  191.7390  177.1840  143.1980 C   0  0  0  0  0  2  0  0  0  0  0  0
  189.3350  177.2110  143.9780 C   0  0  0  0  0  0  0  0  0  0  0  0
  186.9990  177.2330  144.8620 C   0  0  2  0  0  3  0  0  0  0  0  0
  184.7900  179.7190  141.2340 C   0  0  0  0  0  2  0  0  0  0  0  0
  187.5330  177.5320  142.4110 C   0  0  0  0  0  0  0  0  0  0  0  0
  183.9590  178.6020  143.3220 C   0  0  0  0  0  2  0  0  0  0  0  0
  185.4530  178.3160  143.4980 C   0  0  1  0  0  3  0  0  0  0  0  0
  189.7600  177.1360  145.4310 C   0  0  2  0  0  3  0  0  0  0  0  0
  185.6270  177.3530  144.5140 O   0  0  0  0  0  0  0  0  0  0  0  0
  188.9590  178.1360  146.2870 C   0  0  0  0  0  2  0  0  0  0  0  0
  191.2530  177.3910  145.6240 C   0  0  0  0  0  2  0  0  0  0  0  0
  188.4280  177.5200  141.3880 N   0  0  0  0  0  0  0  0  0  0  0  0
  189.7650  177.3290  141.5860 C   0  0  0  0  0  0  0  0  0  0  0  0
  186.0820  177.8270  142.1730 C   0  0  1  0  0  3  0  0  0  0  0  0
  187.4330  178.1510  146.0160 C   0  0  2  0  0  3  0  0  0  0  0  0
  192.0550  176.6270  144.5820 C   0  0  0  0  0  2  0  0  0  0  0  0
  183.6010  179.0300  141.8980 C   0  0  0  0  0  2  0  0  0  0  0  0
  185.9370  178.8110  141.0820 N   0  0  0  0  0  2  0  0  0  0  0  0
  190.4530  176.8620  137.9390 C   0  0  0  0  0  0  0  0  0  0  0  0
  193.8940  176.5950  137.4310 O   0  0  0  0  0  1  0  0  0  0  0  0
  189.8060  177.0790  136.6090 C   0  0  0  0  0  1  0  0  0  0  0  0
  193.0210  177.1280  139.5440 C   0  0  0  0  0  3  0  0  0  0  0  0
  190.6470  177.3230  140.3930 C   0  0  0  0  0  0  0  0  0  0  0  0
  191.5790  175.8830  137.9850 C   0  0  0  0  0  2  0  0  0  0  0  0
  191.9740  177.2050  140.5830 C   0  0  0  0  0  3  0  0  0  0  0  0
  190.0190  177.4970  139.0460 C   0  0  0  0  0  0  0  0  0  0  0  0
  188.8450  178.4240  138.9520 C   0  0  0  0  0  1  0  0  0  0  0  0
  192.8510  176.5690  138.3470 C   0  0  0  0  0  0  0  0  0  0  0  0
  186.6420  177.8760  147.2930 C   0  0  0  0  0  2  0  0  0  0  0  0
  185.3200  178.6280  147.3220 C   0  0  0  0  0  1  0  0  0  0  0  0
  1  3  1  0  0  0  0
  1  4  1  0  0  0  0
  2  4  2  0  0  0  0
  3 18  1  0  0  0  0
  4 10  1  0  0  0  0
  5  2  1  6  0  0  0
  5 17  1  0  0  0  0
  6 19  1  0  0  0  0
  7  2  1  0  0  0  0
  9  8  1  6  0  0  0
  9 11  1  0  0  0  0
 10 13  1  6  0  0  0
 10 12  1  0  0  0  0
 11  5  1  0  0  0  0
 14 15  1  0  0  0  0
 14  7  2  0  0  0  0
 15  1  2  0  0  0  0
 16 20  1  6  0  0  0
 16  7  1  0  0  0  0
 16  9  1  0  0  0  0
 17 12  1  0  0  0  0
 17 31  1  1  0  0  0
 18 13  1  0  0  0  0
 19  8  1  0  0  0  0
 20  6  1  0  0  0  0
 21 26  1  0  0  0  0
 21 28  2  0  0  0  0
 22 30  1  0  0  0  0
 23 21  1  0  0  0  0
 24 27  1  0  0  0  0
 25 27  2  0  0  0  0
 25 15  1  0  0  0  0
 26 30  1  0  0  0  0
 28 25  1  0  0  0  0
 29 28  1  0  0  0  0
 30 24  2  0  0  0  0
 31 32  1  0  0  0  0
M  END
>  <MODEL>
9

>  <REMARK>
 VINA RESULT:      -7.5      3.193      7.078
  Name = 
  2 active torsions:
  status: ('A' for Active; 'I' for Inactive)
    1  A    between atoms: C_13  and  C_29
    2  A    between atoms: C_16  and  C_27
                            x       y       z     vdW  Elec       q    Type
                         _______ _______ _______ _____ _____    ______ ____

>  <TORSDO>
F 2

$$$$
