=
 OpenBabel11052416493D

 32 38  0  0  1  0  0  0  0  0999 V2000
  188.5270  176.7020  137.9940 S   0  0  0  0  0  0  0  0  0  0  0  0
  187.6510  177.8470  142.8560 C   0  0  0  0  0  0  0  0  0  0  0  0
  182.9190  179.0020  142.7440 C   0  0  0  0  0  3  0  0  0  0  0  0
  182.8930  179.0060  144.1430 C   0  0  0  0  0  3  0  0  0  0  0  0
  188.4680  177.5420  145.1050 C   0  0  0  0  0  0  0  0  0  0  0  0
  189.7510  177.1180  144.8700 C   0  0  0  0  0  0  0  0  0  0  0  0
  188.9260  177.4480  140.7690 C   0  0  1  0  0  3  0  0  0  0  0  0
  186.6030  178.0660  140.5950 C   0  0  0  0  0  2  0  0  0  0  0  0
  188.6680  177.5300  147.4810 C   0  0  0  0  0  0  0  0  0  0  0  0
  187.9590  178.3100  138.6640 C   0  0  0  0  0  2  0  0  0  0  0  0
  184.1030  178.7140  142.0600 C   0  0  0  0  0  3  0  0  0  0  0  0
  186.5030  178.1480  142.0980 C   0  0  0  0  0  0  0  0  0  0  0  0
  185.2760  178.4240  142.7690 C   0  0  0  0  0  0  0  0  0  0  0  0
  186.3840  178.1210  144.8710 N   0  0  0  0  0  0  0  0  0  0  0  0
  190.0170  177.1230  147.3080 C   0  0  0  0  0  3  0  0  0  0  0  0
  187.9610  178.3740  140.1350 N   0  0  2  0  0  0  0  0  0  0  0  0
  190.5540  176.9030  146.0060 C   0  0  0  0  0  3  0  0  0  0  0  0
  190.2840  177.5240  140.0780 C   0  0  0  0  0  2  0  0  0  0  0  0
  190.2220  176.8720  138.6900 C   0  0  1  0  0  3  0  0  0  0  0  0
  184.0500  178.7190  144.8720 C   0  0  0  0  0  3  0  0  0  0  0  0
  185.2410  178.4260  144.1990 C   0  0  0  0  0  0  0  0  0  0  0  0
  186.5950  178.0800  146.1900 N   0  0  0  0  0  0  0  0  0  0  0  0
  189.0400  177.7830  142.2560 C   0  0  2  0  0  3  0  0  0  0  0  0
  190.2060  176.6480  143.1760 S   0  0  0  0  0  0  0  0  0  0  0  0
  188.1030  177.7340  148.8420 C   0  0  0  0  0  1  0  0  0  0  0  0
  187.5120  177.8170  144.2200 C   0  0  0  0  0  0  0  0  0  0  0  0
  187.9030  177.7250  146.3300 C   0  0  0  0  0  0  0  0  0  0  0  0
  190.9530  175.6050  138.6520 N   0  0  0  0  0  2  0  0  0  0  0  0
  191.6410  175.4540  137.3700 C   0  0  0  0  0  2  0  0  0  0  0  0
  193.1540  175.5130  137.5440 C   0  0  0  0  0  3  0  0  0  0  0  0
  193.7520  174.1210  137.6250 C   0  0  0  0  0  1  0  0  0  0  0  0
  193.8030  176.3010  136.4220 C   0  0  0  0  0  1  0  0  0  0  0  0
  1 10  1  0  0  0  0
  1 19  1  0  0  0  0
  2 26  1  0  0  0  0
  3  4  1  0  0  0  0
  4 20  2  0  0  0  0
  5 27  1  0  0  0  0
  6  5  1  0  0  0  0
  6 17  2  0  0  0  0
  7 18  1  6  0  0  0
  7 23  1  0  0  0  0
  8 12  1  0  0  0  0
  9 25  1  0  0  0  0
 11  3  2  0  0  0  0
 11 13  1  0  0  0  0
 12 13  1  0  0  0  0
 12  2  2  0  0  0  0
 13 21  2  0  0  0  0
 14 22  1  0  0  0  0
 15  9  2  0  0  0  0
 16 10  1  6  0  0  0
 16  8  1  0  0  0  0
 16  7  1  0  0  0  0
 17 15  1  0  0  0  0
 19 28  1  1  0  0  0
 19 18  1  0  0  0  0
 21 14  1  0  0  0  0
 21 20  1  0  0  0  0
 22 27  2  0  0  0  0
 23  2  1  1  0  0  0
 23 24  1  0  0  0  0
 24  6  1  0  0  0  0
 26 14  1  0  0  0  0
 26  5  2  0  0  0  0
 27  9  1  0  0  0  0
 29 30  1  0  0  0  0
 29 28  1  0  0  0  0
 30 31  1  0  0  0  0
 32 30  1  0  0  0  0
M  END
>  <MODEL>
1

>  <REMARK>
 VINA RESULT:     -11.3      0.000      0.000
  Name = 
  3 active torsions:
  status: ('A' for Active; 'I' for Inactive)
    1  A    between atoms: C_1  and  C_10
    2  A    between atoms: C_10  and  N_19
    3  A    between atoms: N_19  and  C_24
                            x       y       z     vdW  Elec       q    Type
                         _______ _______ _______ _____ _____    ______ ____

>  <TORSDO>
F 3

$$$$
=
 OpenBabel11052416493D

 32 38  0  0  1  0  0  0  0  0999 V2000
  186.9930  177.1030  137.3100 S   0  0  0  0  0  0  0  0  0  0  0  0
  187.6690  177.8860  142.2740 C   0  0  0  0  0  0  0  0  0  0  0  0
  183.1500  179.0130  143.7050 C   0  0  0  0  0  3  0  0  0  0  0  0
  183.5550  178.9150  145.0410 C   0  0  0  0  0  3  0  0  0  0  0  0
  189.1330  177.4250  144.1360 C   0  0  0  0  0  0  0  0  0  0  0  0
  190.2750  177.0280  143.4880 C   0  0  0  0  0  0  0  0  0  0  0  0
  188.2360  177.6500  139.8740 C   0  0  1  0  0  3  0  0  0  0  0  0
  185.9820  178.2620  140.4670 C   0  0  0  0  0  2  0  0  0  0  0  0
  190.0530  177.2420  146.3280 C   0  0  0  0  0  0  0  0  0  0  0  0
  186.6830  178.6550  138.2350 C   0  0  0  0  0  2  0  0  0  0  0  0
  184.0630  178.7830  142.6710 C   0  0  0  0  0  3  0  0  0  0  0  0
  186.3500  178.2340  141.9290 C   0  0  0  0  0  0  0  0  0  0  0  0
  185.3920  178.4510  142.9630 C   0  0  0  0  0  0  0  0  0  0  0  0
  187.0870  178.0050  144.5950 N   0  0  0  0  0  0  0  0  0  0  0  0
  191.2760  176.8590  145.7200 C   0  0  0  0  0  3  0  0  0  0  0  0
  187.1380  178.6120  139.6340 N   0  0  2  0  0  0  0  0  0  0  0  0
  191.3850  176.7370  144.3040 C   0  0  0  0  0  3  0  0  0  0  0  0
  189.3170  177.7840  138.8060 C   0  0  0  0  0  2  0  0  0  0  0  0
  188.8220  177.2350  137.4610 C   0  0  1  0  0  3  0  0  0  0  0  0
  184.8760  178.5840  145.3560 C   0  0  0  0  0  3  0  0  0  0  0  0
  185.7980  178.3490  144.3300 C   0  0  0  0  0  0  0  0  0  0  0  0
  187.6920  177.8700  145.7790 N   0  0  0  0  0  0  0  0  0  0  0  0
  188.8070  177.8760  141.2740 C   0  0  2  0  0  3  0  0  0  0  0  0
  190.1800  176.6860  141.7070 S   0  0  0  0  0  0  0  0  0  0  0  0
  189.9360  177.3430  147.8080 C   0  0  0  0  0  1  0  0  0  0  0  0
  187.9560  177.7570  143.6090 C   0  0  0  0  0  0  0  0  0  0  0  0
  188.9740  177.5150  145.4840 C   0  0  0  0  0  0  0  0  0  0  0  0
  189.4860  175.9790  137.1100 N   0  0  0  0  0  2  0  0  0  0  0  0
  190.5600  176.2240  136.1480 C   0  0  0  0  0  2  0  0  0  0  0  0
  191.8520  175.5390  136.5760 C   0  0  0  0  0  3  0  0  0  0  0  0
  192.5370  176.3070  137.6910 C   0  0  0  0  0  1  0  0  0  0  0  0
  191.5960  174.1070  137.0030 C   0  0  0  0  0  1  0  0  0  0  0  0
  1 19  1  0  0  0  0
  1 10  1  0  0  0  0
  2 26  1  0  0  0  0
  3  4  1  0  0  0  0
  4 20  2  0  0  0  0
  5 27  1  0  0  0  0
  6  5  1  0  0  0  0
  6 17  2  0  0  0  0
  7 18  1  6  0  0  0
  7 23  1  0  0  0  0
  8 12  1  0  0  0  0
  9 25  1  0  0  0  0
 11 13  1  0  0  0  0
 11  3  2  0  0  0  0
 12  2  2  0  0  0  0
 12 13  1  0  0  0  0
 13 21  2  0  0  0  0
 14 22  1  0  0  0  0
 15  9  2  0  0  0  0
 16 10  1  6  0  0  0
 16  7  1  0  0  0  0
 16  8  1  0  0  0  0
 17 15  1  0  0  0  0
 19 28  1  1  0  0  0
 19 18  1  0  0  0  0
 21 14  1  0  0  0  0
 21 20  1  0  0  0  0
 23 24  1  1  0  0  0
 23  2  1  0  0  0  0
 24  6  1  0  0  0  0
 26  5  2  0  0  0  0
 26 14  1  0  0  0  0
 27 22  2  0  0  0  0
 27  9  1  0  0  0  0
 29 30  1  0  0  0  0
 29 28  1  0  0  0  0
 30 32  1  0  0  0  0
 30 31  1  0  0  0  0
M  END
>  <MODEL>
2

>  <REMARK>
 VINA RESULT:     -10.6      1.181      1.500
  Name = 
  3 active torsions:
  status: ('A' for Active; 'I' for Inactive)
    1  A    between atoms: C_1  and  C_10
    2  A    between atoms: C_10  and  N_19
    3  A    between atoms: N_19  and  C_24
                            x       y       z     vdW  Elec       q    Type
                         _______ _______ _______ _____ _____    ______ ____

>  <TORSDO>
F 3

$$$$
=
 OpenBabel11052416493D

 32 38  0  0  1  0  0  0  0  0999 V2000
  192.0070  177.5030  141.1150 S   0  0  0  0  0  0  0  0  0  0  0  0
  187.5800  177.7810  143.5730 C   0  0  0  0  0  0  0  0  0  0  0  0
  189.0540  177.9270  148.2150 C   0  0  0  0  0  3  0  0  0  0  0  0
  187.7520  178.2530  148.6120 C   0  0  0  0  0  3  0  0  0  0  0  0
  185.2520  178.3670  143.3310 C   0  0  0  0  0  0  0  0  0  0  0  0
  185.1170  178.3700  141.9660 C   0  0  0  0  0  0  0  0  0  0  0  0
  189.1770  177.3360  141.7320 C   0  0  1  0  0  3  0  0  0  0  0  0
  190.0050  177.3330  143.9950 C   0  0  0  0  0  2  0  0  0  0  0  0
  182.9650  178.8720  143.7770 C   0  0  0  0  0  0  0  0  0  0  0  0
  191.3410  176.3010  142.3280 C   0  0  0  0  0  2  0  0  0  0  0  0
  189.3520  177.7260  146.8640 C   0  0  0  0  0  3  0  0  0  0  0  0
  188.6180  177.6290  144.5120 C   0  0  0  0  0  0  0  0  0  0  0  0
  188.3490  177.8500  145.8940 C   0  0  0  0  0  0  0  0  0  0  0  0
  186.0650  178.3230  145.3480 N   0  0  0  0  0  0  0  0  0  0  0  0
  182.7480  178.8560  142.3740 C   0  0  0  0  0  3  0  0  0  0  0  0
  189.9540  176.5790  142.7370 N   0  0  2  0  0  0  0  0  0  0  0  0
  183.8230  178.6200  141.4690 C   0  0  0  0  0  3  0  0  0  0  0  0
  189.3740  176.7470  140.3380 C   0  0  0  0  0  2  0  0  0  0  0  0
  190.7840  177.0540  139.8150 C   0  0  1  0  0  3  0  0  0  0  0  0
  186.7360  178.3820  147.6620 C   0  0  0  0  0  3  0  0  0  0  0  0
  187.0220  178.1860  146.3060 C   0  0  0  0  0  0  0  0  0  0  0  0
  184.7680  178.6090  145.4950 N   0  0  0  0  0  0  0  0  0  0  0  0
  187.7010  177.3350  142.1310 C   0  0  2  0  0  3  0  0  0  0  0  0
  186.6210  178.3000  140.9510 S   0  0  0  0  0  0  0  0  0  0  0  0
  181.8460  179.1440  144.7180 C   0  0  0  0  0  1  0  0  0  0  0  0
  186.3520  178.1590  144.0530 C   0  0  0  0  0  0  0  0  0  0  0  0
  184.2630  178.6270  144.2280 C   0  0  0  0  0  0  0  0  0  0  0  0
  190.7590  178.0390  138.7320 N   0  0  0  0  0  2  0  0  0  0  0  0
  189.3890  178.4900  138.4880 C   0  0  0  0  0  2  0  0  0  0  0  0
  189.0550  178.4610  137.0020 C   0  0  0  0  0  3  0  0  0  0  0  0
  189.5470  177.1800  136.3530 C   0  0  0  0  0  1  0  0  0  0  0  0
  187.5650  178.6280  136.7740 C   0  0  0  0  0  1  0  0  0  0  0  0
  1 10  1  0  0  0  0
  2 26  1  0  0  0  0
  2 12  2  0  0  0  0
  3  4  1  0  0  0  0
  5 26  2  0  0  0  0
  5 27  1  0  0  0  0
  6  5  1  0  0  0  0
  7 18  1  6  0  0  0
  7 23  1  0  0  0  0
  7 16  1  0  0  0  0
  8 12  1  0  0  0  0
  9 27  1  0  0  0  0
  9 25  1  0  0  0  0
 11  3  2  0  0  0  0
 12 13  1  0  0  0  0
 13 21  2  0  0  0  0
 13 11  1  0  0  0  0
 14 22  1  0  0  0  0
 14 21  1  0  0  0  0
 15  9  2  0  0  0  0
 16 10  1  6  0  0  0
 16  8  1  0  0  0  0
 17  6  2  0  0  0  0
 17 15  1  0  0  0  0
 19 28  1  6  0  0  0
 19 18  1  0  0  0  0
 19  1  1  0  0  0  0
 20  4  2  0  0  0  0
 21 20  1  0  0  0  0
 23 24  1  6  0  0  0
 23  2  1  0  0  0  0
 24  6  1  0  0  0  0
 26 14  1  0  0  0  0
 27 22  2  0  0  0  0
 29 28  1  0  0  0  0
 30 29  1  0  0  0  0
 31 30  1  0  0  0  0
 32 30  1  0  0  0  0
M  END
>  <MODEL>
3

>  <REMARK>
 VINA RESULT:      -9.6      1.976      4.935
  Name = 
  3 active torsions:
  status: ('A' for Active; 'I' for Inactive)
    1  A    between atoms: C_1  and  C_10
    2  A    between atoms: C_10  and  N_19
    3  A    between atoms: N_19  and  C_24
                            x       y       z     vdW  Elec       q    Type
                         _______ _______ _______ _____ _____    ______ ____

>  <TORSDO>
F 3

$$$$
=
 OpenBabel11052416493D

 32 38  0  0  1  0  0  0  0  0999 V2000
  189.2690  176.8900  136.9070 S   0  0  0  0  0  0  0  0  0  0  0  0
  186.6940  178.1550  141.0890 C   0  0  0  0  0  0  0  0  0  0  0  0
  182.2770  179.0980  139.2620 C   0  0  0  0  0  3  0  0  0  0  0  0
  181.7560  179.1470  140.5600 C   0  0  0  0  0  3  0  0  0  0  0  0
  186.6700  177.9610  143.4940 C   0  0  0  0  0  0  0  0  0  0  0  0
  187.9640  177.5850  143.7460 C   0  0  0  0  0  0  0  0  0  0  0  0
  188.6370  177.7450  139.6070 C   0  0  1  0  0  3  0  0  0  0  0  0
  186.5090  178.2540  138.5960 C   0  0  0  0  0  2  0  0  0  0  0  0
  186.0160  178.0350  145.7850 C   0  0  0  0  0  0  0  0  0  0  0  0
  188.4530  178.4940  137.2580 C   0  0  0  0  0  2  0  0  0  0  0  0
  183.6350  178.8390  139.0530 C   0  0  0  0  0  3  0  0  0  0  0  0
  185.8810  178.3810  139.9620 C   0  0  0  0  0  0  0  0  0  0  0  0
  184.4880  178.6250  140.1430 C   0  0  0  0  0  0  0  0  0  0  0  0
  184.7880  178.4400  142.5130 N   0  0  0  0  0  0  0  0  0  0  0  0
  187.3500  177.6820  146.1170 C   0  0  0  0  0  3  0  0  0  0  0  0
  187.9330  178.6060  138.6310 N   0  0  2  0  0  0  0  0  0  0  0  0
  188.3190  177.4430  145.1010 C   0  0  0  0  0  3  0  0  0  0  0  0
  190.1480  177.8560  139.4370 C   0  0  0  0  0  2  0  0  0  0  0  0
  190.6010  177.1580  138.1470 C   0  0  1  0  0  3  0  0  0  0  0  0
  182.5890  178.9350  141.6620 C   0  0  0  0  0  3  0  0  0  0  0  0
  183.9490  178.6720  141.4670 C   0  0  0  0  0  0  0  0  0  0  0  0
  184.5190  178.4520  143.8220 N   0  0  0  0  0  0  0  0  0  0  0  0
  188.2070  178.1320  141.0220 C   0  0  2  0  0  3  0  0  0  0  0  0
  189.0040  177.0800  142.3450 S   0  0  0  0  0  0  0  0  0  0  0  0
  184.9990  178.2590  146.8480 C   0  0  0  0  0  1  0  0  0  0  0  0
  186.0820  178.1640  142.3160 C   0  0  0  0  0  0  0  0  0  0  0  0
  185.7030  178.1580  144.4300 C   0  0  0  0  0  0  0  0  0  0  0  0
  191.3360  175.9230  138.4280 N   0  0  0  0  0  2  0  0  0  0  0  0
  191.3740  175.0730  137.2390 C   0  0  0  0  0  2  0  0  0  0  0  0
  192.7750  174.5230  136.9970 C   0  0  0  0  0  3  0  0  0  0  0  0
  193.2090  174.7400  135.5590 C   0  0  0  0  0  1  0  0  0  0  0  0
  193.7770  175.1450  137.9500 C   0  0  0  0  0  1  0  0  0  0  0  0
  1 10  1  0  0  0  0
  1 19  1  0  0  0  0
  2 26  1  0  0  0  0
  3  4  1  0  0  0  0
  4 20  2  0  0  0  0
  5  6  1  0  0  0  0
  5 27  1  0  0  0  0
  6 17  2  0  0  0  0
  7 18  1  1  0  0  0
  7 23  1  0  0  0  0
  8 16  1  0  0  0  0
  8 12  1  0  0  0  0
  9 15  2  0  0  0  0
  9 25  1  0  0  0  0
 11  3  2  0  0  0  0
 11 13  1  0  0  0  0
 12 13  1  0  0  0  0
 12  2  2  0  0  0  0
 13 21  2  0  0  0  0
 14 22  1  0  0  0  0
 16 10  1  6  0  0  0
 16  7  1  0  0  0  0
 17 15  1  0  0  0  0
 19 28  1  1  0  0  0
 19 18  1  0  0  0  0
 21 20  1  0  0  0  0
 21 14  1  0  0  0  0
 22 27  2  0  0  0  0
 23  2  1  6  0  0  0
 23 24  1  0  0  0  0
 24  6  1  0  0  0  0
 26 14  1  0  0  0  0
 26  5  2  0  0  0  0
 27  9  1  0  0  0  0
 29 28  1  0  0  0  0
 30 29  1  0  0  0  0
 30 32  1  0  0  0  0
 31 30  1  0  0  0  0
M  END
>  <MODEL>
4

>  <REMARK>
 VINA RESULT:      -9.1      1.561      2.404
  Name = 
  3 active torsions:
  status: ('A' for Active; 'I' for Inactive)
    1  A    between atoms: C_1  and  C_10
    2  A    between atoms: C_10  and  N_19
    3  A    between atoms: N_19  and  C_24
                            x       y       z     vdW  Elec       q    Type
                         _______ _______ _______ _____ _____    ______ ____

>  <TORSDO>
F 3

$$$$
=
 OpenBabel11052416493D

 32 38  0  0  1  0  0  0  0  0999 V2000
  191.6180  176.2230  143.8430 S   0  0  0  0  0  0  0  0  0  0  0  0
  188.1270  177.9290  140.5850 C   0  0  0  0  0  0  0  0  0  0  0  0
  190.2090  176.9020  136.3020 C   0  0  0  0  0  3  0  0  0  0  0  0
  189.0070  177.2040  135.6520 C   0  0  0  0  0  3  0  0  0  0  0  0
  185.7950  178.5080  140.3570 C   0  0  0  0  0  0  0  0  0  0  0  0
  185.4190  178.6300  141.6690 C   0  0  0  0  0  0  0  0  0  0  0  0
  189.3660  177.6620  142.7140 C   0  0  1  0  0  3  0  0  0  0  0  0
  190.5100  177.1750  140.6490 C   0  0  0  0  0  2  0  0  0  0  0  0
  183.6670  179.1080  139.4640 C   0  0  0  0  0  0  0  0  0  0  0  0
  191.8310  177.5400  142.5860 C   0  0  0  0  0  2  0  0  0  0  0  0
  190.3050  177.0020  137.6930 C   0  0  0  0  0  3  0  0  0  0  0  0
  189.2720  177.5370  139.8670 C   0  0  0  0  0  0  0  0  0  0  0  0
  189.1970  177.4050  138.4500 C   0  0  0  0  0  0  0  0  0  0  0  0
  186.8990  178.0760  138.5330 N   0  0  0  0  0  0  0  0  0  0  0  0
  183.2220  179.2870  140.8000 C   0  0  0  0  0  3  0  0  0  0  0  0
  190.5800  177.9220  141.9100 N   0  0  2  0  0  0  0  0  0  0  0  0
  184.0900  179.0350  141.9020 C   0  0  0  0  0  3  0  0  0  0  0  0
  189.5480  178.1540  144.1460 C   0  0  0  0  0  2  0  0  0  0  0  0
  190.5250  177.2480  144.9090 C   0  0  1  0  0  3  0  0  0  0  0  0
  187.8890  177.6060  136.3860 C   0  0  0  0  0  3  0  0  0  0  0  0
  187.9710  177.7080  137.7790 C   0  0  0  0  0  0  0  0  0  0  0  0
  185.6730  178.4220  138.1310 N   0  0  0  0  0  0  0  0  0  0  0  0
  188.1660  178.3320  142.0450 C   0  0  2  0  0  3  0  0  0  0  0  0
  186.5600  178.0370  142.9520 S   0  0  0  0  0  0  0  0  0  0  0  0
  182.7510  179.3460  138.3170 C   0  0  0  0  0  1  0  0  0  0  0  0
  186.9790  178.1460  139.8660 C   0  0  0  0  0  0  0  0  0  0  0  0
  184.9890  178.6980  139.2770 C   0  0  0  0  0  0  0  0  0  0  0  0
  189.8400  176.4400  145.9190 N   0  0  0  0  0  2  0  0  0  0  0  0
  189.7890  177.1550  147.1940 C   0  0  0  0  0  2  0  0  0  0  0  0
  188.3800  177.1470  147.7760 C   0  0  0  0  0  3  0  0  0  0  0  0
  188.2510  178.1430  148.9130 C   0  0  0  0  0  1  0  0  0  0  0  0
  187.3450  177.4320  146.7050 C   0  0  0  0  0  1  0  0  0  0  0  0
  1 19  1  0  0  0  0
  3 11  1  0  0  0  0
  4  3  2  0  0  0  0
  4 20  1  0  0  0  0
  5  6  1  0  0  0  0
  6 17  2  0  0  0  0
  6 24  1  0  0  0  0
  7 18  1  1  0  0  0
  9 15  2  0  0  0  0
 10  1  1  0  0  0  0
 11 13  2  0  0  0  0
 12  2  2  0  0  0  0
 12  8  1  0  0  0  0
 13 12  1  0  0  0  0
 14 26  1  0  0  0  0
 15 17  1  0  0  0  0
 16  8  1  6  0  0  0
 16 10  1  0  0  0  0
 16  7  1  0  0  0  0
 18 19  1  0  0  0  0
 19 28  1  1  0  0  0
 20 21  2  0  0  0  0
 21 13  1  0  0  0  0
 21 14  1  0  0  0  0
 22 14  1  0  0  0  0
 22 27  2  0  0  0  0
 23  2  1  6  0  0  0
 23  7  1  0  0  0  0
 23 24  1  0  0  0  0
 25  9  1  0  0  0  0
 26  5  2  0  0  0  0
 26  2  1  0  0  0  0
 27  9  1  0  0  0  0
 27  5  1  0  0  0  0
 28 29  1  0  0  0  0
 29 30  1  0  0  0  0
 30 31  1  0  0  0  0
 32 30  1  0  0  0  0
M  END
>  <MODEL>
5

>  <REMARK>
 VINA RESULT:      -8.9      2.322      7.682
  Name = 
  3 active torsions:
  status: ('A' for Active; 'I' for Inactive)
    1  A    between atoms: C_1  and  C_10
    2  A    between atoms: C_10  and  N_19
    3  A    between atoms: N_19  and  C_24
                            x       y       z     vdW  Elec       q    Type
                         _______ _______ _______ _____ _____    ______ ____

>  <TORSDO>
F 3

$$$$
=
 OpenBabel11052416493D

 32 38  0  0  1  0  0  0  0  0999 V2000
  189.4990  176.9860  138.1590 S   0  0  0  0  0  0  0  0  0  0  0  0
  184.9880  178.3210  140.0520 C   0  0  0  0  0  0  0  0  0  0  0  0
  182.1110  177.8200  136.1530 C   0  0  0  0  0  3  0  0  0  0  0  0
  180.9850  177.9740  136.9700 C   0  0  0  0  0  3  0  0  0  0  0  0
  183.7290  178.5640  142.0960 C   0  0  0  0  0  0  0  0  0  0  0  0
  184.7330  178.5660  143.0310 C   0  0  0  0  0  0  0  0  0  0  0  0
  187.4520  178.1340  139.8640 C   0  0  1  0  0  3  0  0  0  0  0  0
  186.1280  177.9210  137.8620 C   0  0  0  0  0  2  0  0  0  0  0  0
  181.9670  178.8900  143.6690 C   0  0  0  0  0  0  0  0  0  0  0  0
  188.4420  178.3800  137.6130 C   0  0  0  0  0  2  0  0  0  0  0  0
  183.3950  177.8650  136.7010 C   0  0  0  0  0  3  0  0  0  0  0  0
  184.8670  178.1360  138.6620 C   0  0  0  0  0  0  0  0  0  0  0  0
  183.5690  178.0640  138.0780 C   0  0  0  0  0  0  0  0  0  0  0  0
  182.6010  178.3880  140.2450 N   0  0  0  0  0  0  0  0  0  0  0  0
  182.9590  178.9370  144.6830 C   0  0  0  0  0  3  0  0  0  0  0  0
  187.2700  178.6080  138.4740 N   0  0  2  0  0  0  0  0  0  0  0  0
  184.3380  178.7610  144.3680 C   0  0  0  0  0  3  0  0  0  0  0  0
  188.8030  178.5760  140.4150 C   0  0  0  0  0  2  0  0  0  0  0  0
  189.9420  177.7870  139.7540 C   0  0  1  0  0  3  0  0  0  0  0  0
  181.1340  178.1720  138.3450 C   0  0  0  0  0  3  0  0  0  0  0  0
  182.4140  178.2170  138.9080 C   0  0  0  0  0  0  0  0  0  0  0  0
  181.6860  178.5700  141.2010 N   0  0  0  0  0  0  0  0  0  0  0  0
  186.3030  178.6540  140.7270 C   0  0  2  0  0  3  0  0  0  0  0  0
  186.4020  178.0840  142.5040 S   0  0  0  0  0  0  0  0  0  0  0  0
  180.5260  179.0480  144.0040 C   0  0  0  0  0  1  0  0  0  0  0  0
  183.8270  178.4030  140.7780 C   0  0  0  0  0  0  0  0  0  0  0  0
  182.4000  178.6870  142.3570 C   0  0  0  0  0  0  0  0  0  0  0  0
  190.5570  176.8390  140.6850 N   0  0  0  0  0  2  0  0  0  0  0  0
  191.6290  177.4890  141.4370 C   0  0  0  0  0  2  0  0  0  0  0  0
  191.4640  177.2700  142.9370 C   0  0  0  0  0  3  0  0  0  0  0  0
  190.8500  178.4870  143.6040 C   0  0  0  0  0  1  0  0  0  0  0  0
  190.6280  176.0360  143.2190 C   0  0  0  0  0  1  0  0  0  0  0  0
  1 19  1  0  0  0  0
  2 26  1  0  0  0  0
  3 11  2  0  0  0  0
  3  4  1  0  0  0  0
  4 20  2  0  0  0  0
  5 27  1  0  0  0  0
  5  6  1  0  0  0  0
  6 17  2  0  0  0  0
  7 18  1  1  0  0  0
  7 23  1  0  0  0  0
  8 16  1  0  0  0  0
  8 12  1  0  0  0  0
  9 25  1  0  0  0  0
  9 15  2  0  0  0  0
 10  1  1  0  0  0  0
 11 13  1  0  0  0  0
 12  2  2  0  0  0  0
 13 12  1  0  0  0  0
 13 21  2  0  0  0  0
 14 26  1  0  0  0  0
 14 22  1  0  0  0  0
 16 10  1  6  0  0  0
 16  7  1  0  0  0  0
 17 15  1  0  0  0  0
 19 18  1  0  0  0  0
 19 28  1  1  0  0  0
 20 21  1  0  0  0  0
 21 14  1  0  0  0  0
 22 27  2  0  0  0  0
 23  2  1  6  0  0  0
 23 24  1  0  0  0  0
 24  6  1  0  0  0  0
 26  5  2  0  0  0  0
 27  9  1  0  0  0  0
 28 29  1  0  0  0  0
 29 30  1  0  0  0  0
 30 32  1  0  0  0  0
 30 31  1  0  0  0  0
M  END
>  <MODEL>
6

>  <REMARK>
 VINA RESULT:      -8.9      3.285      5.518
  Name = 
  3 active torsions:
  status: ('A' for Active; 'I' for Inactive)
    1  A    between atoms: C_1  and  C_10
    2  A    between atoms: C_10  and  N_19
    3  A    between atoms: N_19  and  C_24
                            x       y       z     vdW  Elec       q    Type
                         _______ _______ _______ _____ _____    ______ ____

>  <TORSDO>
F 3

$$$$
=
 OpenBabel11052416493D

 32 38  0  0  1  0  0  0  0  0999 V2000
  181.2920  178.2140  142.3090 S   0  0  0  0  0  0  0  0  0  0  0  0
  186.3610  178.2570  142.4490 C   0  0  0  0  0  0  0  0  0  0  0  0
  187.2090  177.5290  147.1910 C   0  0  0  0  0  3  0  0  0  0  0  0
  188.5660  177.3300  146.9120 C   0  0  0  0  0  3  0  0  0  0  0  0
  188.3480  177.9800  141.1080 C   0  0  0  0  0  0  0  0  0  0  0  0
  187.8380  178.1120  139.8420 C   0  0  0  0  0  0  0  0  0  0  0  0
  184.0690  178.6660  141.6010 C   0  0  1  0  0  3  0  0  0  0  0  0
  184.3810  178.3710  143.9730 C   0  0  0  0  0  2  0  0  0  0  0  0
  190.6110  177.7170  140.4050 C   0  0  0  0  0  0  0  0  0  0  0  0
  182.3610  179.3760  143.2400 C   0  0  0  0  0  2  0  0  0  0  0  0
  186.3090  177.8100  146.1600 C   0  0  0  0  0  3  0  0  0  0  0  0
  185.8650  178.2010  143.7650 C   0  0  0  0  0  0  0  0  0  0  0  0
  186.7560  177.8940  144.8340 C   0  0  0  0  0  0  0  0  0  0  0  0
  188.5570  177.7490  143.2610 N   0  0  0  0  0  0  0  0  0  0  0  0
  190.1540  177.8820  139.0710 C   0  0  0  0  0  3  0  0  0  0  0  0
  183.7950  179.2320  142.9400 N   0  0  2  0  0  0  0  0  0  0  0  0
  188.7700  178.0640  138.7870 C   0  0  0  0  0  3  0  0  0  0  0  0
  183.2120  179.3460  140.5380 C   0  0  0  0  0  2  0  0  0  0  0  0
  181.7440  178.9180  140.6710 C   0  0  1  0  0  3  0  0  0  0  0  0
  189.0350  177.4070  145.5980 C   0  0  0  0  0  3  0  0  0  0  0  0
  188.1440  177.6850  144.5560 C   0  0  0  0  0  0  0  0  0  0  0  0
  189.7910  177.6100  142.7680 N   0  0  0  0  0  0  0  0  0  0  0  0
  185.5590  178.8100  141.2890 C   0  0  2  0  0  3  0  0  0  0  0  0
  186.0340  178.0890  139.6330 S   0  0  0  0  0  0  0  0  0  0  0  0
  192.0540  177.5010  140.6960 C   0  0  0  0  0  1  0  0  0  0  0  0
  187.6940  177.9890  142.2690 C   0  0  0  0  0  0  0  0  0  0  0  0
  189.6540  177.7630  141.4210 C   0  0  0  0  0  0  0  0  0  0  0  0
  181.3320  178.0430  139.5730 N   0  0  0  0  0  2  0  0  0  0  0  0
  182.0960  178.3510  138.3640 C   0  0  0  0  0  2  0  0  0  0  0  0
  182.5130  177.0800  137.6340 C   0  0  0  0  0  3  0  0  0  0  0  0
  183.7780  177.3010  136.8260 C   0  0  0  0  0  1  0  0  0  0  0  0
  182.7020  175.9300  138.6050 C   0  0  0  0  0  1  0  0  0  0  0  0
  1 10  1  0  0  0  0
  2 12  2  0  0  0  0
  4  3  1  0  0  0  0
  5 27  1  0  0  0  0
  5 26  2  0  0  0  0
  6  5  1  0  0  0  0
  7 18  1  6  0  0  0
  7 16  1  0  0  0  0
  9 25  1  0  0  0  0
  9 27  1  0  0  0  0
 11  3  2  0  0  0  0
 12  8  1  0  0  0  0
 12 13  1  0  0  0  0
 13 11  1  0  0  0  0
 14 21  1  0  0  0  0
 15  9  2  0  0  0  0
 16 10  1  1  0  0  0
 16  8  1  0  0  0  0
 17 15  1  0  0  0  0
 17  6  2  0  0  0  0
 18 19  1  0  0  0  0
 19 28  1  6  0  0  0
 19  1  1  0  0  0  0
 20  4  2  0  0  0  0
 21 13  2  0  0  0  0
 21 20  1  0  0  0  0
 22 14  1  0  0  0  0
 23 24  1  6  0  0  0
 23  7  1  0  0  0  0
 23  2  1  0  0  0  0
 24  6  1  0  0  0  0
 26  2  1  0  0  0  0
 26 14  1  0  0  0  0
 27 22  2  0  0  0  0
 29 28  1  0  0  0  0
 30 29  1  0  0  0  0
 30 32  1  0  0  0  0
 31 30  1  0  0  0  0
M  END
>  <MODEL>
7

>  <REMARK>
 VINA RESULT:      -8.9      2.924      6.731
  Name = 
  3 active torsions:
  status: ('A' for Active; 'I' for Inactive)
    1  A    between atoms: C_1  and  C_10
    2  A    between atoms: C_10  and  N_19
    3  A    between atoms: N_19  and  C_24
                            x       y       z     vdW  Elec       q    Type
                         _______ _______ _______ _____ _____    ______ ____

>  <TORSDO>
F 3

$$$$
=
 OpenBabel11052416493D

 32 38  0  0  1  0  0  0  0  0999 V2000
  191.6800  176.5510  143.6660 S   0  0  0  0  0  0  0  0  0  0  0  0
  187.1210  178.2070  142.1880 C   0  0  0  0  0  0  0  0  0  0  0  0
  187.4900  177.8760  137.3420 C   0  0  0  0  0  3  0  0  0  0  0  0
  186.1160  178.1130  137.2260 C   0  0  0  0  0  3  0  0  0  0  0  0
  184.8450  178.5500  142.9140 C   0  0  0  0  0  0  0  0  0  0  0  0
  184.9860  178.4890  144.2760 C   0  0  0  0  0  0  0  0  0  0  0  0
  189.0860  177.8490  143.6540 C   0  0  1  0  0  3  0  0  0  0  0  0
  189.3940  177.7140  141.2680 C   0  0  0  0  0  2  0  0  0  0  0  0
  182.5050  179.0070  142.9570 C   0  0  0  0  0  0  0  0  0  0  0  0
  191.3230  178.0100  142.6160 C   0  0  0  0  0  2  0  0  0  0  0  0
  188.0980  177.8360  138.6000 C   0  0  0  0  0  3  0  0  0  0  0  0
  187.9320  178.0200  141.0530 C   0  0  0  0  0  0  0  0  0  0  0  0
  187.3360  178.0330  139.7590 C   0  0  0  0  0  0  0  0  0  0  0  0
  185.2030  178.4380  140.7710 N   0  0  0  0  0  0  0  0  0  0  0  0
  182.5880  178.9930  144.3730 C   0  0  0  0  0  3  0  0  0  0  0  0
  189.8890  178.3240  142.5070 N   0  0  2  0  0  0  0  0  0  0  0  0
  183.8210  178.7200  145.0330 C   0  0  0  0  0  3  0  0  0  0  0  0
  189.7650  178.2020  144.9740 C   0  0  0  0  0  2  0  0  0  0  0  0
  191.0110  177.3320  145.1910 C   0  0  1  0  0  3  0  0  0  0  0  0
  185.3360  178.3100  138.3680 C   0  0  0  0  0  3  0  0  0  0  0  0
  185.9310  178.2710  139.6340 C   0  0  0  0  0  0  0  0  0  0  0  0
  183.8970  178.6890  140.9000 N   0  0  0  0  0  0  0  0  0  0  0  0
  187.6840  178.4530  143.5730 C   0  0  2  0  0  3  0  0  0  0  0  0
  186.5600  177.8900  144.9550 S   0  0  0  0  0  0  0  0  0  0  0  0
  181.2110  179.2660  142.2710 C   0  0  0  0  0  1  0  0  0  0  0  0
  185.7760  178.3730  141.9770 C   0  0  0  0  0  0  0  0  0  0  0  0
  183.6810  178.7650  142.2430 C   0  0  0  0  0  0  0  0  0  0  0  0
  190.8080  176.3500  146.2580 N   0  0  0  0  0  2  0  0  0  0  0  0
  190.6260  177.0260  147.5420 C   0  0  0  0  0  2  0  0  0  0  0  0
  189.1940  177.5190  147.7100 C   0  0  0  0  0  3  0  0  0  0  0  0
  188.2590  176.3760  148.0600 C   0  0  0  0  0  1  0  0  0  0  0  0
  189.1110  178.6090  148.7610 C   0  0  0  0  0  1  0  0  0  0  0  0
  1 19  1  0  0  0  0
  3 11  1  0  0  0  0
  4  3  2  0  0  0  0
  4 20  1  0  0  0  0
  5  6  1  0  0  0  0
  6 24  1  0  0  0  0
  6 17  2  0  0  0  0
  7 18  1  1  0  0  0
  9 15  2  0  0  0  0
 10  1  1  0  0  0  0
 11 13  2  0  0  0  0
 12  8  1  0  0  0  0
 12  2  2  0  0  0  0
 13 12  1  0  0  0  0
 14 22  1  0  0  0  0
 14 26  1  0  0  0  0
 15 17  1  0  0  0  0
 16  8  1  6  0  0  0
 16 10  1  0  0  0  0
 16  7  1  0  0  0  0
 18 19  1  0  0  0  0
 19 28  1  1  0  0  0
 20 21  2  0  0  0  0
 21 13  1  0  0  0  0
 21 14  1  0  0  0  0
 22 27  2  0  0  0  0
 23  2  1  6  0  0  0
 23  7  1  0  0  0  0
 23 24  1  0  0  0  0
 25  9  1  0  0  0  0
 26  2  1  0  0  0  0
 26  5  2  0  0  0  0
 27  5  1  0  0  0  0
 27  9  1  0  0  0  0
 28 29  1  0  0  0  0
 29 30  1  0  0  0  0
 30 31  1  0  0  0  0
 30 32  1  0  0  0  0
M  END
>  <MODEL>
8

>  <REMARK>
 VINA RESULT:      -8.7      2.935      6.689
  Name = 
  3 active torsions:
  status: ('A' for Active; 'I' for Inactive)
    1  A    between atoms: C_1  and  C_10
    2  A    between atoms: C_10  and  N_19
    3  A    between atoms: N_19  and  C_24
                            x       y       z     vdW  Elec       q    Type
                         _______ _______ _______ _____ _____    ______ ____

>  <TORSDO>
F 3

$$$$
=
 OpenBabel11052416493D

 32 38  0  0  1  0  0  0  0  0999 V2000
  186.8010  178.4080  147.1260 S   0  0  0  0  0  0  0  0  0  0  0  0
  186.3050  178.1370  142.0870 C   0  0  0  0  0  0  0  0  0  0  0  0
  181.6230  179.3540  141.5050 C   0  0  0  0  0  3  0  0  0  0  0  0
  181.8270  179.4550  140.1240 C   0  0  0  0  0  3  0  0  0  0  0  0
  187.5260  178.1660  140.0060 C   0  0  0  0  0  0  0  0  0  0  0  0
  188.8020  177.9170  140.4400 C   0  0  0  0  0  0  0  0  0  0  0  0
  187.2600  177.7460  144.3390 C   0  0  1  0  0  3  0  0  0  0  0  0
  184.9190  178.2910  144.1640 C   0  0  0  0  0  2  0  0  0  0  0  0
  188.0940  178.2390  137.6920 C   0  0  0  0  0  0  0  0  0  0  0  0
  185.6770  177.3080  146.1860 C   0  0  0  0  0  2  0  0  0  0  0  0
  182.6780  179.0020  142.3520 C   0  0  0  0  0  3  0  0  0  0  0  0
  185.0400  178.3660  142.6620 C   0  0  0  0  0  0  0  0  0  0  0  0
  183.9510  178.7480  141.8260 C   0  0  0  0  0  0  0  0  0  0  0  0
  185.4010  178.6280  139.9230 N   0  0  0  0  0  0  0  0  0  0  0  0
  189.4300  177.9470  138.0700 C   0  0  0  0  0  3  0  0  0  0  0  0
  185.8900  177.3480  144.7300 N   0  0  2  0  0  0  0  0  0  0  0  0
  189.7880  177.8000  139.4420 C   0  0  0  0  0  3  0  0  0  0  0  0
  188.2990  176.9920  145.1630 C   0  0  0  0  0  2  0  0  0  0  0  0
  188.3170  177.5020  146.6110 C   0  0  1  0  0  3  0  0  0  0  0  0
  183.0880  179.2080  139.5770 C   0  0  0  0  0  3  0  0  0  0  0  0
  184.1530  178.8570  140.4140 C   0  0  0  0  0  0  0  0  0  0  0  0
  185.8190  178.6510  138.6540 N   0  0  0  0  0  0  0  0  0  0  0  0
  187.4500  177.4970  142.8430 C   0  0  2  0  0  3  0  0  0  0  0  0
  189.1380  178.0030  142.2230 S   0  0  0  0  0  0  0  0  0  0  0  0
  187.7290  178.4170  136.2610 C   0  0  0  0  0  1  0  0  0  0  0  0
  186.4200  178.3190  140.7320 C   0  0  0  0  0  0  0  0  0  0  0  0
  187.1480  178.3540  138.7120 C   0  0  0  0  0  0  0  0  0  0  0  0
  189.5310  178.2670  146.9020 N   0  0  0  0  0  2  0  0  0  0  0  0
  190.4400  177.4800  147.7330 C   0  0  0  0  0  2  0  0  0  0  0  0
  191.1310  176.3920  146.9190 C   0  0  0  0  0  3  0  0  0  0  0  0
  191.6800  176.9470  145.6180 C   0  0  0  0  0  1  0  0  0  0  0  0
  192.2370  175.7310  147.7180 C   0  0  0  0  0  1  0  0  0  0  0  0
  2 12  2  0  0  0  0
  3 11  1  0  0  0  0
  4  3  2  0  0  0  0
  5  6  1  0  0  0  0
  5 26  2  0  0  0  0
  6 24  1  0  0  0  0
  7 16  1  0  0  0  0
  7 18  1  1  0  0  0
  9 15  2  0  0  0  0
  9 27  1  0  0  0  0
 10  1  1  0  0  0  0
 12  8  1  0  0  0  0
 13 11  2  0  0  0  0
 13 12  1  0  0  0  0
 14 21  1  0  0  0  0
 14 26  1  0  0  0  0
 15 17  1  0  0  0  0
 16  8  1  6  0  0  0
 16 10  1  0  0  0  0
 17  6  2  0  0  0  0
 18 19  1  0  0  0  0
 19 28  1  6  0  0  0
 19  1  1  0  0  0  0
 20  4  1  0  0  0  0
 20 21  2  0  0  0  0
 21 13  1  0  0  0  0
 22 27  2  0  0  0  0
 22 14  1  0  0  0  0
 23  2  1  6  0  0  0
 23  7  1  0  0  0  0
 24 23  1  0  0  0  0
 25  9  1  0  0  0  0
 26  2  1  0  0  0  0
 27  5  1  0  0  0  0
 28 29  1  0  0  0  0
 30 32  1  0  0  0  0
 30 29  1  0  0  0  0
 31 30  1  0  0  0  0
M  END
>  <MODEL>
9

>  <REMARK>
 VINA RESULT:      -8.6      2.382      6.776
  Name = 
  3 active torsions:
  status: ('A' for Active; 'I' for Inactive)
    1  A    between atoms: C_1  and  C_10
    2  A    between atoms: C_10  and  N_19
    3  A    between atoms: N_19  and  C_24
                            x       y       z     vdW  Elec       q    Type
                         _______ _______ _______ _____ _____    ______ ____

>  <TORSDO>
F 3

$$$$
