=
 OpenBabel11052415263D

 37 39  0  0  1  0  0  0  0  0999 V2000
  182.6850  178.7970  137.5430 C   0  0  0  0  0  2  0  0  0  0  0  0
  185.6210  178.6150  138.8110 O   0  0  0  0  0  0  0  0  0  0  0  0
  181.0970  175.3910  136.4080 C   0  0  0  0  0  2  0  0  0  0  0  0
  183.2650  178.2120  138.8430 C   0  0  2  0  0  3  0  0  0  0  0  0
  181.8080  176.4020  137.3230 C   0  0  1  0  0  3  0  0  0  0  0  0
  184.2310  180.4140  139.0940 O   0  0  0  0  0  1  0  0  0  0  0  0
  182.0640  177.9220  135.3210 C   0  0  0  0  0  1  0  0  0  0  0  0
  183.2680  175.9700  137.5750 C   0  0  2  0  0  3  0  0  0  0  0  0
  182.8960  173.7970  137.0690 C   0  0  0  0  0  2  0  0  0  0  0  0
  181.7100  177.8590  136.8050 C   0  0  2  0  0  0  0  0  0  0  0  0
  183.3080  174.6650  138.0950 O   0  0  0  0  0  0  0  0  0  0  0  0
  184.4130  179.0600  139.3920 C   0  0  2  0  0  0  0  0  0  0  0  0
  183.9700  176.9150  138.5640 C   0  0  1  0  0  3  0  0  0  0  0  0
  181.3940  173.9500  136.8230 C   0  0  1  0  0  3  0  0  0  0  0  0
  185.3970  177.3450  138.2230 C   0  0  1  0  0  3  0  0  0  0  0  0
  179.8670  172.5550  137.6140 C   0  0  0  0  0  1  0  0  0  0  0  0
  180.6810  173.6280  137.9810 O   0  0  0  0  0  0  0  0  0  0  0  0
  179.8640  178.3990  138.4870 C   0  0  0  0  0  1  0  0  0  0  0  0
  180.2710  178.3420  137.0200 C   0  0  0  0  0  2  0  0  0  0  0  0
  185.6950  177.4010  136.7070 C   0  0  2  0  0  3  0  0  0  0  0  0
  185.9140  175.8050  134.9250 O   0  0  0  0  0  0  0  0  0  0  0  0
  186.6040  175.0940  136.9900 O   0  0  0  0  0  1  0  0  0  0  0  0
  186.0830  176.0650  136.1460 C   0  0  0  0  0  0  0  0  0  0  0  0
  186.7230  178.4710  136.3210 C   0  0  0  0  0  2  0  0  0  0  0  0
  188.1570  178.0190  136.5740 C   0  0  0  0  0  2  0  0  0  0  0  0
  188.9110  179.0730  137.3640 C   0  0  0  0  0  2  0  0  0  0  0  0
  189.0100  177.0690  138.8120 C   0  0  0  0  0  1  0  0  0  0  0  0
  189.2100  178.5690  138.7630 C   0  0  0  0  0  2  0  0  0  0  0  0
  184.5320  178.9050  140.9130 C   0  0  0  0  0  2  0  0  0  0  0  0
  185.9320  179.2010  141.4340 C   0  0  0  0  0  2  0  0  0  0  0  0
  187.8490  177.9570  142.1120 O   0  0  0  0  0  1  0  0  0  0  0  0
  186.4580  178.0050  142.2100 C   0  0  1  0  0  3  0  0  0  0  0  0
  186.0600  178.1030  143.6730 C   0  0  0  0  0  2  0  0  0  0  0  0
  187.0080  177.2940  144.5600 C   0  0  0  0  0  2  0  0  0  0  0  0
  186.9190  177.6100  146.0290 C   0  0  0  0  0  3  0  0  0  0  0  0
  186.0700  178.4600  146.5450 C   0  0  0  0  0  0  0  0  0  0  0  0
  185.2700  179.2670  147.0330 O   0  0  0  0  0  0  0  0  0  0  0  0
  2 12  1  0  0  0  0
  3 14  1  0  0  0  0
  4  1  1  6  0  0  0
  4 12  1  0  0  0  0
  5  3  1  6  0  0  0
  5  8  1  0  0  0  0
  8 11  1  1  0  0  0
  8 13  1  0  0  0  0
  9 11  1  0  0  0  0
 10  7  1  6  0  0  0
 10 19  1  0  0  0  0
 10  5  1  0  0  0  0
 10  1  1  0  0  0  0
 12  6  1  6  0  0  0
 12 29  1  0  0  0  0
 13  4  1  0  0  0  0
 14  9  1  0  0  0  0
 14 17  1  0  0  0  0
 15 13  1  0  0  0  0
 15  2  1  0  0  0  0
 16 17  1  0  0  0  0
 19 18  1  0  0  0  0
 20 15  1  0  0  0  0
 21 23  2  0  0  0  0
 23 20  1  0  0  0  0
 23 22  1  0  0  0  0
 24 25  1  0  0  0  0
 24 20  1  0  0  0  0
 25 26  1  0  0  0  0
 26 28  1  0  0  0  0
 28 27  1  0  0  0  0
 29 30  1  0  0  0  0
 30 32  1  0  0  0  0
 31 32  1  0  0  0  0
 32 33  1  0  0  0  0
 33 34  1  0  0  0  0
 34 35  1  0  0  0  0
 35 36  2  0  0  0  0
 36 37  2  0  0  0  0
M  END
>  <MODEL>
1

>  <REMARK>
 VINA RESULT:      -5.8      0.000      0.000
  Name = 
  14 active torsions:
  status: ('A' for Active; 'I' for Inactive)
    1  A    between atoms: C_1  and  C_23
    2  A    between atoms: C_1  and  C_33
    3  A    between atoms: C_1  and  C_36
    4  A    between atoms: C_6  and  C_8
    5  A    between atoms: C_6  and  C_31
    6  A    between atoms: C_8  and  C_19
    7  A    between atoms: C_15  and  C_19
    8  A    between atoms: C_17  and  C_26
    9  A    between atoms: C_17  and  C_33
   10  A    between atoms: C_24  and  C_28
   11  A    between atoms: C_26  and  C_34
   12  A    between atoms: C_27  and  C_37
   13  A    between atoms: O_30  and  C_32
   14  A    between atoms: C_31  and  C_37
                            x       y       z     vdW  Elec       q    Type
                         _______ _______ _______ _____ _____    ______ ____

>  <TORSDO>
F 14

$$$$
=
 OpenBabel11052415263D

 37 39  0  0  1  0  0  0  0  0999 V2000
  182.7770  178.7230  137.3810 C   0  0  0  0  0  2  0  0  0  0  0  0
  185.6490  178.5590  138.7910 O   0  0  0  0  0  0  0  0  0  0  0  0
  181.2730  175.3100  136.1580 C   0  0  0  0  0  2  0  0  0  0  0  0
  183.2970  178.1390  138.7050 C   0  0  2  0  0  3  0  0  0  0  0  0
  181.9310  176.3230  137.1100 C   0  0  1  0  0  3  0  0  0  0  0  0
  184.2320  180.3470  139.0110 O   0  0  0  0  0  1  0  0  0  0  0  0
  182.2730  177.8520  135.1280 C   0  0  0  0  0  1  0  0  0  0  0  0
  183.3790  175.9020  137.4320 C   0  0  2  0  0  3  0  0  0  0  0  0
  183.0490  173.7280  136.9020 C   0  0  0  0  0  2  0  0  0  0  0  0
  181.8470  177.7810  136.5930 C   0  0  2  0  0  0  0  0  0  0  0  0
  183.4040  174.5940  137.9500 O   0  0  0  0  0  0  0  0  0  0  0  0
  184.4100  178.9930  139.3130 C   0  0  2  0  0  0  0  0  0  0  0  0
  184.0240  176.8480  138.4580 C   0  0  1  0  0  3  0  0  0  0  0  0
  181.5600  173.8700  136.5820 C   0  0  1  0  0  3  0  0  0  0  0  0
  185.4630  177.2900  138.1890 C   0  0  1  0  0  3  0  0  0  0  0  0
  180.5750  172.1650  137.5940 C   0  0  0  0  0  1  0  0  0  0  0  0
  180.7930  173.5380  137.7030 O   0  0  0  0  0  0  0  0  0  0  0  0
  179.7480  178.6330  135.4110 C   0  0  0  0  0  1  0  0  0  0  0  0
  180.3950  178.2520  136.7370 C   0  0  0  0  0  2  0  0  0  0  0  0
  185.8350  177.3530  136.6890 C   0  0  2  0  0  3  0  0  0  0  0  0
  186.7940  175.1680  136.9660 O   0  0  0  0  0  1  0  0  0  0  0  0
  186.4280  175.8290  134.8030 O   0  0  0  0  0  0  0  0  0  0  0  0
  186.3700  176.0510  136.1730 C   0  0  0  0  0  0  0  0  0  0  0  0
  186.7820  178.5070  136.3390 C   0  0  0  0  0  2  0  0  0  0  0  0
  188.2500  178.1080  136.4410 C   0  0  0  0  0  2  0  0  0  0  0  0
  189.0070  179.0940  137.3110 C   0  0  0  0  0  2  0  0  0  0  0  0
  189.3240  177.0650  138.6920 C   0  0  0  0  0  1  0  0  0  0  0  0
  189.1220  178.5650  138.7280 C   0  0  0  0  0  2  0  0  0  0  0  0
  184.4540  178.8340  140.8380 C   0  0  0  0  0  2  0  0  0  0  0  0
  185.8570  178.9890  141.4110 C   0  0  0  0  0  2  0  0  0  0  0  0
  184.5880  178.1680  143.2540 O   0  0  0  0  0  1  0  0  0  0  0  0
  185.8550  178.6210  142.8860 C   0  0  1  0  0  3  0  0  0  0  0  0
  186.8790  177.5320  143.1640 C   0  0  0  0  0  2  0  0  0  0  0  0
  188.0580  177.6210  142.1930 C   0  0  0  0  0  2  0  0  0  0  0  0
  189.3920  177.2610  142.7890 C   0  0  0  0  0  3  0  0  0  0  0  0
  190.5360  177.4320  142.1800 C   0  0  0  0  0  0  0  0  0  0  0  0
  191.6180  177.5900  141.6030 O   0  0  0  0  0  0  0  0  0  0  0  0
  2 12  1  0  0  0  0
  3 14  1  0  0  0  0
  4  1  1  6  0  0  0
  4 12  1  0  0  0  0
  5  3  1  6  0  0  0
  5  8  1  0  0  0  0
  8 11  1  1  0  0  0
  8 13  1  0  0  0  0
  9 11  1  0  0  0  0
 10  7  1  6  0  0  0
 10 19  1  0  0  0  0
 10  5  1  0  0  0  0
 10  1  1  0  0  0  0
 12  6  1  6  0  0  0
 12 29  1  0  0  0  0
 13  4  1  0  0  0  0
 14  9  1  0  0  0  0
 14 17  1  0  0  0  0
 15 13  1  0  0  0  0
 15  2  1  0  0  0  0
 16 17  1  0  0  0  0
 18 19  1  0  0  0  0
 20 15  1  0  0  0  0
 22 23  2  0  0  0  0
 23 20  1  0  0  0  0
 23 21  1  0  0  0  0
 24 25  1  0  0  0  0
 24 20  1  0  0  0  0
 25 26  1  0  0  0  0
 26 28  1  0  0  0  0
 27 28  1  0  0  0  0
 29 30  1  0  0  0  0
 30 32  1  0  0  0  0
 32 33  1  0  0  0  0
 32 31  1  0  0  0  0
 34 35  1  0  0  0  0
 34 33  1  0  0  0  0
 36 35  2  0  0  0  0
 37 36  2  0  0  0  0
M  END
>  <MODEL>
2

>  <REMARK>
 VINA RESULT:      -5.5      1.265      2.161
  Name = 
  14 active torsions:
  status: ('A' for Active; 'I' for Inactive)
    1  A    between atoms: C_1  and  C_23
    2  A    between atoms: C_1  and  C_33
    3  A    between atoms: C_1  and  C_36
    4  A    between atoms: C_6  and  C_8
    5  A    between atoms: C_6  and  C_31
    6  A    between atoms: C_8  and  C_19
    7  A    between atoms: C_15  and  C_19
    8  A    between atoms: C_17  and  C_26
    9  A    between atoms: C_17  and  C_33
   10  A    between atoms: C_24  and  C_28
   11  A    between atoms: C_26  and  C_34
   12  A    between atoms: C_27  and  C_37
   13  A    between atoms: O_30  and  C_32
   14  A    between atoms: C_31  and  C_37
                            x       y       z     vdW  Elec       q    Type
                         _______ _______ _______ _____ _____    ______ ____

>  <TORSDO>
F 14

$$$$
=
 OpenBabel11052415263D

 37 39  0  0  1  0  0  0  0  0999 V2000
  182.7430  178.1140  138.4550 C   0  0  0  0  0  2  0  0  0  0  0  0
  179.6850  177.7210  139.3260 O   0  0  0  0  0  0  0  0  0  0  0  0
  185.2150  179.1680  141.3160 C   0  0  0  0  0  2  0  0  0  0  0  0
  181.9930  177.0980  139.3350 C   0  0  2  0  0  3  0  0  0  0  0  0
  184.1130  178.3680  140.6030 C   0  0  1  0  0  3  0  0  0  0  0  0
  180.5710  176.8620  137.3940 O   0  0  0  0  0  1  0  0  0  0  0  0
  184.0510  180.1710  138.8340 C   0  0  0  0  0  1  0  0  0  0  0  0
  182.7540  178.5740  141.3040 C   0  0  2  0  0  3  0  0  0  0  0  0
  183.6700  179.2110  143.2710 C   0  0  0  0  0  2  0  0  0  0  0  0
  184.0370  178.6650  139.0830 C   0  0  2  0  0  0  0  0  0  0  0  0
  182.8530  178.2410  142.6670 O   0  0  0  0  0  0  0  0  0  0  0  0
  180.5990  176.7860  138.7910 C   0  0  2  0  0  0  0  0  0  0  0  0
  181.6550  177.7080  140.6660 C   0  0  1  0  0  3  0  0  0  0  0  0
  185.1240  179.0210  142.8350 C   0  0  1  0  0  3  0  0  0  0  0  0
  180.2990  178.3700  140.4260 C   0  0  1  0  0  3  0  0  0  0  0  0
  186.1630  177.9590  144.4760 C   0  0  0  0  0  1  0  0  0  0  0  0
  185.5820  177.7590  143.2240 O   0  0  0  0  0  0  0  0  0  0  0  0
  184.9530  177.4580  137.0260 C   0  0  0  0  0  1  0  0  0  0  0  0
  185.2520  178.0130  138.4130 C   0  0  0  0  0  2  0  0  0  0  0  0
  180.3750  179.8930  140.1680 C   0  0  2  0  0  3  0  0  0  0  0  0
  180.1450  180.4310  142.4980 O   0  0  0  0  0  1  0  0  0  0  0  0
  178.9330  181.7300  141.0520 O   0  0  0  0  0  0  0  0  0  0  0  0
  179.8270  180.6980  141.3080 C   0  0  0  0  0  0  0  0  0  0  0  0
  179.7380  180.3260  138.8430 C   0  0  0  0  0  2  0  0  0  0  0  0
  180.6970  181.1280  137.9700 C   0  0  0  0  0  2  0  0  0  0  0  0
  180.1970  182.5520  137.8060 C   0  0  0  0  0  2  0  0  0  0  0  0
  181.2490  184.5740  136.8420 C   0  0  0  0  0  1  0  0  0  0  0  0
  180.7700  183.1690  136.5440 C   0  0  0  0  0  2  0  0  0  0  0  0
  180.1470  175.3830  139.2140 C   0  0  0  0  0  2  0  0  0  0  0  0
  179.7130  174.5180  138.0370 C   0  0  0  0  0  2  0  0  0  0  0  0
  180.3480  172.2240  137.8990 O   0  0  0  0  0  1  0  0  0  0  0  0
  180.8120  173.5240  137.6950 C   0  0  1  0  0  3  0  0  0  0  0  0
  181.2410  173.6830  136.2450 C   0  0  0  0  0  2  0  0  0  0  0  0
  182.7370  173.9830  136.1410 C   0  0  0  0  0  2  0  0  0  0  0  0
  183.4440  174.1260  137.4620 C   0  0  0  0  0  3  0  0  0  0  0  0
  184.5750  173.5390  137.7550 C   0  0  0  0  0  0  0  0  0  0  0  0
  185.6420  172.9810  138.0340 O   0  0  0  0  0  0  0  0  0  0  0  0
  1 10  1  0  0  0  0
  2 15  1  0  0  0  0
  3 14  1  0  0  0  0
  4  1  1  6  0  0  0
  4 13  1  0  0  0  0
  5  8  1  0  0  0  0
  5  3  1  1  0  0  0
  8 11  1  1  0  0  0
 10  7  1  6  0  0  0
 10  5  1  0  0  0  0
 11  9  1  0  0  0  0
 12  6  1  6  0  0  0
 12 29  1  0  0  0  0
 12  2  1  0  0  0  0
 12  4  1  0  0  0  0
 13  8  1  0  0  0  0
 14 17  1  0  0  0  0
 14  9  1  0  0  0  0
 15 13  1  0  0  0  0
 17 16  1  0  0  0  0
 18 19  1  0  0  0  0
 19 10  1  0  0  0  0
 20 15  1  0  0  0  0
 20 23  1  0  0  0  0
 22 23  2  0  0  0  0
 23 21  1  0  0  0  0
 24 20  1  0  0  0  0
 25 24  1  0  0  0  0
 26 25  1  0  0  0  0
 28 27  1  0  0  0  0
 28 26  1  0  0  0  0
 30 29  1  0  0  0  0
 32 31  1  0  0  0  0
 32 30  1  0  0  0  0
 33 32  1  0  0  0  0
 34 33  1  0  0  0  0
 34 35  1  0  0  0  0
 35 36  2  0  0  0  0
 36 37  2  0  0  0  0
M  END
>  <MODEL>
3

>  <REMARK>
 VINA RESULT:      -5.4      2.786      7.853
  Name = 
  14 active torsions:
  status: ('A' for Active; 'I' for Inactive)
    1  A    between atoms: C_1  and  C_23
    2  A    between atoms: C_1  and  C_33
    3  A    between atoms: C_1  and  C_36
    4  A    between atoms: C_6  and  C_8
    5  A    between atoms: C_6  and  C_31
    6  A    between atoms: C_8  and  C_19
    7  A    between atoms: C_15  and  C_19
    8  A    between atoms: C_17  and  C_26
    9  A    between atoms: C_17  and  C_33
   10  A    between atoms: C_24  and  C_28
   11  A    between atoms: C_26  and  C_34
   12  A    between atoms: C_27  and  C_37
   13  A    between atoms: O_30  and  C_32
   14  A    between atoms: C_31  and  C_37
                            x       y       z     vdW  Elec       q    Type
                         _______ _______ _______ _____ _____    ______ ____

>  <TORSDO>
F 14

$$$$
=
 OpenBabel11052415263D

 37 39  0  0  1  0  0  0  0  0999 V2000
  181.8990  179.2660  139.0770 C   0  0  0  0  0  2  0  0  0  0  0  0
  184.8120  177.9880  138.6980 O   0  0  0  0  0  0  0  0  0  0  0  0
  178.9650  176.7130  139.6010 C   0  0  0  0  0  2  0  0  0  0  0  0
  182.8690  178.4990  139.9930 C   0  0  2  0  0  3  0  0  0  0  0  0
  180.3350  177.3770  139.8100 C   0  0  1  0  0  3  0  0  0  0  0  0
  184.4570  180.1760  139.2790 O   0  0  0  0  0  1  0  0  0  0  0  0
  179.9340  178.7020  137.6970 C   0  0  0  0  0  1  0  0  0  0  0  0
  181.4700  176.4280  139.3720 C   0  0  2  0  0  3  0  0  0  0  0  0
  180.2140  174.5570  139.5670 C   0  0  0  0  0  2  0  0  0  0  0  0
  180.4430  178.7680  139.1350 C   0  0  2  0  0  0  0  0  0  0  0  0
  181.3670  175.1990  140.0490 O   0  0  0  0  0  0  0  0  0  0  0  0
  184.3290  178.8500  139.7070 C   0  0  2  0  0  0  0  0  0  0  0  0
  182.8530  177.0340  139.6620 C   0  0  1  0  0  3  0  0  0  0  0  0
  178.9610  175.2630  140.0870 C   0  0  1  0  0  3  0  0  0  0  0  0
  183.9150  176.8990  138.5700 C   0  0  1  0  0  3  0  0  0  0  0  0
  178.9560  173.8690  141.8060 C   0  0  0  0  0  1  0  0  0  0  0  0
  178.9320  175.2260  141.4840 O   0  0  0  0  0  0  0  0  0  0  0  0
  179.9210  179.7560  141.4320 C   0  0  0  0  0  1  0  0  0  0  0  0
  179.5930  179.7540  139.9440 C   0  0  0  0  0  2  0  0  0  0  0  0
  183.3430  176.8470  137.1340 C   0  0  2  0  0  3  0  0  0  0  0  0
  181.8680  175.3510  135.9700 O   0  0  0  0  0  0  0  0  0  0  0  0
  183.4260  174.3600  137.3270 O   0  0  0  0  0  1  0  0  0  0  0  0
  182.8380  175.4850  136.7640 C   0  0  0  0  0  0  0  0  0  0  0  0
  184.3080  177.3770  136.0680 C   0  0  0  0  0  2  0  0  0  0  0  0
  185.1980  176.2810  135.4910 C   0  0  0  0  0  2  0  0  0  0  0  0
  186.6590  176.5950  135.7510 C   0  0  0  0  0  2  0  0  0  0  0  0
  187.6330  178.7030  136.6090 C   0  0  0  0  0  1  0  0  0  0  0  0
  186.9520  178.0470  135.4250 C   0  0  0  0  0  2  0  0  0  0  0  0
  185.1960  178.6540  140.9570 C   0  0  0  0  0  2  0  0  0  0  0  0
  184.3980  178.1860  142.1670 C   0  0  0  0  0  2  0  0  0  0  0  0
  182.9990  179.1660  143.8290 O   0  0  0  0  0  1  0  0  0  0  0  0
  184.1910  179.3460  143.1280 C   0  0  1  0  0  3  0  0  0  0  0  0
  185.3450  179.4340  144.1120 C   0  0  0  0  0  2  0  0  0  0  0  0
  185.2270  178.3660  145.2000 C   0  0  0  0  0  2  0  0  0  0  0  0
  186.4170  177.4520  145.3170 C   0  0  0  0  0  3  0  0  0  0  0  0
  187.1910  177.1250  144.3150 C   0  0  0  0  0  0  0  0  0  0  0  0
  187.9210  176.8130  143.3670 O   0  0  0  0  0  0  0  0  0  0  0  0
  1 10  1  0  0  0  0
  2 12  1  0  0  0  0
  3 14  1  0  0  0  0
  4  1  1  6  0  0  0
  5  3  1  6  0  0  0
  8 13  1  0  0  0  0
  8  5  1  0  0  0  0
  8 11  1  1  0  0  0
  9 11  1  0  0  0  0
  9 14  1  0  0  0  0
 10  7  1  6  0  0  0
 10  5  1  0  0  0  0
 10 19  1  0  0  0  0
 12  6  1  6  0  0  0
 12  4  1  0  0  0  0
 12 29  1  0  0  0  0
 13  4  1  0  0  0  0
 14 17  1  0  0  0  0
 15  2  1  0  0  0  0
 15 13  1  0  0  0  0
 17 16  1  0  0  0  0
 19 18  1  0  0  0  0
 20 15  1  0  0  0  0
 21 23  2  0  0  0  0
 23 20  1  0  0  0  0
 23 22  1  0  0  0  0
 24 20  1  0  0  0  0
 25 26  1  0  0  0  0
 25 24  1  0  0  0  0
 28 26  1  0  0  0  0
 28 27  1  0  0  0  0
 29 30  1  0  0  0  0
 30 32  1  0  0  0  0
 32 31  1  0  0  0  0
 32 33  1  0  0  0  0
 33 34  1  0  0  0  0
 34 35  1  0  0  0  0
 36 35  2  0  0  0  0
 37 36  2  0  0  0  0
M  END
>  <MODEL>
4

>  <REMARK>
 VINA RESULT:      -5.2      2.020      3.076
  Name = 
  14 active torsions:
  status: ('A' for Active; 'I' for Inactive)
    1  A    between atoms: C_1  and  C_23
    2  A    between atoms: C_1  and  C_33
    3  A    between atoms: C_1  and  C_36
    4  A    between atoms: C_6  and  C_8
    5  A    between atoms: C_6  and  C_31
    6  A    between atoms: C_8  and  C_19
    7  A    between atoms: C_15  and  C_19
    8  A    between atoms: C_17  and  C_26
    9  A    between atoms: C_17  and  C_33
   10  A    between atoms: C_24  and  C_28
   11  A    between atoms: C_26  and  C_34
   12  A    between atoms: C_27  and  C_37
   13  A    between atoms: O_30  and  C_32
   14  A    between atoms: C_31  and  C_37
                            x       y       z     vdW  Elec       q    Type
                         _______ _______ _______ _____ _____    ______ ____

>  <TORSDO>
F 14

$$$$
=
 OpenBabel11052415263D

 37 39  0  0  1  0  0  0  0  0999 V2000
  182.4090  179.2270  138.2900 C   0  0  0  0  0  2  0  0  0  0  0  0
  185.3080  178.0450  138.9680 O   0  0  0  0  0  0  0  0  0  0  0  0
  179.5890  176.5760  137.6380 C   0  0  0  0  0  2  0  0  0  0  0  0
  183.0080  178.4520  139.4760 C   0  0  2  0  0  3  0  0  0  0  0  0
  180.7620  177.2690  138.3510 C   0  0  1  0  0  3  0  0  0  0  0  0
  184.6800  180.1980  139.4360 O   0  0  0  0  0  1  0  0  0  0  0  0
  181.1060  178.6630  136.2730 C   0  0  0  0  0  1  0  0  0  0  0  0
  182.0150  176.3690  138.3330 C   0  0  2  0  0  3  0  0  0  0  0  0
  180.8500  174.4580  138.0070 C   0  0  0  0  0  2  0  0  0  0  0  0
  181.0530  178.6870  137.7990 C   0  0  2  0  0  0  0  0  0  0  0  0
  181.7220  175.1130  138.8930 O   0  0  0  0  0  0  0  0  0  0  0  0
  184.4570  178.8540  139.7530 C   0  0  2  0  0  0  0  0  0  0  0  0
  183.1720  177.0010  139.1240 C   0  0  1  0  0  3  0  0  0  0  0  0
  179.4670  175.1090  138.0510 C   0  0  1  0  0  3  0  0  0  0  0  0
  184.5630  176.9370  138.4930 C   0  0  1  0  0  3  0  0  0  0  0  0
  179.0570  173.6700  139.6830 C   0  0  0  0  0  1  0  0  0  0  0  0
  178.9320  175.0160  139.3390 O   0  0  0  0  0  0  0  0  0  0  0  0
  180.0660  181.0430  137.7480 C   0  0  0  0  0  1  0  0  0  0  0  0
  179.9280  179.6170  138.2670 C   0  0  0  0  0  2  0  0  0  0  0  0
  184.5560  176.9260  136.9460 C   0  0  2  0  0  3  0  0  0  0  0  0
  184.5020  175.3060  135.1730 O   0  0  0  0  0  0  0  0  0  0  0  0
  185.2450  174.5410  137.2010 O   0  0  0  0  0  1  0  0  0  0  0  0
  184.7720  175.5550  136.3790 C   0  0  0  0  0  0  0  0  0  0  0  0
  185.5270  177.9330  136.3190 C   0  0  0  0  0  2  0  0  0  0  0  0
  186.9710  177.4420  136.3420 C   0  0  0  0  0  2  0  0  0  0  0  0
  187.9150  178.5920  136.6370 C   0  0  0  0  0  2  0  0  0  0  0  0
  188.4990  176.8560  138.3020 C   0  0  0  0  0  1  0  0  0  0  0  0
  188.8840  178.2080  137.7400 C   0  0  0  0  0  2  0  0  0  0  0  0
  184.8170  178.6330  141.2270 C   0  0  0  0  0  2  0  0  0  0  0  0
  183.5930  178.4820  142.1220 C   0  0  0  0  0  2  0  0  0  0  0  0
  182.7730  178.8980  144.3210 O   0  0  0  0  0  1  0  0  0  0  0  0
  183.8710  179.0960  143.4850 C   0  0  1  0  0  3  0  0  0  0  0  0
  185.1020  178.4620  144.1120 C   0  0  0  0  0  2  0  0  0  0  0  0
  185.3850  179.0540  145.4940 C   0  0  0  0  0  2  0  0  0  0  0  0
  185.9680  178.0840  146.4860 C   0  0  0  0  0  3  0  0  0  0  0  0
  187.2220  177.7130  146.4970 C   0  0  0  0  0  0  0  0  0  0  0  0
  188.4060  177.3580  146.5060 O   0  0  0  0  0  0  0  0  0  0  0  0
  2 12  1  0  0  0  0
  3 14  1  0  0  0  0
  4  1  1  6  0  0  0
  4 12  1  0  0  0  0
  5  3  1  6  0  0  0
  8  5  1  0  0  0  0
  8 11  1  1  0  0  0
  8 13  1  0  0  0  0
  9 14  1  0  0  0  0
  9 11  1  0  0  0  0
 10  7  1  6  0  0  0
 10 19  1  0  0  0  0
 10  1  1  0  0  0  0
 10  5  1  0  0  0  0
 12  6  1  6  0  0  0
 12 29  1  0  0  0  0
 13  4  1  0  0  0  0
 14 17  1  0  0  0  0
 15  2  1  0  0  0  0
 15 13  1  0  0  0  0
 17 16  1  0  0  0  0
 18 19  1  0  0  0  0
 20 15  1  0  0  0  0
 21 23  2  0  0  0  0
 23 20  1  0  0  0  0
 23 22  1  0  0  0  0
 24 25  1  0  0  0  0
 24 20  1  0  0  0  0
 25 26  1  0  0  0  0
 26 28  1  0  0  0  0
 28 27  1  0  0  0  0
 29 30  1  0  0  0  0
 30 32  1  0  0  0  0
 32 33  1  0  0  0  0
 32 31  1  0  0  0  0
 33 34  1  0  0  0  0
 34 35  1  0  0  0  0
 35 36  2  0  0  0  0
 36 37  2  0  0  0  0
M  END
>  <MODEL>
5

>  <REMARK>
 VINA RESULT:      -5.0      1.624      1.988
  Name = 
  14 active torsions:
  status: ('A' for Active; 'I' for Inactive)
    1  A    between atoms: C_1  and  C_23
    2  A    between atoms: C_1  and  C_33
    3  A    between atoms: C_1  and  C_36
    4  A    between atoms: C_6  and  C_8
    5  A    between atoms: C_6  and  C_31
    6  A    between atoms: C_8  and  C_19
    7  A    between atoms: C_15  and  C_19
    8  A    between atoms: C_17  and  C_26
    9  A    between atoms: C_17  and  C_33
   10  A    between atoms: C_24  and  C_28
   11  A    between atoms: C_26  and  C_34
   12  A    between atoms: C_27  and  C_37
   13  A    between atoms: O_30  and  C_32
   14  A    between atoms: C_31  and  C_37
                            x       y       z     vdW  Elec       q    Type
                         _______ _______ _______ _____ _____    ______ ____

>  <TORSDO>
F 14

$$$$
=
 OpenBabel11052415263D

 37 39  0  0  1  0  0  0  0  0999 V2000
  189.2860  177.8290  137.4010 C   0  0  0  0  0  2  0  0  0  0  0  0
  191.3620  176.1160  139.1380 O   0  0  0  0  0  0  0  0  0  0  0  0
  187.1270  175.8020  134.8260 C   0  0  0  0  0  2  0  0  0  0  0  0
  189.1510  176.7690  138.5080 C   0  0  2  0  0  3  0  0  0  0  0  0
  187.7800  176.1670  136.1690 C   0  0  1  0  0  3  0  0  0  0  0  0
  190.6590  178.2190  139.7200 O   0  0  0  0  0  1  0  0  0  0  0  0
  189.2070  177.8470  134.9350 C   0  0  0  0  0  1  0  0  0  0  0  0
  188.8250  175.1050  136.5700 C   0  0  2  0  0  3  0  0  0  0  0  0
  187.9330  173.4850  135.2670 C   0  0  0  0  0  2  0  0  0  0  0  0
  188.3670  177.6010  136.1870 C   0  0  2  0  0  0  0  0  0  0  0  0
  188.2380  173.8270  136.5960 O   0  0  0  0  0  0  0  0  0  0  0  0
  190.2560  176.8890  139.5570 C   0  0  2  0  0  0  0  0  0  0  0  0
  189.4220  175.3990  137.9560 C   0  0  1  0  0  3  0  0  0  0  0  0
  186.7540  174.3200  134.7650 C   0  0  1  0  0  3  0  0  0  0  0  0
  190.9350  175.2400  138.1100 C   0  0  1  0  0  3  0  0  0  0  0  0
  184.5730  174.6850  134.8620 C   0  0  0  0  0  1  0  0  0  0  0  0
  185.6230  174.0770  135.5500 O   0  0  0  0  0  0  0  0  0  0  0  0
  186.1580  178.2510  137.2950 C   0  0  0  0  0  1  0  0  0  0  0  0
  187.1970  178.5900  136.2330 C   0  0  0  0  0  2  0  0  0  0  0  0
  191.7350  175.5120  136.8150 C   0  0  2  0  0  3  0  0  0  0  0  0
  192.0530  174.4060  134.7060 O   0  0  0  0  0  0  0  0  0  0  0  0
  191.7130  173.0350  136.5100 O   0  0  0  0  0  1  0  0  0  0  0  0
  191.8540  174.2960  135.9460 C   0  0  0  0  0  0  0  0  0  0  0  0
  193.1100  176.1410  137.0620 C   0  0  0  0  0  2  0  0  0  0  0  0
  194.2480  175.1400  136.8910 C   0  0  0  0  0  2  0  0  0  0  0  0
  194.8240  174.7600  138.2430 C   0  0  0  0  0  2  0  0  0  0  0  0
  195.9280  172.9460  136.9710 C   0  0  0  0  0  1  0  0  0  0  0  0
  195.2080  173.2920  138.2570 C   0  0  0  0  0  2  0  0  0  0  0  0
  189.7860  176.3510  140.9140 C   0  0  0  0  0  2  0  0  0  0  0  0
  190.1800  177.2500  142.0790 C   0  0  0  0  0  2  0  0  0  0  0  0
  187.8320  177.6200  141.9020 O   0  0  0  0  0  1  0  0  0  0  0  0
  188.9330  177.8240  142.7330 C   0  0  1  0  0  3  0  0  0  0  0  0
  188.6810  177.1570  144.0750 C   0  0  0  0  0  2  0  0  0  0  0  0
  187.1990  177.2050  144.4470 C   0  0  0  0  0  2  0  0  0  0  0  0
  186.9030  177.8550  145.7720 C   0  0  0  0  0  3  0  0  0  0  0  0
  185.7140  178.2540  146.1430 C   0  0  0  0  0  0  0  0  0  0  0  0
  184.5910  178.6350  146.4920 O   0  0  0  0  0  0  0  0  0  0  0  0
  2 12  1  0  0  0  0
  4  1  1  6  0  0  0
  4 12  1  0  0  0  0
  5  3  1  6  0  0  0
  5 10  1  0  0  0  0
  5  8  1  0  0  0  0
  8 11  1  1  0  0  0
  8 13  1  0  0  0  0
  9 11  1  0  0  0  0
 10  7  1  6  0  0  0
 10 19  1  0  0  0  0
 10  1  1  0  0  0  0
 12  6  1  1  0  0  0
 12 29  1  0  0  0  0
 13 15  1  0  0  0  0
 13  4  1  0  0  0  0
 14  3  1  0  0  0  0
 14  9  1  0  0  0  0
 14 17  1  0  0  0  0
 15  2  1  0  0  0  0
 16 17  1  0  0  0  0
 19 18  1  0  0  0  0
 20 24  1  0  0  0  0
 20 15  1  0  0  0  0
 21 23  2  0  0  0  0
 23 22  1  0  0  0  0
 23 20  1  0  0  0  0
 25 24  1  0  0  0  0
 25 26  1  0  0  0  0
 26 28  1  0  0  0  0
 27 28  1  0  0  0  0
 29 30  1  0  0  0  0
 30 32  1  0  0  0  0
 31 32  1  0  0  0  0
 32 33  1  0  0  0  0
 33 34  1  0  0  0  0
 34 35  1  0  0  0  0
 35 36  2  0  0  0  0
 36 37  2  0  0  0  0
M  END
>  <MODEL>
6

>  <REMARK>
 VINA RESULT:      -4.8      3.498      5.742
  Name = 
  14 active torsions:
  status: ('A' for Active; 'I' for Inactive)
    1  A    between atoms: C_1  and  C_23
    2  A    between atoms: C_1  and  C_33
    3  A    between atoms: C_1  and  C_36
    4  A    between atoms: C_6  and  C_8
    5  A    between atoms: C_6  and  C_31
    6  A    between atoms: C_8  and  C_19
    7  A    between atoms: C_15  and  C_19
    8  A    between atoms: C_17  and  C_26
    9  A    between atoms: C_17  and  C_33
   10  A    between atoms: C_24  and  C_28
   11  A    between atoms: C_26  and  C_34
   12  A    between atoms: C_27  and  C_37
   13  A    between atoms: O_30  and  C_32
   14  A    between atoms: C_31  and  C_37
                            x       y       z     vdW  Elec       q    Type
                         _______ _______ _______ _____ _____    ______ ____

>  <TORSDO>
F 14

$$$$
=
 OpenBabel11052415263D

 37 39  0  0  1  0  0  0  0  0999 V2000
  189.3680  177.6500  137.1060 C   0  0  0  0  0  2  0  0  0  0  0  0
  191.5200  176.1390  138.9350 O   0  0  0  0  0  0  0  0  0  0  0  0
  187.2590  175.3690  134.7060 C   0  0  0  0  0  2  0  0  0  0  0  0
  189.2810  176.6680  138.2860 C   0  0  2  0  0  3  0  0  0  0  0  0
  187.9110  175.8520  136.0120 C   0  0  1  0  0  3  0  0  0  0  0  0
  190.7470  178.2520  139.3740 O   0  0  0  0  0  1  0  0  0  0  0  0
  189.2640  177.4900  134.6460 C   0  0  0  0  0  1  0  0  0  0  0  0
  188.9970  174.8590  136.4740 C   0  0  2  0  0  3  0  0  0  0  0  0
  188.1530  173.1200  135.3000 C   0  0  0  0  0  2  0  0  0  0  0  0
  188.4460  177.3030  135.9210 C   0  0  2  0  0  0  0  0  0  0  0  0
  188.4570  173.5660  136.5980 O   0  0  0  0  0  0  0  0  0  0  0  0
  190.3910  176.9000  139.3110 C   0  0  2  0  0  0  0  0  0  0  0  0
  189.5960  175.2720  137.8290 C   0  0  1  0  0  3  0  0  0  0  0  0
  186.9400  173.8750  134.7550 C   0  0  1  0  0  3  0  0  0  0  0  0
  191.1150  175.1780  137.9760 C   0  0  1  0  0  3  0  0  0  0  0  0
  184.7580  174.2280  134.8830 C   0  0  0  0  0  1  0  0  0  0  0  0
  185.8260  173.6480  135.5680 O   0  0  0  0  0  0  0  0  0  0  0  0
  186.2270  177.9530  137.0090 C   0  0  0  0  0  1  0  0  0  0  0  0
  187.2410  178.2520  135.9120 C   0  0  0  0  0  2  0  0  0  0  0  0
  191.8930  175.3850  136.6550 C   0  0  2  0  0  3  0  0  0  0  0  0
  191.8820  172.9920  136.4500 O   0  0  0  0  0  1  0  0  0  0  0  0
  192.5660  174.1480  134.5940 O   0  0  0  0  0  0  0  0  0  0  0  0
  192.0990  174.1060  135.9010 C   0  0  0  0  0  0  0  0  0  0  0  0
  193.2200  176.1320  136.8320 C   0  0  0  0  0  2  0  0  0  0  0  0
  194.4000  175.1850  137.0210 C   0  0  0  0  0  2  0  0  0  0  0  0
  194.6960  174.9970  138.4980 C   0  0  0  0  0  2  0  0  0  0  0  0
  195.0720  172.6630  137.7640 C   0  0  0  0  0  1  0  0  0  0  0  0
  195.5320  173.7500  138.7120 C   0  0  0  0  0  2  0  0  0  0  0  0
  189.9540  176.4440  140.7080 C   0  0  0  0  0  2  0  0  0  0  0  0
  188.9880  177.4150  141.3750 C   0  0  0  0  0  2  0  0  0  0  0  0
  188.7210  175.8580  143.1600 O   0  0  0  0  0  1  0  0  0  0  0  0
  188.9940  177.1970  142.8800 C   0  0  1  0  0  3  0  0  0  0  0  0
  190.3470  177.5670  143.4650 C   0  0  0  0  0  2  0  0  0  0  0  0
  190.3710  177.3530  144.9800 C   0  0  0  0  0  2  0  0  0  0  0  0
  189.1540  177.8580  145.7060 C   0  0  0  0  0  3  0  0  0  0  0  0
  188.7200  177.3660  146.8380 C   0  0  0  0  0  0  0  0  0  0  0  0
  188.3070  176.9000  147.9060 O   0  0  0  0  0  0  0  0  0  0  0  0
  2 12  1  0  0  0  0
  3 14  1  0  0  0  0
  4  1  1  6  0  0  0
  4 12  1  0  0  0  0
  5  3  1  6  0  0  0
  5  8  1  0  0  0  0
  8 11  1  1  0  0  0
  8 13  1  0  0  0  0
  9 11  1  0  0  0  0
 10  7  1  6  0  0  0
 10  5  1  0  0  0  0
 10  1  1  0  0  0  0
 12  6  1  1  0  0  0
 12 29  1  0  0  0  0
 13 15  1  0  0  0  0
 13  4  1  0  0  0  0
 14  9  1  0  0  0  0
 14 17  1  0  0  0  0
 15  2  1  0  0  0  0
 16 17  1  0  0  0  0
 19 10  1  0  0  0  0
 19 18  1  0  0  0  0
 20 24  1  0  0  0  0
 20 15  1  0  0  0  0
 22 23  2  0  0  0  0
 23 21  1  0  0  0  0
 23 20  1  0  0  0  0
 24 25  1  0  0  0  0
 25 26  1  0  0  0  0
 26 28  1  0  0  0  0
 27 28  1  0  0  0  0
 29 30  1  0  0  0  0
 30 32  1  0  0  0  0
 32 31  1  0  0  0  0
 32 33  1  0  0  0  0
 33 34  1  0  0  0  0
 34 35  1  0  0  0  0
 35 36  2  0  0  0  0
 36 37  2  0  0  0  0
M  END
>  <MODEL>
7

>  <REMARK>
 VINA RESULT:      -4.7      3.750      5.960
  Name = 
  14 active torsions:
  status: ('A' for Active; 'I' for Inactive)
    1  A    between atoms: C_1  and  C_23
    2  A    between atoms: C_1  and  C_33
    3  A    between atoms: C_1  and  C_36
    4  A    between atoms: C_6  and  C_8
    5  A    between atoms: C_6  and  C_31
    6  A    between atoms: C_8  and  C_19
    7  A    between atoms: C_15  and  C_19
    8  A    between atoms: C_17  and  C_26
    9  A    between atoms: C_17  and  C_33
   10  A    between atoms: C_24  and  C_28
   11  A    between atoms: C_26  and  C_34
   12  A    between atoms: C_27  and  C_37
   13  A    between atoms: O_30  and  C_32
   14  A    between atoms: C_31  and  C_37
                            x       y       z     vdW  Elec       q    Type
                         _______ _______ _______ _____ _____    ______ ____

>  <TORSDO>
F 14

$$$$
=
 OpenBabel11052415263D

 37 39  0  0  1  0  0  0  0  0999 V2000
  187.4220  177.8320  136.8290 C   0  0  0  0  0  2  0  0  0  0  0  0
  190.1110  177.1840  138.4440 O   0  0  0  0  0  0  0  0  0  0  0  0
  185.3250  174.7200  135.6780 C   0  0  0  0  0  2  0  0  0  0  0  0
  187.7320  177.2420  138.2150 C   0  0  2  0  0  3  0  0  0  0  0  0
  186.1190  175.6390  136.6210 C   0  0  1  0  0  3  0  0  0  0  0  0
  189.0810  179.2320  138.4720 O   0  0  0  0  0  1  0  0  0  0  0  0
  186.8830  176.9370  134.5940 C   0  0  0  0  0  1  0  0  0  0  0  0
  187.4290  174.9560  137.0660 C   0  0  2  0  0  3  0  0  0  0  0  0
  186.6910  172.8640  136.6260 C   0  0  0  0  0  2  0  0  0  0  0  0
  186.3660  177.0480  136.0260 C   0  0  2  0  0  0  0  0  0  0  0  0
  187.1550  173.7070  137.6500 O   0  0  0  0  0  0  0  0  0  0  0  0
  188.9590  177.8910  138.8550 C   0  0  2  0  0  0  0  0  0  0  0  0
  188.1930  175.8170  138.0850 C   0  0  1  0  0  3  0  0  0  0  0  0
  185.2850  173.2820  136.1950 C   0  0  1  0  0  3  0  0  0  0  0  0
  189.7050  175.9430  137.8960 C   0  0  1  0  0  3  0  0  0  0  0  0
  183.9110  171.8790  137.2190 C   0  0  0  0  0  1  0  0  0  0  0  0
  184.4020  173.1840  137.2740 O   0  0  0  0  0  0  0  0  0  0  0  0
  184.1580  177.4680  137.2410 C   0  0  0  0  0  1  0  0  0  0  0  0
  185.0360  177.8100  136.0440 C   0  0  0  0  0  2  0  0  0  0  0  0
  190.1700  175.8330  136.4250 C   0  0  2  0  0  3  0  0  0  0  0  0
  190.2330  174.0770  134.7870 O   0  0  0  0  0  0  0  0  0  0  0  0
  190.7190  173.4530  136.9370 O   0  0  0  0  0  1  0  0  0  0  0  0
  190.3830  174.4140  135.9920 C   0  0  0  0  0  0  0  0  0  0  0  0
  191.3990  176.6900  136.1030 C   0  0  0  0  0  2  0  0  0  0  0  0
  192.6950  175.8880  136.1420 C   0  0  0  0  0  2  0  0  0  0  0  0
  193.3760  176.0490  137.4890 C   0  0  0  0  0  2  0  0  0  0  0  0
  194.3140  173.8870  136.7320 C   0  0  0  0  0  1  0  0  0  0  0  0
  193.9630  174.7260  137.9430 C   0  0  0  0  0  2  0  0  0  0  0  0
  188.8810  177.8250  140.3850 C   0  0  0  0  0  2  0  0  0  0  0  0
  190.2260  177.5330  141.0370 C   0  0  0  0  0  2  0  0  0  0  0  0
  190.0370  175.5870  142.4010 O   0  0  0  0  0  1  0  0  0  0  0  0
  190.0110  176.9810  142.4380 C   0  0  1  0  0  3  0  0  0  0  0  0
  191.0960  177.4790  143.3780 C   0  0  0  0  0  2  0  0  0  0  0  0
  190.5220  177.8190  144.7540 C   0  0  0  0  0  2  0  0  0  0  0  0
  190.6450  176.7210  145.7760 C   0  0  0  0  0  3  0  0  0  0  0  0
  191.3450  176.8190  146.8760 C   0  0  0  0  0  0  0  0  0  0  0  0
  192.0100  176.9090  147.9140 O   0  0  0  0  0  0  0  0  0  0  0  0
  2 12  1  0  0  0  0
  3 14  1  0  0  0  0
  4  1  1  6  0  0  0
  4 12  1  0  0  0  0
  5  3  1  6  0  0  0
  5  8  1  0  0  0  0
  8 11  1  1  0  0  0
  8 13  1  0  0  0  0
  9 11  1  0  0  0  0
 10  7  1  6  0  0  0
 10 19  1  0  0  0  0
 10  5  1  0  0  0  0
 10  1  1  0  0  0  0
 12  6  1  6  0  0  0
 12 29  1  0  0  0  0
 13  4  1  0  0  0  0
 14  9  1  0  0  0  0
 14 17  1  0  0  0  0
 15 13  1  0  0  0  0
 15  2  1  0  0  0  0
 16 17  1  0  0  0  0
 19 18  1  0  0  0  0
 20 15  1  0  0  0  0
 21 23  2  0  0  0  0
 23 20  1  0  0  0  0
 23 22  1  0  0  0  0
 24 25  1  0  0  0  0
 24 20  1  0  0  0  0
 25 26  1  0  0  0  0
 26 28  1  0  0  0  0
 27 28  1  0  0  0  0
 29 30  1  0  0  0  0
 30 32  1  0  0  0  0
 31 32  1  0  0  0  0
 32 33  1  0  0  0  0
 33 34  1  0  0  0  0
 34 35  1  0  0  0  0
 35 36  2  0  0  0  0
 36 37  2  0  0  0  0
M  END
>  <MODEL>
8

>  <REMARK>
 VINA RESULT:      -4.7      3.408      4.737
  Name = 
  14 active torsions:
  status: ('A' for Active; 'I' for Inactive)
    1  A    between atoms: C_1  and  C_23
    2  A    between atoms: C_1  and  C_33
    3  A    between atoms: C_1  and  C_36
    4  A    between atoms: C_6  and  C_8
    5  A    between atoms: C_6  and  C_31
    6  A    between atoms: C_8  and  C_19
    7  A    between atoms: C_15  and  C_19
    8  A    between atoms: C_17  and  C_26
    9  A    between atoms: C_17  and  C_33
   10  A    between atoms: C_24  and  C_28
   11  A    between atoms: C_26  and  C_34
   12  A    between atoms: C_27  and  C_37
   13  A    between atoms: O_30  and  C_32
   14  A    between atoms: C_31  and  C_37
                            x       y       z     vdW  Elec       q    Type
                         _______ _______ _______ _____ _____    ______ ____

>  <TORSDO>
F 14

$$$$
=
 OpenBabel11052415263D

 37 39  0  0  1  0  0  0  0  0999 V2000
  187.6940  177.7690  136.8820 C   0  0  0  0  0  2  0  0  0  0  0  0
  190.1390  177.1930  138.8690 O   0  0  0  0  0  0  0  0  0  0  0  0
  185.8750  174.6010  135.4450 C   0  0  0  0  0  2  0  0  0  0  0  0
  187.8180  177.1830  138.2990 C   0  0  2  0  0  3  0  0  0  0  0  0
  186.4980  175.5400  136.4910 C   0  0  1  0  0  3  0  0  0  0  0  0
  189.0570  179.2100  138.7470 O   0  0  0  0  0  1  0  0  0  0  0  0
  187.5090  176.8660  134.5940 C   0  0  0  0  0  1  0  0  0  0  0  0
  187.7490  174.8940  137.1210 C   0  0  2  0  0  3  0  0  0  0  0  0
  187.1430  172.7820  136.5810 C   0  0  0  0  0  2  0  0  0  0  0  0
  186.7880  176.9570  135.9370 C   0  0  2  0  0  0  0  0  0  0  0  0
  187.4290  173.6350  137.6610 O   0  0  0  0  0  0  0  0  0  0  0  0
  188.9200  177.8660  139.1090 C   0  0  2  0  0  0  0  0  0  0  0  0
  188.3330  175.7730  138.2390 C   0  0  1  0  0  3  0  0  0  0  0  0
  185.8020  173.1610  135.9520 C   0  0  1  0  0  3  0  0  0  0  0  0
  189.8520  175.9420  138.2700 C   0  0  1  0  0  3  0  0  0  0  0  0
  184.0810  171.8860  136.5120 C   0  0  0  0  0  1  0  0  0  0  0  0
  184.7760  173.0350  136.8920 O   0  0  0  0  0  0  0  0  0  0  0  0
  184.4690  177.4250  136.9000 C   0  0  0  0  0  1  0  0  0  0  0  0
  185.4480  177.6800  135.7610 C   0  0  0  0  0  2  0  0  0  0  0  0
  190.5270  175.8510  136.8820 C   0  0  2  0  0  3  0  0  0  0  0  0
  190.7660  173.5020  137.3300 O   0  0  0  0  0  1  0  0  0  0  0  0
  191.2920  174.1700  135.2020 O   0  0  0  0  0  0  0  0  0  0  0  0
  190.8550  174.4400  136.4920 C   0  0  0  0  0  0  0  0  0  0  0  0
  191.7560  176.7540  136.7350 C   0  0  0  0  0  2  0  0  0  0  0  0
  192.8760  176.3770  137.6980 C   0  0  0  0  0  2  0  0  0  0  0  0
  194.1140  175.9540  136.9300 C   0  0  0  0  0  2  0  0  0  0  0  0
  195.7610  174.1390  136.5860 C   0  0  0  0  0  1  0  0  0  0  0  0
  194.4100  174.4860  137.1750 C   0  0  0  0  0  2  0  0  0  0  0  0
  188.6240  177.7920  140.6120 C   0  0  0  0  0  2  0  0  0  0  0  0
  189.7480  177.1430  141.4090 C   0  0  0  0  0  2  0  0  0  0  0  0
  190.3280  178.6130  143.1930 O   0  0  0  0  0  1  0  0  0  0  0  0
  189.5900  177.4700  142.8850 C   0  0  1  0  0  3  0  0  0  0  0  0
  188.1280  177.7100  143.2230 C   0  0  0  0  0  2  0  0  0  0  0  0
  187.9180  177.8030  144.7350 C   0  0  0  0  0  2  0  0  0  0  0  0
  186.5210  177.4870  145.1970 C   0  0  0  0  0  3  0  0  0  0  0  0
  185.8140  178.2630  145.9770 C   0  0  0  0  0  0  0  0  0  0  0  0
  185.1460  178.9950  146.7170 O   0  0  0  0  0  0  0  0  0  0  0  0
  2 12  1  0  0  0  0
  3 14  1  0  0  0  0
  4  1  1  6  0  0  0
  4 12  1  0  0  0  0
  5  3  1  6  0  0  0
  5  8  1  0  0  0  0
  8 11  1  1  0  0  0
  8 13  1  0  0  0  0
  9 11  1  0  0  0  0
 10  7  1  6  0  0  0
 10  5  1  0  0  0  0
 10  1  1  0  0  0  0
 12  6  1  6  0  0  0
 12 29  1  0  0  0  0
 13 15  1  0  0  0  0
 13  4  1  0  0  0  0
 14  9  1  0  0  0  0
 14 17  1  0  0  0  0
 15  2  1  0  0  0  0
 16 17  1  0  0  0  0
 19 10  1  0  0  0  0
 19 18  1  0  0  0  0
 20 15  1  0  0  0  0
 22 23  2  0  0  0  0
 23 20  1  0  0  0  0
 23 21  1  0  0  0  0
 24 20  1  0  0  0  0
 24 25  1  0  0  0  0
 26 28  1  0  0  0  0
 26 25  1  0  0  0  0
 27 28  1  0  0  0  0
 29 30  1  0  0  0  0
 30 32  1  0  0  0  0
 32 31  1  0  0  0  0
 32 33  1  0  0  0  0
 33 34  1  0  0  0  0
 34 35  1  0  0  0  0
 35 36  2  0  0  0  0
 36 37  2  0  0  0  0
M  END
>  <MODEL>
9

>  <REMARK>
 VINA RESULT:      -4.5      3.072      4.676
  Name = 
  14 active torsions:
  status: ('A' for Active; 'I' for Inactive)
    1  A    between atoms: C_1  and  C_23
    2  A    between atoms: C_1  and  C_33
    3  A    between atoms: C_1  and  C_36
    4  A    between atoms: C_6  and  C_8
    5  A    between atoms: C_6  and  C_31
    6  A    between atoms: C_8  and  C_19
    7  A    between atoms: C_15  and  C_19
    8  A    between atoms: C_17  and  C_26
    9  A    between atoms: C_17  and  C_33
   10  A    between atoms: C_24  and  C_28
   11  A    between atoms: C_26  and  C_34
   12  A    between atoms: C_27  and  C_37
   13  A    between atoms: O_30  and  C_32
   14  A    between atoms: C_31  and  C_37
                            x       y       z     vdW  Elec       q    Type
                         _______ _______ _______ _____ _____    ______ ____

>  <TORSDO>
F 14

$$$$
