=
 OpenBabel11052414413D

 32 36  0  0  1  0  0  0  0  0999 V2000
  189.3650  177.4590  142.2000 O   0  0  0  0  0  0  0  0  0  0  0  0
  187.7700  177.9510  143.8960 C   0  0  0  0  0  0  0  0  0  0  0  0
  190.4740  176.6720  141.7530 C   0  0  2  0  0  3  0  0  0  0  0  0
  189.0070  177.5550  143.5520 C   0  0  0  0  0  0  0  0  0  0  0  0
  187.3800  178.0220  145.2890 N   0  0  0  0  0  0  0  0  0  0  0  0
  182.9780  178.6230  142.6040 C   0  0  0  0  0  2  0  0  0  0  0  0
  186.8040  178.3730  142.8230 C   0  0  0  0  0  2  0  0  0  0  0  0
  183.6340  178.5760  145.0130 C   0  0  0  0  0  2  0  0  0  0  0  0
  185.1040  178.7240  144.6280 C   0  0  1  0  0  3  0  0  0  0  0  0
  190.0550  177.2790  144.6080 C   0  0  1  0  0  3  0  0  0  0  0  0
  185.9550  177.9700  145.6380 C   0  0  0  0  0  2  0  0  0  0  0  0
  189.4390  176.8680  145.9370 C   0  0  0  0  0  2  0  0  0  0  0  0
  191.0550  176.2380  144.1300 C   0  0  0  0  0  2  0  0  0  0  0  0
  185.3560  178.1390  143.2330 C   0  0  1  0  0  3  0  0  0  0  0  0
  188.4190  177.9250  146.3320 C   0  0  2  0  0  3  0  0  0  0  0  0
  191.6080  176.6530  142.7750 C   0  0  0  0  0  2  0  0  0  0  0  0
  182.7410  179.2460  143.9760 C   0  0  0  0  0  2  0  0  0  0  0  0
  184.4400  178.7910  142.2010 C   0  0  0  0  0  2  0  0  0  0  0  0
  187.8700  177.6070  147.7190 C   0  0  0  0  0  2  0  0  0  0  0  0
  188.6970  178.3070  148.7800 C   0  0  0  0  0  1  0  0  0  0  0  0
  190.9760  177.1670  140.4010 C   0  0  1  0  0  3  0  0  0  0  0  0
  192.4580  177.4770  140.4850 C   0  0  0  0  0  1  0  0  0  0  0  0
  190.7540  176.2010  139.4120 O   0  0  0  0  0  0  0  0  0  0  0  0
  189.6140  176.3160  137.2310 C   0  0  2  0  0  0  0  0  0  0  0  0
  188.8480  179.7340  137.2170 O   0  0  0  0  0  0  0  0  0  0  0  0
  190.9890  175.8910  136.7330 C   0  0  0  0  0  1  0  0  0  0  0  0
  189.3820  178.1100  138.9210 C   0  0  0  0  0  2  0  0  0  0  0  0
  189.2590  177.5390  136.6110 O   0  0  0  0  0  0  0  0  0  0  0  0
  189.5830  176.6030  138.7580 C   0  0  2  0  0  3  0  0  0  0  0  0
  189.1350  178.5520  137.5360 C   0  0  0  0  0  0  0  0  0  0  0  0
  188.6050  175.2320  136.8690 C   0  0  0  0  0  2  0  0  0  0  0  0
  187.3150  175.6050  137.2510 O   0  0  0  0  0  1  0  0  0  0  0  0
  1  4  1  0  0  0  0
  2  5  1  0  0  0  0
  3 21  1  6  0  0  0
  3  1  1  0  0  0  0
  3 16  1  0  0  0  0
  4  2  2  0  0  0  0
  4 10  1  0  0  0  0
  5 11  1  0  0  0  0
  5 15  1  0  0  0  0
  6 17  1  0  0  0  0
  7 14  1  0  0  0  0
  7  2  1  0  0  0  0
  9  8  1  1  0  0  0
  9 11  1  0  0  0  0
 10 13  1  6  0  0  0
 10 12  1  0  0  0  0
 12 15  1  0  0  0  0
 14 18  1  6  0  0  0
 14  9  1  0  0  0  0
 15 19  1  1  0  0  0
 16 13  1  0  0  0  0
 17  8  1  0  0  0  0
 18  6  1  0  0  0  0
 19 20  1  0  0  0  0
 21 22  1  1  0  0  0
 23 21  1  0  0  0  0
 24 26  1  6  0  0  0
 24 29  1  0  0  0  0
 25 30  2  0  0  0  0
 28 24  1  0  0  0  0
 28 30  1  0  0  0  0
 29 27  1  0  0  0  0
 29 23  1  6  0  0  0
 30 27  1  0  0  0  0
 31 24  1  0  0  0  0
 31 32  1  0  0  0  0
M  END
>  <MODEL>
1

>  <REMARK>
 VINA RESULT:     -10.2      0.000      0.000
  Name = 
  5 active torsions:
  status: ('A' for Active; 'I' for Inactive)
    1  A    between atoms: C_3  and  C_22
    2  A    between atoms: C_4  and  C_24
    3  A    between atoms: C_13  and  C_29
    4  A    between atoms: O_16  and  C_20
    5  A    between atoms: O_16  and  C_24
                            x       y       z     vdW  Elec       q    Type
                         _______ _______ _______ _____ _____    ______ ____

>  <TORSDO>
F 5

$$$$
=
 OpenBabel11052414413D

 32 36  0  0  1  0  0  0  0  0999 V2000
  186.8720  178.2080  143.3750 O   0  0  0  0  0  0  0  0  0  0  0  0
  186.6660  178.4280  141.0150 C   0  0  0  0  0  0  0  0  0  0  0  0
  186.2760  177.8590  144.6290 C   0  0  2  0  0  3  0  0  0  0  0  0
  186.1090  178.5000  142.2360 C   0  0  0  0  0  0  0  0  0  0  0  0
  185.8790  178.6950  139.8290 N   0  0  0  0  0  0  0  0  0  0  0  0
  190.3450  176.7060  138.0840 C   0  0  0  0  0  2  0  0  0  0  0  0
  188.1330  178.1180  140.8880 C   0  0  0  0  0  2  0  0  0  0  0  0
  188.2310  177.5670  137.0710 C   0  0  0  0  0  2  0  0  0  0  0  0
  187.8360  178.2000  138.4030 C   0  0  1  0  0  3  0  0  0  0  0  0
  184.6810  178.9680  142.4100 C   0  0  1  0  0  3  0  0  0  0  0  0
  186.3220  178.1570  138.5370 C   0  0  0  0  0  2  0  0  0  0  0  0
  183.8340  178.7050  141.1730 C   0  0  0  0  0  2  0  0  0  0  0  0
  184.0470  178.3440  143.6440 C   0  0  0  0  0  2  0  0  0  0  0  0
  188.4590  177.4260  139.5710 C   0  0  1  0  0  3  0  0  0  0  0  0
  184.5460  179.3120  139.9750 C   0  0  2  0  0  3  0  0  0  0  0  0
  184.9470  178.5770  144.8480 C   0  0  0  0  0  2  0  0  0  0  0  0
  189.7480  177.5130  136.9350 C   0  0  0  0  0  2  0  0  0  0  0  0
  189.9760  177.3480  139.4180 C   0  0  0  0  0  2  0  0  0  0  0  0
  183.6660  179.1740  138.7370 C   0  0  0  0  0  2  0  0  0  0  0  0
  182.5660  180.2170  138.7610 C   0  0  0  0  0  1  0  0  0  0  0  0
  187.2370  178.1420  145.7790 C   0  0  1  0  0  3  0  0  0  0  0  0
  186.4550  178.3460  147.0630 C   0  0  0  0  0  1  0  0  0  0  0  0
  188.1350  177.0800  145.9400 O   0  0  0  0  0  0  0  0  0  0  0  0
  190.3350  177.4840  144.9080 C   0  0  2  0  0  0  0  0  0  0  0  0
  192.3610  176.2650  147.4930 O   0  0  0  0  0  0  0  0  0  0  0  0
  189.7990  176.4860  143.8910 C   0  0  0  0  0  1  0  0  0  0  0  0
  190.0900  177.0660  147.3360 C   0  0  0  0  0  2  0  0  0  0  0  0
  191.5440  176.9830  145.4500 O   0  0  0  0  0  0  0  0  0  0  0  0
  189.3870  177.6800  146.1240 C   0  0  2  0  0  3  0  0  0  0  0  0
  191.4230  176.7350  146.7990 C   0  0  0  0  0  0  0  0  0  0  0  0
  190.5870  178.8130  144.2050 C   0  0  0  0  0  2  0  0  0  0  0  0
  191.9550  179.0780  144.1170 O   0  0  0  0  0  1  0  0  0  0  0  0
  1  3  1  0  0  0  0
  2  4  2  0  0  0  0
  3 16  1  0  0  0  0
  3 21  1  1  0  0  0
  4 10  1  0  0  0  0
  4  1  1  0  0  0  0
  5 15  1  0  0  0  0
  5  2  1  0  0  0  0
  6 18  1  0  0  0  0
  7  2  1  0  0  0  0
  9  8  1  6  0  0  0
  9 11  1  0  0  0  0
  9 14  1  0  0  0  0
 10 12  1  6  0  0  0
 10 13  1  0  0  0  0
 11  5  1  0  0  0  0
 13 16  1  0  0  0  0
 14 18  1  6  0  0  0
 14  7  1  0  0  0  0
 15 19  1  6  0  0  0
 15 12  1  0  0  0  0
 17  8  1  0  0  0  0
 17  6  1  0  0  0  0
 19 20  1  0  0  0  0
 21 23  1  0  0  0  0
 21 22  1  1  0  0  0
 24 26  1  6  0  0  0
 24 28  1  0  0  0  0
 24 29  1  0  0  0  0
 28 30  1  0  0  0  0
 29 23  1  6  0  0  0
 29 27  1  0  0  0  0
 30 27  1  0  0  0  0
 30 25  2  0  0  0  0
 31 24  1  0  0  0  0
 32 31  1  0  0  0  0
M  END
>  <MODEL>
2

>  <REMARK>
 VINA RESULT:     -10.2      2.923      7.697
  Name = 
  5 active torsions:
  status: ('A' for Active; 'I' for Inactive)
    1  A    between atoms: C_3  and  C_22
    2  A    between atoms: C_4  and  C_24
    3  A    between atoms: C_13  and  C_29
    4  A    between atoms: O_16  and  C_20
    5  A    between atoms: O_16  and  C_24
                            x       y       z     vdW  Elec       q    Type
                         _______ _______ _______ _____ _____    ______ ____

>  <TORSDO>
F 5

$$$$
=
 OpenBabel11052414413D

 32 36  0  0  1  0  0  0  0  0999 V2000
  185.2510  178.1900  143.3450 O   0  0  0  0  0  0  0  0  0  0  0  0
  187.4480  177.6440  144.0760 C   0  0  0  0  0  0  0  0  0  0  0  0
  184.0310  178.9080  143.5610 C   0  0  2  0  0  3  0  0  0  0  0  0
  186.1730  177.9490  144.3720 C   0  0  0  0  0  0  0  0  0  0  0  0
  188.4180  177.4260  145.1300 N   0  0  0  0  0  0  0  0  0  0  0  0
  191.1920  177.6670  140.7490 C   0  0  0  0  0  2  0  0  0  0  0  0
  187.8530  177.4770  142.6370 C   0  0  0  0  0  2  0  0  0  0  0  0
  191.6700  177.3160  143.1750 C   0  0  0  0  0  2  0  0  0  0  0  0
  190.1880  177.0660  143.4430 C   0  0  1  0  0  3  0  0  0  0  0  0
  185.6930  177.9650  145.8070 C   0  0  1  0  0  3  0  0  0  0  0  0
  189.8470  177.5810  144.8330 C   0  0  0  0  0  2  0  0  0  0  0  0
  186.8200  178.2550  146.7880 C   0  0  0  0  0  2  0  0  0  0  0  0
  184.5480  178.9500  145.9910 C   0  0  0  0  0  2  0  0  0  0  0  0
  189.3230  177.8060  142.4150 C   0  0  1  0  0  3  0  0  0  0  0  0
  187.9450  177.2690  146.5190 C   0  0  2  0  0  3  0  0  0  0  0  0
  183.4670  178.6670  144.9590 C   0  0  0  0  0  2  0  0  0  0  0  0
  192.0350  176.8920  141.7570 C   0  0  0  0  0  2  0  0  0  0  0  0
  189.7100  177.4010  140.9950 C   0  0  0  0  0  2  0  0  0  0  0  0
  189.0410  177.4510  147.5650 C   0  0  0  0  0  2  0  0  0  0  0  0
  188.4930  178.1890  148.7710 C   0  0  0  0  0  1  0  0  0  0  0  0
  183.0000  178.5510  142.4950 C   0  0  1  0  0  3  0  0  0  0  0  0
  181.6190  178.9760  142.9550 C   0  0  0  0  0  1  0  0  0  0  0  0
  183.3070  179.1840  141.2840 O   0  0  0  0  0  0  0  0  0  0  0  0
  183.9260  178.6290  138.9660 C   0  0  2  0  0  0  0  0  0  0  0  0
  181.8560  175.8380  138.5210 O   0  0  0  0  0  0  0  0  0  0  0  0
  183.3310  180.0070  138.7060 C   0  0  0  0  0  1  0  0  0  0  0  0
  182.7620  177.0070  140.4290 C   0  0  0  0  0  2  0  0  0  0  0  0
  183.2260  177.6740  138.1890 O   0  0  0  0  0  0  0  0  0  0  0  0
  183.7610  178.1650  140.4400 C   0  0  2  0  0  3  0  0  0  0  0  0
  182.5640  176.7680  138.9870 C   0  0  0  0  0  0  0  0  0  0  0  0
  185.3980  178.6490  138.5710 C   0  0  0  0  0  2  0  0  0  0  0  0
  186.2170  178.6660  139.7020 O   0  0  0  0  0  1  0  0  0  0  0  0
  1  3  1  0  0  0  0
  1  4  1  0  0  0  0
  2  4  2  0  0  0  0
  2  5  1  0  0  0  0
  3 21  1  6  0  0  0
  3 16  1  0  0  0  0
  4 10  1  0  0  0  0
  5 15  1  0  0  0  0
  6 18  1  0  0  0  0
  6 17  1  0  0  0  0
  7  2  1  0  0  0  0
  9  8  1  6  0  0  0
  9 11  1  0  0  0  0
 10 13  1  6  0  0  0
 10 12  1  0  0  0  0
 11  5  1  0  0  0  0
 14 18  1  6  0  0  0
 14  7  1  0  0  0  0
 14  9  1  0  0  0  0
 15 12  1  0  0  0  0
 15 19  1  1  0  0  0
 16 13  1  0  0  0  0
 17  8  1  0  0  0  0
 19 20  1  0  0  0  0
 21 22  1  1  0  0  0
 23 21  1  0  0  0  0
 24 26  1  6  0  0  0
 24 29  1  0  0  0  0
 25 30  2  0  0  0  0
 27 29  1  0  0  0  0
 28 24  1  0  0  0  0
 28 30  1  0  0  0  0
 29 23  1  1  0  0  0
 30 27  1  0  0  0  0
 31 24  1  0  0  0  0
 31 32  1  0  0  0  0
M  END
>  <MODEL>
3

>  <REMARK>
 VINA RESULT:      -9.3      2.606      6.222
  Name = 
  5 active torsions:
  status: ('A' for Active; 'I' for Inactive)
    1  A    between atoms: C_3  and  C_22
    2  A    between atoms: C_4  and  C_24
    3  A    between atoms: C_13  and  C_29
    4  A    between atoms: O_16  and  C_20
    5  A    between atoms: O_16  and  C_24
                            x       y       z     vdW  Elec       q    Type
                         _______ _______ _______ _____ _____    ______ ____

>  <TORSDO>
F 5

$$$$
=
 OpenBabel11052414413D

 32 36  0  0  1  0  0  0  0  0999 V2000
  184.7570  178.0680  142.7240 O   0  0  0  0  0  0  0  0  0  0  0  0
  186.7480  177.8040  143.9990 C   0  0  0  0  0  0  0  0  0  0  0  0
  183.5140  178.7470  142.5210 C   0  0  2  0  0  3  0  0  0  0  0  0
  185.4370  178.0940  143.9490 C   0  0  0  0  0  0  0  0  0  0  0  0
  187.4690  177.8600  145.2540 N   0  0  0  0  0  0  0  0  0  0  0  0
  191.1230  177.3420  141.6040 C   0  0  0  0  0  2  0  0  0  0  0  0
  187.4560  177.3650  142.7460 C   0  0  0  0  0  2  0  0  0  0  0  0
  191.0680  177.5250  144.0940 C   0  0  0  0  0  2  0  0  0  0  0  0
  189.5650  177.2560  144.0930 C   0  0  1  0  0  3  0  0  0  0  0  0
  184.6570  178.3800  145.2140 C   0  0  1  0  0  3  0  0  0  0  0  0
  188.9270  178.0270  145.2380 C   0  0  0  0  0  2  0  0  0  0  0  0
  185.5430  178.9260  146.3250 C   0  0  0  0  0  2  0  0  0  0  0  0
  183.4920  179.3180  144.9400 C   0  0  0  0  0  2  0  0  0  0  0  0
  188.9370  177.7200  142.7730 C   0  0  1  0  0  3  0  0  0  0  0  0
  186.7080  177.9680  146.5150 C   0  0  2  0  0  3  0  0  0  0  0  0
  182.6620  178.7700  143.7890 C   0  0  0  0  0  2  0  0  0  0  0  0
  191.7340  176.8380  142.9080 C   0  0  0  0  0  2  0  0  0  0  0  0
  189.6260  177.0530  141.5850 C   0  0  0  0  0  2  0  0  0  0  0  0
  187.5500  178.4200  147.7030 C   0  0  0  0  0  2  0  0  0  0  0  0
  188.0200  177.2170  148.4970 C   0  0  0  0  0  1  0  0  0  0  0  0
  182.7410  178.1240  141.3640 C   0  0  1  0  0  3  0  0  0  0  0  0
  182.0890  179.2140  140.5360 C   0  0  0  0  0  1  0  0  0  0  0  0
  183.5950  177.3660  140.5540 O   0  0  0  0  0  0  0  0  0  0  0  0
  183.5770  177.3120  138.0920 C   0  0  2  0  0  0  0  0  0  0  0  0
  186.7680  178.6380  137.5130 O   0  0  0  0  0  0  0  0  0  0  0  0
  183.4620  175.8140  138.3410 C   0  0  0  0  0  1  0  0  0  0  0  0
  185.2090  178.6800  139.3550 C   0  0  0  0  0  2  0  0  0  0  0  0
  184.7310  177.5590  137.3070 O   0  0  0  0  0  0  0  0  0  0  0  0
  183.7820  178.1310  139.3970 C   0  0  2  0  0  3  0  0  0  0  0  0
  185.6540  178.3110  137.9980 C   0  0  0  0  0  0  0  0  0  0  0  0
  182.3300  177.7830  137.3530 C   0  0  0  0  0  2  0  0  0  0  0  0
  181.1890  177.1480  137.8480 O   0  0  0  0  0  1  0  0  0  0  0  0
  1  4  1  0  0  0  0
  2  5  1  0  0  0  0
  3 21  1  6  0  0  0
  3  1  1  0  0  0  0
  3 16  1  0  0  0  0
  4  2  2  0  0  0  0
  4 10  1  0  0  0  0
  5 15  1  0  0  0  0
  6 17  1  0  0  0  0
  7 14  1  0  0  0  0
  7  2  1  0  0  0  0
  9  8  1  6  0  0  0
  9 11  1  0  0  0  0
 10 13  1  6  0  0  0
 10 12  1  0  0  0  0
 11  5  1  0  0  0  0
 12 15  1  0  0  0  0
 14 18  1  6  0  0  0
 14  9  1  0  0  0  0
 15 19  1  1  0  0  0
 16 13  1  0  0  0  0
 17  8  1  0  0  0  0
 18  6  1  0  0  0  0
 19 20  1  0  0  0  0
 21 22  1  6  0  0  0
 23 21  1  0  0  0  0
 24 26  1  1  0  0  0
 24 29  1  0  0  0  0
 25 30  2  0  0  0  0
 27 29  1  0  0  0  0
 28 30  1  0  0  0  0
 28 24  1  0  0  0  0
 29 23  1  1  0  0  0
 30 27  1  0  0  0  0
 31 32  1  0  0  0  0
 31 24  1  0  0  0  0
M  END
>  <MODEL>
4

>  <REMARK>
 VINA RESULT:      -9.1      2.690      5.862
  Name = 
  5 active torsions:
  status: ('A' for Active; 'I' for Inactive)
    1  A    between atoms: C_3  and  C_22
    2  A    between atoms: C_4  and  C_24
    3  A    between atoms: C_13  and  C_29
    4  A    between atoms: O_16  and  C_20
    5  A    between atoms: O_16  and  C_24
                            x       y       z     vdW  Elec       q    Type
                         _______ _______ _______ _____ _____    ______ ____

>  <TORSDO>
F 5

$$$$
=
 OpenBabel11052414413D

 32 36  0  0  1  0  0  0  0  0999 V2000
  188.2410  177.7620  141.7340 O   0  0  0  0  0  0  0  0  0  0  0  0
  187.0020  177.9170  143.7590 C   0  0  0  0  0  0  0  0  0  0  0  0
  188.4610  178.2190  140.3950 C   0  0  2  0  0  3  0  0  0  0  0  0
  187.0390  177.9920  142.4180 C   0  0  0  0  0  0  0  0  0  0  0  0
  185.7740  178.1850  144.4780 N   0  0  0  0  0  0  0  0  0  0  0  0
  189.4680  177.9690  148.1190 C   0  0  0  0  0  2  0  0  0  0  0  0
  188.2360  177.5000  144.5110 C   0  0  0  0  0  2  0  0  0  0  0  0
  186.9980  178.3360  148.0690 C   0  0  0  0  0  2  0  0  0  0  0  0
  186.9410  177.8330  146.6290 C   0  0  1  0  0  3  0  0  0  0  0  0
  185.7800  178.2480  141.6200 C   0  0  1  0  0  3  0  0  0  0  0  0
  185.8400  178.5800  145.8910 C   0  0  0  0  0  2  0  0  0  0  0  0
  184.7360  179.0130  142.4220 C   0  0  0  0  0  2  0  0  0  0  0  0
  186.0930  178.9650  140.3160 C   0  0  0  0  0  2  0  0  0  0  0  0
  188.2750  178.0870  145.9160 C   0  0  1  0  0  3  0  0  0  0  0  0
  184.5060  178.2690  143.7280 C   0  0  2  0  0  3  0  0  0  0  0  0
  187.1780  178.2050  139.5690 C   0  0  0  0  0  2  0  0  0  0  0  0
  188.1470  177.6720  148.8200 C   0  0  0  0  0  2  0  0  0  0  0  0
  189.4270  177.4460  146.6860 C   0  0  0  0  0  2  0  0  0  0  0  0
  183.3760  178.9410  144.5030 C   0  0  0  0  0  2  0  0  0  0  0  0
  182.1200  178.9890  143.6560 C   0  0  0  0  0  1  0  0  0  0  0  0
  189.5480  177.3920  139.7160 C   0  0  1  0  0  3  0  0  0  0  0  0
  190.4310  176.7430  140.7650 C   0  0  0  0  0  1  0  0  0  0  0  0
  188.9780  176.4030  138.9050 O   0  0  0  0  0  0  0  0  0  0  0  0
  188.8210  176.3770  136.4480 C   0  0  2  0  0  0  0  0  0  0  0  0
  190.9740  173.6880  135.8110 O   0  0  0  0  0  0  0  0  0  0  0  0
  187.3630  176.0650  136.7600 C   0  0  0  0  0  1  0  0  0  0  0  0
  190.6460  175.2150  137.6500 C   0  0  0  0  0  2  0  0  0  0  0  0
  189.3530  175.3330  135.6520 O   0  0  0  0  0  0  0  0  0  0  0  0
  189.7160  176.4280  137.7170 C   0  0  2  0  0  3  0  0  0  0  0  0
  190.3640  174.6680  136.3110 C   0  0  0  0  0  0  0  0  0  0  0  0
  188.8880  177.6980  135.6910 C   0  0  0  0  0  2  0  0  0  0  0  0
  189.0850  178.7660  136.5690 O   0  0  0  0  0  1  0  0  0  0  0  0
  1  4  1  0  0  0  0
  2  5  1  0  0  0  0
  2  7  1  0  0  0  0
  3 21  1  6  0  0  0
  3  1  1  0  0  0  0
  4  2  2  0  0  0  0
  5 11  1  0  0  0  0
  6 17  1  0  0  0  0
  8 17  1  0  0  0  0
  9 11  1  6  0  0  0
  9  8  1  0  0  0  0
 10 13  1  6  0  0  0
 10  4  1  0  0  0  0
 10 12  1  0  0  0  0
 12 15  1  0  0  0  0
 14  7  1  6  0  0  0
 14  9  1  0  0  0  0
 14 18  1  0  0  0  0
 15  5  1  0  0  0  0
 15 19  1  1  0  0  0
 16 13  1  0  0  0  0
 16  3  1  0  0  0  0
 18  6  1  0  0  0  0
 20 19  1  0  0  0  0
 21 22  1  1  0  0  0
 23 21  1  0  0  0  0
 24 26  1  1  0  0  0
 24 29  1  0  0  0  0
 25 30  2  0  0  0  0
 27 29  1  0  0  0  0
 28 30  1  0  0  0  0
 28 24  1  0  0  0  0
 29 23  1  1  0  0  0
 30 27  1  0  0  0  0
 31 24  1  0  0  0  0
 31 32  1  0  0  0  0
M  END
>  <MODEL>
5

>  <REMARK>
 VINA RESULT:      -9.1      1.530      4.477
  Name = 
  5 active torsions:
  status: ('A' for Active; 'I' for Inactive)
    1  A    between atoms: C_3  and  C_22
    2  A    between atoms: C_4  and  C_24
    3  A    between atoms: C_13  and  C_29
    4  A    between atoms: O_16  and  C_20
    5  A    between atoms: O_16  and  C_24
                            x       y       z     vdW  Elec       q    Type
                         _______ _______ _______ _____ _____    ______ ____

>  <TORSDO>
F 5

$$$$
=
 OpenBabel11052414413D

 32 36  0  0  1  0  0  0  0  0999 V2000
  187.5420  177.8750  141.6030 O   0  0  0  0  0  0  0  0  0  0  0  0
  186.4650  177.9930  143.7220 C   0  0  0  0  0  0  0  0  0  0  0  0
  187.6380  178.3340  140.2510 C   0  0  2  0  0  3  0  0  0  0  0  0
  186.3920  178.0640  142.3820 C   0  0  0  0  0  0  0  0  0  0  0  0
  185.2900  178.2200  144.5370 N   0  0  0  0  0  0  0  0  0  0  0  0
  189.2710  178.1470  147.8680 C   0  0  0  0  0  2  0  0  0  0  0  0
  187.7700  177.6220  144.3720 C   0  0  0  0  0  2  0  0  0  0  0  0
  186.7940  178.4250  148.0170 C   0  0  0  0  0  2  0  0  0  0  0  0
  186.6380  177.9160  146.5870 C   0  0  1  0  0  3  0  0  0  0  0  0
  185.0640  178.2730  141.6880 C   0  0  1  0  0  3  0  0  0  0  0  0
  185.4560  178.6210  145.9390 C   0  0  0  0  0  2  0  0  0  0  0  0
  184.0620  179.0030  142.5710 C   0  0  0  0  0  2  0  0  0  0  0  0
  185.2460  178.9970  140.3620 C   0  0  0  0  0  2  0  0  0  0  0  0
  187.9010  178.2140  145.7690 C   0  0  1  0  0  3  0  0  0  0  0  0
  183.9640  178.2570  143.8910 C   0  0  2  0  0  3  0  0  0  0  0  0
  186.2930  178.2730  139.5310 C   0  0  0  0  0  2  0  0  0  0  0  0
  188.0220  177.8050  148.6740 C   0  0  0  0  0  2  0  0  0  0  0  0
  189.1330  177.6170  146.4440 C   0  0  0  0  0  2  0  0  0  0  0  0
  182.8770  178.8900  144.7540 C   0  0  0  0  0  2  0  0  0  0  0  0
  181.5840  178.9950  143.9690 C   0  0  0  0  0  1  0  0  0  0  0  0
  188.6950  177.5440  139.4870 C   0  0  1  0  0  3  0  0  0  0  0  0
  188.3350  177.4950  138.0150 C   0  0  0  0  0  1  0  0  0  0  0  0
  189.9560  178.1340  139.6420 O   0  0  0  0  0  0  0  0  0  0  0  0
  191.1540  177.2280  141.5940 C   0  0  2  0  0  0  0  0  0  0  0  0
  194.3570  177.0110  140.1910 O   0  0  0  0  0  0  0  0  0  0  0  0
  190.7300  178.5590  142.2000 C   0  0  0  0  0  1  0  0  0  0  0  0
  192.1120  177.1280  139.3140 C   0  0  0  0  0  2  0  0  0  0  0  0
  192.5660  177.1270  141.6530 O   0  0  0  0  0  0  0  0  0  0  0  0
  190.7930  177.1040  140.0880 C   0  0  2  0  0  3  0  0  0  0  0  0
  193.1170  177.0800  140.3910 C   0  0  0  0  0  0  0  0  0  0  0  0
  190.5150  176.0990  142.3930 C   0  0  0  0  0  2  0  0  0  0  0  0
  191.2330  175.8490  143.5650 O   0  0  0  0  0  1  0  0  0  0  0  0
  1  4  1  0  0  0  0
  2  7  1  0  0  0  0
  2  5  1  0  0  0  0
  3 21  1  6  0  0  0
  3  1  1  0  0  0  0
  4  2  2  0  0  0  0
  5 11  1  0  0  0  0
  6 17  1  0  0  0  0
  8 17  1  0  0  0  0
  9 11  1  6  0  0  0
  9  8  1  0  0  0  0
 10 13  1  6  0  0  0
 10  4  1  0  0  0  0
 10 12  1  0  0  0  0
 12 15  1  0  0  0  0
 14  7  1  6  0  0  0
 14 18  1  0  0  0  0
 14  9  1  0  0  0  0
 15  5  1  0  0  0  0
 15 19  1  1  0  0  0
 16  3  1  0  0  0  0
 16 13  1  0  0  0  0
 18  6  1  0  0  0  0
 20 19  1  0  0  0  0
 21 22  1  6  0  0  0
 21 23  1  0  0  0  0
 24 28  1  0  0  0  0
 24 26  1  1  0  0  0
 24 31  1  0  0  0  0
 25 30  2  0  0  0  0
 27 29  1  0  0  0  0
 27 30  1  0  0  0  0
 29 23  1  6  0  0  0
 29 24  1  0  0  0  0
 30 28  1  0  0  0  0
 31 32  1  0  0  0  0
M  END
>  <MODEL>
6

>  <REMARK>
 VINA RESULT:      -9.0      1.778      5.162
  Name = 
  5 active torsions:
  status: ('A' for Active; 'I' for Inactive)
    1  A    between atoms: C_3  and  C_22
    2  A    between atoms: C_4  and  C_24
    3  A    between atoms: C_13  and  C_29
    4  A    between atoms: O_16  and  C_20
    5  A    between atoms: O_16  and  C_24
                            x       y       z     vdW  Elec       q    Type
                         _______ _______ _______ _____ _____    ______ ____

>  <TORSDO>
F 5

$$$$
=
 OpenBabel11052414413D

 32 36  0  0  1  0  0  0  0  0999 V2000
  185.2580  178.1850  143.1710 O   0  0  0  0  0  0  0  0  0  0  0  0
  187.4290  177.6180  143.9640 C   0  0  0  0  0  0  0  0  0  0  0  0
  184.0460  178.9260  143.3450 C   0  0  2  0  0  3  0  0  0  0  0  0
  186.1530  177.9480  144.2240 C   0  0  0  0  0  0  0  0  0  0  0  0
  188.3700  177.4040  145.0430 N   0  0  0  0  0  0  0  0  0  0  0  0
  191.2500  177.5230  140.7260 C   0  0  0  0  0  2  0  0  0  0  0  0
  187.8650  177.4190  142.5370 C   0  0  0  0  0  2  0  0  0  0  0  0
  191.6650  177.2080  143.1680 C   0  0  0  0  0  2  0  0  0  0  0  0
  190.1740  176.9860  143.4060 C   0  0  1  0  0  3  0  0  0  0  0  0
  185.6390  177.9980  145.6460 C   0  0  1  0  0  3  0  0  0  0  0  0
  189.8080  177.5310  144.7780 C   0  0  0  0  0  2  0  0  0  0  0  0
  186.7470  178.2870  146.6490 C   0  0  0  0  0  2  0  0  0  0  0  0
  184.5070  179.0030  145.7860 C   0  0  0  0  0  2  0  0  0  0  0  0
  189.3450  177.7210  142.3450 C   0  0  1  0  0  3  0  0  0  0  0  0
  187.8630  177.2790  146.4240 C   0  0  2  0  0  3  0  0  0  0  0  0
  183.4460  178.7180  144.7340 C   0  0  0  0  0  2  0  0  0  0  0  0
  192.0560  176.7540  141.7670 C   0  0  0  0  0  2  0  0  0  0  0  0
  189.7590  177.2850  140.9410 C   0  0  0  0  0  2  0  0  0  0  0  0
  188.9370  177.4620  147.4920 C   0  0  0  0  0  2  0  0  0  0  0  0
  188.3040  177.9140  148.7940 C   0  0  0  0  0  1  0  0  0  0  0  0
  183.0350  178.5660  142.2620 C   0  0  1  0  0  3  0  0  0  0  0  0
  181.6430  178.9820  142.7010 C   0  0  0  0  0  1  0  0  0  0  0  0
  183.3570  179.2040  141.0580 O   0  0  0  0  0  0  0  0  0  0  0  0
  183.2640  177.9540  138.9370 C   0  0  2  0  0  0  0  0  0  0  0  0
  181.1920  180.1300  137.1360 O   0  0  0  0  0  0  0  0  0  0  0  0
  184.7590  178.2430  138.9520 C   0  0  0  0  0  1  0  0  0  0  0  0
  181.6300  179.7350  139.4760 C   0  0  0  0  0  2  0  0  0  0  0  0
  182.7050  178.4910  137.7510 O   0  0  0  0  0  0  0  0  0  0  0  0
  182.5010  178.6450  140.1030 C   0  0  2  0  0  3  0  0  0  0  0  0
  181.8000  179.4910  138.0320 C   0  0  0  0  0  0  0  0  0  0  0  0
  183.0550  176.4460  138.9790 C   0  0  0  0  0  2  0  0  0  0  0  0
  181.9120  176.1210  139.7140 O   0  0  0  0  0  1  0  0  0  0  0  0
  1  3  1  0  0  0  0
  1  4  1  0  0  0  0
  2  4  2  0  0  0  0
  2  5  1  0  0  0  0
  3 21  1  6  0  0  0
  3 16  1  0  0  0  0
  4 10  1  0  0  0  0
  5 15  1  0  0  0  0
  6 18  1  0  0  0  0
  6 17  1  0  0  0  0
  7  2  1  0  0  0  0
  9  8  1  6  0  0  0
  9 11  1  0  0  0  0
 10 13  1  6  0  0  0
 10 12  1  0  0  0  0
 11  5  1  0  0  0  0
 14 18  1  6  0  0  0
 14  7  1  0  0  0  0
 14  9  1  0  0  0  0
 15 12  1  0  0  0  0
 15 19  1  1  0  0  0
 16 13  1  0  0  0  0
 17  8  1  0  0  0  0
 19 20  1  0  0  0  0
 21 22  1  1  0  0  0
 23 21  1  0  0  0  0
 24 26  1  1  0  0  0
 24 31  1  0  0  0  0
 24 29  1  0  0  0  0
 25 30  2  0  0  0  0
 27 29  1  0  0  0  0
 28 30  1  0  0  0  0
 28 24  1  0  0  0  0
 29 23  1  1  0  0  0
 30 27  1  0  0  0  0
 31 32  1  0  0  0  0
M  END
>  <MODEL>
7

>  <REMARK>
 VINA RESULT:      -9.0      2.998      6.328
  Name = 
  5 active torsions:
  status: ('A' for Active; 'I' for Inactive)
    1  A    between atoms: C_3  and  C_22
    2  A    between atoms: C_4  and  C_24
    3  A    between atoms: C_13  and  C_29
    4  A    between atoms: O_16  and  C_20
    5  A    between atoms: O_16  and  C_24
                            x       y       z     vdW  Elec       q    Type
                         _______ _______ _______ _____ _____    ______ ____

>  <TORSDO>
F 5

$$$$
=
 OpenBabel11052414413D

 32 36  0  0  1  0  0  0  0  0999 V2000
  188.1230  177.8030  140.0120 O   0  0  0  0  0  0  0  0  0  0  0  0
  187.8260  178.0340  142.3610 C   0  0  0  0  0  0  0  0  0  0  0  0
  188.7530  177.1290  138.9180 C   0  0  2  0  0  3  0  0  0  0  0  0
  188.6240  177.7460  141.3200 C   0  0  0  0  0  0  0  0  0  0  0  0
  188.3240  177.9460  143.7180 N   0  0  0  0  0  0  0  0  0  0  0  0
  183.1900  178.5540  144.1850 C   0  0  0  0  0  2  0  0  0  0  0  0
  186.4190  178.5030  142.1070 C   0  0  0  0  0  2  0  0  0  0  0  0
  185.1300  178.3080  145.7380 C   0  0  0  0  0  2  0  0  0  0  0  0
  186.0990  178.5780  144.5900 C   0  0  1  0  0  3  0  0  0  0  0  0
  190.0890  177.4290  141.5290 C   0  0  1  0  0  3  0  0  0  0  0  0
  187.3720  177.7780  144.8230 C   0  0  0  0  0  2  0  0  0  0  0  0
  190.3610  176.8540  142.9120 C   0  0  0  0  0  2  0  0  0  0  0  0
  190.6090  176.4980  140.4450 C   0  0  0  0  0  2  0  0  0  0  0  0
  185.4820  178.1470  143.2530 C   0  0  1  0  0  3  0  0  0  0  0  0
  189.7760  177.8070  143.9430 C   0  0  2  0  0  3  0  0  0  0  0  0
  190.2710  177.0750  139.0790 C   0  0  0  0  0  2  0  0  0  0  0  0
  183.8060  179.0240  145.4980 C   0  0  0  0  0  2  0  0  0  0  0  0
  184.1420  178.8440  143.0290 C   0  0  0  0  0  2  0  0  0  0  0  0
  190.1380  177.3240  145.3440 C   0  0  0  0  0  2  0  0  0  0  0  0
  191.5300  176.7230  145.3450 C   0  0  0  0  0  1  0  0  0  0  0  0
  188.3750  177.7820  137.5930 C   0  0  1  0  0  3  0  0  0  0  0  0
  189.0660  179.1270  137.4670 C   0  0  0  0  0  1  0  0  0  0  0  0
  188.7440  176.9630  136.5190 O   0  0  0  0  0  0  0  0  0  0  0  0
  188.5520  174.5930  135.8750 C   0  0  2  0  0  0  0  0  0  0  0  0
  185.2910  174.6570  134.5970 O   0  0  0  0  0  0  0  0  0  0  0  0
  189.6920  174.9790  134.9410 C   0  0  0  0  0  1  0  0  0  0  0  0
  186.5620  176.0470  136.1050 C   0  0  0  0  0  2  0  0  0  0  0  0
  187.4770  174.0890  135.1030 O   0  0  0  0  0  0  0  0  0  0  0  0
  187.9690  175.8050  136.6540 C   0  0  2  0  0  3  0  0  0  0  0  0
  186.3630  174.8920  135.2110 C   0  0  0  0  0  0  0  0  0  0  0  0
  189.0500  173.5240  136.8400 C   0  0  0  0  0  2  0  0  0  0  0  0
  190.1300  173.9950  137.5910 O   0  0  0  0  0  1  0  0  0  0  0  0
  1  4  1  0  0  0  0
  2  5  1  0  0  0  0
  3 21  1  6  0  0  0
  3 16  1  0  0  0  0
  3  1  1  0  0  0  0
  4 10  1  0  0  0  0
  4  2  2  0  0  0  0
  5 15  1  0  0  0  0
  5 11  1  0  0  0  0
  6 17  1  0  0  0  0
  7  2  1  0  0  0  0
  9 11  1  1  0  0  0
  9  8  1  0  0  0  0
 10 13  1  6  0  0  0
 10 12  1  0  0  0  0
 12 15  1  0  0  0  0
 14  7  1  6  0  0  0
 14  9  1  0  0  0  0
 15 19  1  1  0  0  0
 16 13  1  0  0  0  0
 17  8  1  0  0  0  0
 18 14  1  0  0  0  0
 18  6  1  0  0  0  0
 19 20  1  0  0  0  0
 21 22  1  6  0  0  0
 23 21  1  0  0  0  0
 24 26  1  6  0  0  0
 24 29  1  0  0  0  0
 24 31  1  0  0  0  0
 25 30  2  0  0  0  0
 27 29  1  0  0  0  0
 28 30  1  0  0  0  0
 28 24  1  0  0  0  0
 29 23  1  6  0  0  0
 30 27  1  0  0  0  0
 31 32  1  0  0  0  0
M  END
>  <MODEL>
8

>  <REMARK>
 VINA RESULT:      -8.9      1.673      3.192
  Name = 
  5 active torsions:
  status: ('A' for Active; 'I' for Inactive)
    1  A    between atoms: C_3  and  C_22
    2  A    between atoms: C_4  and  C_24
    3  A    between atoms: C_13  and  C_29
    4  A    between atoms: O_16  and  C_20
    5  A    between atoms: O_16  and  C_24
                            x       y       z     vdW  Elec       q    Type
                         _______ _______ _______ _____ _____    ______ ____

>  <TORSDO>
F 5

$$$$
=
 OpenBabel11052414413D

 32 36  0  0  1  0  0  0  0  0999 V2000
  185.0380  178.2380  142.8960 O   0  0  0  0  0  0  0  0  0  0  0  0
  187.3470  177.6840  143.0510 C   0  0  0  0  0  0  0  0  0  0  0  0
  183.9100  178.9410  143.4250 C   0  0  2  0  0  3  0  0  0  0  0  0
  186.1840  177.9730  143.6590 C   0  0  0  0  0  0  0  0  0  0  0  0
  188.5450  177.4420  143.8280 N   0  0  0  0  0  0  0  0  0  0  0  0
  190.1630  177.8280  138.9100 C   0  0  0  0  0  2  0  0  0  0  0  0
  187.3870  177.5620  141.5520 C   0  0  0  0  0  2  0  0  0  0  0  0
  191.2200  177.4090  141.1340 C   0  0  0  0  0  2  0  0  0  0  0  0
  189.8490  177.1420  141.7490 C   0  0  1  0  0  3  0  0  0  0  0  0
  186.0700  177.9440  145.1670 C   0  0  1  0  0  3  0  0  0  0  0  0
  189.8580  177.6140  143.1950 C   0  0  0  0  0  2  0  0  0  0  0  0
  187.4030  178.2120  145.8510 C   0  0  0  0  0  2  0  0  0  0  0  0
  185.0070  178.9160  145.6550 C   0  0  0  0  0  2  0  0  0  0  0  0
  188.7590  177.9060  140.9870 C   0  0  1  0  0  3  0  0  0  0  0  0
  188.4280  177.2410  145.2850 C   0  0  2  0  0  3  0  0  0  0  0  0
  183.7050  178.6560  144.9110 C   0  0  0  0  0  2  0  0  0  0  0  0
  191.2260  177.0290  139.6570 C   0  0  0  0  0  2  0  0  0  0  0  0
  188.7860  177.5450  139.5030 C   0  0  0  0  0  2  0  0  0  0  0  0
  189.7460  177.4000  146.0360 C   0  0  0  0  0  2  0  0  0  0  0  0
  189.6110  176.8600  147.4460 C   0  0  0  0  0  1  0  0  0  0  0  0
  182.6490  178.6090  142.6350 C   0  0  1  0  0  3  0  0  0  0  0  0
  181.4270  179.1000  143.3870 C   0  0  0  0  0  1  0  0  0  0  0  0
  182.6920  179.2060  141.3690 O   0  0  0  0  0  0  0  0  0  0  0  0
  183.2490  178.5960  139.0480 C   0  0  2  0  0  0  0  0  0  0  0  0
  180.3080  176.8720  138.2370 O   0  0  0  0  0  0  0  0  0  0  0  0
  183.2570  180.1100  138.8810 C   0  0  0  0  0  1  0  0  0  0  0  0
  181.4250  177.4740  140.2910 C   0  0  0  0  0  2  0  0  0  0  0  0
  182.3040  178.0410  138.1500 O   0  0  0  0  0  0  0  0  0  0  0  0
  182.7890  178.1440  140.4620 C   0  0  2  0  0  3  0  0  0  0  0  0
  181.2760  177.4200  138.8250 C   0  0  0  0  0  0  0  0  0  0  0  0
  184.6420  178.0610  138.7410 C   0  0  0  0  0  2  0  0  0  0  0  0
  185.5490  179.1080  138.5600 O   0  0  0  0  0  1  0  0  0  0  0  0
  1  3  1  0  0  0  0
  1  4  1  0  0  0  0
  2  4  2  0  0  0  0
  2  5  1  0  0  0  0
  3 21  1  6  0  0  0
  3 16  1  0  0  0  0
  4 10  1  0  0  0  0
  5 15  1  0  0  0  0
  6 18  1  0  0  0  0
  6 17  1  0  0  0  0
  7  2  1  0  0  0  0
  9  8  1  6  0  0  0
  9 11  1  0  0  0  0
 10 13  1  1  0  0  0
 10 12  1  0  0  0  0
 11  5  1  0  0  0  0
 14 18  1  6  0  0  0
 14  7  1  0  0  0  0
 14  9  1  0  0  0  0
 15 12  1  0  0  0  0
 15 19  1  1  0  0  0
 16 13  1  0  0  0  0
 17  8  1  0  0  0  0
 19 20  1  0  0  0  0
 21 22  1  1  0  0  0
 23 21  1  0  0  0  0
 24 26  1  6  0  0  0
 24 29  1  0  0  0  0
 25 30  2  0  0  0  0
 27 29  1  0  0  0  0
 28 30  1  0  0  0  0
 28 24  1  0  0  0  0
 29 23  1  1  0  0  0
 30 27  1  0  0  0  0
 31 24  1  0  0  0  0
 32 31  1  0  0  0  0
M  END
>  <MODEL>
9

>  <REMARK>
 VINA RESULT:      -8.9      2.869      6.497
  Name = 
  5 active torsions:
  status: ('A' for Active; 'I' for Inactive)
    1  A    between atoms: C_3  and  C_22
    2  A    between atoms: C_4  and  C_24
    3  A    between atoms: C_13  and  C_29
    4  A    between atoms: O_16  and  C_20
    5  A    between atoms: O_16  and  C_24
                            x       y       z     vdW  Elec       q    Type
                         _______ _______ _______ _____ _____    ______ ____

>  <TORSDO>
F 5

$$$$
