=
 OpenBabel11052416033D

 34 39  0  0  1  0  0  0  0  0999 V2000
  188.1950  178.4480  141.5570 C   0  0  1  0  0  3  0  0  0  0  0  0
  187.2270  177.0840  143.5300 C   0  0  1  0  0  3  0  0  0  0  0  0
  185.7510  178.7330  142.3790 C   0  0  2  0  0  3  0  0  0  0  0  0
  187.7940  178.1020  139.3260 C   0  0  1  0  0  0  0  0  0  0  0  0
  188.8170  178.1820  140.3080 O   0  0  0  0  0  0  0  0  0  0  0  0
  186.4660  178.0670  140.0660 C   0  0  2  0  0  3  0  0  0  0  0  0
  185.2050  179.8820  139.0780 O   0  0  0  0  0  1  0  0  0  0  0  0
  185.1920  178.5110  139.3560 C   0  0  2  0  0  3  0  0  0  0  0  0
  187.8590  179.2410  138.5170 O   0  0  0  0  0  1  0  0  0  0  0  0
  184.3420  179.0920  141.8920 C   0  0  0  0  0  2  0  0  0  0  0  0
  186.7730  178.8910  141.2580 C   0  0  2  0  0  3  0  0  0  0  0  0
  183.7790  178.1070  140.4430 S   0  0  0  0  0  0  0  0  0  0  0  0
  187.6100  177.9760  144.7170 C   0  0  0  0  0  2  0  0  0  0  0  0
  189.1250  177.8930  144.9280 C   0  0  2  0  0  3  0  0  0  0  0  0
  189.8320  177.2410  143.3900 P   0  0  2  0  0  0  0  0  0  0  0  0
  185.8160  177.3550  143.0170 C   0  0  0  0  0  2  0  0  0  0  0  0
  190.8380  178.2060  142.8030 O   0  0  0  0  0  0  0  0  0  0  0  0
  188.3000  177.1820  142.4390 C   0  0  2  0  0  3  0  0  0  0  0  0
  188.0480  177.1690  137.0270 N   0  0  0  0  0  0  0  0  0  0  0  0
  189.1350  175.9600  138.9820 C   0  0  0  0  0  2  0  0  0  0  0  0
  191.0910  175.8040  135.5800 C   0  0  1  0  0  3  0  0  0  0  0  0
  190.5840  174.4970  136.1790 C   0  0  0  0  0  2  0  0  0  0  0  0
  188.6030  176.0630  136.2480 C   0  0  0  0  0  2  0  0  0  0  0  0
  190.3930  176.1100  138.1320 C   0  0  0  0  0  2  0  0  0  0  0  0
  190.0370  175.8130  136.6800 C   0  0  2  0  0  0  0  0  0  0  0  0
  187.9630  176.8330  138.4670 C   0  0  1  0  0  3  0  0  0  0  0  0
  186.7810  177.3370  136.5800 O   0  0  0  0  0  1  0  0  0  0  0  0
  192.4890  176.0900  136.1000 C   0  0  0  0  0  2  0  0  0  0  0  0
  193.6470  176.1500  134.7010 S   0  0  0  0  0  1  0  0  0  0  0  0
  189.5300  177.0800  146.1630 C   0  0  0  0  0  3  0  0  0  0  0  0
  188.5880  177.2670  147.3440 C   0  0  0  0  0  1  0  0  0  0  0  0
  190.9430  177.4330  146.5820 C   0  0  0  0  0  1  0  0  0  0  0  0
  191.8590  175.4640  143.7220 C   0  0  0  0  0  2  0  0  0  0  0  0
  190.5480  175.6090  143.5740 C   0  0  0  0  0  3  0  0  0  0  0  0
  1  5  1  6  0  0  0
  1 18  1  0  0  0  0
  2 16  1  6  0  0  0
  2 13  1  0  0  0  0
  3 10  1  6  0  0  0
  3 16  1  0  0  0  0
  4  9  1  6  0  0  0
  4  6  1  0  0  0  0
  4  5  1  0  0  0  0
  6 11  1  0  0  0  0
  7  8  1  0  0  0  0
  8  6  1  0  0  0  0
  8 12  1  0  0  0  0
 11  1  1  0  0  0  0
 11  3  1  0  0  0  0
 12 10  1  0  0  0  0
 13 14  1  0  0  0  0
 14 30  1  0  0  0  0
 15 34  1  0  0  0  0
 15 14  1  0  0  0  0
 17 15  2  0  0  0  0
 18 15  1  0  0  0  0
 18  2  1  0  0  0  0
 19 26  1  0  0  0  0
 21 28  1  0  0  0  0
 21 22  1  0  0  0  0
 21 25  1  0  0  0  0
 22 25  1  0  0  0  0
 23 25  1  0  0  0  0
 23 19  1  0  0  0  0
 24 20  1  0  0  0  0
 25 24  1  0  0  0  0
 26 20  1  0  0  0  0
 26  4  1  0  0  0  0
 27 19  1  0  0  0  0
 29 28  1  0  0  0  0
 30 32  1  0  0  0  0
 30 31  1  0  0  0  0
 34 33  2  0  0  0  0
M  END
>  <MODEL>
1

>  <REMARK>
 VINA RESULT:      -6.6      0.000      0.000
  Name = 
  4 active torsions:
  status: ('A' for Active; 'I' for Inactive)
    1  A    between atoms: C_3  and  C_25
    2  A    between atoms: C_7  and  C_11
    3  A    between atoms: C_8  and  C_30
    4  A    between atoms: P_27  and  C_29
                            x       y       z     vdW  Elec       q    Type
                         _______ _______ _______ _____ _____    ______ ____

>  <TORSDO>
F 4

$$$$
=
 OpenBabel11052416033D

 34 39  0  0  1  0  0  0  0  0999 V2000
  187.7310  178.6770  141.5770 C   0  0  1  0  0  3  0  0  0  0  0  0
  189.0960  176.4790  141.5750 C   0  0  1  0  0  3  0  0  0  0  0  0
  188.6980  177.6380  143.7480 C   0  0  2  0  0  3  0  0  0  0  0  0
  185.5500  178.9330  142.2330 C   0  0  1  0  0  0  0  0  0  0  0  0
  186.4480  179.1110  141.1480 O   0  0  0  0  0  0  0  0  0  0  0  0
  186.2770  178.1130  143.2870 C   0  0  2  0  0  3  0  0  0  0  0  0
  186.0830  179.4500  145.2960 O   0  0  0  0  0  1  0  0  0  0  0  0
  185.8340  178.1890  144.7440 C   0  0  2  0  0  3  0  0  0  0  0  0
  185.2180  180.1890  142.7520 O   0  0  0  0  0  1  0  0  0  0  0  0
  188.4370  177.5130  145.2540 C   0  0  0  0  0  2  0  0  0  0  0  0
  187.6750  178.5580  143.0910 C   0  0  2  0  0  3  0  0  0  0  0  0
  186.7510  176.9070  145.6720 S   0  0  0  0  0  0  0  0  0  0  0  0
  190.5120  177.0160  141.3360 C   0  0  0  0  0  2  0  0  0  0  0  0
  190.6160  177.5080  139.8900 C   0  0  2  0  0  3  0  0  0  0  0  0
  188.9180  177.7420  139.2940 P   0  0  2  0  0  0  0  0  0  0  0  0
  188.7770  176.2880  143.0550 C   0  0  0  0  0  2  0  0  0  0  0  0
  188.6910  179.1700  138.8510 O   0  0  0  0  0  0  0  0  0  0  0  0
  188.0770  177.3600  140.8430 C   0  0  2  0  0  3  0  0  0  0  0  0
  183.0560  178.8690  142.2790 N   0  0  0  0  0  0  0  0  0  0  0  0
  184.2810  177.9840  140.2340 C   0  0  0  0  0  2  0  0  0  0  0  0
  180.8290  179.7210  139.5340 C   0  0  1  0  0  3  0  0  0  0  0  0
  180.9760  178.2450  139.1850 C   0  0  0  0  0  2  0  0  0  0  0  0
  181.8650  178.4530  141.5400 C   0  0  0  0  0  2  0  0  0  0  0  0
  183.3860  178.9780  139.5000 C   0  0  0  0  0  2  0  0  0  0  0  0
  181.9850  178.9030  140.0950 C   0  0  2  0  0  0  0  0  0  0  0  0
  184.2750  178.2000  141.7690 C   0  0  1  0  0  3  0  0  0  0  0  0
  182.8700  178.4450  143.5510 O   0  0  0  0  0  1  0  0  0  0  0  0
  181.2310  180.5660  138.3370 C   0  0  0  0  0  2  0  0  0  0  0  0
  180.1630  182.0340  138.2570 S   0  0  0  0  0  1  0  0  0  0  0  0
  191.4450  176.5880  138.9850 C   0  0  0  0  0  3  0  0  0  0  0  0
  192.9430  176.6990  139.2230 C   0  0  0  0  0  1  0  0  0  0  0  0
  191.1410  176.8740  137.5280 C   0  0  0  0  0  1  0  0  0  0  0  0
  187.3040  176.7370  137.3550 C   0  0  0  0  0  2  0  0  0  0  0  0
  188.4550  176.5920  138.0000 C   0  0  0  0  0  3  0  0  0  0  0  0
  1  5  1  6  0  0  0
  1 11  1  0  0  0  0
  2 13  1  1  0  0  0
  2 16  1  0  0  0  0
  3 16  1  6  0  0  0
  3 10  1  0  0  0  0
  4  9  1  1  0  0  0
  4  6  1  0  0  0  0
  5  4  1  0  0  0  0
  6  8  1  0  0  0  0
  8  7  1  0  0  0  0
  8 12  1  0  0  0  0
 10 12  1  0  0  0  0
 11  6  1  0  0  0  0
 11  3  1  0  0  0  0
 14 13  1  0  0  0  0
 15 14  1  0  0  0  0
 15 18  1  0  0  0  0
 17 15  2  0  0  0  0
 18  2  1  0  0  0  0
 18  1  1  0  0  0  0
 19 27  1  0  0  0  0
 20 26  1  0  0  0  0
 21 25  1  0  0  0  0
 22 21  1  0  0  0  0
 22 25  1  0  0  0  0
 23 19  1  0  0  0  0
 24 25  1  0  0  0  0
 24 20  1  0  0  0  0
 25 23  1  0  0  0  0
 26  4  1  0  0  0  0
 26 19  1  0  0  0  0
 28 21  1  0  0  0  0
 29 28  1  0  0  0  0
 30 31  1  0  0  0  0
 30 14  1  0  0  0  0
 32 30  1  0  0  0  0
 33 34  2  0  0  0  0
 34 15  1  0  0  0  0
M  END
>  <MODEL>
2

>  <REMARK>
 VINA RESULT:      -6.3      3.394      7.017
  Name = 
  4 active torsions:
  status: ('A' for Active; 'I' for Inactive)
    1  A    between atoms: C_3  and  C_25
    2  A    between atoms: C_7  and  C_11
    3  A    between atoms: C_8  and  C_30
    4  A    between atoms: P_27  and  C_29
                            x       y       z     vdW  Elec       q    Type
                         _______ _______ _______ _____ _____    ______ ____

>  <TORSDO>
F 4

$$$$
=
 OpenBabel11052416033D

 34 39  0  0  1  0  0  0  0  0999 V2000
  185.2950  177.5030  143.2480 C   0  0  1  0  0  3  0  0  0  0  0  0
  184.0650  179.7420  143.6550 C   0  0  1  0  0  3  0  0  0  0  0  0
  185.0250  178.5330  145.6140 C   0  0  2  0  0  3  0  0  0  0  0  0
  187.5630  177.1670  143.2510 C   0  0  1  0  0  0  0  0  0  0  0  0
  186.3860  177.0370  142.4670 O   0  0  0  0  0  0  0  0  0  0  0  0
  187.1960  177.9910  144.4750 C   0  0  2  0  0  3  0  0  0  0  0  0
  187.9080  176.6130  146.3340 O   0  0  0  0  0  1  0  0  0  0  0  0
  188.0340  177.8750  145.7450 C   0  0  2  0  0  3  0  0  0  0  0  0
  187.9840  175.8930  143.6430 O   0  0  0  0  0  1  0  0  0  0  0  0
  185.7090  178.6220  146.9830 C   0  0  0  0  0  2  0  0  0  0  0  0
  185.7850  177.5930  144.6840 C   0  0  2  0  0  3  0  0  0  0  0  0
  187.4650  179.1680  146.9060 S   0  0  0  0  0  0  0  0  0  0  0  0
  182.6210  179.2540  143.8270 C   0  0  0  0  0  2  0  0  0  0  0  0
  182.0910  178.7910  142.4660 C   0  0  2  0  0  3  0  0  0  0  0  0
  183.5390  178.5150  141.4080 P   0  0  2  0  0  0  0  0  0  0  0  0
  184.7980  179.8970  144.9830 C   0  0  0  0  0  2  0  0  0  0  0  0
  183.5800  177.0890  140.9070 O   0  0  0  0  0  0  0  0  0  0  0  0
  184.8010  178.8430  142.6540 C   0  0  2  0  0  3  0  0  0  0  0  0
  189.9330  177.0840  142.4770 N   0  0  0  0  0  0  0  0  0  0  0  0
  188.1930  178.2320  141.0210 C   0  0  0  0  0  2  0  0  0  0  0  0
  191.0710  176.3780  139.0980 C   0  0  1  0  0  3  0  0  0  0  0  0
  190.9470  177.8870  138.9250 C   0  0  0  0  0  2  0  0  0  0  0  0
  190.8530  177.5010  141.4200 C   0  0  0  0  0  2  0  0  0  0  0  0
  188.7140  177.2650  139.9620 C   0  0  0  0  0  2  0  0  0  0  0  0
  190.2330  177.2020  140.0660 C   0  0  2  0  0  0  0  0  0  0  0  0
  188.6770  177.8680  142.4480 C   0  0  1  0  0  3  0  0  0  0  0  0
  190.5560  177.3710  143.6450 O   0  0  0  0  0  1  0  0  0  0  0  0
  190.2340  175.6780  138.0420 C   0  0  0  0  0  2  0  0  0  0  0  0
  191.2520  174.4260  137.2040 S   0  0  0  0  0  1  0  0  0  0  0  0
  181.0720  179.7530  141.8430 C   0  0  0  0  0  3  0  0  0  0  0  0
  180.0550  180.2840  142.8440 C   0  0  0  0  0  1  0  0  0  0  0  0
  180.3480  179.0780  140.6950 C   0  0  0  0  0  1  0  0  0  0  0  0
  184.2430  179.3160  138.9100 C   0  0  0  0  0  2  0  0  0  0  0  0
  183.6530  179.6730  140.0450 C   0  0  0  0  0  3  0  0  0  0  0  0
  1  5  1  6  0  0  0
  1 11  1  0  0  0  0
  2 13  1  1  0  0  0
  2 16  1  0  0  0  0
  3 16  1  6  0  0  0
  3 10  1  0  0  0  0
  4  9  1  1  0  0  0
  4  6  1  0  0  0  0
  5  4  1  0  0  0  0
  6 11  1  0  0  0  0
  6  8  1  0  0  0  0
  8  7  1  0  0  0  0
  8 12  1  0  0  0  0
 11  3  1  0  0  0  0
 12 10  1  0  0  0  0
 14 13  1  0  0  0  0
 15 14  1  0  0  0  0
 15 18  1  0  0  0  0
 17 15  2  0  0  0  0
 18  1  1  0  0  0  0
 18  2  1  0  0  0  0
 19 27  1  0  0  0  0
 20 26  1  0  0  0  0
 21 25  1  0  0  0  0
 22 21  1  0  0  0  0
 22 25  1  0  0  0  0
 23 19  1  0  0  0  0
 24 25  1  0  0  0  0
 24 20  1  0  0  0  0
 25 23  1  0  0  0  0
 26 19  1  0  0  0  0
 26  4  1  0  0  0  0
 28 21  1  0  0  0  0
 29 28  1  0  0  0  0
 30 14  1  0  0  0  0
 30 31  1  0  0  0  0
 32 30  1  0  0  0  0
 33 34  2  0  0  0  0
 34 15  1  0  0  0  0
M  END
>  <MODEL>
3

>  <REMARK>
 VINA RESULT:      -5.4      3.152      6.219
  Name = 
  4 active torsions:
  status: ('A' for Active; 'I' for Inactive)
    1  A    between atoms: C_3  and  C_25
    2  A    between atoms: C_7  and  C_11
    3  A    between atoms: C_8  and  C_30
    4  A    between atoms: P_27  and  C_29
                            x       y       z     vdW  Elec       q    Type
                         _______ _______ _______ _____ _____    ______ ____

>  <TORSDO>
F 4

$$$$
=
 OpenBabel11052416033D

 34 39  0  0  1  0  0  0  0  0999 V2000
  186.2130  175.5440  135.5530 C   0  0  1  0  0  3  0  0  0  0  0  0
  185.5930  173.5020  137.0150 C   0  0  1  0  0  3  0  0  0  0  0  0
  187.8290  173.5460  135.9100 C   0  0  2  0  0  3  0  0  0  0  0  0
  187.6200  177.2600  136.1250 C   0  0  1  0  0  0  0  0  0  0  0  0
  186.2970  176.9530  135.7080 O   0  0  0  0  0  0  0  0  0  0  0  0
  188.2930  175.9450  136.4840 C   0  0  2  0  0  3  0  0  0  0  0  0
  190.3130  175.9470  135.1500 O   0  0  0  0  0  1  0  0  0  0  0  0
  189.8140  175.8400  136.4520 C   0  0  2  0  0  3  0  0  0  0  0  0
  188.2950  177.8670  135.0620 O   0  0  0  0  0  1  0  0  0  0  0  0
  189.3180  173.1890  135.9840 C   0  0  0  0  0  2  0  0  0  0  0  0
  187.6360  175.0130  135.5390 C   0  0  2  0  0  3  0  0  0  0  0  0
  190.2750  174.2220  137.1690 S   0  0  0  0  0  0  0  0  0  0  0  0
  184.8950  172.6060  135.9850 C   0  0  0  0  0  2  0  0  0  0  0  0
  183.5390  173.2240  135.6320 C   0  0  2  0  0  3  0  0  0  0  0  0
  183.6040  174.9610  136.1500 P   0  0  2  0  0  0  0  0  0  0  0  0
  187.0740  173.1750  137.1760 C   0  0  0  0  0  2  0  0  0  0  0  0
  183.3580  175.8860  134.9800 O   0  0  0  0  0  0  0  0  0  0  0  0
  185.3270  174.9750  136.6870 C   0  0  2  0  0  3  0  0  0  0  0  0
  186.8170  177.6200  138.4590 N   0  0  0  0  0  0  0  0  0  0  0  0
  189.0330  178.6380  137.7400 C   0  0  0  0  0  2  0  0  0  0  0  0
  188.8330  177.4570  141.4800 C   0  0  1  0  0  3  0  0  0  0  0  0
  189.0560  178.9380  141.2050 C   0  0  0  0  0  2  0  0  0  0  0  0
  187.1140  178.2820  139.7290 C   0  0  0  0  0  2  0  0  0  0  0  0
  189.5610  177.8780  138.9530 C   0  0  0  0  0  2  0  0  0  0  0  0
  188.5670  178.0360  140.0970 C   0  0  2  0  0  0  0  0  0  0  0  0
  187.5990  178.2030  137.3450 C   0  0  1  0  0  3  0  0  0  0  0  0
  185.5110  177.8740  138.2060 O   0  0  0  0  0  1  0  0  0  0  0  0
  190.1750  176.7520  141.5750 C   0  0  0  0  0  2  0  0  0  0  0  0
  190.3380  175.9950  143.2190 S   0  0  0  0  0  1  0  0  0  0  0  0
  182.3450  172.4680  136.2270 C   0  0  0  0  0  3  0  0  0  0  0  0
  182.7250  171.1290  136.8430 C   0  0  0  0  0  1  0  0  0  0  0  0
  181.2790  172.2560  135.1710 C   0  0  0  0  0  1  0  0  0  0  0  0
  182.9790  175.5860  138.7190 C   0  0  0  0  0  2  0  0  0  0  0  0
  182.4970  175.3400  137.5070 C   0  0  0  0  0  3  0  0  0  0  0  0
  1  5  1  1  0  0  0
  1 18  1  0  0  0  0
  2 13  1  6  0  0  0
  2 16  1  0  0  0  0
  3 10  1  1  0  0  0
  3 16  1  0  0  0  0
  4  9  1  6  0  0  0
  4  6  1  0  0  0  0
  4 26  1  0  0  0  0
  5  4  1  0  0  0  0
  7  8  1  0  0  0  0
  8  6  1  0  0  0  0
  8 12  1  0  0  0  0
 10 12  1  0  0  0  0
 11  1  1  0  0  0  0
 11  3  1  0  0  0  0
 11  6  1  0  0  0  0
 14 13  1  0  0  0  0
 14 15  1  0  0  0  0
 14 30  1  0  0  0  0
 15 18  1  0  0  0  0
 15 34  1  0  0  0  0
 17 15  2  0  0  0  0
 18  2  1  0  0  0  0
 19 23  1  0  0  0  0
 20 24  1  0  0  0  0
 21 28  1  0  0  0  0
 22 21  1  0  0  0  0
 23 25  1  0  0  0  0
 24 25  1  0  0  0  0
 25 22  1  0  0  0  0
 25 21  1  0  0  0  0
 26 20  1  0  0  0  0
 26 19  1  0  0  0  0
 27 19  1  0  0  0  0
 28 29  1  0  0  0  0
 30 31  1  0  0  0  0
 32 30  1  0  0  0  0
 34 33  2  0  0  0  0
M  END
>  <MODEL>
4

>  <REMARK>
 VINA RESULT:      -5.3      4.118      8.066
  Name = 
  4 active torsions:
  status: ('A' for Active; 'I' for Inactive)
    1  A    between atoms: C_3  and  C_25
    2  A    between atoms: C_7  and  C_11
    3  A    between atoms: C_8  and  C_30
    4  A    between atoms: P_27  and  C_29
                            x       y       z     vdW  Elec       q    Type
                         _______ _______ _______ _____ _____    ______ ____

>  <TORSDO>
F 4

$$$$
=
 OpenBabel11052416033D

 34 39  0  0  1  0  0  0  0  0999 V2000
  185.4100  179.1260  141.0250 C   0  0  1  0  0  3  0  0  0  0  0  0
  183.2180  177.7660  141.2200 C   0  0  1  0  0  3  0  0  0  0  0  0
  184.0400  178.3890  138.9490 C   0  0  2  0  0  3  0  0  0  0  0  0
  187.4670  178.3260  140.4100 C   0  0  1  0  0  0  0  0  0  0  0  0
  186.7610  178.9970  141.4430 O   0  0  0  0  0  0  0  0  0  0  0  0
  186.4330  177.7990  139.4290 C   0  0  2  0  0  3  0  0  0  0  0  0
  187.1530  178.6890  137.2960 O   0  0  0  0  0  1  0  0  0  0  0  0
  186.8340  177.5140  137.9850 C   0  0  2  0  0  3  0  0  0  0  0  0
  188.3070  179.2440  139.7710 O   0  0  0  0  0  1  0  0  0  0  0  0
  184.1890  178.0000  137.4740 C   0  0  0  0  0  2  0  0  0  0  0  0
  185.3770  178.8320  139.5350 C   0  0  2  0  0  3  0  0  0  0  0  0
  185.4280  176.6730  137.1730 S   0  0  0  0  0  0  0  0  0  0  0  0
  182.1870  178.8930  141.3590 C   0  0  0  0  0  2  0  0  0  0  0  0
  182.3400  179.5340  142.7410 C   0  0  2  0  0  3  0  0  0  0  0  0
  183.9790  179.0620  143.3590 P   0  0  2  0  0  0  0  0  0  0  0  0
  183.3890  177.2950  139.7800 C   0  0  0  0  0  2  0  0  0  0  0  0
  184.8200  180.2840  143.6540 O   0  0  0  0  0  0  0  0  0  0  0  0
  184.5350  178.1830  141.8850 C   0  0  2  0  0  3  0  0  0  0  0  0
  189.7360  177.3210  140.6670 N   0  0  0  0  0  0  0  0  0  0  0  0
  188.0080  176.9610  142.4970 C   0  0  0  0  0  2  0  0  0  0  0  0
  191.7330  177.2560  143.7040 C   0  0  1  0  0  3  0  0  0  0  0  0
  190.9970  175.9460  143.9540 C   0  0  0  0  0  2  0  0  0  0  0  0
  190.5750  176.4820  141.5220 C   0  0  0  0  0  2  0  0  0  0  0  0
  189.1040  177.5400  143.3860 C   0  0  0  0  0  2  0  0  0  0  0  0
  190.4400  176.9400  142.9640 C   0  0  2  0  0  0  0  0  0  0  0  0
  188.2990  177.1630  140.9880 C   0  0  1  0  0  3  0  0  0  0  0  0
  189.9170  176.8610  139.4060 O   0  0  0  0  0  1  0  0  0  0  0  0
  191.5230  178.1870  144.8850 C   0  0  0  0  0  2  0  0  0  0  0  0
  191.4300  179.9010  144.2880 S   0  0  0  0  0  1  0  0  0  0  0  0
  181.2090  179.1760  143.7140 C   0  0  0  0  0  3  0  0  0  0  0  0
  180.6310  177.7880  143.4820 C   0  0  0  0  0  1  0  0  0  0  0  0
  180.1010  180.2070  143.6320 C   0  0  0  0  0  1  0  0  0  0  0  0
  184.4770  178.3350  145.9280 C   0  0  0  0  0  2  0  0  0  0  0  0
  183.9150  177.9740  144.7810 C   0  0  0  0  0  3  0  0  0  0  0  0
  1  5  1  1  0  0  0
  1 18  1  0  0  0  0
  2 16  1  6  0  0  0
  2 13  1  0  0  0  0
  2 18  1  0  0  0  0
  3 10  1  6  0  0  0
  3 11  1  0  0  0  0
  3 16  1  0  0  0  0
  4  9  1  6  0  0  0
  4 26  1  0  0  0  0
  4  5  1  0  0  0  0
  6 11  1  0  0  0  0
  6  4  1  0  0  0  0
  7  8  1  0  0  0  0
  8  6  1  0  0  0  0
 11  1  1  0  0  0  0
 12 10  1  0  0  0  0
 12  8  1  0  0  0  0
 13 14  1  0  0  0  0
 14 15  1  0  0  0  0
 14 30  1  0  0  0  0
 15 17  2  0  0  0  0
 15 34  1  0  0  0  0
 18 15  1  0  0  0  0
 19 26  1  0  0  0  0
 19 23  1  0  0  0  0
 20 24  1  0  0  0  0
 21 22  1  0  0  0  0
 21 28  1  0  0  0  0
 23 25  1  0  0  0  0
 25 24  1  0  0  0  0
 25 21  1  0  0  0  0
 25 22  1  0  0  0  0
 26 20  1  0  0  0  0
 27 19  1  0  0  0  0
 29 28  1  0  0  0  0
 31 30  1  0  0  0  0
 32 30  1  0  0  0  0
 34 33  2  0  0  0  0
M  END
>  <MODEL>
5

>  <REMARK>
 VINA RESULT:      -5.0      3.204      5.967
  Name = 
  4 active torsions:
  status: ('A' for Active; 'I' for Inactive)
    1  A    between atoms: C_3  and  C_25
    2  A    between atoms: C_7  and  C_11
    3  A    between atoms: C_8  and  C_30
    4  A    between atoms: P_27  and  C_29
                            x       y       z     vdW  Elec       q    Type
                         _______ _______ _______ _____ _____    ______ ____

>  <TORSDO>
F 4

$$$$
=
 OpenBabel11052416033D

 34 39  0  0  1  0  0  0  0  0999 V2000
  187.4690  178.2960  138.3240 C   0  0  1  0  0  3  0  0  0  0  0  0
  189.1250  176.3660  138.7970 C   0  0  1  0  0  3  0  0  0  0  0  0
  188.7510  178.0800  140.5690 C   0  0  2  0  0  3  0  0  0  0  0  0
  185.3360  178.4990  139.1380 C   0  0  1  0  0  0  0  0  0  0  0  0
  186.1070  178.4360  137.9470 O   0  0  0  0  0  0  0  0  0  0  0  0
  186.2560  178.1240  140.2880 C   0  0  2  0  0  3  0  0  0  0  0  0
  186.0450  179.9800  141.8280 O   0  0  0  0  0  1  0  0  0  0  0  0
  185.9300  178.5910  141.7030 C   0  0  2  0  0  3  0  0  0  0  0  0
  184.8750  179.8090  139.3040 O   0  0  0  0  0  1  0  0  0  0  0  0
  188.6360  178.3930  142.0660 C   0  0  0  0  0  2  0  0  0  0  0  0
  187.5570  178.6390  139.8020 C   0  0  2  0  0  3  0  0  0  0  0  0
  187.0930  177.7620  142.8440 S   0  0  0  0  0  0  0  0  0  0  0  0
  190.4270  176.9560  138.2410 C   0  0  0  0  0  2  0  0  0  0  0  0
  190.3390  176.9920  136.7120 C   0  0  2  0  0  3  0  0  0  0  0  0
  188.5820  176.8460  136.2860 P   0  0  2  0  0  0  0  0  0  0  0  0
  188.9620  176.6000  140.2950 C   0  0  0  0  0  2  0  0  0  0  0  0
  188.1200  178.0370  135.4770 O   0  0  0  0  0  0  0  0  0  0  0  0
  187.9350  176.8640  137.9690 C   0  0  2  0  0  3  0  0  0  0  0  0
  182.8810  178.1940  139.4560 N   0  0  0  0  0  0  0  0  0  0  0  0
  184.0820  176.8150  137.6900 C   0  0  0  0  0  2  0  0  0  0  0  0
  180.3940  177.8510  136.8270 C   0  0  1  0  0  3  0  0  0  0  0  0
  180.7130  176.3660  136.9560 C   0  0  0  0  0  2  0  0  0  0  0  0
  181.7110  177.4340  139.0160 C   0  0  0  0  0  2  0  0  0  0  0  0
  183.0190  177.4110  136.7710 C   0  0  0  0  0  2  0  0  0  0  0  0
  181.6810  177.3900  137.4990 C   0  0  2  0  0  0  0  0  0  0  0  0
  184.1430  177.5250  139.0660 C   0  0  1  0  0  3  0  0  0  0  0  0
  182.8320  178.1970  140.8090 O   0  0  0  0  0  1  0  0  0  0  0  0
  180.6040  178.2890  135.3880 C   0  0  0  0  0  2  0  0  0  0  0  0
  180.6240  180.1050  135.3120 S   0  0  0  0  0  1  0  0  0  0  0  0
  191.2110  175.9370  136.0210 C   0  0  0  0  0  3  0  0  0  0  0  0
  192.5180  175.6620  136.7510 C   0  0  0  0  0  1  0  0  0  0  0  0
  191.5050  176.3530  134.5940 C   0  0  0  0  0  1  0  0  0  0  0  0
  187.2590  174.4980  135.9500 C   0  0  0  0  0  2  0  0  0  0  0  0
  188.1790  175.3130  135.4490 C   0  0  0  0  0  3  0  0  0  0  0  0
  1  5  1  1  0  0  0
  1 11  1  0  0  0  0
  2 13  1  6  0  0  0
  2 16  1  0  0  0  0
  3 16  1  1  0  0  0
  3 10  1  0  0  0  0
  4  9  1  1  0  0  0
  4  6  1  0  0  0  0
  5  4  1  0  0  0  0
  6  8  1  0  0  0  0
  8  7  1  0  0  0  0
  8 12  1  0  0  0  0
 10 12  1  0  0  0  0
 11  6  1  0  0  0  0
 11  3  1  0  0  0  0
 14 13  1  0  0  0  0
 15 14  1  0  0  0  0
 15 18  1  0  0  0  0
 17 15  2  0  0  0  0
 18  1  1  0  0  0  0
 18  2  1  0  0  0  0
 19 27  1  0  0  0  0
 20 26  1  0  0  0  0
 21 22  1  0  0  0  0
 21 25  1  0  0  0  0
 22 25  1  0  0  0  0
 23 19  1  0  0  0  0
 24 25  1  0  0  0  0
 24 20  1  0  0  0  0
 25 23  1  0  0  0  0
 26  4  1  0  0  0  0
 26 19  1  0  0  0  0
 28 21  1  0  0  0  0
 29 28  1  0  0  0  0
 30 14  1  0  0  0  0
 30 31  1  0  0  0  0
 32 30  1  0  0  0  0
 34 33  2  0  0  0  0
 34 15  1  0  0  0  0
M  END
>  <MODEL>
6

>  <REMARK>
 VINA RESULT:      -4.9      3.486      7.264
  Name = 
  4 active torsions:
  status: ('A' for Active; 'I' for Inactive)
    1  A    between atoms: C_3  and  C_25
    2  A    between atoms: C_7  and  C_11
    3  A    between atoms: C_8  and  C_30
    4  A    between atoms: P_27  and  C_29
                            x       y       z     vdW  Elec       q    Type
                         _______ _______ _______ _____ _____    ______ ____

>  <TORSDO>
F 4

$$$$
=
 OpenBabel11052416033D

 34 39  0  0  1  0  0  0  0  0999 V2000
  183.1820  175.1460  137.6920 C   0  0  1  0  0  3  0  0  0  0  0  0
  182.4210  174.2580  135.3840 C   0  0  1  0  0  3  0  0  0  0  0  0
  180.9440  175.8640  136.5940 C   0  0  2  0  0  3  0  0  0  0  0  0
  184.0520  177.2180  138.1420 C   0  0  1  0  0  0  0  0  0  0  0  0
  184.3070  175.8240  138.2310 O   0  0  0  0  0  0  0  0  0  0  0  0
  182.8170  177.3920  137.2730 C   0  0  2  0  0  3  0  0  0  0  0  0
  181.3290  178.7230  138.6410 O   0  0  0  0  0  1  0  0  0  0  0  0
  181.9720  178.6550  137.4010 C   0  0  2  0  0  3  0  0  0  0  0  0
  183.8030  177.7110  139.4270 O   0  0  0  0  0  1  0  0  0  0  0  0
  179.9570  177.0330  136.5080 C   0  0  0  0  0  2  0  0  0  0  0  0
  182.0570  176.1620  137.5930 C   0  0  2  0  0  3  0  0  0  0  0  0
  180.7360  178.6370  136.0540 S   0  0  0  0  0  0  0  0  0  0  0  0
  181.6780  172.9810  135.7930 C   0  0  0  0  0  2  0  0  0  0  0  0
  182.7030  171.9420  136.2600 C   0  0  2  0  0  3  0  0  0  0  0  0
  184.2310  172.8470  136.6350 P   0  0  2  0  0  0  0  0  0  0  0  0
  181.4920  175.4600  135.2360 C   0  0  0  0  0  2  0  0  0  0  0  0
  184.6480  172.6350  138.0720 O   0  0  0  0  0  0  0  0  0  0  0  0
  183.5910  174.5080  136.3420 C   0  0  2  0  0  3  0  0  0  0  0  0
  186.4760  177.7710  138.3360 N   0  0  0  0  0  0  0  0  0  0  0  0
  185.4320  177.5710  136.0260 C   0  0  0  0  0  2  0  0  0  0  0  0
  189.1680  176.3970  136.3160 C   0  0  1  0  0  3  0  0  0  0  0  0
  188.8530  177.5760  135.4030 C   0  0  0  0  0  2  0  0  0  0  0  0
  187.6840  178.1000  137.5800 C   0  0  0  0  0  2  0  0  0  0  0  0
  186.5590  176.5660  135.8100 C   0  0  0  0  0  2  0  0  0  0  0  0
  187.8360  177.1270  136.4250 C   0  0  2  0  0  0  0  0  0  0  0  0
  185.2550  177.9530  137.5180 C   0  0  1  0  0  3  0  0  0  0  0  0
  186.4170  178.6700  139.3480 O   0  0  0  0  0  1  0  0  0  0  0  0
  189.0700  175.1040  135.5250 C   0  0  0  0  0  2  0  0  0  0  0  0
  189.3000  173.6950  136.6490 S   0  0  0  0  0  1  0  0  0  0  0  0
  182.9170  170.7970  135.2630 C   0  0  0  0  0  3  0  0  0  0  0  0
  181.6290  170.3200  134.6080 C   0  0  0  0  0  1  0  0  0  0  0  0
  183.6020  169.6300  135.9450 C   0  0  0  0  0  1  0  0  0  0  0  0
  185.9780  173.3520  134.6170 C   0  0  0  0  0  2  0  0  0  0  0  0
  185.5770  172.4610  135.5170 C   0  0  0  0  0  3  0  0  0  0  0  0
  1  5  1  6  0  0  0
  2 16  1  1  0  0  0
  2 13  1  0  0  0  0
  2 18  1  0  0  0  0
  3 16  1  6  0  0  0
  3 11  1  0  0  0  0
  4  5  1  0  0  0  0
  4  9  1  1  0  0  0
  6  8  1  0  0  0  0
  6 11  1  0  0  0  0
  6  4  1  0  0  0  0
  8  7  1  0  0  0  0
 10  3  1  0  0  0  0
 11  1  1  0  0  0  0
 12 10  1  0  0  0  0
 12  8  1  0  0  0  0
 13 14  1  0  0  0  0
 14 15  1  0  0  0  0
 15 17  2  0  0  0  0
 18 15  1  0  0  0  0
 18  1  1  0  0  0  0
 19 27  1  0  0  0  0
 20 26  1  0  0  0  0
 21 25  1  0  0  0  0
 22 21  1  0  0  0  0
 22 25  1  0  0  0  0
 23 19  1  0  0  0  0
 24 20  1  0  0  0  0
 24 25  1  0  0  0  0
 25 23  1  0  0  0  0
 26  4  1  0  0  0  0
 26 19  1  0  0  0  0
 28 21  1  0  0  0  0
 28 29  1  0  0  0  0
 30 32  1  0  0  0  0
 30 14  1  0  0  0  0
 31 30  1  0  0  0  0
 33 34  2  0  0  0  0
 34 15  1  0  0  0  0
M  END
>  <MODEL>
7

>  <REMARK>
 VINA RESULT:      -4.8      5.171      7.928
  Name = 
  4 active torsions:
  status: ('A' for Active; 'I' for Inactive)
    1  A    between atoms: C_3  and  C_25
    2  A    between atoms: C_7  and  C_11
    3  A    between atoms: C_8  and  C_30
    4  A    between atoms: P_27  and  C_29
                            x       y       z     vdW  Elec       q    Type
                         _______ _______ _______ _____ _____    ______ ____

>  <TORSDO>
F 4

$$$$
=
 OpenBabel11052416033D

 34 39  0  0  1  0  0  0  0  0999 V2000
  186.7320  174.5720  137.3750 C   0  0  1  0  0  3  0  0  0  0  0  0
  188.6210  174.4080  135.6140 C   0  0  1  0  0  3  0  0  0  0  0  0
  187.3250  172.3510  136.1720 C   0  0  2  0  0  3  0  0  0  0  0  0
  184.4780  174.6220  136.9630 C   0  0  1  0  0  0  0  0  0  0  0  0
  185.5480  175.3320  137.5690 O   0  0  0  0  0  0  0  0  0  0  0  0
  185.0930  173.5010  136.1410 C   0  0  2  0  0  3  0  0  0  0  0  0
  183.9780  171.5100  136.9510 O   0  0  0  0  0  1  0  0  0  0  0  0
  184.2650  172.2640  135.8080 C   0  0  2  0  0  3  0  0  0  0  0  0
  183.6680  174.0860  137.9690 O   0  0  0  0  0  1  0  0  0  0  0  0
  186.7090  171.0360  135.6820 C   0  0  0  0  0  2  0  0  0  0  0  0
  186.3010  173.1830  136.9380 C   0  0  2  0  0  3  0  0  0  0  0  0
  185.2230  171.2580  134.6190 S   0  0  0  0  0  0  0  0  0  0  0  0
  189.8300  174.1130  136.5100 C   0  0  0  0  0  2  0  0  0  0  0  0
  190.1790  175.3790  137.3000 C   0  0  2  0  0  3  0  0  0  0  0  0
  188.7180  176.4530  137.2400 P   0  0  2  0  0  0  0  0  0  0  0  0
  187.9790  173.1440  135.0520 C   0  0  0  0  0  2  0  0  0  0  0  0
  188.2180  176.7650  138.6320 O   0  0  0  0  0  0  0  0  0  0  0  0
  187.6320  175.3140  136.3580 C   0  0  2  0  0  3  0  0  0  0  0  0
  182.1970  175.3420  136.2560 N   0  0  0  0  0  0  0  0  0  0  0  0
  184.0960  177.0320  136.2190 C   0  0  0  0  0  2  0  0  0  0  0  0
  180.5550  178.4650  137.1300 C   0  0  1  0  0  3  0  0  0  0  0  0
  181.2350  178.9770  135.8660 C   0  0  0  0  0  2  0  0  0  0  0  0
  181.4120  176.4600  135.7350 C   0  0  0  0  0  2  0  0  0  0  0  0
  183.1430  177.8400  137.0960 C   0  0  0  0  0  2  0  0  0  0  0  0
  181.7350  177.7150  136.5270 C   0  0  2  0  0  0  0  0  0  0  0  0
  183.6490  175.5570  136.0590 C   0  0  1  0  0  3  0  0  0  0  0  0
  181.8470  174.2660  135.5110 O   0  0  0  0  0  1  0  0  0  0  0  0
  180.9520  179.3400  138.3070 C   0  0  0  0  0  2  0  0  0  0  0  0
  180.5660  178.4710  139.8560 S   0  0  0  0  0  1  0  0  0  0  0  0
  191.4540  176.0770  136.8100 C   0  0  0  0  0  3  0  0  0  0  0  0
  192.2060  175.2850  135.7510 C   0  0  0  0  0  1  0  0  0  0  0  0
  192.3750  176.3640  137.9790 C   0  0  0  0  0  1  0  0  0  0  0  0
  189.0420  179.1310  136.9240 C   0  0  0  0  0  2  0  0  0  0  0  0
  188.9810  177.9580  136.3050 C   0  0  0  0  0  3  0  0  0  0  0  0
  1  5  1  6  0  0  0
  2 16  1  1  0  0  0
  2 18  1  0  0  0  0
  2 13  1  0  0  0  0
  3 16  1  6  0  0  0
  3 11  1  0  0  0  0
  4  5  1  0  0  0  0
  4  9  1  1  0  0  0
  6 11  1  0  0  0  0
  6  4  1  0  0  0  0
  8  6  1  0  0  0  0
  8  7  1  0  0  0  0
 10  3  1  0  0  0  0
 11  1  1  0  0  0  0
 12 10  1  0  0  0  0
 12  8  1  0  0  0  0
 13 14  1  0  0  0  0
 15 14  1  0  0  0  0
 15 17  2  0  0  0  0
 18 15  1  0  0  0  0
 18  1  1  0  0  0  0
 20 24  1  0  0  0  0
 21 28  1  0  0  0  0
 22 25  1  0  0  0  0
 22 21  1  0  0  0  0
 23 19  1  0  0  0  0
 23 25  1  0  0  0  0
 25 24  1  0  0  0  0
 25 21  1  0  0  0  0
 26 20  1  0  0  0  0
 26 19  1  0  0  0  0
 26  4  1  0  0  0  0
 27 19  1  0  0  0  0
 28 29  1  0  0  0  0
 30 14  1  0  0  0  0
 30 32  1  0  0  0  0
 31 30  1  0  0  0  0
 34 33  2  0  0  0  0
 34 15  1  0  0  0  0
M  END
>  <MODEL>
8

>  <REMARK>
 VINA RESULT:      -4.6      5.356      8.379
  Name = 
  4 active torsions:
  status: ('A' for Active; 'I' for Inactive)
    1  A    between atoms: C_3  and  C_25
    2  A    between atoms: C_7  and  C_11
    3  A    between atoms: C_8  and  C_30
    4  A    between atoms: P_27  and  C_29
                            x       y       z     vdW  Elec       q    Type
                         _______ _______ _______ _____ _____    ______ ____

>  <TORSDO>
F 4

$$$$
=
 OpenBabel11052416033D

 34 39  0  0  1  0  0  0  0  0999 V2000
  185.3890  179.2140  141.1500 C   0  0  1  0  0  3  0  0  0  0  0  0
  183.3430  177.6310  141.1330 C   0  0  1  0  0  3  0  0  0  0  0  0
  184.4780  178.1410  138.9710 C   0  0  2  0  0  3  0  0  0  0  0  0
  187.5910  178.6060  140.9650 C   0  0  1  0  0  0  0  0  0  0  0  0
  186.6540  179.2800  141.7920 O   0  0  0  0  0  0  0  0  0  0  0  0
  186.7990  177.8780  139.8910 C   0  0  2  0  0  3  0  0  0  0  0  0
  187.7840  178.6520  137.8190 O   0  0  0  0  0  1  0  0  0  0  0  0
  187.4690  177.5140  138.5700 C   0  0  2  0  0  3  0  0  0  0  0  0
  188.4320  179.5550  140.3750 O   0  0  0  0  0  1  0  0  0  0  0  0
  184.9170  177.6430  137.5890 C   0  0  0  0  0  2  0  0  0  0  0  0
  185.6430  178.7870  139.7140 C   0  0  2  0  0  3  0  0  0  0  0  0
  186.3150  176.4470  137.6360 S   0  0  0  0  0  0  0  0  0  0  0  0
  182.1970  178.6380  140.9810 C   0  0  0  0  0  2  0  0  0  0  0  0
  182.0440  179.4140  142.2940 C   0  0  2  0  0  3  0  0  0  0  0  0
  183.5910  179.1920  143.2150 P   0  0  2  0  0  0  0  0  0  0  0  0
  183.8060  177.0570  139.7980 C   0  0  0  0  0  2  0  0  0  0  0  0
  184.2430  180.5240  143.5090 O   0  0  0  0  0  0  0  0  0  0  0  0
  184.4780  178.2560  141.9530 C   0  0  2  0  0  3  0  0  0  0  0  0
  189.6370  178.2440  142.3460 N   0  0  0  0  0  0  0  0  0  0  0  0
  187.5470  176.8870  142.8480 C   0  0  0  0  0  2  0  0  0  0  0  0
  189.7540  177.8320  145.9560 C   0  0  1  0  0  3  0  0  0  0  0  0
  189.5780  176.3560  145.6200 C   0  0  0  0  0  2  0  0  0  0  0  0
  190.2110  177.4560  143.4360 C   0  0  0  0  0  2  0  0  0  0  0  0
  187.7430  177.4540  144.2520 C   0  0  0  0  0  2  0  0  0  0  0  0
  189.2280  177.4050  144.5920 C   0  0  2  0  0  0  0  0  0  0  0  0
  188.4230  177.6040  141.7900 C   0  0  1  0  0  3  0  0  0  0  0  0
  190.5700  178.2520  141.3640 O   0  0  0  0  0  1  0  0  0  0  0  0
  188.6500  178.2700  146.9030 C   0  0  0  0  0  2  0  0  0  0  0  0
  189.2820  178.2530  148.6070 S   0  0  0  0  0  1  0  0  0  0  0  0
  180.8050  179.0150  143.1040 C   0  0  0  0  0  3  0  0  0  0  0  0
  180.0640  177.8190  142.5230 C   0  0  0  0  0  1  0  0  0  0  0  0
  179.8560  180.1900  143.2230 C   0  0  0  0  0  1  0  0  0  0  0  0
  184.1790  178.4560  145.7630 C   0  0  0  0  0  2  0  0  0  0  0  0
  183.3930  178.2340  144.7160 C   0  0  0  0  0  3  0  0  0  0  0  0
  1  5  1  1  0  0  0
  1 18  1  0  0  0  0
  2 16  1  6  0  0  0
  2 18  1  0  0  0  0
  3 10  1  6  0  0  0
  3 11  1  0  0  0  0
  3 16  1  0  0  0  0
  4  9  1  6  0  0  0
  4 26  1  0  0  0  0
  4  5  1  0  0  0  0
  6  4  1  0  0  0  0
  7  8  1  0  0  0  0
  8  6  1  0  0  0  0
 10 12  1  0  0  0  0
 11  6  1  0  0  0  0
 11  1  1  0  0  0  0
 12  8  1  0  0  0  0
 13  2  1  0  0  0  0
 13 14  1  0  0  0  0
 14 30  1  0  0  0  0
 14 15  1  0  0  0  0
 15 17  2  0  0  0  0
 15 34  1  0  0  0  0
 18 15  1  0  0  0  0
 19 23  1  0  0  0  0
 20 24  1  0  0  0  0
 21 28  1  0  0  0  0
 22 21  1  0  0  0  0
 23 25  1  0  0  0  0
 24 25  1  0  0  0  0
 25 22  1  0  0  0  0
 25 21  1  0  0  0  0
 26 19  1  0  0  0  0
 26 20  1  0  0  0  0
 27 19  1  0  0  0  0
 28 29  1  0  0  0  0
 30 32  1  0  0  0  0
 31 30  1  0  0  0  0
 34 33  2  0  0  0  0
M  END
>  <MODEL>
9

>  <REMARK>
 VINA RESULT:      -4.5      3.152      6.924
  Name = 
  4 active torsions:
  status: ('A' for Active; 'I' for Inactive)
    1  A    between atoms: C_3  and  C_25
    2  A    between atoms: C_7  and  C_11
    3  A    between atoms: C_8  and  C_30
    4  A    between atoms: P_27  and  C_29
                            x       y       z     vdW  Elec       q    Type
                         _______ _______ _______ _____ _____    ______ ____

>  <TORSDO>
F 4

$$$$
