=
 OpenBabel11052414143D

 34 38  0  0  1  0  0  0  0  0999 V2000
  190.3320  177.0060  146.1070 C   0  0  0  0  0  0  0  0  0  0  0  0
  188.2950  177.6570  146.3490 C   0  0  0  0  0  0  0  0  0  0  0  0
  189.0450  177.2380  144.1390 C   0  0  0  0  0  0  0  0  0  0  0  0
  187.2430  177.6890  142.2850 C   0  0  2  0  0  3  0  0  0  0  0  0
  188.9080  177.5770  147.5900 C   0  0  0  0  0  0  0  0  0  0  0  0
  188.2770  177.8920  148.9000 C   0  0  0  0  0  1  0  0  0  0  0  0
  186.7330  177.9920  144.5580 C   0  0  0  0  0  0  0  0  0  0  0  0
  189.2120  177.2950  145.4650 N   0  0  0  0  0  0  0  0  0  0  0  0
  185.7730  178.1690  142.4450 C   0  0  0  0  0  2  0  0  0  0  0  0
  190.2060  177.1640  147.4460 N   0  0  0  0  0  0  0  0  0  0  0  0
  191.2930  176.5330  143.9700 C   0  0  0  0  0  3  0  0  0  0  0  0
  191.4510  176.6020  145.3800 C   0  0  0  0  0  3  0  0  0  0  0  0
  186.9360  178.0410  145.8970 C   0  0  0  0  0  3  0  0  0  0  0  0
  185.5360  178.3120  143.8830 N   0  0  0  0  0  0  0  0  0  0  0  0
  187.7520  177.6070  143.6450 N   0  0  0  0  0  0  0  0  0  0  0  0
  190.0980  176.8520  143.3660 N   0  0  0  0  0  0  0  0  0  0  0  0
  184.3940  179.0060  144.4630 C   0  0  0  0  0  2  0  0  0  0  0  0
  183.2420  179.0180  143.5090 C   0  0  0  0  0  3  0  0  0  0  0  0
  182.0000  178.8130  143.9400 C   0  0  0  0  0  3  0  0  0  0  0  0
  180.8590  178.8270  142.9780 C   0  0  0  0  0  2  0  0  0  0  0  0
  181.3000  179.2810  141.7040 O   0  0  0  0  0  0  0  0  0  0  0  0
  180.9710  178.6340  140.5080 C   0  0  0  0  0  0  0  0  0  0  0  0
  180.2750  179.2410  139.6530 O   0  0  0  0  0  0  0  0  0  0  0  0
  182.9670  177.2510  140.0920 C   0  0  0  0  0  1  0  0  0  0  0  0
  181.4560  177.2540  140.2040 C   0  0  0  0  0  2  0  0  0  0  0  0
  188.0320  178.7220  141.5000 C   0  0  0  0  0  2  0  0  0  0  0  0
  187.8310  178.5290  140.1060 O   0  0  0  0  0  0  0  0  0  0  0  0
  191.1000  176.6230  137.7200 C   0  0  0  0  0  3  0  0  0  0  0  0
  191.0130  176.8590  139.0280 C   0  0  0  0  0  3  0  0  0  0  0  0
  188.8640  178.1680  139.2370 C   0  0  0  0  0  0  0  0  0  0  0  0
  189.8150  177.3630  139.7300 C   0  0  0  0  0  3  0  0  0  0  0  0
  189.4060  178.1510  136.7860 C   0  0  0  0  0  3  0  0  0  0  0  0
  188.9010  178.7430  137.8680 C   0  0  0  0  0  3  0  0  0  0  0  0
  189.9400  176.7590  136.7910 C   0  0  0  0  0  2  0  0  0  0  0  0
  1 10  2  0  0  0  0
  2  5  2  0  0  0  0
  3  8  1  0  0  0  0
  4 26  1  6  0  0  0
  4  9  1  0  0  0  0
  4 15  1  0  0  0  0
  5  6  1  0  0  0  0
  7 13  2  0  0  0  0
  8  1  1  0  0  0  0
  8  2  1  0  0  0  0
  9 14  1  0  0  0  0
 10  5  1  0  0  0  0
 11 12  2  0  0  0  0
 12  1  1  0  0  0  0
 13  2  1  0  0  0  0
 14 17  1  0  0  0  0
 14  7  1  0  0  0  0
 15  3  1  0  0  0  0
 15  7  1  0  0  0  0
 16 11  1  0  0  0  0
 16  3  2  0  0  0  0
 18 19  2  0  0  0  0
 18 17  1  0  0  0  0
 20 19  1  0  0  0  0
 21 20  1  0  0  0  0
 22 21  1  0  0  0  0
 23 22  2  0  0  0  0
 24 25  1  0  0  0  0
 25 22  1  0  0  0  0
 27 26  1  0  0  0  0
 28 29  2  0  0  0  0
 29 31  1  0  0  0  0
 30 31  2  0  0  0  0
 30 27  1  0  0  0  0
 32 34  1  0  0  0  0
 32 33  2  0  0  0  0
 33 30  1  0  0  0  0
 34 28  1  0  0  0  0
M  END
>  <MODEL>
1

>  <REMARK>
 VINA RESULT:      -8.8      0.000      0.000
  Name = 
  9 active torsions:
  status: ('A' for Active; 'I' for Inactive)
    1  A    between atoms: C_3  and  C_17
    2  A    between atoms: C_5  and  C_26
    3  A    between atoms: C_12  and  O_28
    4  A    between atoms: C_13  and  C_33
    5  A    between atoms: C_14  and  C_20
    6  A    between atoms: C_17  and  N_29
    7  A    between atoms: C_20  and  O_34
    8  A    between atoms: C_26  and  O_28
    9  A    between atoms: C_33  and  O_34
                            x       y       z     vdW  Elec       q    Type
                         _______ _______ _______ _____ _____    ______ ____

>  <TORSDO>
F 9

$$$$
=
 OpenBabel11052414143D

 34 38  0  0  1  0  0  0  0  0999 V2000
  190.9010  177.2920  139.6190 C   0  0  0  0  0  0  0  0  0  0  0  0
  188.9960  177.6570  138.6840 C   0  0  0  0  0  0  0  0  0  0  0  0
  189.1250  177.9460  141.0340 C   0  0  0  0  0  0  0  0  0  0  0  0
  186.8580  178.6390  142.1610 C   0  0  2  0  0  3  0  0  0  0  0  0
  189.9220  177.2800  137.7230 C   0  0  0  0  0  0  0  0  0  0  0  0
  189.6610  177.1380  136.2650 C   0  0  0  0  0  1  0  0  0  0  0  0
  187.0010  178.3290  139.8370 C   0  0  0  0  0  0  0  0  0  0  0  0
  189.6460  177.6500  139.8380 N   0  0  0  0  0  0  0  0  0  0  0  0
  185.4750  178.8940  141.5000 C   0  0  0  0  0  2  0  0  0  0  0  0
  191.1370  177.0440  138.3080 N   0  0  0  0  0  0  0  0  0  0  0  0
  191.2500  177.5190  141.9730 C   0  0  0  0  0  3  0  0  0  0  0  0
  191.7840  177.2070  140.6940 C   0  0  0  0  0  3  0  0  0  0  0  0
  187.5600  178.0210  138.6400 C   0  0  0  0  0  3  0  0  0  0  0  0
  185.6590  178.7010  140.0590 N   0  0  0  0  0  0  0  0  0  0  0  0
  187.7370  178.2980  141.0530 N   0  0  0  0  0  0  0  0  0  0  0  0
  189.9320  177.8830  142.1290 N   0  0  0  0  0  0  0  0  0  0  0  0
  184.5690  178.5620  139.1030 C   0  0  0  0  0  2  0  0  0  0  0  0
  183.3820  179.3640  139.5330 C   0  0  0  0  0  3  0  0  0  0  0  0
  182.2080  178.7770  139.7490 C   0  0  0  0  0  3  0  0  0  0  0  0
  181.0310  179.5870  140.1780 C   0  0  0  0  0  2  0  0  0  0  0  0
  180.4280  179.0020  141.3270 O   0  0  0  0  0  0  0  0  0  0  0  0
  180.6100  179.5010  142.6210 C   0  0  0  0  0  0  0  0  0  0  0  0
  180.1990  180.6580  142.8960 O   0  0  0  0  0  0  0  0  0  0  0  0
  182.6930  179.0970  143.8730 C   0  0  0  0  0  1  0  0  0  0  0  0
  181.2470  178.6820  143.6960 C   0  0  0  0  0  2  0  0  0  0  0  0
  186.7550  177.4640  143.1170 C   0  0  0  0  0  2  0  0  0  0  0  0
  186.3600  177.9200  144.4050 O   0  0  0  0  0  0  0  0  0  0  0  0
  188.5730  177.6900  148.2860 C   0  0  0  0  0  3  0  0  0  0  0  0
  187.4070  178.2640  147.9910 C   0  0  0  0  0  3  0  0  0  0  0  0
  187.2410  177.9800  145.4870 C   0  0  0  0  0  0  0  0  0  0  0  0
  186.6980  178.1490  146.7010 C   0  0  0  0  0  3  0  0  0  0  0  0
  189.6220  177.4380  146.0700 C   0  0  0  0  0  3  0  0  0  0  0  0
  188.7050  177.9360  145.2410 C   0  0  0  0  0  3  0  0  0  0  0  0
  189.2810  176.7640  147.3550 C   0  0  0  0  0  2  0  0  0  0  0  0
  1  8  1  0  0  0  0
  1 12  1  0  0  0  0
  2  8  1  0  0  0  0
  3 15  1  0  0  0  0
  3 16  2  0  0  0  0
  4 26  1  1  0  0  0
  5 10  1  0  0  0  0
  5  2  2  0  0  0  0
  6  5  1  0  0  0  0
  7 14  1  0  0  0  0
  7 15  1  0  0  0  0
  8  3  1  0  0  0  0
  9  4  1  0  0  0  0
 10  1  2  0  0  0  0
 11 16  1  0  0  0  0
 12 11  2  0  0  0  0
 13  2  1  0  0  0  0
 13  7  2  0  0  0  0
 14  9  1  0  0  0  0
 15  4  1  0  0  0  0
 17 18  1  0  0  0  0
 17 14  1  0  0  0  0
 18 19  2  0  0  0  0
 19 20  1  0  0  0  0
 20 21  1  0  0  0  0
 21 22  1  0  0  0  0
 22 23  2  0  0  0  0
 22 25  1  0  0  0  0
 25 24  1  0  0  0  0
 26 27  1  0  0  0  0
 27 30  1  0  0  0  0
 29 28  2  0  0  0  0
 30 31  2  0  0  0  0
 31 29  1  0  0  0  0
 32 34  1  0  0  0  0
 33 30  1  0  0  0  0
 33 32  2  0  0  0  0
 34 28  1  0  0  0  0
M  END
>  <MODEL>
2

>  <REMARK>
 VINA RESULT:      -8.6      1.994      6.270
  Name = 
  9 active torsions:
  status: ('A' for Active; 'I' for Inactive)
    1  A    between atoms: C_3  and  C_17
    2  A    between atoms: C_5  and  C_26
    3  A    between atoms: C_12  and  O_28
    4  A    between atoms: C_13  and  C_33
    5  A    between atoms: C_14  and  C_20
    6  A    between atoms: C_17  and  N_29
    7  A    between atoms: C_20  and  O_34
    8  A    between atoms: C_26  and  O_28
    9  A    between atoms: C_33  and  O_34
                            x       y       z     vdW  Elec       q    Type
                         _______ _______ _______ _____ _____    ______ ____

>  <TORSDO>
F 9

$$$$
=
 OpenBabel11052414143D

 34 38  0  0  1  0  0  0  0  0999 V2000
  191.1650  176.5650  137.4270 C   0  0  0  0  0  0  0  0  0  0  0  0
  189.0820  177.0900  137.2920 C   0  0  0  0  0  0  0  0  0  0  0  0
  190.1540  177.4300  139.3800 C   0  0  0  0  0  0  0  0  0  0  0  0
  188.5820  178.3740  141.2580 C   0  0  2  0  0  3  0  0  0  0  0  0
  189.5180  176.5970  136.0720 C   0  0  0  0  0  0  0  0  0  0  0  0
  188.6900  176.4420  134.8450 C   0  0  0  0  0  1  0  0  0  0  0  0
  187.7680  177.9870  139.0890 C   0  0  0  0  0  0  0  0  0  0  0  0
  190.1330  177.0510  138.0970 N   0  0  0  0  0  0  0  0  0  0  0  0
  187.0750  178.7460  141.1770 C   0  0  0  0  0  2  0  0  0  0  0  0
  190.8420  176.2590  136.1480 N   0  0  0  0  0  0  0  0  0  0  0  0
  192.4360  176.8220  139.4360 C   0  0  0  0  0  3  0  0  0  0  0  0
  192.3930  176.4230  138.0730 C   0  0  0  0  0  3  0  0  0  0  0  0
  187.7800  177.5930  137.7920 C   0  0  0  0  0  3  0  0  0  0  0  0
  186.6580  178.4960  139.7950 N   0  0  0  0  0  0  0  0  0  0  0  0
  188.9200  177.9170  139.9190 N   0  0  0  0  0  0  0  0  0  0  0  0
  191.3210  177.3180  140.0730 N   0  0  0  0  0  0  0  0  0  0  0  0
  185.2710  178.4390  139.3530 C   0  0  0  0  0  2  0  0  0  0  0  0
  184.3600  179.0070  140.3950 C   0  0  0  0  0  3  0  0  0  0  0  0
  183.6790  178.2080  141.2120 C   0  0  0  0  0  3  0  0  0  0  0  0
  182.7740  178.7860  142.2470 C   0  0  0  0  0  2  0  0  0  0  0  0
  183.2400  178.4490  143.5480 O   0  0  0  0  0  0  0  0  0  0  0  0
  184.3910  179.0080  144.1140 C   0  0  0  0  0  0  0  0  0  0  0  0
  184.6670  180.2140  143.8790 O   0  0  0  0  0  0  0  0  0  0  0  0
  185.5560  179.0120  146.2850 C   0  0  0  0  0  1  0  0  0  0  0  0
  185.2810  178.2230  145.0210 C   0  0  0  0  0  2  0  0  0  0  0  0
  188.7730  177.2420  142.2520 C   0  0  0  0  0  2  0  0  0  0  0  0
  188.4360  177.6830  143.5610 O   0  0  0  0  0  0  0  0  0  0  0  0
  190.7880  176.6540  147.2240 C   0  0  0  0  0  3  0  0  0  0  0  0
  189.5010  176.9710  147.0870 C   0  0  0  0  0  3  0  0  0  0  0  0
  189.3140  177.5760  144.6430 C   0  0  0  0  0  0  0  0  0  0  0  0
  188.7960  177.1480  145.8020 C   0  0  0  0  0  3  0  0  0  0  0  0
  191.7750  177.5010  145.1310 C   0  0  0  0  0  3  0  0  0  0  0  0
  190.7260  178.0070  144.4830 C   0  0  0  0  0  3  0  0  0  0  0  0
  191.6770  176.3450  146.0670 C   0  0  0  0  0  2  0  0  0  0  0  0
  1 12  1  0  0  0  0
  1  8  1  0  0  0  0
  2 13  1  0  0  0  0
  2  8  1  0  0  0  0
  3 15  1  0  0  0  0
  3 16  2  0  0  0  0
  4 26  1  1  0  0  0
  5 10  1  0  0  0  0
  5  2  2  0  0  0  0
  6  5  1  0  0  0  0
  7 14  1  0  0  0  0
  7 15  1  0  0  0  0
  8  3  1  0  0  0  0
  9  4  1  0  0  0  0
 10  1  2  0  0  0  0
 11 16  1  0  0  0  0
 12 11  2  0  0  0  0
 13  7  2  0  0  0  0
 14  9  1  0  0  0  0
 15  4  1  0  0  0  0
 17 14  1  0  0  0  0
 17 18  1  0  0  0  0
 18 19  2  0  0  0  0
 19 20  1  0  0  0  0
 20 21  1  0  0  0  0
 21 22  1  0  0  0  0
 22 25  1  0  0  0  0
 23 22  2  0  0  0  0
 25 24  1  0  0  0  0
 26 27  1  0  0  0  0
 27 30  1  0  0  0  0
 29 28  2  0  0  0  0
 30 31  2  0  0  0  0
 31 29  1  0  0  0  0
 32 34  1  0  0  0  0
 33 30  1  0  0  0  0
 33 32  2  0  0  0  0
 34 28  1  0  0  0  0
M  END
>  <MODEL>
3

>  <REMARK>
 VINA RESULT:      -8.4      2.632      6.844
  Name = 
  9 active torsions:
  status: ('A' for Active; 'I' for Inactive)
    1  A    between atoms: C_3  and  C_17
    2  A    between atoms: C_5  and  C_26
    3  A    between atoms: C_12  and  O_28
    4  A    between atoms: C_13  and  C_33
    5  A    between atoms: C_14  and  C_20
    6  A    between atoms: C_17  and  N_29
    7  A    between atoms: C_20  and  O_34
    8  A    between atoms: C_26  and  O_28
    9  A    between atoms: C_33  and  O_34
                            x       y       z     vdW  Elec       q    Type
                         _______ _______ _______ _____ _____    ______ ____

>  <TORSDO>
F 9

$$$$
=
 OpenBabel11052414143D

 34 38  0  0  1  0  0  0  0  0999 V2000
  191.2130  176.9870  138.6940 C   0  0  0  0  0  0  0  0  0  0  0  0
  189.2100  177.3770  138.0080 C   0  0  0  0  0  0  0  0  0  0  0  0
  189.6640  177.7580  140.3030 C   0  0  0  0  0  0  0  0  0  0  0  0
  187.5910  178.5730  141.6910 C   0  0  2  0  0  3  0  0  0  0  0  0
  189.9870  176.9290  136.9490 C   0  0  0  0  0  0  0  0  0  0  0  0
  189.5270  176.7360  135.5480 C   0  0  0  0  0  1  0  0  0  0  0  0
  187.4090  178.1630  139.3860 C   0  0  0  0  0  0  0  0  0  0  0  0
  190.0100  177.3960  139.0640 N   0  0  0  0  0  0  0  0  0  0  0  0
  186.1390  178.8470  141.2110 C   0  0  0  0  0  2  0  0  0  0  0  0
  191.2630  176.6770  137.3760 N   0  0  0  0  0  0  0  0  0  0  0  0
  191.8850  177.2990  140.9670 C   0  0  0  0  0  3  0  0  0  0  0  0
  192.2310  176.9170  139.6440 C   0  0  0  0  0  3  0  0  0  0  0  0
  187.7920  177.7870  138.1410 C   0  0  0  0  0  3  0  0  0  0  0  0
  186.1210  178.5880  139.7690 N   0  0  0  0  0  0  0  0  0  0  0  0
  188.3020  178.1570  140.4920 N   0  0  0  0  0  0  0  0  0  0  0  0
  190.6100  177.7130  141.2820 N   0  0  0  0  0  0  0  0  0  0  0  0
  184.9080  178.4470  138.9750 C   0  0  0  0  0  2  0  0  0  0  0  0
  183.7590  179.1400  139.6360 C   0  0  0  0  0  3  0  0  0  0  0  0
  182.6080  178.5040  139.8380 C   0  0  0  0  0  3  0  0  0  0  0  0
  181.4680  179.2050  140.4990 C   0  0  0  0  0  2  0  0  0  0  0  0
  181.1600  178.5780  141.7380 O   0  0  0  0  0  0  0  0  0  0  0  0
  181.3320  179.2070  142.9750 C   0  0  0  0  0  0  0  0  0  0  0  0
  180.6810  180.2550  143.2260 O   0  0  0  0  0  0  0  0  0  0  0  0
  183.5070  179.4750  144.1000 C   0  0  0  0  0  1  0  0  0  0  0  0
  182.2400  178.6480  144.0210 C   0  0  0  0  0  2  0  0  0  0  0  0
  187.5860  177.4430  142.7060 C   0  0  0  0  0  2  0  0  0  0  0  0
  188.4710  177.7480  143.7760 O   0  0  0  0  0  0  0  0  0  0  0  0
  188.1220  177.5030  148.2290 C   0  0  0  0  0  3  0  0  0  0  0  0
  189.0040  176.9430  147.4020 C   0  0  0  0  0  3  0  0  0  0  0  0
  188.1250  177.5640  145.1170 C   0  0  0  0  0  0  0  0  0  0  0  0
  189.1110  177.2150  145.9540 C   0  0  0  0  0  3  0  0  0  0  0  0
  186.2630  178.0860  146.7190 C   0  0  0  0  0  3  0  0  0  0  0  0
  186.7020  177.6810  145.5270 C   0  0  0  0  0  3  0  0  0  0  0  0
  187.1680  178.5670  147.8010 C   0  0  0  0  0  2  0  0  0  0  0  0
  1  8  1  0  0  0  0
  1 12  1  0  0  0  0
  2 13  1  0  0  0  0
  2  8  1  0  0  0  0
  3 15  1  0  0  0  0
  3 16  2  0  0  0  0
  4 26  1  1  0  0  0
  5 10  1  0  0  0  0
  5  2  2  0  0  0  0
  6  5  1  0  0  0  0
  7 14  1  0  0  0  0
  7 15  1  0  0  0  0
  8  3  1  0  0  0  0
  9  4  1  0  0  0  0
 10  1  2  0  0  0  0
 11 16  1  0  0  0  0
 12 11  2  0  0  0  0
 13  7  2  0  0  0  0
 14  9  1  0  0  0  0
 15  4  1  0  0  0  0
 17 18  1  0  0  0  0
 17 14  1  0  0  0  0
 18 19  2  0  0  0  0
 19 20  1  0  0  0  0
 20 21  1  0  0  0  0
 21 22  1  0  0  0  0
 22 23  2  0  0  0  0
 22 25  1  0  0  0  0
 25 24  1  0  0  0  0
 26 27  1  0  0  0  0
 27 30  1  0  0  0  0
 29 28  2  0  0  0  0
 30 33  1  0  0  0  0
 30 31  2  0  0  0  0
 31 29  1  0  0  0  0
 32 34  1  0  0  0  0
 33 32  2  0  0  0  0
 34 28  1  0  0  0  0
M  END
>  <MODEL>
4

>  <REMARK>
 VINA RESULT:      -8.3      2.115      6.579
  Name = 
  9 active torsions:
  status: ('A' for Active; 'I' for Inactive)
    1  A    between atoms: C_3  and  C_17
    2  A    between atoms: C_5  and  C_26
    3  A    between atoms: C_12  and  O_28
    4  A    between atoms: C_13  and  C_33
    5  A    between atoms: C_14  and  C_20
    6  A    between atoms: C_17  and  N_29
    7  A    between atoms: C_20  and  O_34
    8  A    between atoms: C_26  and  O_28
    9  A    between atoms: C_33  and  O_34
                            x       y       z     vdW  Elec       q    Type
                         _______ _______ _______ _____ _____    ______ ____

>  <TORSDO>
F 9

$$$$
=
 OpenBabel11052414143D

 34 38  0  0  1  0  0  0  0  0999 V2000
  189.7540  177.0630  137.2460 C   0  0  0  0  0  0  0  0  0  0  0  0
  190.8450  176.9170  139.0960 C   0  0  0  0  0  0  0  0  0  0  0  0
  188.5480  177.4860  139.2330 C   0  0  0  0  0  0  0  0  0  0  0  0
  187.6840  177.9030  141.6770 C   0  0  2  0  0  3  0  0  0  0  0  0
  191.6930  176.6460  138.0330 C   0  0  0  0  0  0  0  0  0  0  0  0
  193.1390  176.3090  138.1300 C   0  0  0  0  0  1  0  0  0  0  0  0
  189.9160  177.2870  141.2770 C   0  0  0  0  0  0  0  0  0  0  0  0
  189.6590  177.1680  138.5620 N   0  0  0  0  0  0  0  0  0  0  0  0
  188.4630  177.8120  143.0180 C   0  0  0  0  0  2  0  0  0  0  0  0
  191.0080  176.7380  136.8510 N   0  0  0  0  0  0  0  0  0  0  0  0
  187.4330  177.6280  137.1550 C   0  0  0  0  0  3  0  0  0  0  0  0
  188.6250  177.2910  136.4600 C   0  0  0  0  0  3  0  0  0  0  0  0
  191.0250  176.9700  140.5670 C   0  0  0  0  0  3  0  0  0  0  0  0
  189.8290  177.4060  142.6800 N   0  0  0  0  0  0  0  0  0  0  0  0
  188.6650  177.5600  140.6590 N   0  0  0  0  0  0  0  0  0  0  0  0
  187.4070  177.7230  138.5280 N   0  0  0  0  0  0  0  0  0  0  0  0
  190.9590  177.4760  143.5980 C   0  0  0  0  0  2  0  0  0  0  0  0
  190.4850  177.6160  145.0100 C   0  0  0  0  0  3  0  0  0  0  0  0
  190.8600  176.7450  145.9420 C   0  0  0  0  0  3  0  0  0  0  0  0
  190.3810  176.8950  147.3470 C   0  0  0  0  0  2  0  0  0  0  0  0
  189.5360  178.0340  147.4560 O   0  0  0  0  0  0  0  0  0  0  0  0
  188.1740  177.9470  147.7650 C   0  0  0  0  0  0  0  0  0  0  0  0
  187.8280  177.4980  148.8890 O   0  0  0  0  0  0  0  0  0  0  0  0
  186.5860  177.2300  146.0250 C   0  0  0  0  0  1  0  0  0  0  0  0
  187.1210  178.4090  146.8110 C   0  0  0  0  0  2  0  0  0  0  0  0
  187.2000  179.3270  141.4660 C   0  0  0  0  0  2  0  0  0  0  0  0
  185.8500  179.3180  141.0200 O   0  0  0  0  0  0  0  0  0  0  0  0
  182.6080  178.8470  144.0670 C   0  0  0  0  0  3  0  0  0  0  0  0
  183.9300  178.9290  144.2200 C   0  0  0  0  0  3  0  0  0  0  0  0
  184.7850  178.9450  141.8440 C   0  0  0  0  0  0  0  0  0  0  0  0
  184.8980  179.2350  143.1470 C   0  0  0  0  0  3  0  0  0  0  0  0
  182.3810  178.2390  141.6890 C   0  0  0  0  0  3  0  0  0  0  0  0
  183.6430  178.1910  141.2650 C   0  0  0  0  0  3  0  0  0  0  0  0
  181.9190  179.1460  142.7780 C   0  0  0  0  0  2  0  0  0  0  0  0
  1  8  1  0  0  0  0
  2 13  1  0  0  0  0
  3 15  1  0  0  0  0
  4 26  1  6  0  0  0
  4  9  1  0  0  0  0
  5  6  1  0  0  0  0
  5  2  2  0  0  0  0
  7 14  1  0  0  0  0
  8  2  1  0  0  0  0
  8  3  1  0  0  0  0
 10  1  2  0  0  0  0
 10  5  1  0  0  0  0
 11 16  1  0  0  0  0
 12 11  2  0  0  0  0
 12  1  1  0  0  0  0
 13  7  2  0  0  0  0
 14  9  1  0  0  0  0
 14 17  1  0  0  0  0
 15  7  1  0  0  0  0
 15  4  1  0  0  0  0
 16  3  2  0  0  0  0
 17 18  1  0  0  0  0
 18 19  2  0  0  0  0
 19 20  1  0  0  0  0
 20 21  1  0  0  0  0
 21 22  1  0  0  0  0
 22 23  2  0  0  0  0
 24 25  1  0  0  0  0
 25 22  1  0  0  0  0
 27 26  1  0  0  0  0
 27 30  1  0  0  0  0
 28 29  2  0  0  0  0
 30 31  2  0  0  0  0
 31 29  1  0  0  0  0
 32 34  1  0  0  0  0
 33 32  2  0  0  0  0
 33 30  1  0  0  0  0
 34 28  1  0  0  0  0
M  END
>  <MODEL>
5

>  <REMARK>
 VINA RESULT:      -8.3      2.886      7.902
  Name = 
  9 active torsions:
  status: ('A' for Active; 'I' for Inactive)
    1  A    between atoms: C_3  and  C_17
    2  A    between atoms: C_5  and  C_26
    3  A    between atoms: C_12  and  O_28
    4  A    between atoms: C_13  and  C_33
    5  A    between atoms: C_14  and  C_20
    6  A    between atoms: C_17  and  N_29
    7  A    between atoms: C_20  and  O_34
    8  A    between atoms: C_26  and  O_28
    9  A    between atoms: C_33  and  O_34
                            x       y       z     vdW  Elec       q    Type
                         _______ _______ _______ _____ _____    ______ ____

>  <TORSDO>
F 9

$$$$
=
 OpenBabel11052414143D

 34 38  0  0  1  0  0  0  0  0999 V2000
  190.3160  177.3470  139.4190 C   0  0  0  0  0  0  0  0  0  0  0  0
  188.3840  177.7780  138.5730 C   0  0  0  0  0  0  0  0  0  0  0  0
  188.6130  177.9960  140.9230 C   0  0  0  0  0  0  0  0  0  0  0  0
  186.4090  178.7010  142.1600 C   0  0  2  0  0  3  0  0  0  0  0  0
  189.2620  177.4110  137.5650 C   0  0  0  0  0  0  0  0  0  0  0  0
  188.9400  177.3170  136.1150 C   0  0  0  0  0  1  0  0  0  0  0  0
  186.4520  178.4570  139.8250 C   0  0  0  0  0  0  0  0  0  0  0  0
  189.0800  177.7240  139.6990 N   0  0  0  0  0  0  0  0  0  0  0  0
  185.0060  179.0040  141.5640 C   0  0  0  0  0  2  0  0  0  0  0  0
  190.4940  177.1330  138.0930 N   0  0  0  0  0  0  0  0  0  0  0  0
  190.7650  177.4990  141.7620 C   0  0  0  0  0  3  0  0  0  0  0  0
  191.2400  177.2130  140.4540 C   0  0  0  0  0  3  0  0  0  0  0  0
  186.9550  178.1730  138.5980 C   0  0  0  0  0  3  0  0  0  0  0  0
  185.1290  178.8490  140.1130 N   0  0  0  0  0  0  0  0  0  0  0  0
  187.2350  178.3750  141.0090 N   0  0  0  0  0  0  0  0  0  0  0  0
  189.4620  177.8840  141.9820 N   0  0  0  0  0  0  0  0  0  0  0  0
  183.9980  178.7610  139.1970 C   0  0  0  0  0  2  0  0  0  0  0  0
  183.2070  180.0310  139.2100 C   0  0  0  0  0  3  0  0  0  0  0  0
  182.1590  180.1860  138.4050 C   0  0  0  0  0  3  0  0  0  0  0  0
  181.3780  181.4570  138.4260 C   0  0  0  0  0  2  0  0  0  0  0  0
  182.2280  182.5580  138.1300 O   0  0  0  0  0  0  0  0  0  0  0  0
  181.7590  183.7620  137.5930 C   0  0  0  0  0  0  0  0  0  0  0  0
  182.4390  184.8090  137.7480 O   0  0  0  0  0  0  0  0  0  0  0  0
  180.7770  183.5960  135.3400 C   0  0  0  0  0  1  0  0  0  0  0  0
  180.4890  183.8290  136.8090 C   0  0  0  0  0  2  0  0  0  0  0  0
  186.3190  177.5010  143.0870 C   0  0  0  0  0  2  0  0  0  0  0  0
  185.9720  177.9260  144.3990 O   0  0  0  0  0  0  0  0  0  0  0  0
  188.3220  177.8390  148.2050 C   0  0  0  0  0  3  0  0  0  0  0  0
  187.2060  178.4990  147.8960 C   0  0  0  0  0  3  0  0  0  0  0  0
  186.9030  177.9980  145.4390 C   0  0  0  0  0  0  0  0  0  0  0  0
  186.4330  178.3350  146.6480 C   0  0  0  0  0  3  0  0  0  0  0  0
  189.2430  177.2750  145.9890 C   0  0  0  0  0  3  0  0  0  0  0  0
  188.3430  177.7830  145.1470 C   0  0  0  0  0  3  0  0  0  0  0  0
  188.8950  176.7620  147.3450 C   0  0  0  0  0  2  0  0  0  0  0  0
  1  8  1  0  0  0  0
  1 12  1  0  0  0  0
  2 13  1  0  0  0  0
  2  8  1  0  0  0  0
  3 15  1  0  0  0  0
  3 16  2  0  0  0  0
  4 26  1  1  0  0  0
  5 10  1  0  0  0  0
  5  2  2  0  0  0  0
  6  5  1  0  0  0  0
  7 14  1  0  0  0  0
  7 15  1  0  0  0  0
  8  3  1  0  0  0  0
  9  4  1  0  0  0  0
 10  1  2  0  0  0  0
 11 16  1  0  0  0  0
 12 11  2  0  0  0  0
 13  7  2  0  0  0  0
 14  9  1  0  0  0  0
 15  4  1  0  0  0  0
 17 18  1  0  0  0  0
 17 14  1  0  0  0  0
 19 20  1  0  0  0  0
 19 18  2  0  0  0  0
 21 20  1  0  0  0  0
 22 23  2  0  0  0  0
 22 21  1  0  0  0  0
 24 25  1  0  0  0  0
 25 22  1  0  0  0  0
 26 27  1  0  0  0  0
 27 30  1  0  0  0  0
 29 28  2  0  0  0  0
 30 31  2  0  0  0  0
 31 29  1  0  0  0  0
 32 34  1  0  0  0  0
 33 30  1  0  0  0  0
 33 32  2  0  0  0  0
 34 28  1  0  0  0  0
M  END
>  <MODEL>
6

>  <REMARK>
 VINA RESULT:      -8.2      3.172      6.791
  Name = 
  9 active torsions:
  status: ('A' for Active; 'I' for Inactive)
    1  A    between atoms: C_3  and  C_17
    2  A    between atoms: C_5  and  C_26
    3  A    between atoms: C_12  and  O_28
    4  A    between atoms: C_13  and  C_33
    5  A    between atoms: C_14  and  C_20
    6  A    between atoms: C_17  and  N_29
    7  A    between atoms: C_20  and  O_34
    8  A    between atoms: C_26  and  O_28
    9  A    between atoms: C_33  and  O_34
                            x       y       z     vdW  Elec       q    Type
                         _______ _______ _______ _____ _____    ______ ____

>  <TORSDO>
F 9

$$$$
=
 OpenBabel11052414143D

 34 38  0  0  1  0  0  0  0  0999 V2000
  189.1360  177.1410  147.3340 C   0  0  0  0  0  0  0  0  0  0  0  0
  190.3960  176.8200  145.6190 C   0  0  0  0  0  0  0  0  0  0  0  0
  188.2870  177.8340  145.2410 C   0  0  0  0  0  0  0  0  0  0  0  0
  187.7880  178.3780  142.7220 C   0  0  2  0  0  3  0  0  0  0  0  0
  191.0350  176.3570  146.7590 C   0  0  0  0  0  0  0  0  0  0  0  0
  192.3820  175.7270  146.8120 C   0  0  0  0  0  1  0  0  0  0  0  0
  189.8280  177.4060  143.3620 C   0  0  0  0  0  0  0  0  0  0  0  0
  189.2280  177.2950  146.0230 N   0  0  0  0  0  0  0  0  0  0  0  0
  188.6830  178.1410  141.4740 C   0  0  0  0  0  2  0  0  0  0  0  0
  190.2410  176.5560  147.8560 N   0  0  0  0  0  0  0  0  0  0  0  0
  186.9710  178.1440  147.1790 C   0  0  0  0  0  3  0  0  0  0  0  0
  187.9820  177.5660  147.9920 C   0  0  0  0  0  3  0  0  0  0  0  0
  190.7610  176.8630  144.1820 C   0  0  0  0  0  3  0  0  0  0  0  0
  189.9330  177.5560  141.9640 N   0  0  0  0  0  0  0  0  0  0  0  0
  188.5820  177.8950  143.8410 N   0  0  0  0  0  0  0  0  0  0  0  0
  187.1330  178.2700  145.8170 N   0  0  0  0  0  0  0  0  0  0  0  0
  190.9310  176.9190  141.1130 C   0  0  0  0  0  2  0  0  0  0  0  0
  190.7990  177.3890  139.7000 C   0  0  0  0  0  3  0  0  0  0  0  0
  190.5140  176.5320  138.7220 C   0  0  0  0  0  3  0  0  0  0  0  0
  190.3850  177.0130  137.3160 C   0  0  0  0  0  2  0  0  0  0  0  0
  189.0120  177.1710  136.9780 O   0  0  0  0  0  0  0  0  0  0  0  0
  188.2980  178.3500  137.2180 C   0  0  0  0  0  0  0  0  0  0  0  0
  188.9300  179.4200  137.4190 O   0  0  0  0  0  0  0  0  0  0  0  0
  186.2810  177.5170  136.0750 C   0  0  0  0  0  1  0  0  0  0  0  0
  186.8040  178.3790  137.2060 C   0  0  0  0  0  2  0  0  0  0  0  0
  186.5160  177.5570  142.5990 C   0  0  0  0  0  2  0  0  0  0  0  0
  185.5680  178.2490  141.7980 O   0  0  0  0  0  0  0  0  0  0  0  0
  181.3190  178.9550  143.0090 C   0  0  0  0  0  3  0  0  0  0  0  0
  181.8680  178.8740  141.7970 C   0  0  0  0  0  3  0  0  0  0  0  0
  184.3370  178.6870  142.2940 C   0  0  0  0  0  0  0  0  0  0  0  0
  183.2650  178.4880  141.5140 C   0  0  0  0  0  3  0  0  0  0  0  0
  183.2680  179.3970  144.4510 C   0  0  0  0  0  3  0  0  0  0  0  0
  184.2870  179.4070  143.5920 C   0  0  0  0  0  3  0  0  0  0  0  0
  182.0420  178.5720  144.2560 C   0  0  0  0  0  2  0  0  0  0  0  0
  1 10  2  0  0  0  0
  1 12  1  0  0  0  0
  2  8  1  0  0  0  0
  2  5  2  0  0  0  0
  3 16  2  0  0  0  0
  3  8  1  0  0  0  0
  4 26  1  6  0  0  0
  4 15  1  0  0  0  0
  5  6  1  0  0  0  0
  5 10  1  0  0  0  0
  7 15  1  0  0  0  0
  7 13  2  0  0  0  0
  8  1  1  0  0  0  0
  9 14  1  0  0  0  0
  9  4  1  0  0  0  0
 11 12  2  0  0  0  0
 13  2  1  0  0  0  0
 14  7  1  0  0  0  0
 15  3  1  0  0  0  0
 16 11  1  0  0  0  0
 17 14  1  0  0  0  0
 18 17  1  0  0  0  0
 19 18  2  0  0  0  0
 20 19  1  0  0  0  0
 21 22  1  0  0  0  0
 21 20  1  0  0  0  0
 22 23  2  0  0  0  0
 24 25  1  0  0  0  0
 25 22  1  0  0  0  0
 27 30  1  0  0  0  0
 27 26  1  0  0  0  0
 28 34  1  0  0  0  0
 29 28  2  0  0  0  0
 30 33  1  0  0  0  0
 31 29  1  0  0  0  0
 31 30  2  0  0  0  0
 33 32  2  0  0  0  0
 34 32  1  0  0  0  0
M  END
>  <MODEL>
7

>  <REMARK>
 VINA RESULT:      -8.1      1.778      6.477
  Name = 
  9 active torsions:
  status: ('A' for Active; 'I' for Inactive)
    1  A    between atoms: C_3  and  C_17
    2  A    between atoms: C_5  and  C_26
    3  A    between atoms: C_12  and  O_28
    4  A    between atoms: C_13  and  C_33
    5  A    between atoms: C_14  and  C_20
    6  A    between atoms: C_17  and  N_29
    7  A    between atoms: C_20  and  O_34
    8  A    between atoms: C_26  and  O_28
    9  A    between atoms: C_33  and  O_34
                            x       y       z     vdW  Elec       q    Type
                         _______ _______ _______ _____ _____    ______ ____

>  <TORSDO>
F 9

$$$$
=
 OpenBabel11052414143D

 34 38  0  0  1  0  0  0  0  0999 V2000
  188.6640  177.4210  147.0700 C   0  0  0  0  0  0  0  0  0  0  0  0
  189.5770  177.2120  145.1320 C   0  0  0  0  0  0  0  0  0  0  0  0
  187.3790  178.0980  145.2060 C   0  0  0  0  0  0  0  0  0  0  0  0
  186.3610  178.6550  142.8510 C   0  0  2  0  0  3  0  0  0  0  0  0
  190.4550  176.7700  146.1100 C   0  0  0  0  0  0  0  0  0  0  0  0
  191.8200  176.2260  145.8800 C   0  0  0  0  0  1  0  0  0  0  0  0
  188.5410  177.8030  143.0490 C   0  0  0  0  0  0  0  0  0  0  0  0
  188.4860  177.6050  145.7720 N   0  0  0  0  0  0  0  0  0  0  0  0
  187.0050  178.4990  141.4460 C   0  0  0  0  0  2  0  0  0  0  0  0
  189.8820  176.8980  147.3470 N   0  0  0  0  0  0  0  0  0  0  0  0
  186.4560  178.2870  147.3720 C   0  0  0  0  0  3  0  0  0  0  0  0
  187.6400  177.7600  147.9540 C   0  0  0  0  0  3  0  0  0  0  0  0
  189.6480  177.3050  143.6540 C   0  0  0  0  0  3  0  0  0  0  0  0
  188.3600  177.9860  141.6630 N   0  0  0  0  0  0  0  0  0  0  0  0
  187.3880  178.2030  143.7770 N   0  0  0  0  0  0  0  0  0  0  0  0
  186.3380  178.4490  146.0100 N   0  0  0  0  0  0  0  0  0  0  0  0
  189.2050  177.4290  140.6150 C   0  0  0  0  0  2  0  0  0  0  0  0
  188.6550  177.7550  139.2620 C   0  0  0  0  0  3  0  0  0  0  0  0
  189.4190  178.3290  138.3370 C   0  0  0  0  0  3  0  0  0  0  0  0
  188.8590  178.6490  136.9920 C   0  0  0  0  0  2  0  0  0  0  0  0
  187.4580  178.8770  137.0880 O   0  0  0  0  0  0  0  0  0  0  0  0
  186.5090  178.0730  136.4500 C   0  0  0  0  0  0  0  0  0  0  0  0
  186.6340  177.8320  135.2210 O   0  0  0  0  0  0  0  0  0  0  0  0
  184.9660  178.3600  138.3490 C   0  0  0  0  0  1  0  0  0  0  0  0
  185.3690  177.4610  137.1980 C   0  0  0  0  0  2  0  0  0  0  0  0
  185.1410  177.7580  142.9550 C   0  0  0  0  0  2  0  0  0  0  0  0
  184.0550  178.4790  143.5230 O   0  0  0  0  0  0  0  0  0  0  0  0
  180.4750  178.5170  140.8410 C   0  0  0  0  0  3  0  0  0  0  0  0
  181.7530  178.7820  140.5750 C   0  0  0  0  0  3  0  0  0  0  0  0
  182.8480  178.6790  142.8490 C   0  0  0  0  0  0  0  0  0  0  0  0
  182.8790  178.5920  141.5120 C   0  0  0  0  0  3  0  0  0  0  0  0
  180.3780  178.7460  143.2940 C   0  0  0  0  0  3  0  0  0  0  0  0
  181.6340  179.0500  143.6200 C   0  0  0  0  0  3  0  0  0  0  0  0
  180.0220  177.8980  142.1210 C   0  0  0  0  0  2  0  0  0  0  0  0
  1 10  2  0  0  0  0
  1 12  1  0  0  0  0
  2  8  1  0  0  0  0
  2  5  2  0  0  0  0
  3  8  1  0  0  0  0
  3 16  2  0  0  0  0
  4 26  1  6  0  0  0
  4 15  1  0  0  0  0
  5 10  1  0  0  0  0
  6  5  1  0  0  0  0
  7 13  2  0  0  0  0
  7 15  1  0  0  0  0
  8  1  1  0  0  0  0
  9 14  1  0  0  0  0
  9  4  1  0  0  0  0
 11 12  2  0  0  0  0
 13  2  1  0  0  0  0
 14  7  1  0  0  0  0
 15  3  1  0  0  0  0
 16 11  1  0  0  0  0
 17 14  1  0  0  0  0
 18 17  1  0  0  0  0
 19 18  2  0  0  0  0
 20 21  1  0  0  0  0
 20 19  1  0  0  0  0
 22 21  1  0  0  0  0
 22 25  1  0  0  0  0
 23 22  2  0  0  0  0
 25 24  1  0  0  0  0
 26 27  1  0  0  0  0
 28 34  1  0  0  0  0
 29 28  2  0  0  0  0
 29 31  1  0  0  0  0
 30 27  1  0  0  0  0
 30 33  1  0  0  0  0
 31 30  2  0  0  0  0
 32 33  2  0  0  0  0
 34 32  1  0  0  0  0
M  END
>  <MODEL>
8

>  <REMARK>
 VINA RESULT:      -8.0      1.808      6.270
  Name = 
  9 active torsions:
  status: ('A' for Active; 'I' for Inactive)
    1  A    between atoms: C_3  and  C_17
    2  A    between atoms: C_5  and  C_26
    3  A    between atoms: C_12  and  O_28
    4  A    between atoms: C_13  and  C_33
    5  A    between atoms: C_14  and  C_20
    6  A    between atoms: C_17  and  N_29
    7  A    between atoms: C_20  and  O_34
    8  A    between atoms: C_26  and  O_28
    9  A    between atoms: C_33  and  O_34
                            x       y       z     vdW  Elec       q    Type
                         _______ _______ _______ _____ _____    ______ ____

>  <TORSDO>
F 9

$$$$
=
 OpenBabel11052414143D

 34 38  0  0  1  0  0  0  0  0999 V2000
  188.2760  177.6850  147.0400 C   0  0  0  0  0  0  0  0  0  0  0  0
  189.4480  177.3170  145.2720 C   0  0  0  0  0  0  0  0  0  0  0  0
  187.2790  178.2240  144.9670 C   0  0  0  0  0  0  0  0  0  0  0  0
  186.6120  178.6030  142.4560 C   0  0  2  0  0  3  0  0  0  0  0  0
  190.1710  176.9450  146.3950 C   0  0  0  0  0  0  0  0  0  0  0  0
  191.5440  176.3730  146.4020 C   0  0  0  0  0  1  0  0  0  0  0  0
  188.7260  177.7510  143.0250 C   0  0  0  0  0  0  0  0  0  0  0  0
  188.2850  177.7680  145.7190 N   0  0  0  0  0  0  0  0  0  0  0  0
  187.4430  178.3320  141.1720 C   0  0  0  0  0  2  0  0  0  0  0  0
  189.4330  177.1750  147.5250 N   0  0  0  0  0  0  0  0  0  0  0  0
  186.0650  178.5900  146.9600 C   0  0  0  0  0  3  0  0  0  0  0  0
  187.1450  178.1000  147.7420 C   0  0  0  0  0  3  0  0  0  0  0  0
  189.7260  177.2930  143.8160 C   0  0  0  0  0  3  0  0  0  0  0  0
  188.7440  177.8250  141.6170 N   0  0  0  0  0  0  0  0  0  0  0  0
  187.4890  178.2160  143.5500 N   0  0  0  0  0  0  0  0  0  0  0  0
  186.1420  178.6460  145.5870 N   0  0  0  0  0  0  0  0  0  0  0  0
  189.7170  177.1810  140.7440 C   0  0  0  0  0  2  0  0  0  0  0  0
  189.7010  177.8040  139.3840 C   0  0  0  0  0  3  0  0  0  0  0  0
  189.4720  177.0650  138.3010 C   0  0  0  0  0  3  0  0  0  0  0  0
  189.4590  177.6960  136.9500 C   0  0  0  0  0  2  0  0  0  0  0  0
  188.1710  177.5630  136.3600 O   0  0  0  0  0  0  0  0  0  0  0  0
  186.9920  177.9440  137.0100 C   0  0  0  0  0  0  0  0  0  0  0  0
  186.8320  179.1490  137.3340 O   0  0  0  0  0  0  0  0  0  0  0  0
  184.7910  177.1160  136.2740 C   0  0  0  0  0  1  0  0  0  0  0  0
  185.9010  176.9640  137.2950 C   0  0  0  0  0  2  0  0  0  0  0  0
  185.3720  177.7270  142.4550 C   0  0  0  0  0  2  0  0  0  0  0  0
  184.2450  178.4820  142.0290 O   0  0  0  0  0  0  0  0  0  0  0  0
  181.9020  177.9810  138.2510 C   0  0  0  0  0  3  0  0  0  0  0  0
  182.2500  177.0860  139.1750 C   0  0  0  0  0  3  0  0  0  0  0  0
  183.7350  178.4090  140.7300 C   0  0  0  0  0  0  0  0  0  0  0  0
  182.9010  177.3940  140.4630 C   0  0  0  0  0  3  0  0  0  0  0  0
  183.4770  179.8300  138.6760 C   0  0  0  0  0  3  0  0  0  0  0  0
  184.1920  179.3880  139.7110 C   0  0  0  0  0  3  0  0  0  0  0  0
  182.0530  179.4530  138.4480 C   0  0  0  0  0  2  0  0  0  0  0  0
  1 10  2  0  0  0  0
  1 12  1  0  0  0  0
  2  8  1  0  0  0  0
  2  5  2  0  0  0  0
  3 16  2  0  0  0  0
  3  8  1  0  0  0  0
  4 26  1  6  0  0  0
  4 15  1  0  0  0  0
  5  6  1  0  0  0  0
  5 10  1  0  0  0  0
  7 15  1  0  0  0  0
  7 13  2  0  0  0  0
  8  1  1  0  0  0  0
  9 14  1  0  0  0  0
  9  4  1  0  0  0  0
 11 12  2  0  0  0  0
 13  2  1  0  0  0  0
 14  7  1  0  0  0  0
 15  3  1  0  0  0  0
 16 11  1  0  0  0  0
 17 14  1  0  0  0  0
 18 17  1  0  0  0  0
 19 18  2  0  0  0  0
 20 19  1  0  0  0  0
 21 20  1  0  0  0  0
 21 22  1  0  0  0  0
 22 25  1  0  0  0  0
 22 23  2  0  0  0  0
 24 25  1  0  0  0  0
 27 26  1  0  0  0  0
 28 34  1  0  0  0  0
 28 29  2  0  0  0  0
 29 31  1  0  0  0  0
 30 27  1  0  0  0  0
 31 30  2  0  0  0  0
 32 33  2  0  0  0  0
 33 30  1  0  0  0  0
 34 32  1  0  0  0  0
M  END
>  <MODEL>
9

>  <REMARK>
 VINA RESULT:      -7.8      1.923      5.701
  Name = 
  9 active torsions:
  status: ('A' for Active; 'I' for Inactive)
    1  A    between atoms: C_3  and  C_17
    2  A    between atoms: C_5  and  C_26
    3  A    between atoms: C_12  and  O_28
    4  A    between atoms: C_13  and  C_33
    5  A    between atoms: C_14  and  C_20
    6  A    between atoms: C_17  and  N_29
    7  A    between atoms: C_20  and  O_34
    8  A    between atoms: C_26  and  O_28
    9  A    between atoms: C_33  and  O_34
                            x       y       z     vdW  Elec       q    Type
                         _______ _______ _______ _____ _____    ______ ____

>  <TORSDO>
F 9

$$$$
