=
 OpenBabel11052414093D

 34 39  0  0  1  0  0  0  0  0999 V2000
  192.3040  173.9390  136.0330 C   0  0  1  0  0  3  0  0  0  0  0  0
  193.4010  175.9750  136.9780 C   0  0  1  0  0  3  0  0  0  0  0  0
  190.8410  175.7150  136.9190 C   0  0  1  0  0  3  0  0  0  0  0  0
  189.3560  177.7220  137.5700 C   0  0  2  0  0  3  0  0  0  0  0  0
  194.7830  174.1140  136.0020 C   0  0  0  0  0  2  0  0  0  0  0  0
  194.7150  175.2010  137.0700 C   0  0  0  0  0  2  0  0  0  0  0  0
  190.6600  176.7190  139.2960 C   0  0  0  0  0  2  0  0  0  0  0  0
  192.1980  175.0190  137.1200 C   0  0  1  0  0  3  0  0  0  0  0  0
  189.3080  178.5820  138.8170 C   0  0  0  0  0  2  0  0  0  0  0  0
  193.6060  173.1590  136.1540 C   0  0  0  0  0  2  0  0  0  0  0  0
  189.6830  174.7220  137.0580 C   0  0  1  0  0  3  0  0  0  0  0  0
  191.1760  173.0330  136.0450 N   0  0  0  0  0  0  0  0  0  0  0  0
  193.3990  176.9280  137.9790 F   0  0  0  0  0  0  0  0  0  0  0  0
  187.8380  176.6870  137.5900 S   0  0  0  0  0  0  0  0  0  0  0  0
  188.4160  175.3610  136.4800 C   0  0  2  0  0  3  0  0  0  0  0  0
  190.0120  177.8800  139.9000 N   0  0  0  0  0  0  0  0  0  0  0  0
  190.6310  176.9480  137.8050 C   0  0  1  0  0  3  0  0  0  0  0  0
  189.9980  173.3720  136.4430 C   0  0  0  0  0  3  0  0  0  0  0  0
  185.5160  173.0230  137.1890 C   0  0  0  0  0  0  0  0  0  0  0  0
  185.1980  172.5610  135.9090 C   0  0  0  0  0  3  0  0  0  0  0  0
  187.2960  174.3840  136.2630 C   0  0  0  0  0  0  0  0  0  0  0  0
  185.9290  173.0080  134.8030 C   0  0  0  0  0  3  0  0  0  0  0  0
  186.5630  173.9320  137.3650 C   0  0  0  0  0  3  0  0  0  0  0  0
  186.9750  173.9170  134.9780 C   0  0  0  0  0  3  0  0  0  0  0  0
  184.8080  172.5890  138.2600 F   0  0  0  0  0  0  0  0  0  0  0  0
  189.0110  177.3710  140.8230 C   0  0  0  0  0  2  0  0  0  0  0  0
  189.6290  176.3230  141.7330 C   0  0  0  0  0  2  0  0  0  0  0  0
  191.1950  176.4800  144.3670 C   0  0  0  0  0  1  0  0  0  0  0  0
  189.1100  176.4770  143.0830 N   0  0  0  0  0  0  0  0  0  0  0  0
  190.0580  177.3300  143.8230 C   0  0  1  0  0  3  0  0  0  0  0  0
  188.1360  177.3990  145.4650 C   0  0  0  0  0  2  0  0  0  0  0  0
  187.1300  177.2660  144.3190 C   0  0  0  0  0  2  0  0  0  0  0  0
  187.8190  177.1550  142.9540 C   0  0  0  0  0  2  0  0  0  0  0  0
  189.4090  178.0950  144.9920 C   0  0  0  0  0  2  0  0  0  0  0  0
  1 12  1  0  0  0  0
  1 10  1  1  0  0  0
  1  8  1  0  0  0  0
  2  6  1  0  0  0  0
  2  8  1  0  0  0  0
  2 13  1  1  0  0  0
  3 11  1  0  0  0  0
  3  8  1  0  0  0  0
  3 17  1  0  0  0  0
  4 14  1  0  0  0  0
  4 17  1  0  0  0  0
  4  9  1  0  0  0  0
  5 10  1  0  0  0  0
  5  6  1  0  0  0  0
  7 16  1  0  0  0  0
  9 16  1  0  0  0  0
 12 18  2  0  0  0  0
 15 11  1  0  0  0  0
 15 14  1  0  0  0  0
 16 26  1  0  0  0  0
 17  7  1  0  0  0  0
 18 11  1  0  0  0  0
 19 23  1  0  0  0  0
 19 25  1  0  0  0  0
 20 19  2  0  0  0  0
 21 15  1  0  0  0  0
 21 23  2  0  0  0  0
 22 24  2  0  0  0  0
 22 20  1  0  0  0  0
 24 21  1  0  0  0  0
 26 27  1  0  0  0  0
 27 29  1  0  0  0  0
 29 30  1  0  0  0  0
 30 28  1  0  0  0  0
 30 34  1  0  0  0  0
 32 31  1  0  0  0  0
 33 29  1  0  0  0  0
 33 32  1  0  0  0  0
 34 31  1  0  0  0  0
M  END
>  <MODEL>
1

>  <REMARK>
 VINA RESULT:      -8.1      0.000      0.000
  Name = 
  4 active torsions:
  status: ('A' for Active; 'I' for Inactive)
    1  A    between atoms: C_3  and  N_13
    2  A    between atoms: C_3  and  C_17
    3  A    between atoms: C_12  and  C_28
    4  A    between atoms: C_17  and  N_29
                            x       y       z     vdW  Elec       q    Type
                         _______ _______ _______ _____ _____    ______ ____

>  <TORSDO>
F 4

$$$$
=
 OpenBabel11052414093D

 34 39  0  0  1  0  0  0  0  0999 V2000
  187.0070  178.1500  144.8090 C   0  0  1  0  0  3  0  0  0  0  0  0
  184.6740  179.0410  144.8560 C   0  0  1  0  0  3  0  0  0  0  0  0
  185.9210  178.6170  142.6450 C   0  0  1  0  0  3  0  0  0  0  0  0
  184.8620  179.4100  140.4300 C   0  0  2  0  0  3  0  0  0  0  0  0
  185.9070  178.5670  146.9970 C   0  0  0  0  0  2  0  0  0  0  0  0
  184.5470  178.5750  146.3060 C   0  0  0  0  0  2  0  0  0  0  0  0
  183.7710  177.6360  141.5920 C   0  0  0  0  0  2  0  0  0  0  0  0
  185.6550  178.1360  144.0820 C   0  0  1  0  0  3  0  0  0  0  0  0
  183.5110  179.1350  139.8000 C   0  0  0  0  0  2  0  0  0  0  0  0
  186.8690  177.6590  146.2430 C   0  0  0  0  0  2  0  0  0  0  0  0
  186.9080  177.6930  141.9260 C   0  0  1  0  0  3  0  0  0  0  0  0
  188.0150  177.3780  144.1120 N   0  0  0  0  0  0  0  0  0  0  0  0
  183.4140  179.0080  144.2880 F   0  0  0  0  0  0  0  0  0  0  0  0
  186.1020  178.5000  139.4260 S   0  0  0  0  0  0  0  0  0  0  0  0
  187.4280  178.4090  140.6740 C   0  0  2  0  0  3  0  0  0  0  0  0
  182.9190  177.9580  140.4520 N   0  0  0  0  0  0  0  0  0  0  0  0
  184.6540  178.8400  141.8130 C   0  0  1  0  0  3  0  0  0  0  0  0
  188.0210  177.2080  142.8340 C   0  0  0  0  0  3  0  0  0  0  0  0
  191.0050  177.2630  140.1490 C   0  0  0  0  0  0  0  0  0  0  0  0
  190.9050  176.5430  138.9560 C   0  0  0  0  0  3  0  0  0  0  0  0
  188.6310  177.7510  140.0610 C   0  0  0  0  0  0  0  0  0  0  0  0
  189.6690  176.4250  138.3120 C   0  0  0  0  0  3  0  0  0  0  0  0
  189.8700  177.8660  140.7000 C   0  0  0  0  0  3  0  0  0  0  0  0
  188.5350  177.0280  138.8620 C   0  0  0  0  0  3  0  0  0  0  0  0
  192.2020  177.3770  140.7730 F   0  0  0  0  0  0  0  0  0  0  0  0
  183.0140  176.8420  139.5250 C   0  0  0  0  0  2  0  0  0  0  0  0
  182.7180  177.3140  138.1120 C   0  0  0  0  0  2  0  0  0  0  0  0
  184.9510  177.0640  136.0230 C   0  0  0  0  0  1  0  0  0  0  0  0
  182.9560  176.2300  137.1720 N   0  0  0  0  0  0  0  0  0  0  0  0
  184.4170  176.0730  137.0440 C   0  0  1  0  0  3  0  0  0  0  0  0
  183.7120  173.9240  135.9130 C   0  0  0  0  0  2  0  0  0  0  0  0
  182.4700  173.8430  136.8040 C   0  0  0  0  0  2  0  0  0  0  0  0
  182.3720  175.0280  137.7700 C   0  0  0  0  0  2  0  0  0  0  0  0
  184.8460  174.6540  136.6280 C   0  0  0  0  0  2  0  0  0  0  0  0
  1 10  1  1  0  0  0
  2 13  1  6  0  0  0
  2  6  1  0  0  0  0
  3  8  1  0  0  0  0
  4 17  1  0  0  0  0
  6  5  1  0  0  0  0
  7 17  1  0  0  0  0
  8  1  1  0  0  0  0
  8  2  1  0  0  0  0
  9  4  1  0  0  0  0
  9 16  1  0  0  0  0
 10  5  1  0  0  0  0
 11  3  1  0  0  0  0
 11 18  1  0  0  0  0
 12  1  1  0  0  0  0
 14  4  1  0  0  0  0
 14 15  1  0  0  0  0
 15 11  1  0  0  0  0
 16  7  1  0  0  0  0
 17  3  1  0  0  0  0
 18 12  2  0  0  0  0
 19 23  1  0  0  0  0
 19 25  1  0  0  0  0
 20 19  2  0  0  0  0
 21 15  1  0  0  0  0
 21 23  2  0  0  0  0
 22 24  2  0  0  0  0
 22 20  1  0  0  0  0
 24 21  1  0  0  0  0
 26 16  1  0  0  0  0
 27 26  1  0  0  0  0
 28 30  1  0  0  0  0
 29 33  1  0  0  0  0
 29 27  1  0  0  0  0
 30 29  1  0  0  0  0
 31 34  1  0  0  0  0
 31 32  1  0  0  0  0
 32 33  1  0  0  0  0
 34 30  1  0  0  0  0
M  END
>  <MODEL>
2

>  <REMARK>
 VINA RESULT:      -7.9      3.664      8.896
  Name = 
  4 active torsions:
  status: ('A' for Active; 'I' for Inactive)
    1  A    between atoms: C_3  and  N_13
    2  A    between atoms: C_3  and  C_17
    3  A    between atoms: C_12  and  C_28
    4  A    between atoms: C_17  and  N_29
                            x       y       z     vdW  Elec       q    Type
                         _______ _______ _______ _____ _____    ______ ____

>  <TORSDO>
F 4

$$$$
=
 OpenBabel11052414093D

 34 39  0  0  1  0  0  0  0  0999 V2000
  187.8210  178.1310  139.2650 C   0  0  1  0  0  3  0  0  0  0  0  0
  186.6030  177.8640  137.1000 C   0  0  1  0  0  3  0  0  0  0  0  0
  185.3590  178.0310  139.3470 C   0  0  1  0  0  3  0  0  0  0  0  0
  182.8150  177.6130  139.4120 C   0  0  2  0  0  3  0  0  0  0  0  0
  189.1170  177.9320  137.1540 C   0  0  0  0  0  2  0  0  0  0  0  0
  187.8680  178.2960  136.3580 C   0  0  0  0  0  2  0  0  0  0  0  0
  183.5740  179.5650  138.2720 C   0  0  0  0  0  2  0  0  0  0  0  0
  186.5470  178.5150  138.4980 C   0  0  1  0  0  3  0  0  0  0  0  0
  181.6660  178.2460  138.6510 C   0  0  0  0  0  2  0  0  0  0  0  0
  189.0700  178.5910  138.5260 C   0  0  0  0  0  2  0  0  0  0  0  0
  185.3570  178.6970  140.7270 C   0  0  1  0  0  3  0  0  0  0  0  0
  187.8250  178.6430  140.6190 N   0  0  0  0  0  0  0  0  0  0  0  0
  185.5140  178.2370  136.3350 F   0  0  0  0  0  0  0  0  0  0  0  0
  182.6850  178.2100  141.1440 S   0  0  0  0  0  0  0  0  0  0  0  0
  184.4130  177.9160  141.6470 C   0  0  2  0  0  3  0  0  0  0  0  0
  182.1300  179.5110  138.0650 N   0  0  0  0  0  0  0  0  0  0  0  0
  183.9980  178.1680  138.6570 C   0  0  1  0  0  3  0  0  0  0  0  0
  186.7520  178.8500  141.3020 C   0  0  0  0  0  3  0  0  0  0  0  0
  185.9290  178.2760  145.1050 C   0  0  0  0  0  0  0  0  0  0  0  0
  184.8950  178.8970  145.8100 C   0  0  0  0  0  3  0  0  0  0  0  0
  184.5650  178.2660  143.1000 C   0  0  0  0  0  0  0  0  0  0  0  0
  183.6930  179.2030  145.1630 C   0  0  0  0  0  3  0  0  0  0  0  0
  185.7640  177.9610  143.7530 C   0  0  0  0  0  3  0  0  0  0  0  0
  183.5270  178.8880  143.8120 C   0  0  0  0  0  3  0  0  0  0  0  0
  187.0930  177.9790  145.7310 F   0  0  0  0  0  0  0  0  0  0  0  0
  181.5520  180.5970  138.8400 C   0  0  0  0  0  2  0  0  0  0  0  0
  180.3490  181.1720  138.1100 C   0  0  0  0  0  2  0  0  0  0  0  0
  180.6880  180.9700  135.0680 C   0  0  0  0  0  1  0  0  0  0  0  0
  180.7850  182.2030  137.1820 N   0  0  0  0  0  0  0  0  0  0  0  0
  180.0180  182.0230  135.9350 C   0  0  1  0  0  3  0  0  0  0  0  0
  180.9760  184.3130  135.4550 C   0  0  0  0  0  2  0  0  0  0  0  0
  180.9680  184.6480  136.9490 C   0  0  0  0  0  2  0  0  0  0  0  0
  180.4470  183.4860  137.8000 C   0  0  0  0  0  2  0  0  0  0  0  0
  179.8700  183.3180  135.1160 C   0  0  0  0  0  2  0  0  0  0  0  0
  1 10  1  6  0  0  0
  1 12  1  0  0  0  0
  2 13  1  6  0  0  0
  2  8  1  0  0  0  0
  3 11  1  0  0  0  0
  4 14  1  0  0  0  0
  5 10  1  0  0  0  0
  6  2  1  0  0  0  0
  6  5  1  0  0  0  0
  7 17  1  0  0  0  0
  8  1  1  0  0  0  0
  8  3  1  0  0  0  0
  9  4  1  0  0  0  0
 11 18  1  0  0  0  0
 11 15  1  0  0  0  0
 12 18  2  0  0  0  0
 14 15  1  0  0  0  0
 15 21  1  0  0  0  0
 16  7  1  0  0  0  0
 16  9  1  0  0  0  0
 16 26  1  0  0  0  0
 17  3  1  0  0  0  0
 17  4  1  0  0  0  0
 19 25  1  0  0  0  0
 19 20  1  0  0  0  0
 21 23  1  0  0  0  0
 21 24  2  0  0  0  0
 22 20  2  0  0  0  0
 23 19  2  0  0  0  0
 24 22  1  0  0  0  0
 27 26  1  0  0  0  0
 28 30  1  0  0  0  0
 29 33  1  0  0  0  0
 29 27  1  0  0  0  0
 30 29  1  0  0  0  0
 31 32  1  0  0  0  0
 32 33  1  0  0  0  0
 34 31  1  0  0  0  0
 34 30  1  0  0  0  0
M  END
>  <MODEL>
3

>  <REMARK>
 VINA RESULT:      -7.9      6.457      9.523
  Name = 
  4 active torsions:
  status: ('A' for Active; 'I' for Inactive)
    1  A    between atoms: C_3  and  N_13
    2  A    between atoms: C_3  and  C_17
    3  A    between atoms: C_12  and  C_28
    4  A    between atoms: C_17  and  N_29
                            x       y       z     vdW  Elec       q    Type
                         _______ _______ _______ _____ _____    ______ ____

>  <TORSDO>
F 4

$$$$
=
 OpenBabel11052414093D

 34 39  0  0  1  0  0  0  0  0999 V2000
  187.0380  178.1350  144.8110 C   0  0  1  0  0  3  0  0  0  0  0  0
  184.7070  179.0310  144.8480 C   0  0  1  0  0  3  0  0  0  0  0  0
  185.9590  178.5950  142.6420 C   0  0  1  0  0  3  0  0  0  0  0  0
  184.9070  179.3790  140.4210 C   0  0  2  0  0  3  0  0  0  0  0  0
  185.9330  178.5650  146.9940 C   0  0  0  0  0  2  0  0  0  0  0  0
  184.5750  178.5730  146.3000 C   0  0  0  0  0  2  0  0  0  0  0  0
  183.8100  177.6130  141.5880 C   0  0  0  0  0  2  0  0  0  0  0  0
  185.6880  178.1200  144.0800 C   0  0  1  0  0  3  0  0  0  0  0  0
  183.5570  179.1030  139.7880 C   0  0  0  0  0  2  0  0  0  0  0  0
  186.8950  177.6510  146.2470 C   0  0  0  0  0  2  0  0  0  0  0  0
  186.9460  177.6650  141.9300 C   0  0  1  0  0  3  0  0  0  0  0  0
  188.0460  177.3580  144.1200 N   0  0  0  0  0  0  0  0  0  0  0  0
  183.4490  178.9990  144.2770 F   0  0  0  0  0  0  0  0  0  0  0  0
  186.1480  178.4620  139.4240 S   0  0  0  0  0  0  0  0  0  0  0  0
  187.4700  178.3730  140.6770 C   0  0  2  0  0  3  0  0  0  0  0  0
  182.9610  177.9320  140.4440 N   0  0  0  0  0  0  0  0  0  0  0  0
  184.6940  178.8160  141.8050 C   0  0  1  0  0  3  0  0  0  0  0  0
  188.0550  177.1820  142.8440 C   0  0  0  0  0  3  0  0  0  0  0  0
  191.0450  177.2140  140.1680 C   0  0  0  0  0  0  0  0  0  0  0  0
  190.9470  176.4920  138.9760 C   0  0  0  0  0  3  0  0  0  0  0  0
  188.6730  177.7100  140.0700 C   0  0  0  0  0  0  0  0  0  0  0  0
  189.7140  176.3770  138.3270 C   0  0  0  0  0  3  0  0  0  0  0  0
  189.9100  177.8220  140.7140 C   0  0  0  0  0  3  0  0  0  0  0  0
  188.5790  176.9850  138.8710 C   0  0  0  0  0  3  0  0  0  0  0  0
  192.2400  177.3250  140.7970 F   0  0  0  0  0  0  0  0  0  0  0  0
  183.0560  176.8110  139.5230 C   0  0  0  0  0  2  0  0  0  0  0  0
  181.7860  176.7090  138.6960 C   0  0  0  0  0  2  0  0  0  0  0  0
  179.6880  175.3890  140.5040 C   0  0  0  0  0  1  0  0  0  0  0  0
  181.3200  175.3310  138.6800 N   0  0  0  0  0  0  0  0  0  0  0  0
  179.8800  175.3500  138.9970 C   0  0  1  0  0  3  0  0  0  0  0  0
  180.0500  172.9620  138.1830 C   0  0  0  0  0  2  0  0  0  0  0  0
  181.1730  173.3530  137.2190 C   0  0  0  0  0  2  0  0  0  0  0  0
  181.5290  174.8400  137.3170 C   0  0  0  0  0  2  0  0  0  0  0  0
  179.1130  174.1420  138.4300 C   0  0  0  0  0  2  0  0  0  0  0  0
  1 10  1  1  0  0  0
  2 13  1  6  0  0  0
  2  6  1  0  0  0  0
  3  8  1  0  0  0  0
  4 17  1  0  0  0  0
  6  5  1  0  0  0  0
  7 17  1  0  0  0  0
  8  1  1  0  0  0  0
  8  2  1  0  0  0  0
  9  4  1  0  0  0  0
  9 16  1  0  0  0  0
 10  5  1  0  0  0  0
 11  3  1  0  0  0  0
 11 18  1  0  0  0  0
 12  1  1  0  0  0  0
 14  4  1  0  0  0  0
 14 15  1  0  0  0  0
 15 11  1  0  0  0  0
 16  7  1  0  0  0  0
 17  3  1  0  0  0  0
 18 12  2  0  0  0  0
 19 23  1  0  0  0  0
 19 25  1  0  0  0  0
 20 19  2  0  0  0  0
 21 15  1  0  0  0  0
 21 23  2  0  0  0  0
 22 24  2  0  0  0  0
 22 20  1  0  0  0  0
 24 21  1  0  0  0  0
 26 16  1  0  0  0  0
 27 26  1  0  0  0  0
 29 27  1  0  0  0  0
 29 30  1  0  0  0  0
 30 28  1  0  0  0  0
 31 34  1  0  0  0  0
 32 33  1  0  0  0  0
 32 31  1  0  0  0  0
 33 29  1  0  0  0  0
 34 30  1  0  0  0  0
M  END
>  <MODEL>
4

>  <REMARK>
 VINA RESULT:      -7.7      4.291      9.227
  Name = 
  4 active torsions:
  status: ('A' for Active; 'I' for Inactive)
    1  A    between atoms: C_3  and  N_13
    2  A    between atoms: C_3  and  C_17
    3  A    between atoms: C_12  and  C_28
    4  A    between atoms: C_17  and  N_29
                            x       y       z     vdW  Elec       q    Type
                         _______ _______ _______ _____ _____    ______ ____

>  <TORSDO>
F 4

$$$$
=
 OpenBabel11052414093D

 34 39  0  0  1  0  0  0  0  0999 V2000
  185.3430  178.5590  142.2610 C   0  0  1  0  0  3  0  0  0  0  0  0
  184.9540  179.0000  139.8330 C   0  0  1  0  0  3  0  0  0  0  0  0
  187.2910  178.4380  140.7530 C   0  0  1  0  0  3  0  0  0  0  0  0
  189.3370  178.6280  139.1950 C   0  0  2  0  0  3  0  0  0  0  0  0
  183.0570  179.1390  141.4800 C   0  0  0  0  0  2  0  0  0  0  0  0
  183.4580  178.7770  140.0530 C   0  0  0  0  0  2  0  0  0  0  0  0
  187.7520  176.9110  138.7170 C   0  0  0  0  0  2  0  0  0  0  0  0
  185.7780  178.1710  140.8400 C   0  0  1  0  0  3  0  0  0  0  0  0
  189.6430  178.0040  137.8470 C   0  0  0  0  0  2  0  0  0  0  0  0
  183.8570  178.3060  142.4730 C   0  0  0  0  0  2  0  0  0  0  0  0
  188.0600  177.6010  141.7800 C   0  0  1  0  0  3  0  0  0  0  0  0
  186.1160  177.8780  143.2790 N   0  0  0  0  0  0  0  0  0  0  0  0
  185.2500  178.6390  138.5330 F   0  0  0  0  0  0  0  0  0  0  0  0
  190.4360  177.8020  140.4140 S   0  0  0  0  0  0  0  0  0  0  0  0
  189.4750  178.1730  141.9180 C   0  0  2  0  0  3  0  0  0  0  0  0
  188.7330  176.8690  137.6360 N   0  0  0  0  0  0  0  0  0  0  0  0
  187.8770  178.2770  139.3470 C   0  0  1  0  0  3  0  0  0  0  0  0
  187.3340  177.4940  143.1070 C   0  0  0  0  0  3  0  0  0  0  0  0
  191.6590  175.9630  144.0920 C   0  0  0  0  0  0  0  0  0  0  0  0
  191.6250  176.6370  145.3150 C   0  0  0  0  0  3  0  0  0  0  0  0
  190.2200  177.6520  143.1140 C   0  0  0  0  0  0  0  0  0  0  0  0
  190.8890  177.8200  145.4420 C   0  0  0  0  0  3  0  0  0  0  0  0
  190.9580  176.4690  142.9940 C   0  0  0  0  0  3  0  0  0  0  0  0
  190.1870  178.3260  144.3440 C   0  0  0  0  0  3  0  0  0  0  0  0
  192.3730  174.8170  143.9700 F   0  0  0  0  0  0  0  0  0  0  0  0
  189.5000  175.6470  137.8110 C   0  0  0  0  0  2  0  0  0  0  0  0
  190.3870  175.4130  136.5990 C   0  0  0  0  0  2  0  0  0  0  0  0
  191.4880  172.6880  135.7220 C   0  0  0  0  0  1  0  0  0  0  0  0
  191.6210  174.7640  137.0120 N   0  0  0  0  0  0  0  0  0  0  0  0
  192.1540  174.0480  135.8380 C   0  0  1  0  0  3  0  0  0  0  0  0
  194.2000  173.9130  137.3180 C   0  0  0  0  0  2  0  0  0  0  0  0
  193.8380  175.2490  137.9700 C   0  0  0  0  0  2  0  0  0  0  0  0
  192.5390  175.8340  137.4080 C   0  0  0  0  0  2  0  0  0  0  0  0
  193.6800  173.8500  135.8850 C   0  0  0  0  0  2  0  0  0  0  0  0
  1 10  1  1  0  0  0
  1 12  1  0  0  0  0
  2 13  1  6  0  0  0
  2  6  1  0  0  0  0
  2  8  1  0  0  0  0
  3  8  1  0  0  0  0
  3 11  1  0  0  0  0
  4 17  1  0  0  0  0
  4 14  1  0  0  0  0
  5 10  1  0  0  0  0
  6  5  1  0  0  0  0
  7 17  1  0  0  0  0
  8  1  1  0  0  0  0
  9  4  1  0  0  0  0
 11 15  1  0  0  0  0
 11 18  1  0  0  0  0
 14 15  1  0  0  0  0
 15 21  1  0  0  0  0
 16 26  1  0  0  0  0
 16  9  1  0  0  0  0
 16  7  1  0  0  0  0
 17  3  1  0  0  0  0
 18 12  2  0  0  0  0
 19 20  1  0  0  0  0
 20 22  2  0  0  0  0
 21 24  2  0  0  0  0
 23 21  1  0  0  0  0
 23 19  2  0  0  0  0
 24 22  1  0  0  0  0
 25 19  1  0  0  0  0
 27 29  1  0  0  0  0
 27 26  1  0  0  0  0
 28 30  1  0  0  0  0
 29 33  1  0  0  0  0
 30 34  1  0  0  0  0
 30 29  1  0  0  0  0
 31 32  1  0  0  0  0
 33 32  1  0  0  0  0
 34 31  1  0  0  0  0
M  END
>  <MODEL>
5

>  <REMARK>
 VINA RESULT:      -7.4      2.834      8.627
  Name = 
  4 active torsions:
  status: ('A' for Active; 'I' for Inactive)
    1  A    between atoms: C_3  and  N_13
    2  A    between atoms: C_3  and  C_17
    3  A    between atoms: C_12  and  C_28
    4  A    between atoms: C_17  and  N_29
                            x       y       z     vdW  Elec       q    Type
                         _______ _______ _______ _____ _____    ______ ____

>  <TORSDO>
F 4

$$$$
=
 OpenBabel11052414093D

 34 39  0  0  1  0  0  0  0  0999 V2000
  185.7090  178.3380  143.7110 C   0  0  1  0  0  3  0  0  0  0  0  0
  185.0840  179.2640  141.4770 C   0  0  1  0  0  3  0  0  0  0  0  0
  187.4520  178.3840  141.9680 C   0  0  1  0  0  3  0  0  0  0  0  0
  189.3140  178.7370  140.2180 C   0  0  2  0  0  3  0  0  0  0  0  0
  183.4090  179.2060  143.3530 C   0  0  0  0  0  2  0  0  0  0  0  0
  183.6090  179.1010  141.8450 C   0  0  0  0  0  2  0  0  0  0  0  0
  187.5390  177.2520  139.6430 C   0  0  0  0  0  2  0  0  0  0  0  0
  185.9420  178.2040  142.2000 C   0  0  1  0  0  3  0  0  0  0  0  0
  189.4070  178.3660  138.7510 C   0  0  0  0  0  2  0  0  0  0  0  0
  184.2410  178.1470  144.0640 C   0  0  0  0  0  2  0  0  0  0  0  0
  188.2570  177.3160  142.7150 C   0  0  1  0  0  3  0  0  0  0  0  0
  186.5300  177.4240  144.4780 N   0  0  0  0  0  0  0  0  0  0  0  0
  185.1960  179.1420  140.1050 F   0  0  0  0  0  0  0  0  0  0  0  0
  190.4680  177.6210  141.1120 S   0  0  0  0  0  0  0  0  0  0  0  0
  189.7230  177.7570  142.7710 C   0  0  2  0  0  3  0  0  0  0  0  0
  188.3820  177.3560  138.4560 N   0  0  0  0  0  0  0  0  0  0  0  0
  187.8560  178.4590  140.4920 C   0  0  1  0  0  3  0  0  0  0  0  0
  187.6810  177.0020  144.0820 C   0  0  0  0  0  3  0  0  0  0  0  0
  191.4560  176.7150  145.9790 C   0  0  0  0  0  0  0  0  0  0  0  0
  192.0890  175.5300  145.5940 C   0  0  0  0  0  3  0  0  0  0  0  0
  190.5520  176.9670  143.7430 C   0  0  0  0  0  0  0  0  0  0  0  0
  191.9560  175.0610  144.2830 C   0  0  0  0  0  3  0  0  0  0  0  0
  190.6900  177.4320  145.0560 C   0  0  0  0  0  3  0  0  0  0  0  0
  191.1900  175.7770  143.3600 C   0  0  0  0  0  3  0  0  0  0  0  0
  191.5860  177.1700  147.2490 F   0  0  0  0  0  0  0  0  0  0  0  0
  189.0520  176.0750  138.3020 C   0  0  0  0  0  2  0  0  0  0  0  0
  188.5870  175.3960  137.0250 C   0  0  0  0  0  2  0  0  0  0  0  0
  189.9900  176.7740  134.6700 C   0  0  0  0  0  1  0  0  0  0  0  0
  189.7390  174.9340  136.2660 N   0  0  0  0  0  0  0  0  0  0  0  0
  190.5450  176.1210  135.9260 C   0  0  1  0  0  3  0  0  0  0  0  0
  192.2370  174.3400  135.3290 C   0  0  0  0  0  2  0  0  0  0  0  0
  191.6760  173.4190  136.4150 C   0  0  0  0  0  2  0  0  0  0  0  0
  190.4950  174.0520  137.1580 C   0  0  0  0  0  2  0  0  0  0  0  0
  192.0350  175.8060  135.7030 C   0  0  0  0  0  2  0  0  0  0  0  0
  1 10  1  6  0  0  0
  1 12  1  0  0  0  0
  2 13  1  6  0  0  0
  2  6  1  0  0  0  0
  2  8  1  0  0  0  0
  3  8  1  0  0  0  0
  3 11  1  0  0  0  0
  4 17  1  0  0  0  0
  4 14  1  0  0  0  0
  5 10  1  0  0  0  0
  6  5  1  0  0  0  0
  7 17  1  0  0  0  0
  8  1  1  0  0  0  0
  9  4  1  0  0  0  0
 11 15  1  0  0  0  0
 11 18  1  0  0  0  0
 14 15  1  0  0  0  0
 15 21  1  0  0  0  0
 16  9  1  0  0  0  0
 16  7  1  0  0  0  0
 17  3  1  0  0  0  0
 18 12  2  0  0  0  0
 19 25  1  0  0  0  0
 20 19  1  0  0  0  0
 21 23  1  0  0  0  0
 22 20  2  0  0  0  0
 23 19  2  0  0  0  0
 24 21  2  0  0  0  0
 24 22  1  0  0  0  0
 26 16  1  0  0  0  0
 27 26  1  0  0  0  0
 28 30  1  0  0  0  0
 29 27  1  0  0  0  0
 29 33  1  0  0  0  0
 30 29  1  0  0  0  0
 31 34  1  0  0  0  0
 31 32  1  0  0  0  0
 32 33  1  0  0  0  0
 34 30  1  0  0  0  0
M  END
>  <MODEL>
6

>  <REMARK>
 VINA RESULT:      -7.3      2.924      8.953
  Name = 
  4 active torsions:
  status: ('A' for Active; 'I' for Inactive)
    1  A    between atoms: C_3  and  N_13
    2  A    between atoms: C_3  and  C_17
    3  A    between atoms: C_12  and  C_28
    4  A    between atoms: C_17  and  N_29
                            x       y       z     vdW  Elec       q    Type
                         _______ _______ _______ _____ _____    ______ ____

>  <TORSDO>
F 4

$$$$
=
 OpenBabel11052414093D

 34 39  0  0  1  0  0  0  0  0999 V2000
  188.1510  173.4090  135.4720 C   0  0  1  0  0  3  0  0  0  0  0  0
  190.3710  174.5240  135.7350 C   0  0  1  0  0  3  0  0  0  0  0  0
  188.1700  175.7300  136.3050 C   0  0  1  0  0  3  0  0  0  0  0  0
  188.2240  178.2460  136.8720 C   0  0  2  0  0  3  0  0  0  0  0  0
  190.2150  172.1730  134.8510 C   0  0  0  0  0  2  0  0  0  0  0  0
  191.0440  173.1520  135.6770 C   0  0  0  0  0  2  0  0  0  0  0  0
  189.2500  176.7520  138.4220 C   0  0  0  0  0  2  0  0  0  0  0  0
  188.9500  174.4040  136.3250 C   0  0  1  0  0  3  0  0  0  0  0  0
  189.0030  179.0320  137.9090 C   0  0  0  0  0  2  0  0  0  0  0  0
  188.8190  172.0420  135.4460 C   0  0  0  0  0  2  0  0  0  0  0  0
  186.7650  175.5550  136.8890 C   0  0  1  0  0  3  0  0  0  0  0  0
  186.7770  173.2850  135.9130 N   0  0  0  0  0  0  0  0  0  0  0  0
  191.1620  175.3520  136.5080 F   0  0  0  0  0  0  0  0  0  0  0  0
  186.4740  178.2320  137.4330 S   0  0  0  0  0  0  0  0  0  0  0  0
  185.9160  176.7690  136.4990 C   0  0  2  0  0  3  0  0  0  0  0  0
  189.5160  178.0980  138.9200 N   0  0  0  0  0  0  0  0  0  0  0  0
  188.9080  176.9030  136.9600 C   0  0  1  0  0  3  0  0  0  0  0  0
  186.1290  174.2370  136.4920 C   0  0  0  0  0  3  0  0  0  0  0  0
  182.6240  176.1390  138.2730 C   0  0  0  0  0  0  0  0  0  0  0  0
  181.7110  176.2010  137.2170 C   0  0  0  0  0  3  0  0  0  0  0  0
  184.4450  176.5740  136.7320 C   0  0  0  0  0  0  0  0  0  0  0  0
  182.1620  176.4490  135.9160 C   0  0  0  0  0  3  0  0  0  0  0  0
  183.9880  176.3250  138.0300 C   0  0  0  0  0  3  0  0  0  0  0  0
  183.5250  176.6340  135.6730 C   0  0  0  0  0  3  0  0  0  0  0  0
  182.1870  175.8990  139.5330 F   0  0  0  0  0  0  0  0  0  0  0  0
  188.7210  178.2660  140.1250 C   0  0  0  0  0  2  0  0  0  0  0  0
  189.0590  177.1750  141.1270 C   0  0  0  0  0  2  0  0  0  0  0  0
  187.0140  177.5160  143.3880 C   0  0  0  0  0  1  0  0  0  0  0  0
  189.2590  177.7620  142.4420 N   0  0  0  0  0  0  0  0  0  0  0  0
  188.4400  176.9910  143.3960 C   0  0  1  0  0  3  0  0  0  0  0  0
  189.8480  178.2680  145.0630 C   0  0  0  0  0  2  0  0  0  0  0  0
  191.0210  178.2910  144.0800 C   0  0  0  0  0  2  0  0  0  0  0  0
  190.6800  177.6010  142.7560 C   0  0  0  0  0  2  0  0  0  0  0  0
  188.9760  177.0360  144.8380 C   0  0  0  0  0  2  0  0  0  0  0  0
  1 10  1  1  0  0  0
  1 12  1  0  0  0  0
  1  8  1  0  0  0  0
  2  8  1  0  0  0  0
  2 13  1  1  0  0  0
  3  8  1  0  0  0  0
  3 11  1  0  0  0  0
  3 17  1  0  0  0  0
  4 17  1  0  0  0  0
  4 14  1  0  0  0  0
  4  9  1  0  0  0  0
  5 10  1  0  0  0  0
  5  6  1  0  0  0  0
  6  2  1  0  0  0  0
  7 16  1  0  0  0  0
  9 16  1  0  0  0  0
 12 18  2  0  0  0  0
 15 21  1  0  0  0  0
 15 11  1  0  0  0  0
 15 14  1  0  0  0  0
 16 26  1  0  0  0  0
 17  7  1  0  0  0  0
 18 11  1  0  0  0  0
 19 25  1  0  0  0  0
 20 19  2  0  0  0  0
 21 23  2  0  0  0  0
 22 20  1  0  0  0  0
 23 19  1  0  0  0  0
 24 22  2  0  0  0  0
 24 21  1  0  0  0  0
 26 27  1  0  0  0  0
 27 29  1  0  0  0  0
 28 30  1  0  0  0  0
 29 33  1  0  0  0  0
 29 30  1  0  0  0  0
 30 34  1  0  0  0  0
 32 31  1  0  0  0  0
 33 32  1  0  0  0  0
 34 31  1  0  0  0  0
M  END
>  <MODEL>
7

>  <REMARK>
 VINA RESULT:      -7.0      2.475      3.401
  Name = 
  4 active torsions:
  status: ('A' for Active; 'I' for Inactive)
    1  A    between atoms: C_3  and  N_13
    2  A    between atoms: C_3  and  C_17
    3  A    between atoms: C_12  and  C_28
    4  A    between atoms: C_17  and  N_29
                            x       y       z     vdW  Elec       q    Type
                         _______ _______ _______ _____ _____    ______ ____

>  <TORSDO>
F 4

$$$$
=
 OpenBabel11052414093D

 34 39  0  0  1  0  0  0  0  0999 V2000
  186.6610  173.1790  135.6210 C   0  0  1  0  0  3  0  0  0  0  0  0
  189.0560  173.8470  135.3770 C   0  0  1  0  0  3  0  0  0  0  0  0
  187.2720  175.4840  136.2490 C   0  0  1  0  0  3  0  0  0  0  0  0
  187.8990  177.9620  136.5950 C   0  0  2  0  0  3  0  0  0  0  0  0
  188.2980  171.5380  134.7270 C   0  0  0  0  0  2  0  0  0  0  0  0
  189.4390  172.3690  135.3030 C   0  0  0  0  0  2  0  0  0  0  0  0
  188.9190  176.3620  138.0400 C   0  0  0  0  0  2  0  0  0  0  0  0
  187.7830  174.0330  136.2290 C   0  0  1  0  0  3  0  0  0  0  0  0
  188.9990  178.6230  137.4030 C   0  0  0  0  0  2  0  0  0  0  0  0
  187.0480  171.7070  135.5800 C   0  0  0  0  0  2  0  0  0  0  0  0
  186.0030  175.6120  137.0970 C   0  0  1  0  0  3  0  0  0  0  0  0
  185.4030  173.3450  136.3190 N   0  0  0  0  0  0  0  0  0  0  0  0
  190.1230  174.5360  135.9200 F   0  0  0  0  0  0  0  0  0  0  0  0
  186.3230  178.3150  137.4710 S   0  0  0  0  0  0  0  0  0  0  0  0
  185.3320  176.9520  136.7770 C   0  0  2  0  0  3  0  0  0  0  0  0
  189.5210  177.6500  138.3710 N   0  0  0  0  0  0  0  0  0  0  0  0
  188.3270  176.5160  136.6600 C   0  0  1  0  0  3  0  0  0  0  0  0
  185.0690  174.4290  136.9310 C   0  0  0  0  0  3  0  0  0  0  0  0
  182.4170  177.3300  139.1730 C   0  0  0  0  0  0  0  0  0  0  0  0
  181.3220  177.2610  138.3080 C   0  0  0  0  0  3  0  0  0  0  0  0
  183.9260  177.0590  137.2940 C   0  0  0  0  0  0  0  0  0  0  0  0
  181.5250  177.0910  136.9350 C   0  0  0  0  0  3  0  0  0  0  0  0
  183.7160  177.2280  138.6670 C   0  0  0  0  0  3  0  0  0  0  0  0
  182.8230  176.9890  136.4290 C   0  0  0  0  0  3  0  0  0  0  0  0
  182.2200  177.4950  140.5040 F   0  0  0  0  0  0  0  0  0  0  0  0
  189.0250  178.0220  139.6860 C   0  0  0  0  0  2  0  0  0  0  0  0
  189.9090  177.4160  140.7640 C   0  0  0  0  0  2  0  0  0  0  0  0
  190.8100  176.1050  143.3880 C   0  0  0  0  0  1  0  0  0  0  0  0
  189.1000  177.0660  141.9220 N   0  0  0  0  0  0  0  0  0  0  0  0
  189.9230  177.3100  143.1210 C   0  0  1  0  0  3  0  0  0  0  0  0
  187.6810  177.0320  144.2570 C   0  0  0  0  0  2  0  0  0  0  0  0
  186.9680  177.6080  143.0310 C   0  0  0  0  0  2  0  0  0  0  0  0
  187.9480  177.9700  141.9100 C   0  0  0  0  0  2  0  0  0  0  0  0
  189.0910  177.6010  144.3840 C   0  0  0  0  0  2  0  0  0  0  0  0
  1 10  1  1  0  0  0
  1  8  1  0  0  0  0
  1 12  1  0  0  0  0
  2 13  1  1  0  0  0
  2  8  1  0  0  0  0
  3 17  1  0  0  0  0
  3 11  1  0  0  0  0
  4 17  1  0  0  0  0
  4  9  1  0  0  0  0
  4 14  1  0  0  0  0
  5  6  1  0  0  0  0
  5 10  1  0  0  0  0
  6  2  1  0  0  0  0
  7 16  1  0  0  0  0
  8  3  1  0  0  0  0
  9 16  1  0  0  0  0
 12 18  2  0  0  0  0
 15 11  1  0  0  0  0
 15 21  1  0  0  0  0
 15 14  1  0  0  0  0
 16 26  1  0  0  0  0
 17  7  1  0  0  0  0
 18 11  1  0  0  0  0
 19 25  1  0  0  0  0
 20 19  2  0  0  0  0
 21 23  2  0  0  0  0
 22 20  1  0  0  0  0
 23 19  1  0  0  0  0
 24 22  2  0  0  0  0
 24 21  1  0  0  0  0
 26 27  1  0  0  0  0
 27 29  1  0  0  0  0
 29 30  1  0  0  0  0
 30 28  1  0  0  0  0
 30 34  1  0  0  0  0
 31 34  1  0  0  0  0
 32 31  1  0  0  0  0
 33 29  1  0  0  0  0
 33 32  1  0  0  0  0
M  END
>  <MODEL>
8

>  <REMARK>
 VINA RESULT:      -6.9      3.027      4.174
  Name = 
  4 active torsions:
  status: ('A' for Active; 'I' for Inactive)
    1  A    between atoms: C_3  and  N_13
    2  A    between atoms: C_3  and  C_17
    3  A    between atoms: C_12  and  C_28
    4  A    between atoms: C_17  and  N_29
                            x       y       z     vdW  Elec       q    Type
                         _______ _______ _______ _____ _____    ______ ____

>  <TORSDO>
F 4

$$$$
=
 OpenBabel11052414093D

 34 39  0  0  1  0  0  0  0  0999 V2000
  191.4160  174.2470  136.1710 C   0  0  1  0  0  3  0  0  0  0  0  0
  192.8000  175.9080  137.4220 C   0  0  1  0  0  3  0  0  0  0  0  0
  190.2320  176.0600  137.3500 C   0  0  1  0  0  3  0  0  0  0  0  0
  189.0650  178.1380  138.3350 C   0  0  2  0  0  3  0  0  0  0  0  0
  193.8920  174.0390  136.1400 C   0  0  0  0  0  2  0  0  0  0  0  0
  193.9780  174.9350  137.3710 C   0  0  0  0  0  2  0  0  0  0  0  0
  190.1740  176.6800  139.8610 C   0  0  0  0  0  2  0  0  0  0  0  0
  191.4630  175.1390  137.4200 C   0  0  1  0  0  3  0  0  0  0  0  0
  189.1330  178.7810  139.7070 C   0  0  0  0  0  2  0  0  0  0  0  0
  192.5800  173.2660  136.1490 C   0  0  0  0  0  2  0  0  0  0  0  0
  188.9330  175.2470  137.3390 C   0  0  1  0  0  3  0  0  0  0  0  0
  190.1610  173.5350  136.0490 N   0  0  0  0  0  0  0  0  0  0  0  0
  192.9310  176.6740  138.5640 F   0  0  0  0  0  0  0  0  0  0  0  0
  187.4060  177.3610  138.2040 S   0  0  0  0  0  0  0  0  0  0  0  0
  187.7880  176.1590  136.8870 C   0  0  2  0  0  3  0  0  0  0  0  0
  189.7040  177.8130  140.6520 N   0  0  0  0  0  0  0  0  0  0  0  0
  190.2020  177.1490  138.4270 C   0  0  1  0  0  3  0  0  0  0  0  0
  189.0440  173.9830  136.5090 C   0  0  0  0  0  3  0  0  0  0  0  0
  184.9910  173.6000  136.9770 C   0  0  0  0  0  0  0  0  0  0  0  0
  184.2040  173.9950  135.8920 C   0  0  0  0  0  3  0  0  0  0  0  0
  186.5340  175.4160  136.5260 C   0  0  0  0  0  0  0  0  0  0  0  0
  184.5790  175.1000  135.1210 C   0  0  0  0  0  3  0  0  0  0  0  0
  186.1540  174.3090  137.2930 C   0  0  0  0  0  3  0  0  0  0  0  0
  185.7410  175.8090  135.4370 C   0  0  0  0  0  3  0  0  0  0  0  0
  184.6280  172.5290  137.7230 F   0  0  0  0  0  0  0  0  0  0  0  0
  188.6240  177.3210  141.4920 C   0  0  0  0  0  2  0  0  0  0  0  0
  188.0870  178.4480  142.3590 C   0  0  0  0  0  2  0  0  0  0  0  0
  187.0670  177.2800  145.0060 C   0  0  0  0  0  1  0  0  0  0  0  0
  186.7160  178.1580  142.7470 N   0  0  0  0  0  0  0  0  0  0  0  0
  186.5910  178.4660  144.1830 C   0  0  1  0  0  3  0  0  0  0  0  0
  184.1320  178.2410  143.6370 C   0  0  0  0  0  2  0  0  0  0  0  0
  184.3840  178.7510  142.2150 C   0  0  0  0  0  2  0  0  0  0  0  0
  185.8650  179.0550  141.9640 C   0  0  0  0  0  2  0  0  0  0  0  0
  185.1550  178.8210  144.6100 C   0  0  0  0  0  2  0  0  0  0  0  0
  1 10  1  1  0  0  0
  1  8  1  0  0  0  0
  2 13  1  1  0  0  0
  3  8  1  0  0  0  0
  3 17  1  0  0  0  0
  4 17  1  0  0  0  0
  4  9  1  0  0  0  0
  5 10  1  0  0  0  0
  5  6  1  0  0  0  0
  6  2  1  0  0  0  0
  7 16  1  0  0  0  0
  8  2  1  0  0  0  0
  9 16  1  0  0  0  0
 11  3  1  0  0  0  0
 12  1  1  0  0  0  0
 12 18  2  0  0  0  0
 14  4  1  0  0  0  0
 15 11  1  0  0  0  0
 15 14  1  0  0  0  0
 16 26  1  0  0  0  0
 17  7  1  0  0  0  0
 18 11  1  0  0  0  0
 19 23  1  0  0  0  0
 19 25  1  0  0  0  0
 20 19  2  0  0  0  0
 21 15  1  0  0  0  0
 21 23  2  0  0  0  0
 22 24  2  0  0  0  0
 22 20  1  0  0  0  0
 24 21  1  0  0  0  0
 26 27  1  0  0  0  0
 27 29  1  0  0  0  0
 29 30  1  0  0  0  0
 30 34  1  0  0  0  0
 30 28  1  0  0  0  0
 31 34  1  0  0  0  0
 32 31  1  0  0  0  0
 33 32  1  0  0  0  0
 33 29  1  0  0  0  0
M  END
>  <MODEL>
9

>  <REMARK>
 VINA RESULT:      -6.8      1.579      2.047
  Name = 
  4 active torsions:
  status: ('A' for Active; 'I' for Inactive)
    1  A    between atoms: C_3  and  N_13
    2  A    between atoms: C_3  and  C_17
    3  A    between atoms: C_12  and  C_28
    4  A    between atoms: C_17  and  N_29
                            x       y       z     vdW  Elec       q    Type
                         _______ _______ _______ _____ _____    ______ ____

>  <TORSDO>
F 4

$$$$
