=
 OpenBabel11052415303D

 37 43  0  0  1  0  0  0  0  0999 V2000
  186.3720  177.0340  144.6500 C   0  0  0  0  0  2  0  0  0  0  0  0
  191.0430  178.5860  143.4960 C   0  0  0  0  0  0  0  0  0  0  0  0
  185.6290  178.3380  144.8960 C   0  0  1  0  0  3  0  0  0  0  0  0
  187.8370  178.4850  141.2970 C   0  0  1  0  0  3  0  0  0  0  0  0
  189.5810  178.7820  143.1960 C   0  0  1  0  0  3  0  0  0  0  0  0
  185.5520  180.0180  141.9910 O   0  0  0  0  0  0  0  0  0  0  0  0
  186.0490  178.3750  147.4070 C   0  0  0  0  0  2  0  0  0  0  0  0
  189.3050  178.3550  141.7400 C   0  0  1  0  0  3  0  0  0  0  0  0
  184.6770  178.6020  143.7460 C   0  0  0  0  0  2  0  0  0  0  0  0
  189.2440  177.6620  145.5610 C   0  0  2  0  0  3  0  0  0  0  0  0
  188.3480  177.6370  146.8200 C   0  0  2  0  0  3  0  0  0  0  0  0
  191.8050  177.5710  142.6940 C   0  0  0  0  0  2  0  0  0  0  0  0
  185.0050  178.4380  146.2780 C   0  0  0  0  0  2  0  0  0  0  0  0
  187.4450  178.8570  146.9950 C   0  0  0  0  0  2  0  0  0  0  0  0
  185.4970  178.6930  142.4590 C   0  0  2  0  0  0  0  0  0  0  0  0
  187.1080  177.1500  141.1230 C   0  0  0  0  0  2  0  0  0  0  0  0
  191.7000  179.4710  144.2400 C   0  0  0  0  0  2  0  0  0  0  0  0
  188.5910  178.1970  144.2480 C   0  0  2  0  0  3  0  0  0  0  0  0
  190.0330  177.0570  141.2970 C   0  0  2  0  0  3  0  0  0  0  0  0
  186.8720  177.9730  142.3660 C   0  0  1  0  0  0  0  0  0  0  0  0
  184.7820  179.1100  141.2340 C   0  0  0  0  0  2  0  0  0  0  0  0
  187.4770  177.3170  143.6330 C   0  0  2  0  0  3  0  0  0  0  0  0
  190.9400  176.5450  142.2590 O   0  0  0  0  0  0  0  0  0  0  0  0
  191.7830  177.8950  139.7130 O   0  0  0  0  0  1  0  0  0  0  0  0
  190.6480  177.0890  139.8880 C   0  0  1  0  0  0  0  0  0  0  0  0
  190.1710  177.8140  137.4950 C   0  0  0  0  0  1  0  0  0  0  0  0
  190.6010  175.8030  139.0680 C   0  0  1  0  0  3  0  0  0  0  0  0
  189.6960  177.0030  138.6990 C   0  0  1  0  0  3  0  0  0  0  0  0
  191.6830  174.3530  137.3580 C   0  0  0  0  0  1  0  0  0  0  0  0
  191.8340  175.6150  138.1840 C   0  0  0  0  0  2  0  0  0  0  0  0
  190.0290  176.3510  145.3710 C   0  0  0  0  0  2  0  0  0  0  0  0
  191.4460  176.3870  145.9320 C   0  0  0  0  0  2  0  0  0  0  0  0
  191.6570  175.2650  146.9290 C   0  0  0  0  0  2  0  0  0  0  0  0
  192.7880  175.6250  147.8670 C   0  0  0  0  0  1  0  0  0  0  0  0
  189.1490  177.3760  148.0980 C   0  0  0  0  0  2  0  0  0  0  0  0
  189.8050  178.6390  148.6310 C   0  0  0  0  0  2  0  0  0  0  0  0
  191.1800  178.3070  149.1710 C   0  0  0  0  0  1  0  0  0  0  0  0
  1  3  1  0  0  0  0
  2 17  2  0  0  0  0
  3  9  1  6  0  0  0
  3 13  1  0  0  0  0
  4 16  1  6  0  0  0
  4  8  1  0  0  0  0
  4 20  1  0  0  0  0
  5  2  1  1  0  0  0
  5 18  1  0  0  0  0
  6 15  1  0  0  0  0
  8  5  1  0  0  0  0
 10 11  1  0  0  0  0
 11 14  1  0  0  0  0
 11 35  1  0  0  0  0
 12  2  1  0  0  0  0
 13  7  1  0  0  0  0
 14  7  1  0  0  0  0
 15  9  1  0  0  0  0
 16 20  1  0  0  0  0
 18 10  1  0  0  0  0
 19  8  1  0  0  0  0
 19 23  1  0  0  0  0
 20 15  1  0  0  0  0
 20 22  1  0  0  0  0
 21  6  1  0  0  0  0
 21 15  1  0  0  0  0
 22 18  1  0  0  0  0
 22  1  1  0  0  0  0
 23 12  1  0  0  0  0
 24 25  1  0  0  0  0
 25 19  1  0  0  0  0
 26 28  1  0  0  0  0
 27 25  1  0  0  0  0
 28 27  1  0  0  0  0
 28 25  1  0  0  0  0
 29 30  1  0  0  0  0
 30 27  1  0  0  0  0
 31 10  1  0  0  0  0
 31 32  1  0  0  0  0
 32 33  1  0  0  0  0
 33 34  1  0  0  0  0
 35 36  1  0  0  0  0
 36 37  1  0  0  0  0
M  END
>  <MODEL>
1

>  <REMARK>
 VINA RESULT:      -6.8      0.000      0.000
  Name = 
  7 active torsions:
  status: ('A' for Active; 'I' for Inactive)
    1  A    between atoms: C_3  and  C_32
    2  A    between atoms: C_8  and  C_31
    3  A    between atoms: C_9  and  C_13
    4  A    between atoms: C_9  and  C_16
    5  A    between atoms: C_13  and  C_20
    6  A    between atoms: C_18  and  C_35
    7  A    between atoms: C_21  and  C_32
                            x       y       z     vdW  Elec       q    Type
                         _______ _______ _______ _____ _____    ______ ____

>  <TORSDO>
F 7

$$$$
=
 OpenBabel11052415303D

 37 43  0  0  1  0  0  0  0  0999 V2000
  186.7900  176.7650  145.3640 C   0  0  0  0  0  2  0  0  0  0  0  0
  190.7400  178.2980  142.6070 C   0  0  0  0  0  0  0  0  0  0  0  0
  186.4390  178.0020  146.1770 C   0  0  1  0  0  3  0  0  0  0  0  0
  186.9400  178.9430  142.0890 C   0  0  1  0  0  3  0  0  0  0  0  0
  189.3390  178.6460  143.0340 C   0  0  1  0  0  3  0  0  0  0  0  0
  185.4330  180.3720  144.0230 O   0  0  0  0  0  0  0  0  0  0  0  0
  187.8670  177.3710  148.1890 C   0  0  0  0  0  2  0  0  0  0  0  0
  188.4160  178.6220  141.7980 C   0  0  1  0  0  3  0  0  0  0  0  0
  185.1520  178.6050  145.6510 C   0  0  0  0  0  2  0  0  0  0  0  0
  189.8410  176.9780  145.0150 C   0  0  2  0  0  3  0  0  0  0  0  0
  189.5600  176.6810  146.5060 C   0  0  2  0  0  3  0  0  0  0  0  0
  190.9230  177.4820  141.3600 C   0  0  0  0  0  2  0  0  0  0  0  0
  186.4730  177.7790  147.6800 C   0  0  0  0  0  2  0  0  0  0  0  0
  189.0230  177.8650  147.3100 C   0  0  0  0  0  2  0  0  0  0  0  0
  185.3640  178.9760  144.1840 C   0  0  2  0  0  0  0  0  0  0  0  0
  185.9990  177.7390  141.9850 C   0  0  0  0  0  2  0  0  0  0  0  0
  191.7810  178.9250  143.1460 C   0  0  0  0  0  2  0  0  0  0  0  0
  188.7960  177.8660  144.2700 C   0  0  2  0  0  3  0  0  0  0  0  0
  188.6730  177.4420  140.8210 C   0  0  2  0  0  3  0  0  0  0  0  0
  186.4390  178.2290  143.3440 C   0  0  1  0  0  0  0  0  0  0  0  0
  184.2820  179.7320  143.5170 C   0  0  0  0  0  2  0  0  0  0  0  0
  187.4010  177.2370  144.0460 C   0  0  2  0  0  3  0  0  0  0  0  0
  189.8020  176.6510  141.1530 O   0  0  0  0  0  0  0  0  0  0  0  0
  189.0230  179.1040  138.9810 O   0  0  0  0  0  1  0  0  0  0  0  0
  188.6420  177.8000  139.3260 C   0  0  1  0  0  0  0  0  0  0  0  0
  187.0570  178.0950  137.3560 C   0  0  0  0  0  1  0  0  0  0  0  0
  189.0110  176.7040  138.3300 C   0  0  1  0  0  3  0  0  0  0  0  0
  187.5430  177.1730  138.4730 C   0  0  1  0  0  3  0  0  0  0  0  0
  190.9480  176.3520  136.8070 C   0  0  0  0  0  1  0  0  0  0  0  0
  189.7550  177.2370  137.1060 C   0  0  0  0  0  2  0  0  0  0  0  0
  190.2520  175.7180  144.2310 C   0  0  0  0  0  2  0  0  0  0  0  0
  191.7540  175.5820  144.0140 C   0  0  0  0  0  2  0  0  0  0  0  0
  192.3660  174.6630  145.0530 C   0  0  0  0  0  2  0  0  0  0  0  0
  191.9800  173.2320  144.7540 C   0  0  0  0  0  1  0  0  0  0  0  0
  190.7660  176.0580  147.2110 C   0  0  0  0  0  2  0  0  0  0  0  0
  191.6260  177.1010  147.9050 C   0  0  0  0  0  2  0  0  0  0  0  0
  192.7800  176.4190  148.6100 C   0  0  0  0  0  1  0  0  0  0  0  0
  2 17  2  0  0  0  0
  3  1  1  6  0  0  0
  3 13  1  0  0  0  0
  4 16  1  6  0  0  0
  4 20  1  0  0  0  0
  5  2  1  6  0  0  0
  5 18  1  0  0  0  0
  6 15  1  0  0  0  0
  8  4  1  0  0  0  0
  8  5  1  0  0  0  0
  9  3  1  0  0  0  0
 10 11  1  0  0  0  0
 11 35  1  0  0  0  0
 11 14  1  0  0  0  0
 12  2  1  0  0  0  0
 13  7  1  0  0  0  0
 14  7  1  0  0  0  0
 15  9  1  0  0  0  0
 16 20  1  0  0  0  0
 18 10  1  0  0  0  0
 19 23  1  0  0  0  0
 19  8  1  0  0  0  0
 20 22  1  0  0  0  0
 20 15  1  0  0  0  0
 21  6  1  0  0  0  0
 21 15  1  0  0  0  0
 22 18  1  0  0  0  0
 22  1  1  0  0  0  0
 23 12  1  0  0  0  0
 24 25  1  0  0  0  0
 25 19  1  0  0  0  0
 26 28  1  0  0  0  0
 27 28  1  0  0  0  0
 27 25  1  0  0  0  0
 28 25  1  0  0  0  0
 29 30  1  0  0  0  0
 30 27  1  0  0  0  0
 31 10  1  0  0  0  0
 32 31  1  0  0  0  0
 32 33  1  0  0  0  0
 34 33  1  0  0  0  0
 35 36  1  0  0  0  0
 36 37  1  0  0  0  0
M  END
>  <MODEL>
2

>  <REMARK>
 VINA RESULT:      -6.5      1.494      1.968
  Name = 
  7 active torsions:
  status: ('A' for Active; 'I' for Inactive)
    1  A    between atoms: C_3  and  C_32
    2  A    between atoms: C_8  and  C_31
    3  A    between atoms: C_9  and  C_13
    4  A    between atoms: C_9  and  C_16
    5  A    between atoms: C_13  and  C_20
    6  A    between atoms: C_18  and  C_35
    7  A    between atoms: C_21  and  C_32
                            x       y       z     vdW  Elec       q    Type
                         _______ _______ _______ _____ _____    ______ ____

>  <TORSDO>
F 7

$$$$
=
 OpenBabel11052415303D

 37 43  0  0  1  0  0  0  0  0999 V2000
  183.8410  177.5590  141.9580 C   0  0  0  0  0  2  0  0  0  0  0  0
  188.7070  178.7600  141.2960 C   0  0  0  0  0  0  0  0  0  0  0  0
  183.1740  178.9150  142.1300 C   0  0  1  0  0  3  0  0  0  0  0  0
  185.7450  178.8840  138.7780 C   0  0  1  0  0  3  0  0  0  0  0  0
  187.3020  179.0610  140.8480 C   0  0  1  0  0  3  0  0  0  0  0  0
  183.5200  180.5830  139.2380 O   0  0  0  0  0  0  0  0  0  0  0  0
  183.3360  178.9320  144.6710 C   0  0  0  0  0  2  0  0  0  0  0  0
  187.1470  178.6490  139.3690 C   0  0  1  0  0  3  0  0  0  0  0  0
  182.3670  179.2430  140.8900 C   0  0  0  0  0  2  0  0  0  0  0  0
  186.6430  177.9800  143.1620 C   0  0  2  0  0  3  0  0  0  0  0  0
  185.6230  178.0250  144.3220 C   0  0  2  0  0  3  0  0  0  0  0  0
  189.4710  177.6880  140.5730 C   0  0  0  0  0  2  0  0  0  0  0  0
  182.4210  179.0660  143.4410 C   0  0  0  0  0  2  0  0  0  0  0  0
  184.7980  179.3100  144.4070 C   0  0  0  0  0  2  0  0  0  0  0  0
  183.3200  179.2680  139.6940 C   0  0  2  0  0  0  0  0  0  0  0  0
  184.9430  177.6050  138.5260 C   0  0  0  0  0  2  0  0  0  0  0  0
  189.3480  179.5970  142.1060 C   0  0  0  0  0  2  0  0  0  0  0  0
  186.1690  178.5540  141.7900 C   0  0  2  0  0  3  0  0  0  0  0  0
  187.8200  177.2990  139.0000 C   0  0  2  0  0  3  0  0  0  0  0  0
  184.6410  178.4490  139.7410 C   0  0  1  0  0  0  0  0  0  0  0  0
  182.7680  179.7310  138.4030 C   0  0  0  0  0  2  0  0  0  0  0  0
  185.0630  177.7560  141.0610 C   0  0  2  0  0  3  0  0  0  0  0  0
  188.5830  176.7260  140.0480 O   0  0  0  0  0  0  0  0  0  0  0  0
  189.1070  178.5000  137.2180 O   0  0  0  0  0  1  0  0  0  0  0  0
  188.5770  177.2800  137.6620 C   0  0  1  0  0  0  0  0  0  0  0  0
  188.2540  176.8920  135.1670 C   0  0  0  0  0  1  0  0  0  0  0  0
  189.3890  176.0320  137.3280 C   0  0  1  0  0  3  0  0  0  0  0  0
  188.0700  176.3340  136.5770 C   0  0  1  0  0  3  0  0  0  0  0  0
  191.8560  176.3170  137.5000 C   0  0  0  0  0  1  0  0  0  0  0  0
  190.6710  176.3430  136.5560 C   0  0  0  0  0  2  0  0  0  0  0  0
  187.3450  176.6140  143.0490 C   0  0  0  0  0  2  0  0  0  0  0  0
  188.5860  176.4780  143.9250 C   0  0  0  0  0  2  0  0  0  0  0  0
  189.6700  175.7030  143.2020 C   0  0  0  0  0  2  0  0  0  0  0  0
  191.0280  176.2200  143.6220 C   0  0  0  0  0  1  0  0  0  0  0  0
  186.2670  177.7120  145.6740 C   0  0  0  0  0  2  0  0  0  0  0  0
  186.1530  178.8750  146.6460 C   0  0  0  0  0  2  0  0  0  0  0  0
  187.0900  178.6530  147.8150 C   0  0  0  0  0  1  0  0  0  0  0  0
  1  3  1  0  0  0  0
  2 17  2  0  0  0  0
  3  9  1  6  0  0  0
  3 13  1  0  0  0  0
  4 16  1  6  0  0  0
  4  8  1  0  0  0  0
  4 20  1  0  0  0  0
  5  2  1  1  0  0  0
  5 18  1  0  0  0  0
  6 15  1  0  0  0  0
  8  5  1  0  0  0  0
 10 11  1  0  0  0  0
 11 14  1  0  0  0  0
 11 35  1  0  0  0  0
 12  2  1  0  0  0  0
 13  7  1  0  0  0  0
 14  7  1  0  0  0  0
 15 20  1  0  0  0  0
 15  9  1  0  0  0  0
 16 20  1  0  0  0  0
 18 10  1  0  0  0  0
 19  8  1  0  0  0  0
 19 23  1  0  0  0  0
 20 22  1  0  0  0  0
 21  6  1  0  0  0  0
 21 15  1  0  0  0  0
 22 18  1  0  0  0  0
 22  1  1  0  0  0  0
 23 12  1  0  0  0  0
 24 25  1  0  0  0  0
 25 19  1  0  0  0  0
 26 28  1  0  0  0  0
 27 25  1  0  0  0  0
 28 27  1  0  0  0  0
 28 25  1  0  0  0  0
 30 27  1  0  0  0  0
 30 29  1  0  0  0  0
 31 10  1  0  0  0  0
 31 32  1  0  0  0  0
 33 34  1  0  0  0  0
 33 32  1  0  0  0  0
 35 36  1  0  0  0  0
 36 37  1  0  0  0  0
M  END
>  <MODEL>
3

>  <REMARK>
 VINA RESULT:      -5.5      2.179      3.485
  Name = 
  7 active torsions:
  status: ('A' for Active; 'I' for Inactive)
    1  A    between atoms: C_3  and  C_32
    2  A    between atoms: C_8  and  C_31
    3  A    between atoms: C_9  and  C_13
    4  A    between atoms: C_9  and  C_16
    5  A    between atoms: C_13  and  C_20
    6  A    between atoms: C_18  and  C_35
    7  A    between atoms: C_21  and  C_32
                            x       y       z     vdW  Elec       q    Type
                         _______ _______ _______ _____ _____    ______ ____

>  <TORSDO>
F 7

$$$$
=
 OpenBabel11052415303D

 37 43  0  0  1  0  0  0  0  0999 V2000
  184.2910  173.0980  137.5680 C   0  0  0  0  0  2  0  0  0  0  0  0
  187.2740  176.7010  135.6500 C   0  0  0  0  0  0  0  0  0  0  0  0
  183.6790  172.4640  136.3280 C   0  0  1  0  0  3  0  0  0  0  0  0
  187.8670  172.8680  135.9370 C   0  0  1  0  0  3  0  0  0  0  0  0
  186.8990  175.2460  135.5560 C   0  0  1  0  0  3  0  0  0  0  0  0
  186.1710  171.0320  134.5940 O   0  0  0  0  0  0  0  0  0  0  0  0
  181.6010  173.9350  136.3170 C   0  0  0  0  0  2  0  0  0  0  0  0
  188.1110  174.3870  135.9690 C   0  0  1  0  0  3  0  0  0  0  0  0
  184.2860  171.0920  136.1090 C   0  0  0  0  0  2  0  0  0  0  0  0
  184.6850  176.0390  136.7500 C   0  0  2  0  0  3  0  0  0  0  0  0
  183.1650  175.7850  136.8700 C   0  0  2  0  0  3  0  0  0  0  0  0
  188.3790  177.0930  136.5880 C   0  0  0  0  0  2  0  0  0  0  0  0
  182.1600  172.5020  136.3060 C   0  0  0  0  0  2  0  0  0  0  0  0
  182.5510  174.9810  135.7240 C   0  0  0  0  0  2  0  0  0  0  0  0
  185.7950  171.2620  135.9290 C   0  0  2  0  0  0  0  0  0  0  0  0
  187.7770  172.2140  137.3190 C   0  0  0  0  0  2  0  0  0  0  0  0
  186.8440  177.5660  134.7360 C   0  0  0  0  0  2  0  0  0  0  0  0
  185.5540  174.8490  136.2360 C   0  0  2  0  0  3  0  0  0  0  0  0
  188.8940  174.9220  137.1990 C   0  0  2  0  0  3  0  0  0  0  0  0
  186.5130  172.4980  136.5430 C   0  0  1  0  0  0  0  0  0  0  0  0
  186.5660  170.0620  135.5390 C   0  0  0  0  0  2  0  0  0  0  0  0
  185.6700  173.6300  137.1810 C   0  0  2  0  0  3  0  0  0  0  0  0
  188.4490  176.1840  137.6650 O   0  0  0  0  0  0  0  0  0  0  0  0
  191.1530  175.0850  138.2670 O   0  0  0  0  0  1  0  0  0  0  0  0
  190.4260  174.8570  137.0900 C   0  0  1  0  0  0  0  0  0  0  0  0
  192.4230  176.0220  136.0240 C   0  0  0  0  0  1  0  0  0  0  0  0
  191.0230  173.8470  136.1140 C   0  0  1  0  0  3  0  0  0  0  0  0
  191.0640  175.3610  135.7990 C   0  0  1  0  0  3  0  0  0  0  0  0
  192.7300  172.0770  135.7260 C   0  0  0  0  0  1  0  0  0  0  0  0
  192.3360  173.2430  136.6110 C   0  0  0  0  0  2  0  0  0  0  0  0
  185.2650  176.7350  137.9950 C   0  0  0  0  0  2  0  0  0  0  0  0
  185.1990  178.2570  137.9440 C   0  0  0  0  0  2  0  0  0  0  0  0
  184.7670  178.8210  139.2840 C   0  0  0  0  0  2  0  0  0  0  0  0
  183.6160  179.7820  139.0820 C   0  0  0  0  0  1  0  0  0  0  0  0
  182.3770  177.0770  137.1000 C   0  0  0  0  0  2  0  0  0  0  0  0
  181.3710  176.9400  138.2310 C   0  0  0  0  0  2  0  0  0  0  0  0
  181.9950  176.1650  139.3730 C   0  0  0  0  0  1  0  0  0  0  0  0
  2 12  1  0  0  0  0
  3  9  1  1  0  0  0
  3  1  1  0  0  0  0
  4  8  1  0  0  0  0
  4 20  1  0  0  0  0
  4 16  1  1  0  0  0
  5  2  1  1  0  0  0
  5  8  1  0  0  0  0
  5 18  1  0  0  0  0
  6 21  1  0  0  0  0
  6 15  1  0  0  0  0
  8 19  1  0  0  0  0
 10 11  1  0  0  0  0
 10 31  1  0  0  0  0
 11 35  1  0  0  0  0
 12 23  1  0  0  0  0
 13  7  1  0  0  0  0
 13  3  1  0  0  0  0
 14  7  1  0  0  0  0
 14 11  1  0  0  0  0
 15  9  1  0  0  0  0
 15 20  1  0  0  0  0
 17  2  2  0  0  0  0
 18 10  1  0  0  0  0
 18 22  1  0  0  0  0
 19 23  1  0  0  0  0
 20 22  1  0  0  0  0
 20 16  1  0  0  0  0
 21 15  1  0  0  0  0
 22  1  1  0  0  0  0
 25 19  1  0  0  0  0
 25 24  1  0  0  0  0
 27 30  1  0  0  0  0
 27 25  1  0  0  0  0
 28 26  1  0  0  0  0
 28 27  1  0  0  0  0
 28 25  1  0  0  0  0
 29 30  1  0  0  0  0
 32 31  1  0  0  0  0
 32 33  1  0  0  0  0
 34 33  1  0  0  0  0
 35 36  1  0  0  0  0
 36 37  1  0  0  0  0
M  END
>  <MODEL>
4

>  <REMARK>
 VINA RESULT:      -5.2      6.596      9.259
  Name = 
  7 active torsions:
  status: ('A' for Active; 'I' for Inactive)
    1  A    between atoms: C_3  and  C_32
    2  A    between atoms: C_8  and  C_31
    3  A    between atoms: C_9  and  C_13
    4  A    between atoms: C_9  and  C_16
    5  A    between atoms: C_13  and  C_20
    6  A    between atoms: C_18  and  C_35
    7  A    between atoms: C_21  and  C_32
                            x       y       z     vdW  Elec       q    Type
                         _______ _______ _______ _____ _____    ______ ____

>  <TORSDO>
F 7

$$$$
=
 OpenBabel11052415303D

 37 43  0  0  1  0  0  0  0  0999 V2000
  188.5510  178.9970  140.6390 C   0  0  0  0  0  2  0  0  0  0  0  0
  188.8600  175.6740  136.8420 C   0  0  0  0  0  0  0  0  0  0  0  0
  187.9350  178.1770  141.7620 C   0  0  1  0  0  3  0  0  0  0  0  0
  191.1530  176.1250  139.9510 C   0  0  1  0  0  3  0  0  0  0  0  0
  189.1640  175.8960  138.2990 C   0  0  1  0  0  3  0  0  0  0  0  0
  190.1290  175.7700  142.5730 O   0  0  0  0  0  0  0  0  0  0  0  0
  185.5300  178.8240  141.2300 C   0  0  0  0  0  2  0  0  0  0  0  0
  190.6930  175.8890  138.5020 C   0  0  1  0  0  3  0  0  0  0  0  0
  188.9880  177.8890  142.8140 C   0  0  0  0  0  2  0  0  0  0  0  0
  187.3190  177.7710  138.0980 C   0  0  2  0  0  3  0  0  0  0  0  0
  186.1920  178.5070  138.8560 C   0  0  2  0  0  3  0  0  0  0  0  0
  189.9050  176.0500  135.8310 C   0  0  0  0  0  2  0  0  0  0  0  0
  186.6340  178.7520  142.3000 C   0  0  0  0  0  2  0  0  0  0  0  0
  185.6800  177.7920  140.1060 C   0  0  0  0  0  2  0  0  0  0  0  0
  190.1240  177.1110  142.1500 C   0  0  2  0  0  0  0  0  0  0  0  0
  191.7970  177.4930  140.1950 C   0  0  0  0  0  2  0  0  0  0  0  0
  187.8320  174.9140  136.4790 C   0  0  0  0  0  2  0  0  0  0  0  0
  188.4200  177.0910  138.9700 C   0  0  2  0  0  3  0  0  0  0  0  0
  191.4930  176.6440  137.4060 C   0  0  2  0  0  3  0  0  0  0  0  0
  190.3680  177.2520  140.6210 C   0  0  1  0  0  0  0  0  0  0  0  0
  191.1850  176.5840  143.0350 C   0  0  0  0  0  2  0  0  0  0  0  0
  189.3530  178.0420  139.7560 C   0  0  2  0  0  3  0  0  0  0  0  0
  190.7010  177.1050  136.3240 O   0  0  0  0  0  0  0  0  0  0  0  0
  193.8310  176.7780  136.5180 O   0  0  0  0  0  1  0  0  0  0  0  0
  192.7760  175.9480  136.9220 C   0  0  1  0  0  0  0  0  0  0  0  0
  193.6840  174.4500  135.0750 C   0  0  0  0  0  1  0  0  0  0  0  0
  193.1690  174.6410  137.6050 C   0  0  1  0  0  3  0  0  0  0  0  0
  192.6220  174.6360  136.1570 C   0  0  1  0  0  3  0  0  0  0  0  0
  194.9950  173.0950  138.2910 C   0  0  0  0  0  1  0  0  0  0  0  0
  194.6830  174.4690  137.7350 C   0  0  0  0  0  2  0  0  0  0  0  0
  187.8820  178.6010  136.9300 C   0  0  0  0  0  2  0  0  0  0  0  0
  186.8570  178.9360  135.8530 C   0  0  0  0  0  2  0  0  0  0  0  0
  186.9230  177.9320  134.7190 C   0  0  0  0  0  2  0  0  0  0  0  0
  185.5970  177.2140  134.5990 C   0  0  0  0  0  1  0  0  0  0  0  0
  185.0260  178.8860  137.9400 C   0  0  0  0  0  2  0  0  0  0  0  0
  183.9380  177.8260  137.9310 C   0  0  0  0  0  2  0  0  0  0  0  0
  182.5900  178.4800  138.1540 C   0  0  0  0  0  1  0  0  0  0  0  0
  3  1  1  6  0  0  0
  3 13  1  0  0  0  0
  3  9  1  0  0  0  0
  4 16  1  6  0  0  0
  4 20  1  0  0  0  0
  5  2  1  6  0  0  0
  5  8  1  0  0  0  0
  5 18  1  0  0  0  0
  6 21  1  0  0  0  0
  7 13  1  0  0  0  0
  8  4  1  0  0  0  0
 10 11  1  0  0  0  0
 10 18  1  0  0  0  0
 11 14  1  0  0  0  0
 12 23  1  0  0  0  0
 12  2  1  0  0  0  0
 14  7  1  0  0  0  0
 15  6  1  0  0  0  0
 15  9  1  0  0  0  0
 15 21  1  0  0  0  0
 16 20  1  0  0  0  0
 17  2  2  0  0  0  0
 18 22  1  0  0  0  0
 19  8  1  0  0  0  0
 20 15  1  0  0  0  0
 22 20  1  0  0  0  0
 22  1  1  0  0  0  0
 23 19  1  0  0  0  0
 24 25  1  0  0  0  0
 25 19  1  0  0  0  0
 25 27  1  0  0  0  0
 26 28  1  0  0  0  0
 27 30  1  0  0  0  0
 28 25  1  0  0  0  0
 28 27  1  0  0  0  0
 30 29  1  0  0  0  0
 31 10  1  0  0  0  0
 32 31  1  0  0  0  0
 33 32  1  0  0  0  0
 34 33  1  0  0  0  0
 35 11  1  0  0  0  0
 36 35  1  0  0  0  0
 36 37  1  0  0  0  0
M  END
>  <MODEL>
5

>  <REMARK>
 VINA RESULT:      -5.0      3.158      7.401
  Name = 
  7 active torsions:
  status: ('A' for Active; 'I' for Inactive)
    1  A    between atoms: C_3  and  C_32
    2  A    between atoms: C_8  and  C_31
    3  A    between atoms: C_9  and  C_13
    4  A    between atoms: C_9  and  C_16
    5  A    between atoms: C_13  and  C_20
    6  A    between atoms: C_18  and  C_35
    7  A    between atoms: C_21  and  C_32
                            x       y       z     vdW  Elec       q    Type
                         _______ _______ _______ _____ _____    ______ ____

>  <TORSDO>
F 7

$$$$
=
 OpenBabel11052415303D

 37 43  0  0  1  0  0  0  0  0999 V2000
  181.4530  175.2270  139.8430 C   0  0  0  0  0  2  0  0  0  0  0  0
  184.1960  179.2850  138.5930 C   0  0  0  0  0  0  0  0  0  0  0  0
  180.1270  175.4810  139.1430 C   0  0  1  0  0  3  0  0  0  0  0  0
  183.3860  176.0920  136.5250 C   0  0  1  0  0  3  0  0  0  0  0  0
  183.3160  178.1900  138.0510 C   0  0  1  0  0  3  0  0  0  0  0  0
  180.7090  175.4480  135.8380 O   0  0  0  0  0  0  0  0  0  0  0  0
  179.0280  176.6220  141.1360 C   0  0  0  0  0  2  0  0  0  0  0  0
  184.1570  177.2740  137.1390 C   0  0  1  0  0  3  0  0  0  0  0  0
  179.9900  174.5410  137.9620 C   0  0  0  0  0  2  0  0  0  0  0  0
  182.4500  178.0550  140.5390 C   0  0  2  0  0  3  0  0  0  0  0  0
  181.2170  177.7620  141.4230 C   0  0  2  0  0  3  0  0  0  0  0  0
  185.6740  179.0310  138.6840 C   0  0  0  0  0  2  0  0  0  0  0  0
  178.9320  175.5050  140.0820 C   0  0  0  0  0  2  0  0  0  0  0  0
  179.8730  177.8240  140.6990 C   0  0  0  0  0  2  0  0  0  0  0  0
  181.1540  174.8050  137.0060 C   0  0  2  0  0  0  0  0  0  0  0  0
  183.7520  174.7260  137.1120 C   0  0  0  0  0  2  0  0  0  0  0  0
  183.7280  180.5230  138.7170 C   0  0  0  0  0  2  0  0  0  0  0  0
  182.4430  177.4420  139.1040 C   0  0  2  0  0  3  0  0  0  0  0  0
  185.5760  176.9490  137.6800 C   0  0  2  0  0  3  0  0  0  0  0  0
  182.4800  175.4110  137.5500 C   0  0  1  0  0  0  0  0  0  0  0  0
  181.1260  174.1070  135.7020 C   0  0  0  0  0  2  0  0  0  0  0  0
  182.5480  175.9020  139.0180 C   0  0  2  0  0  3  0  0  0  0  0  0
  185.9210  177.6540  138.8600 O   0  0  0  0  0  0  0  0  0  0  0  0
  186.5720  177.9070  135.5900 O   0  0  0  0  0  1  0  0  0  0  0  0
  186.7070  176.9850  136.6390 C   0  0  1  0  0  0  0  0  0  0  0  0
  187.8240  175.5890  134.8260 C   0  0  0  0  0  1  0  0  0  0  0  0
  188.1280  176.7280  137.1310 C   0  0  1  0  0  3  0  0  0  0  0  0
  187.3860  175.6640  136.2880 C   0  0  1  0  0  3  0  0  0  0  0  0
  189.1470  178.9830  136.8630 C   0  0  0  0  0  1  0  0  0  0  0  0
  189.1770  177.5480  136.3790 C   0  0  0  0  0  2  0  0  0  0  0  0
  183.7770  177.8460  141.2930 C   0  0  0  0  0  2  0  0  0  0  0  0
  184.1150  178.9590  142.2780 C   0  0  0  0  0  2  0  0  0  0  0  0
  184.8450  178.4030  143.4850 C   0  0  0  0  0  2  0  0  0  0  0  0
  184.5700  179.2750  144.6900 C   0  0  0  0  0  1  0  0  0  0  0  0
  181.1870  178.6290  142.6840 C   0  0  0  0  0  2  0  0  0  0  0  0
  179.8790  179.3900  142.8240 C   0  0  0  0  0  2  0  0  0  0  0  0
  179.2600  179.0900  144.1730 C   0  0  0  0  0  1  0  0  0  0  0  0
  2 12  1  0  0  0  0
  2 17  2  0  0  0  0
  3  9  1  6  0  0  0
  3  1  1  0  0  0  0
  3 13  1  0  0  0  0
  4 16  1  1  0  0  0
  4  8  1  0  0  0  0
  4 20  1  0  0  0  0
  5  2  1  1  0  0  0
  5 18  1  0  0  0  0
  6 15  1  0  0  0  0
  8 19  1  0  0  0  0
  8  5  1  0  0  0  0
 10 31  1  0  0  0  0
 10 11  1  0  0  0  0
 11 35  1  0  0  0  0
 12 23  1  0  0  0  0
 13  7  1  0  0  0  0
 14  7  1  0  0  0  0
 14 11  1  0  0  0  0
 15 20  1  0  0  0  0
 15  9  1  0  0  0  0
 16 20  1  0  0  0  0
 18 10  1  0  0  0  0
 19 23  1  0  0  0  0
 20 22  1  0  0  0  0
 21  6  1  0  0  0  0
 21 15  1  0  0  0  0
 22 18  1  0  0  0  0
 22  1  1  0  0  0  0
 24 25  1  0  0  0  0
 25 27  1  0  0  0  0
 25 19  1  0  0  0  0
 26 28  1  0  0  0  0
 28 25  1  0  0  0  0
 28 27  1  0  0  0  0
 30 29  1  0  0  0  0
 30 27  1  0  0  0  0
 31 32  1  0  0  0  0
 32 33  1  0  0  0  0
 33 34  1  0  0  0  0
 35 36  1  0  0  0  0
 36 37  1  0  0  0  0
M  END
>  <MODEL>
6

>  <REMARK>
 VINA RESULT:      -4.9      4.864      7.926
  Name = 
  7 active torsions:
  status: ('A' for Active; 'I' for Inactive)
    1  A    between atoms: C_3  and  C_32
    2  A    between atoms: C_8  and  C_31
    3  A    between atoms: C_9  and  C_13
    4  A    between atoms: C_9  and  C_16
    5  A    between atoms: C_13  and  C_20
    6  A    between atoms: C_18  and  C_35
    7  A    between atoms: C_21  and  C_32
                            x       y       z     vdW  Elec       q    Type
                         _______ _______ _______ _____ _____    ______ ____

>  <TORSDO>
F 7

$$$$
=
 OpenBabel11052415303D

 37 43  0  0  1  0  0  0  0  0999 V2000
  184.9140  179.7520  142.8380 C   0  0  0  0  0  2  0  0  0  0  0  0
  184.5280  177.4140  138.3730 C   0  0  0  0  0  0  0  0  0  0  0  0
  184.7170  178.6210  143.8360 C   0  0  1  0  0  3  0  0  0  0  0  0
  187.5190  177.5680  140.8540 C   0  0  1  0  0  3  0  0  0  0  0  0
  185.1910  177.3680  139.7240 C   0  0  1  0  0  3  0  0  0  0  0  0
  187.2910  176.4970  143.4720 O   0  0  0  0  0  0  0  0  0  0  0  0
  182.2040  178.9560  144.0740 C   0  0  0  0  0  2  0  0  0  0  0  0
  186.7090  177.5740  139.5460 C   0  0  1  0  0  3  0  0  0  0  0  0
  186.0410  178.2950  144.4990 C   0  0  0  0  0  2  0  0  0  0  0  0
  183.1740  178.9080  140.4430 C   0  0  2  0  0  3  0  0  0  0  0  0
  182.2240  179.2670  141.6080 C   0  0  2  0  0  3  0  0  0  0  0  0
  185.2130  178.1660  137.2680 C   0  0  0  0  0  2  0  0  0  0  0  0
  183.5590  178.8430  144.7940 C   0  0  0  0  0  2  0  0  0  0  0  0
  182.1500  178.2270  142.7260 C   0  0  0  0  0  2  0  0  0  0  0  0
  187.0290  177.8780  143.4100 C   0  0  2  0  0  0  0  0  0  0  0  0
  188.0570  178.9410  141.2700 C   0  0  0  0  0  2  0  0  0  0  0  0
  183.5250  176.5880  138.0890 C   0  0  0  0  0  2  0  0  0  0  0  0
  184.5360  178.2510  140.8290 C   0  0  2  0  0  3  0  0  0  0  0  0
  187.0970  178.6680  138.5130 C   0  0  2  0  0  3  0  0  0  0  0  0
  186.8310  178.3800  141.9520 C   0  0  1  0  0  0  0  0  0  0  0  0
  188.3400  177.3580  143.8550 C   0  0  0  0  0  2  0  0  0  0  0  0
  185.5420  179.1550  141.5800 C   0  0  2  0  0  3  0  0  0  0  0  0
  185.9970  179.2100  137.8030 O   0  0  0  0  0  0  0  0  0  0  0  0
  189.1200  179.3630  137.2120 O   0  0  0  0  0  1  0  0  0  0  0  0
  188.2650  178.3140  137.5790 C   0  0  1  0  0  0  0  0  0  0  0  0
  188.7910  177.5030  135.2240 C   0  0  0  0  0  1  0  0  0  0  0  0
  188.9150  176.9430  137.7490 C   0  0  1  0  0  3  0  0  0  0  0  0
  188.0240  177.2430  136.5200 C   0  0  1  0  0  3  0  0  0  0  0  0
  191.1680  176.7520  138.7900 C   0  0  0  0  0  1  0  0  0  0  0  0
  190.4210  176.9610  137.4880 C   0  0  0  0  0  2  0  0  0  0  0  0
  183.3070  180.0500  139.4190 C   0  0  0  0  0  2  0  0  0  0  0  0
  182.2120  180.0650  138.3580 C   0  0  0  0  0  2  0  0  0  0  0  0
  181.6320  181.4570  138.2060 C   0  0  0  0  0  2  0  0  0  0  0  0
  180.1580  181.3590  137.8820 C   0  0  0  0  0  1  0  0  0  0  0  0
  180.8200  179.6320  141.1220 C   0  0  0  0  0  2  0  0  0  0  0  0
  179.8600  178.4580  141.2150 C   0  0  0  0  0  2  0  0  0  0  0  0
  179.6990  177.8250  139.8490 C   0  0  0  0  0  1  0  0  0  0  0  0
  3  1  1  1  0  0  0
  3  9  1  0  0  0  0
  3 13  1  0  0  0  0
  4 16  1  6  0  0  0
  4 20  1  0  0  0  0
  5  2  1  6  0  0  0
  5 18  1  0  0  0  0
  6 21  1  0  0  0  0
  7 13  1  0  0  0  0
  8  5  1  0  0  0  0
  8  4  1  0  0  0  0
 10 18  1  0  0  0  0
 10 11  1  0  0  0  0
 11 14  1  0  0  0  0
 12 23  1  0  0  0  0
 12  2  1  0  0  0  0
 14  7  1  0  0  0  0
 15  6  1  0  0  0  0
 15 21  1  0  0  0  0
 15  9  1  0  0  0  0
 16 20  1  0  0  0  0
 17  2  2  0  0  0  0
 18 22  1  0  0  0  0
 19  8  1  0  0  0  0
 20 15  1  0  0  0  0
 22 20  1  0  0  0  0
 22  1  1  0  0  0  0
 23 19  1  0  0  0  0
 24 25  1  0  0  0  0
 25 27  1  0  0  0  0
 25 19  1  0  0  0  0
 26 28  1  0  0  0  0
 28 25  1  0  0  0  0
 28 27  1  0  0  0  0
 30 27  1  0  0  0  0
 30 29  1  0  0  0  0
 31 10  1  0  0  0  0
 32 31  1  0  0  0  0
 33 32  1  0  0  0  0
 34 33  1  0  0  0  0
 35 36  1  0  0  0  0
 35 11  1  0  0  0  0
 37 36  1  0  0  0  0
M  END
>  <MODEL>
7

>  <REMARK>
 VINA RESULT:      -4.7      2.949      7.357
  Name = 
  7 active torsions:
  status: ('A' for Active; 'I' for Inactive)
    1  A    between atoms: C_3  and  C_32
    2  A    between atoms: C_8  and  C_31
    3  A    between atoms: C_9  and  C_13
    4  A    between atoms: C_9  and  C_16
    5  A    between atoms: C_13  and  C_20
    6  A    between atoms: C_18  and  C_35
    7  A    between atoms: C_21  and  C_32
                            x       y       z     vdW  Elec       q    Type
                         _______ _______ _______ _____ _____    ______ ____

>  <TORSDO>
F 7

$$$$
=
 OpenBabel11052415303D

 37 43  0  0  1  0  0  0  0  0999 V2000
  182.8400  174.2910  136.0410 C   0  0  0  0  0  2  0  0  0  0  0  0
  183.7710  177.9550  139.3960 C   0  0  0  0  0  0  0  0  0  0  0  0
  182.6330  173.0660  136.9190 C   0  0  1  0  0  3  0  0  0  0  0  0
  180.3900  176.3600  138.3230 C   0  0  1  0  0  3  0  0  0  0  0  0
  182.8390  176.8260  139.0470 C   0  0  1  0  0  3  0  0  0  0  0  0
  179.8810  173.6030  138.7640 O   0  0  0  0  0  0  0  0  0  0  0  0
  185.0600  172.2990  136.8230 C   0  0  0  0  0  2  0  0  0  0  0  0
  181.4480  177.4050  138.7190 C   0  0  1  0  0  3  0  0  0  0  0  0
  181.1640  172.6920  136.9270 C   0  0  0  0  0  2  0  0  0  0  0  0
  184.8840  175.9680  137.6170 C   0  0  2  0  0  3  0  0  0  0  0  0
  185.6110  174.7060  137.1020 C   0  0  2  0  0  3  0  0  0  0  0  0
  183.4680  179.3230  138.8540 C   0  0  0  0  0  2  0  0  0  0  0  0
  183.5830  171.9210  136.6090 C   0  0  0  0  0  2  0  0  0  0  0  0
  185.2760  173.4160  137.8510 C   0  0  0  0  0  2  0  0  0  0  0  0
  180.3730  173.8800  137.4760 C   0  0  2  0  0  0  0  0  0  0  0  0
  180.0100  176.3750  136.8400 C   0  0  0  0  0  2  0  0  0  0  0  0
  184.6610  177.8130  140.3740 C   0  0  0  0  0  2  0  0  0  0  0  0
  183.3820  175.7990  138.0070 C   0  0  2  0  0  3  0  0  0  0  0  0
  181.4720  178.7010  137.8630 C   0  0  2  0  0  3  0  0  0  0  0  0
  180.9540  175.3170  137.3590 C   0  0  1  0  0  0  0  0  0  0  0  0
  178.9310  173.6700  137.7240 C   0  0  0  0  0  2  0  0  0  0  0  0
  182.4020  175.5150  136.8440 C   0  0  2  0  0  3  0  0  0  0  0  0
  182.7710  179.2190  137.6320 O   0  0  0  0  0  0  0  0  0  0  0  0
  179.1960  179.7400  137.7440 O   0  0  0  0  0  1  0  0  0  0  0  0
  180.4850  179.7990  138.2940 C   0  0  1  0  0  0  0  0  0  0  0  0
  180.0710  182.3070  138.1540 C   0  0  0  0  0  1  0  0  0  0  0  0
  180.5840  180.3160  139.7260 C   0  0  1  0  0  3  0  0  0  0  0  0
  181.0460  181.1960  138.5410 C   0  0  1  0  0  3  0  0  0  0  0  0
  179.3240  180.7120  141.8360 C   0  0  0  0  0  1  0  0  0  0  0  0
  179.2250  180.6790  140.3240 C   0  0  0  0  0  2  0  0  0  0  0  0
  185.1590  177.2050  136.7420 C   0  0  0  0  0  2  0  0  0  0  0  0
  186.4500  177.9380  137.0900 C   0  0  0  0  0  2  0  0  0  0  0  0
  187.1460  178.4230  135.8330 C   0  0  0  0  0  2  0  0  0  0  0  0
  186.4230  177.8920  134.6160 C   0  0  0  0  0  1  0  0  0  0  0  0
  187.1270  174.9010  137.0240 C   0  0  0  0  0  2  0  0  0  0  0  0
  187.7400  174.1530  135.8520 C   0  0  0  0  0  2  0  0  0  0  0  0
  186.9180  174.4030  134.6040 C   0  0  0  0  0  1  0  0  0  0  0  0
  1 22  1  0  0  0  0
  2 17  2  0  0  0  0
  3  1  1  6  0  0  0
  3  9  1  0  0  0  0
  4 16  1  6  0  0  0
  4  8  1  0  0  0  0
  5  2  1  6  0  0  0
  7 14  1  0  0  0  0
  8  5  1  0  0  0  0
  9 15  1  0  0  0  0
 10 18  1  0  0  0  0
 11 10  1  0  0  0  0
 11 14  1  0  0  0  0
 12  2  1  0  0  0  0
 13  7  1  0  0  0  0
 13  3  1  0  0  0  0
 15 21  1  0  0  0  0
 15  6  1  0  0  0  0
 16 20  1  0  0  0  0
 18  5  1  0  0  0  0
 19 25  1  0  0  0  0
 19  8  1  0  0  0  0
 20 15  1  0  0  0  0
 20  4  1  0  0  0  0
 21  6  1  0  0  0  0
 22 20  1  0  0  0  0
 22 18  1  0  0  0  0
 23 19  1  0  0  0  0
 23 12  1  0  0  0  0
 24 25  1  0  0  0  0
 25 28  1  0  0  0  0
 25 27  1  0  0  0  0
 26 28  1  0  0  0  0
 27 30  1  0  0  0  0
 28 27  1  0  0  0  0
 30 29  1  0  0  0  0
 31 32  1  0  0  0  0
 31 10  1  0  0  0  0
 33 32  1  0  0  0  0
 34 33  1  0  0  0  0
 35 11  1  0  0  0  0
 36 35  1  0  0  0  0
 37 36  1  0  0  0  0
M  END
>  <MODEL>
8

>  <REMARK>
 VINA RESULT:      -4.5      6.619     10.635
  Name = 
  7 active torsions:
  status: ('A' for Active; 'I' for Inactive)
    1  A    between atoms: C_3  and  C_32
    2  A    between atoms: C_8  and  C_31
    3  A    between atoms: C_9  and  C_13
    4  A    between atoms: C_9  and  C_16
    5  A    between atoms: C_13  and  C_20
    6  A    between atoms: C_18  and  C_35
    7  A    between atoms: C_21  and  C_32
                            x       y       z     vdW  Elec       q    Type
                         _______ _______ _______ _____ _____    ______ ____

>  <TORSDO>
F 7

$$$$
=
 OpenBabel11052415303D

 37 43  0  0  1  0  0  0  0  0999 V2000
  187.7240  179.1990  139.7060 C   0  0  0  0  0  2  0  0  0  0  0  0
  188.9810  176.0390  143.4470 C   0  0  0  0  0  0  0  0  0  0  0  0
  186.9730  178.2990  138.7360 C   0  0  1  0  0  3  0  0  0  0  0  0
  185.5880  177.7840  142.6940 C   0  0  1  0  0  3  0  0  0  0  0  0
  187.8480  176.5140  142.5770 C   0  0  1  0  0  3  0  0  0  0  0  0
  184.1860  177.2520  140.2850 O   0  0  0  0  0  0  0  0  0  0  0  0
  189.0150  177.7210  137.3280 C   0  0  0  0  0  2  0  0  0  0  0  0
  186.8020  177.2260  143.4570 C   0  0  1  0  0  3  0  0  0  0  0  0
  185.4940  178.6270  138.7850 C   0  0  0  0  0  2  0  0  0  0  0  0
  189.7930  177.3090  140.9810 C   0  0  2  0  0  3  0  0  0  0  0  0
  190.1970  177.5170  139.5040 C   0  0  2  0  0  3  0  0  0  0  0  0
  189.2300  176.7530  144.7440 C   0  0  0  0  0  2  0  0  0  0  0  0
  187.5750  178.2640  137.3410 C   0  0  0  0  0  2  0  0  0  0  0  0
  189.3340  176.7700  138.4870 C   0  0  0  0  0  2  0  0  0  0  0  0
  185.0020  178.3950  140.2130 C   0  0  2  0  0  0  0  0  0  0  0  0
  185.5560  179.3110  142.5840 C   0  0  0  0  0  2  0  0  0  0  0  0
  189.5560  174.8620  143.2180 C   0  0  0  0  0  2  0  0  0  0  0  0
  188.2640  177.2940  141.2930 C   0  0  2  0  0  3  0  0  0  0  0  0
  187.4000  178.1550  144.5490 C   0  0  2  0  0  3  0  0  0  0  0  0
  186.0020  178.4850  141.4010 C   0  0  1  0  0  0  0  0  0  0  0  0
  183.5450  178.4990  140.4480 C   0  0  0  0  0  2  0  0  0  0  0  0
  187.5170  178.6370  141.1120 C   0  0  2  0  0  3  0  0  0  0  0  0
  188.8130  178.0980  144.6480 O   0  0  0  0  0  0  0  0  0  0  0  0
  186.4740  176.7980  146.4390 O   0  0  0  0  0  1  0  0  0  0  0  0
  186.7240  178.0800  145.9270 C   0  0  1  0  0  0  0  0  0  0  0  0
  184.5560  178.6280  147.1430 C   0  0  0  0  0  1  0  0  0  0  0  0
  187.0820  179.1550  146.9500 C   0  0  1  0  0  3  0  0  0  0  0  0
  185.6930  179.1520  146.2680 C   0  0  1  0  0  3  0  0  0  0  0  0
  188.5300  178.2460  148.7590 C   0  0  0  0  0  1  0  0  0  0  0  0
  187.1120  178.6280  148.3840 C   0  0  0  0  0  2  0  0  0  0  0  0
  190.6110  178.1890  141.9440 C   0  0  0  0  0  2  0  0  0  0  0  0
  191.8330  177.4950  142.5350 C   0  0  0  0  0  2  0  0  0  0  0  0
  192.0990  177.9850  143.9450 C   0  0  0  0  0  2  0  0  0  0  0  0
  191.6670  179.4290  144.0700 C   0  0  0  0  0  1  0  0  0  0  0  0
  191.6800  177.2310  139.2610 C   0  0  0  0  0  2  0  0  0  0  0  0
  191.8900  176.0390  138.3420 C   0  0  0  0  0  2  0  0  0  0  0  0
  193.1120  176.2740  137.4780 C   0  0  0  0  0  1  0  0  0  0  0  0
  1 22  1  0  0  0  0
  2 12  1  0  0  0  0
  3 13  1  6  0  0  0
  3  9  1  0  0  0  0
  3  1  1  0  0  0  0
  4 16  1  1  0  0  0
  4  8  1  0  0  0  0
  5  2  1  1  0  0  0
  5  8  1  0  0  0  0
  6 21  1  0  0  0  0
  7 13  1  0  0  0  0
  7 14  1  0  0  0  0
  8 19  1  0  0  0  0
  9 15  1  0  0  0  0
 10 18  1  0  0  0  0
 10 31  1  0  0  0  0
 11 10  1  0  0  0  0
 14 11  1  0  0  0  0
 15  6  1  0  0  0  0
 15 21  1  0  0  0  0
 15 20  1  0  0  0  0
 17  2  2  0  0  0  0
 18  5  1  0  0  0  0
 19 23  1  0  0  0  0
 19 25  1  0  0  0  0
 20 16  1  0  0  0  0
 20  4  1  0  0  0  0
 22 18  1  0  0  0  0
 22 20  1  0  0  0  0
 23 12  1  0  0  0  0
 25 28  1  0  0  0  0
 25 24  1  0  0  0  0
 25 27  1  0  0  0  0
 27 30  1  0  0  0  0
 28 27  1  0  0  0  0
 28 26  1  0  0  0  0
 30 29  1  0  0  0  0
 31 32  1  0  0  0  0
 32 33  1  0  0  0  0
 33 34  1  0  0  0  0
 35 11  1  0  0  0  0
 36 35  1  0  0  0  0
 37 36  1  0  0  0  0
M  END
>  <MODEL>
9

>  <REMARK>
 VINA RESULT:      -4.4      1.999      6.850
  Name = 
  7 active torsions:
  status: ('A' for Active; 'I' for Inactive)
    1  A    between atoms: C_3  and  C_32
    2  A    between atoms: C_8  and  C_31
    3  A    between atoms: C_9  and  C_13
    4  A    between atoms: C_9  and  C_16
    5  A    between atoms: C_13  and  C_20
    6  A    between atoms: C_18  and  C_35
    7  A    between atoms: C_21  and  C_32
                            x       y       z     vdW  Elec       q    Type
                         _______ _______ _______ _____ _____    ______ ____

>  <TORSDO>
F 7

$$$$
