=
 OpenBabel11052414293D

 32 37  0  0  1  0  0  0  0  0999 V2000
  180.3170  177.5680  137.6840 C   0  0  1  0  0  3  0  0  0  0  0  0
  180.8950  177.4300  139.1080 C   0  0  1  0  0  3  0  0  0  0  0  0
  181.2360  175.1800  137.1720 C   0  0  2  0  0  3  0  0  0  0  0  0
  184.3200  179.3980  140.1250 C   0  0  0  0  0  2  0  0  0  0  0  0
  182.0440  176.4310  139.3190 C   0  0  1  0  0  3  0  0  0  0  0  0
  185.3200  177.9810  138.2890 C   0  0  0  0  0  2  0  0  0  0  0  0
  184.1490  177.0540  138.4990 C   0  0  0  0  0  0  0  0  0  0  0  0
  182.3840  175.5470  138.1170 C   0  0  2  0  0  3  0  0  0  0  0  0
  183.6000  176.1670  137.4370 C   0  0  0  0  0  2  0  0  0  0  0  0
  180.1810  176.2390  136.9190 C   0  0  1  0  0  3  0  0  0  0  0  0
  182.0560  178.7130  141.0800 C   0  0  0  0  0  2  0  0  0  0  0  0
  180.3240  174.3360  137.8310 O   0  0  0  0  0  0  0  0  0  0  0  0
  180.8630  178.6680  140.0800 C   0  0  1  0  0  0  0  0  0  0  0  0
  183.2920  177.1950  139.5070 C   0  0  0  0  0  0  0  0  0  0  0  0
  179.2820  175.2600  137.6320 C   0  0  0  0  0  2  0  0  0  0  0  0
  185.6130  178.8350  139.5310 C   0  0  0  0  0  2  0  0  0  0  0  0
  183.4270  178.2410  140.5720 C   0  0  1  0  0  3  0  0  0  0  0  0
  179.8280  182.2810  139.0280 C   0  0  0  0  0  3  0  0  0  0  0  0
  181.5210  181.4640  137.5250 C   0  0  0  0  0  3  0  0  0  0  0  0
  180.7780  180.0520  139.3940 C   0  0  0  0  0  0  0  0  0  0  0  0
  180.6530  182.4770  137.9170 C   0  0  0  0  0  0  0  0  0  0  0  0
  181.5740  180.2720  138.2480 C   0  0  0  0  0  3  0  0  0  0  0  0
  179.8700  181.0900  139.7580 C   0  0  0  0  0  0  0  0  0  0  0  0
  178.9390  181.0100  140.9120 C   0  0  0  0  0  1  0  0  0  0  0  0
  180.5140  183.4750  135.6440 C   0  0  0  0  0  1  0  0  0  0  0  0
  181.8310  184.6110  137.4250 C   0  0  0  0  0  1  0  0  0  0  0  0
  180.6140  183.7520  137.1320 C   0  0  0  0  0  3  0  0  0  0  0  0
  179.0720  178.2100  137.7250 O   0  0  0  0  0  0  0  0  0  0  0  0
  178.9360  178.8400  136.4860 C   0  0  0  0  0  1  0  0  0  0  0  0
  179.5940  178.4530  140.9370 C   0  0  0  0  0  2  0  0  0  0  0  0
  179.8310  177.6440  142.2080 C   0  0  0  0  0  2  0  0  0  0  0  0
  179.1290  178.2220  143.2630 O   0  0  0  0  0  1  0  0  0  0  0  0
  1 28  1  1  0  0  0
  1  2  1  0  0  0  0
  2  5  1  0  0  0  0
  2 13  1  0  0  0  0
  3 12  1  0  0  0  0
  3  8  1  0  0  0  0
  4 17  1  0  0  0  0
  5 14  1  0  0  0  0
  6  7  1  0  0  0  0
  6 16  1  0  0  0  0
  7 14  2  0  0  0  0
  8  5  1  0  0  0  0
  9  8  1  0  0  0  0
  9  7  1  0  0  0  0
 10  3  1  0  0  0  0
 10 15  1  0  0  0  0
 10  1  1  0  0  0  0
 13 30  1  0  0  0  0
 13 11  1  0  0  0  0
 14 17  1  0  0  0  0
 15 12  1  0  0  0  0
 16  4  1  0  0  0  0
 17 11  1  0  0  0  0
 18 23  1  0  0  0  0
 19 21  1  0  0  0  0
 19 22  2  0  0  0  0
 20 23  2  0  0  0  0
 20 13  1  0  0  0  0
 21 18  2  0  0  0  0
 22 20  1  0  0  0  0
 23 24  1  0  0  0  0
 25 27  1  0  0  0  0
 27 26  1  0  0  0  0
 27 21  1  0  0  0  0
 29 28  1  0  0  0  0
 30 31  1  0  0  0  0
 31 32  1  0  0  0  0
M  END
>  <MODEL>
1

>  <REMARK>
 VINA RESULT:      -5.2      0.000      0.000
  Name = 
  5 active torsions:
  status: ('A' for Active; 'I' for Inactive)
    1  A    between atoms: C_1  and  C_4
    2  A    between atoms: C_1  and  C_27
    3  A    between atoms: C_2  and  O_14
    4  A    between atoms: C_16  and  C_27
    5  A    between atoms: C_19  and  C_26
                            x       y       z     vdW  Elec       q    Type
                         _______ _______ _______ _____ _____    ______ ____

>  <TORSDO>
F 5

$$$$
=
 OpenBabel11052414293D

 32 37  0  0  1  0  0  0  0  0999 V2000
  181.9450  178.6850  140.9070 C   0  0  1  0  0  3  0  0  0  0  0  0
  180.9330  178.1350  139.8800 C   0  0  1  0  0  3  0  0  0  0  0  0
  180.0000  180.0780  141.9490 C   0  0  2  0  0  3  0  0  0  0  0  0
  180.9420  179.5300  136.0480 C   0  0  0  0  0  2  0  0  0  0  0  0
  179.6670  178.9640  139.6090 C   0  0  1  0  0  3  0  0  0  0  0  0
  180.4250  181.7330  137.1690 C   0  0  0  0  0  2  0  0  0  0  0  0
  179.9340  180.9130  138.3360 C   0  0  0  0  0  0  0  0  0  0  0  0
  179.4610  180.1770  140.5190 C   0  0  2  0  0  3  0  0  0  0  0  0
  179.9300  181.4030  139.7410 C   0  0  0  0  0  2  0  0  0  0  0  0
  181.3060  179.3350  142.1480 C   0  0  1  0  0  3  0  0  0  0  0  0
  180.6060  177.3850  137.3880 C   0  0  0  0  0  2  0  0  0  0  0  0
  179.2690  179.1190  142.6720 O   0  0  0  0  0  0  0  0  0  0  0  0
  181.4450  177.2400  138.6910 C   0  0  1  0  0  0  0  0  0  0  0  0
  179.8010  179.5900  138.2800 C   0  0  0  0  0  0  0  0  0  0  0  0
  180.4340  178.3690  142.9110 C   0  0  0  0  0  2  0  0  0  0  0  0
  180.3910  180.9440  135.8520 C   0  0  0  0  0  2  0  0  0  0  0  0
  180.0600  178.7800  137.0460 C   0  0  1  0  0  3  0  0  0  0  0  0
  185.1540  176.6420  137.6330 C   0  0  0  0  0  3  0  0  0  0  0  0
  184.8570  178.9520  138.2410 C   0  0  0  0  0  3  0  0  0  0  0  0
  182.9330  177.4260  138.3090 C   0  0  0  0  0  0  0  0  0  0  0  0
  185.6850  177.9250  137.8010 C   0  0  0  0  0  0  0  0  0  0  0  0
  183.5090  178.7020  138.4980 C   0  0  0  0  0  3  0  0  0  0  0  0
  183.8060  176.3790  137.8910 C   0  0  0  0  0  0  0  0  0  0  0  0
  183.3730  174.9740  137.6780 C   0  0  0  0  0  1  0  0  0  0  0  0
  187.4050  178.2420  136.0330 C   0  0  0  0  0  1  0  0  0  0  0  0
  188.0280  177.2000  138.2070 C   0  0  0  0  0  1  0  0  0  0  0  0
  187.1270  178.2140  137.5250 C   0  0  0  0  0  3  0  0  0  0  0  0
  182.8250  177.6730  141.3130 O   0  0  0  0  0  0  0  0  0  0  0  0
  183.8870  178.3310  141.9380 C   0  0  0  0  0  1  0  0  0  0  0  0
  181.2290  175.7890  139.1800 C   0  0  0  0  0  2  0  0  0  0  0  0
  179.8310  175.2420  138.9080 C   0  0  0  0  0  2  0  0  0  0  0  0
  179.9140  173.8830  138.6140 O   0  0  0  0  0  1  0  0  0  0  0  0
  1 28  1  1  0  0  0
  1 10  1  0  0  0  0
  2  1  1  0  0  0  0
  3 10  1  0  0  0  0
  3 12  1  0  0  0  0
  4 17  1  0  0  0  0
  5  2  1  0  0  0  0
  5  8  1  0  0  0  0
  6  7  1  0  0  0  0
  7  9  1  0  0  0  0
  8  3  1  0  0  0  0
  9  8  1  0  0  0  0
 10 15  1  0  0  0  0
 11 13  1  0  0  0  0
 12 15  1  0  0  0  0
 13 30  1  0  0  0  0
 13  2  1  0  0  0  0
 14  7  2  0  0  0  0
 14  5  1  0  0  0  0
 16  4  1  0  0  0  0
 16  6  1  0  0  0  0
 17 11  1  0  0  0  0
 17 14  1  0  0  0  0
 18 21  2  0  0  0  0
 18 23  1  0  0  0  0
 19 22  2  0  0  0  0
 20 22  1  0  0  0  0
 20 13  1  0  0  0  0
 21 19  1  0  0  0  0
 23 20  2  0  0  0  0
 24 23  1  0  0  0  0
 25 27  1  0  0  0  0
 27 21  1  0  0  0  0
 27 26  1  0  0  0  0
 28 29  1  0  0  0  0
 31 30  1  0  0  0  0
 32 31  1  0  0  0  0
M  END
>  <MODEL>
2

>  <REMARK>
 VINA RESULT:      -4.8      1.613      5.969
  Name = 
  5 active torsions:
  status: ('A' for Active; 'I' for Inactive)
    1  A    between atoms: C_1  and  C_4
    2  A    between atoms: C_1  and  C_27
    3  A    between atoms: C_2  and  O_14
    4  A    between atoms: C_16  and  C_27
    5  A    between atoms: C_19  and  C_26
                            x       y       z     vdW  Elec       q    Type
                         _______ _______ _______ _____ _____    ______ ____

>  <TORSDO>
F 5

$$$$
=
 OpenBabel11052414293D

 32 37  0  0  1  0  0  0  0  0999 V2000
  181.3700  180.0210  137.6920 C   0  0  1  0  0  3  0  0  0  0  0  0
  180.6180  178.7310  138.0780 C   0  0  1  0  0  3  0  0  0  0  0  0
  180.2460  179.8720  135.3410 C   0  0  2  0  0  3  0  0  0  0  0  0
  182.6050  175.1720  138.2330 C   0  0  0  0  0  2  0  0  0  0  0  0
  180.1530  177.8070  136.9390 C   0  0  1  0  0  3  0  0  0  0  0  0
  183.0040  175.6330  135.7820 C   0  0  0  0  0  2  0  0  0  0  0  0
  181.8070  176.5480  135.8580 C   0  0  0  0  0  0  0  0  0  0  0  0
  180.3390  178.3550  135.5220 C   0  0  2  0  0  3  0  0  0  0  0  0
  181.6080  177.7190  134.9620 C   0  0  0  0  0  2  0  0  0  0  0  0
  180.8110  180.7390  136.4490 C   0  0  1  0  0  3  0  0  0  0  0  0
  180.7710  176.4850  139.4250 C   0  0  0  0  0  2  0  0  0  0  0  0
  178.9310  180.3040  135.5860 O   0  0  0  0  0  0  0  0  0  0  0  0
  180.9290  178.0340  139.4540 C   0  0  1  0  0  0  0  0  0  0  0  0
  181.0200  176.6130  136.9290 C   0  0  0  0  0  0  0  0  0  0  0  0
  179.3690  181.1440  136.6260 C   0  0  0  0  0  2  0  0  0  0  0  0
  182.9860  174.5620  136.8830 C   0  0  0  0  0  2  0  0  0  0  0  0
  181.1930  175.7510  138.1430 C   0  0  1  0  0  3  0  0  0  0  0  0
  184.7450  178.6790  139.9680 C   0  0  0  0  0  3  0  0  0  0  0  0
  183.6450  178.6300  142.1090 C   0  0  0  0  0  3  0  0  0  0  0  0
  182.3180  178.3480  140.0600 C   0  0  0  0  0  0  0  0  0  0  0  0
  184.8100  178.7710  141.3610 C   0  0  0  0  0  0  0  0  0  0  0  0
  182.4260  178.4140  141.4670 C   0  0  0  0  0  3  0  0  0  0  0  0
  183.5290  178.4600  139.3140 C   0  0  0  0  0  0  0  0  0  0  0  0
  183.6000  178.3780  137.8330 C   0  0  0  0  0  1  0  0  0  0  0  0
  187.2850  178.6130  141.1940 C   0  0  0  0  0  1  0  0  0  0  0  0
  186.1590  178.2570  143.3860 C   0  0  0  0  0  1  0  0  0  0  0  0
  186.1080  179.0080  142.0670 C   0  0  0  0  0  3  0  0  0  0  0  0
  181.3920  180.9120  138.7730 O   0  0  0  0  0  0  0  0  0  0  0  0
  182.2240  181.9620  138.3740 C   0  0  0  0  0  1  0  0  0  0  0  0
  179.8330  178.5590  140.4090 C   0  0  0  0  0  2  0  0  0  0  0  0
  179.0220  177.4610  141.0890 C   0  0  0  0  0  2  0  0  0  0  0  0
  179.2940  177.4600  142.4550 O   0  0  0  0  0  1  0  0  0  0  0  0
  1  2  1  0  0  0  0
  1 28  1  1  0  0  0
  2 13  1  0  0  0  0
  3  8  1  0  0  0  0
  3 12  1  0  0  0  0
  3 10  1  0  0  0  0
  5  2  1  0  0  0  0
  6  7  1  0  0  0  0
  6 16  1  0  0  0  0
  7 14  2  0  0  0  0
  8  5  1  0  0  0  0
  9  8  1  0  0  0  0
  9  7  1  0  0  0  0
 10 15  1  0  0  0  0
 10  1  1  0  0  0  0
 11 13  1  0  0  0  0
 12 15  1  0  0  0  0
 13 20  1  0  0  0  0
 13 30  1  0  0  0  0
 14  5  1  0  0  0  0
 14 17  1  0  0  0  0
 16  4  1  0  0  0  0
 17  4  1  0  0  0  0
 17 11  1  0  0  0  0
 18 21  1  0  0  0  0
 20 22  2  0  0  0  0
 21 27  1  0  0  0  0
 21 19  2  0  0  0  0
 22 19  1  0  0  0  0
 23 18  2  0  0  0  0
 23 20  1  0  0  0  0
 24 23  1  0  0  0  0
 25 27  1  0  0  0  0
 27 26  1  0  0  0  0
 29 28  1  0  0  0  0
 30 31  1  0  0  0  0
 31 32  1  0  0  0  0
M  END
>  <MODEL>
3

>  <REMARK>
 VINA RESULT:      -4.6      1.957      5.033
  Name = 
  5 active torsions:
  status: ('A' for Active; 'I' for Inactive)
    1  A    between atoms: C_1  and  C_4
    2  A    between atoms: C_1  and  C_27
    3  A    between atoms: C_2  and  O_14
    4  A    between atoms: C_16  and  C_27
    5  A    between atoms: C_19  and  C_26
                            x       y       z     vdW  Elec       q    Type
                         _______ _______ _______ _____ _____    ______ ____

>  <TORSDO>
F 5

$$$$
=
 OpenBabel11052414293D

 32 37  0  0  1  0  0  0  0  0999 V2000
  180.9830  176.7490  138.5030 C   0  0  1  0  0  3  0  0  0  0  0  0
  181.9160  177.8790  138.0200 C   0  0  1  0  0  3  0  0  0  0  0  0
  180.1680  176.4850  136.0380 C   0  0  2  0  0  3  0  0  0  0  0  0
  180.9620  181.7750  138.7590 C   0  0  0  0  0  2  0  0  0  0  0  0
  181.5500  178.5980  136.7110 C   0  0  1  0  0  3  0  0  0  0  0  0
  178.9310  181.2270  137.3620 C   0  0  0  0  0  2  0  0  0  0  0  0
  179.7460  180.0910  136.7960 C   0  0  0  0  0  0  0  0  0  0  0  0
  180.3790  177.9980  135.9300 C   0  0  2  0  0  3  0  0  0  0  0  0
  179.1480  178.8410  136.2530 C   0  0  0  0  0  2  0  0  0  0  0  0
  180.4470  175.8400  137.3800 C   0  0  1  0  0  3  0  0  0  0  0  0
  182.9660  180.2000  138.6450 C   0  0  0  0  0  2  0  0  0  0  0  0
  181.2320  175.8080  135.4180 O   0  0  0  0  0  0  0  0  0  0  0  0
  182.7180  178.7250  139.0770 C   0  0  1  0  0  0  0  0  0  0  0  0
  181.0440  179.9420  137.0490 C   0  0  0  0  0  0  0  0  0  0  0  0
  181.5570  175.1570  136.6220 C   0  0  0  0  0  2  0  0  0  0  0  0
  179.8140  182.3500  137.9270 C   0  0  0  0  0  2  0  0  0  0  0  0
  181.8490  180.9090  137.8640 C   0  0  1  0  0  3  0  0  0  0  0  0
  182.2240  178.6110  142.9470 C   0  0  0  0  0  3  0  0  0  0  0  0
  180.0760  178.7370  141.8690 C   0  0  0  0  0  3  0  0  0  0  0  0
  182.1180  178.7530  140.5030 C   0  0  0  0  0  0  0  0  0  0  0  0
  180.8290  178.6630  143.0350 C   0  0  0  0  0  0  0  0  0  0  0  0
  180.7110  178.7720  140.6280 C   0  0  0  0  0  3  0  0  0  0  0  0
  182.8710  178.6420  141.7090 C   0  0  0  0  0  0  0  0  0  0  0  0
  184.3540  178.5750  141.7570 C   0  0  0  0  0  1  0  0  0  0  0  0
  179.6910  177.2220  144.7110 C   0  0  0  0  0  1  0  0  0  0  0  0
  178.9370  179.5700  144.3690 C   0  0  0  0  0  1  0  0  0  0  0  0
  180.1300  178.6310  144.3580 C   0  0  0  0  0  3  0  0  0  0  0  0
  181.6280  175.9640  139.4680 O   0  0  0  0  0  0  0  0  0  0  0  0
  180.6210  175.2030  140.0650 C   0  0  0  0  0  1  0  0  0  0  0  0
  184.1110  178.0550  139.1310 C   0  0  0  0  0  2  0  0  0  0  0  0
  185.0780  178.5410  138.0560 C   0  0  0  0  0  2  0  0  0  0  0  0
  186.3750  178.5360  138.5630 O   0  0  0  0  0  1  0  0  0  0  0  0
  1 28  1  1  0  0  0
  2  1  1  0  0  0  0
  2 13  1  0  0  0  0
  3 10  1  0  0  0  0
  5 14  1  0  0  0  0
  5  2  1  0  0  0  0
  6 16  1  0  0  0  0
  7 14  2  0  0  0  0
  7  6  1  0  0  0  0
  8  3  1  0  0  0  0
  8  9  1  0  0  0  0
  8  5  1  0  0  0  0
  9  7  1  0  0  0  0
 10  1  1  0  0  0  0
 11 13  1  0  0  0  0
 12  3  1  0  0  0  0
 12 15  1  0  0  0  0
 13 30  1  0  0  0  0
 13 20  1  0  0  0  0
 14 17  1  0  0  0  0
 15 10  1  0  0  0  0
 16  4  1  0  0  0  0
 17 11  1  0  0  0  0
 17  4  1  0  0  0  0
 18 21  1  0  0  0  0
 19 21  2  0  0  0  0
 20 22  2  0  0  0  0
 20 23  1  0  0  0  0
 21 27  1  0  0  0  0
 22 19  1  0  0  0  0
 23 24  1  0  0  0  0
 23 18  2  0  0  0  0
 27 26  1  0  0  0  0
 27 25  1  0  0  0  0
 28 29  1  0  0  0  0
 31 32  1  0  0  0  0
 31 30  1  0  0  0  0
M  END
>  <MODEL>
4

>  <REMARK>
 VINA RESULT:      -4.5      2.068      5.365
  Name = 
  5 active torsions:
  status: ('A' for Active; 'I' for Inactive)
    1  A    between atoms: C_1  and  C_4
    2  A    between atoms: C_1  and  C_27
    3  A    between atoms: C_2  and  O_14
    4  A    between atoms: C_16  and  C_27
    5  A    between atoms: C_19  and  C_26
                            x       y       z     vdW  Elec       q    Type
                         _______ _______ _______ _____ _____    ______ ____

>  <TORSDO>
F 5

$$$$
=
 OpenBabel11052414293D

 32 37  0  0  1  0  0  0  0  0999 V2000
  181.7390  178.9890  138.1740 C   0  0  1  0  0  3  0  0  0  0  0  0
  180.3190  178.6470  138.6730 C   0  0  1  0  0  3  0  0  0  0  0  0
  180.9950  178.2160  135.7950 C   0  0  2  0  0  3  0  0  0  0  0  0
  179.6790  175.2550  140.8460 C   0  0  0  0  0  2  0  0  0  0  0  0
  179.4990  177.6340  137.8570 C   0  0  1  0  0  3  0  0  0  0  0  0
  180.5120  174.1170  138.7510 C   0  0  0  0  0  2  0  0  0  0  0  0
  180.1280  175.3830  138.0270 C   0  0  0  0  0  0  0  0  0  0  0  0
  180.1190  177.1960  136.5280 C   0  0  2  0  0  3  0  0  0  0  0  0
  180.7780  175.8410  136.7690 C   0  0  0  0  0  2  0  0  0  0  0  0
  181.8620  179.1240  136.6450 C   0  0  1  0  0  3  0  0  0  0  0  0
  178.9310  177.6880  140.6820 C   0  0  0  0  0  2  0  0  0  0  0  0
  180.2050  179.2870  135.3410 O   0  0  0  0  0  0  0  0  0  0  0  0
  180.0020  178.7160  140.2130 C   0  0  1  0  0  0  0  0  0  0  0  0
  179.4470  176.3670  138.6100 C   0  0  0  0  0  0  0  0  0  0  0  0
  180.9630  180.2030  136.0930 C   0  0  0  0  0  2  0  0  0  0  0  0
  179.7340  173.9410  140.0630 C   0  0  0  0  0  2  0  0  0  0  0  0
  178.9360  176.3030  140.0180 C   0  0  1  0  0  3  0  0  0  0  0  0
  182.5380  179.0800  143.1580 C   0  0  0  0  0  3  0  0  0  0  0  0
  183.5110  177.7190  141.4280 C   0  0  0  0  0  3  0  0  0  0  0  0
  181.2240  178.5750  141.1520 C   0  0  0  0  0  0  0  0  0  0  0  0
  183.6120  178.3280  142.6740 C   0  0  0  0  0  0  0  0  0  0  0  0
  182.3400  177.8490  140.6810 C   0  0  0  0  0  3  0  0  0  0  0  0
  181.3620  179.2210  142.4160 C   0  0  0  0  0  0  0  0  0  0  0  0
  180.3010  180.0500  143.0440 C   0  0  0  0  0  1  0  0  0  0  0  0
  184.8310  179.0040  144.7330 C   0  0  0  0  0  1  0  0  0  0  0  0
  186.0890  178.5460  142.6340 C   0  0  0  0  0  1  0  0  0  0  0  0
  184.8740  178.1720  143.4640 C   0  0  0  0  0  3  0  0  0  0  0  0
  182.1970  180.1650  138.7820 O   0  0  0  0  0  0  0  0  0  0  0  0
  183.5910  180.1060  138.7050 C   0  0  0  0  0  1  0  0  0  0  0  0
  179.3730  180.1140  140.4150 C   0  0  0  0  0  2  0  0  0  0  0  0
  178.9460  180.7970  139.1200 C   0  0  0  0  0  2  0  0  0  0  0  0
  179.4860  182.0810  139.0730 O   0  0  0  0  0  1  0  0  0  0  0  0
  1  2  1  0  0  0  0
  1 28  1  1  0  0  0
  2 13  1  0  0  0  0
  3  8  1  0  0  0  0
  3 10  1  0  0  0  0
  5 14  1  0  0  0  0
  5  2  1  0  0  0  0
  6 16  1  0  0  0  0
  7 14  2  0  0  0  0
  7  6  1  0  0  0  0
  8  9  1  0  0  0  0
  8  5  1  0  0  0  0
  9  7  1  0  0  0  0
 10  1  1  0  0  0  0
 12  3  1  0  0  0  0
 12 15  1  0  0  0  0
 13 30  1  0  0  0  0
 13 11  1  0  0  0  0
 13 20  1  0  0  0  0
 14 17  1  0  0  0  0
 15 10  1  0  0  0  0
 16  4  1  0  0  0  0
 17 11  1  0  0  0  0
 17  4  1  0  0  0  0
 19 21  2  0  0  0  0
 20 23  1  0  0  0  0
 21 18  1  0  0  0  0
 21 27  1  0  0  0  0
 22 20  2  0  0  0  0
 22 19  1  0  0  0  0
 23 24  1  0  0  0  0
 23 18  2  0  0  0  0
 26 27  1  0  0  0  0
 27 25  1  0  0  0  0
 29 28  1  0  0  0  0
 31 30  1  0  0  0  0
 32 31  1  0  0  0  0
M  END
>  <MODEL>
5

>  <REMARK>
 VINA RESULT:      -4.5      2.499      5.219
  Name = 
  5 active torsions:
  status: ('A' for Active; 'I' for Inactive)
    1  A    between atoms: C_1  and  C_4
    2  A    between atoms: C_1  and  C_27
    3  A    between atoms: C_2  and  O_14
    4  A    between atoms: C_16  and  C_27
    5  A    between atoms: C_19  and  C_26
                            x       y       z     vdW  Elec       q    Type
                         _______ _______ _______ _____ _____    ______ ____

>  <TORSDO>
F 5

$$$$
=
 OpenBabel11052414293D

 32 37  0  0  1  0  0  0  0  0999 V2000
  180.8500  177.1810  140.3480 C   0  0  1  0  0  3  0  0  0  0  0  0
  181.5410  178.4720  139.8600 C   0  0  1  0  0  3  0  0  0  0  0  0
  180.5530  178.3220  142.6760 C   0  0  2  0  0  3  0  0  0  0  0  0
  185.5960  178.5840  139.4320 C   0  0  0  0  0  2  0  0  0  0  0  0
  182.1670  179.3930  140.9210 C   0  0  1  0  0  3  0  0  0  0  0  0
  185.5680  178.1110  141.9130 C   0  0  0  0  0  2  0  0  0  0  0  0
  184.1650  178.6650  141.9050 C   0  0  0  0  0  0  0  0  0  0  0  0
  181.8870  179.0120  142.3770 C   0  0  2  0  0  3  0  0  0  0  0  0
  183.1200  178.2740  142.8890 C   0  0  0  0  0  2  0  0  0  0  0  0
  180.0300  177.3460  141.6410 C   0  0  1  0  0  3  0  0  0  0  0  0
  183.4520  179.4330  138.3410 C   0  0  0  0  0  2  0  0  0  0  0  0
  179.4910  179.2190  142.4620 O   0  0  0  0  0  0  0  0  0  0  0  0
  182.2070  178.5020  138.4340 C   0  0  1  0  0  0  0  0  0  0  0  0
  183.6340  179.2610  140.8400 C   0  0  0  0  0  0  0  0  0  0  0  0
  178.9310  178.3680  141.4930 C   0  0  0  0  0  2  0  0  0  0  0  0
  186.4020  178.6280  140.7320 C   0  0  0  0  0  2  0  0  0  0  0  0
  184.3810  179.5020  139.5630 C   0  0  1  0  0  3  0  0  0  0  0  0
  182.7660  175.4240  136.1010 C   0  0  0  0  0  3  0  0  0  0  0  0
  183.4290  174.8580  138.3440 C   0  0  0  0  0  3  0  0  0  0  0  0
  182.6130  177.1240  137.8590 C   0  0  0  0  0  0  0  0  0  0  0  0
  183.2730  174.4920  137.0120 C   0  0  0  0  0  0  0  0  0  0  0  0
  183.0970  176.1480  138.7580 C   0  0  0  0  0  3  0  0  0  0  0  0
  182.4260  176.7180  136.5040 C   0  0  0  0  0  0  0  0  0  0  0  0
  181.8960  177.6050  135.4380 C   0  0  0  0  0  1  0  0  0  0  0  0
  182.4970  172.1370  136.8290 C   0  0  0  0  0  1  0  0  0  0  0  0
  184.8920  172.6280  137.2990 C   0  0  0  0  0  1  0  0  0  0  0  0
  183.6400  173.1050  136.5860 C   0  0  0  0  0  3  0  0  0  0  0  0
  180.0280  176.6590  139.3400 O   0  0  0  0  0  0  0  0  0  0  0  0
  179.7420  175.3500  139.7330 C   0  0  0  0  0  1  0  0  0  0  0  0
  181.1310  179.1320  137.5190 C   0  0  0  0  0  2  0  0  0  0  0  0
  181.1160  180.6570  137.5360 C   0  0  0  0  0  2  0  0  0  0  0  0
  180.8050  181.1320  136.2640 O   0  0  0  0  0  1  0  0  0  0  0  0
  1 28  1  6  0  0  0
  1 10  1  0  0  0  0
  2  1  1  0  0  0  0
  2  5  1  0  0  0  0
  4 17  1  0  0  0  0
  4 16  1  0  0  0  0
  5  8  1  0  0  0  0
  7  6  1  0  0  0  0
  7  9  1  0  0  0  0
  8  3  1  0  0  0  0
  8  9  1  0  0  0  0
 10  3  1  0  0  0  0
 11 13  1  0  0  0  0
 11 17  1  0  0  0  0
 12  3  1  0  0  0  0
 13  2  1  0  0  0  0
 14  5  1  0  0  0  0
 14  7  2  0  0  0  0
 15 10  1  0  0  0  0
 15 12  1  0  0  0  0
 16  6  1  0  0  0  0
 17 14  1  0  0  0  0
 18 23  2  0  0  0  0
 18 21  1  0  0  0  0
 19 22  1  0  0  0  0
 20 13  1  0  0  0  0
 20 22  2  0  0  0  0
 21 19  2  0  0  0  0
 23 20  1  0  0  0  0
 24 23  1  0  0  0  0
 27 25  1  0  0  0  0
 27 21  1  0  0  0  0
 27 26  1  0  0  0  0
 28 29  1  0  0  0  0
 30 31  1  0  0  0  0
 30 13  1  0  0  0  0
 32 31  1  0  0  0  0
M  END
>  <MODEL>
6

>  <REMARK>
 VINA RESULT:      -4.5      1.945      5.936
  Name = 
  5 active torsions:
  status: ('A' for Active; 'I' for Inactive)
    1  A    between atoms: C_1  and  C_4
    2  A    between atoms: C_1  and  C_27
    3  A    between atoms: C_2  and  O_14
    4  A    between atoms: C_16  and  C_27
    5  A    between atoms: C_19  and  C_26
                            x       y       z     vdW  Elec       q    Type
                         _______ _______ _______ _____ _____    ______ ____

>  <TORSDO>
F 5

$$$$
=
 OpenBabel11052414293D

 32 37  0  0  1  0  0  0  0  0999 V2000
  183.6070  177.4650  137.9410 C   0  0  1  0  0  3  0  0  0  0  0  0
  182.3460  177.4700  137.0520 C   0  0  1  0  0  3  0  0  0  0  0  0
  184.6010  175.6320  136.3720 C   0  0  2  0  0  3  0  0  0  0  0  0
  178.9310  175.6480  138.3370 C   0  0  0  0  0  2  0  0  0  0  0  0
  182.0590  176.2150  136.2110 C   0  0  1  0  0  3  0  0  0  0  0  0
  180.3870  173.5850  138.3290 C   0  0  0  0  0  2  0  0  0  0  0  0
  181.2710  174.3310  137.3610 C   0  0  0  0  0  0  0  0  0  0  0  0
  183.1560  175.1490  136.2160 C   0  0  2  0  0  3  0  0  0  0  0  0
  182.7290  174.0740  137.2110 C   0  0  0  0  0  2  0  0  0  0  0  0
  184.8410  176.8110  137.2930 C   0  0  1  0  0  3  0  0  0  0  0  0
  179.7320  177.6970  137.0470 C   0  0  0  0  0  2  0  0  0  0  0  0
  184.9890  176.3590  135.2330 O   0  0  0  0  0  0  0  0  0  0  0  0
  181.0910  178.3130  137.4920 C   0  0  1  0  0  0  0  0  0  0  0  0
  180.9240  175.4980  136.8230 C   0  0  0  0  0  0  0  0  0  0  0  0
  185.2460  177.5010  136.0140 C   0  0  0  0  0  2  0  0  0  0  0  0
  178.9470  174.1180  138.3280 C   0  0  0  0  0  2  0  0  0  0  0  0
  179.6050  176.1660  137.0680 C   0  0  1  0  0  3  0  0  0  0  0  0
  180.7680  180.0880  140.9540 C   0  0  0  0  0  3  0  0  0  0  0  0
  181.2390  177.7520  141.2930 C   0  0  0  0  0  3  0  0  0  0  0  0
  180.9900  178.6170  139.0060 C   0  0  0  0  0  0  0  0  0  0  0  0
  180.9920  179.0150  141.8210 C   0  0  0  0  0  0  0  0  0  0  0  0
  181.2450  177.5620  139.9110 C   0  0  0  0  0  3  0  0  0  0  0  0
  180.7750  179.9100  139.5670 C   0  0  0  0  0  0  0  0  0  0  0  0
  180.5270  181.1330  138.7610 C   0  0  0  0  0  1  0  0  0  0  0  0
  182.3720  179.0020  143.8900 C   0  0  0  0  0  1  0  0  0  0  0  0
  179.9990  178.2520  143.9690 C   0  0  0  0  0  1  0  0  0  0  0  0
  180.9840  179.1980  143.3070 C   0  0  0  0  0  3  0  0  0  0  0  0
  183.9270  178.7700  138.3390 O   0  0  0  0  0  0  0  0  0  0  0  0
  184.7270  178.6290  139.4750 C   0  0  0  0  0  1  0  0  0  0  0  0
  181.2320  179.6450  136.7210 C   0  0  0  0  0  2  0  0  0  0  0  0
  180.8050  179.5650  135.2580 C   0  0  0  0  0  2  0  0  0  0  0  0
  180.2320  180.7760  134.8750 O   0  0  0  0  0  1  0  0  0  0  0  0
  1 28  1  6  0  0  0
  2 13  1  0  0  0  0
  2  1  1  0  0  0  0
  3 10  1  0  0  0  0
  5  8  1  0  0  0  0
  5 14  1  0  0  0  0
  5  2  1  0  0  0  0
  7  6  1  0  0  0  0
  8  3  1  0  0  0  0
  8  9  1  0  0  0  0
  9  7  1  0  0  0  0
 10  1  1  0  0  0  0
 11 17  1  0  0  0  0
 11 13  1  0  0  0  0
 12 15  1  0  0  0  0
 12  3  1  0  0  0  0
 13 20  1  0  0  0  0
 14 17  1  0  0  0  0
 14  7  2  0  0  0  0
 15 10  1  0  0  0  0
 16  6  1  0  0  0  0
 16  4  1  0  0  0  0
 17  4  1  0  0  0  0
 18 21  1  0  0  0  0
 19 21  2  0  0  0  0
 20 23  1  0  0  0  0
 20 22  2  0  0  0  0
 21 27  1  0  0  0  0
 22 19  1  0  0  0  0
 23 18  2  0  0  0  0
 24 23  1  0  0  0  0
 27 25  1  0  0  0  0
 27 26  1  0  0  0  0
 28 29  1  0  0  0  0
 30 13  1  0  0  0  0
 31 30  1  0  0  0  0
 32 31  1  0  0  0  0
M  END
>  <MODEL>
7

>  <REMARK>
 VINA RESULT:      -4.5      2.393      5.425
  Name = 
  5 active torsions:
  status: ('A' for Active; 'I' for Inactive)
    1  A    between atoms: C_1  and  C_4
    2  A    between atoms: C_1  and  C_27
    3  A    between atoms: C_2  and  O_14
    4  A    between atoms: C_16  and  C_27
    5  A    between atoms: C_19  and  C_26
                            x       y       z     vdW  Elec       q    Type
                         _______ _______ _______ _____ _____    ______ ____

>  <TORSDO>
F 5

$$$$
=
 OpenBabel11052414293D

 32 37  0  0  1  0  0  0  0  0999 V2000
  182.1050  176.3520  139.3210 C   0  0  1  0  0  3  0  0  0  0  0  0
  181.3370  177.6880  139.3970 C   0  0  1  0  0  3  0  0  0  0  0  0
  179.8040  175.1400  139.1100 C   0  0  2  0  0  3  0  0  0  0  0  0
  180.9030  179.5980  142.9740 C   0  0  0  0  0  2  0  0  0  0  0  0
  179.8690  177.6440  139.8530 C   0  0  1  0  0  3  0  0  0  0  0  0
  179.6810  177.4820  143.6120 C   0  0  0  0  0  2  0  0  0  0  0  0
  179.4830  177.2650  142.1330 C   0  0  0  0  0  0  0  0  0  0  0  0
  179.2700  176.2460  140.0230 C   0  0  2  0  0  3  0  0  0  0  0  0
  179.3100  175.9230  141.5140 C   0  0  0  0  0  2  0  0  0  0  0  0
  181.2810  175.1730  138.7720 C   0  0  1  0  0  3  0  0  0  0  0  0
  181.2880  180.0700  140.4970 C   0  0  0  0  0  2  0  0  0  0  0  0
  179.4280  175.3930  137.7790 O   0  0  0  0  0  0  0  0  0  0  0  0
  182.1220  179.0160  139.7090 C   0  0  1  0  0  0  0  0  0  0  0  0
  179.7950  178.1850  141.2230 C   0  0  0  0  0  0  0  0  0  0  0  0
  180.7750  175.4320  137.3760 C   0  0  0  0  0  2  0  0  0  0  0  0
  179.9160  178.9610  143.9550 C   0  0  0  0  0  2  0  0  0  0  0  0
  180.3140  179.5500  141.5650 C   0  0  1  0  0  3  0  0  0  0  0  0
  185.9040  178.6290  140.5920 C   0  0  0  0  0  3  0  0  0  0  0  0
  184.5790  178.2540  142.5660 C   0  0  0  0  0  3  0  0  0  0  0  0
  183.4660  178.8370  140.4540 C   0  0  0  0  0  0  0  0  0  0  0  0
  185.8260  178.3260  141.9540 C   0  0  0  0  0  0  0  0  0  0  0  0
  183.4230  178.4970  141.8240 C   0  0  0  0  0  3  0  0  0  0  0  0
  184.7520  178.8710  139.8380 C   0  0  0  0  0  0  0  0  0  0  0  0
  184.9760  179.1770  138.4020 C   0  0  0  0  0  1  0  0  0  0  0  0
  188.1720  177.5040  141.9060 C   0  0  0  0  0  1  0  0  0  0  0  0
  186.7600  177.1280  143.9220 C   0  0  0  0  0  1  0  0  0  0  0  0
  187.0560  178.0670  142.7670 C   0  0  0  0  0  3  0  0  0  0  0  0
  183.2680  176.5030  138.5540 O   0  0  0  0  0  0  0  0  0  0  0  0
  183.7470  175.2080  138.3440 C   0  0  0  0  0  1  0  0  0  0  0  0
  182.3960  179.6390  138.3210 C   0  0  0  0  0  2  0  0  0  0  0  0
  181.5550  180.8740  138.0150 C   0  0  0  0  0  2  0  0  0  0  0  0
  180.8810  180.6900  136.8100 O   0  0  0  0  0  1  0  0  0  0  0  0
  1 28  1  6  0  0  0
  1  2  1  0  0  0  0
  2 13  1  0  0  0  0
  2  5  1  0  0  0  0
  3  8  1  0  0  0  0
  4 16  1  0  0  0  0
  5  8  1  0  0  0  0
  5 14  1  0  0  0  0
  6 16  1  0  0  0  0
  7  6  1  0  0  0  0
  8  9  1  0  0  0  0
  9  7  1  0  0  0  0
 10  3  1  0  0  0  0
 10  1  1  0  0  0  0
 11 17  1  0  0  0  0
 12  3  1  0  0  0  0
 13 20  1  0  0  0  0
 13 11  1  0  0  0  0
 14 17  1  0  0  0  0
 14  7  2  0  0  0  0
 15 12  1  0  0  0  0
 15 10  1  0  0  0  0
 17  4  1  0  0  0  0
 18 21  1  0  0  0  0
 20 22  2  0  0  0  0
 21 19  2  0  0  0  0
 21 27  1  0  0  0  0
 22 19  1  0  0  0  0
 23 20  1  0  0  0  0
 23 18  2  0  0  0  0
 24 23  1  0  0  0  0
 25 27  1  0  0  0  0
 27 26  1  0  0  0  0
 29 28  1  0  0  0  0
 30 13  1  0  0  0  0
 31 30  1  0  0  0  0
 32 31  1  0  0  0  0
M  END
>  <MODEL>
8

>  <REMARK>
 VINA RESULT:      -4.3      2.122      5.761
  Name = 
  5 active torsions:
  status: ('A' for Active; 'I' for Inactive)
    1  A    between atoms: C_1  and  C_4
    2  A    between atoms: C_1  and  C_27
    3  A    between atoms: C_2  and  O_14
    4  A    between atoms: C_16  and  C_27
    5  A    between atoms: C_19  and  C_26
                            x       y       z     vdW  Elec       q    Type
                         _______ _______ _______ _____ _____    ______ ____

>  <TORSDO>
F 5

$$$$
=
 OpenBabel11052414293D

 32 37  0  0  1  0  0  0  0  0999 V2000
  186.6680  175.5080  137.4930 C   0  0  1  0  0  3  0  0  0  0  0  0
  186.0340  176.8850  137.2030 C   0  0  1  0  0  3  0  0  0  0  0  0
  184.4950  174.4070  136.5560 C   0  0  2  0  0  3  0  0  0  0  0  0
  184.5320  179.1290  140.2600 C   0  0  0  0  0  2  0  0  0  0  0  0
  184.5010  176.9620  137.1090 C   0  0  1  0  0  3  0  0  0  0  0  0
  182.9940  177.1480  140.5570 C   0  0  0  0  0  2  0  0  0  0  0  0
  183.3110  176.8100  139.1220 C   0  0  0  0  0  0  0  0  0  0  0  0
  183.7670  175.6190  137.1450 C   0  0  2  0  0  3  0  0  0  0  0  0
  183.2560  175.4290  138.5710 C   0  0  0  0  0  2  0  0  0  0  0  0
  185.9940  174.3300  136.7650 C   0  0  1  0  0  3  0  0  0  0  0  0
  185.7990  179.3550  138.0570 C   0  0  0  0  0  2  0  0  0  0  0  0
  184.6310  174.5600  135.1650 O   0  0  0  0  0  0  0  0  0  0  0  0
  186.7660  178.1920  137.6880 C   0  0  1  0  0  0  0  0  0  0  0  0
  183.9960  177.6270  138.3250 C   0  0  0  0  0  0  0  0  0  0  0  0
  186.0320  174.4900  135.2660 C   0  0  0  0  0  2  0  0  0  0  0  0
  183.2160  178.6360  140.8650 C   0  0  0  0  0  2  0  0  0  0  0  0
  184.4730  178.9860  138.7400 C   0  0  1  0  0  3  0  0  0  0  0  0
  189.9390  177.5860  139.8800 C   0  0  0  0  0  3  0  0  0  0  0  0
  187.9940  177.6790  141.2950 C   0  0  0  0  0  3  0  0  0  0  0  0
  187.7450  178.0070  138.8730 C   0  0  0  0  0  0  0  0  0  0  0  0
  189.3690  177.5240  141.1550 C   0  0  0  0  0  0  0  0  0  0  0  0
  187.1990  177.9080  140.1720 C   0  0  0  0  0  3  0  0  0  0  0  0
  189.1520  177.8110  138.7460 C   0  0  0  0  0  0  0  0  0  0  0  0
  189.8820  177.8480  137.4540 C   0  0  0  0  0  1  0  0  0  0  0  0
  190.0390  175.8650  142.8810 C   0  0  0  0  0  1  0  0  0  0  0  0
  189.8720  178.2790  143.4700 C   0  0  0  0  0  1  0  0  0  0  0  0
  190.2060  177.2850  142.3720 C   0  0  0  0  0  3  0  0  0  0  0  0
  188.0340  175.5270  137.1830 O   0  0  0  0  0  0  0  0  0  0  0  0
  188.4470  174.1940  137.2390 C   0  0  0  0  0  1  0  0  0  0  0  0
  187.5600  178.6710  136.4510 C   0  0  0  0  0  2  0  0  0  0  0  0
  187.0790  178.0720  135.1330 C   0  0  0  0  0  2  0  0  0  0  0  0
  188.0820  177.2700  134.5940 O   0  0  0  0  0  1  0  0  0  0  0  0
  1 28  1  6  0  0  0
  2  1  1  0  0  0  0
  2 13  1  0  0  0  0
  3 10  1  0  0  0  0
  3  8  1  0  0  0  0
  4 16  1  0  0  0  0
  5  8  1  0  0  0  0
  5  2  1  0  0  0  0
  5 14  1  0  0  0  0
  6 16  1  0  0  0  0
  7  6  1  0  0  0  0
  8  9  1  0  0  0  0
  9  7  1  0  0  0  0
 10  1  1  0  0  0  0
 11 17  1  0  0  0  0
 12 15  1  0  0  0  0
 12  3  1  0  0  0  0
 13 11  1  0  0  0  0
 13 20  1  0  0  0  0
 14 17  1  0  0  0  0
 14  7  2  0  0  0  0
 15 10  1  0  0  0  0
 17  4  1  0  0  0  0
 18 21  1  0  0  0  0
 20 22  2  0  0  0  0
 21 19  2  0  0  0  0
 21 27  1  0  0  0  0
 22 19  1  0  0  0  0
 23 20  1  0  0  0  0
 23 18  2  0  0  0  0
 24 23  1  0  0  0  0
 27 25  1  0  0  0  0
 27 26  1  0  0  0  0
 28 29  1  0  0  0  0
 30 13  1  0  0  0  0
 31 30  1  0  0  0  0
 32 31  1  0  0  0  0
M  END
>  <MODEL>
9

>  <REMARK>
 VINA RESULT:      -4.0      4.227      7.897
  Name = 
  5 active torsions:
  status: ('A' for Active; 'I' for Inactive)
    1  A    between atoms: C_1  and  C_4
    2  A    between atoms: C_1  and  C_27
    3  A    between atoms: C_2  and  O_14
    4  A    between atoms: C_16  and  C_27
    5  A    between atoms: C_19  and  C_26
                            x       y       z     vdW  Elec       q    Type
                         _______ _______ _______ _____ _____    ______ ____

>  <TORSDO>
F 5

$$$$
