=
 OpenBabel11052415393D

 34 39  0  0  1  0  0  0  0  0999 V2000
  182.4950  177.3560  138.5240 N   0  0  0  0  0  0  0  0  0  0  0  0
  184.7660  176.0730  135.9220 C   0  0  0  0  0  3  0  0  0  0  0  0
  182.4880  176.5960  135.6130 N   0  0  0  0  0  2  0  0  0  0  0  0
  181.8500  178.1790  140.8070 C   0  0  2  0  0  3  0  0  0  0  0  0
  182.5830  176.6510  140.1260 S   0  0  0  0  0  0  0  0  0  0  0  0
  181.5870  179.3530  137.2980 C   0  0  1  0  0  3  0  0  0  0  0  0
  180.3480  179.3770  136.6240 O   0  0  0  0  0  0  0  0  0  0  0  0
  181.5480  179.1360  139.7380 N   0  0  0  0  0  2  0  0  0  0  0  0
  181.2230  177.2510  135.9180 C   0  0  0  0  0  2  0  0  0  0  0  0
  181.4730  178.3930  138.4910 C   0  0  2  0  0  3  0  0  0  0  0  0
  181.4090  178.7650  135.9330 C   0  0  2  0  0  3  0  0  0  0  0  0
  186.0780  176.0300  136.6290 C   0  0  0  0  0  2  0  0  0  0  0  0
  186.6440  177.4080  136.7700 C   0  0  0  0  0  0  0  0  0  0  0  0
  186.0230  178.3290  137.5110 C   0  0  0  0  0  3  0  0  0  0  0  0
  183.6800  176.6820  136.4060 C   0  0  0  0  0  0  0  0  0  0  0  0
  184.7070  178.1520  138.1560 C   0  0  0  0  0  3  0  0  0  0  0  0
  183.6820  177.3990  137.7190 C   0  0  0  0  0  0  0  0  0  0  0  0
  185.1730  179.1860  142.3320 C   0  0  0  0  0  2  0  0  0  0  0  0
  182.9550  179.3830  144.3380 C   0  0  0  0  0  2  0  0  0  0  0  0
  186.6330  177.4680  145.4860 C   0  0  2  0  0  3  0  0  0  0  0  0
  186.6120  178.0680  144.0700 C   0  0  0  0  0  2  0  0  0  0  0  0
  185.4270  179.0130  143.8330 C   0  0  2  0  0  3  0  0  0  0  0  0
  182.7530  178.7960  141.8740 C   0  0  1  0  0  3  0  0  0  0  0  0
  184.5170  178.6970  146.1730 C   0  0  0  0  0  2  0  0  0  0  0  0
  184.2090  178.5940  144.6750 C   0  0  1  0  0  3  0  0  0  0  0  0
  185.9870  178.4050  146.5150 C   0  0  0  0  0  2  0  0  0  0  0  0
  182.1580  178.6370  143.2770 C   0  0  0  0  0  2  0  0  0  0  0  0
  184.1550  178.2020  141.7690 C   0  0  0  0  0  2  0  0  0  0  0  0
  188.0530  177.0750  145.8790 C   0  0  0  0  0  3  0  0  0  0  0  0
  188.2160  177.1760  147.2600 O   0  0  0  0  0  1  0  0  0  0  0  0
  188.9910  177.8840  145.2340 O   0  0  0  0  0  1  0  0  0  0  0  0
  187.9410  177.7260  136.1490 C   0  0  0  0  0  0  0  0  0  0  0  0
  188.3260  177.1000  135.1260 O   0  0  0  0  0  0  0  0  0  0  0  0
  188.7500  178.7250  136.6810 O   0  0  0  0  0  1  0  0  0  0  0  0
  1  5  1  0  0  0  0
  2 15  2  0  0  0  0
  2 12  1  0  0  0  0
  3  9  1  0  0  0  0
  3 15  1  0  0  0  0
  4  8  1  6  0  0  0
  4 23  1  0  0  0  0
  5  4  1  0  0  0  0
  6  7  1  1  0  0  0
  6 10  1  0  0  0  0
 10  1  1  0  0  0  0
 10  8  1  1  0  0  0
 11  9  1  1  0  0  0
 11  7  1  0  0  0  0
 11  6  1  0  0  0  0
 12 13  1  0  0  0  0
 13 14  2  0  0  0  0
 14 16  1  0  0  0  0
 15 17  1  0  0  0  0
 17 16  2  0  0  0  0
 17  1  1  0  0  0  0
 20 29  1  1  0  0  0
 20 26  1  0  0  0  0
 21 20  1  0  0  0  0
 22 18  1  6  0  0  0
 22 21  1  0  0  0  0
 22 25  1  0  0  0  0
 23 28  1  1  0  0  0
 23 27  1  0  0  0  0
 24 26  1  0  0  0  0
 25 19  1  1  0  0  0
 25 24  1  0  0  0  0
 27 19  1  0  0  0  0
 28 18  1  0  0  0  0
 29 30  1  0  0  0  0
 31 29  1  0  0  0  0
 32 34  1  0  0  0  0
 32 13  1  0  0  0  0
 33 32  2  0  0  0  0
M  END
>  <MODEL>
1

>  <REMARK>
 VINA RESULT:      -8.7      0.000      0.000
  Name = 
  3 active torsions:
  status: ('A' for Active; 'I' for Inactive)
    1  A    between atoms: C_3  and  C_25
    2  A    between atoms: C_7  and  C_11
    3  A    between atoms: C_8  and  C_18
                            x       y       z     vdW  Elec       q    Type
                         _______ _______ _______ _____ _____    ______ ____

>  <TORSDO>
F 3

$$$$
=
 OpenBabel11052415393D

 34 39  0  0  1  0  0  0  0  0999 V2000
  189.2090  177.4620  137.4870 N   0  0  0  0  0  0  0  0  0  0  0  0
  186.2420  176.8340  135.3950 C   0  0  0  0  0  3  0  0  0  0  0  0
  188.3890  177.3870  134.5940 N   0  0  0  0  0  2  0  0  0  0  0  0
  190.5180  177.6360  139.6230 C   0  0  2  0  0  3  0  0  0  0  0  0
  189.0120  178.4150  138.9450 S   0  0  0  0  0  0  0  0  0  0  0  0
  190.8190  175.8950  136.3600 C   0  0  1  0  0  3  0  0  0  0  0  0
  191.7760  176.2910  135.4040 O   0  0  0  0  0  0  0  0  0  0  0  0
  191.1050  176.7020  138.6560 N   0  0  0  0  0  2  0  0  0  0  0  0
  189.8400  177.5040  134.6550 C   0  0  0  0  0  2  0  0  0  0  0  0
  190.6000  177.0580  137.3400 C   0  0  2  0  0  3  0  0  0  0  0  0
  190.4620  176.1390  134.9270 C   0  0  2  0  0  3  0  0  0  0  0  0
  185.2170  176.4280  136.3990 C   0  0  0  0  0  2  0  0  0  0  0  0
  185.4680  175.0290  136.8690 C   0  0  0  0  0  0  0  0  0  0  0  0
  186.5770  174.7260  137.5480 C   0  0  0  0  0  3  0  0  0  0  0  0
  187.5450  176.9500  135.6680 C   0  0  0  0  0  0  0  0  0  0  0  0
  187.6940  175.6550  137.8070 C   0  0  0  0  0  3  0  0  0  0  0  0
  188.1080  176.6680  137.0240 C   0  0  0  0  0  0  0  0  0  0  0  0
  188.3080  176.4050  142.4490 C   0  0  0  0  0  2  0  0  0  0  0  0
  191.2020  176.3280  143.2230 C   0  0  0  0  0  2  0  0  0  0  0  0
  188.3550  177.9950  145.9840 C   0  0  2  0  0  3  0  0  0  0  0  0
  187.7610  177.4120  144.6910 C   0  0  0  0  0  2  0  0  0  0  0  0
  188.7560  176.5460  143.9080 C   0  0  2  0  0  3  0  0  0  0  0  0
  190.2310  176.9520  140.9590 C   0  0  1  0  0  3  0  0  0  0  0  0
  190.6120  176.8950  145.5910 C   0  0  0  0  0  2  0  0  0  0  0  0
  190.2000  177.0320  144.1210 C   0  0  1  0  0  3  0  0  0  0  0  0
  189.4460  177.0910  146.5730 C   0  0  0  0  0  2  0  0  0  0  0  0
  191.3900  177.1340  141.9450 C   0  0  0  0  0  2  0  0  0  0  0  0
  188.9060  177.4570  141.5230 C   0  0  0  0  0  2  0  0  0  0  0  0
  187.2500  178.2940  146.9920 C   0  0  0  0  0  3  0  0  0  0  0  0
  187.6100  177.8230  148.2550 O   0  0  0  0  0  1  0  0  0  0  0  0
  186.0440  177.7090  146.5990 O   0  0  0  0  0  1  0  0  0  0  0  0
  184.4430  173.9960  136.6480 C   0  0  0  0  0  0  0  0  0  0  0  0
  183.6490  174.0860  135.6750 O   0  0  0  0  0  0  0  0  0  0  0  0
  184.3460  172.9050  137.5070 O   0  0  0  0  0  1  0  0  0  0  0  0
  1  5  1  0  0  0  0
  2 15  2  0  0  0  0
  2 12  1  0  0  0  0
  3  9  1  0  0  0  0
  3 15  1  0  0  0  0
  4  8  1  6  0  0  0
  4 23  1  0  0  0  0
  5  4  1  0  0  0  0
  6  7  1  6  0  0  0
  6 10  1  0  0  0  0
 10  1  1  0  0  0  0
 10  8  1  1  0  0  0
 11  9  1  1  0  0  0
 11  7  1  0  0  0  0
 11  6  1  0  0  0  0
 12 13  1  0  0  0  0
 13 14  2  0  0  0  0
 14 16  1  0  0  0  0
 15 17  1  0  0  0  0
 17  1  1  0  0  0  0
 17 16  2  0  0  0  0
 20 26  1  0  0  0  0
 20 29  1  1  0  0  0
 21 20  1  0  0  0  0
 22 18  1  6  0  0  0
 22 25  1  0  0  0  0
 22 21  1  0  0  0  0
 23 28  1  1  0  0  0
 23 27  1  0  0  0  0
 24 26  1  0  0  0  0
 25 19  1  6  0  0  0
 25 24  1  0  0  0  0
 27 19  1  0  0  0  0
 28 18  1  0  0  0  0
 29 30  1  0  0  0  0
 31 29  1  0  0  0  0
 32 13  1  0  0  0  0
 32 34  1  0  0  0  0
 33 32  2  0  0  0  0
M  END
>  <MODEL>
2

>  <REMARK>
 VINA RESULT:      -8.1      4.155      6.379
  Name = 
  3 active torsions:
  status: ('A' for Active; 'I' for Inactive)
    1  A    between atoms: C_3  and  C_25
    2  A    between atoms: C_7  and  C_11
    3  A    between atoms: C_8  and  C_18
                            x       y       z     vdW  Elec       q    Type
                         _______ _______ _______ _____ _____    ______ ____

>  <TORSDO>
F 3

$$$$
=
 OpenBabel11052415393D

 34 39  0  0  1  0  0  0  0  0999 V2000
  181.8110  178.9170  137.8880 N   0  0  0  0  0  0  0  0  0  0  0  0
  180.5990  181.5780  135.6470 C   0  0  0  0  0  3  0  0  0  0  0  0
  180.0550  179.2910  135.4730 N   0  0  0  0  0  2  0  0  0  0  0  0
  183.0510  177.9510  139.8460 C   0  0  2  0  0  3  0  0  0  0  0  0
  183.4930  178.9450  138.3790 S   0  0  0  0  0  0  0  0  0  0  0  0
  179.6030  177.8690  138.4780 C   0  0  1  0  0  3  0  0  0  0  0  0
  179.0850  176.7090  137.8670 O   0  0  0  0  0  0  0  0  0  0  0  0
  181.6210  177.6270  139.8480 N   0  0  0  0  0  2  0  0  0  0  0  0
  179.8880  177.9250  135.9540 C   0  0  0  0  0  2  0  0  0  0  0  0
  181.1360  177.7720  138.4840 C   0  0  2  0  0  3  0  0  0  0  0  0
  178.9310  177.9040  137.1410 C   0  0  2  0  0  3  0  0  0  0  0  0
  181.1550  182.8100  136.2760 C   0  0  0  0  0  2  0  0  0  0  0  0
  180.3760  183.1700  137.5030 C   0  0  0  0  0  0  0  0  0  0  0  0
  180.3660  182.3620  138.5660 C   0  0  0  0  0  3  0  0  0  0  0  0
  180.5960  180.3790  136.2350 C   0  0  0  0  0  0  0  0  0  0  0  0
  180.9920  181.0260  138.6230 C   0  0  0  0  0  3  0  0  0  0  0  0
  181.1500  180.1580  137.6070 C   0  0  0  0  0  0  0  0  0  0  0  0
  185.5300  179.3740  142.3400 C   0  0  0  0  0  2  0  0  0  0  0  0
  182.7830  179.1890  143.5240 C   0  0  0  0  0  2  0  0  0  0  0  0
  186.1380  177.7840  145.8220 C   0  0  2  0  0  3  0  0  0  0  0  0
  186.4830  178.4190  144.4650 C   0  0  0  0  0  2  0  0  0  0  0  0
  185.3130  179.1920  143.8450 C   0  0  2  0  0  3  0  0  0  0  0  0
  183.4670  178.6570  141.1360 C   0  0  1  0  0  3  0  0  0  0  0  0
  183.7590  178.6760  145.7750 C   0  0  0  0  0  2  0  0  0  0  0  0
  183.9640  178.5780  144.2590 C   0  0  1  0  0  3  0  0  0  0  0  0
  185.0680  178.5860  146.5750 C   0  0  0  0  0  2  0  0  0  0  0  0
  182.4840  178.3700  142.2770 C   0  0  0  0  0  2  0  0  0  0  0  0
  184.9000  178.2730  141.4960 C   0  0  0  0  0  2  0  0  0  0  0  0
  187.4000  177.5860  146.6560 C   0  0  0  0  0  3  0  0  0  0  0  0
  187.3590  178.3960  147.7910 O   0  0  0  0  0  1  0  0  0  0  0  0
  188.5430  177.8790  145.9100 O   0  0  0  0  0  1  0  0  0  0  0  0
  179.6800  184.4650  137.5660 C   0  0  0  0  0  0  0  0  0  0  0  0
  179.1970  184.8750  138.6550 O   0  0  0  0  0  1  0  0  0  0  0  0
  179.5520  185.2520  136.4260 O   0  0  0  0  0  0  0  0  0  0  0  0
  1  5  1  0  0  0  0
  1 10  1  0  0  0  0
  2 15  2  0  0  0  0
  2 12  1  0  0  0  0
  3  9  1  0  0  0  0
  3 15  1  0  0  0  0
  4  5  1  6  0  0  0
  4  8  1  0  0  0  0
  4 23  1  0  0  0  0
  6  7  1  1  0  0  0
  6 10  1  0  0  0  0
 10  8  1  1  0  0  0
 11  9  1  6  0  0  0
 11  7  1  0  0  0  0
 11  6  1  0  0  0  0
 12 13  1  0  0  0  0
 13 32  1  0  0  0  0
 13 14  2  0  0  0  0
 14 16  1  0  0  0  0
 15 17  1  0  0  0  0
 17  1  1  0  0  0  0
 17 16  2  0  0  0  0
 20 26  1  0  0  0  0
 20 29  1  1  0  0  0
 21 20  1  0  0  0  0
 22 18  1  6  0  0  0
 22 25  1  0  0  0  0
 22 21  1  0  0  0  0
 23 28  1  1  0  0  0
 23 27  1  0  0  0  0
 24 26  1  0  0  0  0
 25 19  1  6  0  0  0
 25 24  1  0  0  0  0
 27 19  1  0  0  0  0
 28 18  1  0  0  0  0
 29 30  1  0  0  0  0
 31 29  1  0  0  0  0
 32 33  1  0  0  0  0
 34 32  2  0  0  0  0
M  END
>  <MODEL>
3

>  <REMARK>
 VINA RESULT:      -7.9      3.323      4.757
  Name = 
  3 active torsions:
  status: ('A' for Active; 'I' for Inactive)
    1  A    between atoms: C_3  and  C_25
    2  A    between atoms: C_7  and  C_11
    3  A    between atoms: C_8  and  C_18
                            x       y       z     vdW  Elec       q    Type
                         _______ _______ _______ _____ _____    ______ ____

>  <TORSDO>
F 3

$$$$
=
 OpenBabel11052415393D

 34 39  0  0  1  0  0  0  0  0999 V2000
  183.2620  178.5900  139.9020 N   0  0  0  0  0  0  0  0  0  0  0  0
  182.2390  179.2010  143.3880 C   0  0  0  0  0  3  0  0  0  0  0  0
  180.9040  178.1930  141.7270 N   0  0  0  0  0  2  0  0  0  0  0  0
  184.8230  178.5770  137.9350 C   0  0  2  0  0  3  0  0  0  0  0  0
  184.1530  179.8470  139.0640 S   0  0  0  0  0  0  0  0  0  0  0  0
  182.6800  176.1500  139.7460 C   0  0  1  0  0  3  0  0  0  0  0  0
  181.4930  175.6500  139.1730 O   0  0  0  0  0  0  0  0  0  0  0  0
  184.2850  177.2520  138.2580 N   0  0  0  0  0  2  0  0  0  0  0  0
  180.6450  177.4800  140.4830 C   0  0  0  0  0  2  0  0  0  0  0  0
  183.0620  177.4480  139.0200 C   0  0  2  0  0  3  0  0  0  0  0  0
  181.3790  176.1430  140.4850 C   0  0  2  0  0  3  0  0  0  0  0  0
  183.4850  179.7440  144.0010 C   0  0  0  0  0  2  0  0  0  0  0  0
  184.4740  178.6460  144.2400 C   0  0  0  0  0  0  0  0  0  0  0  0
  185.0060  177.9710  143.2170 C   0  0  0  0  0  3  0  0  0  0  0  0
  182.1930  178.6290  142.1820 C   0  0  0  0  0  0  0  0  0  0  0  0
  184.6190  178.1330  141.8020 C   0  0  0  0  0  3  0  0  0  0  0  0
  183.4070  178.4680  141.3230 C   0  0  0  0  0  0  0  0  0  0  0  0
  188.2740  178.0590  136.4490 C   0  0  0  0  0  2  0  0  0  0  0  0
  188.4140  178.4070  139.4220 C   0  0  0  0  0  2  0  0  0  0  0  0
  190.6380  175.2090  137.5950 C   0  0  2  0  0  3  0  0  0  0  0  0
  189.8880  176.1340  136.6230 C   0  0  0  0  0  2  0  0  0  0  0  0
  189.3960  177.4290  137.2810 C   0  0  2  0  0  3  0  0  0  0  0  0
  186.3510  178.5790  137.9480 C   0  0  1  0  0  3  0  0  0  0  0  0
  190.3430  176.8130  139.5450 C   0  0  0  0  0  2  0  0  0  0  0  0
  189.0800  177.2070  138.7710 C   0  0  1  0  0  3  0  0  0  0  0  0
  191.3420  175.9970  138.7080 C   0  0  0  0  0  2  0  0  0  0  0  0
  186.9020  178.2530  139.3410 C   0  0  0  0  0  2  0  0  0  0  0  0
  186.8780  177.6260  136.8790 C   0  0  0  0  0  2  0  0  0  0  0  0
  191.6020  174.3040  136.8350 C   0  0  0  0  0  3  0  0  0  0  0  0
  192.7820  174.1390  137.5600 O   0  0  0  0  0  1  0  0  0  0  0  0
  191.8940  174.8310  135.5750 O   0  0  0  0  0  1  0  0  0  0  0  0
  184.9250  178.3620  145.6120 C   0  0  0  0  0  0  0  0  0  0  0  0
  184.1810  178.6280  146.5930 O   0  0  0  0  0  1  0  0  0  0  0  0
  186.1720  177.7900  145.8400 O   0  0  0  0  0  0  0  0  0  0  0  0
  1 17  1  0  0  0  0
  2 12  1  0  0  0  0
  3 15  1  0  0  0  0
  4 23  1  0  0  0  0
  4  8  1  1  0  0  0
  4  5  1  0  0  0  0
  5  1  1  0  0  0  0
  6  7  1  6  0  0  0
  6 11  1  0  0  0  0
  7 11  1  0  0  0  0
  9  3  1  0  0  0  0
 10  8  1  1  0  0  0
 10  6  1  0  0  0  0
 10  1  1  0  0  0  0
 11  9  1  6  0  0  0
 12 13  1  0  0  0  0
 13 32  1  0  0  0  0
 14 13  2  0  0  0  0
 15  2  2  0  0  0  0
 16 14  1  0  0  0  0
 17 16  2  0  0  0  0
 17 15  1  0  0  0  0
 18 28  1  0  0  0  0
 20 29  1  6  0  0  0
 20 26  1  0  0  0  0
 21 22  1  0  0  0  0
 21 20  1  0  0  0  0
 22 18  1  6  0  0  0
 22 25  1  0  0  0  0
 23 28  1  6  0  0  0
 23 27  1  0  0  0  0
 25 19  1  1  0  0  0
 25 24  1  0  0  0  0
 26 24  1  0  0  0  0
 27 19  1  0  0  0  0
 29 30  1  0  0  0  0
 31 29  1  0  0  0  0
 32 34  2  0  0  0  0
 32 33  1  0  0  0  0
M  END
>  <MODEL>
4

>  <REMARK>
 VINA RESULT:      -7.4      2.756      7.319
  Name = 
  3 active torsions:
  status: ('A' for Active; 'I' for Inactive)
    1  A    between atoms: C_3  and  C_25
    2  A    between atoms: C_7  and  C_11
    3  A    between atoms: C_8  and  C_18
                            x       y       z     vdW  Elec       q    Type
                         _______ _______ _______ _____ _____    ______ ____

>  <TORSDO>
F 3

$$$$
=
 OpenBabel11052415393D

 34 39  0  0  1  0  0  0  0  0999 V2000
  191.0870  176.7800  137.7030 N   0  0  0  0  0  0  0  0  0  0  0  0
  189.6360  175.2050  134.7050 C   0  0  0  0  0  3  0  0  0  0  0  0
  191.7880  176.1560  134.8440 N   0  0  0  0  0  2  0  0  0  0  0  0
  191.1580  177.5240  140.1000 C   0  0  2  0  0  3  0  0  0  0  0  0
  190.0660  177.8290  138.6680 S   0  0  0  0  0  0  0  0  0  0  0  0
  193.2600  175.5210  137.7910 C   0  0  1  0  0  3  0  0  0  0  0  0
  194.4860  176.0150  137.3010 O   0  0  0  0  0  0  0  0  0  0  0  0
  192.2740  176.6480  139.7310 N   0  0  0  0  0  2  0  0  0  0  0  0
  192.9910  176.6250  135.5190 C   0  0  0  0  0  2  0  0  0  0  0  0
  192.4200  176.7070  138.2850 C   0  0  2  0  0  3  0  0  0  0  0  0
  193.6080  175.4940  136.3350 C   0  0  2  0  0  3  0  0  0  0  0  0
  188.3300  174.6900  135.2090 C   0  0  0  0  0  2  0  0  0  0  0  0
  188.5350  173.4610  136.0380 C   0  0  0  0  0  0  0  0  0  0  0  0
  189.2100  173.5190  137.1890 C   0  0  0  0  0  3  0  0  0  0  0  0
  190.6100  175.6630  135.4960 C   0  0  0  0  0  0  0  0  0  0  0  0
  189.9050  174.7150  137.7060 C   0  0  0  0  0  3  0  0  0  0  0  0
  190.4840  175.6930  136.9860 C   0  0  0  0  0  0  0  0  0  0  0  0
  188.0140  176.6770  142.0450 C   0  0  0  0  0  2  0  0  0  0  0  0
  190.4550  176.4190  143.7640 C   0  0  0  0  0  2  0  0  0  0  0  0
  187.0270  178.4990  145.3210 C   0  0  2  0  0  3  0  0  0  0  0  0
  186.8480  177.8780  143.9260 C   0  0  0  0  0  2  0  0  0  0  0  0
  187.9560  176.8820  143.5630 C   0  0  2  0  0  3  0  0  0  0  0  0
  190.3710  176.9600  141.2820 C   0  0  1  0  0  3  0  0  0  0  0  0
  189.1620  177.1950  145.7650 C   0  0  0  0  0  2  0  0  0  0  0  0
  189.2850  177.2620  144.2380 C   0  0  1  0  0  3  0  0  0  0  0  0
  187.7590  177.5520  146.2810 C   0  0  0  0  0  2  0  0  0  0  0  0
  191.1420  177.1150  142.5980 C   0  0  0  0  0  2  0  0  0  0  0  0
  188.9910  177.6100  141.3410 C   0  0  0  0  0  2  0  0  0  0  0  0
  185.6830  178.9560  145.8790 C   0  0  0  0  0  3  0  0  0  0  0  0
  185.4360  178.3400  147.1060 O   0  0  0  0  0  1  0  0  0  0  0  0
  184.6470  178.6630  144.9890 O   0  0  0  0  0  1  0  0  0  0  0  0
  187.9180  172.1920  135.6190 C   0  0  0  0  0  0  0  0  0  0  0  0
  186.7440  171.9080  135.9770 O   0  0  0  0  0  1  0  0  0  0  0  0
  188.6200  171.2970  134.8190 O   0  0  0  0  0  0  0  0  0  0  0  0
  1 10  1  0  0  0  0
  1  5  1  0  0  0  0
  2 12  1  0  0  0  0
  2 15  2  0  0  0  0
  3 15  1  0  0  0  0
  3  9  1  0  0  0  0
  4  5  1  6  0  0  0
  4 23  1  0  0  0  0
  6  7  1  1  0  0  0
  6 10  1  0  0  0  0
  8  4  1  0  0  0  0
 10  8  1  1  0  0  0
 11  9  1  6  0  0  0
 11  7  1  0  0  0  0
 11  6  1  0  0  0  0
 12 13  1  0  0  0  0
 13 14  2  0  0  0  0
 14 16  1  0  0  0  0
 15 17  1  0  0  0  0
 17  1  1  0  0  0  0
 17 16  2  0  0  0  0
 20 29  1  1  0  0  0
 20 26  1  0  0  0  0
 21 20  1  0  0  0  0
 22 18  1  6  0  0  0
 22 21  1  0  0  0  0
 22 25  1  0  0  0  0
 23 28  1  1  0  0  0
 23 27  1  0  0  0  0
 24 26  1  0  0  0  0
 25 19  1  6  0  0  0
 25 24  1  0  0  0  0
 27 19  1  0  0  0  0
 28 18  1  0  0  0  0
 29 30  1  0  0  0  0
 31 29  1  0  0  0  0
 32 33  1  0  0  0  0
 32 13  1  0  0  0  0
 34 32  2  0  0  0  0
M  END
>  <MODEL>
5

>  <REMARK>
 VINA RESULT:      -7.2      5.499      7.506
  Name = 
  3 active torsions:
  status: ('A' for Active; 'I' for Inactive)
    1  A    between atoms: C_3  and  C_25
    2  A    between atoms: C_7  and  C_11
    3  A    between atoms: C_8  and  C_18
                            x       y       z     vdW  Elec       q    Type
                         _______ _______ _______ _____ _____    ______ ____

>  <TORSDO>
F 3

$$$$
=
 OpenBabel11052415393D

 34 39  0  0  1  0  0  0  0  0999 V2000
  189.2510  176.7180  137.1470 N   0  0  0  0  0  0  0  0  0  0  0  0
  186.5400  176.6780  134.6530 C   0  0  0  0  0  3  0  0  0  0  0  0
  188.4730  175.3300  134.5940 N   0  0  0  0  0  2  0  0  0  0  0  0
  190.4290  177.4280  139.2480 C   0  0  2  0  0  3  0  0  0  0  0  0
  189.8000  178.2690  137.7530 S   0  0  0  0  0  0  0  0  0  0  0  0
  189.3580  174.2570  137.6460 C   0  0  1  0  0  3  0  0  0  0  0  0
  190.2950  173.3700  137.0780 O   0  0  0  0  0  0  0  0  0  0  0  0
  190.2030  175.9820  139.1690 N   0  0  0  0  0  2  0  0  0  0  0  0
  189.6330  174.6470  135.1510 C   0  0  0  0  0  2  0  0  0  0  0  0
  190.0110  175.6420  137.7680 C   0  0  2  0  0  3  0  0  0  0  0  0
  189.1960  173.7020  136.2660 C   0  0  2  0  0  3  0  0  0  0  0  0
  185.5480  177.6250  135.2370 C   0  0  0  0  0  2  0  0  0  0  0  0
  184.8200  176.9860  136.3780 C   0  0  0  0  0  0  0  0  0  0  0  0
  185.4710  176.6320  137.4900 C   0  0  0  0  0  3  0  0  0  0  0  0
  187.5970  176.2040  135.3180 C   0  0  0  0  0  0  0  0  0  0  0  0
  186.9320  176.7130  137.6790 C   0  0  0  0  0  3  0  0  0  0  0  0
  187.8840  176.5790  136.7380 C   0  0  0  0  0  0  0  0  0  0  0  0
  190.4950  178.8010  142.7830 C   0  0  0  0  0  2  0  0  0  0  0  0
  187.6920  178.2130  141.9000 C   0  0  0  0  0  2  0  0  0  0  0  0
  188.9640  176.8990  145.7940 C   0  0  2  0  0  3  0  0  0  0  0  0
  189.9980  177.7120  144.9990 C   0  0  0  0  0  2  0  0  0  0  0  0
  189.3960  178.4310  143.7840 C   0  0  2  0  0  3  0  0  0  0  0  0
  189.8140  178.0230  140.5140 C   0  0  1  0  0  3  0  0  0  0  0  0
  187.0660  177.5500  144.2340 C   0  0  0  0  0  2  0  0  0  0  0  0
  188.2050  177.6430  143.2110 C   0  0  1  0  0  3  0  0  0  0  0  0
  187.5570  177.5010  145.6900 C   0  0  0  0  0  2  0  0  0  0  0  0
  188.3850  177.5140  140.7390 C   0  0  0  0  0  2  0  0  0  0  0  0
  190.7220  177.7440  141.7090 C   0  0  0  0  0  2  0  0  0  0  0  0
  189.4120  176.7340  147.2420 C   0  0  0  0  0  3  0  0  0  0  0  0
  189.0760  177.8670  147.9830 O   0  0  0  0  0  1  0  0  0  0  0  0
  190.7900  176.5160  147.3160 O   0  0  0  0  0  1  0  0  0  0  0  0
  183.3600  176.8190  136.3050 C   0  0  0  0  0  0  0  0  0  0  0  0
  182.8620  175.6970  136.0210 O   0  0  0  0  0  0  0  0  0  0  0  0
  182.5140  177.8950  136.5550 O   0  0  0  0  0  1  0  0  0  0  0  0
  1  5  1  0  0  0  0
  1 10  1  0  0  0  0
  2 12  1  0  0  0  0
  2 15  2  0  0  0  0
  3  9  1  0  0  0  0
  3 15  1  0  0  0  0
  4  5  1  6  0  0  0
  4 23  1  0  0  0  0
  6  7  1  1  0  0  0
  6 10  1  0  0  0  0
  8  4  1  0  0  0  0
 10  8  1  1  0  0  0
 11  9  1  6  0  0  0
 11  7  1  0  0  0  0
 11  6  1  0  0  0  0
 12 13  1  0  0  0  0
 13 14  2  0  0  0  0
 14 16  1  0  0  0  0
 15 17  1  0  0  0  0
 17  1  1  0  0  0  0
 17 16  2  0  0  0  0
 20 29  1  1  0  0  0
 21 20  1  0  0  0  0
 22 18  1  6  0  0  0
 22 21  1  0  0  0  0
 23 27  1  1  0  0  0
 23 28  1  0  0  0  0
 24 26  1  0  0  0  0
 25 19  1  6  0  0  0
 25 22  1  0  0  0  0
 25 24  1  0  0  0  0
 26 20  1  0  0  0  0
 27 19  1  0  0  0  0
 28 18  1  0  0  0  0
 29 31  1  0  0  0  0
 29 30  1  0  0  0  0
 32 13  1  0  0  0  0
 32 34  1  0  0  0  0
 33 32  2  0  0  0  0
M  END
>  <MODEL>
6

>  <REMARK>
 VINA RESULT:      -7.1      3.769      5.976
  Name = 
  3 active torsions:
  status: ('A' for Active; 'I' for Inactive)
    1  A    between atoms: C_3  and  C_25
    2  A    between atoms: C_7  and  C_11
    3  A    between atoms: C_8  and  C_18
                            x       y       z     vdW  Elec       q    Type
                         _______ _______ _______ _____ _____    ______ ____

>  <TORSDO>
F 3

$$$$
=
 OpenBabel11052415393D

 34 39  0  0  1  0  0  0  0  0999 V2000
  185.6280  175.3630  136.0020 N   0  0  0  0  0  0  0  0  0  0  0  0
  182.3130  173.9620  135.2160 C   0  0  0  0  0  3  0  0  0  0  0  0
  184.3800  173.0150  134.5940 N   0  0  0  0  0  2  0  0  0  0  0  0
  187.2550  176.9840  137.0180 C   0  0  2  0  0  3  0  0  0  0  0  0
  185.8580  177.0930  135.8450 S   0  0  0  0  0  0  0  0  0  0  0  0
  186.6860  173.3180  137.0110 C   0  0  1  0  0  3  0  0  0  0  0  0
  187.5480  172.4440  136.3180 O   0  0  0  0  0  0  0  0  0  0  0  0
  187.4800  175.5970  137.4360 N   0  0  0  0  0  2  0  0  0  0  0  0
  185.8160  172.7840  134.6850 C   0  0  0  0  0  2  0  0  0  0  0  0
  186.8660  174.7330  136.4410 C   0  0  2  0  0  3  0  0  0  0  0  0
  186.1740  172.2680  136.0750 C   0  0  2  0  0  3  0  0  0  0  0  0
  181.3910  174.8880  135.9330 C   0  0  0  0  0  2  0  0  0  0  0  0
  181.4130  174.6150  137.4050 C   0  0  0  0  0  0  0  0  0  0  0  0
  182.5250  174.8110  138.1190 C   0  0  0  0  0  3  0  0  0  0  0  0
  183.6370  173.9460  135.3920 C   0  0  0  0  0  0  0  0  0  0  0  0
  183.8370  175.1890  137.5580 C   0  0  0  0  0  3  0  0  0  0  0  0
  184.3290  174.8640  136.3490 C   0  0  0  0  0  0  0  0  0  0  0  0
  188.1840  178.6000  140.3210 C   0  0  0  0  0  2  0  0  0  0  0  0
  185.2940  179.0460  139.6710 C   0  0  0  0  0  2  0  0  0  0  0  0
  186.3600  177.7730  143.6390 C   0  0  2  0  0  3  0  0  0  0  0  0
  187.5390  178.0340  142.6880 C   0  0  0  0  0  2  0  0  0  0  0  0
  187.1330  178.7930  141.4180 C   0  0  2  0  0  3  0  0  0  0  0  0
  187.0380  177.9040  138.2190 C   0  0  1  0  0  3  0  0  0  0  0  0
  184.7010  178.9330  142.1030 C   0  0  0  0  0  2  0  0  0  0  0  0
  185.6820  178.4680  141.0210 C   0  0  1  0  0  3  0  0  0  0  0  0
  185.2800  178.8570  143.5250 C   0  0  0  0  0  2  0  0  0  0  0  0
  185.5530  178.0130  138.5840 C   0  0  0  0  0  2  0  0  0  0  0  0
  187.8890  177.4280  139.3930 C   0  0  0  0  0  2  0  0  0  0  0  0
  186.8560  177.6060  145.0720 C   0  0  0  0  0  3  0  0  0  0  0  0
  186.3110  178.5960  145.8890 O   0  0  0  0  0  1  0  0  0  0  0  0
  188.2500  177.6660  145.1280 O   0  0  0  0  0  1  0  0  0  0  0  0
  180.1740  174.2030  138.0850 C   0  0  0  0  0  0  0  0  0  0  0  0
  179.9810  172.9930  138.3750 O   0  0  0  0  0  0  0  0  0  0  0  0
  179.2080  175.1460  138.4200 O   0  0  0  0  0  1  0  0  0  0  0  0
  1 17  1  0  0  0  0
  1 10  1  0  0  0  0
  2 15  2  0  0  0  0
  2 12  1  0  0  0  0
  3  9  1  0  0  0  0
  3 15  1  0  0  0  0
  4  5  1  6  0  0  0
  4  8  1  0  0  0  0
  4 23  1  0  0  0  0
  5  1  1  0  0  0  0
  6  7  1  6  0  0  0
 10  6  1  0  0  0  0
 10  8  1  1  0  0  0
 11  9  1  6  0  0  0
 11  7  1  0  0  0  0
 11  6  1  0  0  0  0
 12 13  1  0  0  0  0
 13 32  1  0  0  0  0
 13 14  2  0  0  0  0
 15 17  1  0  0  0  0
 16 14  1  0  0  0  0
 17 16  2  0  0  0  0
 20 29  1  1  0  0  0
 21 20  1  0  0  0  0
 22 18  1  6  0  0  0
 22 21  1  0  0  0  0
 23 27  1  1  0  0  0
 23 28  1  0  0  0  0
 24 26  1  0  0  0  0
 25 19  1  6  0  0  0
 25 22  1  0  0  0  0
 25 24  1  0  0  0  0
 26 20  1  0  0  0  0
 27 19  1  0  0  0  0
 28 18  1  0  0  0  0
 29 31  1  0  0  0  0
 29 30  1  0  0  0  0
 32 33  2  0  0  0  0
 32 34  1  0  0  0  0
M  END
>  <MODEL>
7

>  <REMARK>
 VINA RESULT:      -6.6      3.077      5.634
  Name = 
  3 active torsions:
  status: ('A' for Active; 'I' for Inactive)
    1  A    between atoms: C_3  and  C_25
    2  A    between atoms: C_7  and  C_11
    3  A    between atoms: C_8  and  C_18
                            x       y       z     vdW  Elec       q    Type
                         _______ _______ _______ _____ _____    ______ ____

>  <TORSDO>
F 3

$$$$
=
 OpenBabel11052415393D

 34 39  0  0  1  0  0  0  0  0999 V2000
  185.1650  174.8610  135.5590 N   0  0  0  0  0  0  0  0  0  0  0  0
  181.5290  174.8440  136.1500 C   0  0  0  0  0  3  0  0  0  0  0  0
  182.7430  173.1510  135.0470 N   0  0  0  0  0  2  0  0  0  0  0  0
  187.5110  175.7450  135.7000 C   0  0  2  0  0  3  0  0  0  0  0  0
  185.9180  176.3600  135.0510 S   0  0  0  0  0  0  0  0  0  0  0  0
  185.7210  172.5920  136.4860 C   0  0  1  0  0  3  0  0  0  0  0  0
  185.8980  171.4330  135.7020 O   0  0  0  0  0  0  0  0  0  0  0  0
  187.3670  174.3910  136.2440 N   0  0  0  0  0  2  0  0  0  0  0  0
  183.9290  172.3800  134.6980 C   0  0  0  0  0  2  0  0  0  0  0  0
  186.1670  173.8090  135.6630 C   0  0  2  0  0  3  0  0  0  0  0  0
  184.5650  171.8010  135.9570 C   0  0  2  0  0  3  0  0  0  0  0  0
  181.3280  176.0750  136.9680 C   0  0  0  0  0  2  0  0  0  0  0  0
  181.7910  175.8520  138.3740 C   0  0  0  0  0  0  0  0  0  0  0  0
  183.0780  175.6170  138.6390 C   0  0  0  0  0  3  0  0  0  0  0  0
  182.7270  174.3180  135.8810 C   0  0  0  0  0  0  0  0  0  0  0  0
  184.1350  175.4390  137.6240 C   0  0  0  0  0  3  0  0  0  0  0  0
  183.9980  174.9180  136.3910 C   0  0  0  0  0  0  0  0  0  0  0  0
  190.1700  177.0450  138.0720 C   0  0  0  0  0  2  0  0  0  0  0  0
  187.5260  178.3600  138.5800 C   0  0  0  0  0  2  0  0  0  0  0  0
  189.7920  176.8850  141.9260 C   0  0  2  0  0  3  0  0  0  0  0  0
  190.4720  176.7490  140.5540 C   0  0  0  0  0  2  0  0  0  0  0  0
  189.7870  177.5750  139.4570 C   0  0  2  0  0  3  0  0  0  0  0  0
  188.0920  176.7060  136.7360 C   0  0  1  0  0  3  0  0  0  0  0  0
  188.0260  178.4790  141.0330 C   0  0  0  0  0  2  0  0  0  0  0  0
  188.2790  177.7130  139.7290 C   0  0  1  0  0  3  0  0  0  0  0  0
  189.1110  178.2490  142.0960 C   0  0  0  0  0  2  0  0  0  0  0  0
  187.0000  177.2790  137.6470 C   0  0  0  0  0  2  0  0  0  0  0  0
  189.1960  176.0080  137.5250 C   0  0  0  0  0  2  0  0  0  0  0  0
  190.7860  176.5960  143.0460 C   0  0  0  0  0  3  0  0  0  0  0  0
  190.1640  176.7240  144.2880 O   0  0  0  0  0  1  0  0  0  0  0  0
  191.8810  177.4600  142.9770 O   0  0  0  0  0  1  0  0  0  0  0  0
  180.8290  175.9730  139.4820 C   0  0  0  0  0  0  0  0  0  0  0  0
  180.6660  177.0790  140.0630 O   0  0  0  0  0  1  0  0  0  0  0  0
  180.0860  174.8720  139.8940 O   0  0  0  0  0  0  0  0  0  0  0  0
  1 10  1  0  0  0  0
  1 17  1  0  0  0  0
  2 12  1  0  0  0  0
  3 15  1  0  0  0  0
  4  5  1  1  0  0  0
  4  8  1  0  0  0  0
  4 23  1  0  0  0  0
  5  1  1  0  0  0  0
  6  7  1  6  0  0  0
  7 11  1  0  0  0  0
  9  3  1  0  0  0  0
 10  8  1  1  0  0  0
 10  6  1  0  0  0  0
 11  9  1  6  0  0  0
 11  6  1  0  0  0  0
 12 13  1  0  0  0  0
 13 14  2  0  0  0  0
 13 32  1  0  0  0  0
 15  2  2  0  0  0  0
 15 17  1  0  0  0  0
 16 14  1  0  0  0  0
 17 16  2  0  0  0  0
 20 26  1  0  0  0  0
 20 29  1  1  0  0  0
 21 20  1  0  0  0  0
 22 18  1  6  0  0  0
 22 25  1  0  0  0  0
 22 21  1  0  0  0  0
 23 28  1  1  0  0  0
 23 27  1  0  0  0  0
 24 26  1  0  0  0  0
 25 19  1  6  0  0  0
 25 24  1  0  0  0  0
 27 19  1  0  0  0  0
 28 18  1  0  0  0  0
 29 30  1  0  0  0  0
 31 29  1  0  0  0  0
 32 34  2  0  0  0  0
 32 33  1  0  0  0  0
M  END
>  <MODEL>
8

>  <REMARK>
 VINA RESULT:      -6.4      4.053      6.341
  Name = 
  3 active torsions:
  status: ('A' for Active; 'I' for Inactive)
    1  A    between atoms: C_3  and  C_25
    2  A    between atoms: C_7  and  C_11
    3  A    between atoms: C_8  and  C_18
                            x       y       z     vdW  Elec       q    Type
                         _______ _______ _______ _____ _____    ______ ____

>  <TORSDO>
F 3

$$$$
=
 OpenBabel11052415393D

 34 39  0  0  1  0  0  0  0  0999 V2000
  185.9560  177.0440  136.6970 N   0  0  0  0  0  0  0  0  0  0  0  0
  182.3700  177.8890  136.6550 C   0  0  0  0  0  3  0  0  0  0  0  0
  183.3810  176.1550  135.4190 N   0  0  0  0  0  2  0  0  0  0  0  0
  188.3520  177.2360  137.4230 C   0  0  2  0  0  3  0  0  0  0  0  0
  187.1190  178.3550  136.6710 S   0  0  0  0  0  0  0  0  0  0  0  0
  185.7700  174.5830  137.1730 C   0  0  1  0  0  3  0  0  0  0  0  0
  185.8480  173.5750  136.1900 O   0  0  0  0  0  0  0  0  0  0  0  0
  187.7920  175.8950  137.6180 N   0  0  0  0  0  2  0  0  0  0  0  0
  184.4100  175.1710  135.1090 C   0  0  0  0  0  2  0  0  0  0  0  0
  186.6480  175.7630  136.7300 C   0  0  2  0  0  3  0  0  0  0  0  0
  184.6100  174.2320  136.2950 C   0  0  2  0  0  3  0  0  0  0  0  0
  182.2790  178.9660  137.6820 C   0  0  0  0  0  2  0  0  0  0  0  0
  182.3620  178.3870  139.0590 C   0  0  0  0  0  0  0  0  0  0  0  0
  183.4740  177.7760  139.4760 C   0  0  0  0  0  3  0  0  0  0  0  0
  183.4480  177.1200  136.4790 C   0  0  0  0  0  0  0  0  0  0  0  0
  184.6580  177.5040  138.6380 C   0  0  0  0  0  3  0  0  0  0  0  0
  184.6800  177.2620  137.3150 C   0  0  0  0  0  0  0  0  0  0  0  0
  191.0050  177.8780  140.0560 C   0  0  0  0  0  2  0  0  0  0  0  0
  188.2780  178.5990  141.0660 C   0  0  0  0  0  2  0  0  0  0  0  0
  190.8810  176.2770  143.5840 C   0  0  2  0  0  3  0  0  0  0  0  0
  191.4860  176.7320  142.2460 C   0  0  0  0  0  2  0  0  0  0  0  0
  190.6560  177.8160  141.5460 C   0  0  2  0  0  3  0  0  0  0  0  0
  188.8950  177.8120  138.7300 C   0  0  1  0  0  3  0  0  0  0  0  0
  188.9110  177.8700  143.3780 C   0  0  0  0  0  2  0  0  0  0  0  0
  189.1610  177.6690  141.8790 C   0  0  1  0  0  3  0  0  0  0  0  0
  190.0770  177.3950  144.2600 C   0  0  0  0  0  2  0  0  0  0  0  0
  187.8080  177.8810  139.8090 C   0  0  0  0  0  2  0  0  0  0  0  0
  190.1100  177.0070  139.1830 C   0  0  0  0  0  2  0  0  0  0  0  0
  191.9650  175.7160  144.4980 C   0  0  0  0  0  3  0  0  0  0  0  0
  192.0570  174.3320  144.3440 O   0  0  0  0  0  1  0  0  0  0  0  0
  191.7000  176.0230  145.8340 O   0  0  0  0  0  1  0  0  0  0  0  0
  181.2350  178.5630  139.9900 C   0  0  0  0  0  0  0  0  0  0  0  0
  180.0580  178.3150  139.6160 O   0  0  0  0  0  0  0  0  0  0  0  0
  181.4580  178.9970  141.2920 O   0  0  0  0  0  1  0  0  0  0  0  0
  1 10  1  0  0  0  0
  1 17  1  0  0  0  0
  2 12  1  0  0  0  0
  3 15  1  0  0  0  0
  4  5  1  1  0  0  0
  4  8  1  0  0  0  0
  4 23  1  0  0  0  0
  5  1  1  0  0  0  0
  6  7  1  6  0  0  0
  7 11  1  0  0  0  0
  9  3  1  0  0  0  0
 10  6  1  0  0  0  0
 10  8  1  1  0  0  0
 11  9  1  6  0  0  0
 11  6  1  0  0  0  0
 12 13  1  0  0  0  0
 13 14  2  0  0  0  0
 13 32  1  0  0  0  0
 15  2  2  0  0  0  0
 15 17  1  0  0  0  0
 16 14  1  0  0  0  0
 17 16  2  0  0  0  0
 20 26  1  0  0  0  0
 20 29  1  1  0  0  0
 21 20  1  0  0  0  0
 22 18  1  6  0  0  0
 22 25  1  0  0  0  0
 22 21  1  0  0  0  0
 23 28  1  1  0  0  0
 23 27  1  0  0  0  0
 24 26  1  0  0  0  0
 25 19  1  6  0  0  0
 25 24  1  0  0  0  0
 27 19  1  0  0  0  0
 28 18  1  0  0  0  0
 29 31  1  0  0  0  0
 30 29  1  0  0  0  0
 32 34  1  0  0  0  0
 33 32  2  0  0  0  0
M  END
>  <MODEL>
9

>  <REMARK>
 VINA RESULT:      -6.4      3.256      5.668
  Name = 
  3 active torsions:
  status: ('A' for Active; 'I' for Inactive)
    1  A    between atoms: C_3  and  C_25
    2  A    between atoms: C_7  and  C_11
    3  A    between atoms: C_8  and  C_18
                            x       y       z     vdW  Elec       q    Type
                         _______ _______ _______ _____ _____    ______ ____

>  <TORSDO>
F 3

$$$$
