=
 OpenBabel11052412233D

 30 33  0  0  1  0  0  0  0  0999 V2000
  185.6490  178.3970  139.7950 C   0  0  2  0  0  3  0  0  0  0  0  0
  187.9740  176.1750  142.5940 O   0  0  0  0  0  1  0  0  0  0  0  0
  187.9020  178.5290  141.1150 C   0  0  1  0  0  3  0  0  0  0  0  0
  186.2840  177.3500  138.8870 C   0  0  0  0  0  2  0  0  0  0  0  0
  189.0250  178.9270  137.0440 C   0  0  0  0  0  2  0  0  0  0  0  0
  187.9550  178.9160  138.0450 N   0  0  0  0  0  2  0  0  0  0  0  0
  188.2970  176.4300  137.8200 C   0  0  0  0  0  2  0  0  0  0  0  0
  184.3840  177.7110  142.4860 F   0  0  0  0  0  0  0  0  0  0  0  0
  187.9700  177.4340  143.2060 C   0  0  2  0  0  3  0  0  0  0  0  0
  187.7840  177.5950  138.6920 C   0  0  2  0  0  0  0  0  0  0  0  0
  188.5020  177.5560  140.0690 C   0  0  1  0  0  3  0  0  0  0  0  0
  185.7930  179.6130  142.0440 C   0  0  0  0  0  2  0  0  0  0  0  0
  188.6890  177.9950  135.8780 C   0  0  0  0  0  2  0  0  0  0  0  0
  188.0260  176.6970  136.3420 C   0  0  0  0  0  2  0  0  0  0  0  0
  186.3570  178.5150  141.1550 C   0  0  1  0  0  0  0  0  0  0  0  0
  186.5700  177.8230  143.6610 C   0  0  0  0  0  2  0  0  0  0  0  0
  188.5440  178.4320  142.3820 O   0  0  0  0  0  0  0  0  0  0  0  0
  185.6860  178.1580  142.4740 C   0  0  2  0  0  0  0  0  0  0  0  0
  183.6680  179.6530  139.1090 C   0  0  0  0  0  0  0  0  0  0  0  0
  184.5410  180.6800  138.7600 O   0  0  0  0  0  1  0  0  0  0  0  0
  184.1390  178.5240  139.6770 C   0  0  0  0  0  0  0  0  0  0  0  0
  181.8710  177.7840  140.6220 C   0  0  0  0  0  1  0  0  0  0  0  0
  182.9030  176.5080  138.7770 C   0  0  0  0  0  1  0  0  0  0  0  0
  183.1930  177.3680  139.9970 C   0  0  0  0  0  3  0  0  0  0  0  0
  182.2190  179.8440  138.7900 C   0  0  0  0  0  2  0  0  0  0  0  0
  181.9340  181.2060  138.7020 O   0  0  0  0  0  1  0  0  0  0  0  0
  190.6110  176.4630  139.1520 C   0  0  0  0  0  1  0  0  0  0  0  0
  190.0410  177.6250  139.9470 C   0  0  2  0  0  3  0  0  0  0  0  0
  190.7980  177.8570  141.2580 C   0  0  0  0  0  2  0  0  0  0  0  0
  192.1440  177.5040  141.1440 O   0  0  0  0  0  1  0  0  0  0  0  0
  1 21  1  1  0  0  0
  1 15  1  0  0  0  0
  3 15  1  0  0  0  0
  3 17  1  1  0  0  0
  4  1  1  0  0  0  0
  5  6  1  0  0  0  0
  6 10  1  0  0  0  0
  9  2  1  6  0  0  0
  9 16  1  0  0  0  0
 10  7  1  6  0  0  0
 10  4  1  0  0  0  0
 10 11  1  0  0  0  0
 11 28  1  6  0  0  0
 11  3  1  0  0  0  0
 12 18  1  0  0  0  0
 13 14  1  0  0  0  0
 13  5  1  0  0  0  0
 14  7  1  0  0  0  0
 15 12  1  1  0  0  0
 15 18  1  0  0  0  0
 17  9  1  0  0  0  0
 18  8  1  6  0  0  0
 18 16  1  0  0  0  0
 19 21  2  0  0  0  0
 20 19  1  0  0  0  0
 21 24  1  0  0  0  0
 23 24  1  0  0  0  0
 24 22  1  0  0  0  0
 25 19  1  0  0  0  0
 26 25  1  0  0  0  0
 28 27  1  1  0  0  0
 28 29  1  0  0  0  0
 30 29  1  0  0  0  0
M  END
>  <MODEL>
1

>  <REMARK>
 VINA RESULT:      -6.3      0.000      0.000
  Name = 
  5 active torsions:
  status: ('A' for Active; 'I' for Inactive)
    1  A    between atoms: C_1  and  C_22
    2  A    between atoms: C_2  and  C_14
    3  A    between atoms: C_7  and  C_30
    4  A    between atoms: C_13  and  C_30
    5  A    between atoms: C_22  and  C_29
                            x       y       z     vdW  Elec       q    Type
                         _______ _______ _______ _____ _____    ______ ____

>  <TORSDO>
F 5

$$$$
=
 OpenBabel11052412233D

 30 33  0  0  1  0  0  0  0  0999 V2000
  182.6590  175.1040  137.4000 C   0  0  2  0  0  3  0  0  0  0  0  0
  179.7220  174.1200  140.3300 O   0  0  0  0  0  1  0  0  0  0  0  0
  180.2880  175.8400  138.2190 C   0  0  1  0  0  3  0  0  0  0  0  0
  183.2510  175.7580  138.6430 C   0  0  0  0  0  2  0  0  0  0  0  0
  182.6390  179.3620  138.4590 C   0  0  0  0  0  2  0  0  0  0  0  0
  182.5070  177.9840  137.9780 N   0  0  0  0  0  2  0  0  0  0  0  0
  183.1210  177.4980  140.3730 C   0  0  0  0  0  2  0  0  0  0  0  0
  181.5220  172.2730  137.3950 F   0  0  0  0  0  0  0  0  0  0  0  0
  178.9310  174.1610  139.1760 C   0  0  2  0  0  3  0  0  0  0  0  0
  182.4540  176.9920  139.0760 C   0  0  2  0  0  0  0  0  0  0  0  0
  180.9870  176.5830  139.3840 C   0  0  1  0  0  3  0  0  0  0  0  0
  180.5380  174.1800  136.3030 C   0  0  0  0  0  2  0  0  0  0  0  0
  183.9710  179.5580  139.1860 C   0  0  0  0  0  2  0  0  0  0  0  0
  184.3430  178.3550  140.0560 C   0  0  0  0  0  2  0  0  0  0  0  0
  181.1700  174.7550  137.5620 C   0  0  1  0  0  0  0  0  0  0  0  0
  179.3050  173.0490  138.2070 C   0  0  0  0  0  2  0  0  0  0  0  0
  178.9650  175.4300  138.5480 O   0  0  0  0  0  0  0  0  0  0  0  0
  180.6490  173.3250  137.5560 C   0  0  2  0  0  0  0  0  0  0  0  0
  183.9600  174.5900  135.3960 C   0  0  0  0  0  0  0  0  0  0  0  0
  183.3840  175.7250  134.8310 O   0  0  0  0  0  1  0  0  0  0  0  0
  183.6060  174.1940  136.6350 C   0  0  0  0  0  0  0  0  0  0  0  0
  184.2510  171.7170  136.4570 C   0  0  0  0  0  1  0  0  0  0  0  0
  185.7310  173.2820  137.6630 C   0  0  0  0  0  1  0  0  0  0  0  0
  184.2870  172.9910  137.2850 C   0  0  0  0  0  3  0  0  0  0  0  0
  185.0010  173.8750  134.5940 C   0  0  0  0  0  2  0  0  0  0  0  0
  186.1830  174.6150  134.5940 O   0  0  0  0  0  1  0  0  0  0  0  0
  179.6040  177.3920  141.3630 C   0  0  0  0  0  1  0  0  0  0  0  0
  180.1560  177.7360  139.9900 C   0  0  2  0  0  3  0  0  0  0  0  0
  179.0880  178.3360  139.0710 C   0  0  0  0  0  2  0  0  0  0  0  0
  179.2350  179.7180  138.9450 O   0  0  0  0  0  1  0  0  0  0  0  0
  1 21  1  1  0  0  0
  1 15  1  0  0  0  0
  1  4  1  0  0  0  0
  3 17  1  1  0  0  0
  3 11  1  0  0  0  0
  5 13  1  0  0  0  0
  6  5  1  0  0  0  0
  6 10  1  0  0  0  0
  9  2  1  1  0  0  0
 10  4  1  6  0  0  0
 10 11  1  0  0  0  0
 10  7  1  0  0  0  0
 11 28  1  6  0  0  0
 12 18  1  0  0  0  0
 13 14  1  0  0  0  0
 14  7  1  0  0  0  0
 15 12  1  6  0  0  0
 15  3  1  0  0  0  0
 16  9  1  0  0  0  0
 17  9  1  0  0  0  0
 18  8  1  6  0  0  0
 18 15  1  0  0  0  0
 18 16  1  0  0  0  0
 19 21  2  0  0  0  0
 20 19  1  0  0  0  0
 21 24  1  0  0  0  0
 22 24  1  0  0  0  0
 24 23  1  0  0  0  0
 25 19  1  0  0  0  0
 26 25  1  0  0  0  0
 28 27  1  1  0  0  0
 29 28  1  0  0  0  0
 30 29  1  0  0  0  0
M  END
>  <MODEL>
2

>  <REMARK>
 VINA RESULT:      -5.8      4.832      8.078
  Name = 
  5 active torsions:
  status: ('A' for Active; 'I' for Inactive)
    1  A    between atoms: C_1  and  C_22
    2  A    between atoms: C_2  and  C_14
    3  A    between atoms: C_7  and  C_30
    4  A    between atoms: C_13  and  C_30
    5  A    between atoms: C_22  and  C_29
                            x       y       z     vdW  Elec       q    Type
                         _______ _______ _______ _____ _____    ______ ____

>  <TORSDO>
F 5

$$$$
=
 OpenBabel11052412233D

 30 33  0  0  1  0  0  0  0  0999 V2000
  183.5570  177.3410  138.0350 C   0  0  2  0  0  3  0  0  0  0  0  0
  182.1370  174.0970  135.6590 O   0  0  0  0  0  1  0  0  0  0  0  0
  183.9140  174.7740  137.6890 C   0  0  1  0  0  3  0  0  0  0  0  0
  184.3020  177.5840  136.7270 C   0  0  0  0  0  2  0  0  0  0  0  0
  187.7630  176.4700  137.1430 C   0  0  0  0  0  2  0  0  0  0  0  0
  186.3790  176.6420  137.5930 N   0  0  0  0  0  2  0  0  0  0  0  0
  186.0080  176.8690  135.1110 C   0  0  0  0  0  2  0  0  0  0  0  0
  180.5820  176.6740  138.1510 F   0  0  0  0  0  0  0  0  0  0  0  0
  182.0470  173.5370  136.9380 C   0  0  2  0  0  3  0  0  0  0  0  0
  185.3970  176.5390  136.4900 C   0  0  2  0  0  0  0  0  0  0  0  0
  184.7640  175.1210  136.4410 C   0  0  1  0  0  3  0  0  0  0  0  0
  182.3040  175.6280  139.4690 C   0  0  0  0  0  2  0  0  0  0  0  0
  188.1700  177.5970  136.1930 C   0  0  0  0  0  2  0  0  0  0  0  0
  187.0460  177.9810  135.2280 C   0  0  0  0  0  2  0  0  0  0  0  0
  182.9780  175.9190  138.1360 C   0  0  1  0  0  0  0  0  0  0  0  0
  181.0030  174.2520  137.7850 C   0  0  0  0  0  2  0  0  0  0  0  0
  183.3020  173.4920  137.5930 O   0  0  0  0  0  0  0  0  0  0  0  0
  181.4840  175.6350  138.1880 C   0  0  2  0  0  0  0  0  0  0  0  0
  181.8990  179.1160  137.7630 C   0  0  0  0  0  0  0  0  0  0  0  0
  181.7650  178.6760  136.4490 O   0  0  0  0  0  1  0  0  0  0  0  0
  182.8030  178.5410  138.5820 C   0  0  0  0  0  0  0  0  0  0  0  0
  181.8090  178.4290  140.9450 C   0  0  0  0  0  1  0  0  0  0  0  0
  184.2530  178.6280  140.6550 C   0  0  0  0  0  1  0  0  0  0  0  0
  182.9040  178.9740  140.0440 C   0  0  0  0  0  3  0  0  0  0  0  0
  180.9790  180.2030  138.2220 C   0  0  0  0  0  2  0  0  0  0  0  0
  181.5600  181.4460  137.9680 O   0  0  0  0  0  1  0  0  0  0  0  0
  185.3300  173.2550  134.8050 C   0  0  0  0  0  1  0  0  0  0  0  0
  185.7750  174.0250  136.0370 C   0  0  2  0  0  3  0  0  0  0  0  0
  186.2300  173.0970  137.1660 C   0  0  0  0  0  2  0  0  0  0  0  0
  187.5760  172.7480  137.0340 O   0  0  0  0  0  1  0  0  0  0  0  0
  1 15  1  0  0  0  0
  1 21  1  6  0  0  0
  3 17  1  6  0  0  0
  3 15  1  0  0  0  0
  4  1  1  0  0  0  0
  5  6  1  0  0  0  0
  7 14  1  0  0  0  0
  9  2  1  6  0  0  0
  9 17  1  0  0  0  0
  9 16  1  0  0  0  0
 10  7  1  6  0  0  0
 10  4  1  0  0  0  0
 10  6  1  0  0  0  0
 11 28  1  1  0  0  0
 11 10  1  0  0  0  0
 11  3  1  0  0  0  0
 13  5  1  0  0  0  0
 14 13  1  0  0  0  0
 15 18  1  0  0  0  0
 15 12  1  1  0  0  0
 16 18  1  0  0  0  0
 18  8  1  6  0  0  0
 18 12  1  0  0  0  0
 19 25  1  0  0  0  0
 19 21  2  0  0  0  0
 20 19  1  0  0  0  0
 21 24  1  0  0  0  0
 24 23  1  0  0  0  0
 24 22  1  0  0  0  0
 26 25  1  0  0  0  0
 28 27  1  6  0  0  0
 28 29  1  0  0  0  0
 30 29  1  0  0  0  0
M  END
>  <MODEL>
3

>  <REMARK>
 VINA RESULT:      -5.6      3.536      5.383
  Name = 
  5 active torsions:
  status: ('A' for Active; 'I' for Inactive)
    1  A    between atoms: C_1  and  C_22
    2  A    between atoms: C_2  and  C_14
    3  A    between atoms: C_7  and  C_30
    4  A    between atoms: C_13  and  C_30
    5  A    between atoms: C_22  and  C_29
                            x       y       z     vdW  Elec       q    Type
                         _______ _______ _______ _____ _____    ______ ____

>  <TORSDO>
F 5

$$$$
=
 OpenBabel11052412233D

 30 33  0  0  1  0  0  0  0  0999 V2000
  186.0490  176.4360  136.9040 C   0  0  2  0  0  3  0  0  0  0  0  0
  184.6200  172.5130  137.7660 O   0  0  0  0  0  1  0  0  0  0  0  0
  184.5300  174.5650  135.8910 C   0  0  1  0  0  3  0  0  0  0  0  0
  184.9440  176.7390  137.9100 C   0  0  0  0  0  2  0  0  0  0  0  0
  182.0260  177.9830  136.0840 C   0  0  0  0  0  2  0  0  0  0  0  0
  183.3780  177.4240  136.1680 N   0  0  0  0  0  2  0  0  0  0  0  0
  182.5500  176.7790  138.4590 C   0  0  0  0  0  2  0  0  0  0  0  0
  188.1050  174.2200  137.3140 F   0  0  0  0  0  0  0  0  0  0  0  0
  185.0770  172.3380  136.4550 C   0  0  2  0  0  3  0  0  0  0  0  0
  183.5510  176.5050  137.3170 C   0  0  2  0  0  0  0  0  0  0  0  0
  183.4180  175.0240  136.8660 C   0  0  1  0  0  3  0  0  0  0  0  0
  186.9880  174.7290  135.2430 C   0  0  0  0  0  2  0  0  0  0  0  0
  181.7250  178.8630  137.2980 C   0  0  0  0  0  2  0  0  0  0  0  0
  182.2780  178.2740  138.5970 C   0  0  0  0  0  2  0  0  0  0  0  0
  185.9460  175.0210  136.3120 C   0  0  1  0  0  0  0  0  0  0  0  0
  186.5890  172.4930  136.3690 C   0  0  0  0  0  2  0  0  0  0  0  0
  184.4150  173.1900  135.5390 O   0  0  0  0  0  0  0  0  0  0  0  0
  186.9970  173.9450  136.5460 C   0  0  2  0  0  0  0  0  0  0  0  0
  187.8500  177.9930  136.3480 C   0  0  0  0  0  0  0  0  0  0  0  0
  187.1460  178.2590  135.1760 O   0  0  0  0  0  1  0  0  0  0  0  0
  187.3970  177.0660  137.2160 C   0  0  0  0  0  0  0  0  0  0  0  0
  189.6240  176.5910  138.3990 C   0  0  0  0  0  1  0  0  0  0  0  0
  187.9000  177.9440  139.5350 C   0  0  0  0  0  1  0  0  0  0  0  0
  188.1280  176.8220  138.5350 C   0  0  0  0  0  3  0  0  0  0  0  0
  189.0800  178.8020  136.6100 C   0  0  0  0  0  2  0  0  0  0  0  0
  188.7350  179.9810  137.2700 O   0  0  0  0  0  1  0  0  0  0  0  0
  181.4070  173.4980  137.2020 C   0  0  0  0  0  1  0  0  0  0  0  0
  181.9860  174.6600  136.4130 C   0  0  2  0  0  3  0  0  0  0  0  0
  181.7960  174.4860  134.9030 C   0  0  0  0  0  2  0  0  0  0  0  0
  181.1560  173.2830  134.6000 O   0  0  0  0  0  1  0  0  0  0  0  0
  1 21  1  1  0  0  0
  1  4  1  0  0  0  0
  3 17  1  1  0  0  0
  3 15  1  0  0  0  0
  3 11  1  0  0  0  0
  5  6  1  0  0  0  0
  5 13  1  0  0  0  0
  6 10  1  0  0  0  0
  7 14  1  0  0  0  0
  9  2  1  1  0  0  0
 10  4  1  1  0  0  0
 10  7  1  0  0  0  0
 11 28  1  6  0  0  0
 11 10  1  0  0  0  0
 12 18  1  0  0  0  0
 13 14  1  0  0  0  0
 15 12  1  6  0  0  0
 15 18  1  0  0  0  0
 15  1  1  0  0  0  0
 16  9  1  0  0  0  0
 16 18  1  0  0  0  0
 17  9  1  0  0  0  0
 18  8  1  1  0  0  0
 19 25  1  0  0  0  0
 19 21  2  0  0  0  0
 20 19  1  0  0  0  0
 21 24  1  0  0  0  0
 22 24  1  0  0  0  0
 24 23  1  0  0  0  0
 25 26  1  0  0  0  0
 28 27  1  1  0  0  0
 29 28  1  0  0  0  0
 30 29  1  0  0  0  0
M  END
>  <MODEL>
4

>  <REMARK>
 VINA RESULT:      -5.4      4.024      7.405
  Name = 
  5 active torsions:
  status: ('A' for Active; 'I' for Inactive)
    1  A    between atoms: C_1  and  C_22
    2  A    between atoms: C_2  and  C_14
    3  A    between atoms: C_7  and  C_30
    4  A    between atoms: C_13  and  C_30
    5  A    between atoms: C_22  and  C_29
                            x       y       z     vdW  Elec       q    Type
                         _______ _______ _______ _____ _____    ______ ____

>  <TORSDO>
F 5

$$$$
=
 OpenBabel11052412233D

 30 33  0  0  1  0  0  0  0  0999 V2000
  183.6390  176.8870  137.2650 C   0  0  2  0  0  3  0  0  0  0  0  0
  182.7290  173.2030  135.3190 O   0  0  0  0  0  1  0  0  0  0  0  0
  184.2530  174.3460  137.3450 C   0  0  1  0  0  3  0  0  0  0  0  0
  184.4710  177.0100  135.9940 C   0  0  0  0  0  2  0  0  0  0  0  0
  187.9680  176.3270  136.8280 C   0  0  0  0  0  2  0  0  0  0  0  0
  186.5410  176.4210  137.1440 N   0  0  0  0  0  2  0  0  0  0  0  0
  186.3700  176.2440  134.6360 C   0  0  0  0  0  2  0  0  0  0  0  0
  180.7370  175.9450  137.2640 F   0  0  0  0  0  0  0  0  0  0  0  0
  182.5780  172.8300  136.6600 C   0  0  2  0  0  3  0  0  0  0  0  0
  185.6720  176.0590  136.0010 C   0  0  2  0  0  0  0  0  0  0  0  0
  185.1750  174.5920  136.1250 C   0  0  1  0  0  3  0  0  0  0  0  0
  182.4240  175.2830  138.8500 C   0  0  0  0  0  2  0  0  0  0  0  0
  188.3540  177.3380  135.7480 C   0  0  0  0  0  2  0  0  0  0  0  0
  187.2890  177.4610  134.6560 C   0  0  0  0  0  2  0  0  0  0  0  0
  183.1830  175.4440  137.5410 C   0  0  1  0  0  0  0  0  0  0  0  0
  181.4030  173.5510  137.3070 C   0  0  0  0  0  2  0  0  0  0  0  0
  183.7690  173.0090  137.4030 O   0  0  0  0  0  0  0  0  0  0  0  0
  181.7210  175.0190  137.5270 C   0  0  2  0  0  0  0  0  0  0  0  0
  182.9480  178.7180  138.7300 C   0  0  0  0  0  0  0  0  0  0  0  0
  183.8810  178.2310  139.6410 O   0  0  0  0  0  1  0  0  0  0  0  0
  182.7360  178.0710  137.5650 C   0  0  0  0  0  0  0  0  0  0  0  0
  181.8140  177.9660  135.1720 C   0  0  0  0  0  1  0  0  0  0  0  0
  180.3260  178.6280  137.0280 C   0  0  0  0  0  1  0  0  0  0  0  0
  181.7640  178.6410  136.5330 C   0  0  0  0  0  3  0  0  0  0  0  0
  182.2410  179.9880  139.0810 C   0  0  0  0  0  2  0  0  0  0  0  0
  183.0720  181.0760  138.8160 O   0  0  0  0  0  1  0  0  0  0  0  0
  186.0480  172.5750  134.8400 C   0  0  0  0  0  1  0  0  0  0  0  0
  186.3110  173.5570  135.9690 C   0  0  2  0  0  3  0  0  0  0  0  0
  186.7460  172.8540  137.2580 C   0  0  0  0  0  2  0  0  0  0  0  0
  188.0490  172.3630  137.1620 O   0  0  0  0  0  1  0  0  0  0  0  0
  1 15  1  0  0  0  0
  1 21  1  6  0  0  0
  3 17  1  6  0  0  0
  3 15  1  0  0  0  0
  4 10  1  0  0  0  0
  4  1  1  0  0  0  0
  5  6  1  0  0  0  0
  7 14  1  0  0  0  0
  9  2  1  6  0  0  0
  9 16  1  0  0  0  0
  9 17  1  0  0  0  0
 10  7  1  6  0  0  0
 10 11  1  0  0  0  0
 10  6  1  0  0  0  0
 11 28  1  1  0  0  0
 11  3  1  0  0  0  0
 13  5  1  0  0  0  0
 14 13  1  0  0  0  0
 15 12  1  1  0  0  0
 16 18  1  0  0  0  0
 18  8  1  6  0  0  0
 18 15  1  0  0  0  0
 18 12  1  0  0  0  0
 19 25  1  0  0  0  0
 19 20  1  0  0  0  0
 21 19  2  0  0  0  0
 22 24  1  0  0  0  0
 24 23  1  0  0  0  0
 24 21  1  0  0  0  0
 26 25  1  0  0  0  0
 28 27  1  6  0  0  0
 28 29  1  0  0  0  0
 30 29  1  0  0  0  0
M  END
>  <MODEL>
5

>  <REMARK>
 VINA RESULT:      -5.3      3.876      5.655
  Name = 
  5 active torsions:
  status: ('A' for Active; 'I' for Inactive)
    1  A    between atoms: C_1  and  C_22
    2  A    between atoms: C_2  and  C_14
    3  A    between atoms: C_7  and  C_30
    4  A    between atoms: C_13  and  C_30
    5  A    between atoms: C_22  and  C_29
                            x       y       z     vdW  Elec       q    Type
                         _______ _______ _______ _____ _____    ______ ____

>  <TORSDO>
F 5

$$$$
=
 OpenBabel11052412233D

 30 33  0  0  1  0  0  0  0  0999 V2000
  183.1510  176.5290  137.3050 C   0  0  2  0  0  3  0  0  0  0  0  0
  185.3990  177.8780  140.6680 O   0  0  0  0  0  1  0  0  0  0  0  0
  184.9400  178.3190  137.9600 C   0  0  1  0  0  3  0  0  0  0  0  0
  184.2420  175.4660  137.3770 C   0  0  0  0  0  2  0  0  0  0  0  0
  186.7110  176.1610  134.7670 C   0  0  0  0  0  2  0  0  0  0  0  0
  185.5100  176.4660  135.5480 N   0  0  0  0  0  2  0  0  0  0  0  0
  186.6110  174.8610  137.1470 C   0  0  0  0  0  2  0  0  0  0  0  0
  181.6190  177.5040  139.7560 F   0  0  0  0  0  0  0  0  0  0  0  0
  184.8960  179.0930  140.1910 C   0  0  2  0  0  3  0  0  0  0  0  0
  185.6080  176.0170  136.9560 C   0  0  2  0  0  0  0  0  0  0  0  0
  186.0040  177.1960  137.8870 C   0  0  1  0  0  3  0  0  0  0  0  0
  182.4610  178.9000  137.9840 C   0  0  0  0  0  2  0  0  0  0  0  0
  186.9150  174.6500  134.6500 C   0  0  0  0  0  2  0  0  0  0  0  0
  186.5850  173.9140  135.9510 C   0  0  0  0  0  2  0  0  0  0  0  0
  183.4960  177.7920  138.1120 C   0  0  1  0  0  0  0  0  0  0  0  0
  183.3810  179.1590  140.3310 C   0  0  0  0  0  2  0  0  0  0  0  0
  185.3050  179.3590  138.8620 O   0  0  0  0  0  0  0  0  0  0  0  0
  182.7020  178.2380  139.3320 C   0  0  2  0  0  0  0  0  0  0  0  0
  180.9900  176.3610  136.1770 C   0  0  0  0  0  0  0  0  0  0  0  0
  181.4940  177.2740  135.2540 O   0  0  0  0  0  1  0  0  0  0  0  0
  181.7300  175.9940  137.2430 C   0  0  0  0  0  0  0  0  0  0  0  0
  179.8520  175.2560  138.8270 C   0  0  0  0  0  1  0  0  0  0  0  0
  181.1510  173.5560  137.5930 C   0  0  0  0  0  1  0  0  0  0  0  0
  181.2090  174.9410  138.2180 C   0  0  0  0  0  3  0  0  0  0  0  0
  179.6340  175.7880  135.9080 C   0  0  0  0  0  2  0  0  0  0  0  0
  179.6480  175.1030  134.6930 O   0  0  0  0  0  1  0  0  0  0  0  0
  188.2740  177.7280  138.9110 C   0  0  0  0  0  1  0  0  0  0  0  0
  187.4440  177.7000  137.6390 C   0  0  2  0  0  3  0  0  0  0  0  0
  187.5590  179.0030  136.8440 C   0  0  0  0  0  2  0  0  0  0  0  0
  188.6770  179.7440  137.2310 O   0  0  0  0  0  1  0  0  0  0  0  0
  1 21  1  1  0  0  0
  1  4  1  0  0  0  0
  1 15  1  0  0  0  0
  3 15  1  0  0  0  0
  3 17  1  1  0  0  0
  5  6  1  0  0  0  0
  6 10  1  0  0  0  0
  9 16  1  0  0  0  0
  9  2  1  6  0  0  0
 10  7  1  1  0  0  0
 10  4  1  0  0  0  0
 10 11  1  0  0  0  0
 11 28  1  6  0  0  0
 11  3  1  0  0  0  0
 12 18  1  0  0  0  0
 13  5  1  0  0  0  0
 13 14  1  0  0  0  0
 14  7  1  0  0  0  0
 15 12  1  6  0  0  0
 15 18  1  0  0  0  0
 17  9  1  0  0  0  0
 18  8  1  1  0  0  0
 18 16  1  0  0  0  0
 19 21  2  0  0  0  0
 20 19  1  0  0  0  0
 21 24  1  0  0  0  0
 23 24  1  0  0  0  0
 24 22  1  0  0  0  0
 25 19  1  0  0  0  0
 26 25  1  0  0  0  0
 28 27  1  1  0  0  0
 29 30  1  0  0  0  0
 29 28  1  0  0  0  0
M  END
>  <MODEL>
6

>  <REMARK>
 VINA RESULT:      -5.3      3.033      4.420
  Name = 
  5 active torsions:
  status: ('A' for Active; 'I' for Inactive)
    1  A    between atoms: C_1  and  C_22
    2  A    between atoms: C_2  and  C_14
    3  A    between atoms: C_7  and  C_30
    4  A    between atoms: C_13  and  C_30
    5  A    between atoms: C_22  and  C_29
                            x       y       z     vdW  Elec       q    Type
                         _______ _______ _______ _____ _____    ______ ____

>  <TORSDO>
F 5

$$$$
=
 OpenBabel11052412233D

 30 33  0  0  1  0  0  0  0  0999 V2000
  188.5610  177.5400  142.4700 C   0  0  2  0  0  3  0  0  0  0  0  0
  185.2210  180.1870  142.5840 O   0  0  0  0  0  1  0  0  0  0  0  0
  186.0420  177.6550  141.7790 C   0  0  1  0  0  3  0  0  0  0  0  0
  188.8850  178.4750  141.3090 C   0  0  0  0  0  2  0  0  0  0  0  0
  188.0950  176.7490  138.1790 C   0  0  0  0  0  2  0  0  0  0  0  0
  188.1330  176.8610  139.6400 N   0  0  0  0  0  2  0  0  0  0  0  0
  188.3460  179.3040  139.0600 C   0  0  0  0  0  2  0  0  0  0  0  0
  187.6180  178.5420  145.1920 F   0  0  0  0  0  0  0  0  0  0  0  0
  184.6430  179.0220  143.1020 C   0  0  2  0  0  3  0  0  0  0  0  0
  187.9490  178.2510  140.1160 C   0  0  2  0  0  0  0  0  0  0  0  0
  186.4790  178.4970  140.5540 C   0  0  1  0  0  3  0  0  0  0  0  0
  186.7260  176.6410  144.0130 C   0  0  0  0  0  2  0  0  0  0  0  0
  189.2640  177.5050  137.5450 C   0  0  0  0  0  2  0  0  0  0  0  0
  189.5490  178.8330  138.2490 C   0  0  0  0  0  2  0  0  0  0  0  0
  187.0910  177.6270  142.9130 C   0  0  1  0  0  0  0  0  0  0  0  0
  185.2500  178.6550  144.4490 C   0  0  0  0  0  2  0  0  0  0  0  0
  184.7100  177.9410  142.1910 O   0  0  0  0  0  0  0  0  0  0  0  0
  186.6680  178.1370  144.2830 C   0  0  2  0  0  0  0  0  0  0  0  0
  190.4230  176.2320  143.3610 C   0  0  0  0  0  0  0  0  0  0  0  0
  190.0840  175.2630  142.4210 O   0  0  0  0  0  1  0  0  0  0  0  0
  189.6820  177.3520  143.4790 C   0  0  0  0  0  0  0  0  0  0  0  0
  190.3660  177.9640  145.8750 C   0  0  0  0  0  1  0  0  0  0  0  0
  191.2980  179.2350  143.9740 C   0  0  0  0  0  1  0  0  0  0  0  0
  190.0910  178.4490  144.4610 C   0  0  0  0  0  3  0  0  0  0  0  0
  191.6490  175.9930  144.1840 C   0  0  0  0  0  2  0  0  0  0  0  0
  192.0600  174.6680  144.0390 O   0  0  0  0  0  1  0  0  0  0  0  0
  184.6290  179.7110  139.2940 C   0  0  0  0  0  1  0  0  0  0  0  0
  185.4850  178.4580  139.3710 C   0  0  2  0  0  3  0  0  0  0  0  0
  184.6520  177.1790  139.2490 C   0  0  0  0  0  2  0  0  0  0  0  0
  183.2850  177.4590  139.1930 O   0  0  0  0  0  1  0  0  0  0  0  0
  1 15  1  0  0  0  0
  1 21  1  1  0  0  0
  3 17  1  1  0  0  0
  3 15  1  0  0  0  0
  4  1  1  0  0  0  0
  5  6  1  0  0  0  0
  6 10  1  0  0  0  0
  9  2  1  6  0  0  0
  9 16  1  0  0  0  0
 10  7  1  6  0  0  0
 10 11  1  0  0  0  0
 10  4  1  0  0  0  0
 11 28  1  6  0  0  0
 11  3  1  0  0  0  0
 12 18  1  0  0  0  0
 13  5  1  0  0  0  0
 13 14  1  0  0  0  0
 14  7  1  0  0  0  0
 15 12  1  1  0  0  0
 15 18  1  0  0  0  0
 17  9  1  0  0  0  0
 18 16  1  0  0  0  0
 18  8  1  1  0  0  0
 19 21  2  0  0  0  0
 19 25  1  0  0  0  0
 20 19  1  0  0  0  0
 21 24  1  0  0  0  0
 23 24  1  0  0  0  0
 24 22  1  0  0  0  0
 26 25  1  0  0  0  0
 28 27  1  1  0  0  0
 29 28  1  0  0  0  0
 30 29  1  0  0  0  0
M  END
>  <MODEL>
7

>  <REMARK>
 VINA RESULT:      -5.3      2.332      6.176
  Name = 
  5 active torsions:
  status: ('A' for Active; 'I' for Inactive)
    1  A    between atoms: C_1  and  C_22
    2  A    between atoms: C_2  and  C_14
    3  A    between atoms: C_7  and  C_30
    4  A    between atoms: C_13  and  C_30
    5  A    between atoms: C_22  and  C_29
                            x       y       z     vdW  Elec       q    Type
                         _______ _______ _______ _____ _____    ______ ____

>  <TORSDO>
F 5

$$$$
=
 OpenBabel11052412233D

 30 33  0  0  1  0  0  0  0  0999 V2000
  182.9060  176.6630  137.2390 C   0  0  2  0  0  3  0  0  0  0  0  0
  185.1660  177.9800  140.6060 O   0  0  0  0  0  1  0  0  0  0  0  0
  184.7690  178.3800  137.8830 C   0  0  1  0  0  3  0  0  0  0  0  0
  183.9430  175.5500  137.3530 C   0  0  0  0  0  2  0  0  0  0  0  0
  186.4820  176.0660  134.7680 C   0  0  0  0  0  2  0  0  0  0  0  0
  185.2850  176.4460  135.5220 N   0  0  0  0  0  2  0  0  0  0  0  0
  186.2840  174.8270  137.1740 C   0  0  0  0  0  2  0  0  0  0  0  0
  181.3860  177.7660  139.6420 F   0  0  0  0  0  0  0  0  0  0  0  0
  184.7280  179.2070  140.0940 C   0  0  2  0  0  3  0  0  0  0  0  0
  185.3400  176.0260  136.9410 C   0  0  2  0  0  0  0  0  0  0  0  0
  185.7790  177.2050  137.8520 C   0  0  1  0  0  3  0  0  0  0  0  0
  182.3200  179.0790  137.8530 C   0  0  0  0  0  2  0  0  0  0  0  0
  186.6140  174.5440  134.6880 C   0  0  0  0  0  2  0  0  0  0  0  0
  186.2300  173.8560  135.9990 C   0  0  0  0  0  2  0  0  0  0  0  0
  183.2990  177.9260  138.0230 C   0  0  1  0  0  0  0  0  0  0  0  0
  183.2170  179.3480  140.2080 C   0  0  0  0  0  2  0  0  0  0  0  0
  185.1710  179.4210  138.7670 O   0  0  0  0  0  0  0  0  0  0  0  0
  182.5100  178.4380  139.2190 C   0  0  2  0  0  0  0  0  0  0  0  0
  181.0200  175.4270  138.1830 C   0  0  0  0  0  0  0  0  0  0  0  0
  181.8990  175.0090  139.1780 O   0  0  0  0  0  1  0  0  0  0  0  0
  181.4620  176.1950  137.1660 C   0  0  0  0  0  0  0  0  0  0  0  0
  179.5930  177.8510  136.5740 C   0  0  0  0  0  1  0  0  0  0  0  0
  181.1940  177.1400  134.8340 C   0  0  0  0  0  1  0  0  0  0  0  0
  180.4870  176.7130  136.1100 C   0  0  0  0  0  3  0  0  0  0  0  0
  179.5860  175.0260  138.3190 C   0  0  0  0  0  2  0  0  0  0  0  0
  179.0380  175.6240  139.4530 O   0  0  0  0  0  1  0  0  0  0  0  0
  188.0560  177.6510  138.9000 C   0  0  0  0  0  1  0  0  0  0  0  0
  187.2440  177.6340  137.6160 C   0  0  2  0  0  3  0  0  0  0  0  0
  187.4350  178.9120  136.7940 C   0  0  0  0  0  2  0  0  0  0  0  0
  188.5520  179.6340  137.2170 O   0  0  0  0  0  1  0  0  0  0  0  0
  1 21  1  1  0  0  0
  1  4  1  0  0  0  0
  1 15  1  0  0  0  0
  3 15  1  0  0  0  0
  3 17  1  1  0  0  0
  5  6  1  0  0  0  0
  6 10  1  0  0  0  0
  9 16  1  0  0  0  0
  9  2  1  6  0  0  0
 10  7  1  1  0  0  0
 10  4  1  0  0  0  0
 10 11  1  0  0  0  0
 11 28  1  6  0  0  0
 11  3  1  0  0  0  0
 12 18  1  0  0  0  0
 13  5  1  0  0  0  0
 13 14  1  0  0  0  0
 14  7  1  0  0  0  0
 15 12  1  6  0  0  0
 15 18  1  0  0  0  0
 17  9  1  0  0  0  0
 18  8  1  1  0  0  0
 18 16  1  0  0  0  0
 19 25  1  0  0  0  0
 19 20  1  0  0  0  0
 21 19  2  0  0  0  0
 23 24  1  0  0  0  0
 24 22  1  0  0  0  0
 24 21  1  0  0  0  0
 25 26  1  0  0  0  0
 28 27  1  1  0  0  0
 29 30  1  0  0  0  0
 29 28  1  0  0  0  0
M  END
>  <MODEL>
8

>  <REMARK>
 VINA RESULT:      -5.2      3.071      4.578
  Name = 
  5 active torsions:
  status: ('A' for Active; 'I' for Inactive)
    1  A    between atoms: C_1  and  C_22
    2  A    between atoms: C_2  and  C_14
    3  A    between atoms: C_7  and  C_30
    4  A    between atoms: C_13  and  C_30
    5  A    between atoms: C_22  and  C_29
                            x       y       z     vdW  Elec       q    Type
                         _______ _______ _______ _____ _____    ______ ____

>  <TORSDO>
F 5

$$$$
=
 OpenBabel11052412233D

 30 33  0  0  1  0  0  0  0  0999 V2000
  183.5350  176.0790  136.8870 C   0  0  2  0  0  3  0  0  0  0  0  0
  179.2900  176.3300  137.1980 O   0  0  0  0  0  1  0  0  0  0  0  0
  181.5780  177.7870  136.5850 C   0  0  1  0  0  3  0  0  0  0  0  0
  183.3550  176.1960  138.3970 C   0  0  0  0  0  2  0  0  0  0  0  0
  184.1700  179.6210  139.3970 C   0  0  0  0  0  2  0  0  0  0  0  0
  183.9560  178.5610  138.4090 N   0  0  0  0  0  2  0  0  0  0  0  0
  182.6970  177.5460  140.3410 C   0  0  0  0  0  2  0  0  0  0  0  0
  181.8580  174.2090  135.1560 F   0  0  0  0  0  0  0  0  0  0  0  0
  179.4890  176.8990  135.9350 C   0  0  2  0  0  3  0  0  0  0  0  0
  182.9040  177.6000  138.8120 C   0  0  2  0  0  0  0  0  0  0  0  0
  181.5520  177.9370  138.1260 C   0  0  1  0  0  3  0  0  0  0  0  0
  182.4650  176.4700  134.5940 C   0  0  0  0  0  2  0  0  0  0  0  0
  184.6970  179.0410  140.7110 C   0  0  0  0  0  2  0  0  0  0  0  0
  184.0230  177.7160  141.0760 C   0  0  0  0  0  2  0  0  0  0  0  0
  182.2790  176.4970  136.1030 C   0  0  1  0  0  0  0  0  0  0  0  0
  180.0260  175.8750  134.9440 C   0  0  0  0  0  2  0  0  0  0  0  0
  180.3120  178.0490  135.9890 O   0  0  0  0  0  0  0  0  0  0  0  0
  181.4720  175.5260  135.2540 C   0  0  2  0  0  0  0  0  0  0  0  0
  185.5280  175.2360  135.7500 C   0  0  0  0  0  0  0  0  0  0  0  0
  185.7920  176.5600  135.4090 O   0  0  0  0  0  1  0  0  0  0  0  0
  184.4050  174.9210  136.4270 C   0  0  0  0  0  0  0  0  0  0  0  0
  184.2000  172.4570  135.7410 C   0  0  0  0  0  1  0  0  0  0  0  0
  185.0900  173.0360  137.9710 C   0  0  0  0  0  1  0  0  0  0  0  0
  184.1460  173.4800  136.8640 C   0  0  0  0  0  3  0  0  0  0  0  0
  186.5500  174.2110  135.3750 C   0  0  0  0  0  2  0  0  0  0  0  0
  187.7370  174.4580  136.0660 O   0  0  0  0  0  1  0  0  0  0  0  0
  179.5350  179.0880  139.1720 C   0  0  0  0  0  1  0  0  0  0  0  0
  180.9410  179.2660  138.6240 C   0  0  2  0  0  3  0  0  0  0  0  0
  181.0360  180.4430  137.6490 C   0  0  0  0  0  2  0  0  0  0  0  0
  180.1870  181.4880  138.0190 O   0  0  0  0  0  1  0  0  0  0  0  0
  1 21  1  1  0  0  0
  1  4  1  0  0  0  0
  3 17  1  1  0  0  0
  3 11  1  0  0  0  0
  5 13  1  0  0  0  0
  6 10  1  0  0  0  0
  6  5  1  0  0  0  0
  7 14  1  0  0  0  0
  9 17  1  0  0  0  0
  9  2  1  1  0  0  0
 10  4  1  6  0  0  0
 10  7  1  0  0  0  0
 11 28  1  6  0  0  0
 11 10  1  0  0  0  0
 12 18  1  0  0  0  0
 13 14  1  0  0  0  0
 15 12  1  6  0  0  0
 15  3  1  0  0  0  0
 15  1  1  0  0  0  0
 16 18  1  0  0  0  0
 16  9  1  0  0  0  0
 18  8  1  1  0  0  0
 18 15  1  0  0  0  0
 19 21  2  0  0  0  0
 20 19  1  0  0  0  0
 21 24  1  0  0  0  0
 22 24  1  0  0  0  0
 24 23  1  0  0  0  0
 25 19  1  0  0  0  0
 25 26  1  0  0  0  0
 28 27  1  6  0  0  0
 29 30  1  0  0  0  0
 29 28  1  0  0  0  0
M  END
>  <MODEL>
9

>  <REMARK>
 VINA RESULT:      -5.0      4.265      7.959
  Name = 
  5 active torsions:
  status: ('A' for Active; 'I' for Inactive)
    1  A    between atoms: C_1  and  C_22
    2  A    between atoms: C_2  and  C_14
    3  A    between atoms: C_7  and  C_30
    4  A    between atoms: C_13  and  C_30
    5  A    between atoms: C_22  and  C_29
                            x       y       z     vdW  Elec       q    Type
                         _______ _______ _______ _____ _____    ______ ____

>  <TORSDO>
F 5

$$$$
