=
 OpenBabel11052414293D

 32 36  0  0  1  0  0  0  0  0999 V2000
  183.6580  178.9520  138.0150 O   0  0  0  0  0  0  0  0  0  0  0  0
  182.4220  178.2890  137.8650 C   0  0  1  0  0  0  0  0  0  0  0  0
  179.7280  178.7520  140.6890 C   0  0  0  0  0  2  0  0  0  0  0  0
  180.8500  182.4410  137.3060 C   0  0  0  0  0  3  0  0  0  0  0  0
  181.2230  178.8540  138.6460 C   0  0  1  0  0  3  0  0  0  0  0  0
  179.2180  182.1080  139.1150 C   0  0  0  0  0  2  0  0  0  0  0  0
  180.0000  180.8800  139.6130 C   0  0  1  0  0  3  0  0  0  0  0  0
  181.0540  178.2820  140.0650 C   0  0  1  0  0  3  0  0  0  0  0  0
  184.4990  178.1570  138.8100 C   0  0  2  0  0  3  0  0  0  0  0  0
  179.0580  179.8010  139.9120 N   0  0  0  0  0  2  0  0  0  0  0  0
  184.3900  178.5420  140.2720 C   0  0  0  0  0  2  0  0  0  0  0  0
  185.9310  178.3450  138.3550 C   0  0  0  0  0  1  0  0  0  0  0  0
  182.0870  178.2820  136.4910 O   0  0  0  0  0  0  0  0  0  0  0  0
  182.1800  178.7120  140.9970 C   0  0  0  0  0  2  0  0  0  0  0  0
  182.3100  177.0200  137.0630 C   0  0  1  0  0  0  0  0  0  0  0  0
  181.1200  180.3880  138.6420 C   0  0  2  0  0  3  0  0  0  0  0  0
  183.3030  177.8010  140.8850 N   0  0  0  0  0  2  0  0  0  0  0  0
  180.0390  182.9910  138.2160 C   0  0  0  0  0  3  0  0  0  0  0  0
  180.9500  180.9480  137.2250 C   0  0  0  0  0  2  0  0  0  0  0  0
  185.3190  174.6660  136.7240 C   0  0  0  0  0  3  0  0  0  0  0  0
  185.3460  176.2720  134.9210 C   0  0  0  0  0  3  0  0  0  0  0  0
  183.5550  176.3310  136.5620 C   0  0  0  0  0  0  0  0  0  0  0  0
  185.9260  175.1690  135.5630 C   0  0  0  0  0  0  0  0  0  0  0  0
  184.1760  176.8500  135.4180 C   0  0  0  0  0  3  0  0  0  0  0  0
  184.1490  175.2400  137.2290 C   0  0  0  0  0  0  0  0  0  0  0  0
  183.6000  174.7220  138.3960 O   0  0  0  0  0  1  0  0  0  0  0  0
  187.2290  173.1350  134.8370 C   0  0  0  0  0  1  0  0  0  0  0  0
  188.2940  175.3800  134.7220 C   0  0  0  0  0  1  0  0  0  0  0  0
  187.1300  174.5710  135.0470 N   0  0  0  0  0  0  0  0  0  0  0  0
  180.7700  176.0480  137.2170 S   0  0  0  0  0  0  0  0  0  0  0  0
  180.8590  175.3800  135.5280 C   0  0  0  0  0  2  0  0  0  0  0  0
  180.9820  173.9340  135.5810 N   0  0  0  0  0  1  0  0  0  0  0  0
  1  9  1  0  0  0  0
  2 13  1  6  0  0  0
  2  1  1  0  0  0  0
  2  5  1  0  0  0  0
  4 18  2  0  0  0  0
  5  8  1  0  0  0  0
  6  7  1  0  0  0  0
  7 10  1  0  0  0  0
  8  3  1  0  0  0  0
  8 14  1  0  0  0  0
  9 11  1  0  0  0  0
 10  3  1  0  0  0  0
 11 17  1  0  0  0  0
 12  9  1  0  0  0  0
 13 15  1  0  0  0  0
 15 30  1  0  0  0  0
 15  2  1  0  0  0  0
 16  5  1  0  0  0  0
 16  7  1  0  0  0  0
 17 14  1  0  0  0  0
 18  6  1  0  0  0  0
 19  4  1  0  0  0  0
 19 16  1  0  0  0  0
 20 25  1  0  0  0  0
 21 24  2  0  0  0  0
 21 23  1  0  0  0  0
 22 15  1  0  0  0  0
 22 25  2  0  0  0  0
 23 20  2  0  0  0  0
 24 22  1  0  0  0  0
 25 26  1  0  0  0  0
 27 29  1  0  0  0  0
 28 29  1  0  0  0  0
 29 23  1  0  0  0  0
 31 32  1  0  0  0  0
 31 30  1  0  0  0  0
M  END
>  <MODEL>
1

>  <REMARK>
 VINA RESULT:      -4.4      0.000      0.000
  Name = 
  4 active torsions:
  status: ('A' for Active; 'I' for Inactive)
    1  A    between atoms: S_1  and  C_4
    2  A    between atoms: S_1  and  C_27
    3  A    between atoms: C_16  and  C_27
    4  A    between atoms: C_19  and  N_26
                            x       y       z     vdW  Elec       q    Type
                         _______ _______ _______ _____ _____    ______ ____

>  <TORSDO>
F 4

$$$$
=
 OpenBabel11052414293D

 32 36  0  0  1  0  0  0  0  0999 V2000
  183.4060  178.7110  138.2710 O   0  0  0  0  0  0  0  0  0  0  0  0
  182.2200  177.9720  138.4630 C   0  0  1  0  0  0  0  0  0  0  0  0
  180.1240  178.6620  141.7150 C   0  0  0  0  0  2  0  0  0  0  0  0
  180.2510  181.9290  137.7630 C   0  0  0  0  0  3  0  0  0  0  0  0
  181.1630  178.5720  139.4060 C   0  0  1  0  0  3  0  0  0  0  0  0
  179.0490  181.7520  139.9010 C   0  0  0  0  0  2  0  0  0  0  0  0
  180.0080  180.6420  140.3640 C   0  0  1  0  0  3  0  0  0  0  0  0
  181.3300  178.1830  140.8870 C   0  0  1  0  0  3  0  0  0  0  0  0
  184.4490  178.0720  138.9590 C   0  0  2  0  0  3  0  0  0  0  0  0
  179.2320  179.5650  140.9790 N   0  0  0  0  0  2  0  0  0  0  0  0
  184.6080  178.6390  140.3560 C   0  0  0  0  0  2  0  0  0  0  0  0
  185.7400  178.2720  138.1950 C   0  0  0  0  0  1  0  0  0  0  0  0
  181.6170  177.7680  137.2010 O   0  0  0  0  0  0  0  0  0  0  0  0
  182.5830  178.7880  141.5050 C   0  0  0  0  0  2  0  0  0  0  0  0
  182.0470  176.6050  137.8580 C   0  0  1  0  0  0  0  0  0  0  0  0
  180.9430  180.0850  139.2440 C   0  0  2  0  0  3  0  0  0  0  0  0
  183.7280  177.9300  141.2670 N   0  0  0  0  0  2  0  0  0  0  0  0
  179.6010  182.5510  138.7520 C   0  0  0  0  0  3  0  0  0  0  0  0
  180.4480  180.4450  137.8390 C   0  0  0  0  0  2  0  0  0  0  0  0
  184.7290  175.5570  135.3230 C   0  0  0  0  0  3  0  0  0  0  0  0
  184.9040  174.1780  137.2980 C   0  0  0  0  0  3  0  0  0  0  0  0
  183.2150  175.9210  137.1900 C   0  0  0  0  0  0  0  0  0  0  0  0
  185.3680  174.5200  136.0190 C   0  0  0  0  0  0  0  0  0  0  0  0
  183.8360  174.8680  137.8740 C   0  0  0  0  0  3  0  0  0  0  0  0
  183.6570  176.2500  135.8920 C   0  0  0  0  0  0  0  0  0  0  0  0
  183.0400  177.2520  135.1530 O   0  0  0  0  0  1  0  0  0  0  0  0
  187.8020  174.4010  135.3670 C   0  0  0  0  0  1  0  0  0  0  0  0
  186.3000  172.4830  134.8620 C   0  0  0  0  0  1  0  0  0  0  0  0
  186.4730  173.8120  135.4280 N   0  0  0  0  0  0  0  0  0  0  0  0
  180.6500  175.5830  138.4440 S   0  0  0  0  0  0  0  0  0  0  0  0
  180.1900  175.0100  136.7810 C   0  0  0  0  0  2  0  0  0  0  0  0
  180.4950  173.5970  136.6500 N   0  0  0  0  0  1  0  0  0  0  0  0
  1  2  1  0  0  0  0
  1  9  1  0  0  0  0
  2 13  1  6  0  0  0
  2  5  1  0  0  0  0
  4 19  1  0  0  0  0
  4 18  2  0  0  0  0
  5  8  1  0  0  0  0
  6  7  1  0  0  0  0
  7 10  1  0  0  0  0
  8 14  1  0  0  0  0
  8  3  1  0  0  0  0
  9 11  1  0  0  0  0
 10  3  1  0  0  0  0
 11 17  1  0  0  0  0
 12  9  1  0  0  0  0
 13 15  1  0  0  0  0
 15 30  1  0  0  0  0
 15  2  1  0  0  0  0
 16  5  1  0  0  0  0
 16  7  1  0  0  0  0
 17 14  1  0  0  0  0
 18  6  1  0  0  0  0
 19 16  1  0  0  0  0
 20 25  2  0  0  0  0
 20 23  1  0  0  0  0
 21 24  1  0  0  0  0
 22 15  1  0  0  0  0
 22 24  2  0  0  0  0
 23 21  2  0  0  0  0
 25 22  1  0  0  0  0
 26 25  1  0  0  0  0
 27 29  1  0  0  0  0
 28 29  1  0  0  0  0
 29 23  1  0  0  0  0
 31 30  1  0  0  0  0
 32 31  1  0  0  0  0
M  END
>  <MODEL>
2

>  <REMARK>
 VINA RESULT:      -4.3      1.113      1.562
  Name = 
  4 active torsions:
  status: ('A' for Active; 'I' for Inactive)
    1  A    between atoms: S_1  and  C_4
    2  A    between atoms: S_1  and  C_27
    3  A    between atoms: C_16  and  C_27
    4  A    between atoms: C_19  and  N_26
                            x       y       z     vdW  Elec       q    Type
                         _______ _______ _______ _____ _____    ______ ____

>  <TORSDO>
F 4

$$$$
=
 OpenBabel11052414293D

 32 36  0  0  1  0  0  0  0  0999 V2000
  181.2260  175.9960  137.8950 O   0  0  0  0  0  0  0  0  0  0  0  0
  182.2280  176.9840  137.9910 C   0  0  1  0  0  0  0  0  0  0  0  0
  181.1700  180.7380  137.5070 C   0  0  0  0  0  2  0  0  0  0  0  0
  180.0670  178.0800  141.7520 C   0  0  0  0  0  3  0  0  0  0  0  0
  181.7750  178.4160  138.3210 C   0  0  1  0  0  3  0  0  0  0  0  0
  179.8170  180.4000  140.9790 C   0  0  0  0  0  2  0  0  0  0  0  0
  180.1510  179.9700  139.5390 C   0  0  1  0  0  3  0  0  0  0  0  0
  181.4190  179.2760  137.0950 C   0  0  1  0  0  3  0  0  0  0  0  0
  181.0480  175.6690  136.5420 C   0  0  2  0  0  3  0  0  0  0  0  0
  181.0920  180.9290  138.9600 N   0  0  0  0  0  2  0  0  0  0  0  0
  179.9460  176.5040  135.9190 C   0  0  0  0  0  2  0  0  0  0  0  0
  180.6800  174.2040  136.4330 C   0  0  0  0  0  1  0  0  0  0  0  0
  183.1560  176.5790  138.9780 O   0  0  0  0  0  0  0  0  0  0  0  0
  180.1660  178.7780  136.3850 C   0  0  0  0  0  2  0  0  0  0  0  0
  183.6660  176.6690  137.6740 C   0  0  1  0  0  0  0  0  0  0  0  0
  180.6910  178.5110  139.4080 C   0  0  2  0  0  3  0  0  0  0  0  0
  180.5070  177.7480  135.4240 N   0  0  0  0  0  2  0  0  0  0  0  0
  179.4130  179.2420  141.8490 C   0  0  0  0  0  3  0  0  0  0  0  0
  181.1720  177.9450  140.7480 C   0  0  0  0  0  2  0  0  0  0  0  0
  184.4920  173.8780  135.1760 C   0  0  0  0  0  3  0  0  0  0  0  0
  184.4680  172.9740  137.4160 C   0  0  0  0  0  3  0  0  0  0  0  0
  184.0310  175.3380  137.0640 C   0  0  0  0  0  0  0  0  0  0  0  0
  184.6470  172.7810  136.0380 C   0  0  0  0  0  0  0  0  0  0  0  0
  184.1580  174.2380  137.9220 C   0  0  0  0  0  3  0  0  0  0  0  0
  184.1800  175.1450  135.6760 C   0  0  0  0  0  0  0  0  0  0  0  0
  184.0120  176.1940  134.7800 O   0  0  0  0  0  1  0  0  0  0  0  0
  184.0190  170.3810  135.5810 C   0  0  0  0  0  1  0  0  0  0  0  0
  186.2670  171.2110  134.9120 C   0  0  0  0  0  1  0  0  0  0  0  0
  184.9710  171.4790  135.5170 N   0  0  0  0  0  0  0  0  0  0  0  0
  184.8230  178.0700  137.4780 S   0  0  0  0  0  0  0  0  0  0  0  0
  185.1210  178.2530  139.2620 C   0  0  0  0  0  2  0  0  0  0  0  0
  184.7890  179.6050  139.6760 N   0  0  0  0  0  1  0  0  0  0  0  0
  2  1  1  6  0  0  0
  2  5  1  0  0  0  0
  2 13  1  0  0  0  0
  3 10  1  0  0  0  0
  4 18  2  0  0  0  0
  5 16  1  0  0  0  0
  6 18  1  0  0  0  0
  7  6  1  0  0  0  0
  8  3  1  0  0  0  0
  8  5  1  0  0  0  0
  9  1  1  0  0  0  0
 10  7  1  0  0  0  0
 11  9  1  0  0  0  0
 12  9  1  0  0  0  0
 14  8  1  0  0  0  0
 15  2  1  0  0  0  0
 15 13  1  0  0  0  0
 16  7  1  0  0  0  0
 16 19  1  0  0  0  0
 17 11  1  0  0  0  0
 17 14  1  0  0  0  0
 19  4  1  0  0  0  0
 20 25  2  0  0  0  0
 20 23  1  0  0  0  0
 21 24  1  0  0  0  0
 22 15  1  0  0  0  0
 22 24  2  0  0  0  0
 23 21  2  0  0  0  0
 25 22  1  0  0  0  0
 26 25  1  0  0  0  0
 28 29  1  0  0  0  0
 29 27  1  0  0  0  0
 29 23  1  0  0  0  0
 30 15  1  0  0  0  0
 30 31  1  0  0  0  0
 31 32  1  0  0  0  0
M  END
>  <MODEL>
3

>  <REMARK>
 VINA RESULT:      -4.3      2.167      4.258
  Name = 
  4 active torsions:
  status: ('A' for Active; 'I' for Inactive)
    1  A    between atoms: S_1  and  C_4
    2  A    between atoms: S_1  and  C_27
    3  A    between atoms: C_16  and  C_27
    4  A    between atoms: C_19  and  N_26
                            x       y       z     vdW  Elec       q    Type
                         _______ _______ _______ _____ _____    ______ ____

>  <TORSDO>
F 4

$$$$
=
 OpenBabel11052414293D

 32 36  0  0  1  0  0  0  0  0999 V2000
  184.1000  176.7600  139.1810 O   0  0  0  0  0  0  0  0  0  0  0  0
  183.5820  176.8070  137.8700 C   0  0  1  0  0  0  0  0  0  0  0  0
  186.1360  176.9680  134.8870 C   0  0  0  0  0  2  0  0  0  0  0  0
  185.3130  172.6900  137.5930 C   0  0  0  0  0  3  0  0  0  0  0  0
  184.5120  176.3530  136.7310 C   0  0  1  0  0  3  0  0  0  0  0  0
  186.6110  173.3270  135.6050 C   0  0  0  0  0  2  0  0  0  0  0  0
  186.3880  174.8160  135.9200 C   0  0  1  0  0  3  0  0  0  0  0  0
  185.3930  177.4680  136.1380 C   0  0  1  0  0  3  0  0  0  0  0  0
  184.3620  178.0710  139.6060 C   0  0  2  0  0  3  0  0  0  0  0  0
  186.0320  175.5180  134.6860 N   0  0  0  0  0  2  0  0  0  0  0  0
  185.7960  178.4630  139.3140 C   0  0  0  0  0  2  0  0  0  0  0  0
  184.1180  178.1650  141.0980 C   0  0  0  0  0  1  0  0  0  0  0  0
  182.4140  176.0120  137.8260 O   0  0  0  0  0  0  0  0  0  0  0  0
  186.4390  177.9640  137.1280 C   0  0  0  0  0  2  0  0  0  0  0  0
  182.2200  177.3810  137.5890 C   0  0  1  0  0  0  0  0  0  0  0  0
  185.3350  175.0900  137.0400 C   0  0  2  0  0  3  0  0  0  0  0  0
  185.8830  179.0050  137.9700 N   0  0  0  0  0  2  0  0  0  0  0  0
  186.3540  172.4400  136.7920 C   0  0  0  0  0  3  0  0  0  0  0  0
  184.4410  173.8750  137.3100 C   0  0  0  0  0  2  0  0  0  0  0  0
  180.8050  180.0750  139.9240 C   0  0  0  0  0  3  0  0  0  0  0  0
  180.0180  177.9040  140.6290 C   0  0  0  0  0  3  0  0  0  0  0  0
  181.4590  178.0900  138.6820 C   0  0  0  0  0  0  0  0  0  0  0  0
  180.0460  179.2950  140.8080 C   0  0  0  0  0  0  0  0  0  0  0  0
  180.7220  177.3090  139.5810 C   0  0  0  0  0  3  0  0  0  0  0  0
  181.5140  179.4860  138.8730 C   0  0  0  0  0  0  0  0  0  0  0  0
  182.2730  180.2990  138.0390 O   0  0  0  0  0  1  0  0  0  0  0  0
  178.9310  179.1500  143.0660 C   0  0  0  0  0  1  0  0  0  0  0  0
  178.9310  181.3110  141.8340 C   0  0  0  0  0  1  0  0  0  0  0  0
  179.3160  179.9090  141.8870 N   0  0  0  0  0  0  0  0  0  0  0  0
  181.7820  177.7280  135.8480 S   0  0  0  0  0  0  0  0  0  0  0  0
  180.4550  176.4870  135.7900 C   0  0  0  0  0  2  0  0  0  0  0  0
  179.1780  177.1260  136.0510 N   0  0  0  0  0  1  0  0  0  0  0  0
  1  9  1  0  0  0  0
  2 13  1  1  0  0  0
  2  1  1  0  0  0  0
  3  8  1  0  0  0  0
  5 16  1  0  0  0  0
  5  2  1  0  0  0  0
  6  7  1  0  0  0  0
  6 18  1  0  0  0  0
  7 16  1  0  0  0  0
  8  5  1  0  0  0  0
  8 14  1  0  0  0  0
  9 12  1  0  0  0  0
 10  3  1  0  0  0  0
 10  7  1  0  0  0  0
 11  9  1  0  0  0  0
 14 17  1  0  0  0  0
 15 13  1  0  0  0  0
 15  2  1  0  0  0  0
 15 22  1  0  0  0  0
 16 19  1  0  0  0  0
 17 11  1  0  0  0  0
 18  4  2  0  0  0  0
 19  4  1  0  0  0  0
 20 23  1  0  0  0  0
 21 23  2  0  0  0  0
 22 25  1  0  0  0  0
 22 24  2  0  0  0  0
 23 29  1  0  0  0  0
 24 21  1  0  0  0  0
 25 20  2  0  0  0  0
 26 25  1  0  0  0  0
 28 29  1  0  0  0  0
 29 27  1  0  0  0  0
 30 15  1  0  0  0  0
 31 30  1  0  0  0  0
 31 32  1  0  0  0  0
M  END
>  <MODEL>
4

>  <REMARK>
 VINA RESULT:      -4.2      1.924      7.357
  Name = 
  4 active torsions:
  status: ('A' for Active; 'I' for Inactive)
    1  A    between atoms: S_1  and  C_4
    2  A    between atoms: S_1  and  C_27
    3  A    between atoms: C_16  and  C_27
    4  A    between atoms: C_19  and  N_26
                            x       y       z     vdW  Elec       q    Type
                         _______ _______ _______ _____ _____    ______ ____

>  <TORSDO>
F 4

$$$$
=
 OpenBabel11052414293D

 32 36  0  0  1  0  0  0  0  0999 V2000
  185.9920  174.6820  137.4520 O   0  0  0  0  0  0  0  0  0  0  0  0
  186.0170  175.9640  136.8620 C   0  0  1  0  0  0  0  0  0  0  0  0
  182.9120  177.0680  134.7200 C   0  0  0  0  0  2  0  0  0  0  0  0
  182.7950  176.8330  139.8430 C   0  0  0  0  0  3  0  0  0  0  0  0
  184.6630  176.5910  136.4880 C   0  0  1  0  0  3  0  0  0  0  0  0
  181.2830  177.5730  138.0500 C   0  0  0  0  0  2  0  0  0  0  0  0
  182.1760  176.8930  136.9980 C   0  0  1  0  0  3  0  0  0  0  0  0
  184.1620  176.2430  135.0750 C   0  0  1  0  0  3  0  0  0  0  0  0
  186.4360  173.7450  136.5060 C   0  0  2  0  0  3  0  0  0  0  0  0
  182.3530  177.8000  135.8630 N   0  0  0  0  0  2  0  0  0  0  0  0
  185.2710  173.1500  135.7400 C   0  0  0  0  0  2  0  0  0  0  0  0
  187.1760  172.6350  137.2210 C   0  0  0  0  0  1  0  0  0  0  0  0
  186.6800  176.8450  137.7470 O   0  0  0  0  0  0  0  0  0  0  0  0
  183.7970  174.7710  134.9390 C   0  0  0  0  0  2  0  0  0  0  0  0
  187.3180  176.6360  136.5140 C   0  0  1  0  0  0  0  0  0  0  0  0
  183.5570  176.4030  137.5390 C   0  0  2  0  0  3  0  0  0  0  0  0
  184.9690  173.9890  134.5950 N   0  0  0  0  0  2  0  0  0  0  0  0
  181.5400  177.0640  139.4420 C   0  0  0  0  0  3  0  0  0  0  0  0
  183.9210  177.0520  138.8790 C   0  0  0  0  0  2  0  0  0  0  0  0
  190.6130  175.1520  137.7990 C   0  0  0  0  0  3  0  0  0  0  0  0
  190.2800  174.5020  135.4970 C   0  0  0  0  0  3  0  0  0  0  0  0
  188.6150  175.8720  136.6160 C   0  0  0  0  0  0  0  0  0  0  0  0
  191.0590  174.4610  136.6630 C   0  0  0  0  0  0  0  0  0  0  0  0
  189.0740  175.2040  135.4730 C   0  0  0  0  0  3  0  0  0  0  0  0
  189.4070  175.8590  137.7820 C   0  0  0  0  0  0  0  0  0  0  0  0
  189.0200  176.5490  138.9250 O   0  0  0  0  0  1  0  0  0  0  0  0
  192.5090  172.5650  135.8450 C   0  0  0  0  0  1  0  0  0  0  0  0
  193.3920  174.1320  137.5640 C   0  0  0  0  0  1  0  0  0  0  0  0
  192.3010  173.7320  136.6880 N   0  0  0  0  0  0  0  0  0  0  0  0
  187.2530  178.1150  135.4420 S   0  0  0  0  0  0  0  0  0  0  0  0
  187.3970  179.2910  136.8200 C   0  0  0  0  0  2  0  0  0  0  0  0
  188.7880  179.4080  137.2190 N   0  0  0  0  0  1  0  0  0  0  0  0
  2  1  1  1  0  0  0
  2 13  1  0  0  0  0
  3  8  1  0  0  0  0
  3 10  1  0  0  0  0
  5  2  1  0  0  0  0
  5 16  1  0  0  0  0
  6 18  1  0  0  0  0
  7 16  1  0  0  0  0
  7  6  1  0  0  0  0
  8  5  1  0  0  0  0
  9 12  1  0  0  0  0
  9  1  1  0  0  0  0
 10  7  1  0  0  0  0
 11  9  1  0  0  0  0
 14  8  1  0  0  0  0
 15 22  1  0  0  0  0
 15  2  1  0  0  0  0
 15 13  1  0  0  0  0
 16 19  1  0  0  0  0
 17 14  1  0  0  0  0
 17 11  1  0  0  0  0
 18  4  2  0  0  0  0
 19  4  1  0  0  0  0
 21 23  1  0  0  0  0
 22 25  2  0  0  0  0
 23 29  1  0  0  0  0
 23 20  2  0  0  0  0
 24 21  2  0  0  0  0
 24 22  1  0  0  0  0
 25 20  1  0  0  0  0
 25 26  1  0  0  0  0
 27 29  1  0  0  0  0
 29 28  1  0  0  0  0
 30 15  1  0  0  0  0
 30 31  1  0  0  0  0
 31 32  1  0  0  0  0
M  END
>  <MODEL>
5

>  <REMARK>
 VINA RESULT:      -4.2      3.266      5.970
  Name = 
  4 active torsions:
  status: ('A' for Active; 'I' for Inactive)
    1  A    between atoms: S_1  and  C_4
    2  A    between atoms: S_1  and  C_27
    3  A    between atoms: C_16  and  C_27
    4  A    between atoms: C_19  and  N_26
                            x       y       z     vdW  Elec       q    Type
                         _______ _______ _______ _____ _____    ______ ____

>  <TORSDO>
F 4

$$$$
=
 OpenBabel11052414293D

 32 36  0  0  1  0  0  0  0  0999 V2000
  183.3380  177.8070  136.0710 O   0  0  0  0  0  0  0  0  0  0  0  0
  183.5730  177.2550  137.3480 C   0  0  1  0  0  0  0  0  0  0  0  0
  184.2350  173.3880  137.5890 C   0  0  0  0  0  2  0  0  0  0  0  0
  187.7200  176.6800  135.7660 C   0  0  0  0  0  3  0  0  0  0  0  0
  184.3240  175.9130  137.4050 C   0  0  1  0  0  3  0  0  0  0  0  0
  187.6270  174.2790  136.2850 C   0  0  0  0  0  2  0  0  0  0  0  0
  186.0960  174.3540  136.4220 C   0  0  1  0  0  3  0  0  0  0  0  0
  183.4220  174.6680  137.3270 C   0  0  1  0  0  3  0  0  0  0  0  0
  181.9770  177.6550  135.7620 C   0  0  2  0  0  3  0  0  0  0  0  0
  185.6850  173.6120  137.6140 N   0  0  0  0  0  2  0  0  0  0  0  0
  181.7340  176.3750  134.9870 C   0  0  0  0  0  2  0  0  0  0  0  0
  181.5270  178.8330  134.9240 C   0  0  0  0  0  1  0  0  0  0  0  0
  184.3000  178.1970  138.1110 O   0  0  0  0  0  0  0  0  0  0  0  0
  182.7600  174.5220  135.9630 C   0  0  0  0  0  2  0  0  0  0  0  0
  183.0160  177.8960  138.5900 C   0  0  1  0  0  0  0  0  0  0  0  0
  185.5180  175.8050  136.4420 C   0  0  2  0  0  3  0  0  0  0  0  0
  181.5250  175.2810  135.9170 N   0  0  0  0  0  2  0  0  0  0  0  0
  188.1990  175.4530  135.5400 C   0  0  0  0  0  3  0  0  0  0  0  0
  186.5920  176.8560  136.7380 C   0  0  0  0  0  2  0  0  0  0  0  0
  179.7890  179.9490  138.2990 C   0  0  0  0  0  3  0  0  0  0  0  0
  181.6950  181.4280  138.2030 C   0  0  0  0  0  3  0  0  0  0  0  0
  182.0360  179.0380  138.4760 C   0  0  0  0  0  0  0  0  0  0  0  0
  180.3040  181.2490  138.1890 C   0  0  0  0  0  0  0  0  0  0  0  0
  182.5510  180.3330  138.3400 C   0  0  0  0  0  3  0  0  0  0  0  0
  180.6390  178.8480  138.4330 C   0  0  0  0  0  0  0  0  0  0  0  0
  180.0810  177.5770  138.5120 O   0  0  0  0  0  1  0  0  0  0  0  0
  178.9760  182.8360  136.7460 C   0  0  0  0  0  1  0  0  0  0  0  0
  178.9500  183.1100  139.2190 C   0  0  0  0  0  1  0  0  0  0  0  0
  179.4220  182.3790  138.0530 N   0  0  0  0  0  0  0  0  0  0  0  0
  183.0640  176.9330  140.1430 S   0  0  0  0  0  0  0  0  0  0  0  0
  183.2830  178.3930  141.2040 C   0  0  0  0  0  2  0  0  0  0  0  0
  184.4990  178.2510  141.9850 N   0  0  0  0  0  1  0  0  0  0  0  0
  2  1  1  6  0  0  0
  2  5  1  0  0  0  0
  2 13  1  0  0  0  0
  2 15  1  0  0  0  0
  3 10  1  0  0  0  0
  4 19  1  0  0  0  0
  6  7  1  0  0  0  0
  7 16  1  0  0  0  0
  7 10  1  0  0  0  0
  8  5  1  0  0  0  0
  8  3  1  0  0  0  0
  9  1  1  0  0  0  0
 11  9  1  0  0  0  0
 11 17  1  0  0  0  0
 12  9  1  0  0  0  0
 13 15  1  0  0  0  0
 14  8  1  0  0  0  0
 15 30  1  0  0  0  0
 16 19  1  0  0  0  0
 16  5  1  0  0  0  0
 17 14  1  0  0  0  0
 18  4  2  0  0  0  0
 18  6  1  0  0  0  0
 20 25  1  0  0  0  0
 21 24  2  0  0  0  0
 22 15  1  0  0  0  0
 23 21  1  0  0  0  0
 23 20  2  0  0  0  0
 24 22  1  0  0  0  0
 25 22  2  0  0  0  0
 25 26  1  0  0  0  0
 27 29  1  0  0  0  0
 29 23  1  0  0  0  0
 29 28  1  0  0  0  0
 30 31  1  0  0  0  0
 31 32  1  0  0  0  0
M  END
>  <MODEL>
6

>  <REMARK>
 VINA RESULT:      -4.1      1.824      7.459
  Name = 
  4 active torsions:
  status: ('A' for Active; 'I' for Inactive)
    1  A    between atoms: S_1  and  C_4
    2  A    between atoms: S_1  and  C_27
    3  A    between atoms: C_16  and  C_27
    4  A    between atoms: C_19  and  N_26
                            x       y       z     vdW  Elec       q    Type
                         _______ _______ _______ _____ _____    ______ ____

>  <TORSDO>
F 4

$$$$
=
 OpenBabel11052414293D

 32 36  0  0  1  0  0  0  0  0999 V2000
  184.3230  174.9560  137.8710 O   0  0  0  0  0  0  0  0  0  0  0  0
  184.5440  176.1560  137.1630 C   0  0  1  0  0  0  0  0  0  0  0  0
  181.4100  178.2850  136.1190 C   0  0  0  0  0  2  0  0  0  0  0  0
  183.1100  178.0530  140.9530 C   0  0  0  0  0  3  0  0  0  0  0  0
  183.4310  177.2160  137.2120 C   0  0  1  0  0  3  0  0  0  0  0  0
  181.3740  179.2870  139.7240 C   0  0  0  0  0  2  0  0  0  0  0  0
  181.5470  178.3520  138.5150 C   0  0  1  0  0  3  0  0  0  0  0  0
  182.3630  177.0760  136.1120 C   0  0  1  0  0  3  0  0  0  0  0  0
  184.0590  173.9330  136.9480 C   0  0  2  0  0  3  0  0  0  0  0  0
  181.5790  179.1530  137.2910 N   0  0  0  0  0  2  0  0  0  0  0  0
  182.5690  173.7840  136.7100 C   0  0  0  0  0  2  0  0  0  0  0  0
  184.6060  172.6280  137.4860 C   0  0  0  0  0  1  0  0  0  0  0  0
  185.7330  176.7450  137.6520 O   0  0  0  0  0  0  0  0  0  0  0  0
  181.5160  175.8210  136.2860 C   0  0  0  0  0  2  0  0  0  0  0  0
  185.7690  176.3420  136.3080 C   0  0  1  0  0  0  0  0  0  0  0  0
  182.7900  177.4100  138.5960 C   0  0  2  0  0  3  0  0  0  0  0  0
  182.1590  174.6870  135.6500 N   0  0  0  0  0  2  0  0  0  0  0  0
  181.9450  178.7070  140.9890 C   0  0  0  0  0  3  0  0  0  0  0  0
  183.8100  177.8800  139.6390 C   0  0  0  0  0  2  0  0  0  0  0  0
  188.6400  173.8080  136.5240 C   0  0  0  0  0  3  0  0  0  0  0  0
  187.2750  173.3150  134.5940 C   0  0  0  0  0  3  0  0  0  0  0  0
  186.6890  175.1760  136.0420 C   0  0  0  0  0  0  0  0  0  0  0  0
  188.3790  173.0060  135.4030 C   0  0  0  0  0  0  0  0  0  0  0  0
  186.4430  174.3920  134.9080 C   0  0  0  0  0  3  0  0  0  0  0  0
  187.8140  174.8880  136.8430 C   0  0  0  0  0  0  0  0  0  0  0  0
  188.1290  175.6680  137.9500 O   0  0  0  0  0  1  0  0  0  0  0  0
  190.6630  172.0710  134.8850 C   0  0  0  0  0  1  0  0  0  0  0  0
  188.6960  170.5490  134.9340 C   0  0  0  0  0  1  0  0  0  0  0  0
  189.2330  171.8930  135.0810 N   0  0  0  0  0  0  0  0  0  0  0  0
  185.7990  177.7620  135.1590 S   0  0  0  0  0  0  0  0  0  0  0  0
  187.4960  178.2520  135.5890 C   0  0  0  0  0  2  0  0  0  0  0  0
  187.4710  179.1520  136.7280 N   0  0  0  0  0  1  0  0  0  0  0  0
  2  5  1  0  0  0  0
  2 13  1  1  0  0  0
  2  1  1  0  0  0  0
  3 10  1  0  0  0  0
  4 18  2  0  0  0  0
  5 16  1  0  0  0  0
  6 18  1  0  0  0  0
  7 16  1  0  0  0  0
  7  6  1  0  0  0  0
  8  3  1  0  0  0  0
  8 14  1  0  0  0  0
  8  5  1  0  0  0  0
  9 12  1  0  0  0  0
  9  1  1  0  0  0  0
 10  7  1  0  0  0  0
 11  9  1  0  0  0  0
 15  2  1  0  0  0  0
 15 13  1  0  0  0  0
 16 19  1  0  0  0  0
 17 14  1  0  0  0  0
 17 11  1  0  0  0  0
 19  4  1  0  0  0  0
 20 25  1  0  0  0  0
 21 24  2  0  0  0  0
 21 23  1  0  0  0  0
 22 15  1  0  0  0  0
 22 25  2  0  0  0  0
 23 20  2  0  0  0  0
 24 22  1  0  0  0  0
 25 26  1  0  0  0  0
 27 29  1  0  0  0  0
 28 29  1  0  0  0  0
 29 23  1  0  0  0  0
 30 31  1  0  0  0  0
 30 15  1  0  0  0  0
 31 32  1  0  0  0  0
M  END
>  <MODEL>
7

>  <REMARK>
 VINA RESULT:      -3.8      2.499      4.707
  Name = 
  4 active torsions:
  status: ('A' for Active; 'I' for Inactive)
    1  A    between atoms: S_1  and  C_4
    2  A    between atoms: S_1  and  C_27
    3  A    between atoms: C_16  and  C_27
    4  A    between atoms: C_19  and  N_26
                            x       y       z     vdW  Elec       q    Type
                         _______ _______ _______ _____ _____    ______ ____

>  <TORSDO>
F 4

$$$$
=
 OpenBabel11052414293D

 32 36  0  0  1  0  0  0  0  0999 V2000
  185.3250  175.7440  137.2090 O   0  0  0  0  0  0  0  0  0  0  0  0
  186.3700  175.1480  136.4720 C   0  0  1  0  0  0  0  0  0  0  0  0
  188.8830  177.5160  134.5940 C   0  0  0  0  0  2  0  0  0  0  0  0
  188.9420  176.9040  139.6860 C   0  0  0  0  0  3  0  0  0  0  0  0
  187.6110  176.0130  136.1880 C   0  0  1  0  0  3  0  0  0  0  0  0
  190.3070  178.0730  138.0090 C   0  0  0  0  0  2  0  0  0  0  0  0
  189.2150  177.8530  136.9470 C   0  0  1  0  0  3  0  0  0  0  0  0
  187.5310  176.8450  134.8940 C   0  0  1  0  0  3  0  0  0  0  0  0
  184.2610  176.0170  136.3360 C   0  0  2  0  0  3  0  0  0  0  0  0
  189.8430  177.4160  135.6990 N   0  0  0  0  0  2  0  0  0  0  0  0
  184.3530  177.4280  135.7880 C   0  0  0  0  0  2  0  0  0  0  0  0
  182.9550  175.8630  137.0860 C   0  0  0  0  0  1  0  0  0  0  0  0
  186.7920  173.9880  137.1610 O   0  0  0  0  0  0  0  0  0  0  0  0
  186.4790  177.9430  134.9790 C   0  0  0  0  0  2  0  0  0  0  0  0
  186.2290  173.7650  135.8960 C   0  0  1  0  0  0  0  0  0  0  0  0
  188.0840  176.8660  137.3770 C   0  0  2  0  0  3  0  0  0  0  0  0
  185.1790  177.4270  134.5940 N   0  0  0  0  0  2  0  0  0  0  0  0
  189.7940  177.8970  139.4110 C   0  0  0  0  0  3  0  0  0  0  0  0
  188.4880  176.0030  138.5770 C   0  0  0  0  0  2  0  0  0  0  0  0
  183.1230  171.8450  137.0720 C   0  0  0  0  0  3  0  0  0  0  0  0
  182.9710  172.2440  134.6950 C   0  0  0  0  0  3  0  0  0  0  0  0
  184.8930  173.0640  135.9350 C   0  0  0  0  0  0  0  0  0  0  0  0
  182.4150  171.7120  135.8680 C   0  0  0  0  0  0  0  0  0  0  0  0
  184.1990  172.9080  134.7280 C   0  0  0  0  0  3  0  0  0  0  0  0
  184.3540  172.5060  137.1120 C   0  0  0  0  0  0  0  0  0  0  0  0
  185.0290  172.5890  138.3240 O   0  0  0  0  0  1  0  0  0  0  0  0
  180.0840  171.3700  136.7690 C   0  0  0  0  0  1  0  0  0  0  0  0
  180.8820  169.9780  134.8680 C   0  0  0  0  0  1  0  0  0  0  0  0
  181.1470  171.0330  135.8350 N   0  0  0  0  0  0  0  0  0  0  0  0
  187.4700  173.2210  134.6700 S   0  0  0  0  0  0  0  0  0  0  0  0
  188.3320  172.1160  135.8280 C   0  0  0  0  0  2  0  0  0  0  0  0
  187.7380  170.7920  135.7750 N   0  0  0  0  0  1  0  0  0  0  0  0
  2 13  1  1  0  0  0
  2  1  1  0  0  0  0
  3  8  1  0  0  0  0
  3 10  1  0  0  0  0
  5  2  1  0  0  0  0
  5 16  1  0  0  0  0
  6 18  1  0  0  0  0
  7 16  1  0  0  0  0
  7  6  1  0  0  0  0
  8 14  1  0  0  0  0
  8  5  1  0  0  0  0
  9 12  1  0  0  0  0
  9  1  1  0  0  0  0
 10  7  1  0  0  0  0
 11  9  1  0  0  0  0
 15 22  1  0  0  0  0
 15  2  1  0  0  0  0
 15 13  1  0  0  0  0
 16 19  1  0  0  0  0
 17 14  1  0  0  0  0
 17 11  1  0  0  0  0
 18  4  2  0  0  0  0
 19  4  1  0  0  0  0
 20 25  1  0  0  0  0
 21 24  2  0  0  0  0
 21 23  1  0  0  0  0
 22 25  2  0  0  0  0
 23 20  2  0  0  0  0
 24 22  1  0  0  0  0
 25 26  1  0  0  0  0
 28 29  1  0  0  0  0
 29 23  1  0  0  0  0
 29 27  1  0  0  0  0
 30 31  1  0  0  0  0
 30 15  1  0  0  0  0
 32 31  1  0  0  0  0
M  END
>  <MODEL>
8

>  <REMARK>
 VINA RESULT:      -3.1      4.438      7.355
  Name = 
  4 active torsions:
  status: ('A' for Active; 'I' for Inactive)
    1  A    between atoms: S_1  and  C_4
    2  A    between atoms: S_1  and  C_27
    3  A    between atoms: C_16  and  C_27
    4  A    between atoms: C_19  and  N_26
                            x       y       z     vdW  Elec       q    Type
                         _______ _______ _______ _____ _____    ______ ____

>  <TORSDO>
F 4

$$$$
=
 OpenBabel11052414293D

 32 36  0  0  1  0  0  0  0  0999 V2000
  187.2360  176.7510  138.8380 O   0  0  0  0  0  0  0  0  0  0  0  0
  186.8890  176.8050  137.4710 C   0  0  1  0  0  0  0  0  0  0  0  0
  189.7190  177.6680  134.8840 C   0  0  0  0  0  2  0  0  0  0  0  0
  189.4020  173.1110  137.2180 C   0  0  0  0  0  3  0  0  0  0  0  0
  188.0250  176.6210  136.4500 C   0  0  1  0  0  3  0  0  0  0  0  0
  190.7930  174.1310  135.4650 C   0  0  0  0  0  2  0  0  0  0  0  0
  190.2480  175.5250  135.8260 C   0  0  1  0  0  3  0  0  0  0  0  0
  188.7420  177.9220  136.0460 C   0  0  1  0  0  3  0  0  0  0  0  0
  187.1840  178.0510  139.3640 C   0  0  2  0  0  3  0  0  0  0  0  0
  189.9220  176.2440  134.5940 N   0  0  0  0  0  2  0  0  0  0  0  0
  188.5420  178.7210  139.2950 C   0  0  0  0  0  2  0  0  0  0  0  0
  186.7420  177.9800  140.8110 C   0  0  0  0  0  1  0  0  0  0  0  0
  185.9110  175.8150  137.2230 O   0  0  0  0  0  0  0  0  0  0  0  0
  189.5400  178.5230  137.1960 C   0  0  0  0  0  2  0  0  0  0  0  0
  185.4880  177.1390  137.0350 C   0  0  1  0  0  0  0  0  0  0  0  0
  189.0300  175.5110  136.8020 C   0  0  2  0  0  3  0  0  0  0  0  0
  188.6910  179.3750  138.0070 N   0  0  0  0  0  2  0  0  0  0  0  0
  190.5640  173.1220  136.5560 C   0  0  0  0  0  3  0  0  0  0  0  0
  188.3610  174.1350  136.8800 C   0  0  0  0  0  2  0  0  0  0  0  0
  182.6080  177.2490  139.5670 C   0  0  0  0  0  3  0  0  0  0  0  0
  183.4860  179.4760  139.2490 C   0  0  0  0  0  3  0  0  0  0  0  0
  184.4730  177.6080  138.0480 C   0  0  0  0  0  0  0  0  0  0  0  0
  182.5740  178.6160  139.8780 C   0  0  0  0  0  0  0  0  0  0  0  0
  184.4210  178.9770  138.3390 C   0  0  0  0  0  3  0  0  0  0  0  0
  183.5400  176.7430  138.6560 C   0  0  0  0  0  0  0  0  0  0  0  0
  183.5170  175.3850  138.3610 O   0  0  0  0  0  1  0  0  0  0  0  0
  181.7460  178.8800  142.2460 C   0  0  0  0  0  1  0  0  0  0  0  0
  180.4710  179.9150  140.3780 C   0  0  0  0  0  1  0  0  0  0  0  0
  181.6140  179.1300  140.8200 N   0  0  0  0  0  0  0  0  0  0  0  0
  185.2150  177.5350  135.2720 S   0  0  0  0  0  0  0  0  0  0  0  0
  183.9760  176.2280  135.0270 C   0  0  0  0  0  2  0  0  0  0  0  0
  182.6480  176.8150  134.9890 N   0  0  0  0  0  1  0  0  0  0  0  0
  1  9  1  0  0  0  0
  2 13  1  6  0  0  0
  2  1  1  0  0  0  0
  3  8  1  0  0  0  0
  5 16  1  0  0  0  0
  5  2  1  0  0  0  0
  6  7  1  0  0  0  0
  6 18  1  0  0  0  0
  7 16  1  0  0  0  0
  8  5  1  0  0  0  0
  8 14  1  0  0  0  0
  9 12  1  0  0  0  0
 10  3  1  0  0  0  0
 10  7  1  0  0  0  0
 11  9  1  0  0  0  0
 14 17  1  0  0  0  0
 15 13  1  0  0  0  0
 15  2  1  0  0  0  0
 15 22  1  0  0  0  0
 16 19  1  0  0  0  0
 17 11  1  0  0  0  0
 18  4  2  0  0  0  0
 19  4  1  0  0  0  0
 20 23  1  0  0  0  0
 21 23  2  0  0  0  0
 22 24  2  0  0  0  0
 22 25  1  0  0  0  0
 23 29  1  0  0  0  0
 24 21  1  0  0  0  0
 25 20  2  0  0  0  0
 26 25  1  0  0  0  0
 28 29  1  0  0  0  0
 29 27  1  0  0  0  0
 30 15  1  0  0  0  0
 31 30  1  0  0  0  0
 32 31  1  0  0  0  0
M  END
>  <MODEL>
9

>  <REMARK>
 VINA RESULT:      -3.1      2.720      7.990
  Name = 
  4 active torsions:
  status: ('A' for Active; 'I' for Inactive)
    1  A    between atoms: S_1  and  C_4
    2  A    between atoms: S_1  and  C_27
    3  A    between atoms: C_16  and  C_27
    4  A    between atoms: C_19  and  N_26
                            x       y       z     vdW  Elec       q    Type
                         _______ _______ _______ _____ _____    ______ ____

>  <TORSDO>
F 4

$$$$
