=
 OpenBabel11052414413D

 32 36  0  0  1  0  0  0  0  0999 V2000
  190.1020  177.5100  139.6920 C   0  0  0  0  0  0  0  0  0  0  0  0
  187.7810  178.3740  139.3590 C   0  0  2  0  0  3  0  0  0  0  0  0
  191.1870  176.9900  140.5490 C   0  0  0  0  0  3  0  0  0  0  0  0
  188.8850  177.7980  140.2320 C   0  0  0  0  0  0  0  0  0  0  0  0
  186.5080  177.9130  139.7340 O   0  0  0  0  0  0  0  0  0  0  0  0
  186.1240  176.7600  135.6050 C   0  0  0  0  0  3  0  0  0  0  0  0
  187.9620  178.0110  137.8920 C   0  0  2  0  0  3  0  0  0  0  0  0
  184.7410  177.1240  137.6460 C   0  0  0  0  0  2  0  0  0  0  0  0
  185.4830  178.4680  137.8430 C   0  0  1  0  0  3  0  0  0  0  0  0
  188.6620  177.5730  141.7250 C   0  0  1  0  0  3  0  0  0  0  0  0
  185.6460  178.7840  139.2160 O   0  0  0  0  0  0  0  0  0  0  0  0
  189.9570  177.7610  142.5250 C   0  0  0  0  0  2  0  0  0  0  0  0
  189.3390  178.4540  137.4360 C   0  0  0  0  0  2  0  0  0  0  0  0
  190.3890  177.6460  138.2060 C   0  0  2  0  0  3  0  0  0  0  0  0
  186.8250  178.6180  137.0700 C   0  0  2  0  0  3  0  0  0  0  0  0
  191.1090  177.0610  141.8760 C   0  0  0  0  0  3  0  0  0  0  0  0
  185.5380  176.1060  136.8220 C   0  0  0  0  0  2  0  0  0  0  0  0
  186.7330  177.9460  135.7240 C   0  0  0  0  0  3  0  0  0  0  0  0
  192.3470  174.9670  136.0840 C   0  0  1  0  0  3  0  0  0  0  0  0
  190.3100  172.0930  135.9220 F   0  0  0  0  0  0  0  0  0  0  0  0
  193.7700  174.9690  135.5380 C   0  0  0  0  0  1  0  0  0  0  0  0
  189.5890  174.1060  136.7940 C   0  0  0  0  0  3  0  0  0  0  0  0
  190.6750  176.3170  137.5430 C   0  0  0  0  0  0  0  0  0  0  0  0
  192.0350  173.6280  136.7060 C   0  0  0  0  0  2  0  0  0  0  0  0
  189.6410  175.4700  137.3700 C   0  0  0  0  0  3  0  0  0  0  0  0
  192.0670  176.0420  137.1010 C   0  0  0  0  0  0  0  0  0  0  0  0
  193.0750  176.6850  137.6950 C   0  0  0  0  0  2  0  0  0  0  0  0
  190.6010  173.2930  136.4780 C   0  0  0  0  0  0  0  0  0  0  0  0
  187.5950  178.4940  142.3080 C   0  0  0  0  0  2  0  0  0  0  0  0
  185.4420  177.9450  143.1650 O   0  0  0  0  0  0  0  0  0  0  0  0
  187.1970  176.7920  144.0870 O   0  0  0  0  0  1  0  0  0  0  0  0
  186.6830  177.7410  143.2120 C   0  0  0  0  0  0  0  0  0  0  0  0
  1  4  2  0  0  0  0
  1  3  1  0  0  0  0
  2  5  1  1  0  0  0
  2  4  1  0  0  0  0
  3 16  2  0  0  0  0
  4 10  1  0  0  0  0
  6 18  2  0  0  0  0
  6 17  1  0  0  0  0
  7 13  1  6  0  0  0
  7  2  1  0  0  0  0
  9  8  1  1  0  0  0
  9 11  1  0  0  0  0
 10 29  1  1  0  0  0
 10 12  1  0  0  0  0
 11  5  1  0  0  0  0
 13 14  1  0  0  0  0
 14 23  1  6  0  0  0
 14  1  1  0  0  0  0
 15 18  1  6  0  0  0
 15  9  1  0  0  0  0
 15  7  1  0  0  0  0
 16 12  1  0  0  0  0
 17  8  1  0  0  0  0
 19 21  1  1  0  0  0
 19 24  1  0  0  0  0
 19 26  1  0  0  0  0
 20 28  1  0  0  0  0
 22 25  1  0  0  0  0
 25 23  2  0  0  0  0
 26 23  1  0  0  0  0
 26 27  2  0  0  0  0
 28 24  1  0  0  0  0
 28 22  2  0  0  0  0
 29 32  1  0  0  0  0
 30 32  2  0  0  0  0
 32 31  1  0  0  0  0
M  END
>  <MODEL>
1

>  <REMARK>
 VINA RESULT:      -7.0      0.000      0.000
  Name = 
  3 active torsions:
  status: ('A' for Active; 'I' for Inactive)
    1  A    between atoms: C_14  and  C_18
    2  A    between atoms: C_16  and  C_27
    3  A    between atoms: C_18  and  C_29
                            x       y       z     vdW  Elec       q    Type
                         _______ _______ _______ _____ _____    ______ ____

>  <TORSDO>
F 3

$$$$
=
 OpenBabel11052414413D

 32 36  0  0  1  0  0  0  0  0999 V2000
  185.5040  178.6790  140.4000 C   0  0  0  0  0  0  0  0  0  0  0  0
  183.2840  179.1350  141.4520 C   0  0  2  0  0  3  0  0  0  0  0  0
  186.9250  178.2800  140.4780 C   0  0  0  0  0  3  0  0  0  0  0  0
  184.7350  178.6820  141.5230 C   0  0  0  0  0  0  0  0  0  0  0  0
  182.4560  178.4130  142.3270 O   0  0  0  0  0  0  0  0  0  0  0  0
  180.0680  177.6450  138.8290 C   0  0  0  0  0  3  0  0  0  0  0  0
  182.6990  178.9650  140.0570 C   0  0  2  0  0  3  0  0  0  0  0  0
  179.9440  177.5360  141.3150 C   0  0  0  0  0  2  0  0  0  0  0  0
  180.5370  178.9640  141.3540 C   0  0  1  0  0  3  0  0  0  0  0  0
  185.3580  178.2660  142.8530 C   0  0  1  0  0  3  0  0  0  0  0  0
  181.3670  179.1600  142.4870 O   0  0  0  0  0  0  0  0  0  0  0  0
  186.8530  178.6030  142.9080 C   0  0  0  0  0  2  0  0  0  0  0  0
  183.5740  179.6980  139.0590 C   0  0  0  0  0  2  0  0  0  0  0  0
  184.9480  179.0200  139.0270 C   0  0  2  0  0  3  0  0  0  0  0  0
  181.2450  179.4370  140.0520 C   0  0  2  0  0  3  0  0  0  0  0  0
  187.5530  178.1960  141.6490 C   0  0  0  0  0  3  0  0  0  0  0  0
  180.2830  176.7720  140.0300 C   0  0  0  0  0  2  0  0  0  0  0  0
  180.5250  178.9040  138.8400 C   0  0  0  0  0  3  0  0  0  0  0  0
  185.7770  176.9700  135.7690 C   0  0  1  0  0  3  0  0  0  0  0  0
  184.2170  173.8260  136.1050 F   0  0  0  0  0  0  0  0  0  0  0  0
  186.7110  177.2770  134.6040 C   0  0  0  0  0  1  0  0  0  0  0  0
  183.8650  175.5750  137.5710 C   0  0  0  0  0  3  0  0  0  0  0  0
  184.9740  177.8420  138.0790 C   0  0  0  0  0  0  0  0  0  0  0  0
  185.9510  175.5360  136.2060 C   0  0  0  0  0  2  0  0  0  0  0  0
  184.0800  176.8540  138.2850 C   0  0  0  0  0  3  0  0  0  0  0  0
  185.9610  177.8610  136.9680 C   0  0  0  0  0  0  0  0  0  0  0  0
  187.0670  178.5970  137.0960 C   0  0  0  0  0  2  0  0  0  0  0  0
  184.6400  174.9880  136.6550 C   0  0  0  0  0  0  0  0  0  0  0  0
  184.6730  178.9110  144.0540 C   0  0  0  0  0  2  0  0  0  0  0  0
  185.4920  179.4690  146.2200 O   0  0  0  0  0  1  0  0  0  0  0  0
  185.9760  177.3470  145.4960 O   0  0  0  0  0  0  0  0  0  0  0  0
  185.4080  178.6020  145.3120 C   0  0  0  0  0  0  0  0  0  0  0  0
  1  3  1  0  0  0  0
  1  4  2  0  0  0  0
  2  4  1  6  0  0  0
  2  5  1  0  0  0  0
  3 16  2  0  0  0  0
  4 10  1  0  0  0  0
  5 11  1  0  0  0  0
  6 18  2  0  0  0  0
  6 17  1  0  0  0  0
  7 13  1  6  0  0  0
  7  2  1  0  0  0  0
  9  8  1  6  0  0  0
  9 11  1  0  0  0  0
 10 12  1  0  0  0  0
 10 29  1  1  0  0  0
 14 23  1  6  0  0  0
 14 13  1  0  0  0  0
 14  1  1  0  0  0  0
 15 18  1  6  0  0  0
 15  7  1  0  0  0  0
 15  9  1  0  0  0  0
 16 12  1  0  0  0  0
 17  8  1  0  0  0  0
 19 21  1  6  0  0  0
 19 24  1  0  0  0  0
 19 26  1  0  0  0  0
 20 28  1  0  0  0  0
 22 25  1  0  0  0  0
 23 25  2  0  0  0  0
 24 28  1  0  0  0  0
 26 27  2  0  0  0  0
 26 23  1  0  0  0  0
 28 22  2  0  0  0  0
 29 32  1  0  0  0  0
 32 31  2  0  0  0  0
 32 30  1  0  0  0  0
M  END
>  <MODEL>
2

>  <REMARK>
 VINA RESULT:      -6.6      3.783      5.511
  Name = 
  3 active torsions:
  status: ('A' for Active; 'I' for Inactive)
    1  A    between atoms: C_14  and  C_18
    2  A    between atoms: C_16  and  C_27
    3  A    between atoms: C_18  and  C_29
                            x       y       z     vdW  Elec       q    Type
                         _______ _______ _______ _____ _____    ______ ____

>  <TORSDO>
F 3

$$$$
=
 OpenBabel11052414413D

 32 36  0  0  1  0  0  0  0  0999 V2000
  184.4060  178.5510  139.8730 C   0  0  0  0  0  0  0  0  0  0  0  0
  182.0150  178.8740  140.5210 C   0  0  2  0  0  3  0  0  0  0  0  0
  185.8420  178.4410  140.2050 C   0  0  0  0  0  3  0  0  0  0  0  0
  183.4880  178.7180  140.8650 C   0  0  0  0  0  0  0  0  0  0  0  0
  181.1760  178.2770  141.4770 O   0  0  0  0  0  0  0  0  0  0  0  0
  179.4560  176.2020  138.1210 C   0  0  0  0  0  3  0  0  0  0  0  0
  181.6690  178.2400  139.1810 C   0  0  2  0  0  3  0  0  0  0  0  0
  178.9860  176.7380  140.5090 C   0  0  0  0  0  2  0  0  0  0  0  0
  179.3620  178.2060  140.1970 C   0  0  1  0  0  3  0  0  0  0  0  0
  183.9620  178.7850  142.3150 C   0  0  1  0  0  3  0  0  0  0  0  0
  179.9820  178.8380  141.3050 O   0  0  0  0  0  0  0  0  0  0  0  0
  185.3710  179.3820  142.4210 C   0  0  0  0  0  2  0  0  0  0  0  0
  182.5690  178.8220  138.1080 C   0  0  0  0  0  2  0  0  0  0  0  0
  184.0150  178.4110  138.4120 C   0  0  2  0  0  3  0  0  0  0  0  0
  180.1800  178.4320  138.8930 C   0  0  2  0  0  3  0  0  0  0  0  0
  186.2970  178.7840  141.4090 C   0  0  0  0  0  3  0  0  0  0  0  0
  179.6130  175.7310  139.5370 C   0  0  0  0  0  2  0  0  0  0  0  0
  179.7260  177.4780  137.8180 C   0  0  0  0  0  3  0  0  0  0  0  0
  185.5310  175.7480  135.9380 C   0  0  1  0  0  3  0  0  0  0  0  0
  184.4970  172.5770  137.0780 F   0  0  0  0  0  0  0  0  0  0  0  0
  186.5230  175.9000  134.7910 C   0  0  0  0  0  1  0  0  0  0  0  0
  183.6950  174.5580  137.9530 C   0  0  0  0  0  3  0  0  0  0  0  0
  184.3430  177.0470  137.8470 C   0  0  0  0  0  0  0  0  0  0  0  0
  185.8960  174.5510  136.7810 C   0  0  0  0  0  2  0  0  0  0  0  0
  183.6110  176.0010  138.2780 C   0  0  0  0  0  3  0  0  0  0  0  0
  185.4290  176.9510  136.8370 C   0  0  0  0  0  0  0  0  0  0  0  0
  186.3740  177.8940  136.8110 C   0  0  0  0  0  2  0  0  0  0  0  0
  184.6540  173.9040  137.2920 C   0  0  0  0  0  0  0  0  0  0  0  0
  183.0250  179.5960  143.2040 C   0  0  0  0  0  2  0  0  0  0  0  0
  181.7460  178.1870  144.6360 O   0  0  0  0  0  0  0  0  0  0  0  0
  183.7020  178.9870  145.5270 O   0  0  0  0  0  1  0  0  0  0  0  0
  182.7790  178.8920  144.4930 C   0  0  0  0  0  0  0  0  0  0  0  0
  1  3  1  0  0  0  0
  1  4  2  0  0  0  0
  2  4  1  1  0  0  0
  2  5  1  0  0  0  0
  3 16  2  0  0  0  0
  4 10  1  0  0  0  0
  6 17  1  0  0  0  0
  7 13  1  6  0  0  0
  7  2  1  0  0  0  0
  9  8  1  1  0  0  0
  9 11  1  0  0  0  0
 10 12  1  0  0  0  0
 10 29  1  1  0  0  0
 11  5  1  0  0  0  0
 13 14  1  0  0  0  0
 14 23  1  1  0  0  0
 14  1  1  0  0  0  0
 15 18  1  6  0  0  0
 15  7  1  0  0  0  0
 15  9  1  0  0  0  0
 16 12  1  0  0  0  0
 17  8  1  0  0  0  0
 18  6  2  0  0  0  0
 19 21  1  6  0  0  0
 19 24  1  0  0  0  0
 19 26  1  0  0  0  0
 20 28  1  0  0  0  0
 22 25  1  0  0  0  0
 23 25  2  0  0  0  0
 24 28  1  0  0  0  0
 26 23  1  0  0  0  0
 27 26  2  0  0  0  0
 28 22  2  0  0  0  0
 29 32  1  0  0  0  0
 32 30  2  0  0  0  0
 32 31  1  0  0  0  0
M  END
>  <MODEL>
3

>  <REMARK>
 VINA RESULT:      -6.2      4.192      6.057
  Name = 
  3 active torsions:
  status: ('A' for Active; 'I' for Inactive)
    1  A    between atoms: C_14  and  C_18
    2  A    between atoms: C_16  and  C_27
    3  A    between atoms: C_18  and  C_29
                            x       y       z     vdW  Elec       q    Type
                         _______ _______ _______ _____ _____    ______ ____

>  <TORSDO>
F 3

$$$$
=
 OpenBabel11052414413D

 32 36  0  0  1  0  0  0  0  0999 V2000
  188.3510  177.1810  138.3390 C   0  0  0  0  0  0  0  0  0  0  0  0
  186.8520  178.5450  139.8010 C   0  0  2  0  0  3  0  0  0  0  0  0
  189.5700  176.3770  138.1130 C   0  0  0  0  0  3  0  0  0  0  0  0
  188.0840  177.6810  139.5770 C   0  0  0  0  0  0  0  0  0  0  0  0
  186.2790  178.3400  141.0670 O   0  0  0  0  0  0  0  0  0  0  0  0
  182.6410  177.6120  138.8840 C   0  0  0  0  0  3  0  0  0  0  0  0
  185.7620  178.2630  138.7770 C   0  0  2  0  0  3  0  0  0  0  0  0
  183.4440  178.1080  141.1910 C   0  0  0  0  0  2  0  0  0  0  0  0
  184.3070  179.2420  140.5880 C   0  0  1  0  0  3  0  0  0  0  0  0
  189.0560  177.3960  140.7200 C   0  0  1  0  0  3  0  0  0  0  0  0
  185.5240  179.4120  141.2950 O   0  0  0  0  0  0  0  0  0  0  0  0
  190.4950  177.2420  140.2130 C   0  0  0  0  0  2  0  0  0  0  0  0
  186.3320  178.4350  137.3830 C   0  0  0  0  0  2  0  0  0  0  0  0
  187.4070  177.3640  137.1620 C   0  0  2  0  0  3  0  0  0  0  0  0
  184.5550  179.1610  139.0550 C   0  0  2  0  0  3  0  0  0  0  0  0
  190.5590  176.3620  139.0040 C   0  0  0  0  0  3  0  0  0  0  0  0
  183.0960  177.0080  140.1810 C   0  0  0  0  0  2  0  0  0  0  0  0
  183.3330  178.6280  138.3530 C   0  0  0  0  0  3  0  0  0  0  0  0
  184.8140  174.9360  135.4640 C   0  0  1  0  0  3  0  0  0  0  0  0
  186.0130  171.6540  135.9360 F   0  0  0  0  0  0  0  0  0  0  0  0
  183.5960  175.2240  134.5940 C   0  0  0  0  0  1  0  0  0  0  0  0
  186.9550  173.5030  136.9500 C   0  0  0  0  0  3  0  0  0  0  0  0
  186.8130  176.0590  136.6820 C   0  0  0  0  0  0  0  0  0  0  0  0
  185.6200  173.8100  134.8660 C   0  0  0  0  0  2  0  0  0  0  0  0
  187.2930  174.9200  137.2180 C   0  0  0  0  0  3  0  0  0  0  0  0
  185.7240  176.1170  135.6720 C   0  0  0  0  0  0  0  0  0  0  0  0
  185.6310  177.1870  134.8800 C   0  0  0  0  0  2  0  0  0  0  0  0
  186.2210  172.9920  135.9580 C   0  0  0  0  0  0  0  0  0  0  0  0
  189.0350  178.4780  141.7950 C   0  0  0  0  0  2  0  0  0  0  0  0
  189.9070  178.3660  144.0090 O   0  0  0  0  0  1  0  0  0  0  0  0
  188.3260  176.7880  143.4880 O   0  0  0  0  0  0  0  0  0  0  0  0
  189.1260  177.8750  143.1540 C   0  0  0  0  0  0  0  0  0  0  0  0
  1  4  2  0  0  0  0
  2  4  1  6  0  0  0
  2  5  1  0  0  0  0
  3  1  1  0  0  0  0
  3 16  2  0  0  0  0
  4 10  1  0  0  0  0
  5 11  1  0  0  0  0
  6 17  1  0  0  0  0
  7 13  1  6  0  0  0
  7 15  1  0  0  0  0
  7  2  1  0  0  0  0
  9  8  1  1  0  0  0
  9 11  1  0  0  0  0
 10 29  1  1  0  0  0
 12 10  1  0  0  0  0
 14 23  1  1  0  0  0
 14 13  1  0  0  0  0
 14  1  1  0  0  0  0
 15 18  1  6  0  0  0
 15  9  1  0  0  0  0
 16 12  1  0  0  0  0
 17  8  1  0  0  0  0
 18  6  2  0  0  0  0
 19 21  1  6  0  0  0
 19 26  1  0  0  0  0
 20 28  1  0  0  0  0
 22 25  1  0  0  0  0
 23 25  2  0  0  0  0
 24 19  1  0  0  0  0
 24 28  1  0  0  0  0
 26 23  1  0  0  0  0
 27 26  2  0  0  0  0
 28 22  2  0  0  0  0
 29 32  1  0  0  0  0
 32 31  2  0  0  0  0
 32 30  1  0  0  0  0
M  END
>  <MODEL>
4

>  <REMARK>
 VINA RESULT:      -6.0      2.185      4.215
  Name = 
  3 active torsions:
  status: ('A' for Active; 'I' for Inactive)
    1  A    between atoms: C_14  and  C_18
    2  A    between atoms: C_16  and  C_27
    3  A    between atoms: C_18  and  C_29
                            x       y       z     vdW  Elec       q    Type
                         _______ _______ _______ _____ _____    ______ ____

>  <TORSDO>
F 3

$$$$
=
 OpenBabel11052414413D

 32 36  0  0  1  0  0  0  0  0999 V2000
  186.5240  176.3090  136.6550 C   0  0  0  0  0  0  0  0  0  0  0  0
  185.8320  178.1810  138.1590 C   0  0  2  0  0  3  0  0  0  0  0  0
  187.5190  175.3330  136.1640 C   0  0  0  0  0  3  0  0  0  0  0  0
  186.8400  177.1460  137.6810 C   0  0  0  0  0  0  0  0  0  0  0  0
  185.8960  178.3880  139.5470 O   0  0  0  0  0  0  0  0  0  0  0  0
  181.6740  177.5550  139.4860 C   0  0  0  0  0  3  0  0  0  0  0  0
  184.4000  177.7730  137.8440 C   0  0  2  0  0  3  0  0  0  0  0  0
  183.4280  178.5410  140.9560 C   0  0  0  0  0  2  0  0  0  0  0  0
  183.9100  179.3630  139.7380 C   0  0  1  0  0  3  0  0  0  0  0  0
  188.2270  177.0580  138.3140 C   0  0  1  0  0  3  0  0  0  0  0  0
  185.3130  179.5650  139.7590 O   0  0  0  0  0  0  0  0  0  0  0  0
  189.2830  176.6030  137.2990 C   0  0  0  0  0  2  0  0  0  0  0  0
  184.2760  177.5000  136.3580 C   0  0  0  0  0  2  0  0  0  0  0  0
  185.1480  176.2880  136.0110 C   0  0  2  0  0  3  0  0  0  0  0  0
  183.4390  178.8510  138.3470 C   0  0  2  0  0  3  0  0  0  0  0  0
  188.8040  175.4350  136.4960 C   0  0  0  0  0  3  0  0  0  0  0  0
  182.6740  177.2640  140.5660 C   0  0  0  0  0  2  0  0  0  0  0  0
  182.0380  178.3030  138.4360 C   0  0  0  0  0  3  0  0  0  0  0  0
  182.1190  173.7770  136.1730 C   0  0  1  0  0  3  0  0  0  0  0  0
  183.3730  170.7280  137.4210 F   0  0  0  0  0  0  0  0  0  0  0  0
  180.6870  173.9030  135.6660 C   0  0  0  0  0  1  0  0  0  0  0  0
  184.6120  172.6750  137.3620 C   0  0  0  0  0  3  0  0  0  0  0  0
  184.4170  174.9840  136.2390 C   0  0  0  0  0  0  0  0  0  0  0  0
  182.6750  172.4220  135.8120 C   0  0  0  0  0  2  0  0  0  0  0  0
  185.0340  174.0440  136.9830 C   0  0  0  0  0  3  0  0  0  0  0  0
  183.0590  174.8320  135.6550 C   0  0  0  0  0  0  0  0  0  0  0  0
  182.7230  175.5720  134.5950 C   0  0  0  0  0  2  0  0  0  0  0  0
  183.5910  171.9550  136.8920 C   0  0  0  0  0  0  0  0  0  0  0  0
  188.6810  178.3800  138.9250 C   0  0  0  0  0  2  0  0  0  0  0  0
  188.6250  178.4590  141.3050 O   0  0  0  0  0  1  0  0  0  0  0  0
  190.5450  177.6010  140.3890 O   0  0  0  0  0  0  0  0  0  0  0  0
  189.2790  178.1610  140.2720 C   0  0  0  0  0  0  0  0  0  0  0  0
  1  4  2  0  0  0  0
  2  4  1  1  0  0  0
  2  5  1  0  0  0  0
  3 16  2  0  0  0  0
  3  1  1  0  0  0  0
  4 10  1  0  0  0  0
  5 11  1  0  0  0  0
  6 17  1  0  0  0  0
  7 13  1  6  0  0  0
  7  2  1  0  0  0  0
  7 15  1  0  0  0  0
  9 11  1  0  0  0  0
  9  8  1  1  0  0  0
 10 29  1  6  0  0  0
 12 10  1  0  0  0  0
 14 23  1  1  0  0  0
 14 13  1  0  0  0  0
 14  1  1  0  0  0  0
 15 18  1  1  0  0  0
 15  9  1  0  0  0  0
 16 12  1  0  0  0  0
 17  8  1  0  0  0  0
 18  6  2  0  0  0  0
 19 21  1  6  0  0  0
 23 25  2  0  0  0  0
 24 19  1  0  0  0  0
 24 28  1  0  0  0  0
 25 22  1  0  0  0  0
 26 19  1  0  0  0  0
 26 23  1  0  0  0  0
 27 26  2  0  0  0  0
 28 22  2  0  0  0  0
 28 20  1  0  0  0  0
 29 32  1  0  0  0  0
 32 31  2  0  0  0  0
 32 30  1  0  0  0  0
M  END
>  <MODEL>
5

>  <REMARK>
 VINA RESULT:      -5.8      3.001      6.093
  Name = 
  3 active torsions:
  status: ('A' for Active; 'I' for Inactive)
    1  A    between atoms: C_14  and  C_18
    2  A    between atoms: C_16  and  C_27
    3  A    between atoms: C_18  and  C_29
                            x       y       z     vdW  Elec       q    Type
                         _______ _______ _______ _____ _____    ______ ____

>  <TORSDO>
F 3

$$$$
=
 OpenBabel11052414413D

 32 36  0  0  1  0  0  0  0  0999 V2000
  183.8060  177.2950  139.0250 C   0  0  0  0  0  0  0  0  0  0  0  0
  185.3710  176.9880  137.1010 C   0  0  2  0  0  3  0  0  0  0  0  0
  182.6700  176.8570  139.8620 C   0  0  0  0  0  3  0  0  0  0  0  0
  184.2300  176.5180  137.9900 C   0  0  0  0  0  0  0  0  0  0  0  0
  186.1820  175.9270  136.6670 O   0  0  0  0  0  0  0  0  0  0  0  0
  189.4300  178.2450  138.2790 C   0  0  0  0  0  3  0  0  0  0  0  0
  186.2860  177.9720  137.8170 C   0  0  2  0  0  3  0  0  0  0  0  0
  189.0000  176.3180  136.7580 C   0  0  0  0  0  2  0  0  0  0  0  0
  187.9160  177.1770  136.0650 C   0  0  1  0  0  3  0  0  0  0  0  0
  183.5190  175.1950  137.7130 C   0  0  1  0  0  3  0  0  0  0  0  0
  186.8330  176.3870  135.6020 O   0  0  0  0  0  0  0  0  0  0  0  0
  182.0410  175.2530  138.1170 C   0  0  0  0  0  2  0  0  0  0  0  0
  185.4590  179.1290  138.3420 C   0  0  0  0  0  2  0  0  0  0  0  0
  184.4960  178.5940  139.4080 C   0  0  2  0  0  3  0  0  0  0  0  0
  187.4080  178.4050  136.8730 C   0  0  2  0  0  3  0  0  0  0  0  0
  181.8660  175.8720  139.4680 C   0  0  0  0  0  3  0  0  0  0  0  0
  189.2890  176.7530  138.2000 C   0  0  0  0  0  2  0  0  0  0  0  0
  188.5400  179.0240  137.6530 C   0  0  0  0  0  3  0  0  0  0  0  0
  184.9300  179.1800  143.2770 C   0  0  1  0  0  3  0  0  0  0  0  0
  188.0830  177.8780  144.1690 F   0  0  0  0  0  0  0  0  0  0  0  0
  183.9500  179.6880  144.3280 C   0  0  0  0  0  1  0  0  0  0  0  0
  187.3730  178.0830  141.9820 C   0  0  0  0  0  3  0  0  0  0  0  0
  185.1440  178.5310  140.7720 C   0  0  0  0  0  0  0  0  0  0  0  0
  185.6750  177.9780  143.8040 C   0  0  0  0  0  2  0  0  0  0  0  0
  186.4610  178.2460  140.8260 C   0  0  0  0  0  3  0  0  0  0  0  0
  184.2990  178.8110  141.9620 C   0  0  0  0  0  0  0  0  0  0  0  0
  182.9790  178.6280  141.8760 C   0  0  0  0  0  2  0  0  0  0  0  0
  187.0690  177.9840  143.2780 C   0  0  0  0  0  0  0  0  0  0  0  0
  183.6040  174.7750  136.2490 C   0  0  0  0  0  2  0  0  0  0  0  0
  183.4890  172.7010  135.0830 O   0  0  0  0  0  0  0  0  0  0  0  0
  184.4340  172.6100  137.1710 O   0  0  0  0  0  1  0  0  0  0  0  0
  183.8270  173.3070  136.1330 C   0  0  0  0  0  0  0  0  0  0  0  0
  1 14  1  0  0  0  0
  1  3  1  0  0  0  0
  2  5  1  1  0  0  0
  2  7  1  0  0  0  0
  2  4  1  0  0  0  0
  4  1  2  0  0  0  0
  7 13  1  6  0  0  0
  8 17  1  0  0  0  0
  9  8  1  1  0  0  0
  9 15  1  0  0  0  0
 10 29  1  6  0  0  0
 10  4  1  0  0  0  0
 10 12  1  0  0  0  0
 11  9  1  0  0  0  0
 11  5  1  0  0  0  0
 12 16  1  0  0  0  0
 13 14  1  0  0  0  0
 14 23  1  1  0  0  0
 15 18  1  1  0  0  0
 15  7  1  0  0  0  0
 16  3  2  0  0  0  0
 17  6  1  0  0  0  0
 18  6  2  0  0  0  0
 19 24  1  0  0  0  0
 19 21  1  1  0  0  0
 22 28  2  0  0  0  0
 23 25  2  0  0  0  0
 23 26  1  0  0  0  0
 25 22  1  0  0  0  0
 26 19  1  0  0  0  0
 27 26  2  0  0  0  0
 28 24  1  0  0  0  0
 28 20  1  0  0  0  0
 30 32  2  0  0  0  0
 32 29  1  0  0  0  0
 32 31  1  0  0  0  0
M  END
>  <MODEL>
6

>  <REMARK>
 VINA RESULT:      -5.8      3.516      7.538
  Name = 
  3 active torsions:
  status: ('A' for Active; 'I' for Inactive)
    1  A    between atoms: C_14  and  C_18
    2  A    between atoms: C_16  and  C_27
    3  A    between atoms: C_18  and  C_29
                            x       y       z     vdW  Elec       q    Type
                         _______ _______ _______ _____ _____    ______ ____

>  <TORSDO>
F 3

$$$$
=
 OpenBabel11052414413D

 32 36  0  0  1  0  0  0  0  0999 V2000
  184.9780  177.8230  137.7770 C   0  0  0  0  0  0  0  0  0  0  0  0
  186.7600  178.3890  139.4340 C   0  0  2  0  0  3  0  0  0  0  0  0
  184.5060  177.1430  136.5520 C   0  0  0  0  0  3  0  0  0  0  0  0
  186.2610  177.6560  138.1980 C   0  0  0  0  0  0  0  0  0  0  0  0
  187.6780  177.6260  140.1740 O   0  0  0  0  0  0  0  0  0  0  0  0
  185.0550  178.3890  143.5010 C   0  0  0  0  0  3  0  0  0  0  0  0
  185.6250  178.7480  140.3830 C   0  0  2  0  0  3  0  0  0  0  0  0
  187.3640  177.5960  143.0030 C   0  0  0  0  0  2  0  0  0  0  0  0
  187.5160  178.8050  142.0500 C   0  0  1  0  0  3  0  0  0  0  0  0
  187.1980  176.7590  137.3920 C   0  0  1  0  0  3  0  0  0  0  0  0
  188.3360  178.4980  140.9350 O   0  0  0  0  0  0  0  0  0  0  0  0
  186.8400  176.7620  135.9010 C   0  0  0  0  0  2  0  0  0  0  0  0
  184.5800  179.5470  139.6290 C   0  0  0  0  0  2  0  0  0  0  0  0
  183.9630  178.6470  138.5520 C   0  0  2  0  0  3  0  0  0  0  0  0
  186.1890  179.4810  141.6000 C   0  0  2  0  0  3  0  0  0  0  0  0
  185.3670  176.6030  135.6910 C   0  0  0  0  0  3  0  0  0  0  0  0
  185.9060  177.1820  143.2320 C   0  0  0  0  0  2  0  0  0  0  0  0
  185.1880  179.4730  142.7270 C   0  0  0  0  0  3  0  0  0  0  0  0
  180.6410  177.8220  140.4990 C   0  0  1  0  0  3  0  0  0  0  0  0
  180.1630  174.3350  140.2920 F   0  0  0  0  0  0  0  0  0  0  0  0
  179.5860  178.7380  141.1100 C   0  0  0  0  0  1  0  0  0  0  0  0
  182.0900  175.3920  139.5820 C   0  0  0  0  0  3  0  0  0  0  0  0
  182.8280  177.8110  139.0990 C   0  0  0  0  0  0  0  0  0  0  0  0
  179.9750  176.7020  139.7390 C   0  0  0  0  0  2  0  0  0  0  0  0
  183.0000  176.4750  139.1410 C   0  0  0  0  0  3  0  0  0  0  0  0
  181.6090  178.5150  139.5770 C   0  0  0  0  0  0  0  0  0  0  0  0
  181.3310  179.7280  139.0960 C   0  0  0  0  0  2  0  0  0  0  0  0
  180.7870  175.4600  139.8670 C   0  0  0  0  0  0  0  0  0  0  0  0
  188.6640  177.1550  137.5380 C   0  0  0  0  0  2  0  0  0  0  0  0
  189.4810  174.9610  137.0970 O   0  0  0  0  0  0  0  0  0  0  0  0
  190.3360  175.9770  138.9670 O   0  0  0  0  0  1  0  0  0  0  0  0
  189.5040  175.9660  137.8540 C   0  0  0  0  0  0  0  0  0  0  0  0
  1  4  2  0  0  0  0
  1 14  1  0  0  0  0
  2  4  1  6  0  0  0
  2  5  1  0  0  0  0
  2  7  1  0  0  0  0
  3  1  1  0  0  0  0
  5 11  1  0  0  0  0
  7 13  1  6  0  0  0
  7 15  1  0  0  0  0
  8 17  1  0  0  0  0
  9  8  1  6  0  0  0
 10 29  1  6  0  0  0
 10  4  1  0  0  0  0
 11  9  1  0  0  0  0
 12 10  1  0  0  0  0
 14 23  1  1  0  0  0
 14 13  1  0  0  0  0
 15  9  1  0  0  0  0
 15 18  1  1  0  0  0
 16 12  1  0  0  0  0
 16  3  2  0  0  0  0
 17  6  1  0  0  0  0
 18  6  2  0  0  0  0
 19 21  1  6  0  0  0
 22 28  2  0  0  0  0
 23 25  2  0  0  0  0
 23 26  1  0  0  0  0
 24 28  1  0  0  0  0
 24 19  1  0  0  0  0
 25 22  1  0  0  0  0
 26 19  1  0  0  0  0
 27 26  2  0  0  0  0
 28 20  1  0  0  0  0
 29 32  1  0  0  0  0
 30 32  2  0  0  0  0
 32 31  1  0  0  0  0
M  END
>  <MODEL>
7

>  <REMARK>
 VINA RESULT:      -5.5      3.506      7.940
  Name = 
  3 active torsions:
  status: ('A' for Active; 'I' for Inactive)
    1  A    between atoms: C_14  and  C_18
    2  A    between atoms: C_16  and  C_27
    3  A    between atoms: C_18  and  C_29
                            x       y       z     vdW  Elec       q    Type
                         _______ _______ _______ _____ _____    ______ ____

>  <TORSDO>
F 3

$$$$
=
 OpenBabel11052414413D

 32 36  0  0  1  0  0  0  0  0999 V2000
  183.2270  178.0130  138.9070 C   0  0  0  0  0  0  0  0  0  0  0  0
  182.6340  175.9120  137.6920 C   0  0  2  0  0  3  0  0  0  0  0  0
  182.9950  179.0120  139.9710 C   0  0  0  0  0  3  0  0  0  0  0  0
  182.4240  176.9180  138.8130 C   0  0  0  0  0  0  0  0  0  0  0  0
  182.3700  174.5940  138.1000 O   0  0  0  0  0  0  0  0  0  0  0  0
  186.3160  173.7400  136.6070 C   0  0  0  0  0  3  0  0  0  0  0  0
  184.0640  175.9280  137.1690 C   0  0  2  0  0  3  0  0  0  0  0  0
  184.2170  172.5840  137.2900 C   0  0  0  0  0  2  0  0  0  0  0  0
  183.4380  173.6020  136.4240 C   0  0  1  0  0  3  0  0  0  0  0  0
  181.2900  176.7370  139.8200 C   0  0  1  0  0  3  0  0  0  0  0  0
  182.1690  173.9060  136.9780 O   0  0  0  0  0  0  0  0  0  0  0  0
  180.7480  178.0860  140.3090 C   0  0  0  0  0  2  0  0  0  0  0  0
  184.4220  177.3390  136.7440 C   0  0  0  0  0  2  0  0  0  0  0  0
  184.4140  178.2380  137.9850 C   0  0  2  0  0  3  0  0  0  0  0  0
  184.2100  174.9000  136.0480 C   0  0  2  0  0  3  0  0  0  0  0  0
  181.8580  179.0260  140.6640 C   0  0  0  0  0  3  0  0  0  0  0  0
  185.5850  173.1000  137.7510 C   0  0  0  0  0  2  0  0  0  0  0  0
  185.6660  174.5920  135.8050 C   0  0  0  0  0  3  0  0  0  0  0  0
  188.2140  177.4270  138.6250 C   0  0  1  0  0  3  0  0  0  0  0  0
  188.9700  178.5380  141.8850 F   0  0  0  0  0  0  0  0  0  0  0  0
  189.2980  176.9090  137.6870 C   0  0  0  0  0  1  0  0  0  0  0  0
  186.8240  178.4820  141.0340 C   0  0  0  0  0  3  0  0  0  0  0  0
  185.7360  178.1990  138.7170 C   0  0  0  0  0  0  0  0  0  0  0  0
  188.7530  178.5650  139.4570 C   0  0  0  0  0  2  0  0  0  0  0  0
  185.7210  178.4210  140.0470 C   0  0  0  0  0  3  0  0  0  0  0  0
  186.9610  177.8940  137.9330 C   0  0  0  0  0  0  0  0  0  0  0  0
  186.9680  178.1400  136.6210 C   0  0  0  0  0  2  0  0  0  0  0  0
  188.1400  178.5250  140.8150 C   0  0  0  0  0  0  0  0  0  0  0  0
  180.1280  175.9240  139.2600 C   0  0  0  0  0  2  0  0  0  0  0  0
  179.7130  173.7110  140.0390 O   0  0  0  0  0  0  0  0  0  0  0  0
  179.1110  175.3940  141.4760 O   0  0  0  0  0  1  0  0  0  0  0  0
  179.6330  174.9460  140.2690 C   0  0  0  0  0  0  0  0  0  0  0  0
  1  3  1  0  0  0  0
  2  5  1  1  0  0  0
  2  4  1  0  0  0  0
  3 16  2  0  0  0  0
  4  1  2  0  0  0  0
  4 10  1  0  0  0  0
  6 17  1  0  0  0  0
  7 13  1  6  0  0  0
  7  2  1  0  0  0  0
  8 17  1  0  0  0  0
  9 11  1  0  0  0  0
  9  8  1  1  0  0  0
 10 29  1  6  0  0  0
 10 12  1  0  0  0  0
 11  5  1  0  0  0  0
 12 16  1  0  0  0  0
 13 14  1  0  0  0  0
 14 23  1  1  0  0  0
 14  1  1  0  0  0  0
 15 18  1  1  0  0  0
 15  9  1  0  0  0  0
 15  7  1  0  0  0  0
 18  6  2  0  0  0  0
 19 21  1  6  0  0  0
 19 24  1  0  0  0  0
 23 25  2  0  0  0  0
 24 28  1  0  0  0  0
 25 22  1  0  0  0  0
 26 19  1  0  0  0  0
 26 23  1  0  0  0  0
 27 26  2  0  0  0  0
 28 22  2  0  0  0  0
 28 20  1  0  0  0  0
 29 32  1  0  0  0  0
 30 32  2  0  0  0  0
 32 31  1  0  0  0  0
M  END
>  <MODEL>
8

>  <REMARK>
 VINA RESULT:      -5.5      3.873      6.562
  Name = 
  3 active torsions:
  status: ('A' for Active; 'I' for Inactive)
    1  A    between atoms: C_14  and  C_18
    2  A    between atoms: C_16  and  C_27
    3  A    between atoms: C_18  and  C_29
                            x       y       z     vdW  Elec       q    Type
                         _______ _______ _______ _____ _____    ______ ____

>  <TORSDO>
F 3

$$$$
=
 OpenBabel11052414413D

 32 36  0  0  1  0  0  0  0  0999 V2000
  183.8850  178.6650  140.2340 C   0  0  0  0  0  0  0  0  0  0  0  0
  181.5720  179.3620  139.5990 C   0  0  2  0  0  3  0  0  0  0  0  0
  184.8760  178.1830  141.2180 C   0  0  0  0  0  3  0  0  0  0  0  0
  182.5830  178.8240  140.5990 C   0  0  0  0  0  0  0  0  0  0  0  0
  180.3020  178.7820  139.7580 O   0  0  0  0  0  0  0  0  0  0  0  0
  180.6220  177.8460  135.5690 C   0  0  0  0  0  3  0  0  0  0  0  0
  181.9940  179.1010  138.1600 C   0  0  2  0  0  3  0  0  0  0  0  0
  178.9320  177.9800  137.3950 C   0  0  0  0  0  2  0  0  0  0  0  0
  179.5180  179.3630  137.7630 C   0  0  1  0  0  3  0  0  0  0  0  0
  182.1660  178.4950  142.0300 C   0  0  1  0  0  3  0  0  0  0  0  0
  179.4520  179.6110  139.1580 O   0  0  0  0  0  0  0  0  0  0  0  0
  183.3100  178.7380  143.0230 C   0  0  0  0  0  2  0  0  0  0  0  0
  183.3780  179.6770  137.9360 C   0  0  0  0  0  2  0  0  0  0  0  0
  184.3730  178.9100  138.8160 C   0  0  2  0  0  3  0  0  0  0  0  0
  180.9390  179.6640  137.2070 C   0  0  2  0  0  3  0  0  0  0  0  0
  184.6010  178.1700  142.5210 C   0  0  0  0  0  3  0  0  0  0  0  0
  179.9240  177.0770  136.6530 C   0  0  0  0  0  2  0  0  0  0  0  0
  181.1030  179.0670  135.8330 C   0  0  0  0  0  3  0  0  0  0  0  0
  186.7240  176.5960  136.6650 C   0  0  1  0  0  3  0  0  0  0  0  0
  185.1780  173.4320  136.4930 F   0  0  0  0  0  0  0  0  0  0  0  0
  188.1240  176.8320  136.1120 C   0  0  0  0  0  1  0  0  0  0  0  0
  184.1460  175.2970  137.3830 C   0  0  0  0  0  3  0  0  0  0  0  0
  184.8650  177.6490  138.1420 C   0  0  0  0  0  0  0  0  0  0  0  0
  186.6360  175.2210  137.2790 C   0  0  0  0  0  2  0  0  0  0  0  0
  183.9810  176.6470  137.9690 C   0  0  0  0  0  3  0  0  0  0  0  0
  186.2810  177.6050  137.6910 C   0  0  0  0  0  0  0  0  0  0  0  0
  187.1740  178.4000  138.2840 C   0  0  0  0  0  2  0  0  0  0  0  0
  185.2740  174.6600  137.0560 C   0  0  0  0  0  0  0  0  0  0  0  0
  180.9500  179.2940  142.4890 C   0  0  0  0  0  2  0  0  0  0  0  0
  179.3680  177.5150  142.5550 O   0  0  0  0  0  0  0  0  0  0  0  0
  179.7550  178.5680  144.5550 O   0  0  0  0  0  1  0  0  0  0  0  0
  179.9750  178.4150  143.1910 C   0  0  0  0  0  0  0  0  0  0  0  0
  1  4  2  0  0  0  0
  1  3  1  0  0  0  0
  2  5  1  1  0  0  0
  2  4  1  0  0  0  0
  3 16  2  0  0  0  0
  4 10  1  0  0  0  0
  6 18  2  0  0  0  0
  6 17  1  0  0  0  0
  7 13  1  6  0  0  0
  7  2  1  0  0  0  0
  9  8  1  1  0  0  0
  9 11  1  0  0  0  0
 10 29  1  1  0  0  0
 10 12  1  0  0  0  0
 11  5  1  0  0  0  0
 13 14  1  0  0  0  0
 14 23  1  6  0  0  0
 14  1  1  0  0  0  0
 15 18  1  6  0  0  0
 15  9  1  0  0  0  0
 15  7  1  0  0  0  0
 16 12  1  0  0  0  0
 17  8  1  0  0  0  0
 19 21  1  1  0  0  0
 19 24  1  0  0  0  0
 19 26  1  0  0  0  0
 20 28  1  0  0  0  0
 22 25  1  0  0  0  0
 25 23  2  0  0  0  0
 26 23  1  0  0  0  0
 26 27  2  0  0  0  0
 28 24  1  0  0  0  0
 28 22  2  0  0  0  0
 29 32  1  0  0  0  0
 30 32  2  0  0  0  0
 32 31  1  0  0  0  0
M  END
>  <MODEL>
9

>  <REMARK>
 VINA RESULT:      -5.5      4.071      6.155
  Name = 
  3 active torsions:
  status: ('A' for Active; 'I' for Inactive)
    1  A    between atoms: C_14  and  C_18
    2  A    between atoms: C_16  and  C_27
    3  A    between atoms: C_18  and  C_29
                            x       y       z     vdW  Elec       q    Type
                         _______ _______ _______ _____ _____    ______ ____

>  <TORSDO>
F 3

$$$$
