=
 OpenBabel11052412363D

 30 30  0  0  1  0  0  0  0  0999 V2000
  188.2130  178.4070  139.8210 C   0  0  0  0  0  0  0  0  0  0  0  0
  184.9370  177.7840  138.6700 C   0  0  0  0  0  2  0  0  0  0  0  0
  184.6280  178.7060  139.8490 C   0  0  1  0  0  3  0  0  0  0  0  0
  187.5900  177.3200  139.2120 O   0  0  0  0  0  0  0  0  0  0  0  0
  188.8850  179.2270  139.1400 O   0  0  0  0  0  0  0  0  0  0  0  0
  185.9620  178.2980  137.8490 O   0  0  0  0  0  0  0  0  0  0  0  0
  187.0720  177.4240  137.8910 C   0  0  2  0  0  3  0  0  0  0  0  0
  187.9710  178.6800  141.2710 C   0  0  1  0  0  3  0  0  0  0  0  0
  185.4410  178.3390  141.0990 C   0  0  1  0  0  3  0  0  0  0  0  0
  184.7460  180.0550  139.5000 O   0  0  0  0  0  1  0  0  0  0  0  0
  186.7710  176.0490  137.3070 C   0  0  0  0  0  1  0  0  0  0  0  0
  186.5810  179.3090  141.4370 C   0  0  0  0  0  2  0  0  0  0  0  0
  188.1800  177.4340  142.1460 C   0  0  1  0  0  3  0  0  0  0  0  0
  189.4730  176.7180  141.7670 C   0  0  0  0  0  1  0  0  0  0  0  0
  188.1480  177.7810  143.6430 C   0  0  1  0  0  3  0  0  0  0  0  0
  187.3330  176.7820  144.4640 C   0  0  0  0  0  2  0  0  0  0  0  0
  186.4070  177.4650  145.4570 C   0  0  0  0  0  2  0  0  0  0  0  0
  185.5070  179.3160  146.0540 O   0  0  0  0  0  1  0  0  0  0  0  0
  186.2090  178.7900  145.0740 O   0  0  0  0  0  0  0  0  0  0  0  0
  189.4340  177.9630  144.1740 O   0  0  0  0  0  0  0  0  0  0  0  0
  189.4360  177.2670  145.3390 N   0  0  0  0  0  2  0  0  0  0  0  0
  191.7430  177.4600  145.6300 O   0  0  0  0  0  0  0  0  0  0  0  0
  190.5880  176.4050  147.3040 O   0  0  0  0  0  1  0  0  0  0  0  0
  190.6370  177.0590  146.0800 C   0  0  0  0  0  0  0  0  0  0  0  0
  184.5410  178.0760  142.3090 C   0  0  0  0  0  2  0  0  0  0  0  0
  182.3890  178.9470  143.1590 C   0  0  0  0  0  3  0  0  0  0  0  0
  183.1350  178.5640  142.1190 C   0  0  0  0  0  3  0  0  0  0  0  0
  180.9790  179.4290  142.9960 C   0  0  0  0  0  3  0  0  0  0  0  0
  180.0120  178.5740  143.7960 C   0  0  0  0  0  1  0  0  0  0  0  0
  180.5700  179.4520  141.5350 C   0  0  0  0  0  1  0  0  0  0  0  0
  1  8  1  0  0  0  0
  2  3  1  0  0  0  0
  3 10  1  6  0  0  0
  3  9  1  0  0  0  0
  4  1  1  0  0  0  0
  5  1  2  0  0  0  0
  6  7  1  0  0  0  0
  6  2  1  0  0  0  0
  7 11  1  1  0  0  0
  7  4  1  0  0  0  0
  8 12  1  0  0  0  0
  8 13  1  1  0  0  0
  9 12  1  0  0  0  0
  9 25  1  1  0  0  0
 13 14  1  6  0  0  0
 13 15  1  0  0  0  0
 15 20  1  0  0  0  0
 15 16  1  1  0  0  0
 16 17  1  0  0  0  0
 19 17  1  0  0  0  0
 19 18  1  0  0  0  0
 20 21  1  0  0  0  0
 21 24  1  0  0  0  0
 22 24  2  0  0  0  0
 24 23  1  0  0  0  0
 27 25  1  0  0  0  0
 27 26  2  0  0  0  0
 28 26  1  0  0  0  0
 28 29  1  0  0  0  0
 30 28  1  0  0  0  0
M  END
>  <MODEL>
1

>  <REMARK>
 VINA RESULT:      -6.9      0.000      0.000
  Name = 
  10 active torsions:
  status: ('A' for Active; 'I' for Inactive)
    1  A    between atoms: C_1  and  C_4
    2  A    between atoms: C_1  and  C_22
    3  A    between atoms: C_4  and  C_9
    4  A    between atoms: C_4  and  O_12
    5  A    between atoms: C_7  and  C_23
    6  A    between atoms: C_7  and  C_25
    7  A    between atoms: N_8  and  O_12
    8  A    between atoms: C_9  and  C_21
    9  A    between atoms: C_10  and  C_15
   10  A    between atoms: O_17  and  C_21
                            x       y       z     vdW  Elec       q    Type
                         _______ _______ _______ _____ _____    ______ ____

>  <TORSDO>
F 10

$$$$
=
 OpenBabel11052412363D

 30 30  0  0  1  0  0  0  0  0999 V2000
  191.4380  177.7160  141.9640 C   0  0  0  0  0  0  0  0  0  0  0  0
  188.8490  177.2120  139.6200 C   0  0  0  0  0  2  0  0  0  0  0  0
  188.0730  177.9470  140.7120 C   0  0  1  0  0  3  0  0  0  0  0  0
  191.1530  176.7190  141.0330 O   0  0  0  0  0  0  0  0  0  0  0  0
  192.2520  178.6370  141.6890 O   0  0  0  0  0  0  0  0  0  0  0  0
  190.0640  177.8570  139.3060 O   0  0  0  0  0  0  0  0  0  0  0  0
  191.1410  177.0050  139.6410 C   0  0  2  0  0  3  0  0  0  0  0  0
  190.6700  177.7710  143.2460 C   0  0  1  0  0  3  0  0  0  0  0  0
  188.4030  177.4160  142.1150 C   0  0  1  0  0  3  0  0  0  0  0  0
  188.2160  179.3340  140.6080 O   0  0  0  0  0  1  0  0  0  0  0  0
  191.1670  175.7250  138.8130 C   0  0  0  0  0  1  0  0  0  0  0  0
  189.2750  178.3460  142.9700 C   0  0  0  0  0  2  0  0  0  0  0  0
  190.6350  176.4140  143.9680 C   0  0  1  0  0  3  0  0  0  0  0  0
  191.8970  175.6110  143.6700 C   0  0  0  0  0  1  0  0  0  0  0  0
  190.4190  176.5820  145.4800 C   0  0  1  0  0  3  0  0  0  0  0  0
  191.7300  176.7110  146.2530 C   0  0  0  0  0  2  0  0  0  0  0  0
  191.8770  175.6490  147.3310 C   0  0  0  0  0  2  0  0  0  0  0  0
  192.5180  177.1710  148.6970 O   0  0  0  0  0  1  0  0  0  0  0  0
  192.8990  176.0110  148.2060 O   0  0  0  0  0  0  0  0  0  0  0  0
  189.5350  177.6300  145.7780 O   0  0  0  0  0  0  0  0  0  0  0  0
  188.6710  177.1150  146.6880 N   0  0  0  0  0  2  0  0  0  0  0  0
  189.4920  178.4210  148.4390 O   0  0  0  0  0  0  0  0  0  0  0  0
  187.7050  177.0720  148.9230 O   0  0  0  0  0  1  0  0  0  0  0  0
  188.6520  177.5720  148.0390 C   0  0  0  0  0  0  0  0  0  0  0  0
  187.1470  176.9640  142.8650 C   0  0  0  0  0  2  0  0  0  0  0  0
  185.9130  177.9040  144.7890 C   0  0  0  0  0  3  0  0  0  0  0  0
  186.4490  178.0840  143.5790 C   0  0  0  0  0  3  0  0  0  0  0  0
  185.2010  179.0040  145.5190 C   0  0  0  0  0  3  0  0  0  0  0  0
  185.3340  178.8380  147.0230 C   0  0  0  0  0  1  0  0  0  0  0  0
  183.7360  179.0660  145.1270 C   0  0  0  0  0  1  0  0  0  0  0  0
  1  8  1  0  0  0  0
  2  3  1  0  0  0  0
  3 10  1  1  0  0  0
  3  9  1  0  0  0  0
  4  1  1  0  0  0  0
  5  1  2  0  0  0  0
  6  2  1  0  0  0  0
  6  7  1  0  0  0  0
  7 11  1  6  0  0  0
  7  4  1  0  0  0  0
  8 13  1  6  0  0  0
  9 25  1  1  0  0  0
  9 12  1  0  0  0  0
 12  8  1  0  0  0  0
 13 14  1  1  0  0  0
 13 15  1  0  0  0  0
 15 20  1  0  0  0  0
 15 16  1  1  0  0  0
 16 17  1  0  0  0  0
 17 19  1  0  0  0  0
 19 18  1  0  0  0  0
 20 21  1  0  0  0  0
 21 24  1  0  0  0  0
 24 22  2  0  0  0  0
 24 23  1  0  0  0  0
 25 27  1  0  0  0  0
 26 28  1  0  0  0  0
 27 26  2  0  0  0  0
 28 29  1  0  0  0  0
 30 28  1  0  0  0  0
M  END
>  <MODEL>
2

>  <REMARK>
 VINA RESULT:      -6.7      2.712      4.333
  Name = 
  10 active torsions:
  status: ('A' for Active; 'I' for Inactive)
    1  A    between atoms: C_1  and  C_4
    2  A    between atoms: C_1  and  C_22
    3  A    between atoms: C_4  and  C_9
    4  A    between atoms: C_4  and  O_12
    5  A    between atoms: C_7  and  C_23
    6  A    between atoms: C_7  and  C_25
    7  A    between atoms: N_8  and  O_12
    8  A    between atoms: C_9  and  C_21
    9  A    between atoms: C_10  and  C_15
   10  A    between atoms: O_17  and  C_21
                            x       y       z     vdW  Elec       q    Type
                         _______ _______ _______ _____ _____    ______ ____

>  <TORSDO>
F 10

$$$$
=
 OpenBabel11052412363D

 30 30  0  0  1  0  0  0  0  0999 V2000
  190.8410  177.1670  140.9850 C   0  0  0  0  0  0  0  0  0  0  0  0
  188.9190  177.2630  138.0270 C   0  0  0  0  0  2  0  0  0  0  0  0
  188.2760  178.4180  138.7940 C   0  0  1  0  0  3  0  0  0  0  0  0
  190.4030  176.2000  140.0800 O   0  0  0  0  0  0  0  0  0  0  0  0
  192.0010  177.6490  140.8970 O   0  0  0  0  0  0  0  0  0  0  0  0
  190.3270  177.3360  138.0380 O   0  0  0  0  0  0  0  0  0  0  0  0
  190.8440  176.2160  138.7290 C   0  0  2  0  0  3  0  0  0  0  0  0
  189.8810  177.7350  141.9800 C   0  0  1  0  0  3  0  0  0  0  0  0
  188.0120  178.0630  140.2640 C   0  0  1  0  0  3  0  0  0  0  0  0
  188.9970  179.6070  138.6420 O   0  0  0  0  0  1  0  0  0  0  0  0
  190.5380  174.8950  138.0330 C   0  0  0  0  0  1  0  0  0  0  0  0
  188.9560  178.7330  141.2710 C   0  0  0  0  0  2  0  0  0  0  0  0
  189.1190  176.6440  142.7500 C   0  0  1  0  0  3  0  0  0  0  0  0
  190.0080  175.4260  142.9830 C   0  0  0  0  0  1  0  0  0  0  0  0
  188.5430  177.1800  144.0700 C   0  0  1  0  0  3  0  0  0  0  0  0
  189.5460  178.0280  144.8520 C   0  0  0  0  0  2  0  0  0  0  0  0
  190.0580  177.3220  146.0960 C   0  0  0  0  0  2  0  0  0  0  0  0
  191.9320  176.9220  147.0560 O   0  0  0  0  0  1  0  0  0  0  0  0
  191.3570  176.8690  145.8740 O   0  0  0  0  0  0  0  0  0  0  0  0
  187.3260  177.8540  143.8850 O   0  0  0  0  0  0  0  0  0  0  0  0
  186.7880  177.9570  145.1250 N   0  0  0  0  0  2  0  0  0  0  0  0
  185.0760  179.3830  144.4340 O   0  0  0  0  0  0  0  0  0  0  0  0
  185.0460  178.7450  146.6350 O   0  0  0  0  0  1  0  0  0  0  0  0
  185.6080  178.7220  145.3650 C   0  0  0  0  0  0  0  0  0  0  0  0
  186.5420  178.2590  140.6440 C   0  0  0  0  0  2  0  0  0  0  0  0
  184.4120  178.9780  139.6180 C   0  0  0  0  0  3  0  0  0  0  0  0
  185.6530  178.5120  139.4620 C   0  0  0  0  0  3  0  0  0  0  0  0
  183.5000  179.2300  138.4540 C   0  0  0  0  0  3  0  0  0  0  0  0
  182.2280  179.9310  138.8950 C   0  0  0  0  0  1  0  0  0  0  0  0
  183.1620  177.9380  137.7310 C   0  0  0  0  0  1  0  0  0  0  0  0
  1  8  1  0  0  0  0
  2  6  1  0  0  0  0
  2  3  1  0  0  0  0
  3 10  1  1  0  0  0
  3  9  1  0  0  0  0
  4  1  1  0  0  0  0
  5  1  2  0  0  0  0
  6  7  1  0  0  0  0
  7 11  1  6  0  0  0
  7  4  1  0  0  0  0
  8 13  1  6  0  0  0
  9 25  1  1  0  0  0
  9 12  1  0  0  0  0
 12  8  1  0  0  0  0
 13 14  1  1  0  0  0
 13 15  1  0  0  0  0
 15 16  1  6  0  0  0
 16 17  1  0  0  0  0
 19 17  1  0  0  0  0
 19 18  1  0  0  0  0
 20 15  1  0  0  0  0
 20 21  1  0  0  0  0
 21 24  1  0  0  0  0
 22 24  2  0  0  0  0
 24 23  1  0  0  0  0
 27 26  2  0  0  0  0
 27 25  1  0  0  0  0
 28 29  1  0  0  0  0
 28 26  1  0  0  0  0
 30 28  1  0  0  0  0
M  END
>  <MODEL>
3

>  <REMARK>
 VINA RESULT:      -6.4      2.380      4.107
  Name = 
  10 active torsions:
  status: ('A' for Active; 'I' for Inactive)
    1  A    between atoms: C_1  and  C_4
    2  A    between atoms: C_1  and  C_22
    3  A    between atoms: C_4  and  C_9
    4  A    between atoms: C_4  and  O_12
    5  A    between atoms: C_7  and  C_23
    6  A    between atoms: C_7  and  C_25
    7  A    between atoms: N_8  and  O_12
    8  A    between atoms: C_9  and  C_21
    9  A    between atoms: C_10  and  C_15
   10  A    between atoms: O_17  and  C_21
                            x       y       z     vdW  Elec       q    Type
                         _______ _______ _______ _____ _____    ______ ____

>  <TORSDO>
F 10

$$$$
=
 OpenBabel11052412363D

 30 30  0  0  1  0  0  0  0  0999 V2000
  190.9130  177.1390  140.5570 C   0  0  0  0  0  0  0  0  0  0  0  0
  188.7270  177.1670  137.7880 C   0  0  0  0  0  2  0  0  0  0  0  0
  188.2030  178.3860  138.5470 C   0  0  1  0  0  3  0  0  0  0  0  0
  190.3570  176.1470  139.7500 O   0  0  0  0  0  0  0  0  0  0  0  0
  192.0780  177.5660  140.3370 O   0  0  0  0  0  0  0  0  0  0  0  0
  190.1320  177.1810  137.6660 O   0  0  0  0  0  0  0  0  0  0  0  0
  190.6690  176.0760  138.3650 C   0  0  2  0  0  3  0  0  0  0  0  0
  190.0740  177.7960  141.6040 C   0  0  1  0  0  3  0  0  0  0  0  0
  188.0650  178.1160  140.0520 C   0  0  1  0  0  3  0  0  0  0  0  0
  188.9510  179.5340  138.2660 O   0  0  0  0  0  1  0  0  0  0  0  0
  190.2500  174.7360  137.7720 C   0  0  0  0  0  1  0  0  0  0  0  0
  189.1240  178.7950  140.9310 C   0  0  0  0  0  2  0  0  0  0  0  0
  189.3470  176.7780  142.4980 C   0  0  1  0  0  3  0  0  0  0  0  0
  190.2700  175.6180  142.8580 C   0  0  0  0  0  1  0  0  0  0  0  0
  188.7640  177.4430  143.7550 C   0  0  1  0  0  3  0  0  0  0  0  0
  187.4000  176.8760  144.1460 C   0  0  0  0  0  2  0  0  0  0  0  0
  186.2870  177.9040  144.0260 C   0  0  0  0  0  2  0  0  0  0  0  0
  185.5220  179.2890  145.4720 O   0  0  0  0  0  1  0  0  0  0  0  0
  185.6060  177.9970  145.2380 O   0  0  0  0  0  0  0  0  0  0  0  0
  189.6620  177.4230  144.8330 O   0  0  0  0  0  0  0  0  0  0  0  0
  188.9320  177.8120  145.9080 N   0  0  0  0  0  2  0  0  0  0  0  0
  190.2870  176.6800  147.4340 O   0  0  0  0  0  0  0  0  0  0  0  0
  188.5720  177.9190  148.3140 O   0  0  0  0  0  1  0  0  0  0  0  0
  189.3030  177.4420  147.2350 C   0  0  0  0  0  0  0  0  0  0  0  0
  186.6460  178.3930  140.5540 C   0  0  0  0  0  2  0  0  0  0  0  0
  184.4020  178.9810  139.7010 C   0  0  0  0  0  3  0  0  0  0  0  0
  185.6540  178.5920  139.4460 C   0  0  0  0  0  3  0  0  0  0  0  0
  183.3890  179.1780  138.6130 C   0  0  0  0  0  3  0  0  0  0  0  0
  182.0620  179.6530  139.1790 C   0  0  0  0  0  1  0  0  0  0  0  0
  183.1900  177.9050  137.8110 C   0  0  0  0  0  1  0  0  0  0  0  0
  1  8  1  0  0  0  0
  2  3  1  0  0  0  0
  3 10  1  1  0  0  0
  3  9  1  0  0  0  0
  4  1  1  0  0  0  0
  5  1  2  0  0  0  0
  6  2  1  0  0  0  0
  6  7  1  0  0  0  0
  7 11  1  6  0  0  0
  7  4  1  0  0  0  0
  8 13  1  6  0  0  0
  9 25  1  1  0  0  0
  9 12  1  0  0  0  0
 12  8  1  0  0  0  0
 13 14  1  1  0  0  0
 13 15  1  0  0  0  0
 15 16  1  1  0  0  0
 15 20  1  0  0  0  0
 17 16  1  0  0  0  0
 17 19  1  0  0  0  0
 19 18  1  0  0  0  0
 20 21  1  0  0  0  0
 21 24  1  0  0  0  0
 24 22  2  0  0  0  0
 24 23  1  0  0  0  0
 27 26  2  0  0  0  0
 27 25  1  0  0  0  0
 28 29  1  0  0  0  0
 28 26  1  0  0  0  0
 30 28  1  0  0  0  0
M  END
>  <MODEL>
4

>  <REMARK>
 VINA RESULT:      -6.4      2.237      3.110
  Name = 
  10 active torsions:
  status: ('A' for Active; 'I' for Inactive)
    1  A    between atoms: C_1  and  C_4
    2  A    between atoms: C_1  and  C_22
    3  A    between atoms: C_4  and  C_9
    4  A    between atoms: C_4  and  O_12
    5  A    between atoms: C_7  and  C_23
    6  A    between atoms: C_7  and  C_25
    7  A    between atoms: N_8  and  O_12
    8  A    between atoms: C_9  and  C_21
    9  A    between atoms: C_10  and  C_15
   10  A    between atoms: O_17  and  C_21
                            x       y       z     vdW  Elec       q    Type
                         _______ _______ _______ _____ _____    ______ ____

>  <TORSDO>
F 10

$$$$
=
 OpenBabel11052412363D

 30 30  0  0  1  0  0  0  0  0999 V2000
  189.1960  177.9220  146.5500 C   0  0  0  0  0  0  0  0  0  0  0  0
  191.8350  176.0530  145.1380 C   0  0  0  0  0  2  0  0  0  0  0  0
  191.4040  176.8620  143.9150 C   0  0  1  0  0  3  0  0  0  0  0  0
  189.7100  176.6450  146.7750 O   0  0  0  0  0  0  0  0  0  0  0  0
  189.5420  178.8900  147.2780 O   0  0  0  0  0  0  0  0  0  0  0  0
  191.9850  176.8620  146.2840 O   0  0  0  0  0  0  0  0  0  0  0  0
  191.0370  176.4690  147.2560 C   0  0  2  0  0  3  0  0  0  0  0  0
  188.3370  178.1700  145.3530 C   0  0  1  0  0  3  0  0  0  0  0  0
  189.8780  176.9010  143.7540 C   0  0  1  0  0  3  0  0  0  0  0  0
  191.9860  178.1340  143.9020 O   0  0  0  0  0  1  0  0  0  0  0  0
  191.2560  175.0490  147.7630 C   0  0  0  0  0  1  0  0  0  0  0  0
  189.2240  178.2450  144.1050 C   0  0  0  0  0  2  0  0  0  0  0  0
  187.1960  177.1470  145.2260 C   0  0  1  0  0  3  0  0  0  0  0  0
  186.6260  176.8000  146.5980 C   0  0  0  0  0  1  0  0  0  0  0  0
  186.0990  177.6380  144.2690 C   0  0  1  0  0  3  0  0  0  0  0  0
  185.5400  179.0050  144.6620 C   0  0  0  0  0  2  0  0  0  0  0  0
  184.1020  178.9280  145.1480 C   0  0  0  0  0  2  0  0  0  0  0  0
  182.3790  178.7660  143.8840 O   0  0  0  0  0  1  0  0  0  0  0  0
  183.2780  179.6410  144.2810 O   0  0  0  0  0  0  0  0  0  0  0  0
  186.5100  177.6110  142.9280 O   0  0  0  0  0  0  0  0  0  0  0  0
  185.6150  178.3870  142.2680 N   0  0  0  0  0  2  0  0  0  0  0  0
  187.0190  178.7210  140.4350 O   0  0  0  0  0  1  0  0  0  0  0  0
  184.9250  179.6410  140.2980 O   0  0  0  0  0  0  0  0  0  0  0  0
  185.8950  178.9110  140.9710 C   0  0  0  0  0  0  0  0  0  0  0  0
  189.4350  176.3940  142.3800 C   0  0  0  0  0  2  0  0  0  0  0  0
  189.9330  176.7260  139.9810 C   0  0  0  0  0  3  0  0  0  0  0  0
  190.0530  177.1520  141.2410 C   0  0  0  0  0  3  0  0  0  0  0  0
  190.5490  177.4600  138.8280 C   0  0  0  0  0  3  0  0  0  0  0  0
  189.4840  178.0860  137.9450 C   0  0  0  0  0  1  0  0  0  0  0  0
  191.4380  176.5440  138.0050 C   0  0  0  0  0  1  0  0  0  0  0  0
  1  4  1  0  0  0  0
  1  5  2  0  0  0  0
  2  6  1  0  0  0  0
  3 10  1  1  0  0  0
  3  2  1  0  0  0  0
  4  7  1  0  0  0  0
  6  7  1  0  0  0  0
  7 11  1  6  0  0  0
  8 13  1  6  0  0  0
  8  1  1  0  0  0  0
  9 25  1  6  0  0  0
  9  3  1  0  0  0  0
  9 12  1  0  0  0  0
 12  8  1  0  0  0  0
 13 14  1  1  0  0  0
 15 16  1  1  0  0  0
 15 13  1  0  0  0  0
 16 17  1  0  0  0  0
 18 19  1  0  0  0  0
 19 17  1  0  0  0  0
 20 15  1  0  0  0  0
 21 20  1  0  0  0  0
 22 24  1  0  0  0  0
 23 24  2  0  0  0  0
 24 21  1  0  0  0  0
 26 27  2  0  0  0  0
 27 25  1  0  0  0  0
 28 26  1  0  0  0  0
 29 28  1  0  0  0  0
 30 28  1  0  0  0  0
M  END
>  <MODEL>
5

>  <REMARK>
 VINA RESULT:      -6.2      2.539      7.432
  Name = 
  10 active torsions:
  status: ('A' for Active; 'I' for Inactive)
    1  A    between atoms: C_1  and  C_4
    2  A    between atoms: C_1  and  C_22
    3  A    between atoms: C_4  and  C_9
    4  A    between atoms: C_4  and  O_12
    5  A    between atoms: C_7  and  C_23
    6  A    between atoms: C_7  and  C_25
    7  A    between atoms: N_8  and  O_12
    8  A    between atoms: C_9  and  C_21
    9  A    between atoms: C_10  and  C_15
   10  A    between atoms: O_17  and  C_21
                            x       y       z     vdW  Elec       q    Type
                         _______ _______ _______ _____ _____    ______ ____

>  <TORSDO>
F 10

$$$$
=
 OpenBabel11052412363D

 30 30  0  0  1  0  0  0  0  0999 V2000
  191.1750  176.6070  142.7270 C   0  0  0  0  0  0  0  0  0  0  0  0
  189.3160  178.6920  144.8820 C   0  0  0  0  0  2  0  0  0  0  0  0
  188.1920  177.8130  144.3360 C   0  0  1  0  0  3  0  0  0  0  0  0
  191.2980  177.9330  143.1370 O   0  0  0  0  0  0  0  0  0  0  0  0
  191.8420  175.6970  143.2890 O   0  0  0  0  0  0  0  0  0  0  0  0
  190.4260  177.9330  145.3070 O   0  0  0  0  0  0  0  0  0  0  0  0
  191.5430  178.2540  144.5010 C   0  0  2  0  0  3  0  0  0  0  0  0
  190.1450  176.2420  141.7080 C   0  0  1  0  0  3  0  0  0  0  0  0
  188.2950  177.6170  142.8170 C   0  0  1  0  0  3  0  0  0  0  0  0
  188.0910  176.6050  145.0350 O   0  0  0  0  0  1  0  0  0  0  0  0
  191.9920  179.7020  144.6560 C   0  0  0  0  0  1  0  0  0  0  0  0
  188.7640  176.2240  142.3740 C   0  0  0  0  0  2  0  0  0  0  0  0
  190.2060  177.1420  140.4630 C   0  0  1  0  0  3  0  0  0  0  0  0
  191.6530  177.4010  140.0530 C   0  0  0  0  0  1  0  0  0  0  0  0
  189.3890  176.5580  139.3000 C   0  0  1  0  0  3  0  0  0  0  0  0
  188.3550  177.5410  138.7510 C   0  0  0  0  0  2  0  0  0  0  0  0
  188.8780  178.9670  138.7000 C   0  0  0  0  0  2  0  0  0  0  0  0
  187.6390  179.3090  136.9860 O   0  0  0  0  0  1  0  0  0  0  0  0
  188.8890  179.4110  137.3790 O   0  0  0  0  0  0  0  0  0  0  0  0
  190.2040  176.0400  138.2830 O   0  0  0  0  0  0  0  0  0  0  0  0
  189.3470  175.6540  137.3060 N   0  0  0  0  0  2  0  0  0  0  0  0
  190.0000  173.4160  137.4010 O   0  0  0  0  0  1  0  0  0  0  0  0
  188.3010  173.9220  135.9500 O   0  0  0  0  0  0  0  0  0  0  0  0
  189.2410  174.2900  136.9030 C   0  0  0  0  0  0  0  0  0  0  0  0
  187.0120  178.0410  142.0980 C   0  0  0  0  0  2  0  0  0  0  0  0
  185.2150  179.3070  143.2280 C   0  0  0  0  0  3  0  0  0  0  0  0
  185.8260  178.1390  143.0110 C   0  0  0  0  0  3  0  0  0  0  0  0
  184.0340  179.4340  144.1440 C   0  0  0  0  0  3  0  0  0  0  0  0
  184.2820  178.7160  145.4590 C   0  0  0  0  0  1  0  0  0  0  0  0
  182.7720  178.9040  143.4890 C   0  0  0  0  0  1  0  0  0  0  0  0
  1  4  1  0  0  0  0
  1  5  2  0  0  0  0
  2  6  1  0  0  0  0
  3  2  1  0  0  0  0
  3 10  1  1  0  0  0
  4  7  1  0  0  0  0
  7 11  1  6  0  0  0
  7  6  1  0  0  0  0
  8 13  1  6  0  0  0
  8 12  1  0  0  0  0
  8  1  1  0  0  0  0
  9 25  1  6  0  0  0
  9  3  1  0  0  0  0
 12  9  1  0  0  0  0
 13 14  1  6  0  0  0
 15 16  1  6  0  0  0
 15 13  1  0  0  0  0
 17 16  1  0  0  0  0
 18 19  1  0  0  0  0
 19 17  1  0  0  0  0
 20 15  1  0  0  0  0
 21 20  1  0  0  0  0
 23 24  2  0  0  0  0
 24 21  1  0  0  0  0
 24 22  1  0  0  0  0
 25 27  1  0  0  0  0
 26 28  1  0  0  0  0
 27 26  2  0  0  0  0
 28 29  1  0  0  0  0
 30 28  1  0  0  0  0
M  END
>  <MODEL>
6

>  <REMARK>
 VINA RESULT:      -6.1      2.724      6.522
  Name = 
  10 active torsions:
  status: ('A' for Active; 'I' for Inactive)
    1  A    between atoms: C_1  and  C_4
    2  A    between atoms: C_1  and  C_22
    3  A    between atoms: C_4  and  C_9
    4  A    between atoms: C_4  and  O_12
    5  A    between atoms: C_7  and  C_23
    6  A    between atoms: C_7  and  C_25
    7  A    between atoms: N_8  and  O_12
    8  A    between atoms: C_9  and  C_21
    9  A    between atoms: C_10  and  C_15
   10  A    between atoms: O_17  and  C_21
                            x       y       z     vdW  Elec       q    Type
                         _______ _______ _______ _____ _____    ______ ____

>  <TORSDO>
F 10

$$$$
=
 OpenBabel11052412363D

 30 30  0  0  1  0  0  0  0  0999 V2000
  188.0090  178.6050  140.6810 C   0  0  0  0  0  0  0  0  0  0  0  0
  185.3020  177.8860  138.5350 C   0  0  0  0  0  2  0  0  0  0  0  0
  184.5740  178.6870  139.6140 C   0  0  1  0  0  3  0  0  0  0  0  0
  187.6920  177.5360  139.8430 O   0  0  0  0  0  0  0  0  0  0  0  0
  188.7870  179.5160  140.2910 O   0  0  0  0  0  0  0  0  0  0  0  0
  186.4830  178.5250  138.1040 O   0  0  0  0  0  0  0  0  0  0  0  0
  187.5950  177.7180  138.4360 C   0  0  2  0  0  3  0  0  0  0  0  0
  187.3150  178.7420  141.9970 C   0  0  1  0  0  3  0  0  0  0  0  0
  184.9940  178.2670  141.0300 C   0  0  1  0  0  3  0  0  0  0  0  0
  184.6820  180.0650  139.4000 O   0  0  0  0  0  1  0  0  0  0  0  0
  187.5990  176.3810  137.7050 C   0  0  0  0  0  1  0  0  0  0  0  0
  185.8940  179.2720  141.7620 C   0  0  0  0  0  2  0  0  0  0  0  0
  187.3480  177.4420  142.8170 C   0  0  1  0  0  3  0  0  0  0  0  0
  188.5530  176.5900  142.4300 C   0  0  0  0  0  1  0  0  0  0  0  0
  187.3220  177.7240  144.3280 C   0  0  1  0  0  3  0  0  0  0  0  0
  185.9410  177.5060  144.9460 C   0  0  0  0  0  2  0  0  0  0  0  0
  185.4180  178.7450  145.6530 C   0  0  0  0  0  2  0  0  0  0  0  0
  183.4000  179.3170  145.2130 O   0  0  0  0  0  1  0  0  0  0  0  0
  184.6290  179.4850  144.7740 O   0  0  0  0  0  0  0  0  0  0  0  0
  188.3180  177.0190  145.0190 O   0  0  0  0  0  0  0  0  0  0  0  0
  188.2770  177.5010  146.2860 N   0  0  0  0  0  2  0  0  0  0  0  0
  190.4580  176.8330  146.7770 O   0  0  0  0  0  0  0  0  0  0  0  0
  189.3510  177.9900  148.4160 O   0  0  0  0  0  1  0  0  0  0  0  0
  189.4090  177.4210  147.1510 C   0  0  0  0  0  0  0  0  0  0  0  0
  183.7930  177.8520  141.8830 C   0  0  0  0  0  2  0  0  0  0  0  0
  181.5530  178.8960  141.8460 C   0  0  0  0  0  3  0  0  0  0  0  0
  182.4740  178.1480  141.2320 C   0  0  0  0  0  3  0  0  0  0  0  0
  180.2230  179.1980  141.2220 C   0  0  0  0  0  3  0  0  0  0  0  0
  179.8130  178.1060  140.2500 C   0  0  0  0  0  1  0  0  0  0  0  0
  180.2390  180.5440  140.5200 C   0  0  0  0  0  1  0  0  0  0  0  0
  1  8  1  0  0  0  0
  2  3  1  0  0  0  0
  3 10  1  6  0  0  0
  3  9  1  0  0  0  0
  4  1  1  0  0  0  0
  5  1  2  0  0  0  0
  6  7  1  0  0  0  0
  6  2  1  0  0  0  0
  7 11  1  6  0  0  0
  7  4  1  0  0  0  0
  8 13  1  6  0  0  0
  9 12  1  0  0  0  0
  9 25  1  1  0  0  0
 12  8  1  0  0  0  0
 13 14  1  1  0  0  0
 13 15  1  0  0  0  0
 15 16  1  1  0  0  0
 15 20  1  0  0  0  0
 16 17  1  0  0  0  0
 19 18  1  0  0  0  0
 19 17  1  0  0  0  0
 20 21  1  0  0  0  0
 21 24  1  0  0  0  0
 22 24  2  0  0  0  0
 24 23  1  0  0  0  0
 27 26  2  0  0  0  0
 27 25  1  0  0  0  0
 28 26  1  0  0  0  0
 29 28  1  0  0  0  0
 30 28  1  0  0  0  0
M  END
>  <MODEL>
7

>  <REMARK>
 VINA RESULT:      -6.1      1.208      1.460
  Name = 
  10 active torsions:
  status: ('A' for Active; 'I' for Inactive)
    1  A    between atoms: C_1  and  C_4
    2  A    between atoms: C_1  and  C_22
    3  A    between atoms: C_4  and  C_9
    4  A    between atoms: C_4  and  O_12
    5  A    between atoms: C_7  and  C_23
    6  A    between atoms: C_7  and  C_25
    7  A    between atoms: N_8  and  O_12
    8  A    between atoms: C_9  and  C_21
    9  A    between atoms: C_10  and  C_15
   10  A    between atoms: O_17  and  C_21
                            x       y       z     vdW  Elec       q    Type
                         _______ _______ _______ _____ _____    ______ ____

>  <TORSDO>
F 10

$$$$
=
 OpenBabel11052412363D

 30 30  0  0  1  0  0  0  0  0999 V2000
  189.7700  176.5270  142.8800 C   0  0  0  0  0  0  0  0  0  0  0  0
  189.6520  178.3260  145.9120 C   0  0  0  0  0  2  0  0  0  0  0  0
  188.2360  177.7530  145.8940 C   0  0  1  0  0  3  0  0  0  0  0  0
  190.3680  177.7010  143.3350 O   0  0  0  0  0  0  0  0  0  0  0  0
  190.3940  175.4330  142.9190 O   0  0  0  0  0  0  0  0  0  0  0  0
  190.6270  177.3460  145.6310 O   0  0  0  0  0  0  0  0  0  0  0  0
  191.2820  177.6780  144.4240 C   0  0  2  0  0  3  0  0  0  0  0  0
  188.3330  176.5400  142.4720 C   0  0  1  0  0  3  0  0  0  0  0  0
  187.5760  177.8820  144.5140 C   0  0  1  0  0  3  0  0  0  0  0  0
  188.1980  176.4470  146.3960 O   0  0  0  0  0  1  0  0  0  0  0  0
  192.0690  178.9800  144.5120 C   0  0  0  0  0  1  0  0  0  0  0  0
  187.4540  176.5690  143.7290 C   0  0  0  0  0  2  0  0  0  0  0  0
  188.0130  177.6750  141.4840 C   0  0  1  0  0  3  0  0  0  0  0  0
  188.7770  178.9430  141.8520 C   0  0  0  0  0  1  0  0  0  0  0  0
  188.2890  177.2550  140.0320 C   0  0  1  0  0  3  0  0  0  0  0  0
  187.2970  177.8660  139.0420 C   0  0  0  0  0  2  0  0  0  0  0  0
  187.8570  177.9440  137.6310 C   0  0  0  0  0  2  0  0  0  0  0  0
  189.0420  179.6820  137.2200 O   0  0  0  0  0  1  0  0  0  0  0  0
  187.7970  179.2600  137.1780 O   0  0  0  0  0  0  0  0  0  0  0  0
  189.6170  177.4950  139.6500 O   0  0  0  0  0  0  0  0  0  0  0  0
  190.1520  176.2660  139.4430 N   0  0  0  0  0  2  0  0  0  0  0  0
  191.2370  176.8990  137.4770 O   0  0  0  0  0  0  0  0  0  0  0  0
  191.5970  174.7530  138.1960 O   0  0  0  0  0  1  0  0  0  0  0  0
  191.0110  176.0040  138.3350 C   0  0  0  0  0  0  0  0  0  0  0  0
  186.2400  178.6270  144.5880 C   0  0  0  0  0  2  0  0  0  0  0  0
  184.7670  178.8570  142.6160 C   0  0  0  0  0  3  0  0  0  0  0  0
  185.2170  178.1040  143.6230 C   0  0  0  0  0  3  0  0  0  0  0  0
  183.7380  178.3610  141.6450 C   0  0  0  0  0  3  0  0  0  0  0  0
  183.9810  178.9220  140.2550 C   0  0  0  0  0  1  0  0  0  0  0  0
  182.3340  178.7040  142.1090 C   0  0  0  0  0  1  0  0  0  0  0  0
  1  5  2  0  0  0  0
  1  4  1  0  0  0  0
  3  2  1  0  0  0  0
  3 10  1  6  0  0  0
  4  7  1  0  0  0  0
  6  2  1  0  0  0  0
  7 11  1  1  0  0  0
  7  6  1  0  0  0  0
  8 13  1  6  0  0  0
  8  1  1  0  0  0  0
  8 12  1  0  0  0  0
  9 25  1  1  0  0  0
  9  3  1  0  0  0  0
 12  9  1  0  0  0  0
 13 14  1  1  0  0  0
 15 16  1  6  0  0  0
 15 13  1  0  0  0  0
 17 16  1  0  0  0  0
 19 18  1  0  0  0  0
 19 17  1  0  0  0  0
 20 15  1  0  0  0  0
 21 20  1  0  0  0  0
 22 24  2  0  0  0  0
 23 24  1  0  0  0  0
 24 21  1  0  0  0  0
 26 27  2  0  0  0  0
 27 25  1  0  0  0  0
 28 30  1  0  0  0  0
 28 26  1  0  0  0  0
 29 28  1  0  0  0  0
M  END
>  <MODEL>
8

>  <REMARK>
 VINA RESULT:      -5.9      2.263      6.172
  Name = 
  10 active torsions:
  status: ('A' for Active; 'I' for Inactive)
    1  A    between atoms: C_1  and  C_4
    2  A    between atoms: C_1  and  C_22
    3  A    between atoms: C_4  and  C_9
    4  A    between atoms: C_4  and  O_12
    5  A    between atoms: C_7  and  C_23
    6  A    between atoms: C_7  and  C_25
    7  A    between atoms: N_8  and  O_12
    8  A    between atoms: C_9  and  C_21
    9  A    between atoms: C_10  and  C_15
   10  A    between atoms: O_17  and  C_21
                            x       y       z     vdW  Elec       q    Type
                         _______ _______ _______ _____ _____    ______ ____

>  <TORSDO>
F 10

$$$$
=
 OpenBabel11052412363D

 30 30  0  0  1  0  0  0  0  0999 V2000
  191.2300  177.4850  142.0420 C   0  0  0  0  0  0  0  0  0  0  0  0
  190.2030  178.0940  145.3620 C   0  0  0  0  0  2  0  0  0  0  0  0
  189.5300  176.7430  145.1240 C   0  0  1  0  0  3  0  0  0  0  0  0
  190.9330  178.6370  142.7700 O   0  0  0  0  0  0  0  0  0  0  0  0
  192.4230  177.1060  141.9010 O   0  0  0  0  0  0  0  0  0  0  0  0
  191.5540  178.0940  144.9570 O   0  0  0  0  0  0  0  0  0  0  0  0
  191.7200  179.0100  143.8940 C   0  0  2  0  0  3  0  0  0  0  0  0
  190.1180  176.6210  141.5420 C   0  0  1  0  0  3  0  0  0  0  0  0
  188.8370  176.6740  143.7560 C   0  0  1  0  0  3  0  0  0  0  0  0
  190.4100  175.6780  145.3430 O   0  0  0  0  0  1  0  0  0  0  0  0
  191.4480  180.4520  144.3030 C   0  0  0  0  0  1  0  0  0  0  0  0
  189.5520  175.8050  142.7120 C   0  0  0  0  0  2  0  0  0  0  0  0
  189.0450  177.4220  140.7870 C   0  0  1  0  0  3  0  0  0  0  0  0
  188.5400  178.5840  141.6370 C   0  0  0  0  0  1  0  0  0  0  0  0
  189.5560  177.9060  139.4210 C   0  0  1  0  0  3  0  0  0  0  0  0
  189.7440  176.7650  138.4220 C   0  0  0  0  0  2  0  0  0  0  0  0
  191.2090  176.4560  138.1610 C   0  0  0  0  0  2  0  0  0  0  0  0
  190.3220  174.5340  137.8250 O   0  0  0  0  0  1  0  0  0  0  0  0
  191.4250  175.0850  138.2840 O   0  0  0  0  0  0  0  0  0  0  0  0
  188.7640  178.9360  138.8900 O   0  0  0  0  0  0  0  0  0  0  0  0
  187.9590  178.3300  137.9830 N   0  0  0  0  0  2  0  0  0  0  0  0
  186.0170  178.7130  139.2170 O   0  0  0  0  0  1  0  0  0  0  0  0
  185.7470  177.7010  137.1790 O   0  0  0  0  0  0  0  0  0  0  0  0
  186.5460  178.2660  138.1650 C   0  0  0  0  0  0  0  0  0  0  0  0
  187.3560  176.3070  143.8830 C   0  0  0  0  0  2  0  0  0  0  0  0
  185.7400  178.1160  144.3570 C   0  0  0  0  0  3  0  0  0  0  0  0
  186.6010  177.2060  144.8180 C   0  0  0  0  0  3  0  0  0  0  0  0
  184.9810  179.0320  145.2700 C   0  0  0  0  0  3  0  0  0  0  0  0
  185.2260  178.6810  146.7270 C   0  0  0  0  0  1  0  0  0  0  0  0
  183.4930  179.0010  144.9680 C   0  0  0  0  0  1  0  0  0  0  0  0
  1  4  1  0  0  0  0
  3 10  1  6  0  0  0
  3  2  1  0  0  0  0
  4  7  1  0  0  0  0
  5  1  2  0  0  0  0
  6  2  1  0  0  0  0
  7 11  1  1  0  0  0
  7  6  1  0  0  0  0
  8 13  1  1  0  0  0
  8  1  1  0  0  0  0
  8 12  1  0  0  0  0
  9 25  1  1  0  0  0
  9  3  1  0  0  0  0
 12  9  1  0  0  0  0
 13 14  1  1  0  0  0
 15 16  1  6  0  0  0
 15 13  1  0  0  0  0
 17 19  1  0  0  0  0
 17 16  1  0  0  0  0
 18 19  1  0  0  0  0
 20 15  1  0  0  0  0
 21 24  1  0  0  0  0
 21 20  1  0  0  0  0
 23 24  2  0  0  0  0
 24 22  1  0  0  0  0
 25 27  1  0  0  0  0
 26 27  2  0  0  0  0
 26 28  1  0  0  0  0
 28 29  1  0  0  0  0
 30 28  1  0  0  0  0
M  END
>  <MODEL>
9

>  <REMARK>
 VINA RESULT:      -5.9      2.855      6.850
  Name = 
  10 active torsions:
  status: ('A' for Active; 'I' for Inactive)
    1  A    between atoms: C_1  and  C_4
    2  A    between atoms: C_1  and  C_22
    3  A    between atoms: C_4  and  C_9
    4  A    between atoms: C_4  and  O_12
    5  A    between atoms: C_7  and  C_23
    6  A    between atoms: C_7  and  C_25
    7  A    between atoms: N_8  and  O_12
    8  A    between atoms: C_9  and  C_21
    9  A    between atoms: C_10  and  C_15
   10  A    between atoms: O_17  and  C_21
                            x       y       z     vdW  Elec       q    Type
                         _______ _______ _______ _____ _____    ______ ____

>  <TORSDO>
F 10

$$$$
