=
 OpenBabel11052412343D

 30 34  0  0  1  0  0  0  0  0999 V2000
  185.2810  178.9050  141.0880 C   0  0  0  0  0  0  0  0  0  0  0  0
  185.7060  177.7030  142.7690 C   0  0  2  0  0  3  0  0  0  0  0  0
  181.3330  179.2970  143.8430 C   0  0  0  0  0  2  0  0  0  0  0  0
  182.3870  177.0850  140.2280 C   0  0  0  0  0  2  0  0  0  0  0  0
  184.9510  179.8270  140.0460 N   0  0  0  0  0  2  0  0  0  0  0  0
  183.6220  178.3490  138.4070 C   0  0  2  0  0  3  0  0  0  0  0  0
  183.2940  180.6870  138.6770 O   0  0  0  0  0  0  0  0  0  0  0  0
  179.7240  178.3180  140.4890 N   0  0  0  0  0  0  0  0  0  0  0  0
  180.4370  179.2740  142.6460 C   0  0  0  0  0  0  0  0  0  0  0  0
  183.9160  179.6680  139.0720 C   0  0  0  0  0  0  0  0  0  0  0  0
  182.3480  177.5860  138.7930 C   0  0  2  0  0  3  0  0  0  0  0  0
  185.6460  178.1730  144.2320 C   0  0  0  0  0  2  0  0  0  0  0  0
  180.2470  178.9580  139.3680 O   0  0  0  0  0  0  0  0  0  0  0  0
  186.8720  178.5600  141.8830 S   0  0  0  0  0  0  0  0  0  0  0  0
  182.7990  179.2730  143.4100 C   0  0  1  0  0  3  0  0  0  0  0  0
  185.0180  179.4230  144.3600 O   0  0  0  0  0  0  0  0  0  0  0  0
  184.5230  178.1790  142.0100 C   0  0  0  0  0  0  0  0  0  0  0  0
  182.1510  178.2360  141.1830 C   0  0  1  0  0  3  0  0  0  0  0  0
  179.5060  180.0600  142.5590 O   0  0  0  0  0  0  0  0  0  0  0  0
  180.6810  178.2210  141.6030 C   0  0  2  0  0  3  0  0  0  0  0  0
  180.8890  178.5830  137.2010 O   0  0  0  0  0  0  0  0  0  0  0  0
  183.6760  179.1420  144.6610 C   0  0  0  0  0  2  0  0  0  0  0  0
  183.0760  178.1360  142.4000 C   0  0  2  0  0  3  0  0  0  0  0  0
  181.1090  178.3670  138.4220 C   0  0  0  0  0  0  0  0  0  0  0  0
  184.8130  177.5430  137.8910 C   0  0  0  0  0  2  0  0  0  0  0  0
  183.9150  177.0380  135.4880 C   0  0  0  0  0  1  0  0  0  0  0  0
  184.3190  176.0600  136.9600 S   0  0  0  0  0  0  0  0  0  0  0  0
  179.2400  176.9850  140.1430 C   0  0  0  0  0  2  0  0  0  0  0  0
  179.2270  174.8990  140.8630 C   0  0  0  0  0  1  0  0  0  0  0  0
  179.1080  176.2180  141.3010 O   0  0  0  0  0  0  0  0  0  0  0  0
  1 14  1  0  0  0  0
  1 17  2  0  0  0  0
  2 12  1  1  0  0  0
  5  1  1  0  0  0  0
  6 25  1  1  0  0  0
  6 11  1  0  0  0  0
  6 10  1  0  0  0  0
  7 10  2  0  0  0  0
  8 20  1  0  0  0  0
  9  3  1  0  0  0  0
 10  5  1  0  0  0  0
 11  4  1  1  0  0  0
 12 16  1  0  0  0  0
 13  8  1  0  0  0  0
 14  2  1  0  0  0  0
 15  3  1  1  0  0  0
 15 22  1  0  0  0  0
 16 22  1  0  0  0  0
 17  2  1  0  0  0  0
 18  4  1  6  0  0  0
 18 20  1  0  0  0  0
 18 23  1  0  0  0  0
 19  9  2  0  0  0  0
 20  9  1  1  0  0  0
 21 24  2  0  0  0  0
 23 17  1  6  0  0  0
 23 15  1  0  0  0  0
 24 11  1  0  0  0  0
 24 13  1  0  0  0  0
 26 27  1  0  0  0  0
 27 25  1  0  0  0  0
 28  8  1  0  0  0  0
 28 30  1  0  0  0  0
 29 30  1  0  0  0  0
M  END
>  <MODEL>
1

>  <REMARK>
 VINA RESULT:      -6.5      0.000      0.000
  Name = 
  4 active torsions:
  status: ('A' for Active; 'I' for Inactive)
    1  A    between atoms: C_6  and  C_8
    2  A    between atoms: C_6  and  S_21
    3  A    between atoms: C_7  and  N_10
    4  A    between atoms: C_7  and  O_26
                            x       y       z     vdW  Elec       q    Type
                         _______ _______ _______ _____ _____    ______ ____

>  <TORSDO>
F 4

$$$$
=
 OpenBabel11052412343D

 30 34  0  0  1  0  0  0  0  0999 V2000
  189.8200  177.7130  145.5370 C   0  0  0  0  0  0  0  0  0  0  0  0
  189.0680  176.4300  147.0350 C   0  0  2  0  0  3  0  0  0  0  0  0
  185.2750  179.2110  146.1950 C   0  0  0  0  0  2  0  0  0  0  0  0
  187.3460  176.8080  143.1950 C   0  0  0  0  0  2  0  0  0  0  0  0
  190.2740  178.6960  144.6040 N   0  0  0  0  0  2  0  0  0  0  0  0
  189.5770  177.6720  142.3460 C   0  0  2  0  0  3  0  0  0  0  0  0
  189.7550  180.0040  142.7660 O   0  0  0  0  0  0  0  0  0  0  0  0
  185.2910  178.7530  142.3760 N   0  0  0  0  0  0  0  0  0  0  0  0
  185.0910  179.4520  144.7320 C   0  0  0  0  0  0  0  0  0  0  0  0
  189.8320  178.8470  143.2520 C   0  0  0  0  0  0  0  0  0  0  0  0
  188.1290  177.3060  141.9900 C   0  0  2  0  0  3  0  0  0  0  0  0
  188.4310  176.8910  148.3570 C   0  0  0  0  0  2  0  0  0  0  0  0
  186.4290  179.2220  141.7250 O   0  0  0  0  0  0  0  0  0  0  0  0
  190.6880  176.9190  146.9160 S   0  0  0  0  0  0  0  0  0  0  0  0
  186.7090  178.7680  146.4860 C   0  0  1  0  0  3  0  0  0  0  0  0
  188.1540  178.2670  148.3600 O   0  0  0  0  0  0  0  0  0  0  0  0
  188.5580  177.2310  145.8940 C   0  0  0  0  0  0  0  0  0  0  0  0
  186.9770  177.9730  144.0880 C   0  0  1  0  0  3  0  0  0  0  0  0
  184.5480  180.4730  144.3400 O   0  0  0  0  0  0  0  0  0  0  0  0
  185.5350  178.3800  143.7790 C   0  0  2  0  0  3  0  0  0  0  0  0
  187.9170  178.6890  140.0670 O   0  0  0  0  0  0  0  0  0  0  0  0
  186.8110  178.3830  147.9670 C   0  0  0  0  0  2  0  0  0  0  0  0
  187.1440  177.6050  145.5650 C   0  0  2  0  0  3  0  0  0  0  0  0
  187.4610  178.4130  141.2070 C   0  0  0  0  0  0  0  0  0  0  0  0
  190.6230  176.5600  142.3250 C   0  0  0  0  0  2  0  0  0  0  0  0
  191.1890  177.1970  139.8530 C   0  0  0  0  0  1  0  0  0  0  0  0
  192.1220  177.0090  141.3950 S   0  0  0  0  0  0  0  0  0  0  0  0
  184.7180  177.6180  141.6610 C   0  0  0  0  0  2  0  0  0  0  0  0
  182.7590  178.5990  141.4000 C   0  0  0  0  0  1  0  0  0  0  0  0
  183.8340  178.0750  140.6830 O   0  0  0  0  0  0  0  0  0  0  0  0
  1 17  2  0  0  0  0
  1 14  1  0  0  0  0
  2 12  1  1  0  0  0
  5  1  1  0  0  0  0
  6 25  1  1  0  0  0
  6 10  1  0  0  0  0
  7 10  2  0  0  0  0
  8 20  1  0  0  0  0
  9  3  1  0  0  0  0
 10  5  1  0  0  0  0
 11  6  1  0  0  0  0
 11  4  1  1  0  0  0
 12 16  1  0  0  0  0
 13  8  1  0  0  0  0
 14  2  1  0  0  0  0
 15  3  1  6  0  0  0
 15 22  1  0  0  0  0
 17  2  1  0  0  0  0
 18  4  1  6  0  0  0
 18 23  1  0  0  0  0
 19  9  2  0  0  0  0
 20 18  1  0  0  0  0
 20  9  1  1  0  0  0
 21 24  2  0  0  0  0
 22 16  1  0  0  0  0
 23 17  1  6  0  0  0
 23 15  1  0  0  0  0
 24 13  1  0  0  0  0
 24 11  1  0  0  0  0
 26 27  1  0  0  0  0
 27 25  1  0  0  0  0
 28  8  1  0  0  0  0
 30 29  1  0  0  0  0
 30 28  1  0  0  0  0
M  END
>  <MODEL>
2

>  <REMARK>
 VINA RESULT:      -6.1      3.922      6.269
  Name = 
  4 active torsions:
  status: ('A' for Active; 'I' for Inactive)
    1  A    between atoms: C_6  and  C_8
    2  A    between atoms: C_6  and  S_21
    3  A    between atoms: C_7  and  N_10
    4  A    between atoms: C_7  and  O_26
                            x       y       z     vdW  Elec       q    Type
                         _______ _______ _______ _____ _____    ______ ____

>  <TORSDO>
F 4

$$$$
=
 OpenBabel11052412343D

 30 34  0  0  1  0  0  0  0  0999 V2000
  188.5940  177.9130  145.0600 C   0  0  0  0  0  0  0  0  0  0  0  0
  186.7080  176.9660  145.0670 C   0  0  2  0  0  3  0  0  0  0  0  0
  186.8670  178.7000  140.6180 C   0  0  0  0  0  2  0  0  0  0  0  0
  189.8090  175.9890  142.3690 C   0  0  0  0  0  2  0  0  0  0  0  0
  189.8010  178.6750  144.9970 N   0  0  0  0  0  2  0  0  0  0  0  0
  191.4710  176.9760  144.0140 C   0  0  2  0  0  3  0  0  0  0  0  0
  191.6110  179.3290  143.7100 O   0  0  0  0  0  0  0  0  0  0  0  0
  190.3220  177.2470  139.7540 N   0  0  0  0  0  0  0  0  0  0  0  0
  188.2160  178.5040  140.0060 C   0  0  0  0  0  0  0  0  0  0  0  0
  190.9490  178.3770  144.1960 C   0  0  0  0  0  0  0  0  0  0  0  0
  191.2730  176.2770  142.6610 C   0  0  2  0  0  3  0  0  0  0  0  0
  185.3760  177.6430  144.7030 C   0  0  0  0  0  2  0  0  0  0  0  0
  191.3770  177.7190  140.5310 O   0  0  0  0  0  0  0  0  0  0  0  0
  187.4240  177.6850  146.4260 S   0  0  0  0  0  0  0  0  0  0  0  0
  186.9550  178.6130  142.1420 C   0  0  1  0  0  3  0  0  0  0  0  0
  185.5670  178.8980  144.1020 O   0  0  0  0  0  0  0  0  0  0  0  0
  187.7700  177.3280  144.0960 C   0  0  0  0  0  0  0  0  0  0  0  0
  189.1020  177.2650  141.9660 C   0  0  1  0  0  3  0  0  0  0  0  0
  188.6180  179.2690  139.1440 O   0  0  0  0  0  0  0  0  0  0  0  0
  189.0210  177.3120  140.4400 C   0  0  2  0  0  3  0  0  0  0  0  0
  193.2730  177.0340  141.6200 O   0  0  0  0  0  0  0  0  0  0  0  0
  185.5350  178.6630  142.7180 C   0  0  0  0  0  2  0  0  0  0  0  0
  187.7090  177.3420  142.5980 C   0  0  2  0  0  3  0  0  0  0  0  0
  192.0160  176.9970  141.5600 C   0  0  0  0  0  0  0  0  0  0  0  0
  191.5900  176.1040  145.2620 C   0  0  0  0  0  2  0  0  0  0  0  0
  192.3590  175.7470  147.7350 C   0  0  0  0  0  1  0  0  0  0  0  0
  191.5240  177.0610  146.8090 S   0  0  0  0  0  0  0  0  0  0  0  0
  190.5750  175.8780  139.3160 C   0  0  0  0  0  2  0  0  0  0  0  0
  190.7500  176.5750  137.2300 C   0  0  0  0  0  1  0  0  0  0  0  0
  190.0430  175.6860  138.0400 O   0  0  0  0  0  0  0  0  0  0  0  0
  1 14  1  0  0  0  0
  2 12  1  6  0  0  0
  2 14  1  0  0  0  0
  5  1  1  0  0  0  0
  6 10  1  0  0  0  0
  6 25  1  1  0  0  0
  7 10  2  0  0  0  0
  8 20  1  0  0  0  0
  8 13  1  0  0  0  0
  9  3  1  0  0  0  0
 10  5  1  0  0  0  0
 11  4  1  6  0  0  0
 11  6  1  0  0  0  0
 13 24  1  0  0  0  0
 15  3  1  6  0  0  0
 15 23  1  0  0  0  0
 15 22  1  0  0  0  0
 16 12  1  0  0  0  0
 17  1  2  0  0  0  0
 17  2  1  0  0  0  0
 18  4  1  6  0  0  0
 18 23  1  0  0  0  0
 19  9  2  0  0  0  0
 20  9  1  1  0  0  0
 20 18  1  0  0  0  0
 22 16  1  0  0  0  0
 23 17  1  1  0  0  0
 24 21  2  0  0  0  0
 24 11  1  0  0  0  0
 25 27  1  0  0  0  0
 27 26  1  0  0  0  0
 28  8  1  0  0  0  0
 29 30  1  0  0  0  0
 30 28  1  0  0  0  0
M  END
>  <MODEL>
3

>  <REMARK>
 VINA RESULT:      -5.8      5.457      8.860
  Name = 
  4 active torsions:
  status: ('A' for Active; 'I' for Inactive)
    1  A    between atoms: C_6  and  C_8
    2  A    between atoms: C_6  and  S_21
    3  A    between atoms: C_7  and  N_10
    4  A    between atoms: C_7  and  O_26
                            x       y       z     vdW  Elec       q    Type
                         _______ _______ _______ _____ _____    ______ ____

>  <TORSDO>
F 4

$$$$
=
 OpenBabel11052412343D

 30 34  0  0  1  0  0  0  0  0999 V2000
  181.9690  175.4530  136.2880 C   0  0  0  0  0  0  0  0  0  0  0  0
  182.9440  173.6250  136.6930 C   0  0  2  0  0  3  0  0  0  0  0  0
  186.5990  176.6960  136.8730 C   0  0  0  0  0  2  0  0  0  0  0  0
  182.9880  176.9370  139.3180 C   0  0  0  0  0  2  0  0  0  0  0  0
  181.4170  176.7160  135.9120 N   0  0  0  0  0  2  0  0  0  0  0  0
  180.8740  177.7800  138.1950 C   0  0  2  0  0  3  0  0  0  0  0  0
  181.4310  179.0080  136.2380 O   0  0  0  0  0  0  0  0  0  0  0  0
  184.9240  179.1580  139.3080 N   0  0  0  0  0  0  0  0  0  0  0  0
  186.2220  177.9490  137.5960 C   0  0  0  0  0  0  0  0  0  0  0  0
  181.2910  177.8680  136.7500 C   0  0  0  0  0  0  0  0  0  0  0  0
  181.9230  178.0220  139.2890 C   0  0  2  0  0  3  0  0  0  0  0  0
  184.1510  173.0750  135.9160 C   0  0  0  0  0  2  0  0  0  0  0  0
  183.7620  179.7650  138.8360 O   0  0  0  0  0  0  0  0  0  0  0  0
  181.5780  173.7840  135.6980 S   0  0  0  0  0  0  0  0  0  0  0  0
  185.3480  175.9620  136.3910 C   0  0  1  0  0  3  0  0  0  0  0  0
  184.7180  174.0390  135.0660 O   0  0  0  0  0  0  0  0  0  0  0  0
  183.1160  175.0700  136.9870 C   0  0  0  0  0  0  0  0  0  0  0  0
  183.9500  177.1270  138.1640 C   0  0  1  0  0  3  0  0  0  0  0  0
  186.7800  179.0020  137.3330 O   0  0  0  0  0  0  0  0  0  0  0  0
  185.1920  177.8520  138.6850 C   0  0  2  0  0  3  0  0  0  0  0  0
  181.6490  180.3760  139.4750 O   0  0  0  0  0  0  0  0  0  0  0  0
  185.7710  174.6130  135.7960 C   0  0  0  0  0  2  0  0  0  0  0  0
  184.3180  175.7820  137.5300 C   0  0  2  0  0  3  0  0  0  0  0  0
  182.4520  179.4360  139.2380 C   0  0  0  0  0  0  0  0  0  0  0  0
  179.6830  176.8840  138.5280 C   0  0  0  0  0  2  0  0  0  0  0  0
  179.7330  175.0050  140.3450 C   0  0  0  0  0  1  0  0  0  0  0  0
  179.3500  176.7760  140.3140 S   0  0  0  0  0  0  0  0  0  0  0  0
  184.8750  179.0070  140.7580 C   0  0  0  0  0  2  0  0  0  0  0  0
  186.8110  178.6290  141.7440 C   0  0  0  0  0  1  0  0  0  0  0  0
  185.9640  179.6580  141.3370 O   0  0  0  0  0  0  0  0  0  0  0  0
  1 17  2  0  0  0  0
  2 12  1  6  0  0  0
  2 17  1  0  0  0  0
  3  9  1  0  0  0  0
  5  1  1  0  0  0  0
  5 10  1  0  0  0  0
  6 25  1  1  0  0  0
  6 11  1  0  0  0  0
  7 10  2  0  0  0  0
  8 28  1  0  0  0  0
 10  6  1  0  0  0  0
 11  4  1  6  0  0  0
 13 24  1  0  0  0  0
 13  8  1  0  0  0  0
 14  1  1  0  0  0  0
 14  2  1  0  0  0  0
 15 22  1  1  0  0  0
 15  3  1  0  0  0  0
 15 23  1  0  0  0  0
 16 22  1  0  0  0  0
 16 12  1  0  0  0  0
 18 20  1  0  0  0  0
 18  4  1  1  0  0  0
 19  9  2  0  0  0  0
 20  9  1  6  0  0  0
 20  8  1  0  0  0  0
 23 17  1  6  0  0  0
 23 18  1  0  0  0  0
 24 11  1  0  0  0  0
 24 21  2  0  0  0  0
 25 27  1  0  0  0  0
 27 26  1  0  0  0  0
 28 30  1  0  0  0  0
 30 29  1  0  0  0  0
M  END
>  <MODEL>
4

>  <REMARK>
 VINA RESULT:      -4.9      3.013      6.640
  Name = 
  4 active torsions:
  status: ('A' for Active; 'I' for Inactive)
    1  A    between atoms: C_6  and  C_8
    2  A    between atoms: C_6  and  S_21
    3  A    between atoms: C_7  and  N_10
    4  A    between atoms: C_7  and  O_26
                            x       y       z     vdW  Elec       q    Type
                         _______ _______ _______ _____ _____    ______ ____

>  <TORSDO>
F 4

$$$$
=
 OpenBabel11052412343D

 30 34  0  0  1  0  0  0  0  0999 V2000
  187.2680  177.8220  145.8840 C   0  0  0  0  0  0  0  0  0  0  0  0
  188.1400  179.0820  147.3370 C   0  0  2  0  0  3  0  0  0  0  0  0
  191.8150  176.2330  146.2400 C   0  0  0  0  0  2  0  0  0  0  0  0
  189.6020  178.6940  143.3910 C   0  0  0  0  0  2  0  0  0  0  0  0
  186.7350  176.8540  144.9790 N   0  0  0  0  0  2  0  0  0  0  0  0
  187.3050  177.8780  142.6840 C   0  0  2  0  0  3  0  0  0  0  0  0
  187.1080  175.5470  143.1040 O   0  0  0  0  0  0  0  0  0  0  0  0
  191.5610  176.7130  142.4320 N   0  0  0  0  0  0  0  0  0  0  0  0
  191.8990  175.9970  144.7660 C   0  0  0  0  0  0  0  0  0  0  0  0
  187.0850  176.7030  143.6000 C   0  0  0  0  0  0  0  0  0  0  0  0
  188.7330  178.2180  142.2370 C   0  0  2  0  0  3  0  0  0  0  0  0
  188.8520  178.6010  148.6130 C   0  0  0  0  0  2  0  0  0  0  0  0
  190.3740  176.2710  141.8530 O   0  0  0  0  0  0  0  0  0  0  0  0
  186.5060  178.6240  147.3210 S   0  0  0  0  0  0  0  0  0  0  0  0
  190.4120  176.7020  146.6250 C   0  0  1  0  0  3  0  0  0  0  0  0
  189.1010  177.2190  148.5910 O   0  0  0  0  0  0  0  0  0  0  0  0
  188.5590  178.2780  146.1610 C   0  0  0  0  0  0  0  0  0  0  0  0
  190.0060  177.5160  144.2530 C   0  0  1  0  0  3  0  0  0  0  0  0
  192.3950  174.9680  144.3350 O   0  0  0  0  0  0  0  0  0  0  0  0
  191.4160  177.0840  143.8490 C   0  0  2  0  0  3  0  0  0  0  0  0
  188.7930  176.8430  140.2980 O   0  0  0  0  0  0  0  0  0  0  0  0
  190.4140  177.0800  148.1110 C   0  0  0  0  0  2  0  0  0  0  0  0
  189.9420  177.8790  145.7400 C   0  0  2  0  0  3  0  0  0  0  0  0
  189.3270  177.1030  141.4070 C   0  0  0  0  0  0  0  0  0  0  0  0
  186.2810  179.0100  142.7370 C   0  0  0  0  0  2  0  0  0  0  0  0
  184.0210  179.0990  144.0490 C   0  0  0  0  0  1  0  0  0  0  0  0
  184.5750  178.4420  142.4540 S   0  0  0  0  0  0  0  0  0  0  0  0
  192.1090  177.8420  141.6860 C   0  0  0  0  0  2  0  0  0  0  0  0
  193.5550  177.1280  140.1810 C   0  0  0  0  0  1  0  0  0  0  0  0
  192.2220  177.5050  140.3370 O   0  0  0  0  0  0  0  0  0  0  0  0
  1 17  2  0  0  0  0
  1 14  1  0  0  0  0
  2 12  1  1  0  0  0
  5  1  1  0  0  0  0
  6 25  1  1  0  0  0
  6 10  1  0  0  0  0
  7 10  2  0  0  0  0
  8 20  1  0  0  0  0
  9  3  1  0  0  0  0
 10  5  1  0  0  0  0
 11  6  1  0  0  0  0
 11  4  1  1  0  0  0
 13  8  1  0  0  0  0
 14  2  1  0  0  0  0
 15  3  1  6  0  0  0
 15 22  1  0  0  0  0
 16 12  1  0  0  0  0
 17  2  1  0  0  0  0
 18  4  1  6  0  0  0
 18 23  1  0  0  0  0
 19  9  2  0  0  0  0
 20 18  1  0  0  0  0
 20  9  1  1  0  0  0
 21 24  2  0  0  0  0
 22 16  1  0  0  0  0
 23 17  1  1  0  0  0
 23 15  1  0  0  0  0
 24 13  1  0  0  0  0
 24 11  1  0  0  0  0
 27 25  1  0  0  0  0
 27 26  1  0  0  0  0
 28  8  1  0  0  0  0
 29 30  1  0  0  0  0
 30 28  1  0  0  0  0
M  END
>  <MODEL>
5

>  <REMARK>
 VINA RESULT:      -4.7      5.502      9.020
  Name = 
  4 active torsions:
  status: ('A' for Active; 'I' for Inactive)
    1  A    between atoms: C_6  and  C_8
    2  A    between atoms: C_6  and  S_21
    3  A    between atoms: C_7  and  N_10
    4  A    between atoms: C_7  and  O_26
                            x       y       z     vdW  Elec       q    Type
                         _______ _______ _______ _____ _____    ______ ____

>  <TORSDO>
F 4

$$$$
=
 OpenBabel11052412343D

 30 34  0  0  1  0  0  0  0  0999 V2000
  190.3590  176.8440  136.0270 C   0  0  0  0  0  0  0  0  0  0  0  0
  191.4000  175.0090  135.9630 C   0  0  2  0  0  3  0  0  0  0  0  0
  193.0300  176.8660  140.0520 C   0  0  0  0  0  2  0  0  0  0  0  0
  188.8270  176.1320  139.1210 C   0  0  0  0  0  2  0  0  0  0  0  0
  189.7870  178.1510  136.1010 N   0  0  0  0  0  2  0  0  0  0  0  0
  187.6840  177.7510  137.5350 C   0  0  2  0  0  3  0  0  0  0  0  0
  188.8890  179.7980  137.4590 O   0  0  0  0  0  0  0  0  0  0  0  0
  189.5690  177.6540  141.5320 N   0  0  0  0  0  0  0  0  0  0  0  0
  191.9290  177.5020  140.8370 C   0  0  0  0  0  0  0  0  0  0  0  0
  188.8320  178.6050  137.0650 C   0  0  0  0  0  0  0  0  0  0  0  0
  187.7230  177.1650  138.9530 C   0  0  2  0  0  3  0  0  0  0  0  0
  192.9270  174.8540  136.0560 C   0  0  0  0  0  2  0  0  0  0  0  0
  188.8090  178.5740  140.8140 O   0  0  0  0  0  0  0  0  0  0  0  0
  190.9440  175.9020  134.5940 S   0  0  0  0  0  0  0  0  0  0  0  0
  192.6270  176.7290  138.5830 C   0  0  1  0  0  3  0  0  0  0  0  0
  193.5560  176.0440  136.4580 O   0  0  0  0  0  0  0  0  0  0  0  0
  190.9020  175.9740  136.9750 C   0  0  0  0  0  0  0  0  0  0  0  0
  190.1700  176.8240  139.2240 C   0  0  1  0  0  3  0  0  0  0  0  0
  192.1710  178.4230  141.6010 O   0  0  0  0  0  0  0  0  0  0  0  0
  190.5460  176.9320  140.7020 C   0  0  2  0  0  3  0  0  0  0  0  0
  186.6790  178.9820  140.0760 O   0  0  0  0  0  0  0  0  0  0  0  0
  193.7140  175.9360  137.8490 C   0  0  0  0  0  2  0  0  0  0  0  0
  191.2390  176.0640  138.4330 C   0  0  2  0  0  3  0  0  0  0  0  0
  187.7040  178.2560  139.9980 C   0  0  0  0  0  0  0  0  0  0  0  0
  186.8840  177.0020  136.4710 C   0  0  0  0  0  2  0  0  0  0  0  0
  185.3380  175.0210  137.1910 C   0  0  0  0  0  1  0  0  0  0  0  0
  185.1300  176.7990  136.9100 S   0  0  0  0  0  0  0  0  0  0  0  0
  188.7070  176.6960  142.2170 C   0  0  0  0  0  2  0  0  0  0  0  0
  189.1650  177.4160  144.2520 C   0  0  0  0  0  1  0  0  0  0  0  0
  189.2990  176.3060  143.4190 O   0  0  0  0  0  0  0  0  0  0  0  0
  1  5  1  0  0  0  0
  1 17  2  0  0  0  0
  2 12  1  1  0  0  0
  2 17  1  0  0  0  0
  3  9  1  0  0  0  0
  5 10  1  0  0  0  0
  6 25  1  6  0  0  0
  6 11  1  0  0  0  0
  8 28  1  0  0  0  0
  9 19  2  0  0  0  0
 10  7  2  0  0  0  0
 10  6  1  0  0  0  0
 11  4  1  6  0  0  0
 11 24  1  0  0  0  0
 12 16  1  0  0  0  0
 13  8  1  0  0  0  0
 14  2  1  0  0  0  0
 14  1  1  0  0  0  0
 15 22  1  6  0  0  0
 15  3  1  0  0  0  0
 16 22  1  0  0  0  0
 18  4  1  1  0  0  0
 18 20  1  0  0  0  0
 20  9  1  6  0  0  0
 20  8  1  0  0  0  0
 23 17  1  6  0  0  0
 23 15  1  0  0  0  0
 23 18  1  0  0  0  0
 24 21  2  0  0  0  0
 24 13  1  0  0  0  0
 25 27  1  0  0  0  0
 27 26  1  0  0  0  0
 28 30  1  0  0  0  0
 30 29  1  0  0  0  0
M  END
>  <MODEL>
6

>  <REMARK>
 VINA RESULT:      -4.7      5.987      8.869
  Name = 
  4 active torsions:
  status: ('A' for Active; 'I' for Inactive)
    1  A    between atoms: C_6  and  C_8
    2  A    between atoms: C_6  and  S_21
    3  A    between atoms: C_7  and  N_10
    4  A    between atoms: C_7  and  O_26
                            x       y       z     vdW  Elec       q    Type
                         _______ _______ _______ _____ _____    ______ ____

>  <TORSDO>
F 4

$$$$
=
 OpenBabel11052412343D

 30 34  0  0  1  0  0  0  0  0999 V2000
  182.0790  175.4180  136.3320 C   0  0  0  0  0  0  0  0  0  0  0  0
  183.6980  174.1280  136.7490 C   0  0  2  0  0  3  0  0  0  0  0  0
  185.4070  178.3080  138.3070 C   0  0  0  0  0  2  0  0  0  0  0  0
  181.7170  176.4260  139.6900 C   0  0  0  0  0  2  0  0  0  0  0  0
  181.0840  176.3830  135.9860 N   0  0  0  0  0  2  0  0  0  0  0  0
  179.7010  176.5460  138.1530 C   0  0  2  0  0  3  0  0  0  0  0  0
  179.9730  178.3200  136.5960 O   0  0  0  0  0  0  0  0  0  0  0  0
  182.3650  179.1870  140.4910 N   0  0  0  0  0  0  0  0  0  0  0  0
  184.3660  179.0770  139.0550 C   0  0  0  0  0  0  0  0  0  0  0  0
  180.2860  177.1410  136.9000 C   0  0  0  0  0  0  0  0  0  0  0  0
  180.2960  176.9380  139.5130 C   0  0  2  0  0  3  0  0  0  0  0  0
  185.1420  174.3360  136.2640 C   0  0  0  0  0  2  0  0  0  0  0  0
  181.1640  179.3440  139.8040 O   0  0  0  0  0  0  0  0  0  0  0  0
  182.6240  173.9310  135.4500 S   0  0  0  0  0  0  0  0  0  0  0  0
  184.7520  177.2550  137.4130 C   0  0  1  0  0  3  0  0  0  0  0  0
  185.3420  175.6200  135.7310 O   0  0  0  0  0  0  0  0  0  0  0  0
  183.1220  175.3970  137.2610 C   0  0  0  0  0  0  0  0  0  0  0  0
  182.6740  177.2700  138.8750 C   0  0  1  0  0  3  0  0  0  0  0  0
  184.4090  180.2960  139.0920 O   0  0  0  0  0  0  0  0  0  0  0  0
  183.3180  178.3010  139.8020 C   0  0  2  0  0  3  0  0  0  0  0  0
  178.9320  178.8420  139.9190 O   0  0  0  0  0  0  0  0  0  0  0  0
  185.8540  176.3910  136.7870 C   0  0  0  0  0  2  0  0  0  0  0  0
  183.7340  176.3960  138.1970 C   0  0  2  0  0  3  0  0  0  0  0  0
  180.1070  178.4110  139.7900 C   0  0  0  0  0  0  0  0  0  0  0  0
  179.0220  175.1830  138.0330 C   0  0  0  0  0  2  0  0  0  0  0  0
  180.0740  172.7900  138.0830 C   0  0  0  0  0  1  0  0  0  0  0  0
  179.5500  174.0080  139.3180 S   0  0  0  0  0  0  0  0  0  0  0  0
  182.1250  178.6890  141.8420 C   0  0  0  0  0  2  0  0  0  0  0  0
  183.2110  179.1050  143.7170 C   0  0  0  0  0  1  0  0  0  0  0  0
  183.3430  178.4660  142.4850 O   0  0  0  0  0  0  0  0  0  0  0  0
  1 17  2  0  0  0  0
  2 12  1  6  0  0  0
  2 17  1  0  0  0  0
  3  9  1  0  0  0  0
  5  1  1  0  0  0  0
  5 10  1  0  0  0  0
  6 25  1  6  0  0  0
  6 11  1  0  0  0  0
  7 10  2  0  0  0  0
  8 28  1  0  0  0  0
  9 19  2  0  0  0  0
 10  6  1  0  0  0  0
 11  4  1  6  0  0  0
 11 24  1  0  0  0  0
 13  8  1  0  0  0  0
 14  1  1  0  0  0  0
 14  2  1  0  0  0  0
 15 22  1  1  0  0  0
 15 23  1  0  0  0  0
 15  3  1  0  0  0  0
 16 12  1  0  0  0  0
 16 22  1  0  0  0  0
 18  4  1  1  0  0  0
 18 20  1  0  0  0  0
 20  9  1  6  0  0  0
 20  8  1  0  0  0  0
 23 17  1  6  0  0  0
 23 18  1  0  0  0  0
 24 13  1  0  0  0  0
 24 21  2  0  0  0  0
 25 27  1  0  0  0  0
 26 27  1  0  0  0  0
 28 30  1  0  0  0  0
 30 29  1  0  0  0  0
M  END
>  <MODEL>
7

>  <REMARK>
 VINA RESULT:      -4.6      2.573      5.702
  Name = 
  4 active torsions:
  status: ('A' for Active; 'I' for Inactive)
    1  A    between atoms: C_6  and  C_8
    2  A    between atoms: C_6  and  S_21
    3  A    between atoms: C_7  and  N_10
    4  A    between atoms: C_7  and  O_26
                            x       y       z     vdW  Elec       q    Type
                         _______ _______ _______ _____ _____    ______ ____

>  <TORSDO>
F 4

$$$$
=
 OpenBabel11052412343D

 30 34  0  0  1  0  0  0  0  0999 V2000
  181.5790  175.8370  137.8880 C   0  0  0  0  0  0  0  0  0  0  0  0
  180.3920  177.5800  137.9690 C   0  0  2  0  0  3  0  0  0  0  0  0
  184.2820  178.9880  140.3570 C   0  0  0  0  0  2  0  0  0  0  0  0
  184.2580  177.4570  136.2670 C   0  0  0  0  0  2  0  0  0  0  0  0
  182.4040  174.6740  137.9810 N   0  0  0  0  0  2  0  0  0  0  0  0
  183.9780  174.9530  135.9610 C   0  0  2  0  0  3  0  0  0  0  0  0
  184.5560  173.8220  137.9690 O   0  0  0  0  0  0  0  0  0  0  0  0
  186.8100  177.8820  137.6770 N   0  0  0  0  0  0  0  0  0  0  0  0
  185.5320  178.5140  139.6880 C   0  0  0  0  0  0  0  0  0  0  0  0
  183.6800  174.4890  137.3630 C   0  0  0  0  0  0  0  0  0  0  0  0
  184.8900  176.1710  135.7570 C   0  0  2  0  0  3  0  0  0  0  0  0
  179.9970  178.3230  139.2560 C   0  0  0  0  0  2  0  0  0  0  0  0
  186.8340  176.5150  137.4090 O   0  0  0  0  0  0  0  0  0  0  0  0
  179.7750  176.0000  137.9440 S   0  0  0  0  0  0  0  0  0  0  0  0
  183.0860  178.1510  139.9040 C   0  0  1  0  0  3  0  0  0  0  0  0
  180.7280  177.8780  140.3690 O   0  0  0  0  0  0  0  0  0  0  0  0
  181.8280  177.2080  137.9910 C   0  0  0  0  0  0  0  0  0  0  0  0
  184.3160  177.4960  137.7790 C   0  0  1  0  0  3  0  0  0  0  0  0
  186.5440  178.3190  140.3420 O   0  0  0  0  0  0  0  0  0  0  0  0
  185.5140  178.3500  138.1950 C   0  0  2  0  0  3  0  0  0  0  0  0
  186.9620  175.0080  135.6890 O   0  0  0  0  0  0  0  0  0  0  0  0
  181.8090  178.7660  140.4900 C   0  0  0  0  0  2  0  0  0  0  0  0
  183.0120  178.0490  138.3630 C   0  0  2  0  0  3  0  0  0  0  0  0
  186.2870  175.9010  136.2640 C   0  0  0  0  0  0  0  0  0  0  0  0
  182.9400  174.6450  134.8840 C   0  0  0  0  0  2  0  0  0  0  0  0
  180.8330  173.1110  135.0950 C   0  0  0  0  0  1  0  0  0  0  0  0
  182.5890  172.8670  134.7210 S   0  0  0  0  0  0  0  0  0  0  0  0
  187.1650  178.6480  136.4860 C   0  0  0  0  0  2  0  0  0  0  0  0
  189.0550  179.1360  137.5130 C   0  0  0  0  0  1  0  0  0  0  0  0
  187.9810  179.7210  136.8430 O   0  0  0  0  0  0  0  0  0  0  0  0
  1 14  1  0  0  0  0
  1  5  1  0  0  0  0
  1 17  2  0  0  0  0
  2 17  1  0  0  0  0
  2 12  1  1  0  0  0
  6 25  1  1  0  0  0
  6 10  1  0  0  0  0
  8 20  1  0  0  0  0
  9 19  2  0  0  0  0
  9  3  1  0  0  0  0
 10  7  2  0  0  0  0
 10  5  1  0  0  0  0
 11  6  1  0  0  0  0
 11 24  1  0  0  0  0
 11  4  1  1  0  0  0
 12 16  1  0  0  0  0
 13  8  1  0  0  0  0
 14  2  1  0  0  0  0
 15  3  1  6  0  0  0
 15 22  1  0  0  0  0
 16 22  1  0  0  0  0
 18  4  1  6  0  0  0
 18 20  1  0  0  0  0
 18 23  1  0  0  0  0
 20  9  1  1  0  0  0
 21 24  2  0  0  0  0
 23 17  1  1  0  0  0
 23 15  1  0  0  0  0
 24 13  1  0  0  0  0
 27 25  1  0  0  0  0
 27 26  1  0  0  0  0
 28 30  1  0  0  0  0
 28  8  1  0  0  0  0
 30 29  1  0  0  0  0
M  END
>  <MODEL>
8

>  <REMARK>
 VINA RESULT:      -4.6      3.419      6.437
  Name = 
  4 active torsions:
  status: ('A' for Active; 'I' for Inactive)
    1  A    between atoms: C_6  and  C_8
    2  A    between atoms: C_6  and  S_21
    3  A    between atoms: C_7  and  N_10
    4  A    between atoms: C_7  and  O_26
                            x       y       z     vdW  Elec       q    Type
                         _______ _______ _______ _____ _____    ______ ____

>  <TORSDO>
F 4

$$$$
=
 OpenBabel11052412343D

 30 34  0  0  1  0  0  0  0  0999 V2000
  182.2970  174.7110  136.7020 C   0  0  0  0  0  0  0  0  0  0  0  0
  181.0370  176.2060  135.9070 C   0  0  2  0  0  3  0  0  0  0  0  0
  183.9570  178.8080  138.6510 C   0  0  0  0  0  2  0  0  0  0  0  0
  185.2330  176.1720  135.4110 C   0  0  0  0  0  2  0  0  0  0  0  0
  183.1250  173.7610  137.3760 N   0  0  0  0  0  2  0  0  0  0  0  0
  185.2070  173.6750  135.8610 C   0  0  2  0  0  3  0  0  0  0  0  0
  185.2320  173.2720  138.2030 O   0  0  0  0  0  0  0  0  0  0  0  0
  187.2250  177.3620  137.2280 N   0  0  0  0  0  0  0  0  0  0  0  0
  185.3740  178.3520  138.5210 C   0  0  0  0  0  0  0  0  0  0  0  0
  184.5360  173.5980  137.2070 C   0  0  0  0  0  0  0  0  0  0  0  0
  186.0630  174.9030  135.5240 C   0  0  2  0  0  3  0  0  0  0  0  0
  180.2360  177.2220  136.7370 C   0  0  0  0  0  2  0  0  0  0  0  0
  187.4090  175.9960  137.4280 O   0  0  0  0  0  0  0  0  0  0  0  0
  180.5500  174.6130  136.2280 S   0  0  0  0  0  0  0  0  0  0  0  0
  182.9990  177.7070  138.1930 C   0  0  1  0  0  3  0  0  0  0  0  0
  180.6300  177.2330  138.0850 O   0  0  0  0  0  0  0  0  0  0  0  0
  182.4230  176.0740  136.4230 C   0  0  0  0  0  0  0  0  0  0  0  0
  184.8390  176.6560  136.7910 C   0  0  1  0  0  3  0  0  0  0  0  0
  186.1580  178.5080  139.4450 O   0  0  0  0  0  0  0  0  0  0  0  0
  185.8080  177.7620  137.2100 C   0  0  2  0  0  3  0  0  0  0  0  0
  188.1290  174.0920  136.3780 O   0  0  0  0  0  0  0  0  0  0  0  0
  181.5720  178.2680  138.1950 C   0  0  0  0  0  2  0  0  0  0  0  0
  183.3910  177.1540  136.8030 C   0  0  2  0  0  3  0  0  0  0  0  0
  187.2620  175.0020  136.4380 C   0  0  0  0  0  0  0  0  0  0  0  0
  184.5530  172.9170  134.7060 C   0  0  0  0  0  2  0  0  0  0  0  0
  186.3770  171.1000  135.1620 C   0  0  0  0  0  1  0  0  0  0  0  0
  184.5790  171.1120  134.9350 S   0  0  0  0  0  0  0  0  0  0  0  0
  187.8700  177.7940  135.9920 C   0  0  0  0  0  2  0  0  0  0  0  0
  189.0850  179.0970  137.2930 C   0  0  0  0  0  1  0  0  0  0  0  0
  189.1870  178.1710  136.2560 O   0  0  0  0  0  0  0  0  0  0  0  0
  1  5  1  0  0  0  0
  2 14  1  0  0  0  0
  2 17  1  0  0  0  0
  2 12  1  1  0  0  0
  6 25  1  6  0  0  0
  6 10  1  0  0  0  0
  8 13  1  0  0  0  0
  9  3  1  0  0  0  0
  9 19  2  0  0  0  0
 10  5  1  0  0  0  0
 10  7  2  0  0  0  0
 11  4  1  1  0  0  0
 11  6  1  0  0  0  0
 11 24  1  0  0  0  0
 12 16  1  0  0  0  0
 14  1  1  0  0  0  0
 15 22  1  6  0  0  0
 15  3  1  0  0  0  0
 16 22  1  0  0  0  0
 17  1  2  0  0  0  0
 18  4  1  6  0  0  0
 18 23  1  0  0  0  0
 18 20  1  0  0  0  0
 20  8  1  0  0  0  0
 20  9  1  1  0  0  0
 21 24  2  0  0  0  0
 23 17  1  1  0  0  0
 23 15  1  0  0  0  0
 24 13  1  0  0  0  0
 25 27  1  0  0  0  0
 27 26  1  0  0  0  0
 28 30  1  0  0  0  0
 28  8  1  0  0  0  0
 30 29  1  0  0  0  0
M  END
>  <MODEL>
9

>  <REMARK>
 VINA RESULT:      -4.6      4.178      7.445
  Name = 
  4 active torsions:
  status: ('A' for Active; 'I' for Inactive)
    1  A    between atoms: C_6  and  C_8
    2  A    between atoms: C_6  and  S_21
    3  A    between atoms: C_7  and  N_10
    4  A    between atoms: C_7  and  O_26
                            x       y       z     vdW  Elec       q    Type
                         _______ _______ _______ _____ _____    ______ ____

>  <TORSDO>
F 4

$$$$
