=
 OpenBabel11052413503D

 27 30  0  0  1  0  0  0  0  0999 V2000
  188.3580  177.7020  142.2200 C   0  0  2  0  0  3  0  0  0  0  0  0
  188.6990  179.3270  140.6330 O   0  0  0  0  0  0  0  0  0  0  0  0
  187.7000  178.6010  141.2650 N   0  0  0  0  0  0  0  0  0  0  0  0
  188.0770  178.3910  139.8680 C   0  0  2  0  0  3  0  0  0  0  0  0
  189.7850  175.5650  137.9060 C   0  0  0  0  0  2  0  0  0  0  0  0
  191.0400  176.1970  137.8310 O   0  0  0  0  0  0  0  0  0  0  0  0
  188.7040  176.5890  138.2460 C   0  0  0  0  0  2  0  0  0  0  0  0
  191.3870  176.5690  139.1430 C   0  0  0  0  0  2  0  0  0  0  0  0
  190.4810  177.7050  139.6200 C   0  0  0  0  0  2  0  0  0  0  0  0
  189.0300  177.2240  139.5960 C   0  0  0  0  0  3  0  0  0  0  0  0
  187.9550  175.6090  143.3560 O   0  0  0  0  0  1  0  0  0  0  0  0
  187.3320  176.7560  142.8610 C   0  0  1  0  0  3  0  0  0  0  0  0
  185.1010  178.9840  145.8330 C   0  0  0  0  0  3  0  0  0  0  0  0
  183.1880  179.2320  144.3410 C   0  0  0  0  0  1  0  0  0  0  0  0
  185.3580  178.0630  143.5830 C   0  0  0  0  0  0  0  0  0  0  0  0
  184.9250  178.0900  142.2600 O   0  0  0  0  0  1  0  0  0  0  0  0
  186.4840  177.4080  143.9190 C   0  0  0  0  0  0  0  0  0  0  0  0
  184.5750  178.7710  144.6230 C   0  0  0  0  0  0  0  0  0  0  0  0
  186.8810  177.3050  145.3730 C   0  0  0  0  0  2  0  0  0  0  0  0
  186.5220  178.5890  146.1240 C   0  0  0  0  0  2  0  0  0  0  0  0
  189.1240  178.5000  143.2770 C   0  0  0  0  0  2  0  0  0  0  0  0
  191.9000  176.0010  145.3880 C   0  0  0  0  0  3  0  0  0  0  0  0
  190.0950  177.6390  144.0130 C   0  0  0  0  0  0  0  0  0  0  0  0
  190.8790  176.7160  143.3110 C   0  0  0  0  0  3  0  0  0  0  0  0
  191.7810  175.8990  143.9980 C   0  0  0  0  0  3  0  0  0  0  0  0
  191.1160  176.9220  146.0900 C   0  0  0  0  0  3  0  0  0  0  0  0
  190.2140  177.7400  145.4040 C   0  0  0  0  0  3  0  0  0  0  0  0
  1 12  1  0  0  0  0
  1 21  1  1  0  0  0
  2  3  1  0  0  0  0
  3  1  1  0  0  0  0
  4 10  1  1  0  0  0
  4  2  1  0  0  0  0
  4  3  1  0  0  0  0
  5  7  1  0  0  0  0
  6  5  1  0  0  0  0
  6  8  1  0  0  0  0
  7 10  1  0  0  0  0
  8  9  1  0  0  0  0
 10  9  1  0  0  0  0
 12 11  1  1  0  0  0
 12 17  1  0  0  0  0
 13 20  1  0  0  0  0
 14 18  1  0  0  0  0
 15 17  2  0  0  0  0
 15 18  1  0  0  0  0
 16 15  1  0  0  0  0
 17 19  1  0  0  0  0
 18 13  2  0  0  0  0
 19 20  1  0  0  0  0
 21 23  1  0  0  0  0
 22 26  1  0  0  0  0
 23 27  1  0  0  0  0
 24 25  1  0  0  0  0
 24 23  2  0  0  0  0
 25 22  2  0  0  0  0
 27 26  2  0  0  0  0
M  END
>  <MODEL>
1

>  <REMARK>
 VINA RESULT:      -7.8      0.000      0.000
  Name = 
  6 active torsions:
  status: ('A' for Active; 'I' for Inactive)
    1  A    between atoms: C_2  and  C_6
    2  A    between atoms: C_2  and  N_15
    3  A    between atoms: C_2  and  C_19
    4  A    between atoms: C_6  and  C_9
    5  A    between atoms: C_14  and  C_19
    6  A    between atoms: C_18  and  C_26
                            x       y       z     vdW  Elec       q    Type
                         _______ _______ _______ _____ _____    ______ ____

>  <TORSDO>
F 6

$$$$
=
 OpenBabel11052413503D

 27 30  0  0  1  0  0  0  0  0999 V2000
  189.2110  177.3270  143.4230 C   0  0  2  0  0  3  0  0  0  0  0  0
  187.6290  175.7240  143.8730 O   0  0  0  0  0  0  0  0  0  0  0  0
  188.1350  176.5110  142.8490 N   0  0  0  0  0  0  0  0  0  0  0  0
  186.8180  176.7280  143.4460 C   0  0  2  0  0  3  0  0  0  0  0  0
  185.3420  179.6580  145.4440 C   0  0  0  0  0  2  0  0  0  0  0  0
  185.1420  178.9230  146.6270 O   0  0  0  0  0  0  0  0  0  0  0  0
  185.5180  178.7070  144.2620 C   0  0  0  0  0  2  0  0  0  0  0  0
  186.3660  178.2970  146.9290 C   0  0  0  0  0  2  0  0  0  0  0  0
  186.6550  177.1960  145.9090 C   0  0  0  0  0  2  0  0  0  0  0  0
  186.7360  177.8200  144.5160 C   0  0  0  0  0  3  0  0  0  0  0  0
  190.7770  179.0800  142.8670 O   0  0  0  0  0  1  0  0  0  0  0  0
  189.5860  178.4700  142.4690 C   0  0  1  0  0  3  0  0  0  0  0  0
  189.6050  176.9160  138.4240 C   0  0  0  0  0  3  0  0  0  0  0  0
  187.6140  178.1910  137.8290 C   0  0  0  0  0  1  0  0  0  0  0  0
  188.5880  178.2310  140.2160 C   0  0  0  0  0  0  0  0  0  0  0  0
  187.4380  178.8580  140.6890 O   0  0  0  0  0  1  0  0  0  0  0  0
  189.6500  178.0570  141.0230 C   0  0  0  0  0  0  0  0  0  0  0  0
  188.6340  177.7450  138.8160 C   0  0  0  0  0  0  0  0  0  0  0  0
  190.9230  177.4670  140.4630 C   0  0  0  0  0  2  0  0  0  0  0  0
  190.6080  176.3960  139.4160 C   0  0  0  0  0  2  0  0  0  0  0  0
  190.4240  176.4610  143.7670 C   0  0  0  0  0  2  0  0  0  0  0  0
  191.4000  176.6940  147.9370 C   0  0  0  0  0  3  0  0  0  0  0  0
  190.7660  176.5510  145.2160 C   0  0  0  0  0  0  0  0  0  0  0  0
  191.8890  175.8780  145.7100 C   0  0  0  0  0  3  0  0  0  0  0  0
  192.2060  175.9500  147.0700 C   0  0  0  0  0  3  0  0  0  0  0  0
  190.2780  177.3670  147.4450 C   0  0  0  0  0  3  0  0  0  0  0  0
  189.9600  177.2960  146.0850 C   0  0  0  0  0  3  0  0  0  0  0  0
  1 21  1  6  0  0  0
  3  1  1  0  0  0  0
  3  4  1  0  0  0  0
  3  2  1  0  0  0  0
  4  2  1  0  0  0  0
  4 10  1  1  0  0  0
  5  6  1  0  0  0  0
  6  8  1  0  0  0  0
  7 10  1  0  0  0  0
  7  5  1  0  0  0  0
  9  8  1  0  0  0  0
 10  9  1  0  0  0  0
 12 11  1  1  0  0  0
 12  1  1  0  0  0  0
 13 18  2  0  0  0  0
 13 20  1  0  0  0  0
 14 18  1  0  0  0  0
 15 16  1  0  0  0  0
 15 17  2  0  0  0  0
 17 12  1  0  0  0  0
 18 15  1  0  0  0  0
 19 17  1  0  0  0  0
 20 19  1  0  0  0  0
 21 23  1  0  0  0  0
 23 24  2  0  0  0  0
 23 27  1  0  0  0  0
 24 25  1  0  0  0  0
 25 22  2  0  0  0  0
 26 22  1  0  0  0  0
 27 26  2  0  0  0  0
M  END
>  <MODEL>
2

>  <REMARK>
 VINA RESULT:      -7.5      1.638      5.787
  Name = 
  6 active torsions:
  status: ('A' for Active; 'I' for Inactive)
    1  A    between atoms: C_2  and  C_6
    2  A    between atoms: C_2  and  N_15
    3  A    between atoms: C_2  and  C_19
    4  A    between atoms: C_6  and  C_9
    5  A    between atoms: C_14  and  C_19
    6  A    between atoms: C_18  and  C_26
                            x       y       z     vdW  Elec       q    Type
                         _______ _______ _______ _____ _____    ______ ____

>  <TORSDO>
F 6

$$$$
=
 OpenBabel11052413503D

 27 30  0  0  1  0  0  0  0  0999 V2000
  188.6860  177.2150  141.6830 C   0  0  2  0  0  3  0  0  0  0  0  0
  190.5010  176.3420  140.5790 O   0  0  0  0  0  0  0  0  0  0  0  0
  190.0650  177.4730  141.2550 N   0  0  0  0  0  0  0  0  0  0  0  0
  190.2730  177.4370  139.8080 C   0  0  2  0  0  3  0  0  0  0  0  0
  187.6700  178.1030  137.0610 C   0  0  0  0  0  2  0  0  0  0  0  0
  188.0150  176.9850  136.2800 O   0  0  0  0  0  0  0  0  0  0  0  0
  188.7990  178.4240  138.0400 C   0  0  0  0  0  2  0  0  0  0  0  0
  187.9930  175.8680  137.1360 C   0  0  0  0  0  2  0  0  0  0  0  0
  189.1570  175.9430  138.1230 C   0  0  0  0  0  2  0  0  0  0  0  0
  189.0200  177.2210  138.9530 C   0  0  0  0  0  3  0  0  0  0  0  0
  188.2760  179.5610  141.2780 O   0  0  0  0  0  1  0  0  0  0  0  0
  188.0230  178.5140  142.1660 C   0  0  1  0  0  3  0  0  0  0  0  0
  183.7710  178.5400  142.9960 C   0  0  0  0  0  3  0  0  0  0  0  0
  183.2160  178.3850  140.6270 C   0  0  0  0  0  1  0  0  0  0  0  0
  185.6560  178.5550  141.4410 C   0  0  0  0  0  0  0  0  0  0  0  0
  186.0880  178.7970  140.1390 O   0  0  0  0  0  1  0  0  0  0  0  0
  186.5480  178.3790  142.4330 C   0  0  0  0  0  0  0  0  0  0  0  0
  184.2040  178.5020  141.7330 C   0  0  0  0  0  0  0  0  0  0  0  0
  186.0620  178.0180  143.8170 C   0  0  0  0  0  2  0  0  0  0  0  0
  184.7420  178.7250  144.1290 C   0  0  0  0  0  2  0  0  0  0  0  0
  188.6450  176.1290  142.7600 C   0  0  0  0  0  2  0  0  0  0  0  0
  191.1310  177.1170  146.1130 C   0  0  0  0  0  3  0  0  0  0  0  0
  189.5090  176.4820  143.9230 C   0  0  0  0  0  0  0  0  0  0  0  0
  190.8680  176.1500  143.9080 C   0  0  0  0  0  3  0  0  0  0  0  0
  191.6790  176.4680  145.0020 C   0  0  0  0  0  3  0  0  0  0  0  0
  189.7730  177.4490  146.1300 C   0  0  0  0  0  3  0  0  0  0  0  0
  188.9620  177.1320  145.0360 C   0  0  0  0  0  3  0  0  0  0  0  0
  1 12  1  0  0  0  0
  1 21  1  1  0  0  0
  2  3  1  0  0  0  0
  3  1  1  0  0  0  0
  4 10  1  6  0  0  0
  4  2  1  0  0  0  0
  4  3  1  0  0  0  0
  5  7  1  0  0  0  0
  6  5  1  0  0  0  0
  6  8  1  0  0  0  0
  7 10  1  0  0  0  0
  8  9  1  0  0  0  0
  9 10  1  0  0  0  0
 12 11  1  6  0  0  0
 12 17  1  0  0  0  0
 13 20  1  0  0  0  0
 14 18  1  0  0  0  0
 15 18  1  0  0  0  0
 15 17  2  0  0  0  0
 16 15  1  0  0  0  0
 17 19  1  0  0  0  0
 18 13  2  0  0  0  0
 19 20  1  0  0  0  0
 21 23  1  0  0  0  0
 22 26  1  0  0  0  0
 23 27  1  0  0  0  0
 24 23  2  0  0  0  0
 24 25  1  0  0  0  0
 25 22  2  0  0  0  0
 27 26  2  0  0  0  0
M  END
>  <MODEL>
3

>  <REMARK>
 VINA RESULT:      -7.3      1.767      2.545
  Name = 
  6 active torsions:
  status: ('A' for Active; 'I' for Inactive)
    1  A    between atoms: C_2  and  C_6
    2  A    between atoms: C_2  and  N_15
    3  A    between atoms: C_2  and  C_19
    4  A    between atoms: C_6  and  C_9
    5  A    between atoms: C_14  and  C_19
    6  A    between atoms: C_18  and  C_26
                            x       y       z     vdW  Elec       q    Type
                         _______ _______ _______ _____ _____    ______ ____

>  <TORSDO>
F 6

$$$$
=
 OpenBabel11052413503D

 27 30  0  0  1  0  0  0  0  0999 V2000
  188.4800  177.2250  141.7150 C   0  0  2  0  0  3  0  0  0  0  0  0
  190.2050  176.2870  140.5250 O   0  0  0  0  0  0  0  0  0  0  0  0
  189.8460  177.4320  141.2220 N   0  0  0  0  0  0  0  0  0  0  0  0
  189.9830  177.3920  139.7660 C   0  0  2  0  0  3  0  0  0  0  0  0
  187.2270  178.2230  137.2230 C   0  0  0  0  0  2  0  0  0  0  0  0
  187.5270  177.1610  136.3510 O   0  0  0  0  0  0  0  0  0  0  0  0
  188.4090  178.4860  138.1540 C   0  0  0  0  0  2  0  0  0  0  0  0
  187.5550  175.9900  137.1320 C   0  0  0  0  0  2  0  0  0  0  0  0
  188.7740  176.0060  138.0540 C   0  0  0  0  0  2  0  0  0  0  0  0
  188.6840  177.2260  138.9720 C   0  0  0  0  0  3  0  0  0  0  0  0
  188.5050  179.6370  141.5830 O   0  0  0  0  0  1  0  0  0  0  0  0
  187.8790  178.5520  142.2020 C   0  0  1  0  0  3  0  0  0  0  0  0
  183.5750  178.3720  141.7440 C   0  0  0  0  0  3  0  0  0  0  0  0
  183.2150  178.7440  144.1260 C   0  0  0  0  0  1  0  0  0  0  0  0
  185.5830  178.5390  143.1260 C   0  0  0  0  0  0  0  0  0  0  0  0
  186.1280  178.4310  144.4040 O   0  0  0  0  0  1  0  0  0  0  0  0
  186.3850  178.6350  142.0500 C   0  0  0  0  0  0  0  0  0  0  0  0
  184.1110  178.5380  142.9560 C   0  0  0  0  0  0  0  0  0  0  0  0
  185.7760  178.8530  140.6850 C   0  0  0  0  0  2  0  0  0  0  0  0
  184.4530  178.0960  140.5550 C   0  0  0  0  0  2  0  0  0  0  0  0
  188.4540  176.1600  142.8130 C   0  0  0  0  0  2  0  0  0  0  0  0
  191.2180  177.1100  145.9520 C   0  0  0  0  0  3  0  0  0  0  0  0
  189.4150  176.4810  143.9070 C   0  0  0  0  0  0  0  0  0  0  0  0
  188.9730  177.1630  145.0460 C   0  0  0  0  0  3  0  0  0  0  0  0
  189.8730  177.4760  146.0680 C   0  0  0  0  0  3  0  0  0  0  0  0
  191.6620  176.4300  144.8140 C   0  0  0  0  0  3  0  0  0  0  0  0
  190.7620  176.1150  143.7920 C   0  0  0  0  0  3  0  0  0  0  0  0
  1 12  1  0  0  0  0
  1 21  1  1  0  0  0
  2  3  1  0  0  0  0
  3  1  1  0  0  0  0
  4 10  1  6  0  0  0
  4  2  1  0  0  0  0
  4  3  1  0  0  0  0
  5  7  1  0  0  0  0
  6  8  1  0  0  0  0
  6  5  1  0  0  0  0
  7 10  1  0  0  0  0
  8  9  1  0  0  0  0
  9 10  1  0  0  0  0
 12 11  1  6  0  0  0
 13 18  2  0  0  0  0
 15 16  1  0  0  0  0
 17 12  1  0  0  0  0
 17 15  2  0  0  0  0
 18 15  1  0  0  0  0
 18 14  1  0  0  0  0
 19 17  1  0  0  0  0
 20 19  1  0  0  0  0
 20 13  1  0  0  0  0
 21 23  1  0  0  0  0
 22 25  1  0  0  0  0
 23 24  1  0  0  0  0
 24 25  2  0  0  0  0
 26 22  2  0  0  0  0
 27 23  2  0  0  0  0
 27 26  1  0  0  0  0
M  END
>  <MODEL>
4

>  <REMARK>
 VINA RESULT:      -7.3      1.805      2.968
  Name = 
  6 active torsions:
  status: ('A' for Active; 'I' for Inactive)
    1  A    between atoms: C_2  and  C_6
    2  A    between atoms: C_2  and  N_15
    3  A    between atoms: C_2  and  C_19
    4  A    between atoms: C_6  and  C_9
    5  A    between atoms: C_14  and  C_19
    6  A    between atoms: C_18  and  C_26
                            x       y       z     vdW  Elec       q    Type
                         _______ _______ _______ _____ _____    ______ ____

>  <TORSDO>
F 6

$$$$
=
 OpenBabel11052413503D

 27 30  0  0  1  0  0  0  0  0999 V2000
  186.8840  177.8920  142.7120 C   0  0  2  0  0  3  0  0  0  0  0  0
  185.7410  179.8620  142.4170 O   0  0  0  0  0  0  0  0  0  0  0  0
  185.9030  178.8080  143.3050 N   0  0  0  0  0  0  0  0  0  0  0  0
  184.6920  179.0040  142.5100 C   0  0  2  0  0  3  0  0  0  0  0  0
  183.0550  176.8490  139.7840 C   0  0  0  0  0  2  0  0  0  0  0  0
  183.1560  177.8200  138.7710 O   0  0  0  0  0  0  0  0  0  0  0  0
  183.2130  177.5050  141.1540 C   0  0  0  0  0  2  0  0  0  0  0  0
  184.4980  178.2430  138.7450 C   0  0  0  0  0  2  0  0  0  0  0  0
  184.8150  179.0530  140.0020 C   0  0  0  0  0  2  0  0  0  0  0  0
  184.5850  178.1710  141.2300 C   0  0  0  0  0  3  0  0  0  0  0  0
  187.6880  175.6300  142.9780 O   0  0  0  0  0  1  0  0  0  0  0  0
  187.1800  176.7300  143.6720 C   0  0  1  0  0  3  0  0  0  0  0  0
  189.7380  178.2020  146.8440 C   0  0  0  0  0  3  0  0  0  0  0  0
  187.9310  178.0880  148.4770 C   0  0  0  0  0  1  0  0  0  0  0  0
  187.5570  177.4990  145.9940 C   0  0  0  0  0  0  0  0  0  0  0  0
  186.1780  177.5030  146.1880 O   0  0  0  0  0  1  0  0  0  0  0  0
  188.0790  177.1040  144.8190 C   0  0  0  0  0  0  0  0  0  0  0  0
  188.4500  177.9440  147.0900 C   0  0  0  0  0  0  0  0  0  0  0  0
  189.5790  177.0110  144.6640 C   0  0  0  0  0  2  0  0  0  0  0  0
  190.2740  178.1300  145.4410 C   0  0  0  0  0  2  0  0  0  0  0  0
  188.1610  178.6400  142.3250 C   0  0  0  0  0  2  0  0  0  0  0  0
  189.8880  177.0860  138.7190 C   0  0  0  0  0  3  0  0  0  0  0  0
  188.7550  178.0930  141.0710 C   0  0  0  0  0  0  0  0  0  0  0  0
  189.9860  177.4300  141.1150 C   0  0  0  0  0  3  0  0  0  0  0  0
  190.5520  176.9260  139.9400 C   0  0  0  0  0  3  0  0  0  0  0  0
  188.6580  177.7490  138.6740 C   0  0  0  0  0  3  0  0  0  0  0  0
  188.0910  178.2530  139.8480 C   0  0  0  0  0  3  0  0  0  0  0  0
  1 21  1  1  0  0  0
  1  3  1  0  0  0  0
  1 12  1  0  0  0  0
  2  4  1  0  0  0  0
  2  3  1  0  0  0  0
  4 10  1  6  0  0  0
  4  3  1  0  0  0  0
  5  7  1  0  0  0  0
  6  5  1  0  0  0  0
  7 10  1  0  0  0  0
  8  6  1  0  0  0  0
  8  9  1  0  0  0  0
  9 10  1  0  0  0  0
 12 11  1  6  0  0  0
 12 17  1  0  0  0  0
 13 18  2  0  0  0  0
 15 16  1  0  0  0  0
 15 18  1  0  0  0  0
 17 15  2  0  0  0  0
 18 14  1  0  0  0  0
 19 17  1  0  0  0  0
 19 20  1  0  0  0  0
 20 13  1  0  0  0  0
 22 25  1  0  0  0  0
 23 24  1  0  0  0  0
 23 21  1  0  0  0  0
 25 24  2  0  0  0  0
 26 22  2  0  0  0  0
 26 27  1  0  0  0  0
 27 23  2  0  0  0  0
M  END
>  <MODEL>
5

>  <REMARK>
 VINA RESULT:      -7.3      2.257      4.831
  Name = 
  6 active torsions:
  status: ('A' for Active; 'I' for Inactive)
    1  A    between atoms: C_2  and  C_6
    2  A    between atoms: C_2  and  N_15
    3  A    between atoms: C_2  and  C_19
    4  A    between atoms: C_6  and  C_9
    5  A    between atoms: C_14  and  C_19
    6  A    between atoms: C_18  and  C_26
                            x       y       z     vdW  Elec       q    Type
                         _______ _______ _______ _____ _____    ______ ____

>  <TORSDO>
F 6

$$$$
=
 OpenBabel11052413503D

 27 30  0  0  1  0  0  0  0  0999 V2000
  189.5130  177.4180  142.3780 C   0  0  2  0  0  3  0  0  0  0  0  0
  189.4320  175.6640  140.8970 O   0  0  0  0  0  0  0  0  0  0  0  0
  190.3150  176.4430  141.6310 N   0  0  0  0  0  0  0  0  0  0  0  0
  190.1880  176.5330  140.1770 C   0  0  2  0  0  3  0  0  0  0  0  0
  189.0550  179.3780  137.8570 C   0  0  0  0  0  2  0  0  0  0  0  0
  187.9300  178.6980  137.3560 O   0  0  0  0  0  0  0  0  0  0  0  0
  190.0230  178.3840  138.4980 C   0  0  0  0  0  2  0  0  0  0  0  0
  187.1980  178.2470  138.4700 C   0  0  0  0  0  2  0  0  0  0  0  0
  187.9610  177.1290  139.1790 C   0  0  0  0  0  2  0  0  0  0  0  0
  189.3120  177.6710  139.6470 C   0  0  0  0  0  3  0  0  0  0  0  0
  190.1300  179.6150  143.1690 O   0  0  0  0  0  1  0  0  0  0  0  0
  190.4100  178.2540  143.3030 C   0  0  1  0  0  3  0  0  0  0  0  0
  189.9670  176.7540  147.3440 C   0  0  0  0  0  3  0  0  0  0  0  0
  192.0550  175.5020  147.2040 C   0  0  0  0  0  1  0  0  0  0  0  0
  191.1340  176.8350  145.1980 C   0  0  0  0  0  0  0  0  0  0  0  0
  192.0560  176.2230  144.3510 O   0  0  0  0  0  1  0  0  0  0  0  0
  190.3530  177.8330  144.7460 C   0  0  0  0  0  0  0  0  0  0  0  0
  191.0110  176.3740  146.6010 C   0  0  0  0  0  0  0  0  0  0  0  0
  189.4320  178.5510  145.7060 C   0  0  0  0  0  2  0  0  0  0  0  0
  188.8640  177.5780  146.7410 C   0  0  0  0  0  2  0  0  0  0  0  0
  188.3970  176.7200  143.1580 C   0  0  0  0  0  2  0  0  0  0  0  0
  184.8390  179.1130  143.2490 C   0  0  0  0  0  3  0  0  0  0  0  0
  187.1550  177.5440  143.1880 C   0  0  0  0  0  0  0  0  0  0  0  0
  186.8400  178.3700  142.1040 C   0  0  0  0  0  3  0  0  0  0  0  0
  185.6820  179.1540  142.1340 C   0  0  0  0  0  3  0  0  0  0  0  0
  185.1530  178.2890  144.3340 C   0  0  0  0  0  3  0  0  0  0  0  0
  186.3100  177.5040  144.3040 C   0  0  0  0  0  3  0  0  0  0  0  0
  1 21  1  1  0  0  0
  1 12  1  0  0  0  0
  2  3  1  0  0  0  0
  3  1  1  0  0  0  0
  4 10  1  1  0  0  0
  4  2  1  0  0  0  0
  4  3  1  0  0  0  0
  5  7  1  0  0  0  0
  6  5  1  0  0  0  0
  6  8  1  0  0  0  0
  7 10  1  0  0  0  0
  8  9  1  0  0  0  0
  9 10  1  0  0  0  0
 12 11  1  1  0  0  0
 12 17  1  0  0  0  0
 15 18  1  0  0  0  0
 16 15  1  0  0  0  0
 17 15  2  0  0  0  0
 17 19  1  0  0  0  0
 18 14  1  0  0  0  0
 18 13  2  0  0  0  0
 19 20  1  0  0  0  0
 20 13  1  0  0  0  0
 21 23  1  0  0  0  0
 22 26  1  0  0  0  0
 23 27  1  0  0  0  0
 24 25  1  0  0  0  0
 24 23  2  0  0  0  0
 25 22  2  0  0  0  0
 27 26  2  0  0  0  0
M  END
>  <MODEL>
6

>  <REMARK>
 VINA RESULT:      -7.0      2.013      4.898
  Name = 
  6 active torsions:
  status: ('A' for Active; 'I' for Inactive)
    1  A    between atoms: C_2  and  C_6
    2  A    between atoms: C_2  and  N_15
    3  A    between atoms: C_2  and  C_19
    4  A    between atoms: C_6  and  C_9
    5  A    between atoms: C_14  and  C_19
    6  A    between atoms: C_18  and  C_26
                            x       y       z     vdW  Elec       q    Type
                         _______ _______ _______ _____ _____    ______ ____

>  <TORSDO>
F 6

$$$$
=
 OpenBabel11052413503D

 27 30  0  0  1  0  0  0  0  0999 V2000
  188.5310  177.5470  144.2520 C   0  0  2  0  0  3  0  0  0  0  0  0
  187.4350  177.9520  146.2290 O   0  0  0  0  0  0  0  0  0  0  0  0
  187.8180  176.9280  145.3750 N   0  0  0  0  0  0  0  0  0  0  0  0
  186.4300  177.3620  145.5310 C   0  0  2  0  0  3  0  0  0  0  0  0
  184.5270  178.5220  142.4020 C   0  0  0  0  0  2  0  0  0  0  0  0
  183.5610  179.2660  143.1050 O   0  0  0  0  0  0  0  0  0  0  0  0
  185.2180  177.5400  143.3470 C   0  0  0  0  0  2  0  0  0  0  0  0
  184.2620  180.1280  143.9690 C   0  0  0  0  0  2  0  0  0  0  0  0
  184.9240  179.3230  145.0860 C   0  0  0  0  0  2  0  0  0  0  0  0
  185.9020  178.3250  144.4650 C   0  0  0  0  0  3  0  0  0  0  0  0
  187.9380  175.4430  143.2260 O   0  0  0  0  0  1  0  0  0  0  0  0
  188.8500  176.4990  143.1760 C   0  0  1  0  0  3  0  0  0  0  0  0
  189.3200  178.4520  139.3380 C   0  0  0  0  0  3  0  0  0  0  0  0
  191.1610  176.9810  138.7130 C   0  0  0  0  0  1  0  0  0  0  0  0
  190.0260  176.8290  141.0230 C   0  0  0  0  0  0  0  0  0  0  0  0
  191.0470  176.0030  141.4850 O   0  0  0  0  0  1  0  0  0  0  0  0
  188.9420  177.0650  141.7850 C   0  0  0  0  0  0  0  0  0  0  0  0
  190.1430  177.4600  139.6870 C   0  0  0  0  0  0  0  0  0  0  0  0
  187.8010  177.8810  141.2250 C   0  0  0  0  0  2  0  0  0  0  0  0
  188.3270  179.0000  140.3250 C   0  0  0  0  0  2  0  0  0  0  0  0
  189.7960  178.2570  144.7370 C   0  0  0  0  0  2  0  0  0  0  0  0
  192.2350  175.6280  147.0900 C   0  0  0  0  0  3  0  0  0  0  0  0
  190.6500  177.3510  145.5570 C   0  0  0  0  0  0  0  0  0  0  0  0
  191.4340  176.3760  144.9300 C   0  0  0  0  0  3  0  0  0  0  0  0
  192.2270  175.5160  145.6960 C   0  0  0  0  0  3  0  0  0  0  0  0
  191.4520  176.6010  147.7180 C   0  0  0  0  0  3  0  0  0  0  0  0
  190.6590  177.4620  146.9530 C   0  0  0  0  0  3  0  0  0  0  0  0
  1 21  1  1  0  0  0
  1  3  1  0  0  0  0
  3  4  1  0  0  0  0
  3  2  1  0  0  0  0
  4 10  1  6  0  0  0
  4  2  1  0  0  0  0
  5  6  1  0  0  0  0
  5  7  1  0  0  0  0
  6  8  1  0  0  0  0
  7 10  1  0  0  0  0
  8  9  1  0  0  0  0
 10  9  1  0  0  0  0
 12 11  1  6  0  0  0
 12  1  1  0  0  0  0
 13 18  2  0  0  0  0
 13 20  1  0  0  0  0
 14 18  1  0  0  0  0
 15 16  1  0  0  0  0
 15 17  2  0  0  0  0
 17 12  1  0  0  0  0
 18 15  1  0  0  0  0
 19 17  1  0  0  0  0
 20 19  1  0  0  0  0
 21 23  1  0  0  0  0
 22 26  1  0  0  0  0
 23 27  1  0  0  0  0
 24 23  2  0  0  0  0
 24 25  1  0  0  0  0
 25 22  2  0  0  0  0
 27 26  2  0  0  0  0
M  END
>  <MODEL>
7

>  <REMARK>
 VINA RESULT:      -6.9      1.786      5.602
  Name = 
  6 active torsions:
  status: ('A' for Active; 'I' for Inactive)
    1  A    between atoms: C_2  and  C_6
    2  A    between atoms: C_2  and  N_15
    3  A    between atoms: C_2  and  C_19
    4  A    between atoms: C_6  and  C_9
    5  A    between atoms: C_14  and  C_19
    6  A    between atoms: C_18  and  C_26
                            x       y       z     vdW  Elec       q    Type
                         _______ _______ _______ _____ _____    ______ ____

>  <TORSDO>
F 6

$$$$
=
 OpenBabel11052413503D

 27 30  0  0  1  0  0  0  0  0999 V2000
  184.3710  178.6580  140.8520 C   0  0  2  0  0  3  0  0  0  0  0  0
  184.9240  180.1260  139.1750 O   0  0  0  0  0  0  0  0  0  0  0  0
  183.8380  179.5760  139.8390 N   0  0  0  0  0  0  0  0  0  0  0  0
  184.1870  179.2360  138.4610 C   0  0  2  0  0  3  0  0  0  0  0  0
  185.1780  175.8580  136.9230 C   0  0  0  0  0  2  0  0  0  0  0  0
  186.3940  176.3130  136.3790 O   0  0  0  0  0  0  0  0  0  0  0  0
  184.2750  177.0460  137.2480 C   0  0  0  0  0  2  0  0  0  0  0  0
  187.0960  176.9430  137.4240 C   0  0  0  0  0  2  0  0  0  0  0  0
  186.4030  178.2510  137.8050 C   0  0  0  0  0  2  0  0  0  0  0  0
  184.9790  177.9400  138.2670 C   0  0  0  0  0  3  0  0  0  0  0  0
  183.1390  178.6300  142.9290 O   0  0  0  0  0  1  0  0  0  0  0  0
  183.2270  178.0370  141.6680 C   0  0  1  0  0  3  0  0  0  0  0  0
  179.5860  178.3170  139.3360 C   0  0  0  0  0  3  0  0  0  0  0  0
  179.7740  176.0000  138.6000 C   0  0  0  0  0  1  0  0  0  0  0  0
  181.5710  177.1020  140.0830 C   0  0  0  0  0  0  0  0  0  0  0  0
  182.4330  176.0320  139.8570 O   0  0  0  0  0  1  0  0  0  0  0  0
  181.8970  178.0640  140.9660 C   0  0  0  0  0  0  0  0  0  0  0  0
  180.2940  177.1830  139.3370 C   0  0  0  0  0  0  0  0  0  0  0  0
  180.9040  179.1620  141.2720 C   0  0  0  0  0  2  0  0  0  0  0  0
  180.1200  179.5470  140.0160 C   0  0  0  0  0  2  0  0  0  0  0  0
  185.3820  179.3700  141.7520 C   0  0  0  0  0  2  0  0  0  0  0  0
  188.6710  176.7920  142.7200 C   0  0  0  0  0  3  0  0  0  0  0  0
  186.5280  178.4800  142.0960 C   0  0  0  0  0  0  0  0  0  0  0  0
  187.6090  178.3650  141.2150 C   0  0  0  0  0  3  0  0  0  0  0  0
  188.6810  177.5220  141.5280 C   0  0  0  0  0  3  0  0  0  0  0  0
  187.5900  176.9050  143.6010 C   0  0  0  0  0  3  0  0  0  0  0  0
  186.5190  177.7480  143.2890 C   0  0  0  0  0  3  0  0  0  0  0  0
  1 12  1  0  0  0  0
  1 21  1  1  0  0  0
  2  3  1  0  0  0  0
  3  1  1  0  0  0  0
  4 10  1  1  0  0  0
  4  2  1  0  0  0  0
  4  3  1  0  0  0  0
  5  7  1  0  0  0  0
  6  5  1  0  0  0  0
  6  8  1  0  0  0  0
  7 10  1  0  0  0  0
  8  9  1  0  0  0  0
  9 10  1  0  0  0  0
 12 11  1  1  0  0  0
 13 18  2  0  0  0  0
 13 20  1  0  0  0  0
 14 18  1  0  0  0  0
 15 17  2  0  0  0  0
 16 15  1  0  0  0  0
 17 19  1  0  0  0  0
 17 12  1  0  0  0  0
 18 15  1  0  0  0  0
 20 19  1  0  0  0  0
 21 23  1  0  0  0  0
 22 26  1  0  0  0  0
 23 27  1  0  0  0  0
 24 25  1  0  0  0  0
 24 23  2  0  0  0  0
 25 22  2  0  0  0  0
 27 26  2  0  0  0  0
M  END
>  <MODEL>
8

>  <REMARK>
 VINA RESULT:      -6.8      3.832      5.314
  Name = 
  6 active torsions:
  status: ('A' for Active; 'I' for Inactive)
    1  A    between atoms: C_2  and  C_6
    2  A    between atoms: C_2  and  N_15
    3  A    between atoms: C_2  and  C_19
    4  A    between atoms: C_6  and  C_9
    5  A    between atoms: C_14  and  C_19
    6  A    between atoms: C_18  and  C_26
                            x       y       z     vdW  Elec       q    Type
                         _______ _______ _______ _____ _____    ______ ____

>  <TORSDO>
F 6

$$$$
=
 OpenBabel11052413503D

 27 30  0  0  1  0  0  0  0  0999 V2000
  188.9770  177.6010  143.8080 C   0  0  2  0  0  3  0  0  0  0  0  0
  191.0300  177.0740  144.6930 O   0  0  0  0  0  0  0  0  0  0  0  0
  189.9000  176.5050  144.1240 N   0  0  0  0  0  0  0  0  0  0  0  0
  190.2320  176.3760  145.5420 C   0  0  2  0  0  3  0  0  0  0  0  0
  187.9310  177.5110  148.4010 C   0  0  0  0  0  2  0  0  0  0  0  0
  188.9710  177.9570  149.2370 O   0  0  0  0  0  0  0  0  0  0  0  0
  188.4880  176.5760  147.3290 C   0  0  0  0  0  2  0  0  0  0  0  0
  189.7650  178.8290  148.4680 C   0  0  0  0  0  2  0  0  0  0  0  0
  190.5240  178.0390  147.4020 C   0  0  0  0  0  2  0  0  0  0  0  0
  189.5140  177.3380  146.4930 C   0  0  0  0  0  3  0  0  0  0  0  0
  187.6720  175.6530  143.2300 O   0  0  0  0  0  1  0  0  0  0  0  0
  187.6710  177.0490  143.2170 C   0  0  1  0  0  3  0  0  0  0  0  0
  184.2820  178.9900  145.0920 C   0  0  0  0  0  3  0  0  0  0  0  0
  183.0200  179.0030  143.0060 C   0  0  0  0  0  1  0  0  0  0  0  0
  185.4350  178.1060  143.1270 C   0  0  0  0  0  0  0  0  0  0  0  0
  185.5090  178.0790  141.7370 O   0  0  0  0  0  1  0  0  0  0  0  0
  186.4310  177.5930  143.8720 C   0  0  0  0  0  0  0  0  0  0  0  0
  184.2550  178.7140  143.7850 C   0  0  0  0  0  0  0  0  0  0  0  0
  186.2860  177.5400  145.3750 C   0  0  0  0  0  2  0  0  0  0  0  0
  185.5380  178.7710  145.8900 C   0  0  0  0  0  2  0  0  0  0  0  0
  189.6360  178.6120  142.8680 C   0  0  0  0  0  2  0  0  0  0  0  0
  189.6190  177.2500  138.8010 C   0  0  0  0  0  3  0  0  0  0  0  0
  189.6220  178.1330  141.4560 C   0  0  0  0  0  0  0  0  0  0  0  0
  190.5700  177.1970  141.0280 C   0  0  0  0  0  3  0  0  0  0  0  0
  190.5680  176.7550  139.7020 C   0  0  0  0  0  3  0  0  0  0  0  0
  188.6720  178.1860  139.2270 C   0  0  0  0  0  3  0  0  0  0  0  0
  188.6730  178.6280  140.5530 C   0  0  0  0  0  3  0  0  0  0  0  0
  1 21  1  6  0  0  0
  1  3  1  0  0  0  0
  2  4  1  0  0  0  0
  3  2  1  0  0  0  0
  3  4  1  0  0  0  0
  4 10  1  1  0  0  0
  5  6  1  0  0  0  0
  7  5  1  0  0  0  0
  8  6  1  0  0  0  0
  9  8  1  0  0  0  0
 10  7  1  0  0  0  0
 10  9  1  0  0  0  0
 12 11  1  1  0  0  0
 12  1  1  0  0  0  0
 12 17  1  0  0  0  0
 13 20  1  0  0  0  0
 14 18  1  0  0  0  0
 15 18  1  0  0  0  0
 15 17  2  0  0  0  0
 16 15  1  0  0  0  0
 17 19  1  0  0  0  0
 18 13  2  0  0  0  0
 19 20  1  0  0  0  0
 22 26  2  0  0  0  0
 22 25  1  0  0  0  0
 23 21  1  0  0  0  0
 24 23  1  0  0  0  0
 25 24  2  0  0  0  0
 26 27  1  0  0  0  0
 27 23  2  0  0  0  0
M  END
>  <MODEL>
9

>  <REMARK>
 VINA RESULT:      -6.7      2.101      5.445
  Name = 
  6 active torsions:
  status: ('A' for Active; 'I' for Inactive)
    1  A    between atoms: C_2  and  C_6
    2  A    between atoms: C_2  and  N_15
    3  A    between atoms: C_2  and  C_19
    4  A    between atoms: C_6  and  C_9
    5  A    between atoms: C_14  and  C_19
    6  A    between atoms: C_18  and  C_26
                            x       y       z     vdW  Elec       q    Type
                         _______ _______ _______ _____ _____    ______ ____

>  <TORSDO>
F 6

$$$$
