=
 OpenBabel11052413253D

 28 31  0  0  1  0  0  0  0  0999 V2000
  185.5960  177.9720  145.0880 C   0  0  2  0  0  3  0  0  0  0  0  0
  188.8980  178.2080  147.8120 C   0  0  0  0  0  1  0  0  0  0  0  0
  188.6260  177.1900  142.7430 C   0  0  2  0  0  3  0  0  0  0  0  0
  188.0900  177.9920  145.4800 N   0  0  2  0  0  0  0  0  0  0  0  0
  187.3090  177.8470  143.1540 C   0  0  0  0  0  2  0  0  0  0  0  0
  186.5120  178.5820  147.3190 C   0  0  0  0  0  2  0  0  0  0  0  0
  189.2800  177.1990  145.1510 C   0  0  0  0  0  2  0  0  0  0  0  0
  187.7540  177.7790  146.9000 C   0  0  2  0  0  3  0  0  0  0  0  0
  189.7440  177.5220  143.7330 C   0  0  0  0  0  2  0  0  0  0  0  0
  185.6810  179.0700  146.1370 C   0  0  0  0  0  2  0  0  0  0  0  0
  186.9960  177.4990  144.6140 C   0  0  2  0  0  3  0  0  0  0  0  0
  188.1250  178.2250  140.5760 C   0  0  0  0  0  3  0  0  0  0  0  0
  190.1920  176.3760  139.5470 C   0  0  0  0  0  2  0  0  0  0  0  0
  189.3430  178.2820  138.2580 C   0  0  0  0  0  0  0  0  0  0  0  0
  189.0050  177.5570  141.3360 C   0  0  0  0  0  0  0  0  0  0  0  0
  191.0410  176.3960  141.7510 F   0  0  0  0  0  0  0  0  0  0  0  0
  190.1650  177.2880  138.4160 N   0  0  0  0  0  0  0  0  0  0  0  0
  190.3570  177.1650  140.8250 C   0  0  1  0  0  3  0  0  0  0  0  0
  189.4300  179.0770  137.0070 C   0  0  0  0  0  1  0  0  0  0  0  0
  188.3210  178.6280  139.2100 N   0  0  0  0  0  2  0  0  0  0  0  0
  184.5930  178.2670  144.0030 C   0  0  0  0  0  0  0  0  0  0  0  0
  184.9000  178.0140  142.6570 C   0  0  0  0  0  3  0  0  0  0  0  0
  182.3750  179.0020  143.3390 C   0  0  0  0  0  0  0  0  0  0  0  0
  183.9550  178.2600  141.6600 C   0  0  0  0  0  3  0  0  0  0  0  0
  183.0020  178.9920  145.6410 F   0  0  0  0  0  0  0  0  0  0  0  0
  183.3220  178.7560  144.3420 C   0  0  0  0  0  0  0  0  0  0  0  0
  181.1170  179.4900  143.6680 O   0  0  0  0  0  1  0  0  0  0  0  0
  182.6940  178.7550  142.0000 C   0  0  0  0  0  3  0  0  0  0  0  0
  1 21  1  6  0  0  0
  1 10  1  0  0  0  0
  3 15  1  6  0  0  0
  3  5  1  0  0  0  0
  3  9  1  0  0  0  0
  4  7  1  6  0  0  0
  4  8  1  0  0  0  0
  8  6  1  0  0  0  0
  8  2  1  1  0  0  0
  9  7  1  0  0  0  0
 10  6  1  0  0  0  0
 11  5  1  6  0  0  0
 11  1  1  0  0  0  0
 11  4  1  0  0  0  0
 12 15  2  0  0  0  0
 13 18  1  0  0  0  0
 14 17  2  0  0  0  0
 14 20  1  0  0  0  0
 17 13  1  0  0  0  0
 18 15  1  0  0  0  0
 18 16  1  1  0  0  0
 19 14  1  0  0  0  0
 20 12  1  0  0  0  0
 21 26  1  0  0  0  0
 22 21  2  0  0  0  0
 23 27  1  0  0  0  0
 23 26  2  0  0  0  0
 24 28  2  0  0  0  0
 24 22  1  0  0  0  0
 26 25  1  0  0  0  0
 28 23  1  0  0  0  0
M  END
>  <MODEL>
1

>  <REMARK>
 VINA RESULT:     -10.7      0.000      0.000
  Name = 
  2 active torsions:
  status: ('A' for Active; 'I' for Inactive)
    1  A    between atoms: C_1  and  C_2
    2  A    between atoms: C_10  and  C_13
                            x       y       z     vdW  Elec       q    Type
                         _______ _______ _______ _____ _____    ______ ____

>  <TORSDO>
F 2

$$$$
=
 OpenBabel11052413253D

 28 31  0  0  1  0  0  0  0  0999 V2000
  187.8520  178.0330  145.2700 C   0  0  2  0  0  3  0  0  0  0  0  0
  183.7130  178.7000  144.3690 C   0  0  0  0  0  1  0  0  0  0  0  0
  187.9230  178.3630  141.3740 C   0  0  2  0  0  3  0  0  0  0  0  0
  186.0120  178.2620  143.5560 N   0  0  2  0  0  0  0  0  0  0  0  0
  188.2720  177.7570  142.7330 C   0  0  0  0  0  2  0  0  0  0  0  0
  185.4680  178.0720  145.9830 C   0  0  0  0  0  2  0  0  0  0  0  0
  185.7110  179.0110  142.3310 C   0  0  0  0  0  2  0  0  0  0  0  0
  185.2050  178.8120  144.6610 C   0  0  2  0  0  3  0  0  0  0  0  0
  186.4110  178.3630  141.1400 C   0  0  0  0  0  2  0  0  0  0  0  0
  186.7520  177.2480  145.9700 C   0  0  0  0  0  2  0  0  0  0  0  0
  187.4540  178.4500  143.8300 C   0  0  2  0  0  3  0  0  0  0  0  0
  189.7550  176.9560  140.5490 C   0  0  0  0  0  3  0  0  0  0  0  0
  189.2420  178.3120  137.9710 C   0  0  0  0  0  2  0  0  0  0  0  0
  190.6030  176.2810  138.1640 C   0  0  0  0  0  0  0  0  0  0  0  0
  188.6560  177.6700  140.2620 C   0  0  0  0  0  0  0  0  0  0  0  0
  187.0600  178.6650  138.8030 F   0  0  0  0  0  0  0  0  0  0  0  0
  190.0080  177.1920  137.4520 N   0  0  0  0  0  0  0  0  0  0  0  0
  188.1370  177.7970  138.8630 C   0  0  1  0  0  3  0  0  0  0  0  0
  191.3880  175.2360  137.4590 C   0  0  0  0  0  1  0  0  0  0  0  0
  190.5810  176.2560  139.6030 N   0  0  0  0  0  2  0  0  0  0  0  0
  189.2140  177.4110  145.4290 C   0  0  0  0  0  0  0  0  0  0  0  0
  189.8650  176.8250  144.3320 C   0  0  0  0  0  3  0  0  0  0  0  0
  191.1420  176.9070  146.8180 C   0  0  0  0  0  0  0  0  0  0  0  0
  191.1420  176.2790  144.4790 C   0  0  0  0  0  3  0  0  0  0  0  0
  189.2530  178.0330  147.7420 F   0  0  0  0  0  0  0  0  0  0  0  0
  189.8610  177.4570  146.6740 C   0  0  0  0  0  0  0  0  0  0  0  0
  191.7860  176.9450  148.0480 O   0  0  0  0  0  1  0  0  0  0  0  0
  191.7790  176.3190  145.7210 C   0  0  0  0  0  3  0  0  0  0  0  0
  1 21  1  6  0  0  0
  1 10  1  0  0  0  0
  3 15  1  6  0  0  0
  3  5  1  0  0  0  0
  4  7  1  6  0  0  0
  4 11  1  0  0  0  0
  4  8  1  0  0  0  0
  8  2  1  6  0  0  0
  8  6  1  0  0  0  0
  9  3  1  0  0  0  0
  9  7  1  0  0  0  0
 10  6  1  0  0  0  0
 11  5  1  6  0  0  0
 11  1  1  0  0  0  0
 13 18  1  0  0  0  0
 14 20  1  0  0  0  0
 15 12  2  0  0  0  0
 17 13  1  0  0  0  0
 17 14  2  0  0  0  0
 18 16  1  1  0  0  0
 18 15  1  0  0  0  0
 19 14  1  0  0  0  0
 20 12  1  0  0  0  0
 21 26  1  0  0  0  0
 22 24  1  0  0  0  0
 22 21  2  0  0  0  0
 23 27  1  0  0  0  0
 24 28  2  0  0  0  0
 26 23  2  0  0  0  0
 26 25  1  0  0  0  0
 28 23  1  0  0  0  0
M  END
>  <MODEL>
2

>  <REMARK>
 VINA RESULT:     -10.2      3.100      5.194
  Name = 
  2 active torsions:
  status: ('A' for Active; 'I' for Inactive)
    1  A    between atoms: C_1  and  C_2
    2  A    between atoms: C_10  and  C_13
                            x       y       z     vdW  Elec       q    Type
                         _______ _______ _______ _____ _____    ______ ____

>  <TORSDO>
F 2

$$$$
=
 OpenBabel11052413253D

 28 31  0  0  1  0  0  0  0  0999 V2000
  187.6990  177.3160  145.6910 C   0  0  2  0  0  3  0  0  0  0  0  0
  191.6360  176.9310  147.3430 C   0  0  0  0  0  1  0  0  0  0  0  0
  189.8540  176.6900  142.4880 C   0  0  2  0  0  3  0  0  0  0  0  0
  190.1900  177.1130  145.3390 N   0  0  2  0  0  0  0  0  0  0  0  0
  188.7810  177.3650  143.3420 C   0  0  0  0  0  2  0  0  0  0  0  0
  189.2610  177.5300  147.6160 C   0  0  0  0  0  2  0  0  0  0  0  0
  191.1510  176.3010  144.5840 C   0  0  0  0  0  2  0  0  0  0  0  0
  190.2450  176.7170  146.7590 C   0  0  2  0  0  3  0  0  0  0  0  0
  191.2320  176.7980  143.1430 C   0  0  0  0  0  2  0  0  0  0  0  0
  188.1890  178.2400  146.7960 C   0  0  0  0  0  2  0  0  0  0  0  0
  188.8530  176.8270  144.7760 C   0  0  2  0  0  3  0  0  0  0  0  0
  188.7070  177.6410  140.5400 C   0  0  0  0  0  3  0  0  0  0  0  0
  191.0170  176.5780  139.0300 C   0  0  0  0  0  2  0  0  0  0  0  0
  189.4380  178.2000  138.0870 C   0  0  0  0  0  0  0  0  0  0  0  0
  189.8610  177.2340  141.0880 C   0  0  0  0  0  0  0  0  0  0  0  0
  192.1880  176.7330  141.0750 F   0  0  0  0  0  0  0  0  0  0  0  0
  190.5300  177.4990  138.0170 N   0  0  0  0  0  0  0  0  0  0  0  0
  191.1600  177.3050  140.3460 C   0  0  1  0  0  3  0  0  0  0  0  0
  189.0720  179.0530  136.9280 C   0  0  0  0  0  1  0  0  0  0  0  0
  188.5380  178.1620  139.2100 N   0  0  0  0  0  2  0  0  0  0  0  0
  186.4700  177.8330  144.9890 C   0  0  0  0  0  0  0  0  0  0  0  0
  186.3860  177.8170  143.5890 C   0  0  0  0  0  3  0  0  0  0  0  0
  184.2210  178.7450  145.0950 C   0  0  0  0  0  0  0  0  0  0  0  0
  185.2310  178.2680  142.9460 C   0  0  0  0  0  3  0  0  0  0  0  0
  185.4360  178.3000  147.0990 F   0  0  0  0  0  0  0  0  0  0  0  0
  185.3780  178.2930  145.7430 C   0  0  0  0  0  0  0  0  0  0  0  0
  183.1390  179.2050  145.8340 O   0  0  0  0  0  1  0  0  0  0  0  0
  184.1500  178.7330  143.6980 C   0  0  0  0  0  3  0  0  0  0  0  0
  1 21  1  6  0  0  0
  1 10  1  0  0  0  0
  3 15  1  6  0  0  0
  3  9  1  0  0  0  0
  3  5  1  0  0  0  0
  4  7  1  6  0  0  0
  4  8  1  0  0  0  0
  8  2  1  1  0  0  0
  8  6  1  0  0  0  0
  9  7  1  0  0  0  0
 10  6  1  0  0  0  0
 11  5  1  6  0  0  0
 11  4  1  0  0  0  0
 11  1  1  0  0  0  0
 12 15  2  0  0  0  0
 13 18  1  0  0  0  0
 14 20  1  0  0  0  0
 17 14  2  0  0  0  0
 17 13  1  0  0  0  0
 18 16  1  1  0  0  0
 18 15  1  0  0  0  0
 19 14  1  0  0  0  0
 20 12  1  0  0  0  0
 21 26  1  0  0  0  0
 22 21  2  0  0  0  0
 23 26  2  0  0  0  0
 23 27  1  0  0  0  0
 24 22  1  0  0  0  0
 24 28  2  0  0  0  0
 26 25  1  0  0  0  0
 28 23  1  0  0  0  0
M  END
>  <MODEL>
3

>  <REMARK>
 VINA RESULT:     -10.2      1.442      1.998
  Name = 
  2 active torsions:
  status: ('A' for Active; 'I' for Inactive)
    1  A    between atoms: C_1  and  C_2
    2  A    between atoms: C_10  and  C_13
                            x       y       z     vdW  Elec       q    Type
                         _______ _______ _______ _____ _____    ______ ____

>  <TORSDO>
F 2

$$$$
=
 OpenBabel11052413253D

 28 31  0  0  1  0  0  0  0  0999 V2000
  187.8720  177.8530  144.4300 C   0  0  2  0  0  3  0  0  0  0  0  0
  183.7400  178.7420  143.7070 C   0  0  0  0  0  1  0  0  0  0  0  0
  187.8550  178.5030  140.5740 C   0  0  2  0  0  3  0  0  0  0  0  0
  185.9990  178.2900  142.7950 N   0  0  2  0  0  0  0  0  0  0  0  0
  188.2160  177.7740  141.8680 C   0  0  0  0  0  2  0  0  0  0  0  0
  185.5110  177.9190  145.2120 C   0  0  0  0  0  2  0  0  0  0  0  0
  185.6960  179.1490  141.6450 C   0  0  0  0  0  2  0  0  0  0  0  0
  185.2420  178.7750  143.9640 C   0  0  2  0  0  3  0  0  0  0  0  0
  186.3390  178.5770  140.3840 C   0  0  0  0  0  2  0  0  0  0  0  0
  186.7610  177.0530  145.0940 C   0  0  0  0  0  2  0  0  0  0  0  0
  187.4530  178.4020  143.0410 C   0  0  2  0  0  3  0  0  0  0  0  0
  187.7910  177.5060  138.3330 C   0  0  0  0  0  3  0  0  0  0  0  0
  190.3380  176.2400  139.1450 C   0  0  0  0  0  2  0  0  0  0  0  0
  189.5620  176.3090  136.8200 C   0  0  0  0  0  0  0  0  0  0  0  0
  188.5320  177.8780  139.3870 C   0  0  0  0  0  0  0  0  0  0  0  0
  190.5460  178.0530  140.6450 F   0  0  0  0  0  0  0  0  0  0  0  0
  190.4650  176.0330  137.7120 N   0  0  0  0  0  0  0  0  0  0  0  0
  190.0170  177.6910  139.4170 C   0  0  1  0  0  3  0  0  0  0  0  0
  189.8490  175.9780  135.4000 C   0  0  0  0  0  1  0  0  0  0  0  0
  188.2780  176.8760  137.1360 N   0  0  0  0  0  2  0  0  0  0  0  0
  189.2130  177.1710  144.4970 C   0  0  0  0  0  0  0  0  0  0  0  0
  189.6840  176.4100  143.4160 C   0  0  0  0  0  3  0  0  0  0  0  0
  191.2840  176.7270  145.6870 C   0  0  0  0  0  0  0  0  0  0  0  0
  190.9420  175.8070  143.4730 C   0  0  0  0  0  3  0  0  0  0  0  0
  189.5890  178.0790  146.6820 F   0  0  0  0  0  0  0  0  0  0  0  0
  190.0230  177.3340  145.6330 C   0  0  0  0  0  0  0  0  0  0  0  0
  192.0880  176.8800  146.8090 O   0  0  0  0  0  1  0  0  0  0  0  0
  191.7410  175.9640  144.6080 C   0  0  0  0  0  3  0  0  0  0  0  0
  1 21  1  6  0  0  0
  1 10  1  0  0  0  0
  3 15  1  6  0  0  0
  3  5  1  0  0  0  0
  4  7  1  6  0  0  0
  4 11  1  0  0  0  0
  4  8  1  0  0  0  0
  8  2  1  6  0  0  0
  8  6  1  0  0  0  0
  9  3  1  0  0  0  0
  9  7  1  0  0  0  0
 10  6  1  0  0  0  0
 11  5  1  6  0  0  0
 11  1  1  0  0  0  0
 12 15  2  0  0  0  0
 13 18  1  0  0  0  0
 14 20  1  0  0  0  0
 14 17  2  0  0  0  0
 15 18  1  0  0  0  0
 17 13  1  0  0  0  0
 18 16  1  1  0  0  0
 19 14  1  0  0  0  0
 20 12  1  0  0  0  0
 21 26  1  0  0  0  0
 22 24  1  0  0  0  0
 22 21  2  0  0  0  0
 23 27  1  0  0  0  0
 24 28  2  0  0  0  0
 26 23  2  0  0  0  0
 26 25  1  0  0  0  0
 28 23  1  0  0  0  0
M  END
>  <MODEL>
4

>  <REMARK>
 VINA RESULT:     -10.2      3.031      5.085
  Name = 
  2 active torsions:
  status: ('A' for Active; 'I' for Inactive)
    1  A    between atoms: C_1  and  C_2
    2  A    between atoms: C_10  and  C_13
                            x       y       z     vdW  Elec       q    Type
                         _______ _______ _______ _____ _____    ______ ____

>  <TORSDO>
F 2

$$$$
=
 OpenBabel11052413253D

 28 31  0  0  1  0  0  0  0  0999 V2000
  186.1100  178.0770  145.7840 C   0  0  2  0  0  3  0  0  0  0  0  0
  188.6490  178.4350  149.2200 C   0  0  0  0  0  1  0  0  0  0  0  0
  189.5110  176.7200  144.4110 C   0  0  2  0  0  3  0  0  0  0  0  0
  188.4170  177.9500  146.8020 N   0  0  2  0  0  0  0  0  0  0  0  0
  188.2180  177.5350  144.3870 C   0  0  0  0  0  2  0  0  0  0  0  0
  186.5160  178.9270  148.0870 C   0  0  0  0  0  2  0  0  0  0  0  0
  189.5520  177.0250  146.8880 C   0  0  0  0  0  2  0  0  0  0  0  0
  187.7220  177.9740  148.1020 C   0  0  2  0  0  3  0  0  0  0  0  0
  190.3830  177.1000  145.6100 C   0  0  0  0  0  2  0  0  0  0  0  0
  186.0610  179.3050  146.6810 C   0  0  0  0  0  2  0  0  0  0  0  0
  187.5190  177.4280  145.7480 C   0  0  2  0  0  3  0  0  0  0  0  0
  191.5020  177.3580  143.1290 C   0  0  0  0  0  3  0  0  0  0  0  0
  189.6190  177.5370  140.8550 C   0  0  0  0  0  2  0  0  0  0  0  0
  192.0550  177.5030  140.5730 C   0  0  0  0  0  0  0  0  0  0  0  0
  190.2620  176.8480  143.1170 C   0  0  0  0  0  0  0  0  0  0  0  0
  188.2920  176.0110  142.0750 F   0  0  0  0  0  0  0  0  0  0  0  0
  190.8510  177.4870  140.0850 N   0  0  0  0  0  0  0  0  0  0  0  0
  189.6020  176.4000  141.8500 C   0  0  1  0  0  3  0  0  0  0  0  0
  193.1990  177.4990  139.6260 C   0  0  0  0  0  1  0  0  0  0  0  0
  192.3430  177.5680  141.9810 N   0  0  0  0  0  2  0  0  0  0  0  0
  185.4440  178.2920  144.4500 C   0  0  0  0  0  0  0  0  0  0  0  0
  186.1610  178.1170  143.2560 C   0  0  0  0  0  3  0  0  0  0  0  0
  183.4510  178.7980  143.1570 C   0  0  0  0  0  0  0  0  0  0  0  0
  185.5290  178.2870  142.0230 C   0  0  0  0  0  3  0  0  0  0  0  0
  183.3690  178.7860  145.5410 F   0  0  0  0  0  0  0  0  0  0  0  0
  184.0810  178.6280  144.3970 C   0  0  0  0  0  0  0  0  0  0  0  0
  182.1040  179.1340  143.0970 O   0  0  0  0  0  1  0  0  0  0  0  0
  184.1750  178.6290  141.9730 C   0  0  0  0  0  3  0  0  0  0  0  0
  1 21  1  6  0  0  0
  1 10  1  0  0  0  0
  3 15  1  6  0  0  0
  3  9  1  0  0  0  0
  4  7  1  1  0  0  0
  4  8  1  0  0  0  0
  5  3  1  0  0  0  0
  6  8  1  0  0  0  0
  8  2  1  1  0  0  0
  9  7  1  0  0  0  0
 10  6  1  0  0  0  0
 11  5  1  6  0  0  0
 11  1  1  0  0  0  0
 11  4  1  0  0  0  0
 13 18  1  0  0  0  0
 14 20  1  0  0  0  0
 15 12  2  0  0  0  0
 17 14  2  0  0  0  0
 17 13  1  0  0  0  0
 18 16  1  1  0  0  0
 18 15  1  0  0  0  0
 19 14  1  0  0  0  0
 20 12  1  0  0  0  0
 22 21  2  0  0  0  0
 23 26  2  0  0  0  0
 24 22  1  0  0  0  0
 26 21  1  0  0  0  0
 26 25  1  0  0  0  0
 27 23  1  0  0  0  0
 28 24  2  0  0  0  0
 28 23  1  0  0  0  0
M  END
>  <MODEL>
5

>  <REMARK>
 VINA RESULT:     -10.1      1.610      2.204
  Name = 
  2 active torsions:
  status: ('A' for Active; 'I' for Inactive)
    1  A    between atoms: C_1  and  C_2
    2  A    between atoms: C_10  and  C_13
                            x       y       z     vdW  Elec       q    Type
                         _______ _______ _______ _____ _____    ______ ____

>  <TORSDO>
F 2

$$$$
=
 OpenBabel11052413253D

 28 31  0  0  1  0  0  0  0  0999 V2000
  189.2350  177.8670  144.8070 C   0  0  2  0  0  3  0  0  0  0  0  0
  187.9450  177.4770  148.8770 C   0  0  0  0  0  1  0  0  0  0  0  0
  185.4400  178.7730  144.5350 C   0  0  2  0  0  3  0  0  0  0  0  0
  187.3580  177.8230  146.4950 N   0  0  2  0  0  0  0  0  0  0  0  0
  186.7490  178.0960  144.1300 C   0  0  0  0  0  2  0  0  0  0  0  0
  189.6650  177.1340  147.1450 C   0  0  0  0  0  2  0  0  0  0  0  0
  186.2040  178.6300  146.9070 C   0  0  0  0  0  2  0  0  0  0  0  0
  188.4190  177.9570  147.5100 C   0  0  2  0  0  3  0  0  0  0  0  0
  185.0340  178.3850  145.9580 C   0  0  0  0  0  2  0  0  0  0  0  0
  189.7040  176.7130  145.6800 C   0  0  0  0  0  2  0  0  0  0  0  0
  187.8170  178.3640  145.1970 C   0  0  2  0  0  3  0  0  0  0  0  0
  184.6720  178.1650  142.2860 C   0  0  0  0  0  3  0  0  0  0  0  0
  182.1640  179.5050  143.1010 C   0  0  0  0  0  2  0  0  0  0  0  0
  182.3240  178.0550  141.1300 C   0  0  0  0  0  0  0  0  0  0  0  0
  184.3460  178.4840  143.5480 C   0  0  0  0  0  0  0  0  0  0  0  0
  182.8340  179.0070  145.3100 F   0  0  0  0  0  0  0  0  0  0  0  0
  181.6320  178.7700  141.9660 N   0  0  0  0  0  0  0  0  0  0  0  0
  182.9220  178.5590  144.0030 C   0  0  1  0  0  3  0  0  0  0  0  0
  181.6140  177.4150  139.9940 C   0  0  0  0  0  1  0  0  0  0  0  0
  183.7510  177.8850  141.2190 N   0  0  0  0  0  2  0  0  0  0  0  0
  189.4750  177.6340  143.3390 C   0  0  0  0  0  0  0  0  0  0  0  0
  188.3990  177.4420  142.4590 C   0  0  0  0  0  3  0  0  0  0  0  0
  191.0120  177.4690  141.4640 C   0  0  0  0  0  0  0  0  0  0  0  0
  188.6280  177.2580  141.0940 C   0  0  0  0  0  3  0  0  0  0  0  0
  191.8380  177.8540  143.6690 F   0  0  0  0  0  0  0  0  0  0  0  0
  190.7860  177.6540  142.8340 C   0  0  0  0  0  0  0  0  0  0  0  0
  192.3060  177.4830  140.9600 O   0  0  0  0  0  1  0  0  0  0  0  0
  189.9330  177.2700  140.5970 C   0  0  0  0  0  3  0  0  0  0  0  0
  1 21  1  6  0  0  0
  1 11  1  0  0  0  0
  1 10  1  0  0  0  0
  3 15  1  6  0  0  0
  3  9  1  0  0  0  0
  4  7  1  1  0  0  0
  4  8  1  0  0  0  0
  5  3  1  0  0  0  0
  6  8  1  0  0  0  0
  8  2  1  1  0  0  0
  9  7  1  0  0  0  0
 10  6  1  0  0  0  0
 11  5  1  6  0  0  0
 11  4  1  0  0  0  0
 12 15  2  0  0  0  0
 13 18  1  0  0  0  0
 14 20  1  0  0  0  0
 14 17  2  0  0  0  0
 15 18  1  0  0  0  0
 17 13  1  0  0  0  0
 18 16  1  1  0  0  0
 19 14  1  0  0  0  0
 20 12  1  0  0  0  0
 22 21  2  0  0  0  0
 23 26  2  0  0  0  0
 24 22  1  0  0  0  0
 26 21  1  0  0  0  0
 26 25  1  0  0  0  0
 27 23  1  0  0  0  0
 28 24  2  0  0  0  0
 28 23  1  0  0  0  0
M  END
>  <MODEL>
6

>  <REMARK>
 VINA RESULT:      -9.9      3.027      6.316
  Name = 
  2 active torsions:
  status: ('A' for Active; 'I' for Inactive)
    1  A    between atoms: C_1  and  C_2
    2  A    between atoms: C_10  and  C_13
                            x       y       z     vdW  Elec       q    Type
                         _______ _______ _______ _____ _____    ______ ____

>  <TORSDO>
F 2

$$$$
=
 OpenBabel11052413253D

 28 31  0  0  1  0  0  0  0  0999 V2000
  187.5980  178.3740  143.3000 C   0  0  2  0  0  3  0  0  0  0  0  0
  183.3440  178.7790  142.9500 C   0  0  0  0  0  1  0  0  0  0  0  0
  187.1210  178.4930  139.4210 C   0  0  2  0  0  3  0  0  0  0  0  0
  185.5330  178.4140  141.8490 N   0  0  2  0  0  0  0  0  0  0  0  0
  187.6850  177.9810  140.7450 C   0  0  0  0  0  2  0  0  0  0  0  0
  185.3350  178.3300  144.3330 C   0  0  0  0  0  2  0  0  0  0  0  0
  185.0260  179.0790  140.6430 C   0  0  0  0  0  2  0  0  0  0  0  0
  184.8520  178.9820  143.0270 C   0  0  2  0  0  3  0  0  0  0  0  0
  185.5940  178.4040  139.3980 C   0  0  0  0  0  2  0  0  0  0  0  0
  186.6500  177.5740  144.1810 C   0  0  0  0  0  2  0  0  0  0  0  0
  186.9850  178.6910  141.9100 C   0  0  2  0  0  3  0  0  0  0  0  0
  187.2150  176.6070  137.8550 C   0  0  0  0  0  3  0  0  0  0  0  0
  190.0460  177.4000  137.5310 C   0  0  0  0  0  2  0  0  0  0  0  0
  188.9060  175.8630  135.9970 C   0  0  0  0  0  0  0  0  0  0  0  0
  187.7350  177.7780  138.2510 C   0  0  0  0  0  0  0  0  0  0  0  0
  189.3300  179.5450  138.2130 F   0  0  0  0  0  0  0  0  0  0  0  0
  189.9370  176.5780  136.3380 N   0  0  0  0  0  0  0  0  0  0  0  0
  188.9120  178.3970  137.5620 C   0  0  1  0  0  3  0  0  0  0  0  0
  188.9940  175.0410  134.7630 C   0  0  0  0  0  1  0  0  0  0  0  0
  187.6970  175.7890  136.7750 N   0  0  0  0  0  2  0  0  0  0  0  0
  189.0030  177.8320  143.2980 C   0  0  0  0  0  0  0  0  0  0  0  0
  190.1040  178.6970  143.3920 C   0  0  0  0  0  3  0  0  0  0  0  0
  190.5200  175.9340  143.2760 C   0  0  0  0  0  0  0  0  0  0  0  0
  191.4020  178.1850  143.4210 C   0  0  0  0  0  3  0  0  0  0  0  0
  188.1610  175.5920  143.1700 F   0  0  0  0  0  0  0  0  0  0  0  0
  189.2150  176.4440  143.2460 C   0  0  0  0  0  0  0  0  0  0  0  0
  190.7370  174.5630  143.2210 O   0  0  0  0  0  1  0  0  0  0  0  0
  191.6110  176.8050  143.3620 C   0  0  0  0  0  3  0  0  0  0  0  0
  1 21  1  6  0  0  0
  1 10  1  0  0  0  0
  3 15  1  6  0  0  0
  3  5  1  0  0  0  0
  4  7  1  6  0  0  0
  4 11  1  0  0  0  0
  4  8  1  0  0  0  0
  8  2  1  6  0  0  0
  8  6  1  0  0  0  0
  9  3  1  0  0  0  0
  9  7  1  0  0  0  0
 10  6  1  0  0  0  0
 11  5  1  6  0  0  0
 11  1  1  0  0  0  0
 12 15  2  0  0  0  0
 13 18  1  0  0  0  0
 14 17  2  0  0  0  0
 14 20  1  0  0  0  0
 17 13  1  0  0  0  0
 18 16  1  1  0  0  0
 18 15  1  0  0  0  0
 19 14  1  0  0  0  0
 20 12  1  0  0  0  0
 21 22  1  0  0  0  0
 22 24  2  0  0  0  0
 23 28  2  0  0  0  0
 25 26  1  0  0  0  0
 26 23  1  0  0  0  0
 26 21  2  0  0  0  0
 27 23  1  0  0  0  0
 28 24  1  0  0  0  0
M  END
>  <MODEL>
7

>  <REMARK>
 VINA RESULT:      -9.6      3.193      5.417
  Name = 
  2 active torsions:
  status: ('A' for Active; 'I' for Inactive)
    1  A    between atoms: C_1  and  C_2
    2  A    between atoms: C_10  and  C_13
                            x       y       z     vdW  Elec       q    Type
                         _______ _______ _______ _____ _____    ______ ____

>  <TORSDO>
F 2

$$$$
=
 OpenBabel11052413253D

 28 31  0  0  1  0  0  0  0  0999 V2000
  185.3890  178.7050  144.7390 C   0  0  2  0  0  3  0  0  0  0  0  0
  181.9320  178.9640  142.2170 C   0  0  0  0  0  1  0  0  0  0  0  0
  187.0010  178.7930  141.1770 C   0  0  2  0  0  3  0  0  0  0  0  0
  184.3830  178.6700  142.4240 N   0  0  2  0  0  0  0  0  0  0  0  0
  186.8060  178.3050  142.6120 C   0  0  0  0  0  2  0  0  0  0  0  0
  182.9210  178.5880  144.4430 C   0  0  0  0  0  2  0  0  0  0  0  0
  184.5610  179.3130  141.1170 C   0  0  0  0  0  2  0  0  0  0  0  0
  183.1730  179.2190  143.0640 C   0  0  2  0  0  3  0  0  0  0  0  0
  185.7120  178.6520  140.3650 C   0  0  0  0  0  2  0  0  0  0  0  0
  184.1430  177.8760  145.0140 C   0  0  0  0  0  2  0  0  0  0  0  0
  185.5820  178.9950  143.2270 C   0  0  2  0  0  3  0  0  0  0  0  0
  187.9610  177.4970  139.3290 C   0  0  0  0  0  3  0  0  0  0  0  0
  189.9600  176.6620  141.3430 C   0  0  0  0  0  2  0  0  0  0  0  0
  190.2670  176.3190  138.9340 C   0  0  0  0  0  0  0  0  0  0  0  0
  188.1540  178.0950  140.5140 C   0  0  0  0  0  0  0  0  0  0  0  0
  189.4120  178.6750  142.4490 F   0  0  0  0  0  0  0  0  0  0  0  0
  190.7060  176.2760  140.1570 N   0  0  0  0  0  0  0  0  0  0  0  0
  189.4860  178.0890  141.1970 C   0  0  1  0  0  3  0  0  0  0  0  0
  191.1570  175.8330  137.8480 C   0  0  0  0  0  1  0  0  0  0  0  0
  188.9480  176.7710  138.5770 N   0  0  0  0  0  2  0  0  0  0  0  0
  186.6040  178.2100  145.4800 C   0  0  0  0  0  0  0  0  0  0  0  0
  187.6080  177.4940  144.8100 C   0  0  0  0  0  3  0  0  0  0  0  0
  187.9010  178.0740  147.5300 C   0  0  0  0  0  0  0  0  0  0  0  0
  188.7460  177.0670  145.4960 C   0  0  0  0  0  3  0  0  0  0  0  0
  185.8030  179.2100  147.5040 F   0  0  0  0  0  0  0  0  0  0  0  0
  186.7570  178.5060  146.8440 C   0  0  0  0  0  0  0  0  0  0  0  0
  188.0560  178.3600  148.8800 O   0  0  0  0  0  1  0  0  0  0  0  0
  188.8920  177.3550  146.8550 C   0  0  0  0  0  3  0  0  0  0  0  0
  1 10  1  0  0  0  0
  1 21  1  6  0  0  0
  3 15  1  6  0  0  0
  3  5  1  0  0  0  0
  4  7  1  6  0  0  0
  4  8  1  0  0  0  0
  4 11  1  0  0  0  0
  6 10  1  0  0  0  0
  8  2  1  6  0  0  0
  8  6  1  0  0  0  0
  9  7  1  0  0  0  0
  9  3  1  0  0  0  0
 11  5  1  6  0  0  0
 11  1  1  0  0  0  0
 12 15  2  0  0  0  0
 14 17  2  0  0  0  0
 15 18  1  0  0  0  0
 17 13  1  0  0  0  0
 18 13  1  0  0  0  0
 18 16  1  1  0  0  0
 19 14  1  0  0  0  0
 20 14  1  0  0  0  0
 20 12  1  0  0  0  0
 21 26  1  0  0  0  0
 22 21  2  0  0  0  0
 22 24  1  0  0  0  0
 23 27  1  0  0  0  0
 24 28  2  0  0  0  0
 26 25  1  0  0  0  0
 26 23  2  0  0  0  0
 28 23  1  0  0  0  0
M  END
>  <MODEL>
8

>  <REMARK>
 VINA RESULT:      -9.5      2.406      4.539
  Name = 
  2 active torsions:
  status: ('A' for Active; 'I' for Inactive)
    1  A    between atoms: C_1  and  C_2
    2  A    between atoms: C_10  and  C_13
                            x       y       z     vdW  Elec       q    Type
                         _______ _______ _______ _____ _____    ______ ____

>  <TORSDO>
F 2

$$$$
=
 OpenBabel11052413253D

 28 31  0  0  1  0  0  0  0  0999 V2000
  190.0580  177.5210  143.1990 C   0  0  2  0  0  3  0  0  0  0  0  0
  189.9090  176.5280  147.3670 C   0  0  0  0  0  1  0  0  0  0  0  0
  186.3800  178.4790  144.1200 C   0  0  2  0  0  3  0  0  0  0  0  0
  188.7130  177.2330  145.3160 N   0  0  2  0  0  0  0  0  0  0  0  0
  187.4960  177.8630  143.2760 C   0  0  0  0  0  2  0  0  0  0  0  0
  191.0750  176.4400  145.1970 C   0  0  0  0  0  2  0  0  0  0  0  0
  187.7540  177.9750  146.1420 C   0  0  0  0  0  2  0  0  0  0  0  0
  190.0150  177.2060  146.0060 C   0  0  2  0  0  3  0  0  0  0  0  0
  186.3590  177.8830  145.5290 C   0  0  0  0  0  2  0  0  0  0  0  0
  190.6920  176.2450  143.7330 C   0  0  0  0  0  2  0  0  0  0  0  0
  188.8260  177.9610  144.0330 C   0  0  2  0  0  3  0  0  0  0  0  0
  185.0030  178.1330  142.1200 C   0  0  0  0  0  3  0  0  0  0  0  0
  182.9140  179.5320  143.6760 C   0  0  0  0  0  2  0  0  0  0  0  0
  182.4340  178.2680  141.6300 C   0  0  0  0  0  0  0  0  0  0  0  0
  185.0460  178.3480  143.4430 C   0  0  0  0  0  0  0  0  0  0  0  0
  184.0960  178.7880  145.5800 F   0  0  0  0  0  0  0  0  0  0  0  0
  182.0450  178.9400  142.6720 N   0  0  0  0  0  0  0  0  0  0  0  0
  183.8020  178.4630  144.2670 C   0  0  1  0  0  3  0  0  0  0  0  0
  181.4020  177.7810  140.6800 C   0  0  0  0  0  1  0  0  0  0  0  0
  183.8150  178.0080  141.3200 N   0  0  0  0  0  2  0  0  0  0  0  0
  189.8780  177.5110  141.7040 C   0  0  0  0  0  0  0  0  0  0  0  0
  188.6340  177.8140  141.1310 C   0  0  0  0  0  3  0  0  0  0  0  0
  190.8210  177.2620  139.4790 C   0  0  0  0  0  0  0  0  0  0  0  0
  188.4820  177.8340  139.7430 C   0  0  0  0  0  3  0  0  0  0  0  0
  192.1920  176.9630  141.4080 F   0  0  0  0  0  0  0  0  0  0  0  0
  190.9770  177.2420  140.8710 C   0  0  0  0  0  0  0  0  0  0  0  0
  191.9020  176.9930  138.6490 O   0  0  0  0  0  1  0  0  0  0  0  0
  189.5740  177.5570  138.9180 C   0  0  0  0  0  3  0  0  0  0  0  0
  1 21  1  6  0  0  0
  1 10  1  0  0  0  0
  1 11  1  0  0  0  0
  3 15  1  6  0  0  0
  3  9  1  0  0  0  0
  4  8  1  0  0  0  0
  4  7  1  1  0  0  0
  5  3  1  0  0  0  0
  6  8  1  0  0  0  0
  8  2  1  1  0  0  0
  9  7  1  0  0  0  0
 10  6  1  0  0  0  0
 11  5  1  6  0  0  0
 11  4  1  0  0  0  0
 12 15  2  0  0  0  0
 13 18  1  0  0  0  0
 14 17  2  0  0  0  0
 15 18  1  0  0  0  0
 17 13  1  0  0  0  0
 18 16  1  1  0  0  0
 19 14  1  0  0  0  0
 20 14  1  0  0  0  0
 20 12  1  0  0  0  0
 22 21  1  0  0  0  0
 23 26  1  0  0  0  0
 24 22  2  0  0  0  0
 26 25  1  0  0  0  0
 26 21  2  0  0  0  0
 27 23  1  0  0  0  0
 28 23  2  0  0  0  0
 28 24  1  0  0  0  0
M  END
>  <MODEL>
9

>  <REMARK>
 VINA RESULT:      -9.3      3.020      6.472
  Name = 
  2 active torsions:
  status: ('A' for Active; 'I' for Inactive)
    1  A    between atoms: C_1  and  C_2
    2  A    between atoms: C_10  and  C_13
                            x       y       z     vdW  Elec       q    Type
                         _______ _______ _______ _____ _____    ______ ____

>  <TORSDO>
F 2

$$$$
