=
 OpenBabel11052412323D

 30 32  0  0  1  0  0  0  0  0999 V2000
  183.9440  179.3370  145.5800 O   0  0  0  0  0  0  0  0  0  0  0  0
  183.8270  178.6710  144.3610 C   0  0  0  0  0  2  0  0  0  0  0  0
  184.6690  179.3720  143.3180 C   0  0  0  0  0  2  0  0  0  0  0  0
  184.9880  178.4280  142.1690 C   0  0  0  0  0  2  0  0  0  0  0  0
  185.3170  179.2170  140.9140 C   0  0  0  0  0  2  0  0  0  0  0  0
  188.1510  178.9690  141.1740 O   0  0  0  0  0  0  0  0  0  0  0  0
  187.5950  178.3540  140.2240 C   0  0  0  0  0  0  0  0  0  0  0  0
  186.1760  178.4290  140.0450 N   0  0  0  0  0  2  0  0  0  0  0  0
  190.8550  176.7560  139.0360 C   0  0  0  0  0  2  0  0  0  0  0  0
  191.3690  174.8550  137.5000 C   0  0  0  0  0  1  0  0  0  0  0  0
  189.1520  178.5400  138.3010 C   0  0  1  0  0  3  0  0  0  0  0  0
  190.2690  175.7490  138.0370 C   0  0  2  0  0  3  0  0  0  0  0  0
  189.9030  177.8920  139.4640 C   0  0  1  0  0  3  0  0  0  0  0  0
  189.5120  176.3950  136.8730 C   0  0  0  0  0  2  0  0  0  0  0  0
  189.4880  177.9260  136.9250 C   0  0  0  0  0  2  0  0  0  0  0  0
  188.4220  177.5850  139.2460 C   0  0  1  0  0  3  0  0  0  0  0  0
  184.5580  178.4170  146.4280 C   0  0  0  0  0  2  0  0  0  0  0  0
  186.0660  178.5710  146.3500 C   0  0  0  0  0  2  0  0  0  0  0  0
  186.6790  177.3220  146.4930 O   0  0  0  0  0  0  0  0  0  0  0  0
  188.3430  176.9280  148.3060 C   0  0  0  0  0  2  0  0  0  0  0  0
  187.9070  178.3800  148.2560 C   0  0  0  0  0  2  0  0  0  0  0  0
  187.9690  177.5680  146.9790 C   0  0  0  0  0  0  0  0  0  0  0  0
  189.0090  178.1360  146.0060 C   0  0  0  0  0  2  0  0  0  0  0  0
  189.7310  177.0510  145.2080 C   0  0  1  0  0  3  0  0  0  0  0  0
  189.3370  177.0460  143.7230 C   0  0  2  0  0  3  0  0  0  0  0  0
  187.9790  176.4070  143.4490 C   0  0  0  0  0  1  0  0  0  0  0  0
  190.4280  176.4670  142.8290 C   0  0  0  0  0  2  0  0  0  0  0  0
  190.3990  175.0700  142.8380 O   0  0  0  0  0  1  0  0  0  0  0  0
  191.2350  177.2060  145.3670 C   0  0  0  0  0  2  0  0  0  0  0  0
  191.8260  176.2030  146.7560 S   0  0  0  0  0  1  0  0  0  0  0  0
  1 17  1  0  0  0  0
  2  1  1  0  0  0  0
  3  2  1  0  0  0  0
  4  3  1  0  0  0  0
  5  4  1  0  0  0  0
  7  6  2  0  0  0  0
  8  7  1  0  0  0  0
  8  5  1  0  0  0  0
 11 15  1  6  0  0  0
 11 16  1  0  0  0  0
 11 13  1  0  0  0  0
 12 10  1  6  0  0  0
 12  9  1  0  0  0  0
 13  9  1  6  0  0  0
 14 15  1  0  0  0  0
 14 12  1  0  0  0  0
 16 13  1  0  0  0  0
 16  7  1  1  0  0  0
 18 17  1  0  0  0  0
 18 19  1  0  0  0  0
 19 22  1  0  0  0  0
 21 20  1  0  0  0  0
 22 21  1  0  0  0  0
 22 20  1  0  0  0  0
 23 22  1  0  0  0  0
 24 29  1  6  0  0  0
 24 23  1  0  0  0  0
 25 26  1  1  0  0  0
 25 24  1  0  0  0  0
 27 28  1  0  0  0  0
 27 25  1  0  0  0  0
 29 30  1  0  0  0  0
M  END
>  <MODEL>
1

>  <REMARK>
 VINA RESULT:      -7.0      0.000      0.000
  Name = 
  15 active torsions:
  status: ('A' for Active; 'I' for Inactive)
    1  A    between atoms: C_2  and  C_18
    2  A    between atoms: C_2  and  C_22
    3  A    between atoms: C_4  and  C_23
    4  A    between atoms: C_7  and  C_16
    5  A    between atoms: C_7  and  C_30
    6  A    between atoms: O_10  and  C_19
    7  A    between atoms: O_10  and  C_25
    8  A    between atoms: N_13  and  C_27
    9  A    between atoms: O_15  and  C_16
   10  A    between atoms: O_15  and  C_26
   11  A    between atoms: C_18  and  C_20
   12  A    between atoms: C_18  and  C_28
   13  A    between atoms: C_19  and  C_28
   14  A    between atoms: C_25  and  C_26
   15  A    between atoms: C_27  and  C_30
                            x       y       z     vdW  Elec       q    Type
                         _______ _______ _______ _____ _____    ______ ____

>  <TORSDO>
F 15

$$$$
=
 OpenBabel11052412323D

 30 32  0  0  1  0  0  0  0  0999 V2000
  184.2870  178.3480  143.8800 O   0  0  0  0  0  0  0  0  0  0  0  0
  183.1580  179.0300  143.4280 C   0  0  0  0  0  2  0  0  0  0  0  0
  182.8730  178.6440  141.9930 C   0  0  0  0  0  2  0  0  0  0  0  0
  184.1340  178.1200  141.3240 C   0  0  0  0  0  2  0  0  0  0  0  0
  184.7380  179.1870  140.4280 C   0  0  0  0  0  2  0  0  0  0  0  0
  185.1550  177.9510  137.8870 O   0  0  0  0  0  0  0  0  0  0  0  0
  186.1600  178.1100  138.6310 C   0  0  0  0  0  0  0  0  0  0  0  0
  186.0200  178.7320  139.9130 N   0  0  0  0  0  2  0  0  0  0  0  0
  189.9310  177.6660  139.0490 C   0  0  0  0  0  2  0  0  0  0  0  0
  191.5510  175.9440  138.2450 C   0  0  0  0  0  1  0  0  0  0  0  0
  188.2360  178.6660  137.3900 C   0  0  1  0  0  3  0  0  0  0  0  0
  190.1200  176.4360  138.1510 C   0  0  2  0  0  3  0  0  0  0  0  0
  188.6030  178.4260  138.8550 C   0  0  1  0  0  3  0  0  0  0  0  0
  189.7490  176.6720  136.6840 C   0  0  0  0  0  2  0  0  0  0  0  0
  189.2640  178.0950  136.3900 C   0  0  0  0  0  2  0  0  0  0  0  0
  187.4970  177.6000  138.2010 C   0  0  1  0  0  3  0  0  0  0  0  0
  184.7640  179.1160  144.9390 C   0  0  0  0  0  2  0  0  0  0  0  0
  185.9090  178.3950  145.6260 C   0  0  0  0  0  2  0  0  0  0  0  0
  186.2940  177.2850  144.8690 O   0  0  0  0  0  0  0  0  0  0  0  0
  187.7430  177.7130  142.8850 C   0  0  0  0  0  2  0  0  0  0  0  0
  188.0960  176.4010  143.5600 C   0  0  0  0  0  2  0  0  0  0  0  0
  187.5810  177.5600  144.3890 C   0  0  0  0  0  0  0  0  0  0  0  0
  188.6360  178.0400  145.3930 C   0  0  0  0  0  2  0  0  0  0  0  0
  189.3620  176.8900  146.0890 C   0  0  1  0  0  3  0  0  0  0  0  0
  190.8860  177.0820  146.1180 C   0  0  2  0  0  3  0  0  0  0  0  0
  191.5610  176.8640  144.7680 C   0  0  0  0  0  1  0  0  0  0  0  0
  191.5570  176.2750  147.2250 C   0  0  0  0  0  2  0  0  0  0  0  0
  192.4070  175.3020  146.6950 O   0  0  0  0  0  1  0  0  0  0  0  0
  188.8130  176.7060  147.4940 C   0  0  0  0  0  2  0  0  0  0  0  0
  188.6540  178.3110  148.3220 S   0  0  0  0  0  1  0  0  0  0  0  0
  1 17  1  0  0  0  0
  2  1  1  0  0  0  0
  3  2  1  0  0  0  0
  4  3  1  0  0  0  0
  5  4  1  0  0  0  0
  6  7  2  0  0  0  0
  7  8  1  0  0  0  0
  8  5  1  0  0  0  0
 11 15  1  6  0  0  0
 11 16  1  0  0  0  0
 11 13  1  0  0  0  0
 12 10  1  6  0  0  0
 12  9  1  0  0  0  0
 13  9  1  6  0  0  0
 14 12  1  0  0  0  0
 15 14  1  0  0  0  0
 16  7  1  1  0  0  0
 16 13  1  0  0  0  0
 17 18  1  0  0  0  0
 19 18  1  0  0  0  0
 20 21  1  0  0  0  0
 20 22  1  0  0  0  0
 21 22  1  0  0  0  0
 22 19  1  0  0  0  0
 22 23  1  0  0  0  0
 24 23  1  1  0  0  0
 24 25  1  0  0  0  0
 24 29  1  0  0  0  0
 25 26  1  6  0  0  0
 25 27  1  0  0  0  0
 28 27  1  0  0  0  0
 29 30  1  0  0  0  0
M  END
>  <MODEL>
2

>  <REMARK>
 VINA RESULT:      -6.8      1.809      2.646
  Name = 
  15 active torsions:
  status: ('A' for Active; 'I' for Inactive)
    1  A    between atoms: C_2  and  C_18
    2  A    between atoms: C_2  and  C_22
    3  A    between atoms: C_4  and  C_23
    4  A    between atoms: C_7  and  C_16
    5  A    between atoms: C_7  and  C_30
    6  A    between atoms: O_10  and  C_19
    7  A    between atoms: O_10  and  C_25
    8  A    between atoms: N_13  and  C_27
    9  A    between atoms: O_15  and  C_16
   10  A    between atoms: O_15  and  C_26
   11  A    between atoms: C_18  and  C_20
   12  A    between atoms: C_18  and  C_28
   13  A    between atoms: C_19  and  C_28
   14  A    between atoms: C_25  and  C_26
   15  A    between atoms: C_27  and  C_30
                            x       y       z     vdW  Elec       q    Type
                         _______ _______ _______ _____ _____    ______ ____

>  <TORSDO>
F 15

$$$$
=
 OpenBabel11052412323D

 30 32  0  0  1  0  0  0  0  0999 V2000
  185.0390  179.4000  140.3180 O   0  0  0  0  0  0  0  0  0  0  0  0
  184.2550  178.6710  141.2120 C   0  0  0  0  0  2  0  0  0  0  0  0
  184.5780  179.0940  142.6290 C   0  0  0  0  0  2  0  0  0  0  0  0
  183.3650  178.9110  143.5270 C   0  0  0  0  0  2  0  0  0  0  0  0
  183.7690  179.0150  144.9870 C   0  0  0  0  0  2  0  0  0  0  0  0
  185.4740  179.6340  147.1940 O   0  0  0  0  0  0  0  0  0  0  0  0
  185.9400  178.8950  146.2850 C   0  0  0  0  0  0  0  0  0  0  0  0
  185.1330  178.5380  145.1580 N   0  0  0  0  0  2  0  0  0  0  0  0
  188.9330  176.8940  145.0090 C   0  0  0  0  0  2  0  0  0  0  0  0
  191.4030  177.1710  145.2440 C   0  0  0  0  0  1  0  0  0  0  0  0
  187.4420  177.0940  147.0970 C   0  0  1  0  0  3  0  0  0  0  0  0
  190.0510  177.6820  145.7020 C   0  0  2  0  0  3  0  0  0  0  0  0
  187.5150  177.1270  145.5700 C   0  0  1  0  0  3  0  0  0  0  0  0
  189.9780  177.6550  147.2310 C   0  0  0  0  0  2  0  0  0  0  0  0
  188.8030  176.8390  147.7790 C   0  0  0  0  0  2  0  0  0  0  0  0
  187.3570  178.4280  146.3550 C   0  0  1  0  0  3  0  0  0  0  0  0
  184.5630  179.0430  139.0580 C   0  0  0  0  0  2  0  0  0  0  0  0
  185.5850  178.1750  138.3470 C   0  0  0  0  0  2  0  0  0  0  0  0
  186.5160  178.9810  137.6850 O   0  0  0  0  0  0  0  0  0  0  0  0
  187.4750  177.3780  136.0340 C   0  0  0  0  0  2  0  0  0  0  0  0
  187.1530  176.6960  137.3510 C   0  0  0  0  0  2  0  0  0  0  0  0
  187.5870  178.1480  137.3400 C   0  0  0  0  0  0  0  0  0  0  0  0
  188.9150  178.3380  138.0820 C   0  0  0  0  0  2  0  0  0  0  0  0
  188.9650  177.5910  139.4140 C   0  0  1  0  0  3  0  0  0  0  0  0
  190.2280  176.7290  139.5640 C   0  0  2  0  0  3  0  0  0  0  0  0
  191.2920  177.3470  140.4650 C   0  0  0  0  0  1  0  0  0  0  0  0
  190.8030  176.2950  138.2200 C   0  0  0  0  0  2  0  0  0  0  0  0
  190.6220  174.9260  138.0120 O   0  0  0  0  0  1  0  0  0  0  0  0
  188.8430  178.5770  140.5650 C   0  0  0  0  0  2  0  0  0  0  0  0
  187.9230  177.8310  141.9360 S   0  0  0  0  0  1  0  0  0  0  0  0
  1  2  1  0  0  0  0
  2  3  1  0  0  0  0
  3  4  1  0  0  0  0
  4  5  1  0  0  0  0
  5  8  1  0  0  0  0
  7  6  2  0  0  0  0
  8  7  1  0  0  0  0
  9 12  1  0  0  0  0
 11 15  1  1  0  0  0
 12 10  1  1  0  0  0
 12 14  1  0  0  0  0
 13  9  1  1  0  0  0
 13 16  1  0  0  0  0
 13 11  1  0  0  0  0
 14 15  1  0  0  0  0
 16  7  1  6  0  0  0
 16 11  1  0  0  0  0
 17  1  1  0  0  0  0
 18 17  1  0  0  0  0
 19 18  1  0  0  0  0
 20 22  1  0  0  0  0
 20 21  1  0  0  0  0
 22 21  1  0  0  0  0
 22 19  1  0  0  0  0
 22 23  1  0  0  0  0
 24 23  1  6  0  0  0
 24 25  1  0  0  0  0
 24 29  1  0  0  0  0
 25 26  1  6  0  0  0
 27 25  1  0  0  0  0
 28 27  1  0  0  0  0
 29 30  1  0  0  0  0
M  END
>  <MODEL>
3

>  <REMARK>
 VINA RESULT:      -6.5      2.361      7.229
  Name = 
  15 active torsions:
  status: ('A' for Active; 'I' for Inactive)
    1  A    between atoms: C_2  and  C_18
    2  A    between atoms: C_2  and  C_22
    3  A    between atoms: C_4  and  C_23
    4  A    between atoms: C_7  and  C_16
    5  A    between atoms: C_7  and  C_30
    6  A    between atoms: O_10  and  C_19
    7  A    between atoms: O_10  and  C_25
    8  A    between atoms: N_13  and  C_27
    9  A    between atoms: O_15  and  C_16
   10  A    between atoms: O_15  and  C_26
   11  A    between atoms: C_18  and  C_20
   12  A    between atoms: C_18  and  C_28
   13  A    between atoms: C_19  and  C_28
   14  A    between atoms: C_25  and  C_26
   15  A    between atoms: C_27  and  C_30
                            x       y       z     vdW  Elec       q    Type
                         _______ _______ _______ _____ _____    ______ ____

>  <TORSDO>
F 15

$$$$
=
 OpenBabel11052412323D

 30 32  0  0  1  0  0  0  0  0999 V2000
  185.5040  178.4170  140.9110 O   0  0  0  0  0  0  0  0  0  0  0  0
  185.3650  179.3810  141.9090 C   0  0  0  0  0  2  0  0  0  0  0  0
  184.5440  178.8170  143.0480 C   0  0  0  0  0  2  0  0  0  0  0  0
  185.0450  179.3520  144.3800 C   0  0  0  0  0  2  0  0  0  0  0  0
  185.1550  178.2260  145.3920 C   0  0  0  0  0  2  0  0  0  0  0  0
  186.9860  176.7030  143.8150 O   0  0  0  0  0  0  0  0  0  0  0  0
  187.4170  177.2050  144.8880 C   0  0  0  0  0  0  0  0  0  0  0  0
  186.5520  177.9880  145.7180 N   0  0  0  0  0  2  0  0  0  0  0  0
  190.2510  177.2550  147.4490 C   0  0  0  0  0  2  0  0  0  0  0  0
  192.3150  175.8810  147.7440 C   0  0  0  0  0  1  0  0  0  0  0  0
  189.6850  178.1850  145.1170 C   0  0  1  0  0  3  0  0  0  0  0  0
  191.1440  176.1730  146.8270 C   0  0  2  0  0  3  0  0  0  0  0  0
  189.1700  177.8370  146.5140 C   0  0  1  0  0  3  0  0  0  0  0  0
  191.6570  176.5180  145.4260 C   0  0  0  0  0  2  0  0  0  0  0  0
  191.1850  177.8820  144.9130 C   0  0  0  0  0  2  0  0  0  0  0  0
  188.8200  176.9420  145.3260 C   0  0  1  0  0  3  0  0  0  0  0  0
  185.0030  179.0240  139.7610 C   0  0  0  0  0  2  0  0  0  0  0  0
  185.3980  178.2170  138.5380 C   0  0  0  0  0  2  0  0  0  0  0  0
  186.4210  178.8710  137.8460 O   0  0  0  0  0  0  0  0  0  0  0  0
  187.6520  178.0110  135.8560 C   0  0  0  0  0  2  0  0  0  0  0  0
  186.5040  177.0960  136.2400 C   0  0  0  0  0  2  0  0  0  0  0  0
  187.2420  177.8690  137.3130 C   0  0  0  0  0  0  0  0  0  0  0  0
  187.9550  176.9270  138.2900 C   0  0  0  0  0  2  0  0  0  0  0  0
  189.4620  177.1700  138.3600 C   0  0  1  0  0  3  0  0  0  0  0  0
  189.9140  177.7050  139.7270 C   0  0  2  0  0  3  0  0  0  0  0  0
  191.3500  177.3390  140.0860 C   0  0  0  0  0  1  0  0  0  0  0  0
  188.9400  177.3500  140.8460 C   0  0  0  0  0  2  0  0  0  0  0  0
  189.5730  176.6150  141.8500 O   0  0  0  0  0  1  0  0  0  0  0  0
  190.2080  175.8940  138.0030 C   0  0  0  0  0  2  0  0  0  0  0  0
  190.6740  175.9070  136.2520 S   0  0  0  0  0  1  0  0  0  0  0  0
  1  2  1  0  0  0  0
  2  3  1  0  0  0  0
  3  4  1  0  0  0  0
  4  5  1  0  0  0  0
  5  8  1  0  0  0  0
  6  7  2  0  0  0  0
  7  8  1  0  0  0  0
 11 15  1  1  0  0  0
 11 16  1  0  0  0  0
 11 13  1  0  0  0  0
 12  9  1  0  0  0  0
 12 10  1  1  0  0  0
 13  9  1  1  0  0  0
 14 12  1  0  0  0  0
 15 14  1  0  0  0  0
 16  7  1  6  0  0  0
 16 13  1  0  0  0  0
 17  1  1  0  0  0  0
 18 17  1  0  0  0  0
 19 18  1  0  0  0  0
 20 21  1  0  0  0  0
 20 22  1  0  0  0  0
 21 22  1  0  0  0  0
 22 19  1  0  0  0  0
 22 23  1  0  0  0  0
 23 24  1  0  0  0  0
 24 29  1  1  0  0  0
 24 25  1  0  0  0  0
 25 26  1  1  0  0  0
 25 27  1  0  0  0  0
 27 28  1  0  0  0  0
 30 29  1  0  0  0  0
M  END
>  <MODEL>
4

>  <REMARK>
 VINA RESULT:      -6.4      2.831      7.252
  Name = 
  15 active torsions:
  status: ('A' for Active; 'I' for Inactive)
    1  A    between atoms: C_2  and  C_18
    2  A    between atoms: C_2  and  C_22
    3  A    between atoms: C_4  and  C_23
    4  A    between atoms: C_7  and  C_16
    5  A    between atoms: C_7  and  C_30
    6  A    between atoms: O_10  and  C_19
    7  A    between atoms: O_10  and  C_25
    8  A    between atoms: N_13  and  C_27
    9  A    between atoms: O_15  and  C_16
   10  A    between atoms: O_15  and  C_26
   11  A    between atoms: C_18  and  C_20
   12  A    between atoms: C_18  and  C_28
   13  A    between atoms: C_19  and  C_28
   14  A    between atoms: C_25  and  C_26
   15  A    between atoms: C_27  and  C_30
                            x       y       z     vdW  Elec       q    Type
                         _______ _______ _______ _____ _____    ______ ____

>  <TORSDO>
F 15

$$$$
=
 OpenBabel11052412323D

 30 32  0  0  1  0  0  0  0  0999 V2000
  188.0310  178.6360  139.4450 O   0  0  0  0  0  0  0  0  0  0  0  0
  189.2920  178.0840  139.2180 C   0  0  0  0  0  2  0  0  0  0  0  0
  189.8330  177.5090  140.5090 C   0  0  0  0  0  2  0  0  0  0  0  0
  191.3370  177.3090  140.4120 C   0  0  0  0  0  2  0  0  0  0  0  0
  191.9880  177.5410  141.7640 C   0  0  0  0  0  2  0  0  0  0  0  0
  191.8680  179.2850  144.0240 O   0  0  0  0  0  0  0  0  0  0  0  0
  190.9830  178.3930  143.9270 C   0  0  0  0  0  0  0  0  0  0  0  0
  190.9810  177.4940  142.8130 N   0  0  0  0  0  2  0  0  0  0  0  0
  189.7470  177.0360  147.2770 C   0  0  0  0  0  2  0  0  0  0  0  0
  188.0440  177.8290  148.9220 C   0  0  0  0  0  1  0  0  0  0  0  0
  189.1400  176.9650  144.7770 C   0  0  1  0  0  3  0  0  0  0  0  0
  188.6330  178.0560  147.5430 C   0  0  2  0  0  3  0  0  0  0  0  0
  190.2560  176.9790  145.8210 C   0  0  1  0  0  3  0  0  0  0  0  0
  187.5150  178.0470  146.4950 C   0  0  0  0  0  2  0  0  0  0  0  0
  187.7210  177.0150  145.3820 C   0  0  0  0  0  2  0  0  0  0  0  0
  189.9600  178.2350  145.0040 C   0  0  1  0  0  3  0  0  0  0  0  0
  187.8870  178.6310  140.8310 C   0  0  0  0  0  2  0  0  0  0  0  0
  186.4510  178.3110  141.2000 C   0  0  0  0  0  2  0  0  0  0  0  0
  185.7890  179.4790  141.5930 O   0  0  0  0  0  0  0  0  0  0  0  0
  184.4880  179.8020  143.6950 C   0  0  0  0  0  2  0  0  0  0  0  0
  185.1860  178.4550  143.6730 C   0  0  0  0  0  2  0  0  0  0  0  0
  184.7020  179.0730  142.3770 C   0  0  0  0  0  0  0  0  0  0  0  0
  183.6190  178.2110  141.7170 C   0  0  0  0  0  2  0  0  0  0  0  0
  182.9630  178.8960  140.5190 C   0  0  1  0  0  3  0  0  0  0  0  0
  183.1660  178.1210  139.2080 C   0  0  2  0  0  3  0  0  0  0  0  0
  183.0460  176.6080  139.3620 C   0  0  0  0  0  1  0  0  0  0  0  0
  184.4490  178.5190  138.4860 C   0  0  0  0  0  2  0  0  0  0  0  0
  184.7210  177.6520  137.4260 O   0  0  0  0  0  1  0  0  0  0  0  0
  181.4840  179.1130  140.7950 C   0  0  0  0  0  2  0  0  0  0  0  0
  181.1540  179.0030  142.5740 S   0  0  0  0  0  1  0  0  0  0  0  0
  1 17  1  0  0  0  0
  2  1  1  0  0  0  0
  2  3  1  0  0  0  0
  4  3  1  0  0  0  0
  4  5  1  0  0  0  0
  5  8  1  0  0  0  0
  7  6  2  0  0  0  0
  8  7  1  0  0  0  0
  9 12  1  0  0  0  0
 11 16  1  0  0  0  0
 11 15  1  1  0  0  0
 11 13  1  0  0  0  0
 12 10  1  1  0  0  0
 13  9  1  1  0  0  0
 14 12  1  0  0  0  0
 15 14  1  0  0  0  0
 16  7  1  6  0  0  0
 16 13  1  0  0  0  0
 17 18  1  0  0  0  0
 18 19  1  0  0  0  0
 19 22  1  0  0  0  0
 21 20  1  0  0  0  0
 22 21  1  0  0  0  0
 22 20  1  0  0  0  0
 23 22  1  0  0  0  0
 24 29  1  1  0  0  0
 24 23  1  0  0  0  0
 25 26  1  1  0  0  0
 25 24  1  0  0  0  0
 27 25  1  0  0  0  0
 28 27  1  0  0  0  0
 29 30  1  0  0  0  0
M  END
>  <MODEL>
5

>  <REMARK>
 VINA RESULT:      -6.4      3.250      7.629
  Name = 
  15 active torsions:
  status: ('A' for Active; 'I' for Inactive)
    1  A    between atoms: C_2  and  C_18
    2  A    between atoms: C_2  and  C_22
    3  A    between atoms: C_4  and  C_23
    4  A    between atoms: C_7  and  C_16
    5  A    between atoms: C_7  and  C_30
    6  A    between atoms: O_10  and  C_19
    7  A    between atoms: O_10  and  C_25
    8  A    between atoms: N_13  and  C_27
    9  A    between atoms: O_15  and  C_16
   10  A    between atoms: O_15  and  C_26
   11  A    between atoms: C_18  and  C_20
   12  A    between atoms: C_18  and  C_28
   13  A    between atoms: C_19  and  C_28
   14  A    between atoms: C_25  and  C_26
   15  A    between atoms: C_27  and  C_30
                            x       y       z     vdW  Elec       q    Type
                         _______ _______ _______ _____ _____    ______ ____

>  <TORSDO>
F 15

$$$$
=
 OpenBabel11052412323D

 30 32  0  0  1  0  0  0  0  0999 V2000
  190.3730  176.8300  139.9560 O   0  0  0  0  0  0  0  0  0  0  0  0
  190.2480  176.9310  138.5710 C   0  0  0  0  0  2  0  0  0  0  0  0
  189.1850  177.9530  138.2310 C   0  0  0  0  0  2  0  0  0  0  0  0
  188.7390  177.7950  136.7860 C   0  0  0  0  0  2  0  0  0  0  0  0
  187.5430  178.6860  136.5030 C   0  0  0  0  0  2  0  0  0  0  0  0
  185.2460  177.0330  136.8940 O   0  0  0  0  0  0  0  0  0  0  0  0
  185.5230  177.8710  137.7940 C   0  0  0  0  0  0  0  0  0  0  0  0
  186.6670  178.7220  137.6640 N   0  0  0  0  0  2  0  0  0  0  0  0
  182.5940  179.4430  139.6770 C   0  0  0  0  0  2  0  0  0  0  0  0
  181.0990  178.6290  141.5040 C   0  0  0  0  0  1  0  0  0  0  0  0
  185.1380  179.1260  139.9000 C   0  0  1  0  0  3  0  0  0  0  0  0
  182.3400  178.3200  140.6900 C   0  0  2  0  0  3  0  0  0  0  0  0
  183.9600  179.3910  138.9620 C   0  0  1  0  0  3  0  0  0  0  0  0
  183.5200  178.0480  141.6280 C   0  0  0  0  0  2  0  0  0  0  0  0
  184.7290  178.9560  141.3790 C   0  0  0  0  0  2  0  0  0  0  0  0
  184.6260  178.0170  138.9800 C   0  0  1  0  0  3  0  0  0  0  0  0
  189.1880  177.3630  140.4580 C   0  0  0  0  0  2  0  0  0  0  0  0
  189.0880  177.0900  141.9470 C   0  0  0  0  0  2  0  0  0  0  0  0
  189.1470  178.2930  142.6560 O   0  0  0  0  0  0  0  0  0  0  0  0
  191.1020  178.8980  144.0800 C   0  0  0  0  0  2  0  0  0  0  0  0
  191.2620  177.5170  143.4710 C   0  0  0  0  0  2  0  0  0  0  0  0
  189.8800  178.0310  143.8210 C   0  0  0  0  0  0  0  0  0  0  0  0
  189.2230  177.1720  144.9070 C   0  0  0  0  0  2  0  0  0  0  0  0
  188.4450  177.9980  145.9300 C   0  0  1  0  0  3  0  0  0  0  0  0
  186.9480  177.6520  145.9570 C   0  0  2  0  0  3  0  0  0  0  0  0
  186.2690  177.7470  144.5950 C   0  0  0  0  0  1  0  0  0  0  0  0
  186.1870  178.4280  147.0270 C   0  0  0  0  0  2  0  0  0  0  0  0
  184.8740  178.6840  146.6260 O   0  0  0  0  0  1  0  0  0  0  0  0
  189.0640  177.8320  147.3080 C   0  0  0  0  0  2  0  0  0  0  0  0
  190.5140  176.7480  147.2180 S   0  0  0  0  0  1  0  0  0  0  0  0
  1 17  1  0  0  0  0
  2  1  1  0  0  0  0
  3  2  1  0  0  0  0
  4  3  1  0  0  0  0
  5  4  1  0  0  0  0
  5  8  1  0  0  0  0
  6  7  2  0  0  0  0
  8  7  1  0  0  0  0
  9 12  1  0  0  0  0
 11 15  1  1  0  0  0
 12 10  1  1  0  0  0
 12 14  1  0  0  0  0
 13 16  1  0  0  0  0
 13  9  1  1  0  0  0
 13 11  1  0  0  0  0
 15 14  1  0  0  0  0
 16  7  1  6  0  0  0
 16 11  1  0  0  0  0
 17 18  1  0  0  0  0
 18 19  1  0  0  0  0
 19 22  1  0  0  0  0
 21 22  1  0  0  0  0
 21 20  1  0  0  0  0
 22 20  1  0  0  0  0
 22 23  1  0  0  0  0
 24 23  1  6  0  0  0
 24 25  1  0  0  0  0
 24 29  1  0  0  0  0
 25 26  1  6  0  0  0
 25 27  1  0  0  0  0
 28 27  1  0  0  0  0
 30 29  1  0  0  0  0
M  END
>  <MODEL>
6

>  <REMARK>
 VINA RESULT:      -6.3      2.181      6.067
  Name = 
  15 active torsions:
  status: ('A' for Active; 'I' for Inactive)
    1  A    between atoms: C_2  and  C_18
    2  A    between atoms: C_2  and  C_22
    3  A    between atoms: C_4  and  C_23
    4  A    between atoms: C_7  and  C_16
    5  A    between atoms: C_7  and  C_30
    6  A    between atoms: O_10  and  C_19
    7  A    between atoms: O_10  and  C_25
    8  A    between atoms: N_13  and  C_27
    9  A    between atoms: O_15  and  C_16
   10  A    between atoms: O_15  and  C_26
   11  A    between atoms: C_18  and  C_20
   12  A    between atoms: C_18  and  C_28
   13  A    between atoms: C_19  and  C_28
   14  A    between atoms: C_25  and  C_26
   15  A    between atoms: C_27  and  C_30
                            x       y       z     vdW  Elec       q    Type
                         _______ _______ _______ _____ _____    ______ ____

>  <TORSDO>
F 15

$$$$
=
 OpenBabel11052412323D

 30 32  0  0  1  0  0  0  0  0999 V2000
  184.9490  179.5250  140.0870 O   0  0  0  0  0  0  0  0  0  0  0  0
  183.8420  178.9930  140.7480 C   0  0  0  0  0  2  0  0  0  0  0  0
  184.3020  178.2230  141.9670 C   0  0  0  0  0  2  0  0  0  0  0  0
  184.9410  179.1620  142.9780 C   0  0  0  0  0  2  0  0  0  0  0  0
  185.1520  178.4460  144.3010 C   0  0  0  0  0  2  0  0  0  0  0  0
  186.4180  177.5020  146.6820 O   0  0  0  0  0  0  0  0  0  0  0  0
  187.1030  177.5220  145.6240 C   0  0  0  0  0  0  0  0  0  0  0  0
  186.5240  177.9730  144.3950 N   0  0  0  0  0  2  0  0  0  0  0  0
  190.4930  177.1460  147.3440 C   0  0  0  0  0  2  0  0  0  0  0  0
  192.4290  175.6090  146.9950 C   0  0  0  0  0  1  0  0  0  0  0  0
  189.4340  178.3140  145.3100 C   0  0  1  0  0  3  0  0  0  0  0  0
  191.0930  176.0620  146.4400 C   0  0  2  0  0  3  0  0  0  0  0  0
  189.2660  177.8830  146.7670 C   0  0  1  0  0  3  0  0  0  0  0  0
  191.2570  176.4900  144.9790 C   0  0  0  0  0  2  0  0  0  0  0  0
  190.7960  177.9240  144.6980 C   0  0  0  0  0  2  0  0  0  0  0  0
  188.5420  177.1220  145.6580 C   0  0  1  0  0  3  0  0  0  0  0  0
  184.9850  178.8580  138.8650 C   0  0  0  0  0  2  0  0  0  0  0  0
  186.2240  177.9850  138.7900 C   0  0  0  0  0  2  0  0  0  0  0  0
  187.3710  178.7840  138.8060 O   0  0  0  0  0  0  0  0  0  0  0  0
  189.0510  178.9230  136.9690 C   0  0  0  0  0  2  0  0  0  0  0  0
  187.8840  178.0290  136.5910 C   0  0  0  0  0  2  0  0  0  0  0  0
  188.3310  178.1140  138.0360 C   0  0  0  0  0  0  0  0  0  0  0  0
  188.8440  176.7610  138.5430 C   0  0  0  0  0  2  0  0  0  0  0  0
  190.2730  176.8290  139.0790 C   0  0  1  0  0  3  0  0  0  0  0  0
  190.3430  176.6610  140.6050 C   0  0  2  0  0  3  0  0  0  0  0  0
  189.1510  177.2590  141.3460 C   0  0  0  0  0  1  0  0  0  0  0  0
  191.6700  177.1370  141.1860 C   0  0  0  0  0  2  0  0  0  0  0  0
  192.3940  177.8790  140.2490 O   0  0  0  0  0  1  0  0  0  0  0  0
  191.1380  175.7930  138.3800 C   0  0  0  0  0  2  0  0  0  0  0  0
  190.1540  174.8650  137.1740 S   0  0  0  0  0  1  0  0  0  0  0  0
  1  2  1  0  0  0  0
  2  3  1  0  0  0  0
  3  4  1  0  0  0  0
  4  5  1  0  0  0  0
  5  8  1  0  0  0  0
  7  6  2  0  0  0  0
  8  7  1  0  0  0  0
 11 15  1  6  0  0  0
 11 16  1  0  0  0  0
 11 13  1  0  0  0  0
 12 10  1  1  0  0  0
 12  9  1  0  0  0  0
 13  9  1  6  0  0  0
 14 12  1  0  0  0  0
 15 14  1  0  0  0  0
 16  7  1  1  0  0  0
 16 13  1  0  0  0  0
 17  1  1  0  0  0  0
 18 19  1  0  0  0  0
 18 17  1  0  0  0  0
 20 22  1  0  0  0  0
 21 20  1  0  0  0  0
 21 22  1  0  0  0  0
 22 23  1  0  0  0  0
 22 19  1  0  0  0  0
 23 24  1  0  0  0  0
 24 29  1  6  0  0  0
 24 25  1  0  0  0  0
 25 27  1  0  0  0  0
 25 26  1  1  0  0  0
 28 27  1  0  0  0  0
 30 29  1  0  0  0  0
M  END
>  <MODEL>
7

>  <REMARK>
 VINA RESULT:      -6.2      2.622      6.984
  Name = 
  15 active torsions:
  status: ('A' for Active; 'I' for Inactive)
    1  A    between atoms: C_2  and  C_18
    2  A    between atoms: C_2  and  C_22
    3  A    between atoms: C_4  and  C_23
    4  A    between atoms: C_7  and  C_16
    5  A    between atoms: C_7  and  C_30
    6  A    between atoms: O_10  and  C_19
    7  A    between atoms: O_10  and  C_25
    8  A    between atoms: N_13  and  C_27
    9  A    between atoms: O_15  and  C_16
   10  A    between atoms: O_15  and  C_26
   11  A    between atoms: C_18  and  C_20
   12  A    between atoms: C_18  and  C_28
   13  A    between atoms: C_19  and  C_28
   14  A    between atoms: C_25  and  C_26
   15  A    between atoms: C_27  and  C_30
                            x       y       z     vdW  Elec       q    Type
                         _______ _______ _______ _____ _____    ______ ____

>  <TORSDO>
F 15

$$$$
=
 OpenBabel11052412323D

 30 32  0  0  1  0  0  0  0  0999 V2000
  187.6610  178.3790  138.5700 O   0  0  0  0  0  0  0  0  0  0  0  0
  188.4080  177.2010  138.5840 C   0  0  0  0  0  2  0  0  0  0  0  0
  189.8580  177.5240  138.8690 C   0  0  0  0  0  2  0  0  0  0  0  0
  190.3970  176.6250  139.9700 C   0  0  0  0  0  2  0  0  0  0  0  0
  191.1670  177.4440  140.9900 C   0  0  0  0  0  2  0  0  0  0  0  0
  188.8040  178.8820  141.7040 O   0  0  0  0  0  0  0  0  0  0  0  0
  189.3220  178.1370  142.5790 C   0  0  0  0  0  0  0  0  0  0  0  0
  190.5000  177.3810  142.2810 N   0  0  0  0  0  2  0  0  0  0  0  0
  189.2520  176.9320  146.2040 C   0  0  0  0  0  2  0  0  0  0  0  0
  188.2990  177.8850  148.3060 C   0  0  0  0  0  1  0  0  0  0  0  0
  187.7990  176.8760  144.0800 C   0  0  1  0  0  3  0  0  0  0  0  0
  188.3790  178.0440  146.8010 C   0  0  2  0  0  3  0  0  0  0  0  0
  189.2100  176.8140  144.6660 C   0  0  1  0  0  3  0  0  0  0  0  0
  186.9670  178.1120  146.2120 C   0  0  0  0  0  2  0  0  0  0  0  0
  186.6920  177.0510  145.1410 C   0  0  0  0  0  2  0  0  0  0  0  0
  188.7350  178.0780  143.9520 C   0  0  1  0  0  3  0  0  0  0  0  0
  186.6590  178.1500  137.6300 C   0  0  0  0  0  2  0  0  0  0  0  0
  185.2970  178.2790  138.2850 C   0  0  0  0  0  2  0  0  0  0  0  0
  184.5310  177.1400  138.0210 O   0  0  0  0  0  0  0  0  0  0  0  0
  182.6690  175.9170  139.1400 C   0  0  0  0  0  2  0  0  0  0  0  0
  182.1510  176.8750  138.0840 C   0  0  0  0  0  2  0  0  0  0  0  0
  183.4090  177.2140  138.8570 C   0  0  0  0  0  0  0  0  0  0  0  0
  183.2220  178.4810  139.7000 C   0  0  0  0  0  2  0  0  0  0  0  0
  182.9230  178.1800  141.1680 C   0  0  1  0  0  3  0  0  0  0  0  0
  183.9030  178.8720  142.1270 C   0  0  2  0  0  3  0  0  0  0  0  0
  185.3580  178.4630  141.9210 C   0  0  0  0  0  1  0  0  0  0  0  0
  183.4790  178.7490  143.5870 C   0  0  0  0  0  2  0  0  0  0  0  0
  184.1040  179.7170  144.3760 O   0  0  0  0  0  1  0  0  0  0  0  0
  181.4880  178.5620  141.4920 C   0  0  0  0  0  2  0  0  0  0  0  0
  180.8370  179.6870  140.2290 S   0  0  0  0  0  1  0  0  0  0  0  0
  1  2  1  0  0  0  0
  2  3  1  0  0  0  0
  3  4  1  0  0  0  0
  4  5  1  0  0  0  0
  5  8  1  0  0  0  0
  6  7  2  0  0  0  0
  8  7  1  0  0  0  0
  9 12  1  0  0  0  0
 11 13  1  0  0  0  0
 11 15  1  1  0  0  0
 12 10  1  1  0  0  0
 13  9  1  1  0  0  0
 14 12  1  0  0  0  0
 15 14  1  0  0  0  0
 16  7  1  6  0  0  0
 16 11  1  0  0  0  0
 16 13  1  0  0  0  0
 17 18  1  0  0  0  0
 17  1  1  0  0  0  0
 19 18  1  0  0  0  0
 19 22  1  0  0  0  0
 21 22  1  0  0  0  0
 21 20  1  0  0  0  0
 22 20  1  0  0  0  0
 22 23  1  0  0  0  0
 24 23  1  6  0  0  0
 24 29  1  0  0  0  0
 24 25  1  0  0  0  0
 25 26  1  1  0  0  0
 25 27  1  0  0  0  0
 27 28  1  0  0  0  0
 30 29  1  0  0  0  0
M  END
>  <MODEL>
8

>  <REMARK>
 VINA RESULT:      -6.2      3.426      8.113
  Name = 
  15 active torsions:
  status: ('A' for Active; 'I' for Inactive)
    1  A    between atoms: C_2  and  C_18
    2  A    between atoms: C_2  and  C_22
    3  A    between atoms: C_4  and  C_23
    4  A    between atoms: C_7  and  C_16
    5  A    between atoms: C_7  and  C_30
    6  A    between atoms: O_10  and  C_19
    7  A    between atoms: O_10  and  C_25
    8  A    between atoms: N_13  and  C_27
    9  A    between atoms: O_15  and  C_16
   10  A    between atoms: O_15  and  C_26
   11  A    between atoms: C_18  and  C_20
   12  A    between atoms: C_18  and  C_28
   13  A    between atoms: C_19  and  C_28
   14  A    between atoms: C_25  and  C_26
   15  A    between atoms: C_27  and  C_30
                            x       y       z     vdW  Elec       q    Type
                         _______ _______ _______ _____ _____    ______ ____

>  <TORSDO>
F 15

$$$$
=
 OpenBabel11052412323D

 30 32  0  0  1  0  0  0  0  0999 V2000
  184.9210  179.2470  140.0110 O   0  0  0  0  0  0  0  0  0  0  0  0
  183.8260  179.0100  140.8420 C   0  0  0  0  0  2  0  0  0  0  0  0
  184.3080  178.7320  142.2490 C   0  0  0  0  0  2  0  0  0  0  0  0
  183.1530  178.8250  143.2340 C   0  0  0  0  0  2  0  0  0  0  0  0
  183.6770  179.0790  144.6370 C   0  0  0  0  0  2  0  0  0  0  0  0
  185.2590  179.1070  147.0150 O   0  0  0  0  0  0  0  0  0  0  0  0
  185.8110  178.7200  145.9500 C   0  0  0  0  0  0  0  0  0  0  0  0
  185.0700  178.6730  144.7260 N   0  0  0  0  0  2  0  0  0  0  0  0
  188.8770  176.9450  144.5190 C   0  0  0  0  0  2  0  0  0  0  0  0
  191.3290  177.4010  144.6380 C   0  0  0  0  0  1  0  0  0  0  0  0
  187.4780  177.0310  146.6770 C   0  0  1  0  0  3  0  0  0  0  0  0
  189.9670  177.8110  145.1630 C   0  0  2  0  0  3  0  0  0  0  0  0
  187.4740  177.0740  145.1490 C   0  0  1  0  0  3  0  0  0  0  0  0
  189.9700  177.7740  146.6940 C   0  0  0  0  0  2  0  0  0  0  0  0
  188.8850  176.8740  147.2920 C   0  0  0  0  0  2  0  0  0  0  0  0
  187.2610  178.3580  145.9490 C   0  0  1  0  0  3  0  0  0  0  0  0
  184.5840  178.6440  138.8020 C   0  0  0  0  0  2  0  0  0  0  0  0
  185.7470  177.8100  138.2990 C   0  0  0  0  0  2  0  0  0  0  0  0
  186.4270  178.5000  137.2910 O   0  0  0  0  0  0  0  0  0  0  0  0
  187.7710  177.7290  135.3380 C   0  0  0  0  0  2  0  0  0  0  0  0
  186.8200  176.6500  135.8200 C   0  0  0  0  0  2  0  0  0  0  0  0
  187.4150  177.6290  136.8120 C   0  0  0  0  0  0  0  0  0  0  0  0
  188.3030  176.9140  137.8370 C   0  0  0  0  0  2  0  0  0  0  0  0
  189.5480  177.7190  138.2080 C   0  0  1  0  0  3  0  0  0  0  0  0
  189.6560  177.9830  139.7180 C   0  0  2  0  0  3  0  0  0  0  0  0
  190.3760  176.8790  140.4860 C   0  0  0  0  0  1  0  0  0  0  0  0
  188.3110  178.3300  140.3490 C   0  0  0  0  0  2  0  0  0  0  0  0
  188.3700  178.2410  141.7410 O   0  0  0  0  0  1  0  0  0  0  0  0
  190.7920  177.0140  137.6920 C   0  0  0  0  0  2  0  0  0  0  0  0
  190.5050  175.2280  137.5880 S   0  0  0  0  0  1  0  0  0  0  0  0
  1  2  1  0  0  0  0
  2  3  1  0  0  0  0
  3  4  1  0  0  0  0
  4  5  1  0  0  0  0
  5  8  1  0  0  0  0
  7  6  2  0  0  0  0
  8  7  1  0  0  0  0
  9 12  1  0  0  0  0
 11 15  1  1  0  0  0
 12 10  1  6  0  0  0
 12 14  1  0  0  0  0
 13  9  1  1  0  0  0
 13 16  1  0  0  0  0
 13 11  1  0  0  0  0
 14 15  1  0  0  0  0
 16  7  1  6  0  0  0
 16 11  1  0  0  0  0
 17  1  1  0  0  0  0
 18 17  1  0  0  0  0
 19 18  1  0  0  0  0
 20 21  1  0  0  0  0
 20 22  1  0  0  0  0
 21 22  1  0  0  0  0
 22 19  1  0  0  0  0
 22 23  1  0  0  0  0
 23 24  1  0  0  0  0
 24 29  1  1  0  0  0
 24 25  1  0  0  0  0
 25 27  1  0  0  0  0
 25 26  1  1  0  0  0
 27 28  1  0  0  0  0
 30 29  1  0  0  0  0
M  END
>  <MODEL>
9

>  <REMARK>
 VINA RESULT:      -6.1      2.581      7.419
  Name = 
  15 active torsions:
  status: ('A' for Active; 'I' for Inactive)
    1  A    between atoms: C_2  and  C_18
    2  A    between atoms: C_2  and  C_22
    3  A    between atoms: C_4  and  C_23
    4  A    between atoms: C_7  and  C_16
    5  A    between atoms: C_7  and  C_30
    6  A    between atoms: O_10  and  C_19
    7  A    between atoms: O_10  and  C_25
    8  A    between atoms: N_13  and  C_27
    9  A    between atoms: O_15  and  C_16
   10  A    between atoms: O_15  and  C_26
   11  A    between atoms: C_18  and  C_20
   12  A    between atoms: C_18  and  C_28
   13  A    between atoms: C_19  and  C_28
   14  A    between atoms: C_25  and  C_26
   15  A    between atoms: C_27  and  C_30
                            x       y       z     vdW  Elec       q    Type
                         _______ _______ _______ _____ _____    ______ ____

>  <TORSDO>
F 15

$$$$
