=
 OpenBabel11052414393D

 32 37  0  0  1  0  0  0  0  0999 V2000
  187.7890  177.9280  138.7890 C   0  0  1  0  0  3  0  0  0  0  0  0
  187.3780  178.0310  141.0850 C   0  0  0  0  0  0  0  0  0  0  0  0
  188.6840  178.7740  137.9380 C   0  0  0  0  0  3  0  0  0  0  0  0
  188.3590  177.6820  140.1640 C   0  0  0  0  0  0  0  0  0  0  0  0
  188.4600  177.3090  143.3190 C   0  0  0  0  0  0  0  0  0  0  0  0
  184.3480  179.0310  144.2790 C   0  0  0  0  0  3  0  0  0  0  0  0
  187.4140  177.8810  142.4680 C   0  0  0  0  0  0  0  0  0  0  0  0
  186.0570  178.0950  145.7530 C   0  0  0  0  0  3  0  0  0  0  0  0
  186.8460  177.8780  144.6250 C   0  0  0  0  0  0  0  0  0  0  0  0
  189.6960  176.8130  142.9380 C   0  0  0  0  0  0  0  0  0  0  0  0
  189.6480  177.1280  140.3990 C   0  0  0  0  0  0  0  0  0  0  0  0
  188.0730  177.3290  144.6180 N   0  0  0  0  0  0  0  0  0  0  0  0
  190.6920  176.9450  139.3150 C   0  0  0  0  0  2  0  0  0  0  0  0
  190.2410  176.9830  137.8610 C   0  0  0  0  0  2  0  0  0  0  0  0
  186.2360  178.5800  140.4480 N   0  0  0  0  0  2  0  0  0  0  0  0
  190.1800  176.7700  141.6380 C   0  0  0  0  0  3  0  0  0  0  0  0
  186.4550  178.6280  139.0170 C   0  0  2  0  0  3  0  0  0  0  0  0
  186.4170  178.2210  143.3660 C   0  0  0  0  0  0  0  0  0  0  0  0
  190.5370  176.3270  143.9320 O   0  0  0  0  0  1  0  0  0  0  0  0
  189.8060  178.3140  137.5150 N   0  0  0  0  0  0  0  0  0  0  0  0
  184.7920  178.6800  145.5700 C   0  0  0  0  0  3  0  0  0  0  0  0
  185.1630  178.8030  143.1580 C   0  0  0  0  0  3  0  0  0  0  0  0
  183.0430  177.8070  137.5380 C   0  0  0  0  0  0  0  0  0  0  0  0
  181.6550  178.3450  137.4710 C   0  0  0  0  0  1  0  0  0  0  0  0
  185.3460  177.9300  138.2820 C   0  0  0  0  0  0  0  0  0  0  0  0
  183.3280  176.6460  136.8900 N   0  0  0  0  0  0  0  0  0  0  0  0
  185.6020  176.7350  137.5990 C   0  0  0  0  0  3  0  0  0  0  0  0
  184.0510  178.4790  138.2520 C   0  0  0  0  0  0  0  0  0  0  0  0
  183.6990  179.9910  139.0930 Cl  0  0  0  0  0  0  0  0  0  0  0  0
  184.5700  176.0970  136.9120 C   0  0  0  0  0  0  0  0  0  0  0  0
  185.4430  173.9110  137.0110 O   0  0  0  0  0  1  0  0  0  0  0  0
  184.8410  174.8410  136.1640 C   0  0  0  0  0  2  0  0  0  0  0  0
  1  3  1  6  0  0  0
  1 17  1  0  0  0  0
  1  4  1  0  0  0  0
  2  7  1  0  0  0  0
  4 11  1  0  0  0  0
  4  2  2  0  0  0  0
  5 12  1  0  0  0  0
  6 21  1  0  0  0  0
  7  5  1  0  0  0  0
  7 18  2  0  0  0  0
  9  8  1  0  0  0  0
 10  5  2  0  0  0  0
 10 19  1  0  0  0  0
 11 16  2  0  0  0  0
 12  9  2  0  0  0  0
 13 11  1  0  0  0  0
 14 13  1  0  0  0  0
 15  2  1  0  0  0  0
 16 10  1  0  0  0  0
 17 25  1  6  0  0  0
 17 15  1  0  0  0  0
 18  9  1  0  0  0  0
 20 14  1  0  0  0  0
 20  3  2  0  0  0  0
 21  8  2  0  0  0  0
 22 18  1  0  0  0  0
 22  6  2  0  0  0  0
 23 28  1  0  0  0  0
 24 23  1  0  0  0  0
 26 30  1  0  0  0  0
 26 23  2  0  0  0  0
 27 25  1  0  0  0  0
 28 25  2  0  0  0  0
 28 29  1  0  0  0  0
 30 27  2  0  0  0  0
 32 30  1  0  0  0  0
 32 31  1  0  0  0  0
M  END
>  <MODEL>
1

>  <REMARK>
 VINA RESULT:      -8.8      0.000      0.000
  Name = 
  2 active torsions:
  status: ('A' for Active; 'I' for Inactive)
    1  A    between atoms: C_15  and  CA_26
    2  A    between atoms: C_16  and  C_27
                            x       y       z     vdW  Elec       q    Type
                         _______ _______ _______ _____ _____    ______ ____

>  <TORSDO>
F 2

$$$$
=
 OpenBabel11052414393D

 32 37  0  0  1  0  0  0  0  0999 V2000
  189.9950  177.5860  142.0050 C   0  0  1  0  0  3  0  0  0  0  0  0
  187.7170  178.0850  142.1120 C   0  0  0  0  0  0  0  0  0  0  0  0
  191.1700  178.3640  142.5100 C   0  0  0  0  0  3  0  0  0  0  0  0
  188.7910  177.7030  142.9070 C   0  0  0  0  0  0  0  0  0  0  0  0
  185.7490  177.9860  143.7860 C   0  0  0  0  0  0  0  0  0  0  0  0
  184.0540  179.2620  139.7500 C   0  0  0  0  0  3  0  0  0  0  0  0
  186.3840  178.2210  142.4870 C   0  0  0  0  0  0  0  0  0  0  0  0
  182.9380  178.8910  141.8920 C   0  0  0  0  0  3  0  0  0  0  0  0
  184.1810  178.5680  142.4320 C   0  0  0  0  0  0  0  0  0  0  0  0
  186.3510  177.6040  144.9740 C   0  0  0  0  0  0  0  0  0  0  0  0
  188.8090  177.3960  144.2960 C   0  0  0  0  0  0  0  0  0  0  0  0
  184.4150  178.2090  143.7060 N   0  0  0  0  0  0  0  0  0  0  0  0
  190.0810  177.1500  145.0830 C   0  0  0  0  0  2  0  0  0  0  0  0
  191.3590  176.8330  144.3160 C   0  0  0  0  0  2  0  0  0  0  0  0
  188.1190  178.3280  140.7740 N   0  0  0  0  0  2  0  0  0  0  0  0
  187.7070  177.3710  145.1520 C   0  0  0  0  0  3  0  0  0  0  0  0
  189.5470  178.1200  140.6500 C   0  0  2  0  0  3  0  0  0  0  0  0
  185.3260  178.5880  141.6730 C   0  0  0  0  0  0  0  0  0  0  0  0
  185.5420  177.4500  146.0940 O   0  0  0  0  0  1  0  0  0  0  0  0
  191.7880  177.9920  143.5730 N   0  0  0  0  0  0  0  0  0  0  0  0
  182.8810  179.2420  140.5320 C   0  0  0  0  0  3  0  0  0  0  0  0
  185.2950  178.9330  140.3190 C   0  0  0  0  0  3  0  0  0  0  0  0
  191.4290  175.8560  138.2350 C   0  0  0  0  0  0  0  0  0  0  0  0
  192.8170  175.4490  137.8790 C   0  0  0  0  0  1  0  0  0  0  0  0
  189.8520  177.1400  139.5550 C   0  0  0  0  0  0  0  0  0  0  0  0
  190.3890  175.3020  137.5560 N   0  0  0  0  0  0  0  0  0  0  0  0
  188.8080  176.5440  138.8360 C   0  0  0  0  0  3  0  0  0  0  0  0
  191.1820  176.7920  139.2560 C   0  0  0  0  0  0  0  0  0  0  0  0
  192.5210  177.5160  140.1520 Cl  0  0  0  0  0  0  0  0  0  0  0  0
  189.0990  175.6280  137.8260 C   0  0  0  0  0  0  0  0  0  0  0  0
  186.8130  175.6920  137.2590 O   0  0  0  0  0  1  0  0  0  0  0  0
  187.9940  174.9740  137.0760 C   0  0  0  0  0  2  0  0  0  0  0  0
  1  3  1  1  0  0  0
  1  4  1  0  0  0  0
  2  7  2  0  0  0  0
  2  4  1  0  0  0  0
  3 20  2  0  0  0  0
  4 11  2  0  0  0  0
  5 10  1  0  0  0  0
  6 22  2  0  0  0  0
  6 21  1  0  0  0  0
  7  5  1  0  0  0  0
  8  9  1  0  0  0  0
  9 12  1  0  0  0  0
 10 16  2  0  0  0  0
 10 19  1  0  0  0  0
 11 13  1  0  0  0  0
 11 16  1  0  0  0  0
 12  5  2  0  0  0  0
 14 13  1  0  0  0  0
 15  2  1  0  0  0  0
 17 25  1  6  0  0  0
 17 15  1  0  0  0  0
 17  1  1  0  0  0  0
 18  9  2  0  0  0  0
 18  7  1  0  0  0  0
 20 14  1  0  0  0  0
 21  8  2  0  0  0  0
 22 18  1  0  0  0  0
 23 28  1  0  0  0  0
 24 23  1  0  0  0  0
 26 30  1  0  0  0  0
 26 23  2  0  0  0  0
 27 25  1  0  0  0  0
 28 25  2  0  0  0  0
 28 29  1  0  0  0  0
 30 27  2  0  0  0  0
 32 31  1  0  0  0  0
 32 30  1  0  0  0  0
M  END
>  <MODEL>
2

>  <REMARK>
 VINA RESULT:      -8.7      2.975      5.191
  Name = 
  2 active torsions:
  status: ('A' for Active; 'I' for Inactive)
    1  A    between atoms: C_15  and  CA_26
    2  A    between atoms: C_16  and  C_27
                            x       y       z     vdW  Elec       q    Type
                         _______ _______ _______ _____ _____    ______ ____

>  <TORSDO>
F 2

$$$$
=
 OpenBabel11052414393D

 32 37  0  0  1  0  0  0  0  0999 V2000
  187.9570  177.8820  139.3160 C   0  0  1  0  0  3  0  0  0  0  0  0
  187.0500  178.1400  141.4520 C   0  0  0  0  0  0  0  0  0  0  0  0
  189.0310  178.6680  138.6310 C   0  0  0  0  0  3  0  0  0  0  0  0
  188.2050  177.7300  140.7970 C   0  0  0  0  0  0  0  0  0  0  0  0
  187.5990  177.5720  143.9130 C   0  0  0  0  0  0  0  0  0  0  0  0
  183.4040  179.3560  143.8200 C   0  0  0  0  0  3  0  0  0  0  0  0
  186.7760  178.0840  142.8150 C   0  0  0  0  0  0  0  0  0  0  0  0
  184.7290  178.5210  145.6950 C   0  0  0  0  0  3  0  0  0  0  0  0
  185.7450  178.2280  144.7880 C   0  0  0  0  0  0  0  0  0  0  0  0
  188.8810  177.0500  143.8490 C   0  0  0  0  0  0  0  0  0  0  0  0
  189.4010  177.1920  141.3480 C   0  0  0  0  0  0  0  0  0  0  0  0
  186.9340  177.6800  145.0890 N   0  0  0  0  0  0  0  0  0  0  0  0
  190.6560  176.9360  140.5380 C   0  0  0  0  0  2  0  0  0  0  0  0
  190.5390  176.8750  139.0200 C   0  0  0  0  0  2  0  0  0  0  0  0
  186.0860  178.6450  140.5420 N   0  0  0  0  0  2  0  0  0  0  0  0
  189.6400  176.9190  142.6960 C   0  0  0  0  0  3  0  0  0  0  0  0
  186.6160  178.5960  139.1950 C   0  0  2  0  0  3  0  0  0  0  0  0
  185.6100  178.4850  143.4450 C   0  0  0  0  0  0  0  0  0  0  0  0
  189.4740  176.6320  145.0360 O   0  0  0  0  0  1  0  0  0  0  0  0
  190.2120  178.1800  138.4990 N   0  0  0  0  0  0  0  0  0  0  0  0
  183.5460  179.0930  145.1980 C   0  0  0  0  0  3  0  0  0  0  0  0
  184.4430  179.0520  142.9260 C   0  0  0  0  0  3  0  0  0  0  0  0
  185.0370  177.1000  136.0700 C   0  0  0  0  0  0  0  0  0  0  0  0
  185.2350  177.0350  134.5950 C   0  0  0  0  0  1  0  0  0  0  0  0
  185.6880  177.8510  138.2810 C   0  0  0  0  0  0  0  0  0  0  0  0
  183.9830  176.4390  136.6190 N   0  0  0  0  0  0  0  0  0  0  0  0
  184.5940  177.1530  138.8100 C   0  0  0  0  0  3  0  0  0  0  0  0
  185.9180  177.8240  136.8940 C   0  0  0  0  0  0  0  0  0  0  0  0
  187.2950  178.6820  136.1970 Cl  0  0  0  0  0  0  0  0  0  0  0  0
  183.7410  176.4560  137.9550 C   0  0  0  0  0  0  0  0  0  0  0  0
  182.3740  176.0740  139.8370 O   0  0  0  0  0  1  0  0  0  0  0  0
  182.5910  175.6950  138.5130 C   0  0  0  0  0  2  0  0  0  0  0  0
  1  3  1  1  0  0  0
  1  4  1  0  0  0  0
  2  7  1  0  0  0  0
  4 11  1  0  0  0  0
  4  2  2  0  0  0  0
  5 12  1  0  0  0  0
  6 21  1  0  0  0  0
  7 18  2  0  0  0  0
  7  5  1  0  0  0  0
  9 12  2  0  0  0  0
  9  8  1  0  0  0  0
 10  5  2  0  0  0  0
 10 19  1  0  0  0  0
 11 16  2  0  0  0  0
 13 11  1  0  0  0  0
 14 13  1  0  0  0  0
 15  2  1  0  0  0  0
 16 10  1  0  0  0  0
 17 25  1  6  0  0  0
 17  1  1  0  0  0  0
 17 15  1  0  0  0  0
 18  9  1  0  0  0  0
 20  3  2  0  0  0  0
 20 14  1  0  0  0  0
 21  8  2  0  0  0  0
 22 18  1  0  0  0  0
 22  6  2  0  0  0  0
 23 26  2  0  0  0  0
 23 28  1  0  0  0  0
 24 23  1  0  0  0  0
 25 27  1  0  0  0  0
 26 30  1  0  0  0  0
 28 25  2  0  0  0  0
 29 28  1  0  0  0  0
 30 32  1  0  0  0  0
 30 27  2  0  0  0  0
 32 31  1  0  0  0  0
M  END
>  <MODEL>
3

>  <REMARK>
 VINA RESULT:      -8.4      1.614      1.938
  Name = 
  2 active torsions:
  status: ('A' for Active; 'I' for Inactive)
    1  A    between atoms: C_15  and  CA_26
    2  A    between atoms: C_16  and  C_27
                            x       y       z     vdW  Elec       q    Type
                         _______ _______ _______ _____ _____    ______ ____

>  <TORSDO>
F 2

$$$$
=
 OpenBabel11052414393D

 32 37  0  0  1  0  0  0  0  0999 V2000
  187.4470  178.2420  140.8090 C   0  0  1  0  0  3  0  0  0  0  0  0
  188.0410  177.9120  143.0430 C   0  0  0  0  0  0  0  0  0  0  0  0
  188.0510  179.1490  139.7830 C   0  0  0  0  0  3  0  0  0  0  0  0
  188.4770  177.6620  141.7470 C   0  0  0  0  0  0  0  0  0  0  0  0
  189.7940  176.6380  144.4530 C   0  0  0  0  0  0  0  0  0  0  0  0
  186.8260  178.5400  147.3450 C   0  0  0  0  0  3  0  0  0  0  0  0
  188.6140  177.4770  144.2340 C   0  0  0  0  0  0  0  0  0  0  0  0
  188.7880  177.1490  147.7760 C   0  0  0  0  0  3  0  0  0  0  0  0
  188.9920  177.0890  146.3980 C   0  0  0  0  0  0  0  0  0  0  0  0
  190.6520  176.1070  143.5030 C   0  0  0  0  0  0  0  0  0  0  0  0
  189.6250  176.9410  141.3140 C   0  0  0  0  0  0  0  0  0  0  0  0
  189.9850  176.4300  145.7780 N   0  0  0  0  0  0  0  0  0  0  0  0
  190.0790  176.8790  139.8690 C   0  0  0  0  0  2  0  0  0  0  0  0
  189.0860  177.2620  138.7790 C   0  0  0  0  0  2  0  0  0  0  0  0
  186.8590  178.6950  143.0530 N   0  0  0  0  0  2  0  0  0  0  0  0
  190.5440  176.2820  142.1310 C   0  0  0  0  0  3  0  0  0  0  0  0
  186.4750  179.0140  141.6940 C   0  0  2  0  0  3  0  0  0  0  0  0
  188.1530  177.7260  145.5160 C   0  0  0  0  0  0  0  0  0  0  0  0
  191.7240  175.3420  143.9500 O   0  0  0  0  0  1  0  0  0  0  0  0
  188.7960  178.6740  138.8510 N   0  0  0  0  0  0  0  0  0  0  0  0
  187.6890  177.8860  148.2480 C   0  0  0  0  0  3  0  0  0  0  0  0
  187.0530  178.4640  145.9620 C   0  0  0  0  0  3  0  0  0  0  0  0
  182.7140  178.5310  142.0460 C   0  0  0  0  0  0  0  0  0  0  0  0
  181.5930  178.8460  142.9750 C   0  0  0  0  0  1  0  0  0  0  0  0
  185.0570  178.6010  141.4260 C   0  0  0  0  0  0  0  0  0  0  0  0
  182.4430  177.8610  140.8940 N   0  0  0  0  0  0  0  0  0  0  0  0
  184.7370  177.9120  140.2490 C   0  0  0  0  0  3  0  0  0  0  0  0
  184.0350  178.9190  142.3390 C   0  0  0  0  0  0  0  0  0  0  0  0
  184.4020  179.7970  143.8260 Cl  0  0  0  0  0  0  0  0  0  0  0  0
  183.4170  177.5390  140.0040 C   0  0  0  0  0  0  0  0  0  0  0  0
  183.2330  177.6890  137.6590 O   0  0  0  0  0  1  0  0  0  0  0  0
  183.0680  176.8290  138.7440 C   0  0  0  0  0  2  0  0  0  0  0  0
  1  3  1  6  0  0  0
  1 17  1  0  0  0  0
  1  4  1  0  0  0  0
  2 15  1  0  0  0  0
  2  7  1  0  0  0  0
  4  2  2  0  0  0  0
  5 12  1  0  0  0  0
  6 21  1  0  0  0  0
  7  5  1  0  0  0  0
  7 18  2  0  0  0  0
  8 21  2  0  0  0  0
  9  8  1  0  0  0  0
 10 19  1  0  0  0  0
 10  5  2  0  0  0  0
 11  4  1  0  0  0  0
 11 16  2  0  0  0  0
 12  9  2  0  0  0  0
 13 11  1  0  0  0  0
 14 20  1  0  0  0  0
 14 13  1  0  0  0  0
 16 10  1  0  0  0  0
 17 25  1  6  0  0  0
 17 15  1  0  0  0  0
 18 22  1  0  0  0  0
 18  9  1  0  0  0  0
 20  3  2  0  0  0  0
 22  6  2  0  0  0  0
 23 28  1  0  0  0  0
 23 24  1  0  0  0  0
 25 28  2  0  0  0  0
 26 23  2  0  0  0  0
 27 25  1  0  0  0  0
 28 29  1  0  0  0  0
 30 27  2  0  0  0  0
 30 26  1  0  0  0  0
 31 32  1  0  0  0  0
 32 30  1  0  0  0  0
M  END
>  <MODEL>
4

>  <REMARK>
 VINA RESULT:      -8.4      2.233      3.076
  Name = 
  2 active torsions:
  status: ('A' for Active; 'I' for Inactive)
    1  A    between atoms: C_15  and  CA_26
    2  A    between atoms: C_16  and  C_27
                            x       y       z     vdW  Elec       q    Type
                         _______ _______ _______ _____ _____    ______ ____

>  <TORSDO>
F 2

$$$$
=
 OpenBabel11052414393D

 32 37  0  0  1  0  0  0  0  0999 V2000
  189.7700  177.5240  141.6020 C   0  0  1  0  0  3  0  0  0  0  0  0
  187.5270  178.0750  141.9450 C   0  0  0  0  0  0  0  0  0  0  0  0
  191.0090  178.2680  141.9940 C   0  0  0  0  0  3  0  0  0  0  0  0
  188.6670  177.6570  142.6230 C   0  0  0  0  0  0  0  0  0  0  0  0
  185.7380  177.9980  143.8090 C   0  0  0  0  0  0  0  0  0  0  0  0
  183.6740  179.3690  139.9810 C   0  0  0  0  0  3  0  0  0  0  0  0
  186.2430  178.2360  142.4550 C   0  0  0  0  0  0  0  0  0  0  0  0
  182.7720  178.9940  142.2210 C   0  0  0  0  0  3  0  0  0  0  0  0
  184.0550  178.6350  142.6290 C   0  0  0  0  0  0  0  0  0  0  0  0
  186.4480  177.5860  144.9260 C   0  0  0  0  0  0  0  0  0  0  0  0
  188.8190  177.3300  143.9990 C   0  0  0  0  0  0  0  0  0  0  0  0
  184.4090  178.2530  143.8680 N   0  0  0  0  0  0  0  0  0  0  0  0
  190.1570  177.0440  144.6500 C   0  0  0  0  0  2  0  0  0  0  0  0
  191.3430  176.7080  143.7530 C   0  0  0  0  0  2  0  0  0  0  0  0
  187.7980  178.3260  140.5760 N   0  0  0  0  0  2  0  0  0  0  0  0
  187.8090  177.3190  144.9620 C   0  0  0  0  0  3  0  0  0  0  0  0
  189.2010  178.0870  140.3060 C   0  0  2  0  0  3  0  0  0  0  0  0
  185.1170  178.6390  141.7570 C   0  0  0  0  0  0  0  0  0  0  0  0
  185.7520  177.4350  146.1200 O   0  0  0  0  0  1  0  0  0  0  0  0
  191.7230  177.8670  142.9840 N   0  0  0  0  0  0  0  0  0  0  0  0
  182.5870  179.3650  140.8780 C   0  0  0  0  0  3  0  0  0  0  0  0
  184.9580  179.0030  140.4170 C   0  0  0  0  0  3  0  0  0  0  0  0
  188.5570  176.0470  137.1560 C   0  0  0  0  0  0  0  0  0  0  0  0
  187.5180  175.8380  136.1080 C   0  0  0  0  0  1  0  0  0  0  0  0
  189.3690  177.1160  139.1740 C   0  0  0  0  0  0  0  0  0  0  0  0
  189.7190  175.3460  137.0750 N   0  0  0  0  0  0  0  0  0  0  0  0
  190.5550  176.3780  139.0540 C   0  0  0  0  0  3  0  0  0  0  0  0
  188.3560  176.9530  138.2120 C   0  0  0  0  0  0  0  0  0  0  0  0
  186.8550  177.8770  138.3280 Cl  0  0  0  0  0  0  0  0  0  0  0  0
  190.7070  175.4840  137.9960 C   0  0  0  0  0  0  0  0  0  0  0  0
  193.0620  175.5780  137.9690 O   0  0  0  0  0  1  0  0  0  0  0  0
  191.9730  174.7160  137.8500 C   0  0  0  0  0  2  0  0  0  0  0  0
  1  3  1  1  0  0  0
  1  4  1  0  0  0  0
  2  7  2  0  0  0  0
  2  4  1  0  0  0  0
  3 20  2  0  0  0  0
  4 11  2  0  0  0  0
  5 12  2  0  0  0  0
  5 10  1  0  0  0  0
  6 22  2  0  0  0  0
  6 21  1  0  0  0  0
  7  5  1  0  0  0  0
  8  9  1  0  0  0  0
  9 12  1  0  0  0  0
 10 16  2  0  0  0  0
 10 19  1  0  0  0  0
 11 13  1  0  0  0  0
 11 16  1  0  0  0  0
 14 13  1  0  0  0  0
 15  2  1  0  0  0  0
 17 25  1  6  0  0  0
 17 15  1  0  0  0  0
 17  1  1  0  0  0  0
 18  7  1  0  0  0  0
 18  9  2  0  0  0  0
 20 14  1  0  0  0  0
 21  8  2  0  0  0  0
 22 18  1  0  0  0  0
 23 28  1  0  0  0  0
 24 23  1  0  0  0  0
 26 23  2  0  0  0  0
 26 30  1  0  0  0  0
 27 25  1  0  0  0  0
 28 29  1  0  0  0  0
 28 25  2  0  0  0  0
 30 27  2  0  0  0  0
 32 31  1  0  0  0  0
 32 30  1  0  0  0  0
M  END
>  <MODEL>
5

>  <REMARK>
 VINA RESULT:      -8.2      2.804      4.675
  Name = 
  2 active torsions:
  status: ('A' for Active; 'I' for Inactive)
    1  A    between atoms: C_15  and  CA_26
    2  A    between atoms: C_16  and  C_27
                            x       y       z     vdW  Elec       q    Type
                         _______ _______ _______ _____ _____    ______ ____

>  <TORSDO>
F 2

$$$$
=
 OpenBabel11052414393D

 32 37  0  0  1  0  0  0  0  0999 V2000
  189.7880  177.4370  141.0520 C   0  0  1  0  0  3  0  0  0  0  0  0
  187.7430  177.8970  142.0810 C   0  0  0  0  0  0  0  0  0  0  0  0
  191.0610  178.2250  141.0590 C   0  0  0  0  0  3  0  0  0  0  0  0
  189.0500  177.5180  142.3660 C   0  0  0  0  0  0  0  0  0  0  0  0
  186.6190  177.7340  144.4030 C   0  0  0  0  0  0  0  0  0  0  0  0
  183.4290  179.0560  141.4250 C   0  0  0  0  0  3  0  0  0  0  0  0
  186.6740  178.0040  142.9640 C   0  0  0  0  0  0  0  0  0  0  0  0
  183.2750  178.6270  143.8250 C   0  0  0  0  0  3  0  0  0  0  0  0
  184.6340  178.3150  143.8110 C   0  0  0  0  0  0  0  0  0  0  0  0
  187.6530  177.3410  145.2380 C   0  0  0  0  0  0  0  0  0  0  0  0
  189.6290  177.1850  143.6220 C   0  0  0  0  0  0  0  0  0  0  0  0
  185.3650  177.9370  144.8730 N   0  0  0  0  0  0  0  0  0  0  0  0
  191.1130  176.9470  143.8230 C   0  0  0  0  0  2  0  0  0  0  0  0
  191.9740  176.6650  142.5980 C   0  0  0  0  0  2  0  0  0  0  0  0
  187.5690  178.1700  140.7000 N   0  0  0  0  0  2  0  0  0  0  0  0
  188.9670  177.1270  144.8480 C   0  0  0  0  0  3  0  0  0  0  0  0
  188.8270  177.9890  140.0060 C   0  0  2  0  0  3  0  0  0  0  0  0
  185.3740  178.3680  142.6550 C   0  0  0  0  0  0  0  0  0  0  0  0
  187.3650  177.1530  146.5860 O   0  0  0  0  0  1  0  0  0  0  0  0
  192.0590  177.8450  141.7730 N   0  0  0  0  0  0  0  0  0  0  0  0
  182.6720  179.0020  142.6130 C   0  0  0  0  0  3  0  0  0  0  0  0
  184.7970  178.7370  141.4370 C   0  0  0  0  0  3  0  0  0  0  0  0
  187.4400  176.1970  136.9460 C   0  0  0  0  0  0  0  0  0  0  0  0
  186.2670  176.2210  136.0280 C   0  0  0  0  0  1  0  0  0  0  0  0
  188.6720  177.0340  138.8580 C   0  0  0  0  0  0  0  0  0  0  0  0
  188.4260  175.2880  136.7250 N   0  0  0  0  0  0  0  0  0  0  0  0
  189.6690  176.0850  138.5950 C   0  0  0  0  0  3  0  0  0  0  0  0
  187.5420  177.0960  138.0230 C   0  0  0  0  0  0  0  0  0  0  0  0
  186.2730  178.2880  138.3190 Cl  0  0  0  0  0  0  0  0  0  0  0  0
  189.5220  175.2080  137.5220 C   0  0  0  0  0  0  0  0  0  0  0  0
  191.7290  174.5120  137.9690 O   0  0  0  0  0  1  0  0  0  0  0  0
  190.5890  174.2150  137.2240 C   0  0  0  0  0  2  0  0  0  0  0  0
  1  3  1  1  0  0  0
  1  4  1  0  0  0  0
  2  4  2  0  0  0  0
  2  7  1  0  0  0  0
  3 20  2  0  0  0  0
  4 11  1  0  0  0  0
  5 12  1  0  0  0  0
  5 10  2  0  0  0  0
  6 22  2  0  0  0  0
  6 21  1  0  0  0  0
  7  5  1  0  0  0  0
  9  8  1  0  0  0  0
  9 12  2  0  0  0  0
 10 19  1  0  0  0  0
 11 13  1  0  0  0  0
 11 16  2  0  0  0  0
 14 13  1  0  0  0  0
 15  2  1  0  0  0  0
 16 10  1  0  0  0  0
 17 25  1  6  0  0  0
 17 15  1  0  0  0  0
 17  1  1  0  0  0  0
 18  7  2  0  0  0  0
 18  9  1  0  0  0  0
 20 14  1  0  0  0  0
 21  8  2  0  0  0  0
 22 18  1  0  0  0  0
 23 28  1  0  0  0  0
 24 23  1  0  0  0  0
 26 23  2  0  0  0  0
 26 30  1  0  0  0  0
 27 25  1  0  0  0  0
 28 29  1  0  0  0  0
 28 25  2  0  0  0  0
 30 27  2  0  0  0  0
 32 30  1  0  0  0  0
 32 31  1  0  0  0  0
M  END
>  <MODEL>
6

>  <REMARK>
 VINA RESULT:      -8.1      2.536      3.755
  Name = 
  2 active torsions:
  status: ('A' for Active; 'I' for Inactive)
    1  A    between atoms: C_15  and  CA_26
    2  A    between atoms: C_16  and  C_27
                            x       y       z     vdW  Elec       q    Type
                         _______ _______ _______ _____ _____    ______ ____

>  <TORSDO>
F 2

$$$$
=
 OpenBabel11052414393D

 32 37  0  0  1  0  0  0  0  0999 V2000
  180.7530  178.8680  140.7410 C   0  0  1  0  0  3  0  0  0  0  0  0
  183.0650  178.6450  140.9720 C   0  0  0  0  0  0  0  0  0  0  0  0
  179.6630  177.8830  141.0310 C   0  0  0  0  0  3  0  0  0  0  0  0
  181.8990  178.7680  141.7180 C   0  0  0  0  0  0  0  0  0  0  0  0
  184.8850  178.7380  142.8050 C   0  0  0  0  0  0  0  0  0  0  0  0
  187.0030  178.2980  138.7910 C   0  0  0  0  0  3  0  0  0  0  0  0
  184.3760  178.6220  141.4370 C   0  0  0  0  0  0  0  0  0  0  0  0
  187.9140  178.4820  141.0510 C   0  0  0  0  0  3  0  0  0  0  0  0
  186.6050  178.5640  141.5230 C   0  0  0  0  0  0  0  0  0  0  0  0
  184.1600  178.8610  143.9790 C   0  0  0  0  0  0  0  0  0  0  0  0
  181.7470  178.8600  143.1290 C   0  0  0  0  0  0  0  0  0  0  0  0
  186.2400  178.6970  142.8090 N   0  0  0  0  0  0  0  0  0  0  0  0
  180.4040  178.8250  143.8310 C   0  0  0  0  0  2  0  0  0  0  0  0
  179.1490  179.0920  143.0090 C   0  0  0  0  0  2  0  0  0  0  0  0
  182.7890  178.5570  139.5840 N   0  0  0  0  0  2  0  0  0  0  0  0
  182.7760  178.8940  144.0710 C   0  0  0  0  0  3  0  0  0  0  0  0
  181.3580  178.6010  139.3680 C   0  0  2  0  0  3  0  0  0  0  0  0
  185.5260  178.5150  140.6730 C   0  0  0  0  0  0  0  0  0  0  0  0
  184.8650  178.9450  145.1750 O   0  0  0  0  0  1  0  0  0  0  0  0
  178.9310  178.0120  142.0780 N   0  0  0  0  0  0  0  0  0  0  0  0
  188.1070  178.3470  139.6650 C   0  0  0  0  0  3  0  0  0  0  0  0
  185.6940  178.3820  139.2920 C   0  0  0  0  0  3  0  0  0  0  0  0
  180.7450  180.5130  136.1330 C   0  0  0  0  0  0  0  0  0  0  0  0
  180.8430  180.3420  134.6560 C   0  0  0  0  0  1  0  0  0  0  0  0
  180.9960  179.6880  138.3980 C   0  0  0  0  0  0  0  0  0  0  0  0
  180.2870  181.6930  136.6270 N   0  0  0  0  0  0  0  0  0  0  0  0
  180.5160  180.9170  138.8690 C   0  0  0  0  0  3  0  0  0  0  0  0
  181.1110  179.4770  137.0120 C   0  0  0  0  0  0  0  0  0  0  0  0
  181.7000  177.9350  136.3860 Cl  0  0  0  0  0  0  0  0  0  0  0  0
  180.1740  181.9180  137.9620 C   0  0  0  0  0  0  0  0  0  0  0  0
  180.1670  184.2600  137.6930 O   0  0  0  0  0  1  0  0  0  0  0  0
  179.6420  183.2170  138.4550 C   0  0  0  0  0  2  0  0  0  0  0  0
  1  3  1  1  0  0  0
  1  4  1  0  0  0  0
  2  7  2  0  0  0  0
  2  4  1  0  0  0  0
  3 20  2  0  0  0  0
  4 11  2  0  0  0  0
  5 12  2  0  0  0  0
  5 10  1  0  0  0  0
  6 22  2  0  0  0  0
  6 21  1  0  0  0  0
  7  5  1  0  0  0  0
  8  9  1  0  0  0  0
  9 12  1  0  0  0  0
 10 16  2  0  0  0  0
 10 19  1  0  0  0  0
 11 13  1  0  0  0  0
 11 16  1  0  0  0  0
 14 13  1  0  0  0  0
 15  2  1  0  0  0  0
 17 25  1  6  0  0  0
 17 15  1  0  0  0  0
 17  1  1  0  0  0  0
 18  7  1  0  0  0  0
 18  9  2  0  0  0  0
 20 14  1  0  0  0  0
 21  8  2  0  0  0  0
 22 18  1  0  0  0  0
 23 26  2  0  0  0  0
 23 28  1  0  0  0  0
 24 23  1  0  0  0  0
 25 27  1  0  0  0  0
 26 30  1  0  0  0  0
 28 25  2  0  0  0  0
 29 28  1  0  0  0  0
 30 32  1  0  0  0  0
 30 27  2  0  0  0  0
 31 32  1  0  0  0  0
M  END
>  <MODEL>
7

>  <REMARK>
 VINA RESULT:      -8.1      3.911      6.874
  Name = 
  2 active torsions:
  status: ('A' for Active; 'I' for Inactive)
    1  A    between atoms: C_15  and  CA_26
    2  A    between atoms: C_16  and  C_27
                            x       y       z     vdW  Elec       q    Type
                         _______ _______ _______ _____ _____    ______ ____

>  <TORSDO>
F 2

$$$$
=
 OpenBabel11052414393D

 32 37  0  0  1  0  0  0  0  0999 V2000
  183.5110  178.2660  141.0390 C   0  0  1  0  0  3  0  0  0  0  0  0
  184.9050  178.0450  139.1790 C   0  0  0  0  0  0  0  0  0  0  0  0
  182.3420  179.1760  141.2560 C   0  0  0  0  0  3  0  0  0  0  0  0
  183.6110  177.7810  139.6140 C   0  0  0  0  0  0  0  0  0  0  0  0
  184.9250  176.9300  136.8470 C   0  0  0  0  0  0  0  0  0  0  0  0
  189.0560  178.7330  137.5420 C   0  0  0  0  0  3  0  0  0  0  0  0
  185.4880  177.6860  137.9680 C   0  0  0  0  0  0  0  0  0  0  0  0
  188.1730  177.4820  135.6380 C   0  0  0  0  0  3  0  0  0  0  0  0
  186.9600  177.3910  136.3180 C   0  0  0  0  0  0  0  0  0  0  0  0
  183.6420  176.4230  136.7180 C   0  0  0  0  0  0  0  0  0  0  0  0
  182.5560  177.1200  138.9260 C   0  0  0  0  0  0  0  0  0  0  0  0
  185.8520  176.7760  135.8710 N   0  0  0  0  0  0  0  0  0  0  0  0
  181.1350  177.0400  139.4500 C   0  0  0  0  0  2  0  0  0  0  0  0
  180.8900  177.3260  140.9260 C   0  0  0  0  0  2  0  0  0  0  0  0
  185.6490  178.7520  140.1580 N   0  0  0  0  0  2  0  0  0  0  0  0
  182.6280  176.5470  137.6560 C   0  0  0  0  0  3  0  0  0  0  0  0
  184.8150  179.0030  141.3160 C   0  0  2  0  0  3  0  0  0  0  0  0
  186.7860  177.9460  137.5630 C   0  0  0  0  0  0  0  0  0  0  0  0
  183.3270  175.7410  135.5470 O   0  0  0  0  0  1  0  0  0  0  0  0
  181.1430  178.7180  141.2080 N   0  0  0  0  0  0  0  0  0  0  0  0
  189.2300  178.1640  136.2640 C   0  0  0  0  0  3  0  0  0  0  0  0
  187.8230  178.6280  138.2070 C   0  0  0  0  0  3  0  0  0  0  0  0
  185.5480  178.2660  144.9790 C   0  0  0  0  0  0  0  0  0  0  0  0
  185.0040  178.5320  146.3410 C   0  0  0  0  0  1  0  0  0  0  0  0
  185.4700  178.4940  142.5670 C   0  0  0  0  0  0  0  0  0  0  0  0
  186.6720  177.5110  144.8580 N   0  0  0  0  0  0  0  0  0  0  0  0
  186.6270  177.7080  142.4830 C   0  0  0  0  0  3  0  0  0  0  0  0
  184.9180  178.7770  143.8290 C   0  0  0  0  0  0  0  0  0  0  0  0
  183.4520  179.7530  143.9690 Cl  0  0  0  0  0  0  0  0  0  0  0  0
  187.2240  177.2320  143.6490 C   0  0  0  0  0  0  0  0  0  0  0  0
  189.3460  176.7530  144.5550 O   0  0  0  0  0  1  0  0  0  0  0  0
  188.4390  176.3780  143.5650 C   0  0  0  0  0  2  0  0  0  0  0  0
  1  3  1  6  0  0  0
  1 17  1  0  0  0  0
  2  4  1  0  0  0  0
  2 15  1  0  0  0  0
  4  1  1  0  0  0  0
  5  7  1  0  0  0  0
  6 22  1  0  0  0  0
  7  2  2  0  0  0  0
  8 21  1  0  0  0  0
  8  9  2  0  0  0  0
  9 18  1  0  0  0  0
 10  5  1  0  0  0  0
 10 16  2  0  0  0  0
 11 13  1  0  0  0  0
 11  4  2  0  0  0  0
 12  9  1  0  0  0  0
 12  5  2  0  0  0  0
 13 14  1  0  0  0  0
 14 20  1  0  0  0  0
 15 17  1  0  0  0  0
 16 11  1  0  0  0  0
 17 25  1  1  0  0  0
 18  7  1  0  0  0  0
 18 22  2  0  0  0  0
 19 10  1  0  0  0  0
 20  3  2  0  0  0  0
 21  6  2  0  0  0  0
 23 24  1  0  0  0  0
 25 28  1  0  0  0  0
 26 23  1  0  0  0  0
 27 25  2  0  0  0  0
 27 30  1  0  0  0  0
 28 29  1  0  0  0  0
 28 23  2  0  0  0  0
 30 26  2  0  0  0  0
 32 30  1  0  0  0  0
 32 31  1  0  0  0  0
M  END
>  <MODEL>
8

>  <REMARK>
 VINA RESULT:      -7.8      2.154      7.551
  Name = 
  2 active torsions:
  status: ('A' for Active; 'I' for Inactive)
    1  A    between atoms: C_15  and  CA_26
    2  A    between atoms: C_16  and  C_27
                            x       y       z     vdW  Elec       q    Type
                         _______ _______ _______ _____ _____    ______ ____

>  <TORSDO>
F 2

$$$$
=
 OpenBabel11052414393D

 32 37  0  0  1  0  0  0  0  0999 V2000
  184.5530  178.6910  139.4610 C   0  0  1  0  0  3  0  0  0  0  0  0
  186.3500  177.6860  138.3600 C   0  0  0  0  0  0  0  0  0  0  0  0
  183.7740  179.9170  139.1000 C   0  0  0  0  0  3  0  0  0  0  0  0
  184.9810  177.8980  138.2510 C   0  0  0  0  0  0  0  0  0  0  0  0
  186.8130  176.1290  136.3490 C   0  0  0  0  0  0  0  0  0  0  0  0
  190.7750  176.8050  138.5030 C   0  0  0  0  0  3  0  0  0  0  0  0
  187.1640  176.9220  137.5300 C   0  0  0  0  0  0  0  0  0  0  0  0
  190.2550  175.4680  136.5250 C   0  0  0  0  0  3  0  0  0  0  0  0
  188.9280  175.8730  136.6570 C   0  0  0  0  0  0  0  0  0  0  0  0
  185.5710  175.9880  135.7530 C   0  0  0  0  0  0  0  0  0  0  0  0
  184.0810  177.4270  137.2540 C   0  0  0  0  0  0  0  0  0  0  0  0
  187.9130  175.5120  135.8530 N   0  0  0  0  0  0  0  0  0  0  0  0
  182.6330  177.8670  137.1580 C   0  0  0  0  0  2  0  0  0  0  0  0
  181.9920  178.5240  138.3740 C   0  0  0  0  0  2  0  0  0  0  0  0
  186.8920  178.3520  139.4900 N   0  0  0  0  0  2  0  0  0  0  0  0
  184.3980  176.5940  136.1810 C   0  0  0  0  0  3  0  0  0  0  0  0
  185.8420  179.0730  140.1790 C   0  0  2  0  0  3  0  0  0  0  0  0
  188.5260  176.7120  137.6680 C   0  0  0  0  0  0  0  0  0  0  0  0
  185.4790  175.1840  134.6220 O   0  0  0  0  0  1  0  0  0  0  0  0
  182.5920  179.8160  138.6080 N   0  0  0  0  0  0  0  0  0  0  0  0
  191.1860  175.9450  137.4640 C   0  0  0  0  0  3  0  0  0  0  0  0
  189.4320  177.1980  138.6140 C   0  0  0  0  0  3  0  0  0  0  0  0
  186.8550  177.8750  143.6480 C   0  0  0  0  0  0  0  0  0  0  0  0
  188.0430  177.3690  144.3930 C   0  0  0  0  0  1  0  0  0  0  0  0
  185.7890  178.6860  141.6280 C   0  0  0  0  0  0  0  0  0  0  0  0
  185.6770  178.0140  144.3110 N   0  0  0  0  0  0  0  0  0  0  0  0
  184.5940  178.8200  142.3460 C   0  0  0  0  0  3  0  0  0  0  0  0
  186.9390  178.2100  142.2840 C   0  0  0  0  0  0  0  0  0  0  0  0
  188.4640  178.0410  141.4110 Cl  0  0  0  0  0  0  0  0  0  0  0  0
  184.5540  178.4670  143.6940 C   0  0  0  0  0  0  0  0  0  0  0  0
  183.5920  178.9990  145.7790 O   0  0  0  0  0  1  0  0  0  0  0  0
  183.2940  178.6290  144.4680 C   0  0  0  0  0  2  0  0  0  0  0  0
  1  3  1  6  0  0  0
  1 17  1  0  0  0  0
  2 15  1  0  0  0  0
  4  2  1  0  0  0  0
  4  1  1  0  0  0  0
  5  7  1  0  0  0  0
  6 22  1  0  0  0  0
  7 18  1  0  0  0  0
  7  2  2  0  0  0  0
  8  9  2  0  0  0  0
  8 21  1  0  0  0  0
  9 18  1  0  0  0  0
 10 16  2  0  0  0  0
 10  5  1  0  0  0  0
 11  4  2  0  0  0  0
 12  5  2  0  0  0  0
 12  9  1  0  0  0  0
 13 11  1  0  0  0  0
 13 14  1  0  0  0  0
 14 20  1  0  0  0  0
 15 17  1  0  0  0  0
 16 11  1  0  0  0  0
 17 25  1  1  0  0  0
 18 22  2  0  0  0  0
 19 10  1  0  0  0  0
 20  3  2  0  0  0  0
 21  6  2  0  0  0  0
 23 26  1  0  0  0  0
 23 24  1  0  0  0  0
 25 28  1  0  0  0  0
 25 27  2  0  0  0  0
 27 30  1  0  0  0  0
 28 23  2  0  0  0  0
 29 28  1  0  0  0  0
 30 26  2  0  0  0  0
 30 32  1  0  0  0  0
 32 31  1  0  0  0  0
M  END
>  <MODEL>
9

>  <REMARK>
 VINA RESULT:      -7.3      2.401      7.304
  Name = 
  2 active torsions:
  status: ('A' for Active; 'I' for Inactive)
    1  A    between atoms: C_15  and  CA_26
    2  A    between atoms: C_16  and  C_27
                            x       y       z     vdW  Elec       q    Type
                         _______ _______ _______ _____ _____    ______ ____

>  <TORSDO>
F 2

$$$$
