=
 OpenBabel11052416133D

 43 49  0  0  1  0  0  0  0  0999 V2000
  187.5260  177.5500  147.2360 C   0  0  0  0  0  0  0  0  0  0  0  0
  187.0950  177.9710  142.1240 C   0  0  2  0  0  3  0  0  0  0  0  0
  184.4120  178.1230  141.5200 C   0  0  2  0  0  3  0  0  0  0  0  0
  187.9170  177.5130  144.8410 C   0  0  0  0  0  0  0  0  0  0  0  0
  186.3300  178.2410  147.0340 C   0  0  0  0  0  3  0  0  0  0  0  0
  187.9300  177.2360  148.5250 O   0  0  0  0  0  1  0  0  0  0  0  0
  186.6830  178.1810  144.6270 C   0  0  0  0  0  0  0  0  0  0  0  0
  188.3150  177.1910  146.1420 C   0  0  0  0  0  3  0  0  0  0  0  0
  185.9140  178.5590  145.7370 C   0  0  0  0  0  3  0  0  0  0  0  0
  184.7640  178.3420  143.0040 C   0  0  0  0  0  2  0  0  0  0  0  0
  186.2540  178.6030  143.2430 C   0  0  2  0  0  3  0  0  0  0  0  0
  188.5800  177.9950  142.4740 C   0  0  0  0  0  2  0  0  0  0  0  0
  186.8020  178.6730  140.7890 C   0  0  2  0  0  3  0  0  0  0  0  0
  185.2910  178.9540  140.5810 C   0  0  0  0  0  2  0  0  0  0  0  0
  188.7980  177.1070  143.6940 C   0  0  0  0  0  2  0  0  0  0  0  0
  187.4300  177.9390  139.5960 C   0  0  2  0  0  3  0  0  0  0  0  0
  187.9800  176.0930  137.3580 C   0  0  0  0  0  2  0  0  0  0  0  0
  189.4710  176.3920  137.5350 C   0  0  0  0  0  0  0  0  0  0  0  0
  190.1590  175.1960  137.4030 F   0  0  0  0  0  0  0  0  0  0  0  0
  189.0680  178.6280  139.1850 S   0  0  0  0  0  0  0  0  0  0  0  0
  187.1670  177.3600  137.1080 C   0  0  0  0  0  2  0  0  0  0  0  0
  186.4950  177.8780  138.3770 C   0  0  0  0  0  2  0  0  0  0  0  0
  189.9110  177.2600  136.5510 F   0  0  0  0  0  0  0  0  0  0  0  0
  189.7850  176.9690  138.9210 C   0  0  0  0  0  2  0  0  0  0  0  0
  182.9570  178.3500  141.2710 C   0  0  0  0  0  0  0  0  0  0  0  0
  182.3160  177.6170  140.2240 N   0  0  0  0  0  2  0  0  0  0  0  0
  182.2270  178.9040  142.1880 N   0  0  0  0  0  2  0  0  0  0  0  0
  182.4590  177.9450  138.8060 C   0  0  2  0  0  3  0  0  0  0  0  0
  182.3390  179.4400  138.5750 C   0  0  0  0  0  1  0  0  0  0  0  0
  181.4180  177.1730  137.9600 C   0  0  2  0  0  3  0  0  0  0  0  0
  181.8100  175.8070  137.5560 C   0  0  1  0  0  3  0  0  0  0  0  0
  183.4230  177.2690  134.7740 C   0  0  0  0  0  1  0  0  0  0  0  0
  181.8040  176.8760  136.5520 N   0  0  2  0  0  0  0  0  0  0  0  0
  183.2680  175.4530  137.7530 C   0  0  2  0  0  3  0  0  0  0  0  0
  184.0230  176.0790  136.7510 O   0  0  0  0  0  0  0  0  0  0  0  0
  183.2200  177.1280  136.2690 C   0  0  1  0  0  3  0  0  0  0  0  0
  182.5560  173.2430  136.8750 C   0  0  0  0  0  2  0  0  0  0  0  0
  183.4520  173.9950  137.7730 N   0  0  1  0  0  0  0  0  0  0  0  0
  186.6260  173.3870  136.0210 F   0  0  0  0  0  0  0  0  0  0  0  0
  184.4360  172.8720  135.2690 C   0  0  0  0  0  2  0  0  0  0  0  0
  185.3070  173.7680  136.1330 C   0  0  1  0  0  3  0  0  0  0  0  0
  182.9850  173.3080  135.4070 C   0  0  0  0  0  2  0  0  0  0  0  0
  184.8680  173.6530  137.5930 C   0  0  0  0  0  2  0  0  0  0  0  0
  1  6  1  0  0  0  0
  2 12  1  1  0  0  0
  2 11  1  0  0  0  0
  3 25  1  1  0  0  0
  3 10  1  0  0  0  0
  4  8  1  0  0  0  0
  5  1  1  0  0  0  0
  7  4  2  0  0  0  0
  7  9  1  0  0  0  0
  8  1  2  0  0  0  0
  9  5  2  0  0  0  0
 11 10  1  6  0  0  0
 11  7  1  0  0  0  0
 12 15  1  0  0  0  0
 13 14  1  6  0  0  0
 13  2  1  0  0  0  0
 14  3  1  0  0  0  0
 15  4  1  0  0  0  0
 16 22  1  6  0  0  0
 16 13  1  0  0  0  0
 17 18  1  0  0  0  0
 18 24  1  0  0  0  0
 19 18  1  0  0  0  0
 20 16  1  0  0  0  0
 21 17  1  0  0  0  0
 21 22  1  0  0  0  0
 23 18  1  0  0  0  0
 24 20  1  0  0  0  0
 25 27  2  0  0  0  0
 26 25  1  0  0  0  0
 28 29  1  1  0  0  0
 28 26  1  0  0  0  0
 30 28  1  1  0  0  0
 31 34  1  0  0  0  0
 31 30  1  0  0  0  0
 32 36  1  0  0  0  0
 33 31  1  0  0  0  0
 33 30  1  0  0  0  0
 34 38  1  0  0  0  0
 35 34  1  0  0  0  0
 36 33  1  0  0  0  0
 36 35  1  0  0  0  0
 37 38  1  0  0  0  0
 39 41  1  0  0  0  0
 40 42  1  0  0  0  0
 40 41  1  0  0  0  0
 41 43  1  0  0  0  0
 42 37  1  0  0  0  0
 43 38  1  0  0  0  0
M  END
>  <MODEL>
1

>  <REMARK>
 VINA RESULT:      -9.4      0.000      0.000
  Name = 
  5 active torsions:
  status: ('A' for Active; 'I' for Inactive)
    1  A    between atoms: C_1  and  C_34
    2  A    between atoms: C_2  and  C_13
    3  A    between atoms: C_3  and  C_12
    4  A    between atoms: N_6  and  C_12
    5  A    between atoms: N_14  and  C_22
                            x       y       z     vdW  Elec       q    Type
                         _______ _______ _______ _____ _____    ______ ____

>  <TORSDO>
F 5

$$$$
=
 OpenBabel11052416133D

 43 49  0  0  1  0  0  0  0  0999 V2000
  186.8720  177.4140  144.4480 C   0  0  0  0  0  0  0  0  0  0  0  0
  189.6480  176.9210  140.1410 C   0  0  2  0  0  3  0  0  0  0  0  0
  188.0540  177.6830  138.0280 C   0  0  2  0  0  3  0  0  0  0  0  0
  188.5330  176.8000  142.7890 C   0  0  0  0  0  0  0  0  0  0  0  0
  186.3340  178.3530  143.5670 C   0  0  0  0  0  3  0  0  0  0  0  0
  186.3210  177.2610  145.7120 O   0  0  0  0  0  1  0  0  0  0  0  0
  187.9660  177.7250  141.8750 C   0  0  0  0  0  0  0  0  0  0  0  0
  187.9690  176.6430  144.0590 C   0  0  0  0  0  3  0  0  0  0  0  0
  186.8820  178.5120  142.2900 C   0  0  0  0  0  3  0  0  0  0  0  0
  187.5330  178.0860  139.4210 C   0  0  0  0  0  2  0  0  0  0  0  0
  188.5900  177.9680  140.5220 C   0  0  2  0  0  3  0  0  0  0  0  0
  190.5560  176.6030  141.3250 C   0  0  0  0  0  2  0  0  0  0  0  0
  190.4380  177.3990  138.9140 C   0  0  2  0  0  3  0  0  0  0  0  0
  189.5310  178.0380  137.8300 C   0  0  0  0  0  2  0  0  0  0  0  0
  189.7130  175.9490  142.4130 C   0  0  0  0  0  2  0  0  0  0  0  0
  191.3460  176.3000  138.3430 C   0  0  2  0  0  3  0  0  0  0  0  0
  192.4450  173.7440  137.3530 C   0  0  0  0  0  2  0  0  0  0  0  0
  193.8440  174.2680  137.6830 C   0  0  0  0  0  0  0  0  0  0  0  0
  194.5600  173.2280  138.2530 F   0  0  0  0  0  0  0  0  0  0  0  0
  193.0250  176.9330  138.0170 S   0  0  0  0  0  0  0  0  0  0  0  0
  191.6980  174.6670  136.3930 C   0  0  0  0  0  2  0  0  0  0  0  0
  190.7320  175.6010  137.1180 C   0  0  0  0  0  2  0  0  0  0  0  0
  194.4970  174.6660  136.5290 F   0  0  0  0  0  0  0  0  0  0  0  0
  193.8070  175.4260  138.6880 C   0  0  0  0  0  2  0  0  0  0  0  0
  187.1950  178.2490  136.9450 C   0  0  0  0  0  0  0  0  0  0  0  0
  185.9050  177.6740  136.7190 N   0  0  0  0  0  2  0  0  0  0  0  0
  187.4450  179.4330  136.4790 N   0  0  0  0  0  2  0  0  0  0  0  0
  185.7000  176.4080  136.0180 C   0  0  2  0  0  3  0  0  0  0  0  0
  186.7790  176.1760  134.9770 C   0  0  0  0  0  1  0  0  0  0  0  0
  184.2950  176.3660  135.3690 C   0  0  2  0  0  3  0  0  0  0  0  0
  183.1590  176.5670  136.2930 C   0  0  1  0  0  3  0  0  0  0  0  0
  183.2850  173.0990  136.9470 C   0  0  0  0  0  1  0  0  0  0  0  0
  183.4220  175.2240  135.7650 N   0  0  2  0  0  0  0  0  0  0  0  0
  183.4860  176.4860  137.7690 C   0  0  2  0  0  3  0  0  0  0  0  0
  183.6660  175.1410  138.1170 O   0  0  0  0  0  0  0  0  0  0  0  0
  183.9320  174.4670  136.9110 C   0  0  1  0  0  3  0  0  0  0  0  0
  182.4770  176.8310  140.0110 C   0  0  0  0  0  2  0  0  0  0  0  0
  182.4450  177.1450  138.5700 N   0  0  1  0  0  0  0  0  0  0  0  0
  183.4420  180.6780  138.7540 F   0  0  0  0  0  0  0  0  0  0  0  0
  183.4580  179.0770  140.5040 C   0  0  0  0  0  2  0  0  0  0  0  0
  183.5490  179.3290  139.0090 C   0  0  1  0  0  3  0  0  0  0  0  0
  183.5770  177.5830  140.7640 C   0  0  0  0  0  2  0  0  0  0  0  0
  182.4190  178.5860  138.2950 C   0  0  0  0  0  2  0  0  0  0  0  0
  1  6  1  0  0  0  0
  2 11  1  0  0  0  0
  2 12  1  1  0  0  0
  3 25  1  6  0  0  0
  3 10  1  0  0  0  0
  4  8  2  0  0  0  0
  5  1  2  0  0  0  0
  7  9  2  0  0  0  0
  7  4  1  0  0  0  0
  8  1  1  0  0  0  0
  9  5  1  0  0  0  0
 11 10  1  6  0  0  0
 11  7  1  0  0  0  0
 12 15  1  0  0  0  0
 13 14  1  6  0  0  0
 13  2  1  0  0  0  0
 14  3  1  0  0  0  0
 15  4  1  0  0  0  0
 16 22  1  6  0  0  0
 16 13  1  0  0  0  0
 17 18  1  0  0  0  0
 18 19  1  0  0  0  0
 18 24  1  0  0  0  0
 20 16  1  0  0  0  0
 20 24  1  0  0  0  0
 21 22  1  0  0  0  0
 21 17  1  0  0  0  0
 23 18  1  0  0  0  0
 26 25  1  0  0  0  0
 27 25  2  0  0  0  0
 28 29  1  6  0  0  0
 28 26  1  0  0  0  0
 30 33  1  0  0  0  0
 30 28  1  1  0  0  0
 30 31  1  0  0  0  0
 31 34  1  0  0  0  0
 33 31  1  0  0  0  0
 33 36  1  0  0  0  0
 34 35  1  0  0  0  0
 34 38  1  0  0  0  0
 36 32  1  0  0  0  0
 36 35  1  0  0  0  0
 37 42  1  0  0  0  0
 38 37  1  0  0  0  0
 39 41  1  0  0  0  0
 40 42  1  0  0  0  0
 41 40  1  0  0  0  0
 43 38  1  0  0  0  0
 43 41  1  0  0  0  0
M  END
>  <MODEL>
2

>  <REMARK>
 VINA RESULT:      -8.8      2.730      4.674
  Name = 
  5 active torsions:
  status: ('A' for Active; 'I' for Inactive)
    1  A    between atoms: C_1  and  C_34
    2  A    between atoms: C_2  and  C_13
    3  A    between atoms: C_3  and  C_12
    4  A    between atoms: N_6  and  C_12
    5  A    between atoms: N_14  and  C_22
                            x       y       z     vdW  Elec       q    Type
                         _______ _______ _______ _____ _____    ______ ____

>  <TORSDO>
F 5

$$$$
=
 OpenBabel11052416133D

 43 49  0  0  1  0  0  0  0  0999 V2000
  186.8310  178.2890  146.8770 C   0  0  0  0  0  0  0  0  0  0  0  0
  184.3760  178.6680  142.3690 C   0  0  2  0  0  3  0  0  0  0  0  0
  186.2780  178.6440  140.3760 C   0  0  2  0  0  3  0  0  0  0  0  0
  185.2030  178.6900  145.1220 C   0  0  0  0  0  0  0  0  0  0  0  0
  187.6680  177.6520  145.9600 C   0  0  0  0  0  3  0  0  0  0  0  0
  187.2190  178.3950  148.2050 O   0  0  0  0  0  1  0  0  0  0  0  0
  186.0680  178.0790  144.1770 C   0  0  0  0  0  0  0  0  0  0  0  0
  185.6030  178.8030  146.4580 C   0  0  0  0  0  3  0  0  0  0  0  0
  187.2860  177.5430  144.6190 C   0  0  0  0  0  3  0  0  0  0  0  0
  186.7750  178.1930  141.7640 C   0  0  0  0  0  2  0  0  0  0  0  0
  185.6410  177.8810  142.7440 C   0  0  2  0  0  3  0  0  0  0  0  0
  183.3240  178.5730  143.4710 C   0  0  0  0  0  2  0  0  0  0  0  0
  183.8420  178.1840  141.0120 C   0  0  2  0  0  3  0  0  0  0  0  0
  184.9700  177.9570  139.9720 C   0  0  0  0  0  2  0  0  0  0  0  0
  183.8730  179.2580  144.7160 C   0  0  0  0  0  2  0  0  0  0  0  0
  182.7220  179.0860  140.4730 C   0  0  2  0  0  3  0  0  0  0  0  0
  181.1730  181.3170  139.3140 C   0  0  0  0  0  2  0  0  0  0  0  0
  179.9380  180.7780  140.0410 C   0  0  0  0  0  0  0  0  0  0  0  0
  179.2500  181.8630  140.5620 F   0  0  0  0  0  0  0  0  0  0  0  0
  181.0900  178.2930  140.6550 S   0  0  0  0  0  0  0  0  0  0  0  0
  181.7960  180.2720  138.3930 C   0  0  0  0  0  2  0  0  0  0  0  0
  182.9870  179.5660  139.0370 C   0  0  0  0  0  2  0  0  0  0  0  0
  179.1050  180.1170  139.1560 F   0  0  0  0  0  0  0  0  0  0  0  0
  180.3090  179.8490  141.2040 C   0  0  0  0  0  2  0  0  0  0  0  0
  187.3410  178.4750  139.3400 C   0  0  0  0  0  0  0  0  0  0  0  0
  186.9510  178.1670  138.0000 N   0  0  0  0  0  2  0  0  0  0  0  0
  188.5290  178.9460  139.5570 N   0  0  0  0  0  2  0  0  0  0  0  0
  186.5270  176.8360  137.5700 C   0  0  2  0  0  3  0  0  0  0  0  0
  187.7000  175.8730  137.5310 C   0  0  0  0  0  1  0  0  0  0  0  0
  185.8290  176.9050  136.1900 C   0  0  2  0  0  3  0  0  0  0  0  0
  184.3620  176.7280  136.2080 C   0  0  1  0  0  3  0  0  0  0  0  0
  184.9430  173.2470  136.0680 C   0  0  0  0  0  1  0  0  0  0  0  0
  185.2070  175.6410  135.7030 N   0  0  2  0  0  0  0  0  0  0  0  0
  183.7750  176.2080  137.5030 C   0  0  2  0  0  3  0  0  0  0  0  0
  184.0470  174.8370  137.6020 O   0  0  0  0  0  0  0  0  0  0  0  0
  185.1240  174.5980  136.7290 C   0  0  1  0  0  3  0  0  0  0  0  0
  181.7180  176.9130  136.3060 C   0  0  0  0  0  2  0  0  0  0  0  0
  182.3390  176.5090  137.5810 N   0  0  1  0  0  0  0  0  0  0  0  0
  180.6810  173.2530  137.9900 F   0  0  0  0  0  0  0  0  0  0  0  0
  180.6420  174.6670  136.0870 C   0  0  0  0  0  2  0  0  0  0  0  0
  181.4010  174.2200  137.3250 C   0  0  1  0  0  3  0  0  0  0  0  0
  181.4520  175.7340  135.3670 C   0  0  0  0  0  2  0  0  0  0  0  0
  181.6200  175.4170  138.2500 C   0  0  0  0  0  2  0  0  0  0  0  0
  1  6  1  0  0  0  0
  2 11  1  0  0  0  0
  2 12  1  1  0  0  0
  3 25  1  6  0  0  0
  3 10  1  0  0  0  0
  4  8  2  0  0  0  0
  5  1  2  0  0  0  0
  7  9  2  0  0  0  0
  7  4  1  0  0  0  0
  8  1  1  0  0  0  0
  9  5  1  0  0  0  0
 11 10  1  6  0  0  0
 11  7  1  0  0  0  0
 12 15  1  0  0  0  0
 13 14  1  6  0  0  0
 13  2  1  0  0  0  0
 14  3  1  0  0  0  0
 15  4  1  0  0  0  0
 16 22  1  6  0  0  0
 16 20  1  0  0  0  0
 16 13  1  0  0  0  0
 17 18  1  0  0  0  0
 18 19  1  0  0  0  0
 18 24  1  0  0  0  0
 20 24  1  0  0  0  0
 21 22  1  0  0  0  0
 21 17  1  0  0  0  0
 23 18  1  0  0  0  0
 25 27  2  0  0  0  0
 26 25  1  0  0  0  0
 28 29  1  6  0  0  0
 28 26  1  0  0  0  0
 30 31  1  0  0  0  0
 30 28  1  1  0  0  0
 31 34  1  0  0  0  0
 32 36  1  0  0  0  0
 33 30  1  0  0  0  0
 33 31  1  0  0  0  0
 33 36  1  0  0  0  0
 34 38  1  0  0  0  0
 34 35  1  0  0  0  0
 36 35  1  0  0  0  0
 37 38  1  0  0  0  0
 38 43  1  0  0  0  0
 40 41  1  0  0  0  0
 41 39  1  0  0  0  0
 41 43  1  0  0  0  0
 42 40  1  0  0  0  0
 42 37  1  0  0  0  0
M  END
>  <MODEL>
3

>  <REMARK>
 VINA RESULT:      -8.4      3.453      5.332
  Name = 
  5 active torsions:
  status: ('A' for Active; 'I' for Inactive)
    1  A    between atoms: C_1  and  C_34
    2  A    between atoms: C_2  and  C_13
    3  A    between atoms: C_3  and  C_12
    4  A    between atoms: N_6  and  C_12
    5  A    between atoms: N_14  and  C_22
                            x       y       z     vdW  Elec       q    Type
                         _______ _______ _______ _____ _____    ______ ____

>  <TORSDO>
F 5

$$$$
=
 OpenBabel11052416133D

 43 49  0  0  1  0  0  0  0  0999 V2000
  186.9600  177.7660  146.3250 C   0  0  0  0  0  0  0  0  0  0  0  0
  187.8240  177.5850  141.2540 C   0  0  2  0  0  3  0  0  0  0  0  0
  185.4940  178.3210  139.9820 C   0  0  2  0  0  3  0  0  0  0  0  0
  187.8540  177.3090  144.1150 C   0  0  0  0  0  0  0  0  0  0  0  0
  186.0790  178.7010  145.7780 C   0  0  0  0  0  3  0  0  0  0  0  0
  186.9620  177.5390  147.6930 O   0  0  0  0  0  1  0  0  0  0  0  0
  186.9330  178.2290  143.5490 C   0  0  0  0  0  0  0  0  0  0  0  0
  187.8450  177.0760  145.4940 C   0  0  0  0  0  3  0  0  0  0  0  0
  186.0700  178.9340  144.4000 C   0  0  0  0  0  3  0  0  0  0  0  0
  185.5500  178.6450  141.4870 C   0  0  0  0  0  2  0  0  0  0  0  0
  186.9610  178.5540  142.0760 C   0  0  2  0  0  3  0  0  0  0  0  0
  189.1390  177.2830  141.9660 C   0  0  0  0  0  2  0  0  0  0  0  0
  188.0440  178.1510  139.8420 C   0  0  2  0  0  3  0  0  0  0  0  0
  186.7560  178.7700  139.2390 C   0  0  0  0  0  2  0  0  0  0  0  0
  188.8240  176.5440  143.2600 C   0  0  0  0  0  2  0  0  0  0  0  0
  188.6970  177.1280  138.9010 C   0  0  2  0  0  3  0  0  0  0  0  0
  189.2810  174.7670  137.2270 C   0  0  0  0  0  2  0  0  0  0  0  0
  190.7710  175.0760  137.3890 C   0  0  0  0  0  0  0  0  0  0  0  0
  191.4310  173.8740  137.5930 F   0  0  0  0  0  0  0  0  0  0  0  0
  190.3680  177.6620  138.4020 S   0  0  0  0  0  0  0  0  0  0  0  0
  188.5130  175.9430  136.6310 C   0  0  0  0  0  2  0  0  0  0  0  0
  187.8070  176.7770  137.6970 C   0  0  0  0  0  2  0  0  0  0  0  0
  191.2730  175.6580  136.2390 F   0  0  0  0  0  0  0  0  0  0  0  0
  191.0480  175.9790  138.5970 C   0  0  0  0  0  2  0  0  0  0  0  0
  184.2530  178.8700  139.3570 C   0  0  0  0  0  0  0  0  0  0  0  0
  183.0500  178.1010  139.4250 N   0  0  0  0  0  2  0  0  0  0  0  0
  184.1750  180.1360  139.0910 N   0  0  0  0  0  2  0  0  0  0  0  0
  182.7870  176.9390  138.5760 C   0  0  2  0  0  3  0  0  0  0  0  0
  183.9790  176.6280  137.6900 C   0  0  0  0  0  1  0  0  0  0  0  0
  181.5140  177.1640  137.7250 C   0  0  2  0  0  3  0  0  0  0  0  0
  180.2730  177.4170  138.4870 C   0  0  1  0  0  3  0  0  0  0  0  0
  179.8770  173.9130  138.6920 C   0  0  0  0  0  1  0  0  0  0  0  0
  180.4580  176.1170  137.8330 N   0  0  2  0  0  0  0  0  0  0  0  0
  180.3400  177.1290  139.9710 C   0  0  2  0  0  3  0  0  0  0  0  0
  180.2980  175.7410  140.1630 O   0  0  0  0  0  0  0  0  0  0  0  0
  180.6790  175.1750  138.9330 C   0  0  1  0  0  3  0  0  0  0  0  0
  179.3420  177.7510  142.1580 C   0  0  0  0  0  2  0  0  0  0  0  0
  179.2660  177.8320  140.6870 N   0  0  1  0  0  0  0  0  0  0  0  0
  180.0110  181.4100  140.2930 F   0  0  0  0  0  0  0  0  0  0  0  0
  180.1670  180.1090  142.2700 C   0  0  0  0  0  2  0  0  0  0  0  0
  180.2180  180.1280  140.7520 C   0  0  1  0  0  3  0  0  0  0  0  0
  180.3960  178.6860  142.7560 C   0  0  0  0  0  2  0  0  0  0  0  0
  179.1330  179.2080  140.1920 C   0  0  0  0  0  2  0  0  0  0  0  0
  1  6  1  0  0  0  0
  2 12  1  1  0  0  0
  2 11  1  0  0  0  0
  3 25  1  6  0  0  0
  3 10  1  0  0  0  0
  4  8  1  0  0  0  0
  5  1  1  0  0  0  0
  7  4  2  0  0  0  0
  7  9  1  0  0  0  0
  8  1  2  0  0  0  0
  9  5  2  0  0  0  0
 11 10  1  6  0  0  0
 11  7  1  0  0  0  0
 12 15  1  0  0  0  0
 13 14  1  6  0  0  0
 13  2  1  0  0  0  0
 14  3  1  0  0  0  0
 15  4  1  0  0  0  0
 16 22  1  6  0  0  0
 16 13  1  0  0  0  0
 17 18  1  0  0  0  0
 18 19  1  0  0  0  0
 18 24  1  0  0  0  0
 20 24  1  0  0  0  0
 20 16  1  0  0  0  0
 21 17  1  0  0  0  0
 21 22  1  0  0  0  0
 23 18  1  0  0  0  0
 25 26  1  0  0  0  0
 27 25  2  0  0  0  0
 28 29  1  6  0  0  0
 28 26  1  0  0  0  0
 30 33  1  0  0  0  0
 30 31  1  0  0  0  0
 30 28  1  1  0  0  0
 31 34  1  0  0  0  0
 32 36  1  0  0  0  0
 33 31  1  0  0  0  0
 33 36  1  0  0  0  0
 34 35  1  0  0  0  0
 34 38  1  0  0  0  0
 36 35  1  0  0  0  0
 37 42  1  0  0  0  0
 38 37  1  0  0  0  0
 39 41  1  0  0  0  0
 40 42  1  0  0  0  0
 41 40  1  0  0  0  0
 43 38  1  0  0  0  0
 43 41  1  0  0  0  0
M  END
>  <MODEL>
4

>  <REMARK>
 VINA RESULT:      -8.0      2.616      4.298
  Name = 
  5 active torsions:
  status: ('A' for Active; 'I' for Inactive)
    1  A    between atoms: C_1  and  C_34
    2  A    between atoms: C_2  and  C_13
    3  A    between atoms: C_3  and  C_12
    4  A    between atoms: N_6  and  C_12
    5  A    between atoms: N_14  and  C_22
                            x       y       z     vdW  Elec       q    Type
                         _______ _______ _______ _____ _____    ______ ____

>  <TORSDO>
F 5

$$$$
=
 OpenBabel11052416133D

 43 49  0  0  1  0  0  0  0  0999 V2000
  185.8850  178.2920  145.7190 C   0  0  0  0  0  0  0  0  0  0  0  0
  187.1640  177.8780  140.7500 C   0  0  2  0  0  3  0  0  0  0  0  0
  184.8400  177.9930  139.2760 C   0  0  2  0  0  3  0  0  0  0  0  0
  187.0250  177.8530  143.6220 C   0  0  0  0  0  0  0  0  0  0  0  0
  184.8750  178.9690  145.0320 C   0  0  0  0  0  3  0  0  0  0  0  0
  185.8250  178.1840  147.1010 O   0  0  0  0  0  1  0  0  0  0  0  0
  185.9820  178.5060  142.9150 C   0  0  0  0  0  0  0  0  0  0  0  0
  186.9550  177.7390  145.0140 C   0  0  0  0  0  3  0  0  0  0  0  0
  184.9270  179.0800  143.6400 C   0  0  0  0  0  3  0  0  0  0  0  0
  184.7090  178.4450  140.7430 C   0  0  0  0  0  2  0  0  0  0  0  0
  186.0570  178.7050  141.4210 C   0  0  2  0  0  3  0  0  0  0  0  0
  188.4530  177.9220  141.5660 C   0  0  0  0  0  2  0  0  0  0  0  0
  187.3730  178.3580  139.3060 C   0  0  2  0  0  3  0  0  0  0  0  0
  186.0370  178.6370  138.5700 C   0  0  0  0  0  2  0  0  0  0  0  0
  188.1960  177.2420  142.9050 C   0  0  0  0  0  2  0  0  0  0  0  0
  188.2950  177.4230  138.5100 C   0  0  2  0  0  3  0  0  0  0  0  0
  189.4310  175.1550  136.9970 C   0  0  0  0  0  2  0  0  0  0  0  0
  190.8230  175.6280  137.4210 C   0  0  0  0  0  0  0  0  0  0  0  0
  191.5660  174.5060  137.7550 F   0  0  0  0  0  0  0  0  0  0  0  0
  189.9580  178.1450  138.3130 S   0  0  0  0  0  0  0  0  0  0  0  0
  188.6570  176.2430  136.2590 C   0  0  0  0  0  2  0  0  0  0  0  0
  187.6810  176.9840  137.1700 C   0  0  0  0  0  2  0  0  0  0  0  0
  191.4560  176.2730  136.3720 F   0  0  0  0  0  0  0  0  0  0  0  0
  190.7760  176.5470  138.6480 C   0  0  0  0  0  2  0  0  0  0  0  0
  183.5660  178.2120  138.5270 C   0  0  0  0  0  0  0  0  0  0  0  0
  182.7860  177.0750  138.1500 N   0  0  0  0  0  2  0  0  0  0  0  0
  183.0060  179.3820  138.5410 N   0  0  0  0  0  2  0  0  0  0  0  0
  183.1240  176.2030  137.0260 C   0  0  2  0  0  3  0  0  0  0  0  0
  184.4350  176.6200  136.3850 C   0  0  0  0  0  1  0  0  0  0  0  0
  181.9820  176.1930  135.9810 C   0  0  2  0  0  3  0  0  0  0  0  0
  180.6940  175.6410  136.4500 C   0  0  1  0  0  3  0  0  0  0  0  0
  181.9260  172.4500  135.5710 C   0  0  0  0  0  1  0  0  0  0  0  0
  181.5170  174.8510  135.5290 N   0  0  2  0  0  0  0  0  0  0  0  0
  180.7350  174.8920  137.7640 C   0  0  2  0  0  3  0  0  0  0  0  0
  181.3140  173.6340  137.5480 O   0  0  0  0  0  0  0  0  0  0  0  0
  182.0330  173.7480  136.3440 C   0  0  1  0  0  3  0  0  0  0  0  0
  179.2380  173.7660  139.3930 C   0  0  0  0  0  2  0  0  0  0  0  0
  179.3930  174.8040  138.3560 N   0  0  1  0  0  0  0  0  0  0  0  0
  179.0720  177.7740  140.4970 F   0  0  0  0  0  0  0  0  0  0  0  0
  179.2760  175.5130  141.1820 C   0  0  0  0  0  2  0  0  0  0  0  0
  179.5770  176.5510  140.1150 C   0  0  1  0  0  3  0  0  0  0  0  0
  179.8390  174.1700  140.7410 C   0  0  0  0  0  2  0  0  0  0  0  0
  178.9350  176.1280  138.7930 C   0  0  0  0  0  2  0  0  0  0  0  0
  1  6  1  0  0  0  0
  2 11  1  0  0  0  0
  2 12  1  1  0  0  0
  3 25  1  6  0  0  0
  3 10  1  0  0  0  0
  4  8  1  0  0  0  0
  5  1  1  0  0  0  0
  7  4  2  0  0  0  0
  7  9  1  0  0  0  0
  8  1  2  0  0  0  0
  9  5  2  0  0  0  0
 11 10  1  6  0  0  0
 11  7  1  0  0  0  0
 12 15  1  0  0  0  0
 13 14  1  6  0  0  0
 13  2  1  0  0  0  0
 14  3  1  0  0  0  0
 15  4  1  0  0  0  0
 16 22  1  6  0  0  0
 16 13  1  0  0  0  0
 17 18  1  0  0  0  0
 18 19  1  0  0  0  0
 18 24  1  0  0  0  0
 20 16  1  0  0  0  0
 20 24  1  0  0  0  0
 21 17  1  0  0  0  0
 21 22  1  0  0  0  0
 23 18  1  0  0  0  0
 25 27  2  0  0  0  0
 26 25  1  0  0  0  0
 28 29  1  6  0  0  0
 28 26  1  0  0  0  0
 30 31  1  0  0  0  0
 30 28  1  1  0  0  0
 31 34  1  0  0  0  0
 32 36  1  0  0  0  0
 33 30  1  0  0  0  0
 33 36  1  0  0  0  0
 33 31  1  0  0  0  0
 34 38  1  0  0  0  0
 35 34  1  0  0  0  0
 36 35  1  0  0  0  0
 37 42  1  0  0  0  0
 38 43  1  0  0  0  0
 38 37  1  0  0  0  0
 41 39  1  0  0  0  0
 41 40  1  0  0  0  0
 42 40  1  0  0  0  0
 43 41  1  0  0  0  0
M  END
>  <MODEL>
5

>  <REMARK>
 VINA RESULT:      -7.4      2.437      3.561
  Name = 
  5 active torsions:
  status: ('A' for Active; 'I' for Inactive)
    1  A    between atoms: C_1  and  C_34
    2  A    between atoms: C_2  and  C_13
    3  A    between atoms: C_3  and  C_12
    4  A    between atoms: N_6  and  C_12
    5  A    between atoms: N_14  and  C_22
                            x       y       z     vdW  Elec       q    Type
                         _______ _______ _______ _____ _____    ______ ____

>  <TORSDO>
F 5

$$$$
=
 OpenBabel11052416133D

 43 49  0  0  1  0  0  0  0  0999 V2000
  187.8290  177.8520  145.5010 C   0  0  0  0  0  0  0  0  0  0  0  0
  184.6980  178.5120  141.4690 C   0  0  2  0  0  3  0  0  0  0  0  0
  186.2650  178.6500  139.2070 C   0  0  2  0  0  3  0  0  0  0  0  0
  185.9470  178.3530  144.0540 C   0  0  0  0  0  0  0  0  0  0  0  0
  188.5140  177.2910  144.4210 C   0  0  0  0  0  3  0  0  0  0  0  0
  188.4200  177.8700  146.7560 O   0  0  0  0  0  1  0  0  0  0  0  0
  186.6530  177.8200  142.9450 C   0  0  0  0  0  0  0  0  0  0  0  0
  186.5500  178.3780  145.3150 C   0  0  0  0  0  3  0  0  0  0  0  0
  187.9270  177.2700  143.1520 C   0  0  0  0  0  3  0  0  0  0  0  0
  186.9740  178.1110  140.4650 C   0  0  0  0  0  2  0  0  0  0  0  0
  186.0070  177.7170  141.5850 C   0  0  2  0  0  3  0  0  0  0  0  0
  183.8320  178.3270  142.7120 C   0  0  0  0  0  2  0  0  0  0  0  0
  183.9590  178.1170  140.1810 C   0  0  2  0  0  3  0  0  0  0  0  0
  184.9110  177.9770  138.9650 C   0  0  0  0  0  2  0  0  0  0  0  0
  184.5680  178.9310  143.9020 C   0  0  0  0  0  2  0  0  0  0  0  0
  182.7680  179.0400  139.8880 C   0  0  2  0  0  3  0  0  0  0  0  0
  181.0520  181.3190  139.1250 C   0  0  0  0  0  2  0  0  0  0  0  0
  179.9600  180.7420  140.0280 C   0  0  0  0  0  0  0  0  0  0  0  0
  179.3780  181.7980  140.7120 F   0  0  0  0  0  0  0  0  0  0  0  0
  181.1880  178.2340  140.3130 S   0  0  0  0  0  0  0  0  0  0  0  0
  181.5000  180.3220  138.0600 C   0  0  0  0  0  2  0  0  0  0  0  0
  182.7810  179.5890  138.4530 C   0  0  0  0  0  2  0  0  0  0  0  0
  178.9810  180.1220  139.2710 F   0  0  0  0  0  0  0  0  0  0  0  0
  180.5220  179.7600  141.0630 C   0  0  0  0  0  2  0  0  0  0  0  0
  187.1530  178.5670  138.0090 C   0  0  0  0  0  0  0  0  0  0  0  0
  186.8620  177.5930  137.0040 N   0  0  0  0  0  2  0  0  0  0  0  0
  187.9250  179.5650  137.7110 N   0  0  0  0  0  2  0  0  0  0  0  0
  187.1700  176.1710  137.1470 C   0  0  2  0  0  3  0  0  0  0  0  0
  188.5260  175.9670  137.7950 C   0  0  0  0  0  1  0  0  0  0  0  0
  187.1050  175.4580  135.7740 C   0  0  2  0  0  3  0  0  0  0  0  0
  185.8280  174.7830  135.4650 C   0  0  1  0  0  3  0  0  0  0  0  0
  187.0810  171.9720  137.1980 C   0  0  0  0  0  1  0  0  0  0  0  0
  187.0000  173.9720  135.8090 N   0  0  2  0  0  0  0  0  0  0  0  0
  184.8720  174.6150  136.6270 C   0  0  2  0  0  3  0  0  0  0  0  0
  185.3400  173.5810  137.4490 O   0  0  0  0  0  0  0  0  0  0  0  0
  186.7050  173.4380  137.1420 C   0  0  1  0  0  3  0  0  0  0  0  0
  182.5260  174.0340  137.1940 C   0  0  0  0  0  2  0  0  0  0  0  0
  183.5030  174.3810  136.1450 N   0  0  1  0  0  0  0  0  0  0  0  0
  182.2000  177.7000  135.2560 F   0  0  0  0  0  0  0  0  0  0  0  0
  181.5500  176.3330  137.0800 C   0  0  0  0  0  2  0  0  0  0  0  0
  182.6500  176.7160  136.1060 C   0  0  1  0  0  3  0  0  0  0  0  0
  182.0660  175.2440  138.0090 C   0  0  0  0  0  2  0  0  0  0  0  0
  183.0620  175.4900  135.2910 C   0  0  0  0  0  2  0  0  0  0  0  0
  1  6  1  0  0  0  0
  2 11  1  0  0  0  0
  2 12  1  1  0  0  0
  3 25  1  6  0  0  0
  3 10  1  0  0  0  0
  4  8  2  0  0  0  0
  5  1  2  0  0  0  0
  7  9  2  0  0  0  0
  7  4  1  0  0  0  0
  8  1  1  0  0  0  0
  9  5  1  0  0  0  0
 11 10  1  6  0  0  0
 11  7  1  0  0  0  0
 12 15  1  0  0  0  0
 13 14  1  6  0  0  0
 13  2  1  0  0  0  0
 14  3  1  0  0  0  0
 15  4  1  0  0  0  0
 16 22  1  6  0  0  0
 16 13  1  0  0  0  0
 16 20  1  0  0  0  0
 17 18  1  0  0  0  0
 18 19  1  0  0  0  0
 18 24  1  0  0  0  0
 20 24  1  0  0  0  0
 21 22  1  0  0  0  0
 21 17  1  0  0  0  0
 23 18  1  0  0  0  0
 26 28  1  0  0  0  0
 26 25  1  0  0  0  0
 27 25  2  0  0  0  0
 28 29  1  6  0  0  0
 30 33  1  0  0  0  0
 30 28  1  1  0  0  0
 31 30  1  0  0  0  0
 31 33  1  0  0  0  0
 31 34  1  0  0  0  0
 33 36  1  0  0  0  0
 34 35  1  0  0  0  0
 36 32  1  0  0  0  0
 36 35  1  0  0  0  0
 37 42  1  0  0  0  0
 38 34  1  0  0  0  0
 38 37  1  0  0  0  0
 39 41  1  0  0  0  0
 40 42  1  0  0  0  0
 41 40  1  0  0  0  0
 43 41  1  0  0  0  0
 43 38  1  0  0  0  0
M  END
>  <MODEL>
6

>  <REMARK>
 VINA RESULT:      -7.4      3.503      5.616
  Name = 
  5 active torsions:
  status: ('A' for Active; 'I' for Inactive)
    1  A    between atoms: C_1  and  C_34
    2  A    between atoms: C_2  and  C_13
    3  A    between atoms: C_3  and  C_12
    4  A    between atoms: N_6  and  C_12
    5  A    between atoms: N_14  and  C_22
                            x       y       z     vdW  Elec       q    Type
                         _______ _______ _______ _____ _____    ______ ____

>  <TORSDO>
F 5

$$$$
=
 OpenBabel11052416133D

 43 49  0  0  1  0  0  0  0  0999 V2000
  187.0470  177.8640  143.9220 C   0  0  0  0  0  0  0  0  0  0  0  0
  189.7790  176.8960  139.6680 C   0  0  2  0  0  3  0  0  0  0  0  0
  188.1090  177.2430  137.5050 C   0  0  2  0  0  3  0  0  0  0  0  0
  188.7160  177.1060  142.3310 C   0  0  0  0  0  0  0  0  0  0  0  0
  186.4400  178.6300  142.9260 C   0  0  0  0  0  3  0  0  0  0  0  0
  186.5270  177.8700  145.2080 O   0  0  0  0  0  1  0  0  0  0  0  0
  188.0800  177.8510  141.3050 C   0  0  0  0  0  0  0  0  0  0  0  0
  188.1820  177.1080  143.6240 C   0  0  0  0  0  3  0  0  0  0  0  0
  186.9570  178.6270  141.6270 C   0  0  0  0  0  3  0  0  0  0  0  0
  187.5860  177.8180  138.8360 C   0  0  0  0  0  2  0  0  0  0  0  0
  188.6660  177.9260  139.9170 C   0  0  2  0  0  3  0  0  0  0  0  0
  190.7240  176.8100  140.8640 C   0  0  0  0  0  2  0  0  0  0  0  0
  190.5200  177.2310  138.3650 C   0  0  2  0  0  3  0  0  0  0  0  0
  189.5580  177.6490  137.2220 C   0  0  0  0  0  2  0  0  0  0  0  0
  189.9390  176.2780  142.0570 C   0  0  0  0  0  2  0  0  0  0  0  0
  191.4820  176.1130  137.9400 C   0  0  2  0  0  3  0  0  0  0  0  0
  192.6910  173.5150  137.2250 C   0  0  0  0  0  2  0  0  0  0  0  0
  194.0560  174.0980  137.5980 C   0  0  0  0  0  0  0  0  0  0  0  0
  194.7550  173.1220  138.2930 F   0  0  0  0  0  0  0  0  0  0  0  0
  193.1660  176.7590  137.6690 S   0  0  0  0  0  0  0  0  0  0  0  0
  191.9900  174.3420  136.1520 C   0  0  0  0  0  2  0  0  0  0  0  0
  190.9620  175.3060  136.7390 C   0  0  0  0  0  2  0  0  0  0  0  0
  194.7730  174.4200  136.4590 F   0  0  0  0  0  0  0  0  0  0  0  0
  193.9330  175.3290  138.5050 C   0  0  0  0  0  2  0  0  0  0  0  0
  187.2000  177.5920  136.3720 C   0  0  0  0  0  0  0  0  0  0  0  0
  185.8180  177.8330  136.6490 N   0  0  0  0  0  2  0  0  0  0  0  0
  187.7000  178.0160  135.2550 N   0  0  0  0  0  2  0  0  0  0  0  0
  184.8490  176.7690  136.9050 C   0  0  2  0  0  3  0  0  0  0  0  0
  185.2110  175.5050  136.1460 C   0  0  0  0  0  1  0  0  0  0  0  0
  183.4180  177.2350  136.5430 C   0  0  2  0  0  3  0  0  0  0  0  0
  182.7570  178.1000  137.5430 C   0  0  1  0  0  3  0  0  0  0  0  0
  181.7030  175.1440  139.1640 C   0  0  0  0  0  1  0  0  0  0  0  0
  182.3190  176.7070  137.4000 N   0  0  2  0  0  0  0  0  0  0  0  0
  183.4250  178.1700  138.9000 C   0  0  2  0  0  3  0  0  0  0  0  0
  183.1570  176.9840  139.5960 O   0  0  0  0  0  0  0  0  0  0  0  0
  182.7930  176.0420  138.6160 C   0  0  1  0  0  3  0  0  0  0  0  0
  182.1130  180.2780  138.8710 C   0  0  0  0  0  2  0  0  0  0  0  0
  182.9890  179.3680  139.6320 N   0  0  1  0  0  0  0  0  0  0  0  0
  180.5340  178.1690  142.0910 F   0  0  0  0  0  0  0  0  0  0  0  0
  180.1240  179.4800  140.1580 C   0  0  0  0  0  2  0  0  0  0  0  0
  181.0140  178.4500  140.8310 C   0  0  1  0  0  3  0  0  0  0  0  0
  180.6710  179.7770  138.7700 C   0  0  0  0  0  2  0  0  0  0  0  0
  182.4380  178.9980  140.9410 C   0  0  0  0  0  2  0  0  0  0  0  0
  1  6  1  0  0  0  0
  2 11  1  0  0  0  0
  2 12  1  1  0  0  0
  3 25  1  6  0  0  0
  3 10  1  0  0  0  0
  4  8  2  0  0  0  0
  5  1  2  0  0  0  0
  7  9  2  0  0  0  0
  7  4  1  0  0  0  0
  8  1  1  0  0  0  0
  9  5  1  0  0  0  0
 11 10  1  6  0  0  0
 11  7  1  0  0  0  0
 12 15  1  0  0  0  0
 13 14  1  6  0  0  0
 13  2  1  0  0  0  0
 14  3  1  0  0  0  0
 15  4  1  0  0  0  0
 16 22  1  6  0  0  0
 16 13  1  0  0  0  0
 17 18  1  0  0  0  0
 18 19  1  0  0  0  0
 18 24  1  0  0  0  0
 20 16  1  0  0  0  0
 20 24  1  0  0  0  0
 21 22  1  0  0  0  0
 21 17  1  0  0  0  0
 23 18  1  0  0  0  0
 25 26  1  0  0  0  0
 26 28  1  0  0  0  0
 27 25  2  0  0  0  0
 28 29  1  6  0  0  0
 30 28  1  1  0  0  0
 30 33  1  0  0  0  0
 30 31  1  0  0  0  0
 31 34  1  0  0  0  0
 33 31  1  0  0  0  0
 33 36  1  0  0  0  0
 34 35  1  0  0  0  0
 34 38  1  0  0  0  0
 36 32  1  0  0  0  0
 36 35  1  0  0  0  0
 37 38  1  0  0  0  0
 38 43  1  0  0  0  0
 40 41  1  0  0  0  0
 41 43  1  0  0  0  0
 41 39  1  0  0  0  0
 42 37  1  0  0  0  0
 42 40  1  0  0  0  0
M  END
>  <MODEL>
7

>  <REMARK>
 VINA RESULT:      -7.4      3.001      5.214
  Name = 
  5 active torsions:
  status: ('A' for Active; 'I' for Inactive)
    1  A    between atoms: C_1  and  C_34
    2  A    between atoms: C_2  and  C_13
    3  A    between atoms: C_3  and  C_12
    4  A    between atoms: N_6  and  C_12
    5  A    between atoms: N_14  and  C_22
                            x       y       z     vdW  Elec       q    Type
                         _______ _______ _______ _____ _____    ______ ____

>  <TORSDO>
F 5

$$$$
=
 OpenBabel11052416133D

 43 49  0  0  1  0  0  0  0  0999 V2000
  185.9720  178.1330  146.2340 C   0  0  0  0  0  0  0  0  0  0  0  0
  186.4800  178.0860  141.1120 C   0  0  2  0  0  3  0  0  0  0  0  0
  184.0260  178.7020  140.0230 C   0  0  2  0  0  3  0  0  0  0  0  0
  186.7310  177.7660  143.9580 C   0  0  0  0  0  0  0  0  0  0  0  0
  185.0010  179.0220  145.7710 C   0  0  0  0  0  3  0  0  0  0  0  0
  186.0850  177.8830  147.5940 O   0  0  0  0  0  1  0  0  0  0  0  0
  185.7200  178.6380  143.4780 C   0  0  0  0  0  0  0  0  0  0  0  0
  186.8340  177.5100  145.3290 C   0  0  0  0  0  3  0  0  0  0  0  0
  184.8800  179.2770  144.4020 C   0  0  0  0  0  3  0  0  0  0  0  0
  184.1700  179.0040  141.5280 C   0  0  0  0  0  2  0  0  0  0  0  0
  185.6220  178.9880  142.0130 C   0  0  2  0  0  3  0  0  0  0  0  0
  187.8580  177.8520  141.7240 C   0  0  0  0  0  2  0  0  0  0  0  0
  186.5640  178.6870  139.7000 C   0  0  2  0  0  3  0  0  0  0  0  0
  185.2030  179.2380  139.2030 C   0  0  0  0  0  2  0  0  0  0  0  0
  187.6800  177.0730  143.0220 C   0  0  0  0  0  2  0  0  0  0  0  0
  187.2070  177.7200  138.6950 C   0  0  2  0  0  3  0  0  0  0  0  0
  187.7580  175.4770  136.8550 C   0  0  0  0  0  2  0  0  0  0  0  0
  189.2520  175.7300  137.0660 C   0  0  0  0  0  0  0  0  0  0  0  0
  189.8750  174.4970  137.1880 F   0  0  0  0  0  0  0  0  0  0  0  0
  188.9010  178.2430  138.2670 S   0  0  0  0  0  0  0  0  0  0  0  0
  187.0340  176.7180  136.3380 C   0  0  0  0  0  2  0  0  0  0  0  0
  186.3310  177.4870  137.4530 C   0  0  0  0  0  2  0  0  0  0  0  0
  189.7920  176.3840  135.9710 F   0  0  0  0  0  0  0  0  0  0  0  0
  189.5310  176.5310  138.3430 C   0  0  0  0  0  2  0  0  0  0  0  0
  182.7140  179.1860  139.4990 C   0  0  0  0  0  0  0  0  0  0  0  0
  181.5570  179.0790  140.3330 N   0  0  0  0  0  2  0  0  0  0  0  0
  182.6860  179.9990  138.4890 N   0  0  0  0  0  2  0  0  0  0  0  0
  180.8390  177.8250  140.5550 C   0  0  2  0  0  3  0  0  0  0  0  0
  180.3720  177.7090  141.9940 C   0  0  0  0  0  1  0  0  0  0  0  0
  181.7210  176.6140  140.1650 C   0  0  2  0  0  3  0  0  0  0  0  0
  181.4630  176.0410  138.8270 C   0  0  1  0  0  3  0  0  0  0  0  0
  178.9320  174.0890  140.3300 C   0  0  0  0  0  1  0  0  0  0  0  0
  181.0170  175.3080  140.0170 N   0  0  2  0  0  0  0  0  0  0  0  0
  180.1930  176.5030  138.1450 C   0  0  2  0  0  3  0  0  0  0  0  0
  179.1010  175.8620  138.7450 O   0  0  0  0  0  0  0  0  0  0  0  0
  179.5570  175.4290  140.0030 C   0  0  1  0  0  3  0  0  0  0  0  0
  179.4280  177.1620  135.8770 C   0  0  0  0  0  2  0  0  0  0  0  0
  180.2650  176.2650  136.6960 N   0  0  1  0  0  0  0  0  0  0  0  0
  183.5690  177.5010  135.6650 F   0  0  0  0  0  0  0  0  0  0  0  0
  181.4520  178.4510  135.1760 C   0  0  0  0  0  2  0  0  0  0  0  0
  182.2780  177.6100  136.1330 C   0  0  1  0  0  3  0  0  0  0  0  0
  180.0310  178.5580  135.7090 C   0  0  0  0  0  2  0  0  0  0  0  0
  181.6630  176.2160  136.2510 C   0  0  0  0  0  2  0  0  0  0  0  0
  1  6  1  0  0  0  0
  2 12  1  1  0  0  0
  2 11  1  0  0  0  0
  3 25  1  6  0  0  0
  3 10  1  0  0  0  0
  4  8  1  0  0  0  0
  5  1  1  0  0  0  0
  7  4  2  0  0  0  0
  7  9  1  0  0  0  0
  8  1  2  0  0  0  0
  9  5  2  0  0  0  0
 11 10  1  6  0  0  0
 11  7  1  0  0  0  0
 12 15  1  0  0  0  0
 13 14  1  6  0  0  0
 13  2  1  0  0  0  0
 14  3  1  0  0  0  0
 15  4  1  0  0  0  0
 16 22  1  6  0  0  0
 16 13  1  0  0  0  0
 17 18  1  0  0  0  0
 18 19  1  0  0  0  0
 18 24  1  0  0  0  0
 20 24  1  0  0  0  0
 20 16  1  0  0  0  0
 21 17  1  0  0  0  0
 21 22  1  0  0  0  0
 23 18  1  0  0  0  0
 25 26  1  0  0  0  0
 26 28  1  0  0  0  0
 27 25  2  0  0  0  0
 28 29  1  1  0  0  0
 30 28  1  6  0  0  0
 31 33  1  0  0  0  0
 31 30  1  0  0  0  0
 33 30  1  0  0  0  0
 34 35  1  0  0  0  0
 34 31  1  0  0  0  0
 35 36  1  0  0  0  0
 36 33  1  0  0  0  0
 36 32  1  0  0  0  0
 37 38  1  0  0  0  0
 38 34  1  0  0  0  0
 39 41  1  0  0  0  0
 40 42  1  0  0  0  0
 40 41  1  0  0  0  0
 41 43  1  0  0  0  0
 42 37  1  0  0  0  0
 43 38  1  0  0  0  0
M  END
>  <MODEL>
8

>  <REMARK>
 VINA RESULT:      -7.3      2.060      3.173
  Name = 
  5 active torsions:
  status: ('A' for Active; 'I' for Inactive)
    1  A    between atoms: C_1  and  C_34
    2  A    between atoms: C_2  and  C_13
    3  A    between atoms: C_3  and  C_12
    4  A    between atoms: N_6  and  C_12
    5  A    between atoms: N_14  and  C_22
                            x       y       z     vdW  Elec       q    Type
                         _______ _______ _______ _____ _____    ______ ____

>  <TORSDO>
F 5

$$$$
=
 OpenBabel11052416133D

 43 49  0  0  1  0  0  0  0  0999 V2000
  194.3470  174.8800  137.8580 C   0  0  0  0  0  0  0  0  0  0  0  0
  189.2410  175.3070  137.3660 C   0  0  2  0  0  3  0  0  0  0  0  0
  188.3530  177.0270  139.3260 C   0  0  2  0  0  3  0  0  0  0  0  0
  192.0100  174.5370  137.3010 C   0  0  0  0  0  0  0  0  0  0  0  0
  194.0440  176.1460  138.3630 C   0  0  0  0  0  3  0  0  0  0  0  0
  195.6580  174.4290  137.8740 O   0  0  0  0  0  1  0  0  0  0  0  0
  191.6900  175.8060  137.8490 C   0  0  0  0  0  0  0  0  0  0  0  0
  193.3320  174.0820  137.3270 C   0  0  0  0  0  3  0  0  0  0  0  0
  192.7240  176.6070  138.3530 C   0  0  0  0  0  3  0  0  0  0  0  0
  189.8750  177.0390  139.0830 C   0  0  0  0  0  2  0  0  0  0  0  0
  190.2860  176.3550  137.7760 C   0  0  2  0  0  3  0  0  0  0  0  0
  189.7530  174.4410  136.2180 C   0  0  0  0  0  2  0  0  0  0  0  0
  187.9130  176.0000  137.0230 C   0  0  2  0  0  3  0  0  0  0  0  0
  187.5520  177.1280  138.0240 C   0  0  0  0  0  2  0  0  0  0  0  0
  190.9510  173.6430  136.7190 C   0  0  0  0  0  2  0  0  0  0  0  0
  186.7660  174.9960  136.8350 C   0  0  2  0  0  3  0  0  0  0  0  0
  184.5790  173.0590  137.2620 C   0  0  0  0  0  2  0  0  0  0  0  0
  184.8480  172.5130  135.8580 C   0  0  0  0  0  0  0  0  0  0  0  0
  184.7670  171.1300  135.9210 F   0  0  0  0  0  0  0  0  0  0  0  0
  186.4540  174.6750  135.0670 S   0  0  0  0  0  0  0  0  0  0  0  0
  184.2710  174.5530  137.2460 C   0  0  0  0  0  2  0  0  0  0  0  0
  185.4920  175.4020  137.5930 C   0  0  0  0  0  2  0  0  0  0  0  0
  183.8870  172.9660  134.9700 F   0  0  0  0  0  0  0  0  0  0  0  0
  186.2460  172.8830  135.3500 C   0  0  0  0  0  2  0  0  0  0  0  0
  187.9540  178.0780  140.3090 C   0  0  0  0  0  0  0  0  0  0  0  0
  188.9750  178.7390  141.0610 N   0  0  0  0  0  2  0  0  0  0  0  0
  186.7830  178.6260  140.2240 N   0  0  0  0  0  2  0  0  0  0  0  0
  189.6530  178.1330  142.2060 C   0  0  2  0  0  3  0  0  0  0  0  0
  191.1590  178.2740  142.0880 C   0  0  0  0  0  1  0  0  0  0  0  0
  189.2510  176.6460  142.3530 C   0  0  2  0  0  3  0  0  0  0  0  0
  188.0630  176.3860  143.1930 C   0  0  1  0  0  3  0  0  0  0  0  0
  190.2370  176.3790  145.9770 C   0  0  0  0  0  1  0  0  0  0  0  0
  189.3940  176.0570  143.7150 N   0  0  2  0  0  0  0  0  0  0  0  0
  187.5820  177.5490  144.0340 C   0  0  2  0  0  3  0  0  0  0  0  0
  188.4490  177.7060  145.1240 O   0  0  0  0  0  0  0  0  0  0  0  0
  189.6410  177.0550  144.7600 C   0  0  1  0  0  3  0  0  0  0  0  0
  185.8530  177.8670  145.7870 C   0  0  0  0  0  2  0  0  0  0  0  0
  186.1850  177.3510  144.4450 N   0  0  1  0  0  0  0  0  0  0  0  0
  184.2320  179.7360  142.4420 F   0  0  0  0  0  0  0  0  0  0  0  0
  184.6680  179.8200  144.7710 C   0  0  0  0  0  2  0  0  0  0  0  0
  185.1390  179.3530  143.4050 C   0  0  1  0  0  3  0  0  0  0  0  0
  185.6800  179.3870  145.8200 C   0  0  0  0  0  2  0  0  0  0  0  0
  185.2700  177.8290  143.4020 C   0  0  0  0  0  2  0  0  0  0  0  0
  1  6  1  0  0  0  0
  1  5  1  0  0  0  0
  2 12  1  6  0  0  0
  2 11  1  0  0  0  0
  3 25  1  1  0  0  0
  4  8  1  0  0  0  0
  4  7  2  0  0  0  0
  7  9  1  0  0  0  0
  8  1  2  0  0  0  0
  9  5  2  0  0  0  0
 10  3  1  0  0  0  0
 11  7  1  0  0  0  0
 11 10  1  1  0  0  0
 12 15  1  0  0  0  0
 13  2  1  0  0  0  0
 13 14  1  1  0  0  0
 14  3  1  0  0  0  0
 15  4  1  0  0  0  0
 16 13  1  0  0  0  0
 16 22  1  6  0  0  0
 18 19  1  0  0  0  0
 18 17  1  0  0  0  0
 20 24  1  0  0  0  0
 20 16  1  0  0  0  0
 21 17  1  0  0  0  0
 21 22  1  0  0  0  0
 23 18  1  0  0  0  0
 24 18  1  0  0  0  0
 25 26  1  0  0  0  0
 26 28  1  0  0  0  0
 27 25  2  0  0  0  0
 28 29  1  6  0  0  0
 30 28  1  1  0  0  0
 30 31  1  0  0  0  0
 30 33  1  0  0  0  0
 31 33  1  0  0  0  0
 31 34  1  0  0  0  0
 33 36  1  0  0  0  0
 34 38  1  0  0  0  0
 34 35  1  0  0  0  0
 36 35  1  0  0  0  0
 36 32  1  0  0  0  0
 37 42  1  0  0  0  0
 38 37  1  0  0  0  0
 39 41  1  0  0  0  0
 40 42  1  0  0  0  0
 41 40  1  0  0  0  0
 43 41  1  0  0  0  0
 43 38  1  0  0  0  0
M  END
>  <MODEL>
9

>  <REMARK>
 VINA RESULT:      -7.3      3.680      8.456
  Name = 
  5 active torsions:
  status: ('A' for Active; 'I' for Inactive)
    1  A    between atoms: C_1  and  C_34
    2  A    between atoms: C_2  and  C_13
    3  A    between atoms: C_3  and  C_12
    4  A    between atoms: N_6  and  C_12
    5  A    between atoms: N_14  and  C_22
                            x       y       z     vdW  Elec       q    Type
                         _______ _______ _______ _____ _____    ______ ____

>  <TORSDO>
F 5

$$$$
