=
 OpenBabel11052415583D

 34 39  0  0  0  0  0  0  0  0999 V2000
  190.0970  176.9650  137.4450 C   0  0  0  0  0  0  0  0  0  0  0  0
  192.1760  175.2400  134.6270 C   0  0  0  0  0  2  0  0  0  0  0  0
  189.9820  176.4940  134.6320 C   0  0  0  0  0  3  0  0  0  0  0  0
  188.6130  177.7950  139.2470 C   0  0  0  0  0  0  0  0  0  0  0  0
  189.8370  177.0560  138.7590 C   0  0  0  0  0  3  0  0  0  0  0  0
  187.9710  178.1250  136.9400 C   0  0  0  0  0  0  0  0  0  0  0  0
  187.1540  178.2030  135.8830 C   0  0  0  0  0  3  0  0  0  0  0  0
  187.6940  178.2750  138.3720 C   0  0  0  0  0  3  0  0  0  0  0  0
  189.0730  177.2640  135.2270 C   0  0  0  0  0  0  0  0  0  0  0  0
  189.2100  177.6100  136.5630 N   0  0  0  0  0  0  0  0  0  0  0  0
  187.8420  177.7030  134.7530 O   0  0  0  0  0  0  0  0  0  0  0  0
  193.3300  174.5880  135.3790 C   0  0  0  0  0  2  0  0  0  0  0  0
  194.1180  175.6040  136.0750 N   0  0  0  0  0  0  0  0  0  0  0  0
  193.6240  176.1630  137.3360 C   0  0  0  0  0  2  0  0  0  0  0  0
  191.1360  175.9770  135.4450 C   0  0  0  0  0  0  0  0  0  0  0  0
  192.2520  175.6110  137.7030 C   0  0  0  0  0  2  0  0  0  0  0  0
  191.1830  176.1740  136.8110 C   0  0  0  0  0  0  0  0  0  0  0  0
  191.3070  176.8890  142.6850 C   0  0  0  0  0  3  0  0  0  0  0  0
  188.6680  177.6550  143.0170 N   0  0  0  0  0  0  0  0  0  0  0  0
  190.9630  176.7300  146.3700 C   0  0  0  0  0  0  0  0  0  0  0  0
  191.5260  176.6510  145.0880 C   0  0  0  0  0  3  0  0  0  0  0  0
  190.7580  176.9600  143.9630 C   0  0  0  0  0  0  0  0  0  0  0  0
  188.3360  177.9350  140.6480 N   0  0  0  0  0  2  0  0  0  0  0  0
  188.8510  177.4350  145.3890 C   0  0  0  0  0  3  0  0  0  0  0  0
  189.4120  177.3550  144.1140 C   0  0  0  0  0  0  0  0  0  0  0  0
  189.6230  177.1240  146.5130 C   0  0  0  0  0  3  0  0  0  0  0  0
  189.1800  177.5830  141.7560 C   0  0  0  0  0  0  0  0  0  0  0  0
  190.5170  177.2020  141.5770 C   0  0  0  0  0  3  0  0  0  0  0  0
  191.7760  176.4040  147.5530 C   0  0  0  0  0  0  0  0  0  0  0  0
  192.1500  175.2190  147.7640 O   0  0  0  0  0  0  0  0  0  0  0  0
  192.1390  177.4020  148.4500 O   0  0  0  0  0  1  0  0  0  0  0  0
  195.3480  176.0990  135.5100 C   0  0  0  0  0  0  0  0  0  0  0  0
  196.7110  175.1850  135.4980 S   0  0  0  0  0  0  0  0  0  0  0  0
  195.4220  177.4670  134.9220 C   0  0  0  0  0  1  0  0  0  0  0  0
  1  5  2  0  0  0  0
  2 12  1  0  0  0  0
  2 15  1  0  0  0  0
  3  9  2  0  0  0  0
  3 15  1  0  0  0  0
  4 23  1  0  0  0  0
  5  4  1  0  0  0  0
  6  8  1  0  0  0  0
  7  6  2  0  0  0  0
  8  4  2  0  0  0  0
  9 10  1  0  0  0  0
 10  6  1  0  0  0  0
 10  1  1  0  0  0  0
 11  9  1  0  0  0  0
 11  7  1  0  0  0  0
 12 13  1  0  0  0  0
 13 14  1  0  0  0  0
 14 16  1  0  0  0  0
 15 17  2  0  0  0  0
 17  1  1  0  0  0  0
 17 16  1  0  0  0  0
 18 22  1  0  0  0  0
 19 25  1  0  0  0  0
 20 26  1  0  0  0  0
 20 29  1  0  0  0  0
 21 20  2  0  0  0  0
 22 25  2  0  0  0  0
 22 21  1  0  0  0  0
 23 27  1  0  0  0  0
 24 26  2  0  0  0  0
 25 24  1  0  0  0  0
 27 19  2  0  0  0  0
 28 27  1  0  0  0  0
 28 18  2  0  0  0  0
 29 30  2  0  0  0  0
 29 31  1  0  0  0  0
 32 13  1  0  0  0  0
 33 32  2  0  0  0  0
 34 32  1  0  0  0  0
M  END
>  <MODEL>
1

>  <REMARK>
 VINA RESULT:      -9.7      0.000      0.000
  Name = 
  3 active torsions:
  status: ('A' for Active; 'I' for Inactive)
    1  A    between atoms: C_3  and  N_25
    2  A    between atoms: C_7  and  C_11
    3  A    between atoms: C_8  and  N_18
                            x       y       z     vdW  Elec       q    Type
                         _______ _______ _______ _____ _____    ______ ____

>  <TORSDO>
F 3

$$$$
=
 OpenBabel11052415583D

 34 39  0  0  0  0  0  0  0  0999 V2000
  182.7500  178.4790  140.9830 C   0  0  0  0  0  0  0  0  0  0  0  0
  179.3430  178.1760  139.1010 C   0  0  0  0  0  2  0  0  0  0  0  0
  179.9490  178.5550  141.5250 C   0  0  0  0  0  3  0  0  0  0  0  0
  184.8800  178.3690  142.2440 C   0  0  0  0  0  0  0  0  0  0  0  0
  184.0670  178.2150  140.9800 C   0  0  0  0  0  3  0  0  0  0  0  0
  182.8350  178.8950  143.4200 C   0  0  0  0  0  0  0  0  0  0  0  0
  181.9460  178.8850  144.4210 C   0  0  0  0  0  3  0  0  0  0  0  0
  184.2810  178.6570  143.4260 C   0  0  0  0  0  3  0  0  0  0  0  0
  180.8320  178.8260  142.4850 C   0  0  0  0  0  0  0  0  0  0  0  0
  182.1820  178.9300  142.1880 N   0  0  0  0  0  0  0  0  0  0  0  0
  180.6470  178.8880  143.8610 O   0  0  0  0  0  0  0  0  0  0  0  0
  179.7500  177.8380  137.6720 C   0  0  0  0  0  2  0  0  0  0  0  0
  180.5730  178.9090  137.1130 N   0  0  0  0  0  0  0  0  0  0  0  0
  181.9870  179.0030  137.4840 C   0  0  0  0  0  2  0  0  0  0  0  0
  180.4490  178.3280  140.1250 C   0  0  0  0  0  0  0  0  0  0  0  0
  182.3760  177.9440  138.5080 C   0  0  0  0  0  2  0  0  0  0  0  0
  181.8020  178.2590  139.8600 C   0  0  0  0  0  0  0  0  0  0  0  0
  187.4440  177.1960  145.7010 C   0  0  0  0  0  3  0  0  0  0  0  0
  188.4800  177.7690  143.1980 N   0  0  0  0  0  0  0  0  0  0  0  0
  191.0770  176.8230  146.3170 C   0  0  0  0  0  0  0  0  0  0  0  0
  189.6930  176.8510  146.5380 C   0  0  0  0  0  3  0  0  0  0  0  0
  188.8210  177.1680  145.4940 C   0  0  0  0  0  0  0  0  0  0  0  0
  186.2940  178.1270  142.2540 N   0  0  0  0  0  2  0  0  0  0  0  0
  190.7100  177.4330  143.9900 C   0  0  0  0  0  3  0  0  0  0  0  0
  189.3310  177.4610  144.2120 C   0  0  0  0  0  0  0  0  0  0  0  0
  191.5790  177.1140  145.0390 C   0  0  0  0  0  3  0  0  0  0  0  0
  187.1300  177.8120  143.3780 C   0  0  0  0  0  0  0  0  0  0  0  0
  186.5940  177.5170  144.6400 C   0  0  0  0  0  3  0  0  0  0  0  0
  191.9930  176.4870  147.4200 C   0  0  0  0  0  0  0  0  0  0  0  0
  192.0710  177.2320  148.4340 O   0  0  0  0  0  1  0  0  0  0  0  0
  192.7810  175.3440  147.3520 O   0  0  0  0  0  0  0  0  0  0  0  0
  179.9970  179.9030  136.2440 C   0  0  0  0  0  0  0  0  0  0  0  0
  178.9660  179.4880  135.0360 S   0  0  0  0  0  0  0  0  0  0  0  0
  180.3290  181.3480  136.4100 C   0  0  0  0  0  1  0  0  0  0  0  0
  1 10  1  0  0  0  0
  2 15  1  0  0  0  0
  3  9  2  0  0  0  0
  4 23  1  0  0  0  0
  4  8  2  0  0  0  0
  5  1  2  0  0  0  0
  5  4  1  0  0  0  0
  6  8  1  0  0  0  0
  6  7  2  0  0  0  0
  9 11  1  0  0  0  0
 10  9  1  0  0  0  0
 10  6  1  0  0  0  0
 11  7  1  0  0  0  0
 12  2  1  0  0  0  0
 13 14  1  0  0  0  0
 13 12  1  0  0  0  0
 14 16  1  0  0  0  0
 15  3  1  0  0  0  0
 16 17  1  0  0  0  0
 17 15  2  0  0  0  0
 17  1  1  0  0  0  0
 19 27  2  0  0  0  0
 19 25  1  0  0  0  0
 20 21  1  0  0  0  0
 20 29  1  0  0  0  0
 22 18  1  0  0  0  0
 22 21  2  0  0  0  0
 23 27  1  0  0  0  0
 24 25  2  0  0  0  0
 24 26  1  0  0  0  0
 25 22  1  0  0  0  0
 26 20  2  0  0  0  0
 27 28  1  0  0  0  0
 28 18  2  0  0  0  0
 29 30  1  0  0  0  0
 31 29  2  0  0  0  0
 32 34  1  0  0  0  0
 32 13  1  0  0  0  0
 33 32  2  0  0  0  0
M  END
>  <MODEL>
2

>  <REMARK>
 VINA RESULT:      -9.5      6.720      9.136
  Name = 
  3 active torsions:
  status: ('A' for Active; 'I' for Inactive)
    1  A    between atoms: C_3  and  N_25
    2  A    between atoms: C_7  and  C_11
    3  A    between atoms: C_8  and  N_18
                            x       y       z     vdW  Elec       q    Type
                         _______ _______ _______ _____ _____    ______ ____

>  <TORSDO>
F 3

$$$$
=
 OpenBabel11052415583D

 34 39  0  0  0  0  0  0  0  0999 V2000
  189.0860  177.3830  142.9930 C   0  0  0  0  0  0  0  0  0  0  0  0
  192.2140  177.3800  140.6570 C   0  0  0  0  0  2  0  0  0  0  0  0
  191.9270  177.1710  143.1590 C   0  0  0  0  0  3  0  0  0  0  0  0
  187.1570  177.6880  144.5180 C   0  0  0  0  0  0  0  0  0  0  0  0
  187.7960  177.7230  143.1500 C   0  0  0  0  0  3  0  0  0  0  0  0
  189.3150  177.1080  145.4410 C   0  0  0  0  0  0  0  0  0  0  0  0
  190.3320  177.1190  146.3110 C   0  0  0  0  0  3  0  0  0  0  0  0
  187.8970  177.4310  145.6260 C   0  0  0  0  0  3  0  0  0  0  0  0
  191.1720  177.0070  144.2430 C   0  0  0  0  0  0  0  0  0  0  0  0
  189.7900  176.9660  144.1370 N   0  0  0  0  0  0  0  0  0  0  0  0
  191.5400  177.0100  145.5840 O   0  0  0  0  0  0  0  0  0  0  0  0
  191.6320  177.6630  139.2770 C   0  0  0  0  0  2  0  0  0  0  0  0
  190.6870  176.6130  138.9010 N   0  0  0  0  0  0  0  0  0  0  0  0
  189.3340  176.6230  139.4630 C   0  0  0  0  0  2  0  0  0  0  0  0
  191.2520  177.3510  141.8270 C   0  0  0  0  0  0  0  0  0  0  0  0
  189.1430  177.7580  140.4620 C   0  0  0  0  0  2  0  0  0  0  0  0
  189.8810  177.4840  141.7420 C   0  0  0  0  0  0  0  0  0  0  0  0
  184.0150  178.1990  141.3940 C   0  0  0  0  0  3  0  0  0  0  0  0
  183.5470  178.6880  144.0780 N   0  0  0  0  0  0  0  0  0  0  0  0
  180.4980  179.3580  141.3170 C   0  0  0  0  0  0  0  0  0  0  0  0
  181.7480  178.8900  140.8860 C   0  0  0  0  0  3  0  0  0  0  0  0
  182.7700  178.6660  141.8100 C   0  0  0  0  0  0  0  0  0  0  0  0
  185.7720  178.0130  144.7030 N   0  0  0  0  0  2  0  0  0  0  0  0
  181.3050  179.3730  143.6120 C   0  0  0  0  0  3  0  0  0  0  0  0
  182.5490  178.9080  143.1820 C   0  0  0  0  0  0  0  0  0  0  0  0
  180.2830  179.5960  142.6840 C   0  0  0  0  0  3  0  0  0  0  0  0
  184.7750  178.2400  143.6940 C   0  0  0  0  0  0  0  0  0  0  0  0
  185.0210  177.9830  142.3380 C   0  0  0  0  0  3  0  0  0  0  0  0
  179.4220  179.5930  140.3400 C   0  0  0  0  0  0  0  0  0  0  0  0
  178.9360  178.6350  139.6820 O   0  0  0  0  0  0  0  0  0  0  0  0
  178.9310  180.8770  140.1350 O   0  0  0  0  0  1  0  0  0  0  0  0
  191.0860  175.5400  138.0260 C   0  0  0  0  0  0  0  0  0  0  0  0
  189.9790  174.6560  137.1980 S   0  0  0  0  0  0  0  0  0  0  0  0
  192.5260  175.1930  137.8510 C   0  0  0  0  0  1  0  0  0  0  0  0
  1  5  2  0  0  0  0
  1 10  1  0  0  0  0
  2 15  1  0  0  0  0
  3  9  2  0  0  0  0
  4 23  1  0  0  0  0
  4  8  2  0  0  0  0
  5  4  1  0  0  0  0
  6  8  1  0  0  0  0
  6  7  2  0  0  0  0
  9 11  1  0  0  0  0
 10  9  1  0  0  0  0
 10  6  1  0  0  0  0
 11  7  1  0  0  0  0
 12  2  1  0  0  0  0
 13 12  1  0  0  0  0
 13 14  1  0  0  0  0
 14 16  1  0  0  0  0
 15  3  1  0  0  0  0
 16 17  1  0  0  0  0
 17 15  2  0  0  0  0
 17  1  1  0  0  0  0
 18 22  1  0  0  0  0
 18 28  2  0  0  0  0
 20 26  1  0  0  0  0
 21 20  2  0  0  0  0
 21 22  1  0  0  0  0
 22 25  2  0  0  0  0
 25 24  1  0  0  0  0
 25 19  1  0  0  0  0
 26 24  2  0  0  0  0
 27 19  2  0  0  0  0
 27 23  1  0  0  0  0
 28 27  1  0  0  0  0
 29 20  1  0  0  0  0
 30 29  2  0  0  0  0
 31 29  1  0  0  0  0
 32 13  1  0  0  0  0
 33 32  2  0  0  0  0
 34 32  1  0  0  0  0
M  END
>  <MODEL>
3

>  <REMARK>
 VINA RESULT:      -9.3      4.900      8.446
  Name = 
  3 active torsions:
  status: ('A' for Active; 'I' for Inactive)
    1  A    between atoms: C_3  and  N_25
    2  A    between atoms: C_7  and  C_11
    3  A    between atoms: C_8  and  N_18
                            x       y       z     vdW  Elec       q    Type
                         _______ _______ _______ _____ _____    ______ ____

>  <TORSDO>
F 3

$$$$
=
 OpenBabel11052415583D

 34 39  0  0  0  0  0  0  0  0999 V2000
  182.1790  178.2760  141.1160 C   0  0  0  0  0  0  0  0  0  0  0  0
  180.9780  176.8660  137.6790 C   0  0  0  0  0  2  0  0  0  0  0  0
  179.9010  178.3700  139.4000 C   0  0  0  0  0  3  0  0  0  0  0  0
  182.7890  178.9320  143.4260 C   0  0  0  0  0  0  0  0  0  0  0  0
  183.0190  178.1470  142.1560 C   0  0  0  0  0  3  0  0  0  0  0  0
  180.7420  179.7770  142.4570 C   0  0  0  0  0  0  0  0  0  0  0  0
  179.4600  180.1600  142.4140 C   0  0  0  0  0  3  0  0  0  0  0  0
  181.6720  179.6850  143.5860 C   0  0  0  0  0  3  0  0  0  0  0  0
  179.9530  179.1230  140.4970 C   0  0  0  0  0  0  0  0  0  0  0  0
  181.1160  179.1860  141.2510 N   0  0  0  0  0  0  0  0  0  0  0  0
  178.9310  179.8000  141.1530 O   0  0  0  0  0  0  0  0  0  0  0  0
  182.1110  175.9390  137.2550 C   0  0  0  0  0  2  0  0  0  0  0  0
  183.3570  176.6920  137.1150 N   0  0  0  0  0  0  0  0  0  0  0  0
  184.1180  177.0600  138.3120 C   0  0  0  0  0  2  0  0  0  0  0  0
  181.1100  177.5620  139.0180 C   0  0  0  0  0  0  0  0  0  0  0  0
  183.4080  176.6300  139.5900 C   0  0  0  0  0  2  0  0  0  0  0  0
  182.2040  177.4870  139.8570 C   0  0  0  0  0  0  0  0  0  0  0  0
  187.1290  177.9060  143.3520 C   0  0  0  0  0  3  0  0  0  0  0  0
  185.7200  178.2710  145.7070 N   0  0  0  0  0  0  0  0  0  0  0  0
  189.7410  177.1880  145.8790 C   0  0  0  0  0  0  0  0  0  0  0  0
  189.1110  177.3640  144.6380 C   0  0  0  0  0  3  0  0  0  0  0  0
  187.7640  177.7260  144.5790 C   0  0  0  0  0  0  0  0  0  0  0  0
  183.6940  178.8360  144.5360 N   0  0  0  0  0  2  0  0  0  0  0  0
  187.6560  177.7440  147.0050 C   0  0  0  0  0  3  0  0  0  0  0  0
  187.0310  177.9180  145.7690 C   0  0  0  0  0  0  0  0  0  0  0  0
  189.0060  177.3810  147.0600 C   0  0  0  0  0  3  0  0  0  0  0  0
  185.0750  178.4440  144.5190 C   0  0  0  0  0  0  0  0  0  0  0  0
  185.7810  178.2680  143.3200 C   0  0  0  0  0  3  0  0  0  0  0  0
  191.1610  176.8060  145.9380 C   0  0  0  0  0  0  0  0  0  0  0  0
  191.7680  176.4400  144.8960 O   0  0  0  0  0  0  0  0  0  0  0  0
  191.8470  176.8470  147.1460 O   0  0  0  0  0  1  0  0  0  0  0  0
  183.8160  177.1220  135.8190 C   0  0  0  0  0  0  0  0  0  0  0  0
  185.4140  177.3190  135.5020 S   0  0  0  0  0  0  0  0  0  0  0  0
  182.8480  177.4100  134.7220 C   0  0  0  0  0  1  0  0  0  0  0  0
  1 10  1  0  0  0  0
  1  5  2  0  0  0  0
  2 15  1  0  0  0  0
  3  9  2  0  0  0  0
  4  8  2  0  0  0  0
  4 23  1  0  0  0  0
  5  4  1  0  0  0  0
  6  8  1  0  0  0  0
  7  6  2  0  0  0  0
  9 11  1  0  0  0  0
  9 10  1  0  0  0  0
 10  6  1  0  0  0  0
 11  7  1  0  0  0  0
 12  2  1  0  0  0  0
 13 12  1  0  0  0  0
 13 14  1  0  0  0  0
 14 16  1  0  0  0  0
 15  3  1  0  0  0  0
 15 17  2  0  0  0  0
 16 17  1  0  0  0  0
 17  1  1  0  0  0  0
 18 22  1  0  0  0  0
 19 25  1  0  0  0  0
 20 29  1  0  0  0  0
 20 26  1  0  0  0  0
 21 20  2  0  0  0  0
 22 21  1  0  0  0  0
 22 25  2  0  0  0  0
 24 26  2  0  0  0  0
 25 24  1  0  0  0  0
 27 23  1  0  0  0  0
 27 19  2  0  0  0  0
 28 18  2  0  0  0  0
 28 27  1  0  0  0  0
 29 31  1  0  0  0  0
 30 29  2  0  0  0  0
 32 13  1  0  0  0  0
 33 32  2  0  0  0  0
 34 32  1  0  0  0  0
M  END
>  <MODEL>
4

>  <REMARK>
 VINA RESULT:      -8.9      6.340      8.168
  Name = 
  3 active torsions:
  status: ('A' for Active; 'I' for Inactive)
    1  A    between atoms: C_3  and  N_25
    2  A    between atoms: C_7  and  C_11
    3  A    between atoms: C_8  and  N_18
                            x       y       z     vdW  Elec       q    Type
                         _______ _______ _______ _____ _____    ______ ____

>  <TORSDO>
F 3

$$$$
=
 OpenBabel11052415583D

 34 39  0  0  0  0  0  0  0  0999 V2000
  182.4990  177.2820  138.2260 C   0  0  0  0  0  0  0  0  0  0  0  0
  182.2460  174.8650  135.1700 C   0  0  0  0  0  2  0  0  0  0  0  0
  181.6240  177.2910  135.5090 C   0  0  0  0  0  3  0  0  0  0  0  0
  182.3630  178.7430  140.2230 C   0  0  0  0  0  0  0  0  0  0  0  0
  182.6020  177.4070  139.5590 C   0  0  0  0  0  3  0  0  0  0  0  0
  181.7730  179.6400  138.0570 C   0  0  0  0  0  0  0  0  0  0  0  0
  181.0920  180.3670  137.1630 C   0  0  0  0  0  3  0  0  0  0  0  0
  181.9260  179.8080  139.5050 C   0  0  0  0  0  3  0  0  0  0  0  0
  181.6400  178.4180  136.2190 C   0  0  0  0  0  0  0  0  0  0  0  0
  182.1990  178.4410  137.4880 N   0  0  0  0  0  0  0  0  0  0  0  0
  181.0240  179.6360  135.9550 O   0  0  0  0  0  0  0  0  0  0  0  0
  182.7040  173.5250  135.7320 C   0  0  0  0  0  2  0  0  0  0  0  0
  184.0790  173.6230  136.2190 N   0  0  0  0  0  0  0  0  0  0  0  0
  184.3430  174.2480  137.5180 C   0  0  0  0  0  2  0  0  0  0  0  0
  182.1870  176.0400  136.1250 C   0  0  0  0  0  0  0  0  0  0  0  0
  183.0690  174.7880  138.1570 C   0  0  0  0  0  2  0  0  0  0  0  0
  182.5840  176.0190  137.4470 C   0  0  0  0  0  0  0  0  0  0  0  0
  186.0060  178.1060  142.7160 C   0  0  0  0  0  3  0  0  0  0  0  0
  183.5370  178.7160  143.8070 N   0  0  0  0  0  0  0  0  0  0  0  0
  186.7760  178.0340  146.3390 C   0  0  0  0  0  0  0  0  0  0  0  0
  186.9400  177.9530  144.9480 C   0  0  0  0  0  3  0  0  0  0  0  0
  185.8550  178.1810  144.0990 C   0  0  0  0  0  0  0  0  0  0  0  0
  182.5030  178.9060  141.6410 N   0  0  0  0  0  2  0  0  0  0  0  0
  184.4260  178.5770  146.0210 C   0  0  0  0  0  3  0  0  0  0  0  0
  184.5900  178.4950  144.6370 C   0  0  0  0  0  0  0  0  0  0  0  0
  185.5140  178.3480  146.8690 C   0  0  0  0  0  3  0  0  0  0  0  0
  183.6570  178.6400  142.4530 C   0  0  0  0  0  0  0  0  0  0  0  0
  184.9060  178.3380  141.8890 C   0  0  0  0  0  3  0  0  0  0  0  0
  187.9220  177.7940  147.2310 C   0  0  0  0  0  0  0  0  0  0  0  0
  187.9430  178.2880  148.3900 O   0  0  0  0  0  1  0  0  0  0  0  0
  188.9920  177.0170  146.8030 O   0  0  0  0  0  0  0  0  0  0  0  0
  185.1810  173.1620  135.4150 C   0  0  0  0  0  0  0  0  0  0  0  0
  185.4410  171.5610  135.1610 S   0  0  0  0  0  0  0  0  0  0  0  0
  186.1290  174.1290  134.7900 C   0  0  0  0  0  1  0  0  0  0  0  0
  1  5  2  0  0  0  0
  2 12  1  0  0  0  0
  2 15  1  0  0  0  0
  3 15  1  0  0  0  0
  3  9  2  0  0  0  0
  4 23  1  0  0  0  0
  5  4  1  0  0  0  0
  6  8  1  0  0  0  0
  7  6  2  0  0  0  0
  8  4  2  0  0  0  0
  9 10  1  0  0  0  0
 10  6  1  0  0  0  0
 10  1  1  0  0  0  0
 11  9  1  0  0  0  0
 11  7  1  0  0  0  0
 12 13  1  0  0  0  0
 13 14  1  0  0  0  0
 14 16  1  0  0  0  0
 15 17  2  0  0  0  0
 17 16  1  0  0  0  0
 17  1  1  0  0  0  0
 18 22  1  0  0  0  0
 19 25  1  0  0  0  0
 20 26  1  0  0  0  0
 20 29  1  0  0  0  0
 21 20  2  0  0  0  0
 22 25  2  0  0  0  0
 22 21  1  0  0  0  0
 23 27  1  0  0  0  0
 24 26  2  0  0  0  0
 25 24  1  0  0  0  0
 27 19  2  0  0  0  0
 28 27  1  0  0  0  0
 28 18  2  0  0  0  0
 29 30  1  0  0  0  0
 31 29  2  0  0  0  0
 32 13  1  0  0  0  0
 33 32  2  0  0  0  0
 34 32  1  0  0  0  0
M  END
>  <MODEL>
5

>  <REMARK>
 VINA RESULT:      -8.8      5.949      7.379
  Name = 
  3 active torsions:
  status: ('A' for Active; 'I' for Inactive)
    1  A    between atoms: C_3  and  N_25
    2  A    between atoms: C_7  and  C_11
    3  A    between atoms: C_8  and  N_18
                            x       y       z     vdW  Elec       q    Type
                         _______ _______ _______ _____ _____    ______ ____

>  <TORSDO>
F 3

$$$$
=
 OpenBabel11052415583D

 34 39  0  0  0  0  0  0  0  0999 V2000
  189.9620  177.3140  139.6060 C   0  0  0  0  0  0  0  0  0  0  0  0
  193.4630  176.3500  138.1730 C   0  0  0  0  0  2  0  0  0  0  0  0
  192.6800  177.1090  140.4520 C   0  0  0  0  0  3  0  0  0  0  0  0
  187.8190  178.2210  140.4570 C   0  0  0  0  0  0  0  0  0  0  0  0
  188.7090  177.7200  139.3440 C   0  0  0  0  0  3  0  0  0  0  0  0
  189.6860  177.9780  141.9730 C   0  0  0  0  0  0  0  0  0  0  0  0
  190.5120  178.2930  142.9780 C   0  0  0  0  0  3  0  0  0  0  0  0
  188.3010  178.3830  141.7150 C   0  0  0  0  0  3  0  0  0  0  0  0
  191.7170  177.3860  141.3300 C   0  0  0  0  0  0  0  0  0  0  0  0
  190.3850  177.3430  140.9480 N   0  0  0  0  0  0  0  0  0  0  0  0
  191.8190  177.8860  142.6230 O   0  0  0  0  0  0  0  0  0  0  0  0
  193.1910  176.1040  136.6940 C   0  0  0  0  0  2  0  0  0  0  0  0
  192.2300  175.0140  136.5290 N   0  0  0  0  0  0  0  0  0  0  0  0
  190.8030  175.2700  136.7400 C   0  0  0  0  0  2  0  0  0  0  0  0
  192.2970  176.7890  139.0340 C   0  0  0  0  0  0  0  0  0  0  0  0
  190.5440  176.7020  137.1910 C   0  0  0  0  0  2  0  0  0  0  0  0
  190.9890  176.9150  138.6100 C   0  0  0  0  0  0  0  0  0  0  0  0
  184.4250  178.4230  143.3450 C   0  0  0  0  0  3  0  0  0  0  0  0
  184.1140  178.9090  140.6370 N   0  0  0  0  0  0  0  0  0  0  0  0
  180.7760  179.0260  143.1300 C   0  0  0  0  0  0  0  0  0  0  0  0
  182.0430  178.7410  143.6620 C   0  0  0  0  0  3  0  0  0  0  0  0
  183.1620  178.7010  142.8280 C   0  0  0  0  0  0  0  0  0  0  0  0
  186.4660  178.6260  140.2040 N   0  0  0  0  0  2  0  0  0  0  0  0
  181.7630  179.2330  140.9150 C   0  0  0  0  0  3  0  0  0  0  0  0
  183.0220  178.9490  141.4460 C   0  0  0  0  0  0  0  0  0  0  0  0
  180.6450  179.2720  141.7540 C   0  0  0  0  0  3  0  0  0  0  0  0
  185.3580  178.6300  141.1180 C   0  0  0  0  0  0  0  0  0  0  0  0
  185.5280  178.3880  142.4890 C   0  0  0  0  0  3  0  0  0  0  0  0
  179.5990  179.0670  144.0120 C   0  0  0  0  0  0  0  0  0  0  0  0
  178.9310  180.1290  144.1360 O   0  0  0  0  0  0  0  0  0  0  0  0
  179.2120  177.9340  144.7170 O   0  0  0  0  0  1  0  0  0  0  0  0
  192.6760  173.6800  136.2150 C   0  0  0  0  0  0  0  0  0  0  0  0
  191.6400  172.5500  135.6300 S   0  0  0  0  0  0  0  0  0  0  0  0
  194.0980  173.2820  136.4200 C   0  0  0  0  0  1  0  0  0  0  0  0
  1 10  1  0  0  0  0
  2 15  1  0  0  0  0
  3  9  2  0  0  0  0
  4  8  2  0  0  0  0
  5  1  2  0  0  0  0
  5  4  1  0  0  0  0
  6  7  2  0  0  0  0
  8  6  1  0  0  0  0
  9 11  1  0  0  0  0
 10  9  1  0  0  0  0
 10  6  1  0  0  0  0
 11  7  1  0  0  0  0
 12  2  1  0  0  0  0
 13 12  1  0  0  0  0
 13 14  1  0  0  0  0
 14 16  1  0  0  0  0
 15  3  1  0  0  0  0
 16 17  1  0  0  0  0
 17 15  2  0  0  0  0
 17  1  1  0  0  0  0
 19 27  2  0  0  0  0
 19 25  1  0  0  0  0
 20 21  1  0  0  0  0
 20 29  1  0  0  0  0
 22 18  1  0  0  0  0
 22 21  2  0  0  0  0
 23  4  1  0  0  0  0
 23 27  1  0  0  0  0
 24 25  2  0  0  0  0
 24 26  1  0  0  0  0
 25 22  1  0  0  0  0
 26 20  2  0  0  0  0
 27 28  1  0  0  0  0
 28 18  2  0  0  0  0
 29 30  2  0  0  0  0
 29 31  1  0  0  0  0
 32 34  1  0  0  0  0
 32 13  1  0  0  0  0
 33 32  2  0  0  0  0
M  END
>  <MODEL>
6

>  <REMARK>
 VINA RESULT:      -8.5      5.181      6.892
  Name = 
  3 active torsions:
  status: ('A' for Active; 'I' for Inactive)
    1  A    between atoms: C_3  and  N_25
    2  A    between atoms: C_7  and  C_11
    3  A    between atoms: C_8  and  N_18
                            x       y       z     vdW  Elec       q    Type
                         _______ _______ _______ _____ _____    ______ ____

>  <TORSDO>
F 3

$$$$
=
 OpenBabel11052415583D

 34 39  0  0  0  0  0  0  0  0999 V2000
  188.3910  177.5030  142.8480 C   0  0  0  0  0  0  0  0  0  0  0  0
  191.8460  177.4900  141.0300 C   0  0  0  0  0  2  0  0  0  0  0  0
  191.1690  177.2470  143.4530 C   0  0  0  0  0  3  0  0  0  0  0  0
  186.2510  177.8130  144.0590 C   0  0  0  0  0  0  0  0  0  0  0  0
  187.0970  177.8600  142.8080 C   0  0  0  0  0  3  0  0  0  0  0  0
  188.2310  177.1870  145.2970 C   0  0  0  0  0  0  0  0  0  0  0  0
  189.0990  177.1710  146.3150 C   0  0  0  0  0  3  0  0  0  0  0  0
  186.8060  177.5280  145.2640 C   0  0  0  0  0  3  0  0  0  0  0  0
  190.2510  177.0770  144.4030 C   0  0  0  0  0  0  0  0  0  0  0  0
  188.9020  177.0580  144.0810 N   0  0  0  0  0  0  0  0  0  0  0  0
  190.4050  177.0550  145.7840 O   0  0  0  0  0  0  0  0  0  0  0  0
  191.4910  177.8020  139.5820 C   0  0  0  0  0  2  0  0  0  0  0  0
  190.6030  176.7720  139.0440 N   0  0  0  0  0  0  0  0  0  0  0  0
  189.1790  176.7930  139.3880 C   0  0  0  0  0  2  0  0  0  0  0  0
  190.7130  177.4570  142.0350 C   0  0  0  0  0  0  0  0  0  0  0  0
  188.8480  177.9150  140.3650 C   0  0  0  0  0  2  0  0  0  0  0  0
  189.3730  177.6120  141.7390 C   0  0  0  0  0  0  0  0  0  0  0  0
  183.6940  178.6220  140.4950 C   0  0  0  0  0  3  0  0  0  0  0  0
  182.7790  178.9250  143.0900 N   0  0  0  0  0  0  0  0  0  0  0  0
  180.2530  179.8640  139.9110 C   0  0  0  0  0  0  0  0  0  0  0  0
  181.5530  179.4000  139.6640 C   0  0  0  0  0  3  0  0  0  0  0  0
  182.4010  179.0860  140.7280 C   0  0  0  0  0  0  0  0  0  0  0  0
  184.8580  178.1550  144.0300 N   0  0  0  0  0  2  0  0  0  0  0  0
  180.6560  179.6930  142.3050 C   0  0  0  0  0  3  0  0  0  0  0  0
  181.9510  179.2320  142.0570 C   0  0  0  0  0  0  0  0  0  0  0  0
  179.8110  180.0070  141.2370 C   0  0  0  0  0  3  0  0  0  0  0  0
  184.0500  178.4780  142.8870 C   0  0  0  0  0  0  0  0  0  0  0  0
  184.5210  178.3150  141.5770 C   0  0  0  0  0  3  0  0  0  0  0  0
  179.3620  180.1940  138.7880 C   0  0  0  0  0  0  0  0  0  0  0  0
  178.9310  181.3690  138.6380 O   0  0  0  0  0  1  0  0  0  0  0  0
  178.9870  179.2120  137.8790 O   0  0  0  0  0  0  0  0  0  0  0  0
  191.1220  175.7060  138.2240 C   0  0  0  0  0  0  0  0  0  0  0  0
  192.7350  175.5080  138.0020 S   0  0  0  0  0  0  0  0  0  0  0  0
  190.2020  174.7510  137.5420 C   0  0  0  0  0  1  0  0  0  0  0  0
  1 10  1  0  0  0  0
  2 15  1  0  0  0  0
  3  9  2  0  0  0  0
  4  8  2  0  0  0  0
  5  1  2  0  0  0  0
  5  4  1  0  0  0  0
  6  7  2  0  0  0  0
  8  6  1  0  0  0  0
  9 11  1  0  0  0  0
 10  9  1  0  0  0  0
 10  6  1  0  0  0  0
 11  7  1  0  0  0  0
 12  2  1  0  0  0  0
 13 14  1  0  0  0  0
 13 12  1  0  0  0  0
 14 16  1  0  0  0  0
 15  3  1  0  0  0  0
 16 17  1  0  0  0  0
 17 15  2  0  0  0  0
 17  1  1  0  0  0  0
 18 22  1  0  0  0  0
 18 28  2  0  0  0  0
 20 26  1  0  0  0  0
 21 20  2  0  0  0  0
 21 22  1  0  0  0  0
 22 25  2  0  0  0  0
 23  4  1  0  0  0  0
 25 24  1  0  0  0  0
 25 19  1  0  0  0  0
 26 24  2  0  0  0  0
 27 19  2  0  0  0  0
 27 23  1  0  0  0  0
 28 27  1  0  0  0  0
 29 20  1  0  0  0  0
 30 29  1  0  0  0  0
 31 29  2  0  0  0  0
 32 13  1  0  0  0  0
 33 32  2  0  0  0  0
 34 32  1  0  0  0  0
M  END
>  <MODEL>
7

>  <REMARK>
 VINA RESULT:      -8.4      4.834      8.859
  Name = 
  3 active torsions:
  status: ('A' for Active; 'I' for Inactive)
    1  A    between atoms: C_3  and  N_25
    2  A    between atoms: C_7  and  C_11
    3  A    between atoms: C_8  and  N_18
                            x       y       z     vdW  Elec       q    Type
                         _______ _______ _______ _____ _____    ______ ____

>  <TORSDO>
F 3

$$$$
=
 OpenBabel11052415583D

 34 39  0  0  0  0  0  0  0  0999 V2000
  182.4680  177.7420  138.8940 C   0  0  0  0  0  0  0  0  0  0  0  0
  178.9310  176.1880  138.3360 C   0  0  0  0  0  2  0  0  0  0  0  0
  179.7990  178.5610  138.3010 C   0  0  0  0  0  3  0  0  0  0  0  0
  184.6240  178.7770  139.5420 C   0  0  0  0  0  0  0  0  0  0  0  0
  183.6960  177.5920  139.4160 C   0  0  0  0  0  3  0  0  0  0  0  0
  182.8380  180.1820  138.7190 C   0  0  0  0  0  0  0  0  0  0  0  0
  182.0520  181.2620  138.6360 C   0  0  0  0  0  3  0  0  0  0  0  0
  184.1980  180.0300  139.2440 C   0  0  0  0  0  3  0  0  0  0  0  0
  180.7950  179.4460  138.3000 C   0  0  0  0  0  0  0  0  0  0  0  0
  182.1080  179.0250  138.4440 N   0  0  0  0  0  0  0  0  0  0  0  0
  180.7410  180.8350  138.3230 O   0  0  0  0  0  0  0  0  0  0  0  0
  179.1400  174.7060  138.6230 C   0  0  0  0  0  2  0  0  0  0  0  0
  180.1200  174.1430  137.6950 N   0  0  0  0  0  0  0  0  0  0  0  0
  181.5480  174.3790  137.9220 C   0  0  0  0  0  2  0  0  0  0  0  0
  180.1240  177.1060  138.5010 C   0  0  0  0  0  0  0  0  0  0  0  0
  181.7900  175.2850  139.1230 C   0  0  0  0  0  2  0  0  0  0  0  0
  181.4070  176.7050  138.8180 C   0  0  0  0  0  0  0  0  0  0  0  0
  185.8440  177.8140  143.7230 C   0  0  0  0  0  3  0  0  0  0  0  0
  187.6720  178.4310  141.7370 N   0  0  0  0  0  0  0  0  0  0  0  0
  189.0310  177.6910  145.6070 C   0  0  0  0  0  0  0  0  0  0  0  0
  187.6610  177.6280  145.3180 C   0  0  0  0  0  3  0  0  0  0  0  0
  187.2030  177.8760  144.0220 C   0  0  0  0  0  0  0  0  0  0  0  0
  185.9530  178.6310  140.0640 N   0  0  0  0  0  2  0  0  0  0  0  0
  189.4860  178.2520  143.2830 C   0  0  0  0  0  3  0  0  0  0  0  0
  188.1210  178.1900  142.9980 C   0  0  0  0  0  0  0  0  0  0  0  0
  189.9390  178.0030  144.5830 C   0  0  0  0  0  3  0  0  0  0  0  0
  186.3480  178.3840  141.4220 C   0  0  0  0  0  0  0  0  0  0  0  0
  185.4140  178.0660  142.4190 C   0  0  0  0  0  3  0  0  0  0  0  0
  189.5100  177.4290  146.9740 C   0  0  0  0  0  0  0  0  0  0  0  0
  190.4250  176.5870  147.1800 O   0  0  0  0  0  0  0  0  0  0  0  0
  188.9560  178.1090  148.0520 O   0  0  0  0  0  1  0  0  0  0  0  0
  179.6950  173.4060  136.5330 C   0  0  0  0  0  0  0  0  0  0  0  0
  179.4750  171.7800  136.5870 S   0  0  0  0  0  0  0  0  0  0  0  0
  179.4500  174.0990  135.2360 C   0  0  0  0  0  1  0  0  0  0  0  0
  1  5  2  0  0  0  0
  2 15  1  0  0  0  0
  2 12  1  0  0  0  0
  3 15  1  0  0  0  0
  4 23  1  0  0  0  0
  5  4  1  0  0  0  0
  6  8  1  0  0  0  0
  7  6  2  0  0  0  0
  8  4  2  0  0  0  0
  9  3  2  0  0  0  0
  9 11  1  0  0  0  0
  9 10  1  0  0  0  0
 10  6  1  0  0  0  0
 10  1  1  0  0  0  0
 11  7  1  0  0  0  0
 13 14  1  0  0  0  0
 13 12  1  0  0  0  0
 14 16  1  0  0  0  0
 15 17  2  0  0  0  0
 17  1  1  0  0  0  0
 17 16  1  0  0  0  0
 18 22  1  0  0  0  0
 19 25  1  0  0  0  0
 20 29  1  0  0  0  0
 21 20  1  0  0  0  0
 22 21  2  0  0  0  0
 23 27  1  0  0  0  0
 24 26  1  0  0  0  0
 25 24  2  0  0  0  0
 25 22  1  0  0  0  0
 26 20  2  0  0  0  0
 27 19  2  0  0  0  0
 27 28  1  0  0  0  0
 28 18  2  0  0  0  0
 29 30  2  0  0  0  0
 29 31  1  0  0  0  0
 32 33  2  0  0  0  0
 32 13  1  0  0  0  0
 34 32  1  0  0  0  0
M  END
>  <MODEL>
8

>  <REMARK>
 VINA RESULT:      -8.3      6.303      8.772
  Name = 
  3 active torsions:
  status: ('A' for Active; 'I' for Inactive)
    1  A    between atoms: C_3  and  N_25
    2  A    between atoms: C_7  and  C_11
    3  A    between atoms: C_8  and  N_18
                            x       y       z     vdW  Elec       q    Type
                         _______ _______ _______ _____ _____    ______ ____

>  <TORSDO>
F 3

$$$$
=
 OpenBabel11052415583D

 34 39  0  0  0  0  0  0  0  0999 V2000
  189.4270  176.8770  137.6100 C   0  0  0  0  0  0  0  0  0  0  0  0
  187.0390  177.5440  134.5940 C   0  0  0  0  0  2  0  0  0  0  0  0
  189.4500  176.8040  134.7570 C   0  0  0  0  0  3  0  0  0  0  0  0
  191.0470  176.7440  139.4810 C   0  0  0  0  0  0  0  0  0  0  0  0
  189.6950  177.1000  138.9070 C   0  0  0  0  0  3  0  0  0  0  0  0
  191.7540  176.1140  137.2560 C   0  0  0  0  0  0  0  0  0  0  0  0
  192.5720  176.0050  136.2030 C   0  0  0  0  0  3  0  0  0  0  0  0
  192.0500  176.3070  138.6790 C   0  0  0  0  0  3  0  0  0  0  0  0
  190.5000  176.3730  135.4530 C   0  0  0  0  0  0  0  0  0  0  0  0
  190.4340  176.2740  136.8350 N   0  0  0  0  0  0  0  0  0  0  0  0
  191.7980  176.1200  135.0250 O   0  0  0  0  0  0  0  0  0  0  0  0
  185.7700  178.0720  135.2510 C   0  0  0  0  0  2  0  0  0  0  0  0
  185.2130  177.0690  136.1580 N   0  0  0  0  0  0  0  0  0  0  0  0
  185.8100  176.8820  137.4830 C   0  0  0  0  0  2  0  0  0  0  0  0
  188.2090  177.2160  135.4990 C   0  0  0  0  0  0  0  0  0  0  0  0
  187.0310  177.7710  137.6860 C   0  0  0  0  0  2  0  0  0  0  0  0
  188.1990  177.2830  136.8780 C   0  0  0  0  0  0  0  0  0  0  0  0
  188.1840  176.9360  142.8960 C   0  0  0  0  0  3  0  0  0  0  0  0
  190.8970  177.4020  143.1920 N   0  0  0  0  0  0  0  0  0  0  0  0
  188.3890  177.7650  146.5000 C   0  0  0  0  0  0  0  0  0  0  0  0
  187.8590  177.4110  145.2510 C   0  0  0  0  0  3  0  0  0  0  0  0
  188.6980  177.2900  144.1410 C   0  0  0  0  0  0  0  0  0  0  0  0
  191.3410  176.9410  140.8710 N   0  0  0  0  0  2  0  0  0  0  0  0
  190.6120  177.8730  145.5180 C   0  0  0  0  0  3  0  0  0  0  0  0
  190.0830  177.5210  144.2740 C   0  0  0  0  0  0  0  0  0  0  0  0
  189.7680  177.9930  146.6260 C   0  0  0  0  0  3  0  0  0  0  0  0
  190.4160  177.0660  141.9620 C   0  0  0  0  0  0  0  0  0  0  0  0
  189.0440  176.8220  141.8020 C   0  0  0  0  0  3  0  0  0  0  0  0
  187.5010  177.8920  147.6680 C   0  0  0  0  0  0  0  0  0  0  0  0
  187.9050  177.5630  148.8160 O   0  0  0  0  0  1  0  0  0  0  0  0
  186.2080  178.3770  147.5150 O   0  0  0  0  0  0  0  0  0  0  0  0
  184.1200  176.2270  135.7450 C   0  0  0  0  0  0  0  0  0  0  0  0
  182.5640  176.6150  136.0930 S   0  0  0  0  0  0  0  0  0  0  0  0
  184.3710  174.9650  134.9900 C   0  0  0  0  0  1  0  0  0  0  0  0
  1  5  2  0  0  0  0
  2 12  1  0  0  0  0
  2 15  1  0  0  0  0
  3  9  2  0  0  0  0
  3 15  1  0  0  0  0
  4 23  1  0  0  0  0
  5  4  1  0  0  0  0
  6  8  1  0  0  0  0
  7  6  2  0  0  0  0
  8  4  2  0  0  0  0
  9 10  1  0  0  0  0
 10  6  1  0  0  0  0
 10  1  1  0  0  0  0
 11  9  1  0  0  0  0
 11  7  1  0  0  0  0
 12 13  1  0  0  0  0
 13 14  1  0  0  0  0
 14 16  1  0  0  0  0
 15 17  2  0  0  0  0
 17  1  1  0  0  0  0
 17 16  1  0  0  0  0
 18 22  1  0  0  0  0
 19 25  1  0  0  0  0
 20 26  1  0  0  0  0
 20 29  1  0  0  0  0
 21 20  2  0  0  0  0
 22 25  2  0  0  0  0
 22 21  1  0  0  0  0
 23 27  1  0  0  0  0
 24 26  2  0  0  0  0
 25 24  1  0  0  0  0
 27 19  2  0  0  0  0
 28 27  1  0  0  0  0
 28 18  2  0  0  0  0
 29 30  1  0  0  0  0
 31 29  2  0  0  0  0
 32 33  2  0  0  0  0
 32 13  1  0  0  0  0
 34 32  1  0  0  0  0
M  END
>  <MODEL>
9

>  <REMARK>
 VINA RESULT:      -8.3      3.346      5.433
  Name = 
  3 active torsions:
  status: ('A' for Active; 'I' for Inactive)
    1  A    between atoms: C_3  and  N_25
    2  A    between atoms: C_7  and  C_11
    3  A    between atoms: C_8  and  N_18
                            x       y       z     vdW  Elec       q    Type
                         _______ _______ _______ _____ _____    ______ ____

>  <TORSDO>
F 3

$$$$
