=
 OpenBabel11052416163D

 43 46  0  0  1  0  0  0  0  0999 V2000
  179.9990  178.5600  137.4370 C   0  0  0  0  0  0  0  0  0  0  0  0
  180.6880  177.3260  137.1550 N   0  0  0  0  0  0  0  0  0  0  0  0
  179.0840  178.9390  136.6470 O   0  0  0  0  0  0  0  0  0  0  0  0
  180.3060  179.3460  138.6090 N   0  0  0  0  0  0  0  0  0  0  0  0
  181.1200  178.5780  142.2480 C   0  0  0  0  0  2  0  0  0  0  0  0
  182.6110  178.7320  142.1760 C   0  0  0  0  0  0  0  0  0  0  0  0
  184.7150  179.0210  140.9650 C   0  0  0  0  0  3  0  0  0  0  0  0
  180.3970  179.2690  141.1010 C   0  0  2  0  0  3  0  0  0  0  0  0
  183.3760  178.4640  143.4420 C   0  0  0  0  0  2  0  0  0  0  0  0
  182.5130  179.1350  139.7090 C   0  0  0  0  0  2  0  0  0  0  0  0
  178.9320  178.8840  141.1690 C   0  0  0  0  0  1  0  0  0  0  0  0
  184.7790  178.8660  143.3460 N   0  0  0  0  0  0  0  0  0  0  0  0
  181.0150  178.8160  139.7790 C   0  0  2  0  0  3  0  0  0  0  0  0
  185.4300  179.0090  142.0850 C   0  0  0  0  0  3  0  0  0  0  0  0
  183.2500  178.9050  141.0010 C   0  0  0  0  0  0  0  0  0  0  0  0
  185.5730  178.9200  144.5640 C   0  0  0  0  0  2  0  0  0  0  0  0
  186.3400  177.6230  144.7420 C   0  0  0  0  0  2  0  0  0  0  0  0
  187.7060  177.9050  145.1230 N   0  0  0  0  0  2  0  0  0  0  0  0
  188.5590  177.0980  144.2640 C   0  0  0  0  0  2  0  0  0  0  0  0
  189.5710  177.8360  142.1870 N   0  0  0  0  0  1  0  0  0  0  0  0
  189.6300  177.9590  143.6270 C   0  0  0  0  0  2  0  0  0  0  0  0
  179.6380  173.0270  137.6540 C   0  0  0  0  0  0  0  0  0  0  0  0
  179.6610  174.6330  139.5430 C   0  0  0  0  0  3  0  0  0  0  0  0
  178.9310  173.9780  136.7570 C   0  0  0  0  0  2  0  0  0  0  0  0
  179.9970  171.4190  137.0740 Cl  0  0  0  0  0  0  0  0  0  0  0  0
  180.0490  176.0810  137.5070 C   0  0  0  0  0  0  0  0  0  0  0  0
  179.8970  173.3200  138.9220 C   0  0  0  0  0  3  0  0  0  0  0  0
  179.7130  175.2290  136.5370 C   0  0  0  0  0  3  0  0  0  0  0  0
  179.7220  175.8240  138.9300 C   0  0  0  0  0  3  0  0  0  0  0  0
  179.6780  180.6460  138.7850 C   0  0  0  0  0  2  0  0  0  0  0  0
  179.2950  183.4120  136.2350 C   0  0  0  0  0  2  0  0  0  0  0  0
  180.4880  184.0970  137.3220 S   0  0  0  0  0  0  0  0  0  0  0  0
  181.6960  184.5790  136.5580 O   0  0  0  0  0  0  0  0  0  0  0  0
  182.2680  182.4530  138.2710 C   0  0  0  0  0  1  0  0  0  0  0  0
  178.9400  182.0990  136.9070 C   0  0  0  0  0  2  0  0  0  0  0  0
  180.1410  181.6150  137.7120 C   0  0  1  0  0  3  0  0  0  0  0  0
  179.8870  185.2160  138.1340 O   0  0  0  0  0  0  0  0  0  0  0  0
  180.8390  182.7360  138.3370 N   0  0  0  0  0  0  0  0  0  0  0  0
  182.0980  177.3420  136.7120 C   0  0  2  0  0  3  0  0  0  0  0  0
  182.2650  177.8080  135.3850 O   0  0  0  0  0  0  0  0  0  0  0  0
  183.2940  177.0780  134.7650 C   0  0  0  0  0  1  0  0  0  0  0  0
  182.8140  176.0120  136.9640 C   0  0  0  0  0  2  0  0  0  0  0  0
  183.4290  176.0050  138.3520 C   0  0  0  0  0  1  0  0  0  0  0  0
  1  4  1  0  0  0  0
  2  1  1  0  0  0  0
  2 26  1  0  0  0  0
  3  1  2  0  0  0  0
  4 30  1  0  0  0  0
  6  5  1  0  0  0  0
  6  9  1  0  0  0  0
  7 15  1  0  0  0  0
  7 14  2  0  0  0  0
  8 11  1  6  0  0  0
  8  5  1  0  0  0  0
 10 13  1  0  0  0  0
 10 15  1  0  0  0  0
 12  9  1  0  0  0  0
 12 16  1  0  0  0  0
 13  4  1  6  0  0  0
 13  8  1  0  0  0  0
 14 12  1  0  0  0  0
 15  6  2  0  0  0  0
 16 17  1  0  0  0  0
 17 18  1  0  0  0  0
 19 18  1  0  0  0  0
 20 21  1  0  0  0  0
 21 19  1  0  0  0  0
 22 27  2  0  0  0  0
 24 22  1  0  0  0  0
 25 22  1  0  0  0  0
 26 29  1  0  0  0  0
 27 23  1  0  0  0  0
 28 24  1  0  0  0  0
 28 26  2  0  0  0  0
 29 23  2  0  0  0  0
 31 35  1  0  0  0  0
 31 32  1  0  0  0  0
 32 37  2  0  0  0  0
 32 38  1  0  0  0  0
 33 32  2  0  0  0  0
 34 38  1  0  0  0  0
 35 36  1  0  0  0  0
 36 38  1  0  0  0  0
 36 30  1  1  0  0  0
 39 42  1  6  0  0  0
 39  2  1  0  0  0  0
 40 39  1  0  0  0  0
 41 40  1  0  0  0  0
 42 43  1  0  0  0  0
M  END
>  <MODEL>
1

>  <REMARK>
 VINA RESULT:      -5.4      0.000      0.000
  Name = 
  12 active torsions:
  status: ('A' for Active; 'I' for Inactive)
    1  A    between atoms: C_1  and  N_34
    2  A    between atoms: C_1  and  C_35
    3  A    between atoms: O_2  and  C_27
    4  A    between atoms: C_6  and  C_27
    5  A    between atoms: C_11  and  N_22
    6  A    between atoms: C_11  and  C_36
    7  A    between atoms: C_21  and  N_30
    8  A    between atoms: C_27  and  N_30
    9  A    between atoms: N_29  and  C_31
   10  A    between atoms: N_29  and  C_36
   11  A    between atoms: C_31  and  C_40
   12  A    between atoms: N_34  and  C_38
                            x       y       z     vdW  Elec       q    Type
                         _______ _______ _______ _____ _____    ______ ____

>  <TORSDO>
F 12

$$$$
=
 OpenBabel11052416163D

 43 46  0  0  1  0  0  0  0  0999 V2000
  181.6770  177.6800  136.2470 C   0  0  0  0  0  0  0  0  0  0  0  0
  182.7110  176.6780  136.2090 N   0  0  0  0  0  0  0  0  0  0  0  0
  180.9250  177.8150  135.2360 O   0  0  0  0  0  0  0  0  0  0  0  0
  181.4620  178.5000  137.4170 N   0  0  0  0  0  0  0  0  0  0  0  0
  181.5130  177.9580  141.1840 C   0  0  0  0  0  2  0  0  0  0  0  0
  182.8980  178.4640  141.4600 C   0  0  0  0  0  0  0  0  0  0  0  0
  185.1090  179.2460  140.7690 C   0  0  0  0  0  3  0  0  0  0  0  0
  180.9540  178.4520  139.8580 C   0  0  2  0  0  3  0  0  0  0  0  0
  183.3700  178.3900  142.8860 C   0  0  0  0  0  2  0  0  0  0  0  0
  183.3180  178.8260  139.0200 C   0  0  0  0  0  2  0  0  0  0  0  0
  179.6470  177.7280  139.6000 C   0  0  0  0  0  1  0  0  0  0  0  0
  184.6210  179.1170  143.1010 N   0  0  0  0  0  0  0  0  0  0  0  0
  181.9650  178.1580  138.7520 C   0  0  2  0  0  3  0  0  0  0  0  0
  185.5100  179.4090  142.0250 C   0  0  0  0  0  3  0  0  0  0  0  0
  183.7470  178.7830  140.4620 C   0  0  0  0  0  0  0  0  0  0  0  0
  185.0560  179.3620  144.4670 C   0  0  0  0  0  2  0  0  0  0  0  0
  185.5140  178.0640  145.1080 C   0  0  0  0  0  2  0  0  0  0  0  0
  186.9230  178.1400  145.4260 N   0  0  0  0  0  2  0  0  0  0  0  0
  187.0240  178.2280  146.8740 C   0  0  0  0  0  2  0  0  0  0  0  0
  189.3350  177.5020  146.7700 N   0  0  0  0  0  1  0  0  0  0  0  0
  188.0540  177.2450  147.3900 C   0  0  0  0  0  2  0  0  0  0  0  0
  180.5000  172.8750  136.9040 C   0  0  0  0  0  0  0  0  0  0  0  0
  182.3440  173.0760  135.2580 C   0  0  0  0  0  3  0  0  0  0  0  0
  181.2480  173.6280  137.9450 C   0  0  0  0  0  2  0  0  0  0  0  0
  178.9310  172.2150  137.2950 Cl  0  0  0  0  0  0  0  0  0  0  0  0
  182.3510  175.3020  136.4560 C   0  0  0  0  0  0  0  0  0  0  0  0
  181.0400  172.5820  135.7280 C   0  0  0  0  0  3  0  0  0  0  0  0
  181.5780  175.0140  137.5060 C   0  0  0  0  0  3  0  0  0  0  0  0
  182.9110  174.2480  135.5770 C   0  0  0  0  0  3  0  0  0  0  0  0
  180.4930  179.5830  137.3640 C   0  0  0  0  0  2  0  0  0  0  0  0
  180.7580  182.7110  135.2540 C   0  0  0  0  0  2  0  0  0  0  0  0
  180.8240  183.3730  136.8750 S   0  0  0  0  0  0  0  0  0  0  0  0
  182.0170  184.2810  137.0350 O   0  0  0  0  0  0  0  0  0  0  0  0
  182.1640  181.9990  138.6330 C   0  0  0  0  0  1  0  0  0  0  0  0
  180.5310  181.2310  135.5010 C   0  0  0  0  0  2  0  0  0  0  0  0
  181.1400  180.8560  136.8480 C   0  0  1  0  0  3  0  0  0  0  0  0
  179.5470  184.1040  137.2040 O   0  0  0  0  0  0  0  0  0  0  0  0
  180.9530  181.9280  137.8240 N   0  0  0  0  0  0  0  0  0  0  0  0
  184.1330  177.0740  136.1290 C   0  0  2  0  0  3  0  0  0  0  0  0
  184.7500  176.7090  134.9080 O   0  0  0  0  0  0  0  0  0  0  0  0
  185.7570  177.6420  134.6030 C   0  0  0  0  0  1  0  0  0  0  0  0
  184.9410  176.6330  137.3530 C   0  0  0  0  0  2  0  0  0  0  0  0
  186.0260  175.6550  136.9370 C   0  0  0  0  0  1  0  0  0  0  0  0
  1  4  1  0  0  0  0
  2  1  1  0  0  0  0
  2 26  1  0  0  0  0
  3  1  2  0  0  0  0
  5  6  1  0  0  0  0
  6  9  1  0  0  0  0
  7 14  2  0  0  0  0
  8 11  1  6  0  0  0
  8  5  1  0  0  0  0
  9 12  1  0  0  0  0
 10 15  1  0  0  0  0
 12 16  1  0  0  0  0
 13  4  1  6  0  0  0
 13 10  1  0  0  0  0
 13  8  1  0  0  0  0
 14 12  1  0  0  0  0
 15  7  1  0  0  0  0
 15  6  2  0  0  0  0
 16 17  1  0  0  0  0
 17 18  1  0  0  0  0
 18 19  1  0  0  0  0
 19 21  1  0  0  0  0
 20 21  1  0  0  0  0
 22 25  1  0  0  0  0
 22 24  1  0  0  0  0
 23 29  2  0  0  0  0
 23 27  1  0  0  0  0
 26 28  2  0  0  0  0
 27 22  2  0  0  0  0
 28 24  1  0  0  0  0
 29 26  1  0  0  0  0
 30  4  1  0  0  0  0
 31 35  1  0  0  0  0
 31 32  1  0  0  0  0
 32 33  2  0  0  0  0
 32 37  2  0  0  0  0
 32 38  1  0  0  0  0
 35 36  1  0  0  0  0
 36 30  1  1  0  0  0
 36 38  1  0  0  0  0
 38 34  1  0  0  0  0
 39  2  1  0  0  0  0
 39 42  1  1  0  0  0
 40 39  1  0  0  0  0
 41 40  1  0  0  0  0
 43 42  1  0  0  0  0
M  END
>  <MODEL>
2

>  <REMARK>
 VINA RESULT:      -5.0      1.736      2.280
  Name = 
  12 active torsions:
  status: ('A' for Active; 'I' for Inactive)
    1  A    between atoms: C_1  and  N_34
    2  A    between atoms: C_1  and  C_35
    3  A    between atoms: O_2  and  C_27
    4  A    between atoms: C_6  and  C_27
    5  A    between atoms: C_11  and  N_22
    6  A    between atoms: C_11  and  C_36
    7  A    between atoms: C_21  and  N_30
    8  A    between atoms: C_27  and  N_30
    9  A    between atoms: N_29  and  C_31
   10  A    between atoms: N_29  and  C_36
   11  A    between atoms: C_31  and  C_40
   12  A    between atoms: N_34  and  C_38
                            x       y       z     vdW  Elec       q    Type
                         _______ _______ _______ _____ _____    ______ ____

>  <TORSDO>
F 12

$$$$
=
 OpenBabel11052416163D

 43 46  0  0  1  0  0  0  0  0999 V2000
  183.8250  177.6150  137.1440 C   0  0  0  0  0  0  0  0  0  0  0  0
  184.4950  176.4980  136.5290 N   0  0  0  0  0  0  0  0  0  0  0  0
  182.6660  177.9270  136.7370 O   0  0  0  0  0  0  0  0  0  0  0  0
  184.4290  178.3560  138.2270 N   0  0  0  0  0  0  0  0  0  0  0  0
  186.7910  177.9340  141.1830 C   0  0  0  0  0  2  0  0  0  0  0  0
  188.0650  177.7290  140.4180 C   0  0  0  0  0  0  0  0  0  0  0  0
  189.3360  177.3560  138.3630 C   0  0  0  0  0  3  0  0  0  0  0  0
  185.7040  178.6060  140.3560 C   0  0  2  0  0  3  0  0  0  0  0  0
  189.3030  177.4700  141.2310 C   0  0  0  0  0  2  0  0  0  0  0  0
  186.8400  177.7970  138.2370 C   0  0  0  0  0  2  0  0  0  0  0  0
  184.4190  178.5830  141.1610 C   0  0  0  0  0  1  0  0  0  0  0  0
  190.5230  177.5210  140.4260 N   0  0  0  0  0  0  0  0  0  0  0  0
  185.5360  177.8440  139.0420 C   0  0  2  0  0  3  0  0  0  0  0  0
  190.4950  177.3340  139.0130 C   0  0  0  0  0  3  0  0  0  0  0  0
  188.0710  177.5860  139.0770 C   0  0  0  0  0  0  0  0  0  0  0  0
  191.8070  177.5590  141.1110 C   0  0  0  0  0  2  0  0  0  0  0  0
  191.6120  177.3000  142.5930 C   0  0  0  0  0  2  0  0  0  0  0  0
  191.7540  178.5350  143.3330 N   0  0  0  0  0  2  0  0  0  0  0  0
  190.6360  178.6020  144.2610 C   0  0  0  0  0  2  0  0  0  0  0  0
  189.6040  177.3710  146.0770 N   0  0  0  0  0  1  0  0  0  0  0  0
  190.3600  177.2360  144.8520 C   0  0  0  0  0  2  0  0  0  0  0  0
  183.1470  172.2550  136.6440 C   0  0  0  0  0  0  0  0  0  0  0  0
  185.2450  173.0280  137.7170 C   0  0  0  0  0  3  0  0  0  0  0  0
  182.3690  173.4100  137.1620 C   0  0  0  0  0  2  0  0  0  0  0  0
  182.3230  171.0190  135.7240 Cl  0  0  0  0  0  0  0  0  0  0  0  0
  184.1340  175.1630  136.9410 C   0  0  0  0  0  0  0  0  0  0  0  0
  184.4220  172.0700  136.9620 C   0  0  0  0  0  3  0  0  0  0  0  0
  182.9060  174.7130  136.6740 C   0  0  0  0  0  3  0  0  0  0  0  0
  185.1160  174.3630  137.7110 C   0  0  0  0  0  3  0  0  0  0  0  0
  183.7740  179.5530  138.7300 C   0  0  0  0  0  2  0  0  0  0  0  0
  180.3320  178.8150  140.1130 C   0  0  0  0  0  2  0  0  0  0  0  0
  180.1470  180.4730  139.5740 S   0  0  0  0  0  0  0  0  0  0  0  0
  178.9390  180.6150  138.6820 O   0  0  0  0  0  0  0  0  0  0  0  0
  181.3400  181.1060  137.3500 C   0  0  0  0  0  1  0  0  0  0  0  0
  181.7990  178.5340  139.8470 C   0  0  0  0  0  2  0  0  0  0  0  0
  182.2640  179.3990  138.6800 C   0  0  1  0  0  3  0  0  0  0  0  0
  180.0550  181.4080  140.7520 O   0  0  0  0  0  0  0  0  0  0  0  0
  181.6380  180.7180  138.7230 N   0  0  0  0  0  0  0  0  0  0  0  0
  185.6680  176.7190  135.6570 C   0  0  2  0  0  3  0  0  0  0  0  0
  185.6590  177.9790  135.0120 O   0  0  0  0  0  0  0  0  0  0  0  0
  186.9790  178.3440  134.6910 C   0  0  0  0  0  1  0  0  0  0  0  0
  185.9100  175.5610  134.6840 C   0  0  0  0  0  2  0  0  0  0  0  0
  187.2460  174.9020  134.9780 C   0  0  0  0  0  1  0  0  0  0  0  0
  1  4  1  0  0  0  0
  2 26  1  0  0  0  0
  2  1  1  0  0  0  0
  3  1  2  0  0  0  0
  4 30  1  0  0  0  0
  6  5  1  0  0  0  0
  6  9  1  0  0  0  0
  7 14  2  0  0  0  0
  7 15  1  0  0  0  0
  8 11  1  1  0  0  0
  8  5  1  0  0  0  0
 10 13  1  0  0  0  0
 10 15  1  0  0  0  0
 12 16  1  0  0  0  0
 12  9  1  0  0  0  0
 13  4  1  6  0  0  0
 13  8  1  0  0  0  0
 14 12  1  0  0  0  0
 15  6  2  0  0  0  0
 16 17  1  0  0  0  0
 17 18  1  0  0  0  0
 18 19  1  0  0  0  0
 19 21  1  0  0  0  0
 21 20  1  0  0  0  0
 22 27  2  0  0  0  0
 22 24  1  0  0  0  0
 25 22  1  0  0  0  0
 26 29  1  0  0  0  0
 27 23  1  0  0  0  0
 28 26  2  0  0  0  0
 28 24  1  0  0  0  0
 29 23  2  0  0  0  0
 32 31  1  0  0  0  0
 32 37  2  0  0  0  0
 33 32  2  0  0  0  0
 34 38  1  0  0  0  0
 35 31  1  0  0  0  0
 36 38  1  0  0  0  0
 36 30  1  1  0  0  0
 36 35  1  0  0  0  0
 38 32  1  0  0  0  0
 39 42  1  6  0  0  0
 39  2  1  0  0  0  0
 40 39  1  0  0  0  0
 41 40  1  0  0  0  0
 42 43  1  0  0  0  0
M  END
>  <MODEL>
3

>  <REMARK>
 VINA RESULT:      -3.4      2.945      4.720
  Name = 
  12 active torsions:
  status: ('A' for Active; 'I' for Inactive)
    1  A    between atoms: C_1  and  N_34
    2  A    between atoms: C_1  and  C_35
    3  A    between atoms: O_2  and  C_27
    4  A    between atoms: C_6  and  C_27
    5  A    between atoms: C_11  and  N_22
    6  A    between atoms: C_11  and  C_36
    7  A    between atoms: C_21  and  N_30
    8  A    between atoms: C_27  and  N_30
    9  A    between atoms: N_29  and  C_31
   10  A    between atoms: N_29  and  C_36
   11  A    between atoms: C_31  and  C_40
   12  A    between atoms: N_34  and  C_38
                            x       y       z     vdW  Elec       q    Type
                         _______ _______ _______ _____ _____    ______ ____

>  <TORSDO>
F 12

$$$$
=
 OpenBabel11052416163D

 43 46  0  0  1  0  0  0  0  0999 V2000
  183.4570  178.2130  137.6210 C   0  0  0  0  0  0  0  0  0  0  0  0
  184.0810  176.9730  137.2360 N   0  0  0  0  0  0  0  0  0  0  0  0
  182.5160  178.6680  136.9030 O   0  0  0  0  0  0  0  0  0  0  0  0
  183.8550  178.9210  138.8160 N   0  0  0  0  0  0  0  0  0  0  0  0
  184.7910  177.8660  142.3520 C   0  0  0  0  0  2  0  0  0  0  0  0
  186.2780  178.0320  142.2440 C   0  0  0  0  0  0  0  0  0  0  0  0
  188.3400  178.4270  140.9920 C   0  0  0  0  0  3  0  0  0  0  0  0
  184.0290  178.6440  141.2880 C   0  0  2  0  0  3  0  0  0  0  0  0
  187.0850  177.6660  143.4580 C   0  0  0  0  0  2  0  0  0  0  0  0
  186.0980  178.6310  139.8210 C   0  0  0  0  0  2  0  0  0  0  0  0
  182.5670  178.2480  141.3740 C   0  0  0  0  0  1  0  0  0  0  0  0
  188.4830  178.0800  143.3480 N   0  0  0  0  0  0  0  0  0  0  0  0
  184.6030  178.3010  139.9150 C   0  0  2  0  0  3  0  0  0  0  0  0
  189.0920  178.3270  142.0820 C   0  0  0  0  0  3  0  0  0  0  0  0
  186.8770  178.3020  141.0660 C   0  0  0  0  0  0  0  0  0  0  0  0
  189.3170  178.0390  144.5400 C   0  0  0  0  0  2  0  0  0  0  0  0
  188.4530  177.8340  145.7710 C   0  0  0  0  0  2  0  0  0  0  0  0
  188.9890  176.7590  146.5760 N   0  0  0  0  0  2  0  0  0  0  0  0
  190.4310  176.7680  146.3870 C   0  0  0  0  0  2  0  0  0  0  0  0
  192.3380  176.3280  147.8190 N   0  0  0  0  0  1  0  0  0  0  0  0
  191.1300  177.1120  147.6850 C   0  0  0  0  0  2  0  0  0  0  0  0
  181.3020  173.4950  137.3430 C   0  0  0  0  0  0  0  0  0  0  0  0
  183.7690  173.2440  137.3050 C   0  0  0  0  0  3  0  0  0  0  0  0
  181.3540  174.5750  138.3630 C   0  0  0  0  0  2  0  0  0  0  0  0
  179.7480  172.9230  136.7890 Cl  0  0  0  0  0  0  0  0  0  0  0  0
  183.4140  175.7340  137.5550 C   0  0  0  0  0  0  0  0  0  0  0  0
  182.3970  172.8660  136.9330 C   0  0  0  0  0  3  0  0  0  0  0  0
  182.1200  175.7620  137.8840 C   0  0  0  0  0  3  0  0  0  0  0  0
  184.2060  174.4810  137.5780 C   0  0  0  0  0  3  0  0  0  0  0  0
  183.2870  180.2300  139.0950 C   0  0  0  0  0  2  0  0  0  0  0  0
  179.5280  179.8330  138.9880 C   0  0  0  0  0  2  0  0  0  0  0  0
  179.7030  181.5720  138.8520 S   0  0  0  0  0  0  0  0  0  0  0  0
  178.9310  182.0970  137.6670 O   0  0  0  0  0  0  0  0  0  0  0  0
  181.6890  182.4250  137.4020 C   0  0  0  0  0  1  0  0  0  0  0  0
  180.9580  179.3630  139.1780 C   0  0  0  0  0  2  0  0  0  0  0  0
  181.8980  180.3510  138.4960 C   0  0  1  0  0  3  0  0  0  0  0  0
  179.2610  182.2530  140.1220 O   0  0  0  0  0  0  0  0  0  0  0  0
  181.4180  181.7230  138.6510 N   0  0  0  0  0  0  0  0  0  0  0  0
  185.4660  176.9630  136.7190 C   0  0  2  0  0  3  0  0  0  0  0  0
  186.2340  178.0720  137.1500 O   0  0  0  0  0  0  0  0  0  0  0  0
  187.5900  177.7010  137.2060 C   0  0  0  0  0  1  0  0  0  0  0  0
  185.5320  176.7560  135.2030 C   0  0  0  0  0  2  0  0  0  0  0  0
  184.1370  176.5400  134.6440 C   0  0  0  0  0  1  0  0  0  0  0  0
  1  4  1  0  0  0  0
  2 26  1  0  0  0  0
  2  1  1  0  0  0  0
  3  1  2  0  0  0  0
  4 30  1  0  0  0  0
  6  5  1  0  0  0  0
  6  9  1  0  0  0  0
  7 15  1  0  0  0  0
  7 14  2  0  0  0  0
  8 11  1  6  0  0  0
  8  5  1  0  0  0  0
 10 13  1  0  0  0  0
 10 15  1  0  0  0  0
 12  9  1  0  0  0  0
 12 16  1  0  0  0  0
 13  4  1  6  0  0  0
 13  8  1  0  0  0  0
 14 12  1  0  0  0  0
 15  6  2  0  0  0  0
 16 17  1  0  0  0  0
 17 18  1  0  0  0  0
 19 18  1  0  0  0  0
 19 21  1  0  0  0  0
 21 20  1  0  0  0  0
 22 24  1  0  0  0  0
 23 29  2  0  0  0  0
 25 22  1  0  0  0  0
 26 29  1  0  0  0  0
 26 28  2  0  0  0  0
 27 23  1  0  0  0  0
 27 22  2  0  0  0  0
 28 24  1  0  0  0  0
 31 35  1  0  0  0  0
 32 31  1  0  0  0  0
 32 37  2  0  0  0  0
 33 32  2  0  0  0  0
 34 38  1  0  0  0  0
 36 38  1  0  0  0  0
 36 30  1  1  0  0  0
 36 35  1  0  0  0  0
 38 32  1  0  0  0  0
 39 42  1  6  0  0  0
 39 40  1  0  0  0  0
 39  2  1  0  0  0  0
 40 41  1  0  0  0  0
 43 42  1  0  0  0  0
M  END
>  <MODEL>
4

>  <REMARK>
 VINA RESULT:      -3.3      2.444      3.617
  Name = 
  12 active torsions:
  status: ('A' for Active; 'I' for Inactive)
    1  A    between atoms: C_1  and  N_34
    2  A    between atoms: C_1  and  C_35
    3  A    between atoms: O_2  and  C_27
    4  A    between atoms: C_6  and  C_27
    5  A    between atoms: C_11  and  N_22
    6  A    between atoms: C_11  and  C_36
    7  A    between atoms: C_21  and  N_30
    8  A    between atoms: C_27  and  N_30
    9  A    between atoms: N_29  and  C_31
   10  A    between atoms: N_29  and  C_36
   11  A    between atoms: C_31  and  C_40
   12  A    between atoms: N_34  and  C_38
                            x       y       z     vdW  Elec       q    Type
                         _______ _______ _______ _____ _____    ______ ____

>  <TORSDO>
F 12

$$$$
=
 OpenBabel11052416163D

 43 46  0  0  1  0  0  0  0  0999 V2000
  183.8460  179.3960  138.9820 C   0  0  0  0  0  0  0  0  0  0  0  0
  184.6570  178.6750  139.9290 N   0  0  0  0  0  0  0  0  0  0  0  0
  184.0490  180.6380  138.8320 O   0  0  0  0  0  0  0  0  0  0  0  0
  182.8410  178.7310  138.1860 N   0  0  0  0  0  0  0  0  0  0  0  0
  182.9750  175.3900  136.3660 C   0  0  0  0  0  2  0  0  0  0  0  0
  181.8890  174.6850  137.1220 C   0  0  0  0  0  0  0  0  0  0  0  0
  180.2760  174.4970  138.9490 C   0  0  0  0  0  3  0  0  0  0  0  0
  182.8960  176.9050  136.4880 C   0  0  2  0  0  3  0  0  0  0  0  0
  181.6230  173.2550  136.7400 C   0  0  0  0  0  2  0  0  0  0  0  0
  181.5920  176.6450  138.6480 C   0  0  0  0  0  2  0  0  0  0  0  0
  184.1410  177.4940  135.8540 C   0  0  0  0  0  1  0  0  0  0  0  0
  180.4040  172.7280  137.3530 N   0  0  0  0  0  0  0  0  0  0  0  0
  182.8090  177.2810  137.9660 C   0  0  2  0  0  3  0  0  0  0  0  0
  179.8450  173.3130  138.5270 C   0  0  0  0  0  3  0  0  0  0  0  0
  181.3160  175.2310  138.2150 C   0  0  0  0  0  0  0  0  0  0  0  0
  179.8740  171.4620  136.8700 C   0  0  0  0  0  2  0  0  0  0  0  0
  180.4320  171.1570  135.4920 C   0  0  0  0  0  2  0  0  0  0  0  0
  180.7240  169.7450  135.3790 N   0  0  0  0  0  2  0  0  0  0  0  0
  181.9430  169.6280  134.5940 C   0  0  0  0  0  2  0  0  0  0  0  0
  183.8800  170.9950  135.1050 N   0  0  0  0  0  1  0  0  0  0  0  0
  183.1580  169.7990  135.4810 C   0  0  0  0  0  2  0  0  0  0  0  0
  188.5550  178.1990  137.8270 C   0  0  0  0  0  0  0  0  0  0  0  0
  188.3850  178.6220  140.2650 C   0  0  0  0  0  3  0  0  0  0  0  0
  187.4720  177.1820  137.8530 C   0  0  0  0  0  2  0  0  0  0  0  0
  189.3870  178.5170  136.3240 Cl  0  0  0  0  0  0  0  0  0  0  0  0
  185.9890  178.2770  139.5380 C   0  0  0  0  0  0  0  0  0  0  0  0
  188.9930  178.7850  138.9350 C   0  0  0  0  0  3  0  0  0  0  0  0
  186.1770  177.7530  138.3240 C   0  0  0  0  0  3  0  0  0  0  0  0
  187.0890  178.3980  140.5240 C   0  0  0  0  0  3  0  0  0  0  0  0
  181.9610  179.5190  137.3390 C   0  0  0  0  0  2  0  0  0  0  0  0
  179.2300  179.2060  139.9360 C   0  0  0  0  0  2  0  0  0  0  0  0
  180.0020  180.7060  140.4160 S   0  0  0  0  0  0  0  0  0  0  0  0
  178.9850  181.8090  140.5640 O   0  0  0  0  0  0  0  0  0  0  0  0
  180.7920  182.2670  138.4890 C   0  0  0  0  0  1  0  0  0  0  0  0
  180.0960  178.7320  138.7840 C   0  0  0  0  0  2  0  0  0  0  0  0
  180.7210  179.9460  138.1040 C   0  0  1  0  0  3  0  0  0  0  0  0
  180.7800  180.5190  141.6930 O   0  0  0  0  0  0  0  0  0  0  0  0
  181.0820  180.9680  139.0850 N   0  0  0  0  0  0  0  0  0  0  0  0
  184.0670  178.1700  141.1870 C   0  0  2  0  0  3  0  0  0  0  0  0
  182.7410  178.6150  141.4030 O   0  0  0  0  0  0  0  0  0  0  0  0
  181.8910  177.5000  141.5090 C   0  0  0  0  0  1  0  0  0  0  0  0
  184.9710  178.4020  142.4010 C   0  0  0  0  0  2  0  0  0  0  0  0
  184.2500  179.2490  143.4350 C   0  0  0  0  0  1  0  0  0  0  0  0
  1  2  1  0  0  0  0
  2 39  1  0  0  0  0
  3  1  2  0  0  0  0
  4  1  1  0  0  0  0
  5  8  1  0  0  0  0
  5  6  1  0  0  0  0
  6 15  2  0  0  0  0
  8 11  1  1  0  0  0
  8 13  1  0  0  0  0
  9  6  1  0  0  0  0
  9 12  1  0  0  0  0
 12 14  1  0  0  0  0
 13  4  1  6  0  0  0
 13 10  1  0  0  0  0
 14  7  2  0  0  0  0
 15 10  1  0  0  0  0
 15  7  1  0  0  0  0
 16 12  1  0  0  0  0
 17 16  1  0  0  0  0
 18 17  1  0  0  0  0
 19 18  1  0  0  0  0
 19 21  1  0  0  0  0
 20 21  1  0  0  0  0
 22 24  1  0  0  0  0
 22 27  2  0  0  0  0
 23 29  2  0  0  0  0
 24 28  1  0  0  0  0
 25 22  1  0  0  0  0
 26  2  1  0  0  0  0
 26 29  1  0  0  0  0
 27 23  1  0  0  0  0
 28 26  2  0  0  0  0
 30  4  1  0  0  0  0
 31 32  1  0  0  0  0
 32 33  2  0  0  0  0
 32 37  2  0  0  0  0
 34 38  1  0  0  0  0
 35 31  1  0  0  0  0
 36 30  1  1  0  0  0
 36 35  1  0  0  0  0
 36 38  1  0  0  0  0
 38 32  1  0  0  0  0
 39 40  1  0  0  0  0
 39 42  1  1  0  0  0
 40 41  1  0  0  0  0
 42 43  1  0  0  0  0
M  END
>  <MODEL>
5

>  <REMARK>
 VINA RESULT:      -2.9      3.834      7.843
  Name = 
  12 active torsions:
  status: ('A' for Active; 'I' for Inactive)
    1  A    between atoms: C_1  and  N_34
    2  A    between atoms: C_1  and  C_35
    3  A    between atoms: O_2  and  C_27
    4  A    between atoms: C_6  and  C_27
    5  A    between atoms: C_11  and  N_22
    6  A    between atoms: C_11  and  C_36
    7  A    between atoms: C_21  and  N_30
    8  A    between atoms: C_27  and  N_30
    9  A    between atoms: N_29  and  C_31
   10  A    between atoms: N_29  and  C_36
   11  A    between atoms: C_31  and  C_40
   12  A    between atoms: N_34  and  C_38
                            x       y       z     vdW  Elec       q    Type
                         _______ _______ _______ _____ _____    ______ ____

>  <TORSDO>
F 12

$$$$
=
 OpenBabel11052416163D

 43 46  0  0  1  0  0  0  0  0999 V2000
  184.6820  177.9170  137.7050 C   0  0  0  0  0  0  0  0  0  0  0  0
  185.5100  176.8590  137.1840 N   0  0  0  0  0  0  0  0  0  0  0  0
  183.6460  178.2510  137.0570 O   0  0  0  0  0  0  0  0  0  0  0  0
  184.9910  178.5720  138.9550 N   0  0  0  0  0  0  0  0  0  0  0  0
  186.5460  177.8770  142.3590 C   0  0  0  0  0  2  0  0  0  0  0  0
  187.9830  177.8130  141.9350 C   0  0  0  0  0  0  0  0  0  0  0  0
  189.7570  177.7410  140.2540 C   0  0  0  0  0  3  0  0  0  0  0  0
  185.6630  178.6060  141.3560 C   0  0  2  0  0  3  0  0  0  0  0  0
  188.9880  177.5020  143.0090 C   0  0  0  0  0  2  0  0  0  0  0  0
  187.3520  178.1040  139.5320 C   0  0  0  0  0  2  0  0  0  0  0  0
  184.2200  178.4370  141.7910 C   0  0  0  0  0  1  0  0  0  0  0  0
  190.3670  177.6950  142.5610 N   0  0  0  0  0  0  0  0  0  0  0  0
  185.8860  178.0050  139.9690 C   0  0  2  0  0  3  0  0  0  0  0  0
  190.7110  177.6820  141.1770 C   0  0  0  0  0  3  0  0  0  0  0  0
  188.3400  177.8360  140.6340 C   0  0  0  0  0  0  0  0  0  0  0  0
  191.4280  177.6960  143.5560 C   0  0  0  0  0  2  0  0  0  0  0  0
  190.8420  177.9050  144.9400 C   0  0  0  0  0  2  0  0  0  0  0  0
  191.5800  177.1280  145.9110 N   0  0  0  0  0  2  0  0  0  0  0  0
  190.6380  176.7500  146.9530 C   0  0  0  0  0  2  0  0  0  0  0  0
  188.3420  176.9950  147.6920 N   0  0  0  0  0  1  0  0  0  0  0  0
  189.3530  177.5370  146.8110 C   0  0  0  0  0  2  0  0  0  0  0  0
  183.6310  172.8360  136.8310 C   0  0  0  0  0  0  0  0  0  0  0  0
  186.0540  173.1550  137.2490 C   0  0  0  0  0  3  0  0  0  0  0  0
  183.2470  173.8710  137.8260 C   0  0  0  0  0  2  0  0  0  0  0  0
  182.3760  171.9410  136.0090 Cl  0  0  0  0  0  0  0  0  0  0  0  0
  185.0980  175.4910  137.3940 C   0  0  0  0  0  0  0  0  0  0  0  0
  184.8960  172.4860  136.6370 C   0  0  0  0  0  3  0  0  0  0  0  0
  183.7950  175.2140  137.4790 C   0  0  0  0  0  3  0  0  0  0  0  0
  186.1380  174.4520  137.5800 C   0  0  0  0  0  3  0  0  0  0  0  0
  184.2020  179.7190  139.3760 C   0  0  0  0  0  2  0  0  0  0  0  0
  180.6430  178.5420  139.8760 C   0  0  0  0  0  2  0  0  0  0  0  0
  180.4230  180.2750  139.7180 S   0  0  0  0  0  0  0  0  0  0  0  0
  179.3800  180.5900  138.6750 O   0  0  0  0  0  0  0  0  0  0  0  0
  181.9290  181.4780  137.9700 C   0  0  0  0  0  1  0  0  0  0  0  0
  182.1510  178.3870  139.8310 C   0  0  0  0  0  2  0  0  0  0  0  0
  182.7410  179.5290  139.0090 C   0  0  1  0  0  3  0  0  0  0  0  0
  180.0540  180.8870  141.0460 O   0  0  0  0  0  0  0  0  0  0  0  0
  182.0140  180.7740  139.2440 N   0  0  0  0  0  0  0  0  0  0  0  0
  186.8500  177.1580  136.6370 C   0  0  2  0  0  3  0  0  0  0  0  0
  187.9050  176.5910  137.3930 O   0  0  0  0  0  0  0  0  0  0  0  0
  188.8030  175.9490  136.5230 C   0  0  0  0  0  1  0  0  0  0  0  0
  187.0590  178.6510  136.3630 C   0  0  0  0  0  2  0  0  0  0  0  0
  188.4460  179.0750  136.8120 C   0  0  0  0  0  1  0  0  0  0  0  0
  1  4  1  0  0  0  0
  2 26  1  0  0  0  0
  2  1  1  0  0  0  0
  3  1  2  0  0  0  0
  4 30  1  0  0  0  0
  6  5  1  0  0  0  0
  6  9  1  0  0  0  0
  7 15  1  0  0  0  0
  7 14  2  0  0  0  0
  8 11  1  1  0  0  0
  8  5  1  0  0  0  0
 10 13  1  0  0  0  0
 10 15  1  0  0  0  0
 12  9  1  0  0  0  0
 12 16  1  0  0  0  0
 13  4  1  6  0  0  0
 13  8  1  0  0  0  0
 14 12  1  0  0  0  0
 15  6  2  0  0  0  0
 16 17  1  0  0  0  0
 17 18  1  0  0  0  0
 18 19  1  0  0  0  0
 21 19  1  0  0  0  0
 21 20  1  0  0  0  0
 22 24  1  0  0  0  0
 23 29  2  0  0  0  0
 25 22  1  0  0  0  0
 26 28  2  0  0  0  0
 26 29  1  0  0  0  0
 27 22  2  0  0  0  0
 27 23  1  0  0  0  0
 28 24  1  0  0  0  0
 32 31  1  0  0  0  0
 32 37  2  0  0  0  0
 33 32  2  0  0  0  0
 34 38  1  0  0  0  0
 35 31  1  0  0  0  0
 36 38  1  0  0  0  0
 36 30  1  1  0  0  0
 36 35  1  0  0  0  0
 38 32  1  0  0  0  0
 39 42  1  1  0  0  0
 39  2  1  0  0  0  0
 39 40  1  0  0  0  0
 41 40  1  0  0  0  0
 42 43  1  0  0  0  0
M  END
>  <MODEL>
6

>  <REMARK>
 VINA RESULT:      -2.5      3.155      5.032
  Name = 
  12 active torsions:
  status: ('A' for Active; 'I' for Inactive)
    1  A    between atoms: C_1  and  N_34
    2  A    between atoms: C_1  and  C_35
    3  A    between atoms: O_2  and  C_27
    4  A    between atoms: C_6  and  C_27
    5  A    between atoms: C_11  and  N_22
    6  A    between atoms: C_11  and  C_36
    7  A    between atoms: C_21  and  N_30
    8  A    between atoms: C_27  and  N_30
    9  A    between atoms: N_29  and  C_31
   10  A    between atoms: N_29  and  C_36
   11  A    between atoms: C_31  and  C_40
   12  A    between atoms: N_34  and  C_38
                            x       y       z     vdW  Elec       q    Type
                         _______ _______ _______ _____ _____    ______ ____

>  <TORSDO>
F 12

$$$$
