=
 OpenBabel11052415193D

 37 43  0  0  1  0  0  0  0  0999 V2000
  180.9880  177.9160  138.7940 C   0  0  2  0  0  3  0  0  0  0  0  0
  183.9090  178.8860  140.0370 C   0  0  1  0  0  0  0  0  0  0  0  0
  183.7870  175.6860  137.6640 C   0  0  2  0  0  3  0  0  0  0  0  0
  180.9380  179.4320  138.4900 C   0  0  1  0  0  3  0  0  0  0  0  0
  180.9260  174.8800  135.8680 C   0  0  0  0  0  2  0  0  0  0  0  0
  185.4760  178.4730  138.0730 C   0  0  0  0  0  2  0  0  0  0  0  0
  179.6270  175.4640  137.8570 O   0  0  0  0  0  1  0  0  0  0  0  0
  181.5830  179.8760  137.3040 O   0  0  0  0  0  0  0  0  0  0  0  0
  183.6770  176.6890  138.7770 C   0  0  1  0  0  3  0  0  0  0  0  0
  183.1630  174.9700  134.7940 C   0  0  0  0  0  2  0  0  0  0  0  0
  186.5130  177.5620  137.4530 C   0  0  0  0  0  2  0  0  0  0  0  0
  181.1030  179.1790  135.0290 C   0  0  0  0  0  2  0  0  0  0  0  0
  181.5110  177.5810  140.2060 C   0  0  0  0  0  2  0  0  0  0  0  0
  183.5790  179.9870  139.2460 O   0  0  0  0  0  1  0  0  0  0  0  0
  185.3100  174.1820  136.3680 C   0  0  0  0  0  2  0  0  0  0  0  0
  185.8600  176.6630  136.4260 C   0  0  0  0  0  2  0  0  0  0  0  0
  182.6380  178.4520  140.8290 C   0  0  0  0  0  2  0  0  0  0  0  0
  181.3140  177.6780  135.2690 C   0  0  0  0  0  2  0  0  0  0  0  0
  180.7400  175.8020  137.0880 C   0  0  1  0  0  0  0  0  0  0  0  0
  185.2120  175.4930  137.1460 C   0  0  1  0  0  3  0  0  0  0  0  0
  181.5370  177.0130  137.6530 C   0  0  1  0  0  0  0  0  0  0  0  0
  184.6470  177.8030  139.1900 C   0  0  2  0  0  3  0  0  0  0  0  0
  182.2670  174.1640  135.7340 C   0  0  2  0  0  3  0  0  0  0  0  0
  184.8990  179.3680  141.0790 C   0  0  0  0  0  1  0  0  0  0  0  0
  180.5530  177.2010  136.5080 C   0  0  1  0  0  3  0  0  0  0  0  0
  180.6460  179.9730  136.2610 C   0  0  0  0  0  2  0  0  0  0  0  0
  183.0670  177.0220  137.4180 C   0  0  2  0  0  3  0  0  0  0  0  0
  184.8450  174.2790  134.5950 S   0  0  0  0  0  0  0  0  0  0  0  0
  182.6780  171.7240  136.2470 C   0  0  0  0  0  2  0  0  0  0  0  0
  182.0900  172.7220  135.2460 C   0  0  1  0  0  3  0  0  0  0  0  0
  180.6600  172.3840  134.8960 C   0  0  0  0  0  3  0  0  0  0  0  0
  178.9320  170.8550  134.6240 F   0  0  0  0  0  0  0  0  0  0  0  0
  181.0720  170.0760  135.4150 N   0  0  0  0  0  2  0  0  0  0  0  0
  180.2200  171.1260  134.9410 C   0  0  0  0  0  0  0  0  0  0  0  0
  182.4850  170.3090  135.7080 C   0  0  0  0  0  2  0  0  0  0  0  0
  180.0000  181.1590  140.0810 C   0  0  0  0  0  1  0  0  0  0  0  0
  179.6870  180.1920  138.9510 C   0  0  0  0  0  2  0  0  0  0  0  0
  1 13  1  1  0  0  0
  2 17  1  0  0  0  0
  2 24  1  1  0  0  0
  3  9  1  0  0  0  0
  4  1  1  0  0  0  0
  4 37  1  0  0  0  0
  5 19  1  0  0  0  0
  6 22  1  0  0  0  0
  8  4  1  0  0  0  0
  9 22  1  0  0  0  0
 10 23  1  0  0  0  0
 11  6  1  0  0  0  0
 12 18  1  0  0  0  0
 12 26  1  0  0  0  0
 13 17  1  0  0  0  0
 14  2  1  0  0  0  0
 15 20  1  0  0  0  0
 16 20  1  0  0  0  0
 16 11  1  0  0  0  0
 18 25  1  0  0  0  0
 19 21  1  0  0  0  0
 19  7  1  0  0  0  0
 20  3  1  0  0  0  0
 21  1  1  0  0  0  0
 22  2  1  0  0  0  0
 23  5  1  0  0  0  0
 25 19  1  0  0  0  0
 25 21  1  0  0  0  0
 26  8  1  0  0  0  0
 27 21  1  0  0  0  0
 27  3  1  0  0  0  0
 27  9  1  0  0  0  0
 28 10  1  0  0  0  0
 28 15  1  0  0  0  0
 30 23  1  0  0  0  0
 30 29  1  0  0  0  0
 31 34  2  0  0  0  0
 31 30  1  0  0  0  0
 32 34  1  0  0  0  0
 33 35  1  0  0  0  0
 34 33  1  0  0  0  0
 35 29  1  0  0  0  0
 37 36  1  0  0  0  0
M  END
>  <MODEL>
1

>  <REMARK>
 VINA RESULT:      -5.0      0.000      0.000
  Name = 
  2 active torsions:
  status: ('A' for Active; 'I' for Inactive)
    1  A    between atoms: C_5  and  C_23
    2  A    between atoms: C_6  and  C_31
                            x       y       z     vdW  Elec       q    Type
                         _______ _______ _______ _____ _____    ______ ____

>  <TORSDO>
F 2

$$$$
=
 OpenBabel11052415193D

 37 43  0  0  1  0  0  0  0  0999 V2000
  181.6400  179.1120  140.1790 C   0  0  2  0  0  3  0  0  0  0  0  0
  180.1470  181.2110  138.0850 C   0  0  1  0  0  0  0  0  0  0  0  0
  181.7020  177.8310  136.6530 C   0  0  2  0  0  3  0  0  0  0  0  0
  180.3320  179.4030  140.9520 C   0  0  1  0  0  3  0  0  0  0  0  0
  182.8000  175.3090  138.7730 C   0  0  0  0  0  2  0  0  0  0  0  0
  178.9440  179.6100  136.5110 C   0  0  0  0  0  2  0  0  0  0  0  0
  183.7620  177.0540  140.1940 O   0  0  0  0  0  1  0  0  0  0  0  0
  179.1880  178.6370  140.5990 O   0  0  0  0  0  0  0  0  0  0  0  0
  181.4390  179.1920  137.2320 C   0  0  1  0  0  3  0  0  0  0  0  0
  181.2950  174.8420  136.8540 C   0  0  0  0  0  2  0  0  0  0  0  0
  178.9470  178.9220  135.1630 C   0  0  0  0  0  2  0  0  0  0  0  0
  178.9610  176.2220  140.6830 C   0  0  0  0  0  2  0  0  0  0  0  0
  182.2900  180.3670  139.5610 C   0  0  0  0  0  2  0  0  0  0  0  0
  179.0770  180.8460  138.9020 O   0  0  0  0  0  1  0  0  0  0  0  0
  181.6710  176.4090  134.5940 C   0  0  0  0  0  2  0  0  0  0  0  0
  179.4960  177.5190  135.3030 C   0  0  0  0  0  2  0  0  0  0  0  0
  181.3830  181.4940  138.9910 C   0  0  0  0  0  2  0  0  0  0  0  0
  180.1600  175.9130  139.7770 C   0  0  0  0  0  2  0  0  0  0  0  0
  182.6800  176.7200  139.3800 C   0  0  1  0  0  0  0  0  0  0  0  0
  181.0130  177.5880  135.3100 C   0  0  1  0  0  3  0  0  0  0  0  0
  181.6220  177.8560  139.2640 C   0  0  1  0  0  0  0  0  0  0  0  0
  180.3170  180.1900  136.9160 C   0  0  2  0  0  3  0  0  0  0  0  0
  182.7280  175.1970  137.2530 C   0  0  2  0  0  3  0  0  0  0  0  0
  179.7890  182.5380  137.4480 C   0  0  0  0  0  1  0  0  0  0  0  0
  181.4030  176.6890  140.2160 C   0  0  1  0  0  3  0  0  0  0  0  0
  179.0650  177.5380  141.4660 C   0  0  0  0  0  2  0  0  0  0  0  0
  180.8510  177.9660  137.9260 C   0  0  2  0  0  3  0  0  0  0  0  0
  181.0270  174.7510  135.0470 S   0  0  0  0  0  0  0  0  0  0  0  0
  185.0990  174.3340  137.3850 C   0  0  0  0  0  2  0  0  0  0  0  0
  183.7330  174.1730  136.7150 C   0  0  1  0  0  3  0  0  0  0  0  0
  183.2340  172.7500  136.8000 C   0  0  0  0  0  3  0  0  0  0  0  0
  183.6090  170.4600  136.9450 F   0  0  0  0  0  0  0  0  0  0  0  0
  185.4980  171.9600  136.9510 N   0  0  0  0  0  2  0  0  0  0  0  0
  184.0850  171.7250  136.8660 C   0  0  0  0  0  0  0  0  0  0  0  0
  186.0610  173.3000  136.8070 C   0  0  0  0  0  2  0  0  0  0  0  0
  181.6110  179.1260  143.1160 C   0  0  0  0  0  1  0  0  0  0  0  0
  180.4710  179.8470  142.4140 C   0  0  0  0  0  2  0  0  0  0  0  0
  1 13  1  6  0  0  0
  1  4  1  0  0  0  0
  2 24  1  6  0  0  0
  2 14  1  0  0  0  0
  2 17  1  0  0  0  0
  3  9  1  0  0  0  0
  3 27  1  0  0  0  0
  4 37  1  0  0  0  0
  5 19  1  0  0  0  0
  6 22  1  0  0  0  0
  8  4  1  0  0  0  0
  8 26  1  0  0  0  0
  9 27  1  0  0  0  0
 10 23  1  0  0  0  0
 11 16  1  0  0  0  0
 11  6  1  0  0  0  0
 12 26  1  0  0  0  0
 15 28  1  0  0  0  0
 15 20  1  0  0  0  0
 16 20  1  0  0  0  0
 17 13  1  0  0  0  0
 18 25  1  0  0  0  0
 18 12  1  0  0  0  0
 19  7  1  0  0  0  0
 19 25  1  0  0  0  0
 20  3  1  0  0  0  0
 21 19  1  0  0  0  0
 21  1  1  0  0  0  0
 21 25  1  0  0  0  0
 22  9  1  0  0  0  0
 22  2  1  0  0  0  0
 23  5  1  0  0  0  0
 27 21  1  0  0  0  0
 28 10  1  0  0  0  0
 30 31  1  0  0  0  0
 30 23  1  0  0  0  0
 30 29  1  0  0  0  0
 31 34  2  0  0  0  0
 34 32  1  0  0  0  0
 34 33  1  0  0  0  0
 35 33  1  0  0  0  0
 35 29  1  0  0  0  0
 37 36  1  0  0  0  0
M  END
>  <MODEL>
2

>  <REMARK>
 VINA RESULT:      -4.6      2.486      4.521
  Name = 
  2 active torsions:
  status: ('A' for Active; 'I' for Inactive)
    1  A    between atoms: C_5  and  C_23
    2  A    between atoms: C_6  and  C_31
                            x       y       z     vdW  Elec       q    Type
                         _______ _______ _______ _____ _____    ______ ____

>  <TORSDO>
F 2

$$$$
=
 OpenBabel11052415193D

 37 43  0  0  1  0  0  0  0  0999 V2000
  186.7850  176.2090  135.6770 C   0  0  2  0  0  3  0  0  0  0  0  0
  189.1590  177.3250  137.7100 C   0  0  1  0  0  0  0  0  0  0  0  0
  185.4020  178.5300  138.2810 C   0  0  2  0  0  3  0  0  0  0  0  0
  187.5110  174.8860  136.0200 C   0  0  1  0  0  3  0  0  0  0  0  0
  182.7550  177.0420  136.5970 C   0  0  0  0  0  2  0  0  0  0  0  0
  187.9610  177.3330  139.9580 C   0  0  0  0  0  2  0  0  0  0  0  0
  184.1600  177.0300  134.5940 O   0  0  0  0  0  1  0  0  0  0  0  0
  187.1350  174.2370  137.2270 O   0  0  0  0  0  0  0  0  0  0  0  0
  186.8000  178.2720  137.7920 C   0  0  1  0  0  3  0  0  0  0  0  0
  182.7110  177.3920  139.0550 C   0  0  0  0  0  2  0  0  0  0  0  0
  187.2510  178.1580  141.0090 C   0  0  0  0  0  2  0  0  0  0  0  0
  184.9250  173.4390  137.8340 C   0  0  0  0  0  2  0  0  0  0  0  0
  187.7390  177.3820  135.3730 C   0  0  0  0  0  2  0  0  0  0  0  0
  189.1910  175.9590  137.9910 O   0  0  0  0  0  1  0  0  0  0  0  0
  183.9790  179.6780  139.9890 C   0  0  0  0  0  2  0  0  0  0  0  0
  185.7540  178.0570  140.8180 C   0  0  0  0  0  2  0  0  0  0  0  0
  189.0720  177.5060  136.1650 C   0  0  0  0  0  2  0  0  0  0  0  0
  184.2110  174.7870  137.6610 C   0  0  0  0  0  2  0  0  0  0  0  0
  184.1550  176.8660  135.9780 C   0  0  1  0  0  0  0  0  0  0  0  0
  185.3350  179.0250  139.7250 C   0  0  1  0  0  3  0  0  0  0  0  0
  185.5620  176.5630  136.5690 C   0  0  1  0  0  0  0  0  0  0  0  0
  188.0890  178.0420  138.5920 C   0  0  2  0  0  3  0  0  0  0  0  0
  182.6070  178.0880  137.6970 C   0  0  2  0  0  3  0  0  0  0  0  0
  190.5040  177.8940  138.1170 C   0  0  0  0  0  1  0  0  0  0  0  0
  184.5680  175.4380  136.3240 C   0  0  1  0  0  3  0  0  0  0  0  0
  186.1710  173.2510  136.9580 C   0  0  0  0  0  2  0  0  0  0  0  0
  185.8560  177.0890  137.9950 C   0  0  2  0  0  3  0  0  0  0  0  0
  182.6340  178.5310  140.4830 S   0  0  0  0  0  0  0  0  0  0  0  0
  181.5380  180.3760  137.6190 C   0  0  0  0  0  2  0  0  0  0  0  0
  181.2940  178.8670  137.5630 C   0  0  1  0  0  3  0  0  0  0  0  0
  180.4940  178.4760  136.3430 C   0  0  0  0  0  2  0  0  0  0  0  0
  178.9310  178.9490  134.6890 F   0  0  0  0  0  0  0  0  0  0  0  0
  179.5140  180.6680  136.2770 N   0  0  0  0  0  0  0  0  0  0  0  0
  179.6320  179.3260  135.7840 C   0  0  0  0  0  0  0  0  0  0  0  0
  180.2010  181.1010  137.4910 C   0  0  0  0  0  2  0  0  0  0  0  0
  189.4610  173.8770  134.7650 C   0  0  0  0  0  1  0  0  0  0  0  0
  187.9480  174.0060  134.8420 C   0  0  0  0  0  2  0  0  0  0  0  0
  1 13  1  1  0  0  0
  1  4  1  0  0  0  0
  1 21  1  0  0  0  0
  2 14  1  0  0  0  0
  2 24  1  1  0  0  0
  2 22  1  0  0  0  0
  3 20  1  0  0  0  0
  4  8  1  0  0  0  0
  5 23  1  0  0  0  0
  6 11  1  0  0  0  0
  7 19  1  0  0  0  0
  9 27  1  0  0  0  0
  9  3  1  0  0  0  0
  9 22  1  0  0  0  0
 10 28  1  0  0  0  0
 13 17  1  0  0  0  0
 15 28  1  0  0  0  0
 16 11  1  0  0  0  0
 17  2  1  0  0  0  0
 18 12  1  0  0  0  0
 19 25  1  0  0  0  0
 19 21  1  0  0  0  0
 19  5  1  0  0  0  0
 20 15  1  0  0  0  0
 20 16  1  0  0  0  0
 21 27  1  0  0  0  0
 22  6  1  0  0  0  0
 23 10  1  0  0  0  0
 25 21  1  0  0  0  0
 25 18  1  0  0  0  0
 26  8  1  0  0  0  0
 26 12  1  0  0  0  0
 27  3  1  0  0  0  0
 30 29  1  0  0  0  0
 30 23  1  0  0  0  0
 31 30  1  0  0  0  0
 32 34  1  0  0  0  0
 33 35  1  0  0  0  0
 34 33  2  0  0  0  0
 34 31  1  0  0  0  0
 35 29  1  0  0  0  0
 36 37  1  0  0  0  0
 37  4  1  0  0  0  0
M  END
>  <MODEL>
3

>  <REMARK>
 VINA RESULT:      -4.2      3.682      6.906
  Name = 
  2 active torsions:
  status: ('A' for Active; 'I' for Inactive)
    1  A    between atoms: C_5  and  C_23
    2  A    between atoms: C_6  and  C_31
                            x       y       z     vdW  Elec       q    Type
                         _______ _______ _______ _____ _____    ______ ____

>  <TORSDO>
F 2

$$$$
=
 OpenBabel11052415193D

 37 43  0  0  1  0  0  0  0  0999 V2000
  181.0090  176.5220  136.3080 C   0  0  2  0  0  3  0  0  0  0  0  0
  179.8180  173.5530  135.4250 C   0  0  1  0  0  0  0  0  0  0  0  0
  183.7660  174.0850  135.5740 C   0  0  2  0  0  3  0  0  0  0  0  0
  179.9530  176.2980  137.4160 C   0  0  1  0  0  3  0  0  0  0  0  0
  185.1500  176.9370  136.9900 C   0  0  0  0  0  2  0  0  0  0  0  0
  181.4560  171.9720  136.5690 C   0  0  0  0  0  2  0  0  0  0  0  0
  183.3880  178.2260  135.8840 O   0  0  0  0  0  1  0  0  0  0  0  0
  180.3490  175.5230  138.5400 O   0  0  0  0  0  0  0  0  0  0  0  0
  182.2990  174.0840  135.2480 C   0  0  1  0  0  3  0  0  0  0  0  0
  185.9370  174.6620  137.5960 C   0  0  0  0  0  2  0  0  0  0  0  0
  182.6620  171.0720  136.4120 C   0  0  0  0  0  2  0  0  0  0  0  0
  182.1750  175.9870  140.0680 C   0  0  0  0  0  2  0  0  0  0  0  0
  180.5200  176.1430  134.8960 C   0  0  0  0  0  2  0  0  0  0  0  0
  179.3500  173.6460  136.7360 O   0  0  0  0  0  1  0  0  0  0  0  0
  185.8950  172.7700  135.5650 C   0  0  0  0  0  2  0  0  0  0  0  0
  183.9130  171.8100  136.8350 C   0  0  0  0  0  2  0  0  0  0  0  0
  179.5750  174.9200  134.7180 C   0  0  0  0  0  2  0  0  0  0  0  0
  183.2740  176.0470  138.9970 C   0  0  0  0  0  2  0  0  0  0  0  0
  183.6790  177.0320  136.5430 C   0  0  1  0  0  0  0  0  0  0  0  0
  184.3740  172.6870  135.6840 C   0  0  1  0  0  3  0  0  0  0  0  0
  182.4570  176.0730  136.6510 C   0  0  1  0  0  0  0  0  0  0  0  0
  181.2630  172.9630  135.4000 C   0  0  2  0  0  3  0  0  0  0  0  0
  185.9490  175.7320  136.5050 C   0  0  2  0  0  3  0  0  0  0  0  0
  178.9330  172.5540  134.7070 C   0  0  0  0  0  1  0  0  0  0  0  0
  182.8620  176.9460  137.8290 C   0  0  1  0  0  3  0  0  0  0  0  0
  180.7730  176.3700  139.5770 C   0  0  0  0  0  2  0  0  0  0  0  0
  182.7500  174.5530  136.6290 C   0  0  2  0  0  3  0  0  0  0  0  0
  186.7910  173.1130  137.1290 S   0  0  0  0  0  0  0  0  0  0  0  0
  187.3810  177.1730  135.0020 C   0  0  0  0  0  2  0  0  0  0  0  0
  187.3800  176.1240  136.1150 C   0  0  1  0  0  3  0  0  0  0  0  0
  188.2170  176.5600  137.2940 C   0  0  0  0  0  2  0  0  0  0  0  0
  189.9880  177.7560  138.2090 F   0  0  0  0  0  0  0  0  0  0  0  0
  189.5450  177.9420  135.8460 N   0  0  0  0  0  0  0  0  0  0  0  0
  189.2570  177.3800  137.1330 C   0  0  0  0  0  0  0  0  0  0  0  0
  188.8250  177.5180  134.6470 C   0  0  0  0  0  2  0  0  0  0  0  0
  179.4730  178.7700  137.1870 C   0  0  0  0  0  1  0  0  0  0  0  0
  178.9370  177.4250  137.6470 C   0  0  0  0  0  2  0  0  0  0  0  0
  1 13  1  6  0  0  0
  1 21  1  0  0  0  0
  1  4  1  0  0  0  0
  2 24  1  6  0  0  0
  2 14  1  0  0  0  0
  3 20  1  0  0  0  0
  3 27  1  0  0  0  0
  4 37  1  0  0  0  0
  4  8  1  0  0  0  0
  7 19  1  0  0  0  0
  8 26  1  0  0  0  0
  9 22  1  0  0  0  0
  9  3  1  0  0  0  0
  9 27  1  0  0  0  0
 11  6  1  0  0  0  0
 11 16  1  0  0  0  0
 15 20  1  0  0  0  0
 15 28  1  0  0  0  0
 17 13  1  0  0  0  0
 17  2  1  0  0  0  0
 18 12  1  0  0  0  0
 19 21  1  0  0  0  0
 19  5  1  0  0  0  0
 19 25  1  0  0  0  0
 20 16  1  0  0  0  0
 21 25  1  0  0  0  0
 22  2  1  0  0  0  0
 22  6  1  0  0  0  0
 23  5  1  0  0  0  0
 23 10  1  0  0  0  0
 25 18  1  0  0  0  0
 26 12  1  0  0  0  0
 27 21  1  0  0  0  0
 28 10  1  0  0  0  0
 29 30  1  0  0  0  0
 30 23  1  0  0  0  0
 30 31  1  0  0  0  0
 33 34  2  0  0  0  0
 34 31  1  0  0  0  0
 34 32  1  0  0  0  0
 35 29  1  0  0  0  0
 35 33  1  0  0  0  0
 36 37  1  0  0  0  0
M  END
>  <MODEL>
4

>  <REMARK>
 VINA RESULT:      -3.9      3.535      6.489
  Name = 
  2 active torsions:
  status: ('A' for Active; 'I' for Inactive)
    1  A    between atoms: C_5  and  C_23
    2  A    between atoms: C_6  and  C_31
                            x       y       z     vdW  Elec       q    Type
                         _______ _______ _______ _____ _____    ______ ____

>  <TORSDO>
F 2

$$$$
=
 OpenBabel11052415193D

 37 43  0  0  1  0  0  0  0  0999 V2000
  181.4680  179.4880  138.1970 C   0  0  2  0  0  3  0  0  0  0  0  0
  179.8920  177.8950  135.7490 C   0  0  1  0  0  0  0  0  0  0  0  0
  183.8360  177.4500  136.1190 C   0  0  2  0  0  3  0  0  0  0  0  0
  180.2800  178.8740  138.9750 C   0  0  1  0  0  3  0  0  0  0  0  0
  185.5260  178.6020  138.9250 C   0  0  0  0  0  2  0  0  0  0  0  0
  181.1130  175.6600  135.7090 C   0  0  0  0  0  2  0  0  0  0  0  0
  184.1310  180.6090  138.8250 O   0  0  0  0  0  1  0  0  0  0  0  0
  180.4210  177.5300  139.4160 O   0  0  0  0  0  0  0  0  0  0  0  0
  182.4320  177.9290  135.8790 C   0  0  1  0  0  3  0  0  0  0  0  0
  185.8520  176.2990  138.0550 C   0  0  0  0  0  2  0  0  0  0  0  0
  182.1600  174.8040  135.0310 C   0  0  0  0  0  2  0  0  0  0  0  0
  182.1320  176.6450  140.8930 C   0  0  0  0  0  2  0  0  0  0  0  0
  181.0710  180.1080  136.8420 C   0  0  0  0  0  2  0  0  0  0  0  0
  179.3130  177.2980  136.8680 O   0  0  0  0  0  1  0  0  0  0  0  0
  185.7030  175.9990  135.2990 C   0  0  0  0  0  2  0  0  0  0  0  0
  183.4670  174.8930  135.7880 C   0  0  0  0  0  2  0  0  0  0  0  0
  179.9580  179.4330  135.9910 C   0  0  0  0  0  2  0  0  0  0  0  0
  183.3300  177.1000  140.0470 C   0  0  0  0  0  2  0  0  0  0  0  0
  184.1470  179.2270  138.6440 C   0  0  1  0  0  0  0  0  0  0  0  0
  184.1860  176.1640  135.3700 C   0  0  1  0  0  3  0  0  0  0  0  0
  182.7770  178.6480  138.1840 C   0  0  1  0  0  0  0  0  0  0  0  0
  181.2120  177.1600  135.3560 C   0  0  2  0  0  3  0  0  0  0  0  0
  186.1580  177.7770  137.8080 C   0  0  2  0  0  3  0  0  0  0  0  0
  178.9310  177.7000  134.5940 C   0  0  0  0  0  1  0  0  0  0  0  0
  183.1980  178.5700  139.6440 C   0  0  1  0  0  3  0  0  0  0  0  0
  180.8720  177.5100  140.7470 C   0  0  0  0  0  2  0  0  0  0  0  0
  182.8100  177.4050  137.2630 C   0  0  2  0  0  3  0  0  0  0  0  0
  186.4770  175.1820  136.7490 S   0  0  0  0  0  0  0  0  0  0  0  0
  188.4300  177.2820  138.7970 C   0  0  0  0  0  2  0  0  0  0  0  0
  187.6660  178.0310  137.7030 C   0  0  1  0  0  3  0  0  0  0  0  0
  188.2230  177.7340  136.3300 C   0  0  0  0  0  3  0  0  0  0  0  0
  189.9770  177.1470  134.9230 F   0  0  0  0  0  0  0  0  0  0  0  0
  190.3650  177.2440  137.3010 N   0  0  0  0  0  2  0  0  0  0  0  0
  189.5060  177.4100  136.1650 C   0  0  0  0  0  0  0  0  0  0  0  0
  189.9200  177.5770  138.6520 C   0  0  0  0  0  2  0  0  0  0  0  0
  180.1240  181.1810  139.9980 C   0  0  0  0  0  1  0  0  0  0  0  0
  179.4500  179.8270  139.8450 C   0  0  0  0  0  2  0  0  0  0  0  0
  1 13  1  6  0  0  0
  1  4  1  0  0  0  0
  2 24  1  6  0  0  0
  2 17  1  0  0  0  0
  2 14  1  0  0  0  0
  3 27  1  0  0  0  0
  4  8  1  0  0  0  0
  4 37  1  0  0  0  0
  8 26  1  0  0  0  0
  9  3  1  0  0  0  0
  9 27  1  0  0  0  0
 11  6  1  0  0  0  0
 11 16  1  0  0  0  0
 15 20  1  0  0  0  0
 15 28  1  0  0  0  0
 17 13  1  0  0  0  0
 18 12  1  0  0  0  0
 19  7  1  0  0  0  0
 19  5  1  0  0  0  0
 19 25  1  0  0  0  0
 20 16  1  0  0  0  0
 20  3  1  0  0  0  0
 21  1  1  0  0  0  0
 21 19  1  0  0  0  0
 21 25  1  0  0  0  0
 22  6  1  0  0  0  0
 22  2  1  0  0  0  0
 22  9  1  0  0  0  0
 23 10  1  0  0  0  0
 23  5  1  0  0  0  0
 25 18  1  0  0  0  0
 26 12  1  0  0  0  0
 27 21  1  0  0  0  0
 28 10  1  0  0  0  0
 30 23  1  0  0  0  0
 30 29  1  0  0  0  0
 31 30  1  0  0  0  0
 32 34  1  0  0  0  0
 33 35  1  0  0  0  0
 34 31  2  0  0  0  0
 34 33  1  0  0  0  0
 35 29  1  0  0  0  0
 37 36  1  0  0  0  0
M  END
>  <MODEL>
5

>  <REMARK>
 VINA RESULT:      -3.8      3.396      6.168
  Name = 
  2 active torsions:
  status: ('A' for Active; 'I' for Inactive)
    1  A    between atoms: C_5  and  C_23
    2  A    between atoms: C_6  and  C_31
                            x       y       z     vdW  Elec       q    Type
                         _______ _______ _______ _____ _____    ______ ____

>  <TORSDO>
F 2

$$$$
=
 OpenBabel11052415193D

 37 43  0  0  1  0  0  0  0  0999 V2000
  185.1250  176.7920  137.1070 C   0  0  2  0  0  3  0  0  0  0  0  0
  184.7220  173.5880  136.3390 C   0  0  1  0  0  0  0  0  0  0  0  0
  182.2720  175.2590  139.0020 C   0  0  2  0  0  3  0  0  0  0  0  0
  185.1760  176.8610  135.5620 C   0  0  1  0  0  3  0  0  0  0  0  0
  182.2200  178.6960  139.4980 C   0  0  0  0  0  2  0  0  0  0  0  0
  182.1840  173.3720  136.3150 C   0  0  0  0  0  2  0  0  0  0  0  0
  184.6620  178.6580  139.3530 O   0  0  0  0  0  1  0  0  0  0  0  0
  183.9330  176.9200  134.8760 O   0  0  0  0  0  0  0  0  0  0  0  0
  183.4240  174.6600  138.2450 C   0  0  1  0  0  3  0  0  0  0  0  0
  180.1360  177.3930  139.1440 C   0  0  0  0  0  2  0  0  0  0  0  0
  180.9480  172.9190  137.0610 C   0  0  0  0  0  2  0  0  0  0  0  0
  182.2080  178.6100  135.1150 C   0  0  0  0  0  2  0  0  0  0  0  0
  185.9350  175.6240  137.7050 C   0  0  0  0  0  2  0  0  0  0  0  0
  184.4520  174.1910  135.1100 O   0  0  0  0  0  1  0  0  0  0  0  0
  180.1100  174.8190  140.1830 C   0  0  0  0  0  2  0  0  0  0  0  0
  180.3030  174.1010  137.7510 C   0  0  0  0  0  2  0  0  0  0  0  0
  185.9860  174.2650  136.9510 C   0  0  0  0  0  2  0  0  0  0  0  0
  182.0200  178.4400  136.6290 C   0  0  0  0  0  2  0  0  0  0  0  0
  183.4850  178.1110  138.8430 C   0  0  1  0  0  0  0  0  0  0  0  0
  181.0350  174.3630  139.0560 C   0  0  1  0  0  3  0  0  0  0  0  0
  183.7300  177.0290  137.7510 C   0  0  1  0  0  0  0  0  0  0  0  0
  183.4310  173.5240  137.2140 C   0  0  2  0  0  3  0  0  0  0  0  0
  181.2500  177.7100  140.1420 C   0  0  2  0  0  3  0  0  0  0  0  0
  185.1200  172.1540  136.0530 C   0  0  0  0  0  1  0  0  0  0  0  0
  183.3630  178.4530  137.3600 C   0  0  1  0  0  3  0  0  0  0  0  0
  183.6080  178.2570  134.5940 C   0  0  0  0  0  2  0  0  0  0  0  0
  182.7040  175.8740  137.6610 C   0  0  2  0  0  3  0  0  0  0  0  0
  178.9310  176.1550  139.7440 S   0  0  0  0  0  0  0  0  0  0  0  0
  181.8010  178.4670  142.4890 C   0  0  0  0  0  2  0  0  0  0  0  0
  180.6880  178.2520  141.4620 C   0  0  1  0  0  3  0  0  0  0  0  0
  179.8460  179.4920  141.2830 C   0  0  0  0  0  3  0  0  0  0  0  0
  178.9360  181.4750  142.0860 F   0  0  0  0  0  0  0  0  0  0  0  0
  180.4080  180.2000  143.5090 N   0  0  0  0  0  2  0  0  0  0  0  0
  179.6950  180.3700  142.2760 C   0  0  0  0  0  0  0  0  0  0  0  0
  181.1870  178.9950  143.7830 C   0  0  0  0  0  2  0  0  0  0  0  0
  187.1450  178.3950  135.9710 C   0  0  0  0  0  1  0  0  0  0  0  0
  186.3730  177.5910  134.9380 C   0  0  0  0  0  2  0  0  0  0  0  0
  1 13  1  6  0  0  0
  1 21  1  0  0  0  0
  2 24  1  6  0  0  0
  2 17  1  0  0  0  0
  2 22  1  0  0  0  0
  3 20  1  0  0  0  0
  4  1  1  0  0  0  0
  5 23  1  0  0  0  0
  6 11  1  0  0  0  0
  6 22  1  0  0  0  0
  8  4  1  0  0  0  0
  9  3  1  0  0  0  0
 10 28  1  0  0  0  0
 10 23  1  0  0  0  0
 11 16  1  0  0  0  0
 12 18  1  0  0  0  0
 14  2  1  0  0  0  0
 16 20  1  0  0  0  0
 17 13  1  0  0  0  0
 18 25  1  0  0  0  0
 19  7  1  0  0  0  0
 19  5  1  0  0  0  0
 20 15  1  0  0  0  0
 21 19  1  0  0  0  0
 22  9  1  0  0  0  0
 23 30  1  0  0  0  0
 25 21  1  0  0  0  0
 25 19  1  0  0  0  0
 26  8  1  0  0  0  0
 26 12  1  0  0  0  0
 27 21  1  0  0  0  0
 27  9  1  0  0  0  0
 27  3  1  0  0  0  0
 28 15  1  0  0  0  0
 29 35  1  0  0  0  0
 30 29  1  0  0  0  0
 31 30  1  0  0  0  0
 31 34  2  0  0  0  0
 32 34  1  0  0  0  0
 33 35  1  0  0  0  0
 34 33  1  0  0  0  0
 37  4  1  0  0  0  0
 37 36  1  0  0  0  0
M  END
>  <MODEL>
6

>  <REMARK>
 VINA RESULT:      -3.7      3.868      6.992
  Name = 
  2 active torsions:
  status: ('A' for Active; 'I' for Inactive)
    1  A    between atoms: C_5  and  C_23
    2  A    between atoms: C_6  and  C_31
                            x       y       z     vdW  Elec       q    Type
                         _______ _______ _______ _____ _____    ______ ____

>  <TORSDO>
F 2

$$$$
=
 OpenBabel11052415193D

 37 43  0  0  1  0  0  0  0  0999 V2000
  188.5360  175.8620  137.2080 C   0  0  2  0  0  3  0  0  0  0  0  0
  188.1070  172.9290  135.7140 C   0  0  1  0  0  0  0  0  0  0  0  0
  184.9660  174.7200  137.3940 C   0  0  2  0  0  3  0  0  0  0  0  0
  189.2770  176.1110  135.8730 C   0  0  1  0  0  3  0  0  0  0  0  0
  185.1440  178.0050  138.5050 C   0  0  0  0  0  2  0  0  0  0  0  0
  185.8400  173.2400  134.5940 C   0  0  0  0  0  2  0  0  0  0  0  0
  187.3680  177.4880  139.3830 O   0  0  0  0  0  1  0  0  0  0  0  0
  188.4880  176.5080  134.7590 O   0  0  0  0  0  0  0  0  0  0  0  0
  186.2470  173.9980  137.0800 C   0  0  1  0  0  3  0  0  0  0  0  0
  183.2860  177.2100  137.0620 C   0  0  0  0  0  2  0  0  0  0  0  0
  184.3530  172.9610  134.6500 C   0  0  0  0  0  2  0  0  0  0  0  0
  187.0720  178.4720  134.5950 C   0  0  0  0  0  2  0  0  0  0  0  0
  188.8370  174.4880  137.8400 C   0  0  0  0  0  2  0  0  0  0  0  0
  188.4910  173.7230  134.6330 O   0  0  0  0  0  1  0  0  0  0  0  0
  182.4690  174.5860  137.4540 C   0  0  0  0  0  2  0  0  0  0  0  0
  183.6280  174.1540  135.2330 C   0  0  0  0  0  2  0  0  0  0  0  0
  189.0420  173.2520  136.9170 C   0  0  0  0  0  2  0  0  0  0  0  0
  186.2090  178.1560  135.8250 C   0  0  0  0  0  2  0  0  0  0  0  0
  186.4810  177.2610  138.3320 C   0  0  1  0  0  0  0  0  0  0  0  0
  183.7310  174.0950  136.7470 C   0  0  1  0  0  3  0  0  0  0  0  0
  187.0440  176.2970  137.2470 C   0  0  1  0  0  0  0  0  0  0  0  0
  186.5650  173.0220  135.9400 C   0  0  2  0  0  3  0  0  0  0  0  0
  183.8710  177.1660  138.4740 C   0  0  2  0  0  3  0  0  0  0  0  0
  188.4010  171.4910  135.3360 C   0  0  0  0  0  1  0  0  0  0  0  0
  187.0770  177.8030  137.0350 C   0  0  1  0  0  3  0  0  0  0  0  0
  188.4990  177.9080  134.6430 C   0  0  0  0  0  2  0  0  0  0  0  0
  186.0250  175.3960  136.5080 C   0  0  2  0  0  3  0  0  0  0  0  0
  181.7910  176.1790  136.8440 S   0  0  0  0  0  0  0  0  0  0  0  0
  183.5440  177.9780  140.8450 C   0  0  0  0  0  2  0  0  0  0  0  0
  182.8560  177.6420  139.5200 C   0  0  1  0  0  3  0  0  0  0  0  0
  181.9930  178.7820  139.0340 C   0  0  0  0  0  3  0  0  0  0  0  0
  180.6690  180.6520  139.4270 F   0  0  0  0  0  0  0  0  0  0  0  0
  181.7220  179.5470  141.2950 N   0  0  0  0  0  2  0  0  0  0  0  0
  181.4360  179.6370  139.8930 C   0  0  0  0  0  0  0  0  0  0  0  0
  182.4900  178.4350  141.8490 C   0  0  0  0  0  2  0  0  0  0  0  0
  191.7390  175.5820  135.6460 C   0  0  0  0  0  1  0  0  0  0  0  0
  190.7100  176.6540  135.9630 C   0  0  0  0  0  2  0  0  0  0  0  0
  1 21  1  0  0  0  0
  1 13  1  6  0  0  0
  2 24  1  6  0  0  0
  2 22  1  0  0  0  0
  2 17  1  0  0  0  0
  4 37  1  0  0  0  0
  4  1  1  0  0  0  0
  6 11  1  0  0  0  0
  6 22  1  0  0  0  0
  8  4  1  0  0  0  0
  9  3  1  0  0  0  0
 10 23  1  0  0  0  0
 11 16  1  0  0  0  0
 12 26  1  0  0  0  0
 12 18  1  0  0  0  0
 14  2  1  0  0  0  0
 16 20  1  0  0  0  0
 17 13  1  0  0  0  0
 18 25  1  0  0  0  0
 19  5  1  0  0  0  0
 19  7  1  0  0  0  0
 20  3  1  0  0  0  0
 20 15  1  0  0  0  0
 21 19  1  0  0  0  0
 22  9  1  0  0  0  0
 23  5  1  0  0  0  0
 23 30  1  0  0  0  0
 25 21  1  0  0  0  0
 25 19  1  0  0  0  0
 26  8  1  0  0  0  0
 27  9  1  0  0  0  0
 27 21  1  0  0  0  0
 27  3  1  0  0  0  0
 28 10  1  0  0  0  0
 28 15  1  0  0  0  0
 29 35  1  0  0  0  0
 30 29  1  0  0  0  0
 31 30  1  0  0  0  0
 31 34  2  0  0  0  0
 32 34  1  0  0  0  0
 33 35  1  0  0  0  0
 34 33  1  0  0  0  0
 36 37  1  0  0  0  0
M  END
>  <MODEL>
7

>  <REMARK>
 VINA RESULT:      -3.3      4.081      7.593
  Name = 
  2 active torsions:
  status: ('A' for Active; 'I' for Inactive)
    1  A    between atoms: C_5  and  C_23
    2  A    between atoms: C_6  and  C_31
                            x       y       z     vdW  Elec       q    Type
                         _______ _______ _______ _____ _____    ______ ____

>  <TORSDO>
F 2

$$$$
=
 OpenBabel11052415193D

 37 43  0  0  1  0  0  0  0  0999 V2000
  189.0650  175.4550  137.1630 C   0  0  2  0  0  3  0  0  0  0  0  0
  187.9720  172.6900  135.6870 C   0  0  1  0  0  0  0  0  0  0  0  0
  185.3410  175.1010  137.4640 C   0  0  2  0  0  3  0  0  0  0  0  0
  189.8000  175.5470  135.8040 C   0  0  1  0  0  3  0  0  0  0  0  0
  186.2510  178.2660  138.5630 C   0  0  0  0  0  2  0  0  0  0  0  0
  185.7900  173.4840  134.6400 C   0  0  0  0  0  2  0  0  0  0  0  0
  188.3400  177.2810  139.3720 O   0  0  0  0  0  1  0  0  0  0  0  0
  189.0790  176.1090  134.7160 O   0  0  0  0  0  0  0  0  0  0  0  0
  186.4270  174.1240  137.1100 C   0  0  1  0  0  3  0  0  0  0  0  0
  184.2220  177.8940  137.1820 C   0  0  0  0  0  2  0  0  0  0  0  0
  184.2810  173.5280  134.7440 C   0  0  0  0  0  2  0  0  0  0  0  0
  188.1110  178.3310  134.5940 C   0  0  0  0  0  2  0  0  0  0  0  0
  189.0850  174.0440  137.7860 C   0  0  0  0  0  2  0  0  0  0  0  0
  188.4830  173.3890  134.5930 O   0  0  0  0  0  1  0  0  0  0  0  0
  182.8750  175.5030  137.6030 C   0  0  0  0  0  2  0  0  0  0  0  0
  183.8450  174.8450  135.3470 C   0  0  0  0  0  2  0  0  0  0  0  0
  188.9920  172.7990  136.8600 C   0  0  0  0  0  2  0  0  0  0  0  0
  187.2400  178.2000  135.8510 C   0  0  0  0  0  2  0  0  0  0  0  0
  187.3930  177.2540  138.3490 C   0  0  1  0  0  0  0  0  0  0  0  0
  183.9810  174.7580  136.8570 C   0  0  1  0  0  3  0  0  0  0  0  0
  187.7020  176.1980  137.2480 C   0  0  1  0  0  0  0  0  0  0  0  0
  186.4940  173.1080  135.9620 C   0  0  2  0  0  3  0  0  0  0  0  0
  184.8280  177.7180  138.5750 C   0  0  2  0  0  3  0  0  0  0  0  0
  187.9400  171.2240  135.3020 C   0  0  0  0  0  1  0  0  0  0  0  0
  188.0490  177.6640  137.0330 C   0  0  1  0  0  3  0  0  0  0  0  0
  189.3850  177.4760  134.5980 C   0  0  0  0  0  2  0  0  0  0  0  0
  186.4910  175.5400  136.5430 C   0  0  2  0  0  3  0  0  0  0  0  0
  182.5350  177.2070  137.0120 S   0  0  0  0  0  0  0  0  0  0  0  0
  182.9110  177.4350  140.1970 C   0  0  0  0  0  2  0  0  0  0  0  0
  183.9710  178.3940  139.6520 C   0  0  1  0  0  3  0  0  0  0  0  0
  184.7900  179.0110  140.7610 C   0  0  0  0  0  3  0  0  0  0  0  0
  185.0350  179.7380  142.9550 F   0  0  0  0  0  0  0  0  0  0  0  0
  182.9610  178.7040  142.2880 N   0  0  0  0  0  2  0  0  0  0  0  0
  184.2760  179.1850  141.9800 C   0  0  0  0  0  0  0  0  0  0  0  0
  182.0830  178.1600  141.2550 C   0  0  0  0  0  2  0  0  0  0  0  0
  191.7620  176.3620  137.1750 C   0  0  0  0  0  1  0  0  0  0  0  0
  191.3170  175.7710  135.8480 C   0  0  0  0  0  2  0  0  0  0  0  0
  1 21  1  0  0  0  0
  1 13  1  6  0  0  0
  2 24  1  6  0  0  0
  2 22  1  0  0  0  0
  2 17  1  0  0  0  0
  4 37  1  0  0  0  0
  4  1  1  0  0  0  0
  5 23  1  0  0  0  0
  6 11  1  0  0  0  0
  6 22  1  0  0  0  0
  8  4  1  0  0  0  0
  9  3  1  0  0  0  0
 10 23  1  0  0  0  0
 11 16  1  0  0  0  0
 12 26  1  0  0  0  0
 12 18  1  0  0  0  0
 14  2  1  0  0  0  0
 16 20  1  0  0  0  0
 17 13  1  0  0  0  0
 18 25  1  0  0  0  0
 19  5  1  0  0  0  0
 19  7  1  0  0  0  0
 20  3  1  0  0  0  0
 20 15  1  0  0  0  0
 21 19  1  0  0  0  0
 22  9  1  0  0  0  0
 23 30  1  0  0  0  0
 25 21  1  0  0  0  0
 25 19  1  0  0  0  0
 26  8  1  0  0  0  0
 27  9  1  0  0  0  0
 27 21  1  0  0  0  0
 27  3  1  0  0  0  0
 28 10  1  0  0  0  0
 28 15  1  0  0  0  0
 29 35  1  0  0  0  0
 30 29  1  0  0  0  0
 30 31  1  0  0  0  0
 31 34  2  0  0  0  0
 34 33  1  0  0  0  0
 34 32  1  0  0  0  0
 35 33  1  0  0  0  0
 37 36  1  0  0  0  0
M  END
>  <MODEL>
8

>  <REMARK>
 VINA RESULT:      -2.9      4.421      8.081
  Name = 
  2 active torsions:
  status: ('A' for Active; 'I' for Inactive)
    1  A    between atoms: C_5  and  C_23
    2  A    between atoms: C_6  and  C_31
                            x       y       z     vdW  Elec       q    Type
                         _______ _______ _______ _____ _____    ______ ____

>  <TORSDO>
F 2

$$$$
=
 OpenBabel11052415193D

 37 43  0  0  1  0  0  0  0  0999 V2000
  182.7150  177.8010  135.9420 C   0  0  2  0  0  3  0  0  0  0  0  0
  180.4600  175.4050  135.5060 C   0  0  1  0  0  0  0  0  0  0  0  0
  184.3220  174.4240  135.6350 C   0  0  2  0  0  3  0  0  0  0  0  0
  181.7010  178.1590  137.0540 C   0  0  1  0  0  3  0  0  0  0  0  0
  186.7350  176.7190  136.6200 C   0  0  0  0  0  2  0  0  0  0  0  0
  181.4330  173.5120  136.9040 C   0  0  0  0  0  2  0  0  0  0  0  0
  185.5390  178.3980  135.3010 O   0  0  0  0  0  1  0  0  0  0  0  0
  181.8250  177.4670  138.2890 O   0  0  0  0  0  0  0  0  0  0  0  0
  182.9490  174.9290  135.2890 C   0  0  1  0  0  3  0  0  0  0  0  0
  186.6360  174.4320  137.5800 C   0  0  0  0  0  2  0  0  0  0  0  0
  182.2050  172.2100  136.9070 C   0  0  0  0  0  2  0  0  0  0  0  0
  183.7570  177.4290  139.7580 C   0  0  0  0  0  2  0  0  0  0  0  0
  182.0590  177.4300  134.5970 C   0  0  0  0  0  2  0  0  0  0  0  0
  180.1180  175.8620  136.7790 O   0  0  0  0  0  1  0  0  0  0  0  0
  185.8000  172.4180  135.8620 C   0  0  0  0  0  2  0  0  0  0  0  0
  183.6590  172.4760  137.2320 C   0  0  0  0  0  2  0  0  0  0  0  0
  180.7180  176.6420  134.5940 C   0  0  0  0  0  2  0  0  0  0  0  0
  184.7500  176.9110  138.7090 C   0  0  0  0  0  2  0  0  0  0  0  0
  185.3890  177.2940  136.1390 C   0  0  1  0  0  0  0  0  0  0  0  0
  184.3650  172.9330  135.9670 C   0  0  1  0  0  3  0  0  0  0  0  0
  183.9030  176.8950  136.3730 C   0  0  1  0  0  0  0  0  0  0  0  0
  181.5760  174.3170  135.5950 C   0  0  2  0  0  3  0  0  0  0  0  0
  187.0020  175.2440  136.3370 C   0  0  2  0  0  3  0  0  0  0  0  0
  179.2350  174.7200  134.9350 C   0  0  0  0  0  1  0  0  0  0  0  0
  184.6560  177.7140  137.4100 C   0  0  1  0  0  3  0  0  0  0  0  0
  182.5800  178.2360  139.1920 C   0  0  0  0  0  2  0  0  0  0  0  0
  183.6030  175.3910  136.5890 C   0  0  2  0  0  3  0  0  0  0  0  0
  186.8260  172.6250  137.3700 S   0  0  0  0  0  0  0  0  0  0  0  0
  188.9540  176.1170  134.9900 C   0  0  0  0  0  2  0  0  0  0  0  0
  188.4560  175.0050  135.9160 C   0  0  1  0  0  3  0  0  0  0  0  0
  189.3870  174.7960  137.0870 C   0  0  0  0  0  2  0  0  0  0  0  0
  191.4980  174.8730  138.0550 F   0  0  0  0  0  0  0  0  0  0  0  0
  191.2180  175.6550  135.7910 N   0  0  0  0  0  0  0  0  0  0  0  0
  190.6890  175.0680  136.9880 C   0  0  0  0  0  0  0  0  0  0  0  0
  190.3980  175.8250  134.5940 C   0  0  0  0  0  2  0  0  0  0  0  0
  179.8560  179.7540  136.3880 C   0  0  0  0  0  1  0  0  0  0  0  0
  181.1930  179.6070  137.0940 C   0  0  0  0  0  2  0  0  0  0  0  0
  1 13  1  6  0  0  0
  1 21  1  0  0  0  0
  1  4  1  0  0  0  0
  2 24  1  6  0  0  0
  2 22  1  0  0  0  0
  2 14  1  0  0  0  0
  3 20  1  0  0  0  0
  3 27  1  0  0  0  0
  4 37  1  0  0  0  0
  4  8  1  0  0  0  0
  6 11  1  0  0  0  0
  7 19  1  0  0  0  0
  8 26  1  0  0  0  0
  9 22  1  0  0  0  0
  9  3  1  0  0  0  0
  9 27  1  0  0  0  0
 11 16  1  0  0  0  0
 15 20  1  0  0  0  0
 15 28  1  0  0  0  0
 17 13  1  0  0  0  0
 17  2  1  0  0  0  0
 18 12  1  0  0  0  0
 19 21  1  0  0  0  0
 19  5  1  0  0  0  0
 19 25  1  0  0  0  0
 20 16  1  0  0  0  0
 21 27  1  0  0  0  0
 21 25  1  0  0  0  0
 22  6  1  0  0  0  0
 23  5  1  0  0  0  0
 23 10  1  0  0  0  0
 25 18  1  0  0  0  0
 26 12  1  0  0  0  0
 28 10  1  0  0  0  0
 29 30  1  0  0  0  0
 30 23  1  0  0  0  0
 30 31  1  0  0  0  0
 33 34  2  0  0  0  0
 34 31  1  0  0  0  0
 34 32  1  0  0  0  0
 35 29  1  0  0  0  0
 35 33  1  0  0  0  0
 36 37  1  0  0  0  0
M  END
>  <MODEL>
9

>  <REMARK>
 VINA RESULT:      -2.8      3.663      6.330
  Name = 
  2 active torsions:
  status: ('A' for Active; 'I' for Inactive)
    1  A    between atoms: C_5  and  C_23
    2  A    between atoms: C_6  and  C_31
                            x       y       z     vdW  Elec       q    Type
                         _______ _______ _______ _____ _____    ______ ____

>  <TORSDO>
F 2

$$$$
