=
 OpenBabel11052414353D

 32 37  0  0  1  0  0  0  0  0999 V2000
  186.7400  178.1290  145.4670 C   0  0  0  0  0  0  0  0  0  0  0  0
  189.0450  177.0830  145.1330 C   0  0  0  0  0  0  0  0  0  0  0  0
  185.8020  178.7620  146.2740 C   0  0  0  0  0  3  0  0  0  0  0  0
  188.0360  177.7360  145.9660 C   0  0  0  0  0  0  0  0  0  0  0  0
  190.3550  176.6290  145.7280 C   0  0  1  0  0  3  0  0  0  0  0  0
  192.2760  177.7460  140.0360 C   0  0  0  0  0  1  0  0  0  0  0  0
  188.8530  176.8230  143.7330 C   0  0  0  0  0  0  0  0  0  0  0  0
  192.0680  177.2640  142.3990 N   0  0  0  0  0  0  0  0  0  0  0  0
  191.2360  176.7590  143.3980 N   0  0  0  0  0  0  0  0  0  0  0  0
  188.3450  178.0240  147.3000 C   0  0  0  0  0  0  0  0  0  0  0  0
  186.3610  177.5630  142.7920 C   0  0  1  0  0  3  0  0  0  0  0  0
  191.5240  177.0360  144.8120 C   0  0  0  0  0  2  0  0  0  0  0  0
  189.6290  177.6840  147.8360 N   0  0  0  0  0  0  0  0  0  0  0  0
  187.3970  178.6620  148.1130 C   0  0  0  0  0  3  0  0  0  0  0  0
  187.6110  177.2020  143.3140 C   0  0  0  0  0  0  0  0  0  0  0  0
  186.5940  177.8310  144.1480 C   0  0  0  0  0  0  0  0  0  0  0  0
  189.9580  176.2370  142.9100 C   0  0  2  0  0  3  0  0  0  0  0  0
  190.5640  177.0620  147.1740 C   0  0  0  0  0  0  0  0  0  0  0  0
  186.1380  179.0240  147.6070 C   0  0  0  0  0  3  0  0  0  0  0  0
  191.5360  177.2600  141.2290 C   0  0  0  0  0  0  0  0  0  0  0  0
  189.8460  176.6810  141.1360 S   0  0  0  0  0  0  0  0  0  0  0  0
  191.7450  176.7510  147.8560 O   0  0  0  0  0  0  0  0  0  0  0  0
  192.4000  175.4950  147.7510 C   0  0  0  0  0  1  0  0  0  0  0  0
  186.4890  178.8460  141.9920 C   0  0  0  0  0  2  0  0  0  0  0  0
  185.6060  178.9600  139.6200 C   0  0  0  0  0  0  0  0  0  0  0  0
  184.6050  179.6300  139.9910 O   0  0  0  0  0  0  0  0  0  0  0  0
  185.7490  178.6240  138.2390 N   0  0  0  0  0  2  0  0  0  0  0  0
  186.5920  178.5470  140.5700 N   0  0  0  0  0  2  0  0  0  0  0  0
  187.6890  178.6440  136.7250 C   0  0  0  0  0  1  0  0  0  0  0  0
  186.8730  177.8430  137.7320 C   0  0  2  0  0  3  0  0  0  0  0  0
  186.4700  176.5850  137.2300 O   0  0  0  0  0  0  0  0  0  0  0  0
  187.5670  175.7070  137.2520 C   0  0  0  0  0  1  0  0  0  0  0  0
  1  4  2  0  0  0  0
  1  3  1  0  0  0  0
  2  5  1  0  0  0  0
  2  4  1  0  0  0  0
  3 19  2  0  0  0  0
  4 10  1  0  0  0  0
  5 12  1  6  0  0  0
  5 18  1  0  0  0  0
  6 20  1  0  0  0  0
  7  2  2  0  0  0  0
  8  9  1  0  0  0  0
  9 12  1  0  0  0  0
 10 13  1  0  0  0  0
 10 14  2  0  0  0  0
 11 24  1  6  0  0  0
 11 15  1  0  0  0  0
 11 16  1  0  0  0  0
 15  7  1  0  0  0  0
 15 16  2  0  0  0  0
 16  1  1  0  0  0  0
 17 21  1  6  0  0  0
 17  9  1  0  0  0  0
 17  7  1  0  0  0  0
 18 13  2  0  0  0  0
 18 22  1  0  0  0  0
 19 14  1  0  0  0  0
 20  8  2  0  0  0  0
 21 20  1  0  0  0  0
 23 22  1  0  0  0  0
 25 26  2  0  0  0  0
 25 28  1  0  0  0  0
 27 25  1  0  0  0  0
 28 24  1  0  0  0  0
 30 29  1  6  0  0  0
 30 27  1  0  0  0  0
 31 32  1  0  0  0  0
 31 30  1  0  0  0  0
M  END
>  <MODEL>
1

>  <REMARK>
 VINA RESULT:     -10.5      0.000      0.000
  Name = 
  5 active torsions:
  status: ('A' for Active; 'I' for Inactive)
    1  A    between atoms: O_13  and  C_29
    2  A    between atoms: O_15  and  C_26
    3  A    between atoms: C_16  and  C_23
    4  A    between atoms: N_19  and  C_26
    5  A    between atoms: N_22  and  C_23
                            x       y       z     vdW  Elec       q    Type
                         _______ _______ _______ _____ _____    ______ ____

>  <TORSDO>
F 5

$$$$
=
 OpenBabel11052414353D

 32 37  0  0  1  0  0  0  0  0999 V2000
  186.7560  178.1480  145.4530 C   0  0  0  0  0  0  0  0  0  0  0  0
  189.0500  177.0760  145.1310 C   0  0  0  0  0  0  0  0  0  0  0  0
  185.8170  178.7850  146.2560 C   0  0  0  0  0  3  0  0  0  0  0  0
  188.0420  177.7350  145.9610 C   0  0  0  0  0  0  0  0  0  0  0  0
  190.3490  176.6020  145.7350 C   0  0  1  0  0  3  0  0  0  0  0  0
  192.3390  177.7440  140.0720 C   0  0  0  0  0  1  0  0  0  0  0  0
  188.8690  176.8320  143.7270 C   0  0  0  0  0  0  0  0  0  0  0  0
  192.1020  177.2440  142.4280 N   0  0  0  0  0  0  0  0  0  0  0  0
  191.2540  176.7410  143.4140 N   0  0  0  0  0  0  0  0  0  0  0  0
  188.3410  178.0070  147.2990 C   0  0  0  0  0  0  0  0  0  0  0  0
  186.3960  177.6100  142.7690 C   0  0  1  0  0  3  0  0  0  0  0  0
  191.5310  177.0020  144.8340 C   0  0  0  0  0  2  0  0  0  0  0  0
  189.6160  177.6460  147.8450 N   0  0  0  0  0  0  0  0  0  0  0  0
  187.3930  178.6500  148.1090 C   0  0  0  0  0  3  0  0  0  0  0  0
  187.6360  177.2290  143.3000 C   0  0  0  0  0  0  0  0  0  0  0  0
  186.6190  177.8630  144.1300 C   0  0  0  0  0  0  0  0  0  0  0  0
  189.9750  176.2390  142.9100 C   0  0  2  0  0  3  0  0  0  0  0  0
  190.5490  177.0190  147.1870 C   0  0  0  0  0  0  0  0  0  0  0  0
  186.1440  179.0320  147.5950 C   0  0  0  0  0  3  0  0  0  0  0  0
  191.5810  177.2570  141.2530 C   0  0  0  0  0  0  0  0  0  0  0  0
  189.8860  176.6990  141.1390 S   0  0  0  0  0  0  0  0  0  0  0  0
  191.7200  176.6880  147.8770 O   0  0  0  0  0  0  0  0  0  0  0  0
  192.3860  175.4420  147.7320 C   0  0  0  0  0  1  0  0  0  0  0  0
  186.5470  178.8990  141.9810 C   0  0  0  0  0  2  0  0  0  0  0  0
  185.8540  178.7170  139.5510 C   0  0  0  0  0  0  0  0  0  0  0  0
  187.0230  178.4010  139.2080 O   0  0  0  0  0  0  0  0  0  0  0  0
  184.8350  178.8160  138.5550 N   0  0  0  0  0  2  0  0  0  0  0  0
  185.5460  178.9670  140.9260 N   0  0  0  0  0  2  0  0  0  0  0  0
  182.4740  178.4710  137.9560 C   0  0  0  0  0  1  0  0  0  0  0  0
  183.4590  179.1860  138.8710 C   0  0  2  0  0  3  0  0  0  0  0  0
  183.2700  180.5870  138.8860 O   0  0  0  0  0  0  0  0  0  0  0  0
  181.9390  180.8760  138.5390 C   0  0  0  0  0  1  0  0  0  0  0  0
  1  4  2  0  0  0  0
  1  3  1  0  0  0  0
  2  5  1  0  0  0  0
  2  4  1  0  0  0  0
  3 19  2  0  0  0  0
  4 10  1  0  0  0  0
  5 12  1  6  0  0  0
  5 18  1  0  0  0  0
  6 20  1  0  0  0  0
  7  2  2  0  0  0  0
  8  9  1  0  0  0  0
  9 12  1  0  0  0  0
 10 13  1  0  0  0  0
 10 14  2  0  0  0  0
 11 24  1  6  0  0  0
 11 15  1  0  0  0  0
 11 16  1  0  0  0  0
 15  7  1  0  0  0  0
 15 16  2  0  0  0  0
 16  1  1  0  0  0  0
 17 21  1  6  0  0  0
 17  9  1  0  0  0  0
 17  7  1  0  0  0  0
 18 13  2  0  0  0  0
 18 22  1  0  0  0  0
 19 14  1  0  0  0  0
 20  8  2  0  0  0  0
 21 20  1  0  0  0  0
 23 22  1  0  0  0  0
 25 28  1  0  0  0  0
 26 25  2  0  0  0  0
 27 30  1  0  0  0  0
 27 25  1  0  0  0  0
 28 24  1  0  0  0  0
 30 29  1  6  0  0  0
 30 31  1  0  0  0  0
 32 31  1  0  0  0  0
M  END
>  <MODEL>
2

>  <REMARK>
 VINA RESULT:     -10.2      1.254      2.114
  Name = 
  5 active torsions:
  status: ('A' for Active; 'I' for Inactive)
    1  A    between atoms: O_13  and  C_29
    2  A    between atoms: O_15  and  C_26
    3  A    between atoms: C_16  and  C_23
    4  A    between atoms: N_19  and  C_26
    5  A    between atoms: N_22  and  C_23
                            x       y       z     vdW  Elec       q    Type
                         _______ _______ _______ _____ _____    ______ ____

>  <TORSDO>
F 5

$$$$
=
 OpenBabel11052414353D

 32 37  0  0  1  0  0  0  0  0999 V2000
  184.9790  178.9590  142.8680 C   0  0  0  0  0  0  0  0  0  0  0  0
  184.0340  178.6130  140.5220 C   0  0  0  0  0  0  0  0  0  0  0  0
  184.7990  179.0940  144.2400 C   0  0  0  0  0  3  0  0  0  0  0  0
  183.8680  178.7720  141.9660 C   0  0  0  0  0  0  0  0  0  0  0  0
  182.8300  178.4920  139.6200 C   0  0  1  0  0  3  0  0  0  0  0  0
  186.7800  175.2030  136.3150 C   0  0  0  0  0  1  0  0  0  0  0  0
  185.3210  178.5770  139.8820 C   0  0  0  0  0  0  0  0  0  0  0  0
  184.8370  176.2940  137.2620 N   0  0  0  0  0  0  0  0  0  0  0  0
  184.3840  177.3720  138.0210 N   0  0  0  0  0  0  0  0  0  0  0  0
  182.5810  178.7100  142.5090 C   0  0  0  0  0  0  0  0  0  0  0  0
  187.4400  178.9560  141.6160 C   0  0  1  0  0  3  0  0  0  0  0  0
  183.0360  177.3500  138.6090 C   0  0  0  0  0  2  0  0  0  0  0  0
  181.4460  178.4930  141.6610 N   0  0  0  0  0  0  0  0  0  0  0  0
  182.4000  178.8470  143.8930 C   0  0  0  0  0  3  0  0  0  0  0  0
  186.3340  178.7700  140.7750 C   0  0  0  0  0  0  0  0  0  0  0  0
  186.1700  178.9530  142.2120 C   0  0  0  0  0  0  0  0  0  0  0  0
  185.4310  178.3170  138.4120 C   0  0  2  0  0  3  0  0  0  0  0  0
  181.5050  178.3870  140.3630 C   0  0  0  0  0  0  0  0  0  0  0  0
  183.4960  179.0400  144.7490 C   0  0  0  0  0  3  0  0  0  0  0  0
  186.1140  176.2690  137.1060 C   0  0  0  0  0  0  0  0  0  0  0  0
  187.0310  177.5620  137.9340 S   0  0  0  0  0  0  0  0  0  0  0  0
  180.3000  178.2320  139.6700 O   0  0  0  0  0  0  0  0  0  0  0  0
  179.3970  177.1600  139.9020 C   0  0  0  0  0  1  0  0  0  0  0  0
  188.1220  177.6240  141.8710 C   0  0  0  0  0  2  0  0  0  0  0  0
  189.5660  178.0080  143.9170 C   0  0  0  0  0  0  0  0  0  0  0  0
  190.3930  178.6800  143.2460 O   0  0  0  0  0  0  0  0  0  0  0  0
  189.7990  177.8020  145.3110 N   0  0  0  0  0  2  0  0  0  0  0  0
  188.4010  177.4610  143.2900 N   0  0  0  0  0  2  0  0  0  0  0  0
  187.6670  177.8450  146.5390 C   0  0  0  0  0  1  0  0  0  0  0  0
  188.8930  177.0270  146.1530 C   0  0  2  0  0  3  0  0  0  0  0  0
  189.5490  176.4680  147.2740 O   0  0  0  0  0  0  0  0  0  0  0  0
  190.9280  176.7170  147.1720 C   0  0  0  0  0  1  0  0  0  0  0  0
  1  3  1  0  0  0  0
  2  4  1  0  0  0  0
  3 19  2  0  0  0  0
  4 10  1  0  0  0  0
  4  1  2  0  0  0  0
  5 12  1  1  0  0  0
  5 18  1  0  0  0  0
  5  2  1  0  0  0  0
  6 20  1  0  0  0  0
  7  2  2  0  0  0  0
  7 15  1  0  0  0  0
  8  9  1  0  0  0  0
  9 17  1  0  0  0  0
  9 12  1  0  0  0  0
 10 14  2  0  0  0  0
 11 24  1  1  0  0  0
 11 16  1  0  0  0  0
 13 10  1  0  0  0  0
 14 19  1  0  0  0  0
 15 11  1  0  0  0  0
 15 16  2  0  0  0  0
 16  1  1  0  0  0  0
 17 21  1  1  0  0  0
 17  7  1  0  0  0  0
 18 13  2  0  0  0  0
 20  8  2  0  0  0  0
 20 21  1  0  0  0  0
 22 23  1  0  0  0  0
 22 18  1  0  0  0  0
 24 28  1  0  0  0  0
 25 27  1  0  0  0  0
 26 25  2  0  0  0  0
 27 30  1  0  0  0  0
 28 25  1  0  0  0  0
 30 29  1  1  0  0  0
 30 31  1  0  0  0  0
 32 31  1  0  0  0  0
M  END
>  <MODEL>
3

>  <REMARK>
 VINA RESULT:      -8.5      2.941      7.938
  Name = 
  5 active torsions:
  status: ('A' for Active; 'I' for Inactive)
    1  A    between atoms: O_13  and  C_29
    2  A    between atoms: O_15  and  C_26
    3  A    between atoms: C_16  and  C_23
    4  A    between atoms: N_19  and  C_26
    5  A    between atoms: N_22  and  C_23
                            x       y       z     vdW  Elec       q    Type
                         _______ _______ _______ _____ _____    ______ ____

>  <TORSDO>
F 5

$$$$
=
 OpenBabel11052414353D

 32 37  0  0  1  0  0  0  0  0999 V2000
  185.6740  178.7610  143.2290 C   0  0  0  0  0  0  0  0  0  0  0  0
  184.2650  178.7570  141.1000 C   0  0  0  0  0  0  0  0  0  0  0  0
  185.7770  178.7640  144.6150 C   0  0  0  0  0  3  0  0  0  0  0  0
  184.3970  178.7740  142.5570 C   0  0  0  0  0  0  0  0  0  0  0  0
  182.9040  178.8440  140.4530 C   0  0  1  0  0  3  0  0  0  0  0  0
  185.7580  175.5830  136.1450 C   0  0  0  0  0  1  0  0  0  0  0  0
  185.3920  178.6720  140.2140 C   0  0  0  0  0  0  0  0  0  0  0  0
  184.1660  176.7380  137.5560 N   0  0  0  0  0  0  0  0  0  0  0  0
  183.9880  177.7650  138.4820 N   0  0  0  0  0  0  0  0  0  0  0  0
  183.2390  178.7710  143.3410 C   0  0  0  0  0  0  0  0  0  0  0  0
  187.8330  178.6680  141.5110 C   0  0  1  0  0  3  0  0  0  0  0  0
  182.7850  177.8030  139.3260 C   0  0  0  0  0  2  0  0  0  0  0  0
  181.9460  178.7520  142.7240 N   0  0  0  0  0  0  0  0  0  0  0  0
  183.3440  178.7750  144.7390 C   0  0  0  0  0  3  0  0  0  0  0  0
  186.5730  178.6750  140.8970 C   0  0  0  0  0  0  0  0  0  0  0  0
  186.7090  178.7170  142.3480 C   0  0  0  0  0  0  0  0  0  0  0  0
  185.1890  178.5630  138.7350 C   0  0  2  0  0  3  0  0  0  0  0  0
  181.7430  178.7800  141.4370 C   0  0  0  0  0  0  0  0  0  0  0  0
  184.5980  178.7740  145.3700 C   0  0  0  0  0  3  0  0  0  0  0  0
  185.3770  176.6140  137.1450 C   0  0  0  0  0  0  0  0  0  0  0  0
  186.5740  177.7210  137.8800 S   0  0  0  0  0  0  0  0  0  0  0  0
  180.4170  178.8120  140.9900 O   0  0  0  0  0  0  0  0  0  0  0  0
  179.4320  177.8760  141.4030 C   0  0  0  0  0  1  0  0  0  0  0  0
  188.4000  177.2590  141.5050 C   0  0  0  0  0  2  0  0  0  0  0  0
  190.7020  177.2320  142.5620 C   0  0  0  0  0  0  0  0  0  0  0  0
  191.2400  177.5810  141.4780 O   0  0  0  0  0  0  0  0  0  0  0  0
  191.5240  177.0110  143.7100 N   0  0  0  0  0  2  0  0  0  0  0  0
  189.2840  177.0650  142.6460 N   0  0  0  0  0  2  0  0  0  0  0  0
  190.1840  177.7210  145.6470 C   0  0  0  0  0  1  0  0  0  0  0  0
  190.9780  176.5940  144.9980 C   0  0  2  0  0  3  0  0  0  0  0  0
  191.9700  176.0630  145.8540 O   0  0  0  0  0  0  0  0  0  0  0  0
  191.6180  176.3310  147.1890 C   0  0  0  0  0  1  0  0  0  0  0  0
  1  3  1  0  0  0  0
  2  4  1  0  0  0  0
  3 19  2  0  0  0  0
  4  1  2  0  0  0  0
  4 10  1  0  0  0  0
  5 12  1  6  0  0  0
  5  2  1  0  0  0  0
  5 18  1  0  0  0  0
  6 20  1  0  0  0  0
  7 15  1  0  0  0  0
  7  2  2  0  0  0  0
  8  9  1  0  0  0  0
  9 17  1  0  0  0  0
  9 12  1  0  0  0  0
 10 14  2  0  0  0  0
 11 24  1  1  0  0  0
 11 16  1  0  0  0  0
 13 10  1  0  0  0  0
 14 19  1  0  0  0  0
 15 11  1  0  0  0  0
 15 16  2  0  0  0  0
 16  1  1  0  0  0  0
 17 21  1  6  0  0  0
 17  7  1  0  0  0  0
 18 13  2  0  0  0  0
 20  8  2  0  0  0  0
 20 21  1  0  0  0  0
 22 23  1  0  0  0  0
 22 18  1  0  0  0  0
 24 28  1  0  0  0  0
 25 28  1  0  0  0  0
 25 27  1  0  0  0  0
 26 25  2  0  0  0  0
 27 30  1  0  0  0  0
 30 29  1  1  0  0  0
 30 31  1  0  0  0  0
 31 32  1  0  0  0  0
M  END
>  <MODEL>
4

>  <REMARK>
 VINA RESULT:      -8.5      2.876      7.688
  Name = 
  5 active torsions:
  status: ('A' for Active; 'I' for Inactive)
    1  A    between atoms: O_13  and  C_29
    2  A    between atoms: O_15  and  C_26
    3  A    between atoms: C_16  and  C_23
    4  A    between atoms: N_19  and  C_26
    5  A    between atoms: N_22  and  C_23
                            x       y       z     vdW  Elec       q    Type
                         _______ _______ _______ _____ _____    ______ ____

>  <TORSDO>
F 5

$$$$
=
 OpenBabel11052414353D

 32 37  0  0  1  0  0  0  0  0999 V2000
  189.6000  177.4040  141.8390 C   0  0  0  0  0  0  0  0  0  0  0  0
  187.3250  178.1480  142.7280 C   0  0  0  0  0  0  0  0  0  0  0  0
  190.8440  176.8170  142.0340 C   0  0  0  0  0  3  0  0  0  0  0  0
  188.6450  177.5470  142.9120 C   0  0  0  0  0  0  0  0  0  0  0  0
  186.3980  178.3360  143.9030 C   0  0  1  0  0  3  0  0  0  0  0  0
  182.1950  177.6620  139.5190 C   0  0  0  0  0  1  0  0  0  0  0  0
  186.8440  178.6010  141.4520 C   0  0  0  0  0  0  0  0  0  0  0  0
  183.4140  177.8780  141.5990 N   0  0  0  0  0  0  0  0  0  0  0  0
  184.5700  178.3690  142.2050 N   0  0  0  0  0  0  0  0  0  0  0  0
  188.9950  177.0580  144.1750 C   0  0  0  0  0  0  0  0  0  0  0  0
  188.6860  178.3410  139.4080 C   0  0  1  0  0  3  0  0  0  0  0  0
  184.9730  177.8840  143.5330 C   0  0  0  0  0  2  0  0  0  0  0  0
  188.0720  177.1460  145.2670 N   0  0  0  0  0  0  0  0  0  0  0  0
  190.2510  176.4660  144.3700 C   0  0  0  0  0  3  0  0  0  0  0  0
  187.7860  178.4550  140.4760 C   0  0  0  0  0  0  0  0  0  0  0  0
  189.1120  177.8790  140.6610 C   0  0  0  0  0  0  0  0  0  0  0  0
  185.4470  179.1210  141.3080 C   0  0  2  0  0  3  0  0  0  0  0  0
  186.8970  177.7050  145.1970 C   0  0  0  0  0  0  0  0  0  0  0  0
  191.1670  176.3490  143.3130 C   0  0  0  0  0  3  0  0  0  0  0  0
  183.3570  178.0990  140.3340 C   0  0  0  0  0  0  0  0  0  0  0  0
  184.7760  178.9180  139.6150 S   0  0  0  0  0  0  0  0  0  0  0  0
  186.1330  177.7610  146.3680 O   0  0  0  0  0  0  0  0  0  0  0  0
  185.7100  178.9770  146.9670 C   0  0  0  0  0  1  0  0  0  0  0  0
  188.3020  177.1590  138.5350 C   0  0  0  0  0  2  0  0  0  0  0  0
  190.1880  176.6410  136.9260 C   0  0  0  0  0  0  0  0  0  0  0  0
  189.8030  177.5410  136.1340 O   0  0  0  0  0  0  0  0  0  0  0  0
  191.3370  175.8610  136.5910 N   0  0  0  0  0  2  0  0  0  0  0  0
  189.4880  176.4070  138.1510 N   0  0  0  0  0  2  0  0  0  0  0  0
  193.3540  174.6670  137.3400 C   0  0  0  0  0  1  0  0  0  0  0  0
  191.8400  174.7930  137.4510 C   0  0  2  0  0  3  0  0  0  0  0  0
  191.1730  173.5670  137.2290 O   0  0  0  0  0  0  0  0  0  0  0  0
  191.5870  173.0330  135.9970 C   0  0  0  0  0  1  0  0  0  0  0  0
  1  3  2  0  0  0  0
  1  4  1  0  0  0  0
  2  4  1  0  0  0  0
  2  5  1  0  0  0  0
  3 19  1  0  0  0  0
  4 10  2  0  0  0  0
  5 12  1  6  0  0  0
  5 18  1  0  0  0  0
  6 20  1  0  0  0  0
  7  2  2  0  0  0  0
  8  9  1  0  0  0  0
  9 12  1  0  0  0  0
 10 14  1  0  0  0  0
 10 13  1  0  0  0  0
 11 24  1  6  0  0  0
 11 15  1  0  0  0  0
 11 16  1  0  0  0  0
 15 16  2  0  0  0  0
 15  7  1  0  0  0  0
 16  1  1  0  0  0  0
 17 21  1  6  0  0  0
 17  7  1  0  0  0  0
 17  9  1  0  0  0  0
 18 13  2  0  0  0  0
 18 22  1  0  0  0  0
 19 14  2  0  0  0  0
 20  8  2  0  0  0  0
 21 20  1  0  0  0  0
 22 23  1  0  0  0  0
 25 28  1  0  0  0  0
 26 25  2  0  0  0  0
 27 25  1  0  0  0  0
 27 30  1  0  0  0  0
 28 24  1  0  0  0  0
 30 29  1  6  0  0  0
 31 30  1  0  0  0  0
 32 31  1  0  0  0  0
M  END
>  <MODEL>
5

>  <REMARK>
 VINA RESULT:      -8.2      3.148      5.804
  Name = 
  5 active torsions:
  status: ('A' for Active; 'I' for Inactive)
    1  A    between atoms: O_13  and  C_29
    2  A    between atoms: O_15  and  C_26
    3  A    between atoms: C_16  and  C_23
    4  A    between atoms: N_19  and  C_26
    5  A    between atoms: N_22  and  C_23
                            x       y       z     vdW  Elec       q    Type
                         _______ _______ _______ _____ _____    ______ ____

>  <TORSDO>
F 5

$$$$
=
 OpenBabel11052414353D

 32 37  0  0  1  0  0  0  0  0999 V2000
  185.9570  178.5240  142.7690 C   0  0  0  0  0  0  0  0  0  0  0  0
  185.9020  178.5110  140.2160 C   0  0  0  0  0  0  0  0  0  0  0  0
  185.3050  178.5840  143.9950 C   0  0  0  0  0  3  0  0  0  0  0  0
  185.2390  178.5860  141.5180 C   0  0  0  0  0  0  0  0  0  0  0  0
  185.1060  178.6540  138.9420 C   0  0  1  0  0  3  0  0  0  0  0  0
  189.5540  175.0280  136.8420 C   0  0  0  0  0  1  0  0  0  0  0  0
  187.3170  178.3160  140.0700 C   0  0  0  0  0  0  0  0  0  0  0  0
  187.5490  176.3430  137.1780 N   0  0  0  0  0  0  0  0  0  0  0  0
  186.9860  177.4210  137.8600 N   0  0  0  0  0  0  0  0  0  0  0  0
  183.8450  178.6920  141.5620 C   0  0  0  0  0  0  0  0  0  0  0  0
  188.6840  178.2180  142.4710 C   0  0  1  0  0  3  0  0  0  0  0  0
  185.5260  177.5730  137.9300 C   0  0  0  0  0  2  0  0  0  0  0  0
  183.0820  178.7260  140.3490 N   0  0  0  0  0  0  0  0  0  0  0  0
  183.1890  178.7530  142.7990 C   0  0  0  0  0  3  0  0  0  0  0  0
  187.9490  178.2760  141.2780 C   0  0  0  0  0  0  0  0  0  0  0  0
  187.2950  178.3750  142.5770 C   0  0  0  0  0  0  0  0  0  0  0  0
  187.9250  178.1520  138.7120 C   0  0  2  0  0  3  0  0  0  0  0  0
  183.5980  178.7080  139.1530 C   0  0  0  0  0  0  0  0  0  0  0  0
  183.9100  178.7020  144.0030 C   0  0  0  0  0  3  0  0  0  0  0  0
  188.7800  176.1250  137.4780 C   0  0  0  0  0  0  0  0  0  0  0  0
  189.4830  177.1880  138.7330 S   0  0  0  0  0  0  0  0  0  0  0  0
  182.7210  178.8020  138.0660 O   0  0  0  0  0  0  0  0  0  0  0  0
  181.7310  177.8260  137.7760 C   0  0  0  0  0  1  0  0  0  0  0  0
  189.0560  176.7780  142.7760 C   0  0  0  0  0  2  0  0  0  0  0  0
  190.9130  177.0280  144.4810 C   0  0  0  0  0  0  0  0  0  0  0  0
  191.6970  177.4860  143.6070 O   0  0  0  0  0  0  0  0  0  0  0  0
  191.3740  176.8810  145.8250 N   0  0  0  0  0  2  0  0  0  0  0  0
  189.5740  176.6660  144.1320 N   0  0  0  0  0  2  0  0  0  0  0  0
  189.8430  177.4700  147.6580 C   0  0  0  0  0  1  0  0  0  0  0  0
  190.5310  176.3480  146.8910 C   0  0  2  0  0  3  0  0  0  0  0  0
  191.2330  175.4600  147.7370 O   0  0  0  0  0  0  0  0  0  0  0  0
  192.6070  175.7490  147.6700 C   0  0  0  0  0  1  0  0  0  0  0  0
  1  3  1  0  0  0  0
  2  4  1  0  0  0  0
  3 19  2  0  0  0  0
  4 10  1  0  0  0  0
  4  1  2  0  0  0  0
  5 12  1  6  0  0  0
  5 18  1  0  0  0  0
  5  2  1  0  0  0  0
  6 20  1  0  0  0  0
  7  2  2  0  0  0  0
  7 15  1  0  0  0  0
  8 20  2  0  0  0  0
  8  9  1  0  0  0  0
  9 12  1  0  0  0  0
  9 17  1  0  0  0  0
 10 14  2  0  0  0  0
 11 16  1  0  0  0  0
 11 24  1  1  0  0  0
 13 10  1  0  0  0  0
 14 19  1  0  0  0  0
 15 11  1  0  0  0  0
 15 16  2  0  0  0  0
 16  1  1  0  0  0  0
 17 21  1  1  0  0  0
 17  7  1  0  0  0  0
 18 13  2  0  0  0  0
 20 21  1  0  0  0  0
 22 18  1  0  0  0  0
 23 22  1  0  0  0  0
 24 28  1  0  0  0  0
 25 27  1  0  0  0  0
 26 25  2  0  0  0  0
 27 30  1  0  0  0  0
 28 25  1  0  0  0  0
 30 29  1  1  0  0  0
 30 31  1  0  0  0  0
 32 31  1  0  0  0  0
M  END
>  <MODEL>
6

>  <REMARK>
 VINA RESULT:      -8.1      2.234      7.762
  Name = 
  5 active torsions:
  status: ('A' for Active; 'I' for Inactive)
    1  A    between atoms: O_13  and  C_29
    2  A    between atoms: O_15  and  C_26
    3  A    between atoms: C_16  and  C_23
    4  A    between atoms: N_19  and  C_26
    5  A    between atoms: N_22  and  C_23
                            x       y       z     vdW  Elec       q    Type
                         _______ _______ _______ _____ _____    ______ ____

>  <TORSDO>
F 5

$$$$
=
 OpenBabel11052414353D

 32 37  0  0  1  0  0  0  0  0999 V2000
  184.4860  178.7540  140.4520 C   0  0  0  0  0  0  0  0  0  0  0  0
  186.9230  178.4170  139.7700 C   0  0  0  0  0  0  0  0  0  0  0  0
  183.1340  178.7970  140.1350 C   0  0  0  0  0  3  0  0  0  0  0  0
  185.4960  178.4810  139.4580 C   0  0  0  0  0  0  0  0  0  0  0  0
  187.9390  178.1990  138.6750 C   0  0  1  0  0  3  0  0  0  0  0  0
  190.9820  175.5770  143.2810 C   0  0  0  0  0  1  0  0  0  0  0  0
  187.4390  178.5670  141.1030 C   0  0  0  0  0  0  0  0  0  0  0  0
  190.1810  176.3780  141.1410 N   0  0  0  0  0  0  0  0  0  0  0  0
  189.4270  177.3550  140.4920 N   0  0  0  0  0  0  0  0  0  0  0  0
  185.0800  178.2380  138.1450 C   0  0  0  0  0  0  0  0  0  0  0  0
  185.4990  179.1080  142.9960 C   0  0  1  0  0  3  0  0  0  0  0  0
  188.9700  177.1420  139.1110 C   0  0  0  0  0  2  0  0  0  0  0  0
  186.0390  177.9310  137.1250 N   0  0  0  0  0  0  0  0  0  0  0  0
  183.7150  178.2830  137.8260 C   0  0  0  0  0  3  0  0  0  0  0  0
  186.4480  178.8340  142.0010 C   0  0  0  0  0  0  0  0  0  0  0  0
  185.0260  178.9240  141.6880 C   0  0  0  0  0  0  0  0  0  0  0  0
  188.9010  178.3960  141.3750 C   0  0  2  0  0  3  0  0  0  0  0  0
  187.3290  177.8980  137.3120 C   0  0  0  0  0  0  0  0  0  0  0  0
  182.7520  178.5620  138.8090 C   0  0  0  0  0  3  0  0  0  0  0  0
  190.2160  176.5140  142.4190 C   0  0  0  0  0  0  0  0  0  0  0  0
  189.2550  177.8640  143.0920 S   0  0  0  0  0  0  0  0  0  0  0  0
  188.1390  177.6360  136.2020 O   0  0  0  0  0  0  0  0  0  0  0  0
  188.0640  176.4350  135.4480 C   0  0  0  0  0  1  0  0  0  0  0  0
  185.2330  177.8560  143.8120 C   0  0  0  0  0  2  0  0  0  0  0  0
  185.6800  178.6670  146.1710 C   0  0  0  0  0  0  0  0  0  0  0  0
  184.6410  179.3780  146.1580 O   0  0  0  0  0  0  0  0  0  0  0  0
  186.5060  178.6560  147.3370 N   0  0  0  0  0  2  0  0  0  0  0  0
  186.0270  177.8710  145.0330 N   0  0  0  0  0  2  0  0  0  0  0  0
  188.2880  177.8780  148.8430 C   0  0  0  0  0  1  0  0  0  0  0  0
  187.7310  177.8670  147.4260 C   0  0  2  0  0  3  0  0  0  0  0  0
  188.6890  178.2530  146.4610 O   0  0  0  0  0  0  0  0  0  0  0  0
  189.8060  177.4050  146.5560 C   0  0  0  0  0  1  0  0  0  0  0  0
  1 16  2  0  0  0  0
  2  7  1  0  0  0  0
  3  1  1  0  0  0  0
  4  2  2  0  0  0  0
  4  1  1  0  0  0  0
  5 12  1  1  0  0  0
  5  2  1  0  0  0  0
  7 15  2  0  0  0  0
  8 20  2  0  0  0  0
  9  8  1  0  0  0  0
  9 17  1  0  0  0  0
 10  4  1  0  0  0  0
 11 24  1  1  0  0  0
 12  9  1  0  0  0  0
 13 18  2  0  0  0  0
 13 10  1  0  0  0  0
 14 10  2  0  0  0  0
 14 19  1  0  0  0  0
 15 11  1  0  0  0  0
 16 15  1  0  0  0  0
 16 11  1  0  0  0  0
 17  7  1  1  0  0  0
 17 21  1  0  0  0  0
 18  5  1  0  0  0  0
 19  3  2  0  0  0  0
 20 21  1  0  0  0  0
 20  6  1  0  0  0  0
 22 18  1  0  0  0  0
 23 22  1  0  0  0  0
 24 28  1  0  0  0  0
 25 27  1  0  0  0  0
 26 25  2  0  0  0  0
 27 30  1  0  0  0  0
 28 25  1  0  0  0  0
 30 29  1  1  0  0  0
 31 32  1  0  0  0  0
 31 30  1  0  0  0  0
M  END
>  <MODEL>
7

>  <REMARK>
 VINA RESULT:      -8.1      2.333      7.543
  Name = 
  5 active torsions:
  status: ('A' for Active; 'I' for Inactive)
    1  A    between atoms: O_13  and  C_29
    2  A    between atoms: O_15  and  C_26
    3  A    between atoms: C_16  and  C_23
    4  A    between atoms: N_19  and  C_26
    5  A    between atoms: N_22  and  C_23
                            x       y       z     vdW  Elec       q    Type
                         _______ _______ _______ _____ _____    ______ ____

>  <TORSDO>
F 5

$$$$
=
 OpenBabel11052414353D

 32 37  0  0  1  0  0  0  0  0999 V2000
  186.4670  178.4120  144.0870 C   0  0  0  0  0  0  0  0  0  0  0  0
  184.5740  178.8240  142.4240 C   0  0  0  0  0  0  0  0  0  0  0  0
  186.9120  178.1750  145.3820 C   0  0  0  0  0  3  0  0  0  0  0  0
  185.0670  178.5870  143.7800 C   0  0  0  0  0  0  0  0  0  0  0  0
  183.1070  179.0710  142.1740 C   0  0  1  0  0  3  0  0  0  0  0  0
  184.5240  176.4900  136.8190 C   0  0  0  0  0  1  0  0  0  0  0  0
  185.4340  178.8500  141.2730 C   0  0  0  0  0  0  0  0  0  0  0  0
  183.4320  177.4450  138.7570 N   0  0  0  0  0  0  0  0  0  0  0  0
  183.5740  178.3050  139.8460 N   0  0  0  0  0  0  0  0  0  0  0  0
  184.1460  178.4940  144.8270 C   0  0  0  0  0  0  0  0  0  0  0  0
  188.1130  178.5340  141.8740 C   0  0  1  0  0  3  0  0  0  0  0  0
  182.6270  178.2430  140.9680 C   0  0  0  0  0  2  0  0  0  0  0  0
  182.7420  178.6280  144.5720 N   0  0  0  0  0  0  0  0  0  0  0  0
  184.5960  178.2550  146.1340 C   0  0  0  0  0  3  0  0  0  0  0  0
  186.7450  178.6930  141.6170 C   0  0  0  0  0  0  0  0  0  0  0  0
  187.2420  178.4810  142.9710 C   0  0  0  0  0  0  0  0  0  0  0  0
  184.8590  179.0030  139.8990 C   0  0  2  0  0  3  0  0  0  0  0  0
  182.2260  178.8830  143.4030 C   0  0  0  0  0  0  0  0  0  0  0  0
  185.9650  178.1000  146.4090 C   0  0  0  0  0  3  0  0  0  0  0  0
  184.4890  177.3480  138.0310 C   0  0  0  0  0  0  0  0  0  0  0  0
  185.9150  178.2690  138.5930 S   0  0  0  0  0  0  0  0  0  0  0  0
  180.8380  179.0400  143.3260 O   0  0  0  0  0  0  0  0  0  0  0  0
  179.9450  178.5850  144.3320 C   0  0  0  0  0  1  0  0  0  0  0  0
  188.5470  177.1280  141.5020 C   0  0  0  0  0  2  0  0  0  0  0  0
  190.4390  177.1300  139.8180 C   0  0  0  0  0  0  0  0  0  0  0  0
  191.3000  177.1650  140.7370 O   0  0  0  0  0  0  0  0  0  0  0  0
  190.8710  177.1160  138.4560 N   0  0  0  0  0  2  0  0  0  0  0  0
  189.0440  177.0970  140.1340 N   0  0  0  0  0  2  0  0  0  0  0  0
  189.3170  178.4580  137.1010 C   0  0  0  0  0  1  0  0  0  0  0  0
  189.9360  177.0860  137.3360 C   0  0  2  0  0  3  0  0  0  0  0  0
  188.9660  176.0670  137.4730 O   0  0  0  0  0  0  0  0  0  0  0  0
  188.2720  175.9240  136.2590 C   0  0  0  0  0  1  0  0  0  0  0  0
  1  3  1  0  0  0  0
  2  4  1  0  0  0  0
  3 19  2  0  0  0  0
  4  1  2  0  0  0  0
  4 10  1  0  0  0  0
  5 12  1  6  0  0  0
  5  2  1  0  0  0  0
  5 18  1  0  0  0  0
  6 20  1  0  0  0  0
  7 15  1  0  0  0  0
  7  2  2  0  0  0  0
  8  9  1  0  0  0  0
  9 17  1  0  0  0  0
  9 12  1  0  0  0  0
 10 14  2  0  0  0  0
 11 24  1  6  0  0  0
 11 16  1  0  0  0  0
 13 10  1  0  0  0  0
 14 19  1  0  0  0  0
 15 11  1  0  0  0  0
 15 16  2  0  0  0  0
 16  1  1  0  0  0  0
 17 21  1  6  0  0  0
 17  7  1  0  0  0  0
 18 13  2  0  0  0  0
 20 21  1  0  0  0  0
 20  8  2  0  0  0  0
 22 18  1  0  0  0  0
 22 23  1  0  0  0  0
 25 28  1  0  0  0  0
 25 26  2  0  0  0  0
 27 25  1  0  0  0  0
 28 24  1  0  0  0  0
 30 29  1  1  0  0  0
 30 31  1  0  0  0  0
 30 27  1  0  0  0  0
 32 31  1  0  0  0  0
M  END
>  <MODEL>
8

>  <REMARK>
 VINA RESULT:      -7.8      3.356      6.275
  Name = 
  5 active torsions:
  status: ('A' for Active; 'I' for Inactive)
    1  A    between atoms: O_13  and  C_29
    2  A    between atoms: O_15  and  C_26
    3  A    between atoms: C_16  and  C_23
    4  A    between atoms: N_19  and  C_26
    5  A    between atoms: N_22  and  C_23
                            x       y       z     vdW  Elec       q    Type
                         _______ _______ _______ _____ _____    ______ ____

>  <TORSDO>
F 5

$$$$
=
 OpenBabel11052414353D

 32 37  0  0  1  0  0  0  0  0999 V2000
  185.3040  178.7260  143.1610 C   0  0  0  0  0  0  0  0  0  0  0  0
  184.2150  178.7170  140.8520 C   0  0  0  0  0  0  0  0  0  0  0  0
  185.2070  178.7350  144.5470 C   0  0  0  0  0  3  0  0  0  0  0  0
  184.1370  178.7400  142.3120 C   0  0  0  0  0  0  0  0  0  0  0  0
  182.9610  178.8070  140.0160 C   0  0  1  0  0  3  0  0  0  0  0  0
  186.3920  175.5190  136.1740 C   0  0  0  0  0  1  0  0  0  0  0  0
  185.4570  178.6260  140.1370 C   0  0  0  0  0  0  0  0  0  0  0  0
  184.6170  176.6840  137.3380 N   0  0  0  0  0  0  0  0  0  0  0  0
  184.3130  177.7160  138.2250 N   0  0  0  0  0  0  0  0  0  0  0  0
  182.8780  178.7450  142.9220 C   0  0  0  0  0  0  0  0  0  0  0  0
  187.6870  178.6190  141.7710 C   0  0  1  0  0  3  0  0  0  0  0  0
  183.0010  177.7610  138.8870 C   0  0  0  0  0  2  0  0  0  0  0  0
  181.6870  178.7260  142.1260 N   0  0  0  0  0  0  0  0  0  0  0  0
  182.7810  178.7540  144.3210 C   0  0  0  0  0  3  0  0  0  0  0  0
  186.5280  178.6280  140.9820 C   0  0  0  0  0  0  0  0  0  0  0  0
  186.4550  178.6750  142.4370 C   0  0  0  0  0  0  0  0  0  0  0  0
  185.4680  178.5110  138.6440 C   0  0  2  0  0  3  0  0  0  0  0  0
  181.6700  178.7500  140.8230 C   0  0  0  0  0  0  0  0  0  0  0  0
  183.9320  178.7520  145.1250 C   0  0  0  0  0  3  0  0  0  0  0  0
  185.8750  176.5550  137.1050 C   0  0  0  0  0  0  0  0  0  0  0  0
  186.9580  177.6620  138.0000 S   0  0  0  0  0  0  0  0  0  0  0  0
  180.4230  178.7840  140.1910 O   0  0  0  0  0  0  0  0  0  0  0  0
  179.4070  179.7220  140.5180 C   0  0  0  0  0  1  0  0  0  0  0  0
  188.2440  177.2090  141.8510 C   0  0  0  0  0  2  0  0  0  0  0  0
  190.4730  177.0980  140.6520 C   0  0  0  0  0  0  0  0  0  0  0  0
  191.0810  177.5030  141.6780 O   0  0  0  0  0  0  0  0  0  0  0  0
  191.2160  176.8130  139.4660 N   0  0  0  0  0  2  0  0  0  0  0  0
  189.0540  176.9180  140.6770 N   0  0  0  0  0  2  0  0  0  0  0  0
  191.2930  175.1200  137.6820 C   0  0  0  0  0  1  0  0  0  0  0  0
  190.5840  176.3500  138.2340 C   0  0  2  0  0  3  0  0  0  0  0  0
  190.4550  177.3810  137.2770 O   0  0  0  0  0  0  0  0  0  0  0  0
  190.0590  176.8230  136.0490 C   0  0  0  0  0  1  0  0  0  0  0  0
  1  3  1  0  0  0  0
  2  4  1  0  0  0  0
  3 19  2  0  0  0  0
  4 10  1  0  0  0  0
  4  1  2  0  0  0  0
  5 12  1  6  0  0  0
  5 18  1  0  0  0  0
  5  2  1  0  0  0  0
  6 20  1  0  0  0  0
  7  2  2  0  0  0  0
  7 15  1  0  0  0  0
  8  9  1  0  0  0  0
  9 17  1  0  0  0  0
  9 12  1  0  0  0  0
 10 14  2  0  0  0  0
 11 24  1  1  0  0  0
 11 16  1  0  0  0  0
 13 10  1  0  0  0  0
 14 19  1  0  0  0  0
 15 11  1  0  0  0  0
 15 16  2  0  0  0  0
 16  1  1  0  0  0  0
 17 21  1  1  0  0  0
 17  7  1  0  0  0  0
 18 13  2  0  0  0  0
 20  8  2  0  0  0  0
 20 21  1  0  0  0  0
 22 23  1  0  0  0  0
 22 18  1  0  0  0  0
 25 28  1  0  0  0  0
 25 26  2  0  0  0  0
 27 25  1  0  0  0  0
 28 24  1  0  0  0  0
 30 29  1  6  0  0  0
 30 27  1  0  0  0  0
 31 30  1  0  0  0  0
 32 31  1  0  0  0  0
M  END
>  <MODEL>
9

>  <REMARK>
 VINA RESULT:      -7.8      3.606      7.056
  Name = 
  5 active torsions:
  status: ('A' for Active; 'I' for Inactive)
    1  A    between atoms: O_13  and  C_29
    2  A    between atoms: O_15  and  C_26
    3  A    between atoms: C_16  and  C_23
    4  A    between atoms: N_19  and  C_26
    5  A    between atoms: N_22  and  C_23
                            x       y       z     vdW  Elec       q    Type
                         _______ _______ _______ _____ _____    ______ ____

>  <TORSDO>
F 5

$$$$
