=
 OpenBabel11052416543D

 32 35  0  0  1  0  0  0  0  0999 V2000
  188.2860  178.1300  142.0680 C   0  0  1  0  0  3  0  0  0  0  0  0
  184.7400  178.1790  145.5580 C   0  0  0  0  0  3  0  0  0  0  0  0
  185.6880  177.9440  146.5530 C   0  0  0  0  0  3  0  0  0  0  0  0
  190.6540  177.5200  142.7710 C   0  0  1  0  0  3  0  0  0  0  0  0
  191.5470  176.8490  143.8280 C   0  0  1  0  0  3  0  0  0  0  0  0
  185.1490  178.3510  144.2340 C   0  0  0  0  0  3  0  0  0  0  0  0
  186.9280  178.4780  142.5240 N   0  0  0  0  0  0  0  0  0  0  0  0
  187.4630  178.0210  144.8900 C   0  0  0  0  0  0  0  0  0  0  0  0
  188.9280  178.0400  144.5330 C   0  0  1  0  0  3  0  0  0  0  0  0
  187.0430  177.8770  146.2230 C   0  0  0  0  0  3  0  0  0  0  0  0
  186.5090  178.2790  143.8880 C   0  0  0  0  0  0  0  0  0  0  0  0
  189.7890  177.3200  145.5780 C   0  0  0  0  0  2  0  0  0  0  0  0
  190.9040  176.9700  141.5120 O   0  0  0  0  0  1  0  0  0  0  0  0
  192.0500  176.8170  146.1890 O   0  0  0  0  0  1  0  0  0  0  0  0
  189.1600  177.4320  143.1390 C   0  0  1  0  0  3  0  0  0  0  0  0
  191.2660  177.4380  145.2160 C   0  0  1  0  0  3  0  0  0  0  0  0
  190.3830  174.7320  143.1880 O   0  0  0  0  0  0  0  0  0  0  0  0
  192.3790  174.6390  144.3070 O   0  0  0  0  0  1  0  0  0  0  0  0
  191.4690  175.3460  143.7960 C   0  0  0  0  0  0  0  0  0  0  0  0
  186.0690  179.2090  141.5960 C   0  0  0  0  0  2  0  0  0  0  0  0
  183.7750  178.8670  140.8180 C   0  0  0  0  0  3  0  0  0  0  0  0
  184.9560  178.3360  141.1220 C   0  0  0  0  0  3  0  0  0  0  0  0
  182.6500  178.0050  140.3360 C   0  0  0  0  0  2  0  0  0  0  0  0
  181.3130  178.4820  140.8830 C   0  0  0  0  0  2  0  0  0  0  0  0
  181.4500  178.8950  142.3380 C   0  0  0  0  0  2  0  0  0  0  0  0
  180.1580  179.4430  142.8320 C   0  0  0  0  0  0  0  0  0  0  0  0
  179.9950  180.6870  142.9210 O   0  0  0  0  0  0  0  0  0  0  0  0
  179.1440  178.5820  143.2290 O   0  0  0  0  0  1  0  0  0  0  0  0
  188.2580  177.4210  140.8440 O   0  0  0  0  0  0  0  0  0  0  0  0
  188.5310  178.3170  139.7960 C   0  0  0  0  0  3  0  0  0  0  0  0
  189.2120  177.5700  138.6690 C   0  0  0  0  0  2  0  0  0  0  0  0
  187.7410  177.9080  138.5700 C   0  0  0  0  0  2  0  0  0  0  0  0
  1 29  1  6  0  0  0
  1  7  1  0  0  0  0
  1 15  1  0  0  0  0
  2  3  1  0  0  0  0
  4 13  1  6  0  0  0
  4 15  1  0  0  0  0
  4  5  1  0  0  0  0
  5 19  1  1  0  0  0
  5 16  1  0  0  0  0
  6  2  2  0  0  0  0
  7 11  1  0  0  0  0
  8 10  1  0  0  0  0
  9  8  1  0  0  0  0
  9 12  1  1  0  0  0
 10  3  2  0  0  0  0
 11  6  1  0  0  0  0
 11  8  2  0  0  0  0
 15  9  1  0  0  0  0
 16 12  1  0  0  0  0
 16 14  1  0  0  0  0
 17 19  2  0  0  0  0
 19 18  1  0  0  0  0
 20  7  1  0  0  0  0
 21 22  2  0  0  0  0
 22 20  1  0  0  0  0
 23 21  1  0  0  0  0
 23 24  1  0  0  0  0
 24 25  1  0  0  0  0
 25 26  1  0  0  0  0
 26 27  2  0  0  0  0
 26 28  1  0  0  0  0
 30 29  1  0  0  0  0
 31 30  1  0  0  0  0
 32 31  1  0  0  0  0
 32 30  1  0  0  0  0
M  END
>  <MODEL>
1

>  <REMARK>
 VINA RESULT:      -8.3      0.000      0.000
  Name = 
  9 active torsions:
  status: ('A' for Active; 'I' for Inactive)
    1  A    between atoms: C_1  and  C_24
    2  A    between atoms: C_2  and  C_10
    3  A    between atoms: C_2  and  C_12
    4  A    between atoms: C_3  and  O_28
    5  A    between atoms: C_7  and  C_22
    6  A    between atoms: C_8  and  O_28
    7  A    between atoms: C_9  and  N_14
    8  A    between atoms: C_9  and  C_21
    9  A    between atoms: C_10  and  C_24
                            x       y       z     vdW  Elec       q    Type
                         _______ _______ _______ _____ _____    ______ ____

>  <TORSDO>
F 9

$$$$
=
 OpenBabel11052416543D

 32 35  0  0  1  0  0  0  0  0999 V2000
  188.1930  178.2090  142.0290 C   0  0  1  0  0  3  0  0  0  0  0  0
  184.6610  178.2390  145.5320 C   0  0  0  0  0  3  0  0  0  0  0  0
  185.6110  177.9860  146.5210 C   0  0  0  0  0  3  0  0  0  0  0  0
  190.5590  177.5750  142.7150 C   0  0  1  0  0  3  0  0  0  0  0  0
  191.4520  176.8850  143.7600 C   0  0  1  0  0  3  0  0  0  0  0  0
  185.0650  178.4240  144.2090 C   0  0  0  0  0  3  0  0  0  0  0  0
  186.8390  178.5600  142.4930 N   0  0  0  0  0  0  0  0  0  0  0  0
  187.3800  178.0710  144.8520 C   0  0  0  0  0  0  0  0  0  0  0  0
  188.8440  178.0850  144.4900 C   0  0  1  0  0  3  0  0  0  0  0  0
  186.9640  177.9130  146.1850 C   0  0  0  0  0  3  0  0  0  0  0  0
  186.4240  178.3470  143.8570 C   0  0  0  0  0  0  0  0  0  0  0  0
  189.7040  177.3460  145.5220 C   0  0  0  0  0  2  0  0  0  0  0  0
  190.8020  177.0390  141.4480 O   0  0  0  0  0  1  0  0  0  0  0  0
  191.9640  176.8220  146.1190 O   0  0  0  0  0  1  0  0  0  0  0  0
  189.0670  177.4920  143.0880 C   0  0  1  0  0  3  0  0  0  0  0  0
  191.1800  177.4590  145.1570 C   0  0  1  0  0  3  0  0  0  0  0  0
  192.3680  174.6220  144.2920 O   0  0  0  0  0  1  0  0  0  0  0  0
  190.3910  174.8090  143.1530 O   0  0  0  0  0  0  0  0  0  0  0  0
  191.3640  175.3830  143.7100 C   0  0  0  0  0  0  0  0  0  0  0  0
  185.9810  179.3080  141.5780 C   0  0  0  0  0  2  0  0  0  0  0  0
  184.1840  178.8380  139.9870 C   0  0  0  0  0  3  0  0  0  0  0  0
  184.9400  178.4130  140.9950 C   0  0  0  0  0  3  0  0  0  0  0  0
  183.1390  177.9500  139.3870 C   0  0  0  0  0  2  0  0  0  0  0  0
  182.6810  178.4700  138.0320 C   0  0  0  0  0  2  0  0  0  0  0  0
  181.3030  179.0990  138.1420 C   0  0  0  0  0  2  0  0  0  0  0  0
  181.3830  180.5500  137.8210 C   0  0  0  0  0  0  0  0  0  0  0  0
  182.1700  181.2930  138.4620 O   0  0  0  0  0  1  0  0  0  0  0  0
  180.5630  181.0910  136.8400 O   0  0  0  0  0  0  0  0  0  0  0  0
  188.1560  177.5150  140.7960 O   0  0  0  0  0  0  0  0  0  0  0  0
  188.4290  178.4220  139.7580 C   0  0  0  0  0  3  0  0  0  0  0  0
  189.1480  177.6960  138.6410 C   0  0  0  0  0  2  0  0  0  0  0  0
  187.6730  178.0010  138.5150 C   0  0  0  0  0  2  0  0  0  0  0  0
  1 29  1  6  0  0  0
  1  7  1  0  0  0  0
  1 15  1  0  0  0  0
  2  3  1  0  0  0  0
  4 13  1  6  0  0  0
  4 15  1  0  0  0  0
  4  5  1  0  0  0  0
  5 19  1  1  0  0  0
  5 16  1  0  0  0  0
  6  2  2  0  0  0  0
  7 11  1  0  0  0  0
  8 10  1  0  0  0  0
  9  8  1  0  0  0  0
  9 12  1  1  0  0  0
 10  3  2  0  0  0  0
 11  6  1  0  0  0  0
 11  8  2  0  0  0  0
 15  9  1  0  0  0  0
 16 12  1  0  0  0  0
 16 14  1  0  0  0  0
 18 19  2  0  0  0  0
 19 17  1  0  0  0  0
 20  7  1  0  0  0  0
 21 22  2  0  0  0  0
 22 20  1  0  0  0  0
 23 21  1  0  0  0  0
 24 25  1  0  0  0  0
 24 23  1  0  0  0  0
 26 25  1  0  0  0  0
 26 27  1  0  0  0  0
 28 26  2  0  0  0  0
 30 29  1  0  0  0  0
 31 30  1  0  0  0  0
 32 31  1  0  0  0  0
 32 30  1  0  0  0  0
M  END
>  <MODEL>
2

>  <REMARK>
 VINA RESULT:      -7.7      1.836      2.110
  Name = 
  9 active torsions:
  status: ('A' for Active; 'I' for Inactive)
    1  A    between atoms: C_1  and  C_24
    2  A    between atoms: C_2  and  C_10
    3  A    between atoms: C_2  and  C_12
    4  A    between atoms: C_3  and  O_28
    5  A    between atoms: C_7  and  C_22
    6  A    between atoms: C_8  and  O_28
    7  A    between atoms: C_9  and  N_14
    8  A    between atoms: C_9  and  C_21
    9  A    between atoms: C_10  and  C_24
                            x       y       z     vdW  Elec       q    Type
                         _______ _______ _______ _____ _____    ______ ____

>  <TORSDO>
F 9

$$$$
=
 OpenBabel11052416543D

 32 35  0  0  1  0  0  0  0  0999 V2000
  188.2720  178.1740  142.0590 C   0  0  1  0  0  3  0  0  0  0  0  0
  184.7070  178.1840  145.5290 C   0  0  0  0  0  3  0  0  0  0  0  0
  185.6490  177.9350  146.5270 C   0  0  0  0  0  3  0  0  0  0  0  0
  190.6350  177.5510  142.7670 C   0  0  1  0  0  3  0  0  0  0  0  0
  191.5210  176.8640  143.8200 C   0  0  1  0  0  3  0  0  0  0  0  0
  185.1230  178.3730  144.2100 C   0  0  0  0  0  3  0  0  0  0  0  0
  186.9120  178.5180  142.5110 N   0  0  0  0  0  0  0  0  0  0  0  0
  187.4330  178.0300  144.8740 C   0  0  0  0  0  0  0  0  0  0  0  0
  188.9000  178.0510  144.5260 C   0  0  1  0  0  3  0  0  0  0  0  0
  187.0060  177.8690  146.2030 C   0  0  0  0  0  3  0  0  0  0  0  0
  186.4850  178.3030  143.8710 C   0  0  0  0  0  0  0  0  0  0  0  0
  189.7550  177.3160  145.5660 C   0  0  0  0  0  2  0  0  0  0  0  0
  190.8910  177.0160  141.5020 O   0  0  0  0  0  1  0  0  0  0  0  0
  192.0110  176.8010  146.1830 O   0  0  0  0  0  1  0  0  0  0  0  0
  189.1390  177.4600  143.1250 C   0  0  1  0  0  3  0  0  0  0  0  0
  191.2330  177.4350  145.2140 C   0  0  1  0  0  3  0  0  0  0  0  0
  190.3630  174.7570  143.1360 O   0  0  0  0  0  0  0  0  0  0  0  0
  192.3410  174.6460  144.2840 O   0  0  0  0  0  1  0  0  0  0  0  0
  191.4410  175.3610  143.7680 C   0  0  0  0  0  0  0  0  0  0  0  0
  186.0590  179.2630  141.5880 C   0  0  0  0  0  2  0  0  0  0  0  0
  184.0750  178.8730  140.2130 C   0  0  0  0  0  3  0  0  0  0  0  0
  184.9590  178.3920  141.0820 C   0  0  0  0  0  3  0  0  0  0  0  0
  182.9680  178.0110  139.6910 C   0  0  0  0  0  2  0  0  0  0  0  0
  183.1770  177.6690  138.2220 C   0  0  0  0  0  2  0  0  0  0  0  0
  183.5940  176.2170  138.0680 C   0  0  0  0  0  2  0  0  0  0  0  0
  184.6450  176.1020  137.0210 C   0  0  0  0  0  0  0  0  0  0  0  0
  185.1890  174.9900  136.7950 O   0  0  0  0  0  1  0  0  0  0  0  0
  185.0530  177.2270  136.3190 O   0  0  0  0  0  0  0  0  0  0  0  0
  188.2500  177.4810  140.8260 O   0  0  0  0  0  0  0  0  0  0  0  0
  188.4660  178.4010  139.7850 C   0  0  0  0  0  3  0  0  0  0  0  0
  189.2150  177.7150  138.6630 C   0  0  0  0  0  2  0  0  0  0  0  0
  187.7250  177.9390  138.5480 C   0  0  0  0  0  2  0  0  0  0  0  0
  1 29  1  6  0  0  0
  1  7  1  0  0  0  0
  1 15  1  0  0  0  0
  2  3  1  0  0  0  0
  4 13  1  6  0  0  0
  4 15  1  0  0  0  0
  4  5  1  0  0  0  0
  5 19  1  1  0  0  0
  5 16  1  0  0  0  0
  6  2  2  0  0  0  0
  7 11  1  0  0  0  0
  8 10  1  0  0  0  0
  9  8  1  0  0  0  0
  9 12  1  1  0  0  0
 10  3  2  0  0  0  0
 11  6  1  0  0  0  0
 11  8  2  0  0  0  0
 15  9  1  0  0  0  0
 16 12  1  0  0  0  0
 16 14  1  0  0  0  0
 17 19  2  0  0  0  0
 19 18  1  0  0  0  0
 20  7  1  0  0  0  0
 21 22  2  0  0  0  0
 22 20  1  0  0  0  0
 23 21  1  0  0  0  0
 24 23  1  0  0  0  0
 25 24  1  0  0  0  0
 26 25  1  0  0  0  0
 27 26  1  0  0  0  0
 28 26  2  0  0  0  0
 30 29  1  0  0  0  0
 31 30  1  0  0  0  0
 32 31  1  0  0  0  0
 32 30  1  0  0  0  0
M  END
>  <MODEL>
3

>  <REMARK>
 VINA RESULT:      -7.6      2.506      3.004
  Name = 
  9 active torsions:
  status: ('A' for Active; 'I' for Inactive)
    1  A    between atoms: C_1  and  C_24
    2  A    between atoms: C_2  and  C_10
    3  A    between atoms: C_2  and  C_12
    4  A    between atoms: C_3  and  O_28
    5  A    between atoms: C_7  and  C_22
    6  A    between atoms: C_8  and  O_28
    7  A    between atoms: C_9  and  N_14
    8  A    between atoms: C_9  and  C_21
    9  A    between atoms: C_10  and  C_24
                            x       y       z     vdW  Elec       q    Type
                         _______ _______ _______ _____ _____    ______ ____

>  <TORSDO>
F 9

$$$$
=
 OpenBabel11052416543D

 32 35  0  0  1  0  0  0  0  0999 V2000
  185.7020  178.1310  139.4100 C   0  0  1  0  0  3  0  0  0  0  0  0
  184.3830  179.7740  143.9160 C   0  0  0  0  0  3  0  0  0  0  0  0
  183.0790  179.3180  143.7230 C   0  0  0  0  0  3  0  0  0  0  0  0
  183.8870  177.1940  137.8950 C   0  0  1  0  0  3  0  0  0  0  0  0
  182.3820  177.1180  137.5890 C   0  0  1  0  0  3  0  0  0  0  0  0
  185.3550  179.5340  142.9450 C   0  0  0  0  0  3  0  0  0  0  0  0
  186.0460  178.5830  140.7700 N   0  0  0  0  0  0  0  0  0  0  0  0
  183.7120  178.4050  141.5580 C   0  0  0  0  0  0  0  0  0  0  0  0
  183.3910  177.5840  140.3350 C   0  0  1  0  0  3  0  0  0  0  0  0
  182.7480  178.6280  142.5560 C   0  0  0  0  0  3  0  0  0  0  0  0
  185.0330  178.8460  141.7620 C   0  0  0  0  0  0  0  0  0  0  0  0
  181.8900  177.5680  140.0240 C   0  0  0  0  0  2  0  0  0  0  0  0
  184.5850  177.6250  136.7630 O   0  0  0  0  0  1  0  0  0  0  0  0
  180.2370  176.6140  138.5770 O   0  0  0  0  0  1  0  0  0  0  0  0
  184.1830  178.0870  139.1150 C   0  0  1  0  0  3  0  0  0  0  0  0
  181.6080  176.6600  138.8320 C   0  0  1  0  0  3  0  0  0  0  0  0
  181.3400  178.3690  135.6930 O   0  0  0  0  0  0  0  0  0  0  0  0
  181.8230  179.4620  137.6450 O   0  0  0  0  0  1  0  0  0  0  0  0
  181.8380  178.3870  136.9880 C   0  0  0  0  0  0  0  0  0  0  0  0
  187.4560  178.5780  141.1510 C   0  0  0  0  0  2  0  0  0  0  0  0
  188.4870  177.8210  143.2350 C   0  0  0  0  0  3  0  0  0  0  0  0
  187.7070  177.5420  142.1940 C   0  0  0  0  0  3  0  0  0  0  0  0
  188.7450  176.7940  144.2940 C   0  0  0  0  0  2  0  0  0  0  0  0
  188.3940  177.3240  145.6770 C   0  0  0  0  0  2  0  0  0  0  0  0
  186.9080  177.6220  145.7710 C   0  0  0  0  0  2  0  0  0  0  0  0
  186.6150  178.3330  147.0450 C   0  0  0  0  0  0  0  0  0  0  0  0
  187.3830  178.1980  148.0320 O   0  0  0  0  0  1  0  0  0  0  0  0
  185.4740  179.1160  147.1570 O   0  0  0  0  0  0  0  0  0  0  0  0
  186.4250  178.8480  138.4270 O   0  0  0  0  0  0  0  0  0  0  0  0
  187.4700  178.0360  137.9510 C   0  0  0  0  0  3  0  0  0  0  0  0
  187.8310  178.4650  136.5450 C   0  0  0  0  0  2  0  0  0  0  0  0
  188.6970  178.8910  137.7090 C   0  0  0  0  0  2  0  0  0  0  0  0
  1 29  1  6  0  0  0
  1  7  1  0  0  0  0
  3  2  1  0  0  0  0
  4 13  1  6  0  0  0
  4 15  1  0  0  0  0
  5 19  1  1  0  0  0
  5  4  1  0  0  0  0
  5 16  1  0  0  0  0
  6  2  2  0  0  0  0
  7 20  1  0  0  0  0
  7 11  1  0  0  0  0
  8 11  2  0  0  0  0
  8 10  1  0  0  0  0
  9 12  1  6  0  0  0
  9  8  1  0  0  0  0
 10  3  2  0  0  0  0
 11  6  1  0  0  0  0
 14 16  1  0  0  0  0
 15  1  1  0  0  0  0
 15  9  1  0  0  0  0
 16 12  1  0  0  0  0
 17 19  2  0  0  0  0
 19 18  1  0  0  0  0
 20 22  1  0  0  0  0
 21 23  1  0  0  0  0
 22 21  2  0  0  0  0
 23 24  1  0  0  0  0
 24 25  1  0  0  0  0
 25 26  1  0  0  0  0
 26 28  2  0  0  0  0
 26 27  1  0  0  0  0
 30 29  1  0  0  0  0
 31 32  1  0  0  0  0
 31 30  1  0  0  0  0
 32 30  1  0  0  0  0
M  END
>  <MODEL>
4

>  <REMARK>
 VINA RESULT:      -7.4      3.122      7.498
  Name = 
  9 active torsions:
  status: ('A' for Active; 'I' for Inactive)
    1  A    between atoms: C_1  and  C_24
    2  A    between atoms: C_2  and  C_10
    3  A    between atoms: C_2  and  C_12
    4  A    between atoms: C_3  and  O_28
    5  A    between atoms: C_7  and  C_22
    6  A    between atoms: C_8  and  O_28
    7  A    between atoms: C_9  and  N_14
    8  A    between atoms: C_9  and  C_21
    9  A    between atoms: C_10  and  C_24
                            x       y       z     vdW  Elec       q    Type
                         _______ _______ _______ _____ _____    ______ ____

>  <TORSDO>
F 9

$$$$
=
 OpenBabel11052416543D

 32 35  0  0  1  0  0  0  0  0999 V2000
  188.6570  177.7770  139.1420 C   0  0  1  0  0  3  0  0  0  0  0  0
  190.0250  177.4780  143.9160 C   0  0  0  0  0  3  0  0  0  0  0  0
  191.3200  177.1230  143.5440 C   0  0  0  0  0  3  0  0  0  0  0  0
  190.3330  177.0650  137.3660 C   0  0  1  0  0  3  0  0  0  0  0  0
  191.6110  176.2690  137.0520 C   0  0  1  0  0  3  0  0  0  0  0  0
  189.0800  177.7920  142.9370 C   0  0  0  0  0  3  0  0  0  0  0  0
  188.4450  178.0880  140.5670 N   0  0  0  0  0  0  0  0  0  0  0  0
  190.7190  177.3640  141.1980 C   0  0  0  0  0  0  0  0  0  0  0  0
  191.1060  177.4050  139.7410 C   0  0  1  0  0  3  0  0  0  0  0  0
  191.6690  177.0760  142.1920 C   0  0  0  0  0  3  0  0  0  0  0  0
  189.4170  177.7430  141.5740 C   0  0  0  0  0  0  0  0  0  0  0  0
  192.3530  176.5630  139.4470 C   0  0  0  0  0  2  0  0  0  0  0  0
  189.2940  176.6560  136.5260 O   0  0  0  0  0  1  0  0  0  0  0  0
  193.9100  175.9680  137.7260 O   0  0  0  0  0  1  0  0  0  0  0  0
  189.9350  176.9540  138.8500 C   0  0  1  0  0  3  0  0  0  0  0  0
  192.7510  176.7030  137.9820 C   0  0  1  0  0  3  0  0  0  0  0  0
  191.9100  174.0210  136.0030 O   0  0  0  0  0  0  0  0  0  0  0  0
  190.7460  174.2130  137.9640 O   0  0  0  0  0  1  0  0  0  0  0  0
  191.3900  174.7800  137.0410 C   0  0  0  0  0  0  0  0  0  0  0  0
  187.3010  178.9280  140.9150 C   0  0  0  0  0  2  0  0  0  0  0  0
  185.3830  178.8590  142.4310 C   0  0  0  0  0  3  0  0  0  0  0  0
  186.5360  178.3210  142.0420 C   0  0  0  0  0  3  0  0  0  0  0  0
  184.6000  178.2590  143.5570 C   0  0  0  0  0  2  0  0  0  0  0  0
  185.0060  178.8580  144.8960 C   0  0  0  0  0  2  0  0  0  0  0  0
  185.9440  177.9200  145.6350 C   0  0  0  0  0  2  0  0  0  0  0  0
  186.3380  178.5230  146.9370 C   0  0  0  0  0  0  0  0  0  0  0  0
  185.7000  179.5060  147.3940 O   0  0  0  0  0  0  0  0  0  0  0  0
  187.4320  178.0250  147.6310 O   0  0  0  0  0  1  0  0  0  0  0  0
  187.5000  177.2090  138.5570 O   0  0  0  0  0  0  0  0  0  0  0  0
  186.8280  178.2040  137.8250 C   0  0  0  0  0  3  0  0  0  0  0  0
  185.9820  177.5480  136.7550 C   0  0  0  0  0  2  0  0  0  0  0  0
  185.3350  178.0500  138.0260 C   0  0  0  0  0  2  0  0  0  0  0  0
  1 29  1  1  0  0  0
  1  7  1  0  0  0  0
  3  2  1  0  0  0  0
  4 13  1  6  0  0  0
  4 15  1  0  0  0  0
  5 19  1  1  0  0  0
  5  4  1  0  0  0  0
  5 16  1  0  0  0  0
  6  2  2  0  0  0  0
  7 20  1  0  0  0  0
  7 11  1  0  0  0  0
  8 11  2  0  0  0  0
  8 10  1  0  0  0  0
  9 12  1  1  0  0  0
  9  8  1  0  0  0  0
 10  3  2  0  0  0  0
 11  6  1  0  0  0  0
 14 16  1  0  0  0  0
 15  1  1  0  0  0  0
 15  9  1  0  0  0  0
 16 12  1  0  0  0  0
 17 19  2  0  0  0  0
 19 18  1  0  0  0  0
 20 22  1  0  0  0  0
 21 23  1  0  0  0  0
 22 21  2  0  0  0  0
 23 24  1  0  0  0  0
 24 25  1  0  0  0  0
 25 26  1  0  0  0  0
 26 27  2  0  0  0  0
 26 28  1  0  0  0  0
 30 32  1  0  0  0  0
 30 29  1  0  0  0  0
 31 30  1  0  0  0  0
 31 32  1  0  0  0  0
M  END
>  <MODEL>
5

>  <REMARK>
 VINA RESULT:      -7.4      3.271      5.505
  Name = 
  9 active torsions:
  status: ('A' for Active; 'I' for Inactive)
    1  A    between atoms: C_1  and  C_24
    2  A    between atoms: C_2  and  C_10
    3  A    between atoms: C_2  and  C_12
    4  A    between atoms: C_3  and  O_28
    5  A    between atoms: C_7  and  C_22
    6  A    between atoms: C_8  and  O_28
    7  A    between atoms: C_9  and  N_14
    8  A    between atoms: C_9  and  C_21
    9  A    between atoms: C_10  and  C_24
                            x       y       z     vdW  Elec       q    Type
                         _______ _______ _______ _____ _____    ______ ____

>  <TORSDO>
F 9

$$$$
=
 OpenBabel11052416543D

 32 35  0  0  1  0  0  0  0  0999 V2000
  186.1340  178.0580  140.9560 C   0  0  1  0  0  3  0  0  0  0  0  0
  185.0680  178.7940  145.7590 C   0  0  0  0  0  3  0  0  0  0  0  0
  183.7190  178.9680  145.4540 C   0  0  0  0  0  3  0  0  0  0  0  0
  184.2730  178.3740  139.2510 C   0  0  1  0  0  3  0  0  0  0  0  0
  182.8960  178.9900  138.9520 C   0  0  1  0  0  3  0  0  0  0  0  0
  185.9730  178.4620  144.7500 C   0  0  0  0  0  3  0  0  0  0  0  0
  186.4750  177.9460  142.3850 N   0  0  0  0  0  0  0  0  0  0  0  0
  184.1830  178.5060  143.1100 C   0  0  0  0  0  0  0  0  0  0  0  0
  183.7050  178.2480  141.7030 C   0  0  1  0  0  3  0  0  0  0  0  0
  183.2760  178.8140  144.1390 C   0  0  0  0  0  3  0  0  0  0  0  0
  185.5410  178.3100  143.4210 C   0  0  0  0  0  0  0  0  0  0  0  0
  182.3550  178.9170  141.4170 C   0  0  0  0  0  2  0  0  0  0  0  0
  185.2000  178.7810  138.2880 O   0  0  0  0  0  1  0  0  0  0  0  0
  180.6290  179.1350  139.7700 O   0  0  0  0  0  1  0  0  0  0  0  0
  184.7550  178.7050  140.6760 C   0  0  1  0  0  3  0  0  0  0  0  0
  181.8760  178.5590  140.0140 C   0  0  1  0  0  3  0  0  0  0  0  0
  184.1800  181.1220  138.7190 O   0  0  0  0  0  1  0  0  0  0  0  0
  181.8930  181.1550  138.6140 O   0  0  0  0  0  0  0  0  0  0  0  0
  182.9490  180.4820  138.7540 C   0  0  0  0  0  0  0  0  0  0  0  0
  187.7250  177.2750  142.7330 C   0  0  0  0  0  2  0  0  0  0  0  0
  189.9700  178.1170  143.2170 C   0  0  0  0  0  3  0  0  0  0  0  0
  188.6570  178.2300  143.4000 C   0  0  0  0  0  3  0  0  0  0  0  0
  190.9180  179.0710  143.8750 C   0  0  0  0  0  2  0  0  0  0  0  0
  192.0160  178.3310  144.6270 C   0  0  0  0  0  2  0  0  0  0  0  0
  191.5720  176.9170  144.9600 C   0  0  0  0  0  2  0  0  0  0  0  0
  191.1810  176.8350  146.3930 C   0  0  0  0  0  0  0  0  0  0  0  0
  192.0560  176.6300  147.2730 O   0  0  0  0  0  1  0  0  0  0  0  0
  189.8460  176.9490  146.7570 O   0  0  0  0  0  0  0  0  0  0  0  0
  187.1780  178.6640  140.2180 O   0  0  0  0  0  0  0  0  0  0  0  0
  187.9870  177.6560  139.6650 C   0  0  0  0  0  3  0  0  0  0  0  0
  188.4710  178.1010  138.3010 C   0  0  0  0  0  2  0  0  0  0  0  0
  189.3960  178.1840  139.4940 C   0  0  0  0  0  2  0  0  0  0  0  0
  1 29  1  6  0  0  0
  1  7  1  0  0  0  0
  3  2  1  0  0  0  0
  4 13  1  6  0  0  0
  4 15  1  0  0  0  0
  5 19  1  1  0  0  0
  5  4  1  0  0  0  0
  5 16  1  0  0  0  0
  6  2  2  0  0  0  0
  7 20  1  0  0  0  0
  7 11  1  0  0  0  0
  8 11  2  0  0  0  0
  8 10  1  0  0  0  0
  9 12  1  6  0  0  0
  9  8  1  0  0  0  0
 10  3  2  0  0  0  0
 11  6  1  0  0  0  0
 14 16  1  0  0  0  0
 15  1  1  0  0  0  0
 15  9  1  0  0  0  0
 16 12  1  0  0  0  0
 17 19  1  0  0  0  0
 18 19  2  0  0  0  0
 20 22  1  0  0  0  0
 21 22  2  0  0  0  0
 21 23  1  0  0  0  0
 23 24  1  0  0  0  0
 24 25  1  0  0  0  0
 25 26  1  0  0  0  0
 26 28  2  0  0  0  0
 26 27  1  0  0  0  0
 30 29  1  0  0  0  0
 31 32  1  0  0  0  0
 31 30  1  0  0  0  0
 32 30  1  0  0  0  0
M  END
>  <MODEL>
6

>  <REMARK>
 VINA RESULT:      -7.4      2.092      7.800
  Name = 
  9 active torsions:
  status: ('A' for Active; 'I' for Inactive)
    1  A    between atoms: C_1  and  C_24
    2  A    between atoms: C_2  and  C_10
    3  A    between atoms: C_2  and  C_12
    4  A    between atoms: C_3  and  O_28
    5  A    between atoms: C_7  and  C_22
    6  A    between atoms: C_8  and  O_28
    7  A    between atoms: C_9  and  N_14
    8  A    between atoms: C_9  and  C_21
    9  A    between atoms: C_10  and  C_24
                            x       y       z     vdW  Elec       q    Type
                         _______ _______ _______ _____ _____    ______ ____

>  <TORSDO>
F 9

$$$$
=
 OpenBabel11052416543D

 32 35  0  0  1  0  0  0  0  0999 V2000
  186.0850  178.6240  139.7620 C   0  0  1  0  0  3  0  0  0  0  0  0
  189.2550  177.3960  143.3930 C   0  0  0  0  0  3  0  0  0  0  0  0
  190.2480  177.1100  142.4570 C   0  0  0  0  0  3  0  0  0  0  0  0
  186.8180  178.2590  137.3530 C   0  0  1  0  0  3  0  0  0  0  0  0
  187.7810  177.5300  136.4010 C   0  0  1  0  0  3  0  0  0  0  0  0
  188.0240  177.9000  142.9710 C   0  0  0  0  0  3  0  0  0  0  0  0
  186.5030  178.6540  141.1750 N   0  0  0  0  0  0  0  0  0  0  0  0
  188.7630  177.8060  140.6590 C   0  0  0  0  0  0  0  0  0  0  0  0
  188.5220  178.1260  139.2060 C   0  0  1  0  0  3  0  0  0  0  0  0
  190.0080  177.3250  141.0990 C   0  0  0  0  0  3  0  0  0  0  0  0
  187.7680  178.1140  141.6050 C   0  0  0  0  0  0  0  0  0  0  0  0
  189.4600  177.3490  138.2760 C   0  0  0  0  0  2  0  0  0  0  0  0
  185.4950  178.0270  136.9680 O   0  0  0  0  0  1  0  0  0  0  0  0
  190.1180  177.0890  135.9870 O   0  0  0  0  0  1  0  0  0  0  0  0
  187.0540  177.8640  138.8240 C   0  0  1  0  0  3  0  0  0  0  0  0
  189.2350  177.7670  136.8280 C   0  0  1  0  0  3  0  0  0  0  0  0
  187.2410  175.5690  134.9490 O   0  0  0  0  0  0  0  0  0  0  0  0
  187.3540  175.3050  137.2200 O   0  0  0  0  0  1  0  0  0  0  0  0
  187.4450  176.0730  136.2250 C   0  0  0  0  0  0  0  0  0  0  0  0
  185.6800  179.4190  142.1090 C   0  0  0  0  0  2  0  0  0  0  0  0
  185.0540  179.2120  144.4640 C   0  0  0  0  0  3  0  0  0  0  0  0
  185.3900  178.6090  143.3270 C   0  0  0  0  0  3  0  0  0  0  0  0
  184.7540  178.4120  145.6940 C   0  0  0  0  0  2  0  0  0  0  0  0
  185.8630  178.5490  146.7270 C   0  0  0  0  0  2  0  0  0  0  0  0
  186.9400  177.5040  146.4920 C   0  0  0  0  0  2  0  0  0  0  0  0
  188.1050  177.7710  147.3790 C   0  0  0  0  0  0  0  0  0  0  0  0
  189.2560  177.8860  146.8860 O   0  0  0  0  0  0  0  0  0  0  0  0
  187.9270  177.8560  148.7530 O   0  0  0  0  0  1  0  0  0  0  0  0
  184.7450  178.1890  139.6250 O   0  0  0  0  0  0  0  0  0  0  0  0
  183.9110  179.3160  139.5240 C   0  0  0  0  0  3  0  0  0  0  0  0
  182.7240  178.9780  138.6460 C   0  0  0  0  0  2  0  0  0  0  0  0
  182.5680  179.0020  140.1500 C   0  0  0  0  0  2  0  0  0  0  0  0
  1 29  1  1  0  0  0
  1  7  1  0  0  0  0
  3  2  2  0  0  0  0
  4 13  1  6  0  0  0
  4 15  1  0  0  0  0
  5 19  1  1  0  0  0
  5 16  1  0  0  0  0
  5  4  1  0  0  0  0
  6  2  1  0  0  0  0
  7 11  1  0  0  0  0
  7 20  1  0  0  0  0
  8 10  2  0  0  0  0
  8 11  1  0  0  0  0
  9 12  1  6  0  0  0
  9  8  1  0  0  0  0
 10  3  1  0  0  0  0
 11  6  2  0  0  0  0
 14 16  1  0  0  0  0
 15  9  1  0  0  0  0
 15  1  1  0  0  0  0
 16 12  1  0  0  0  0
 17 19  2  0  0  0  0
 19 18  1  0  0  0  0
 20 22  1  0  0  0  0
 21 23  1  0  0  0  0
 22 21  2  0  0  0  0
 23 24  1  0  0  0  0
 25 24  1  0  0  0  0
 25 26  1  0  0  0  0
 26 28  1  0  0  0  0
 27 26  2  0  0  0  0
 30 29  1  0  0  0  0
 30 32  1  0  0  0  0
 31 30  1  0  0  0  0
 31 32  1  0  0  0  0
M  END
>  <MODEL>
7

>  <REMARK>
 VINA RESULT:      -7.2      2.815      6.623
  Name = 
  9 active torsions:
  status: ('A' for Active; 'I' for Inactive)
    1  A    between atoms: C_1  and  C_24
    2  A    between atoms: C_2  and  C_10
    3  A    between atoms: C_2  and  C_12
    4  A    between atoms: C_3  and  O_28
    5  A    between atoms: C_7  and  C_22
    6  A    between atoms: C_8  and  O_28
    7  A    between atoms: C_9  and  N_14
    8  A    between atoms: C_9  and  C_21
    9  A    between atoms: C_10  and  C_24
                            x       y       z     vdW  Elec       q    Type
                         _______ _______ _______ _____ _____    ______ ____

>  <TORSDO>
F 9

$$$$
=
 OpenBabel11052416543D

 32 35  0  0  1  0  0  0  0  0999 V2000
  185.6050  178.1650  139.5350 C   0  0  1  0  0  3  0  0  0  0  0  0
  184.3610  179.7950  144.0680 C   0  0  0  0  0  3  0  0  0  0  0  0
  183.0590  179.3260  143.9010 C   0  0  0  0  0  3  0  0  0  0  0  0
  183.7680  177.2080  138.0580 C   0  0  1  0  0  3  0  0  0  0  0  0
  182.2580  177.1170  137.7840 C   0  0  1  0  0  3  0  0  0  0  0  0
  185.3160  179.5660  143.0760 C   0  0  0  0  0  3  0  0  0  0  0  0
  185.9710  178.6210  140.8880 N   0  0  0  0  0  0  0  0  0  0  0  0
  183.6570  178.4190  141.7240 C   0  0  0  0  0  0  0  0  0  0  0  0
  183.3190  177.5940  140.5070 C   0  0  1  0  0  3  0  0  0  0  0  0
  182.7110  178.6320  142.7410 C   0  0  0  0  0  3  0  0  0  0  0  0
  184.9770  178.8740  141.9010 C   0  0  0  0  0  0  0  0  0  0  0  0
  181.8120  177.5620  140.2280 C   0  0  0  0  0  2  0  0  0  0  0  0
  184.4380  177.6460  136.9120 O   0  0  0  0  0  1  0  0  0  0  0  0
  180.1400  176.5900  138.8150 O   0  0  0  0  0  1  0  0  0  0  0  0
  184.0800  178.1040  139.2710 C   0  0  1  0  0  3  0  0  0  0  0  0
  181.5150  176.6510  139.0420 C   0  0  1  0  0  3  0  0  0  0  0  0
  181.6340  179.5300  137.9670 O   0  0  0  0  0  1  0  0  0  0  0  0
  181.2680  178.4070  136.0060 O   0  0  0  0  0  0  0  0  0  0  0  0
  181.6890  178.3790  137.1930 C   0  0  0  0  0  0  0  0  0  0  0  0
  187.3890  178.6310  141.2400 C   0  0  0  0  0  2  0  0  0  0  0  0
  188.1880  177.8360  143.4100 C   0  0  0  0  0  3  0  0  0  0  0  0
  187.6890  177.5410  142.2130 C   0  0  0  0  0  3  0  0  0  0  0  0
  188.4900  176.7550  144.4010 C   0  0  0  0  0  2  0  0  0  0  0  0
  189.3210  177.2820  145.5610 C   0  0  0  0  0  2  0  0  0  0  0  0
  190.7360  177.5920  145.1040 C   0  0  0  0  0  2  0  0  0  0  0  0
  191.5860  176.3780  145.2320 C   0  0  0  0  0  0  0  0  0  0  0  0
  192.0540  176.0530  146.3540 O   0  0  0  0  0  1  0  0  0  0  0  0
  191.8930  175.6230  144.1080 O   0  0  0  0  0  0  0  0  0  0  0  0
  186.3000  178.8890  138.5370 O   0  0  0  0  0  0  0  0  0  0  0  0
  187.2610  178.0460  137.9530 C   0  0  0  0  0  3  0  0  0  0  0  0
  187.6660  178.6110  136.6080 C   0  0  0  0  0  2  0  0  0  0  0  0
  188.5660  178.8010  137.8080 C   0  0  0  0  0  2  0  0  0  0  0  0
  1 29  1  6  0  0  0
  1  7  1  0  0  0  0
  3  2  1  0  0  0  0
  4 13  1  6  0  0  0
  4 15  1  0  0  0  0
  5 19  1  1  0  0  0
  5  4  1  0  0  0  0
  5 16  1  0  0  0  0
  6  2  2  0  0  0  0
  7 20  1  0  0  0  0
  7 11  1  0  0  0  0
  8 11  2  0  0  0  0
  8 10  1  0  0  0  0
  9 12  1  6  0  0  0
  9  8  1  0  0  0  0
 10  3  2  0  0  0  0
 11  6  1  0  0  0  0
 14 16  1  0  0  0  0
 15  1  1  0  0  0  0
 15  9  1  0  0  0  0
 16 12  1  0  0  0  0
 18 19  2  0  0  0  0
 19 17  1  0  0  0  0
 20 22  1  0  0  0  0
 21 23  1  0  0  0  0
 22 21  2  0  0  0  0
 23 24  1  0  0  0  0
 25 26  1  0  0  0  0
 25 24  1  0  0  0  0
 26 27  1  0  0  0  0
 28 26  2  0  0  0  0
 30 29  1  0  0  0  0
 31 32  1  0  0  0  0
 31 30  1  0  0  0  0
 32 30  1  0  0  0  0
M  END
>  <MODEL>
8

>  <REMARK>
 VINA RESULT:      -7.0      2.629      8.196
  Name = 
  9 active torsions:
  status: ('A' for Active; 'I' for Inactive)
    1  A    between atoms: C_1  and  C_24
    2  A    between atoms: C_2  and  C_10
    3  A    between atoms: C_2  and  C_12
    4  A    between atoms: C_3  and  O_28
    5  A    between atoms: C_7  and  C_22
    6  A    between atoms: C_8  and  O_28
    7  A    between atoms: C_9  and  N_14
    8  A    between atoms: C_9  and  C_21
    9  A    between atoms: C_10  and  C_24
                            x       y       z     vdW  Elec       q    Type
                         _______ _______ _______ _____ _____    ______ ____

>  <TORSDO>
F 9

$$$$
=
 OpenBabel11052416543D

 32 35  0  0  1  0  0  0  0  0999 V2000
  184.9630  178.7820  141.3450 C   0  0  1  0  0  3  0  0  0  0  0  0
  188.0770  177.4200  137.7130 C   0  0  0  0  0  3  0  0  0  0  0  0
  187.0450  177.4800  136.7770 C   0  0  0  0  0  3  0  0  0  0  0  0
  182.4900  178.9990  140.7870 C   0  0  1  0  0  3  0  0  0  0  0  0
  181.3550  178.6280  139.8190 C   0  0  1  0  0  3  0  0  0  0  0  0
  187.8390  177.7900  139.0370 C   0  0  0  0  0  3  0  0  0  0  0  0
  186.3260  178.6130  140.8090 N   0  0  0  0  0  0  0  0  0  0  0  0
  185.5150  178.2520  138.5050 C   0  0  0  0  0  0  0  0  0  0  0  0
  184.1730  178.7970  138.9220 C   0  0  1  0  0  3  0  0  0  0  0  0
  185.7740  177.9040  137.1690 C   0  0  0  0  0  3  0  0  0  0  0  0
  186.5620  178.2130  139.4450 C   0  0  0  0  0  0  0  0  0  0  0  0
  183.0510  178.3700  137.9680 C   0  0  0  0  0  2  0  0  0  0  0  0
  182.1470  178.6350  142.0920 O   0  0  0  0  0  1  0  0  0  0  0  0
  180.7210  178.6550  137.4900 O   0  0  0  0  0  1  0  0  0  0  0  0
  183.8350  178.3790  140.3640 C   0  0  1  0  0  3  0  0  0  0  0  0
  181.7320  179.0120  138.3820 C   0  0  1  0  0  3  0  0  0  0  0  0
  181.7960  176.1750  139.6310 O   0  0  0  0  0  0  0  0  0  0  0  0
  179.7530  176.9100  140.3560 O   0  0  0  0  0  1  0  0  0  0  0  0
  180.9120  177.1950  139.9520 C   0  0  0  0  0  0  0  0  0  0  0  0
  187.4420  179.0450  141.6470 C   0  0  0  0  0  2  0  0  0  0  0  0
  188.7760  178.0010  143.4110 C   0  0  0  0  0  3  0  0  0  0  0  0
  188.1130  177.8660  142.2650 C   0  0  0  0  0  3  0  0  0  0  0  0
  189.4500  176.8260  144.0470 C   0  0  0  0  0  2  0  0  0  0  0  0
  189.8490  177.1280  145.4850 C   0  0  0  0  0  2  0  0  0  0  0  0
  188.6280  177.4990  146.3080 C   0  0  0  0  0  2  0  0  0  0  0  0
  188.9980  177.5900  147.7470 C   0  0  0  0  0  0  0  0  0  0  0  0
  190.2040  177.5030  148.0930 O   0  0  0  0  0  0  0  0  0  0  0  0
  188.0090  177.7330  148.7100 O   0  0  0  0  0  1  0  0  0  0  0  0
  184.8230  178.1700  142.6130 O   0  0  0  0  0  0  0  0  0  0  0  0
  184.9040  179.1620  143.6060 C   0  0  0  0  0  3  0  0  0  0  0  0
  183.9330  178.8310  144.7190 C   0  0  0  0  0  2  0  0  0  0  0  0
  185.4060  178.5420  144.8930 C   0  0  0  0  0  2  0  0  0  0  0  0
  1 29  1  1  0  0  0
  2  6  1  0  0  0  0
  3 10  1  0  0  0  0
  3  2  2  0  0  0  0
  4 13  1  1  0  0  0
  5 19  1  6  0  0  0
  5  4  1  0  0  0  0
  6 11  2  0  0  0  0
  7  1  1  0  0  0  0
  7 20  1  0  0  0  0
  8  9  1  0  0  0  0
  8 11  1  0  0  0  0
  9 12  1  6  0  0  0
  9 15  1  0  0  0  0
 10  8  2  0  0  0  0
 11  7  1  0  0  0  0
 12 16  1  0  0  0  0
 14 16  1  0  0  0  0
 15  4  1  0  0  0  0
 15  1  1  0  0  0  0
 16  5  1  0  0  0  0
 17 19  2  0  0  0  0
 19 18  1  0  0  0  0
 20 22  1  0  0  0  0
 21 23  1  0  0  0  0
 22 21  2  0  0  0  0
 23 24  1  0  0  0  0
 24 25  1  0  0  0  0
 25 26  1  0  0  0  0
 26 27  2  0  0  0  0
 26 28  1  0  0  0  0
 29 30  1  0  0  0  0
 30 31  1  0  0  0  0
 30 32  1  0  0  0  0
 31 32  1  0  0  0  0
M  END
>  <MODEL>
9

>  <REMARK>
 VINA RESULT:      -7.0      2.489      8.607
  Name = 
  9 active torsions:
  status: ('A' for Active; 'I' for Inactive)
    1  A    between atoms: C_1  and  C_24
    2  A    between atoms: C_2  and  C_10
    3  A    between atoms: C_2  and  C_12
    4  A    between atoms: C_3  and  O_28
    5  A    between atoms: C_7  and  C_22
    6  A    between atoms: C_8  and  O_28
    7  A    between atoms: C_9  and  N_14
    8  A    between atoms: C_9  and  C_21
    9  A    between atoms: C_10  and  C_24
                            x       y       z     vdW  Elec       q    Type
                         _______ _______ _______ _____ _____    ______ ____

>  <TORSDO>
F 9

$$$$
