=
 OpenBabel11052413313D

 28 31  0  0  1  0  0  0  0  0999 V2000
  190.2710  177.2260  142.3300 N   0  0  0  0  0  0  0  0  0  0  0  0
  189.9180  176.8330  140.9880 C   0  0  0  0  0  0  0  0  0  0  0  0
  188.7140  176.6010  140.6960 O   0  0  0  0  0  0  0  0  0  0  0  0
  189.6890  177.4980  144.7390 N   0  0  0  0  0  0  0  0  0  0  0  0
  188.5160  176.0350  143.3330 O   0  0  0  0  0  0  0  0  0  0  0  0
  191.3850  178.9380  143.7030 C   0  0  0  0  0  2  0  0  0  0  0  0
  190.9550  178.1990  144.9610 C   0  0  0  0  0  2  0  0  0  0  0  0
  191.5290  177.9390  142.5630 C   0  0  0  0  0  2  0  0  0  0  0  0
  189.4440  176.8810  143.4590 C   0  0  0  0  0  0  0  0  0  0  0  0
  190.9510  176.7830  139.8890 C   0  0  1  0  0  3  0  0  0  0  0  0
  190.3590  176.2220  138.6080 C   0  0  0  0  0  2  0  0  0  0  0  0
  190.6710  177.7000  138.6870 C   0  0  1  0  0  3  0  0  0  0  0  0
  189.4210  178.4420  138.8020 N   0  0  0  0  0  2  0  0  0  0  0  0
  187.7430  178.4080  137.0470 C   0  0  0  0  0  1  0  0  0  0  0  0
  189.0960  178.9420  137.4780 C   0  0  0  0  0  2  0  0  0  0  0  0
  189.2230  176.6840  146.9410 C   0  0  0  0  0  2  0  0  0  0  0  0
  188.7880  177.3060  145.8470 C   0  0  0  0  0  0  0  0  0  0  0  0
  184.6510  178.1720  142.2280 N   0  0  0  0  0  1  0  0  0  0  0  0
  184.6830  178.6940  145.7490 C   0  0  0  0  0  0  0  0  0  0  0  0
  186.7240  177.8150  144.6410 C   0  0  0  0  0  3  0  0  0  0  0  0
  183.2820  178.9010  144.1370 N   0  0  0  0  0  0  0  0  0  0  0  0
  185.3580  178.3340  144.6170 C   0  0  0  0  0  0  0  0  0  0  0  0
  186.8130  178.5350  147.0290 C   0  0  0  0  0  2  0  0  0  0  0  0
  183.4080  179.0190  145.4540 N   0  0  0  0  0  0  0  0  0  0  0  0
  185.2700  178.5070  147.1100 C   0  0  0  0  0  2  0  0  0  0  0  0
  182.0440  179.1460  143.4170 C   0  0  0  0  0  1  0  0  0  0  0  0
  184.4460  178.4810  143.6040 C   0  0  0  0  0  0  0  0  0  0  0  0
  187.4020  177.8340  145.8040 C   0  0  0  0  0  0  0  0  0  0  0  0
  1  8  1  0  0  0  0
  1  9  1  0  0  0  0
  2  1  1  0  0  0  0
  3  2  2  0  0  0  0
  4  7  1  0  0  0  0
  4 17  1  0  0  0  0
  5  9  2  0  0  0  0
  6  7  1  0  0  0  0
  8  6  1  0  0  0  0
  9  4  1  0  0  0  0
 10  2  1  1  0  0  0
 11 12  1  0  0  0  0
 11 10  1  0  0  0  0
 12 13  1  1  0  0  0
 12 10  1  0  0  0  0
 14 15  1  0  0  0  0
 15 13  1  0  0  0  0
 17 16  2  0  0  0  0
 18 27  1  0  0  0  0
 19 25  1  0  0  0  0
 20 28  2  0  0  0  0
 21 24  1  0  0  0  0
 22 20  1  0  0  0  0
 22 19  1  0  0  0  0
 23 25  1  0  0  0  0
 24 19  2  0  0  0  0
 26 21  1  0  0  0  0
 27 21  1  0  0  0  0
 27 22  2  0  0  0  0
 28 17  1  0  0  0  0
 28 23  1  0  0  0  0
M  END
>  <MODEL>
1

>  <REMARK>
 VINA RESULT:      -9.1      0.000      0.000
  Name = 
  5 active torsions:
  status: ('A' for Active; 'I' for Inactive)
    1  A    between atoms: C_2  and  C_3
    2  A    between atoms: N_6  and  C_11
    3  A    between atoms: N_6  and  C_28
    4  A    between atoms: N_16  and  C_20
    5  A    between atoms: C_20  and  C_25
                            x       y       z     vdW  Elec       q    Type
                         _______ _______ _______ _____ _____    ______ ____

>  <TORSDO>
F 5

$$$$
=
 OpenBabel11052413313D

 28 31  0  0  1  0  0  0  0  0999 V2000
  184.6080  177.7580  138.3780 N   0  0  0  0  0  0  0  0  0  0  0  0
  185.7960  178.0650  137.6200 C   0  0  0  0  0  0  0  0  0  0  0  0
  186.7550  178.6700  138.1700 O   0  0  0  0  0  0  0  0  0  0  0  0
  183.1950  178.0420  140.4120 N   0  0  0  0  0  0  0  0  0  0  0  0
  184.8100  179.6220  139.7900 O   0  0  0  0  0  0  0  0  0  0  0  0
  183.0900  175.9650  139.1100 C   0  0  0  0  0  2  0  0  0  0  0  0
  182.3120  176.9720  139.9440 C   0  0  0  0  0  2  0  0  0  0  0  0
  183.7240  176.6810  137.9260 C   0  0  0  0  0  2  0  0  0  0  0  0
  184.2360  178.5260  139.5410 C   0  0  0  0  0  0  0  0  0  0  0  0
  185.9590  177.5930  136.1960 C   0  0  1  0  0  3  0  0  0  0  0  0
  187.4220  177.5820  135.7890 C   0  0  0  0  0  2  0  0  0  0  0  0
  186.7180  176.2650  136.0310 C   0  0  1  0  0  3  0  0  0  0  0  0
  187.1840  175.7040  137.2930 N   0  0  0  0  0  2  0  0  0  0  0  0
  185.8610  173.6660  137.3100 C   0  0  0  0  0  1  0  0  0  0  0  0
  187.2430  174.2620  137.1240 C   0  0  0  0  0  2  0  0  0  0  0  0
  181.7840  179.3970  141.7930 C   0  0  0  0  0  2  0  0  0  0  0  0
  182.9070  178.6920  141.6660 C   0  0  0  0  0  0  0  0  0  0  0  0
  188.0870  177.0480  142.8630 N   0  0  0  0  0  1  0  0  0  0  0  0
  185.6230  178.4210  145.0340 C   0  0  0  0  0  0  0  0  0  0  0  0
  185.0780  178.1160  142.6310 C   0  0  0  0  0  3  0  0  0  0  0  0
  187.6510  177.7360  145.1830 N   0  0  0  0  0  0  0  0  0  0  0  0
  185.9640  177.9830  143.7850 C   0  0  0  0  0  0  0  0  0  0  0  0
  183.2800  178.7300  144.2480 C   0  0  0  0  0  2  0  0  0  0  0  0
  186.6640  178.2890  145.8800 N   0  0  0  0  0  0  0  0  0  0  0  0
  184.3410  179.1440  145.2930 C   0  0  0  0  0  2  0  0  0  0  0  0
  188.9640  177.4430  145.7320 C   0  0  0  0  0  1  0  0  0  0  0  0
  187.2570  177.5470  143.9080 C   0  0  0  0  0  0  0  0  0  0  0  0
  183.8180  178.5460  142.8280 C   0  0  0  0  0  0  0  0  0  0  0  0
  1  9  1  0  0  0  0
  2  3  2  0  0  0  0
  2  1  1  0  0  0  0
  4 17  1  0  0  0  0
  6  7  1  0  0  0  0
  7  4  1  0  0  0  0
  8  1  1  0  0  0  0
  8  6  1  0  0  0  0
  9  5  2  0  0  0  0
  9  4  1  0  0  0  0
 10  2  1  1  0  0  0
 11 12  1  0  0  0  0
 11 10  1  0  0  0  0
 12 10  1  0  0  0  0
 12 13  1  1  0  0  0
 15 13  1  0  0  0  0
 15 14  1  0  0  0  0
 17 16  2  0  0  0  0
 17 28  1  0  0  0  0
 18 27  1  0  0  0  0
 19 25  1  0  0  0  0
 19 24  2  0  0  0  0
 20 28  2  0  0  0  0
 20 22  1  0  0  0  0
 21 26  1  0  0  0  0
 21 24  1  0  0  0  0
 22 27  2  0  0  0  0
 22 19  1  0  0  0  0
 23 25  1  0  0  0  0
 27 21  1  0  0  0  0
 28 23  1  0  0  0  0
M  END
>  <MODEL>
2

>  <REMARK>
 VINA RESULT:      -8.5      3.016      5.921
  Name = 
  5 active torsions:
  status: ('A' for Active; 'I' for Inactive)
    1  A    between atoms: C_2  and  C_3
    2  A    between atoms: N_6  and  C_11
    3  A    between atoms: N_6  and  C_28
    4  A    between atoms: N_16  and  C_20
    5  A    between atoms: C_20  and  C_25
                            x       y       z     vdW  Elec       q    Type
                         _______ _______ _______ _____ _____    ______ ____

>  <TORSDO>
F 5

$$$$
=
 OpenBabel11052413313D

 28 31  0  0  1  0  0  0  0  0999 V2000
  189.1310  176.0340  137.2690 N   0  0  0  0  0  0  0  0  0  0  0  0
  188.9570  174.7950  136.5530 C   0  0  0  0  0  0  0  0  0  0  0  0
  189.1670  173.6960  137.1350 O   0  0  0  0  0  0  0  0  0  0  0  0
  189.9570  177.3010  139.2510 N   0  0  0  0  0  0  0  0  0  0  0  0
  190.8050  175.1910  138.6820 O   0  0  0  0  0  0  0  0  0  0  0  0
  188.0510  178.1370  137.9520 C   0  0  0  0  0  2  0  0  0  0  0  0
  189.2890  178.5050  138.7550 C   0  0  0  0  0  2  0  0  0  0  0  0
  188.4580  177.2430  136.7890 C   0  0  0  0  0  2  0  0  0  0  0  0
  190.0000  176.1260  138.4160 C   0  0  0  0  0  0  0  0  0  0  0  0
  188.4370  174.7750  135.1370 C   0  0  1  0  0  3  0  0  0  0  0  0
  187.8380  173.4220  134.7930 C   0  0  0  0  0  2  0  0  0  0  0  0
  186.9140  174.6020  135.0030 C   0  0  1  0  0  3  0  0  0  0  0  0
  186.2340  174.4480  136.2830 N   0  0  0  0  0  2  0  0  0  0  0  0
  184.9480  172.7720  137.4830 C   0  0  0  0  0  1  0  0  0  0  0  0
  185.2660  173.3760  136.1280 C   0  0  0  0  0  2  0  0  0  0  0  0
  192.0100  177.5130  140.4640 C   0  0  0  0  0  2  0  0  0  0  0  0
  190.6860  177.3630  140.4930 C   0  0  0  0  0  0  0  0  0  0  0  0
  191.7820  177.1090  145.9420 N   0  0  0  0  0  1  0  0  0  0  0  0
  188.6300  177.3760  144.3080 C   0  0  0  0  0  0  0  0  0  0  0  0
  190.6980  177.2940  142.9360 C   0  0  0  0  0  3  0  0  0  0  0  0
  189.3590  177.2860  146.3250 N   0  0  0  0  0  0  0  0  0  0  0  0
  189.9880  177.2470  144.2120 C   0  0  0  0  0  0  0  0  0  0  0  0
  188.4640  177.1150  141.8370 C   0  0  0  0  0  2  0  0  0  0  0  0
  188.2530  177.4200  145.6020 N   0  0  0  0  0  0  0  0  0  0  0  0
  187.7780  177.6530  143.1140 C   0  0  0  0  0  2  0  0  0  0  0  0
  189.3840  177.3010  147.7770 C   0  0  0  0  0  1  0  0  0  0  0  0
  190.4270  177.1860  145.5080 C   0  0  0  0  0  0  0  0  0  0  0  0
  189.9810  177.3110  141.7970 C   0  0  0  0  0  0  0  0  0  0  0  0
  1  9  1  0  0  0  0
  2  3  2  0  0  0  0
  2  1  1  0  0  0  0
  4 17  1  0  0  0  0
  6  7  1  0  0  0  0
  7  4  1  0  0  0  0
  8  1  1  0  0  0  0
  8  6  1  0  0  0  0
  9  5  2  0  0  0  0
  9  4  1  0  0  0  0
 10  2  1  1  0  0  0
 11 12  1  0  0  0  0
 11 10  1  0  0  0  0
 12 10  1  0  0  0  0
 12 13  1  1  0  0  0
 15 13  1  0  0  0  0
 15 14  1  0  0  0  0
 16 17  2  0  0  0  0
 17 28  1  0  0  0  0
 19 24  2  0  0  0  0
 20 22  1  0  0  0  0
 21 26  1  0  0  0  0
 22 19  1  0  0  0  0
 22 27  2  0  0  0  0
 23 25  1  0  0  0  0
 24 21  1  0  0  0  0
 25 19  1  0  0  0  0
 27 18  1  0  0  0  0
 27 21  1  0  0  0  0
 28 23  1  0  0  0  0
 28 20  2  0  0  0  0
M  END
>  <MODEL>
3

>  <REMARK>
 VINA RESULT:      -8.1      3.040      5.921
  Name = 
  5 active torsions:
  status: ('A' for Active; 'I' for Inactive)
    1  A    between atoms: C_2  and  C_3
    2  A    between atoms: N_6  and  C_11
    3  A    between atoms: N_6  and  C_28
    4  A    between atoms: N_16  and  C_20
    5  A    between atoms: C_20  and  C_25
                            x       y       z     vdW  Elec       q    Type
                         _______ _______ _______ _____ _____    ______ ____

>  <TORSDO>
F 5

$$$$
=
 OpenBabel11052413313D

 28 31  0  0  1  0  0  0  0  0999 V2000
  182.6250  178.6640  142.0020 N   0  0  0  0  0  0  0  0  0  0  0  0
  181.7120  178.3140  140.9420 C   0  0  0  0  0  0  0  0  0  0  0  0
  182.0470  177.4590  140.0790 O   0  0  0  0  0  0  0  0  0  0  0  0
  184.9030  178.6150  143.0120 N   0  0  0  0  0  0  0  0  0  0  0  0
  184.5500  178.2550  140.7240 O   0  0  0  0  0  0  0  0  0  0  0  0
  182.9180  178.8210  144.4400 C   0  0  0  0  0  2  0  0  0  0  0  0
  184.3710  179.2220  144.2330 C   0  0  0  0  0  2  0  0  0  0  0  0
  182.1020  179.2620  143.2330 C   0  0  0  0  0  2  0  0  0  0  0  0
  184.0490  178.4950  141.8570 C   0  0  0  0  0  0  0  0  0  0  0  0
  180.3160  178.8830  140.8900 C   0  0  1  0  0  3  0  0  0  0  0  0
  179.4890  178.2080  139.8100 C   0  0  0  0  0  2  0  0  0  0  0  0
  179.1940  177.8980  141.2610 C   0  0  1  0  0  3  0  0  0  0  0  0
  179.6790  176.5580  141.5670 N   0  0  0  0  0  2  0  0  0  0  0  0
  179.8770  174.6230  140.1110 C   0  0  0  0  0  1  0  0  0  0  0  0
  178.9310  175.6320  140.7340 C   0  0  0  0  0  2  0  0  0  0  0  0
  186.9510  178.4380  141.7860 C   0  0  0  0  0  2  0  0  0  0  0  0
  186.3060  178.2920  142.9420 C   0  0  0  0  0  0  0  0  0  0  0  0
  191.4780  177.0200  144.5500 N   0  0  0  0  0  1  0  0  0  0  0  0
  188.5030  177.1540  146.5010 C   0  0  0  0  0  0  0  0  0  0  0  0
  188.3840  177.6920  144.0800 C   0  0  0  0  0  3  0  0  0  0  0  0
  190.5830  176.7360  146.8240 N   0  0  0  0  0  0  0  0  0  0  0  0
  189.1020  177.2590  145.2760 C   0  0  0  0  0  0  0  0  0  0  0  0
  186.2850  177.4200  145.4010 C   0  0  0  0  0  2  0  0  0  0  0  0
  189.4160  176.8560  147.4470 N   0  0  0  0  0  0  0  0  0  0  0  0
  187.0810  177.5530  146.7200 C   0  0  0  0  0  2  0  0  0  0  0  0
  191.8340  176.4360  147.4980 C   0  0  0  0  0  1  0  0  0  0  0  0
  190.4230  176.9820  145.5080 C   0  0  0  0  0  0  0  0  0  0  0  0
  187.0490  177.8480  144.1470 C   0  0  0  0  0  0  0  0  0  0  0  0
  1  8  1  0  0  0  0
  2  1  1  0  0  0  0
  3  2  2  0  0  0  0
  4  7  1  0  0  0  0
  5  9  2  0  0  0  0
  7  6  1  0  0  0  0
  8  6  1  0  0  0  0
  9  1  1  0  0  0  0
  9  4  1  0  0  0  0
 10  2  1  6  0  0  0
 10 12  1  0  0  0  0
 11 10  1  0  0  0  0
 11 12  1  0  0  0  0
 12 13  1  6  0  0  0
 14 15  1  0  0  0  0
 15 13  1  0  0  0  0
 16 17  2  0  0  0  0
 17  4  1  0  0  0  0
 17 28  1  0  0  0  0
 18 27  1  0  0  0  0
 19 25  1  0  0  0  0
 19 24  2  0  0  0  0
 20 28  2  0  0  0  0
 20 22  1  0  0  0  0
 21 24  1  0  0  0  0
 21 26  1  0  0  0  0
 22 27  2  0  0  0  0
 22 19  1  0  0  0  0
 23 25  1  0  0  0  0
 27 21  1  0  0  0  0
 28 23  1  0  0  0  0
M  END
>  <MODEL>
4

>  <REMARK>
 VINA RESULT:      -8.0      3.146      7.542
  Name = 
  5 active torsions:
  status: ('A' for Active; 'I' for Inactive)
    1  A    between atoms: C_2  and  C_3
    2  A    between atoms: N_6  and  C_11
    3  A    between atoms: N_6  and  C_28
    4  A    between atoms: N_16  and  C_20
    5  A    between atoms: C_20  and  C_25
                            x       y       z     vdW  Elec       q    Type
                         _______ _______ _______ _____ _____    ______ ____

>  <TORSDO>
F 5

$$$$
=
 OpenBabel11052413313D

 28 31  0  0  1  0  0  0  0  0999 V2000
  189.3290  175.8240  137.5460 N   0  0  0  0  0  0  0  0  0  0  0  0
  189.1950  174.5690  136.8470 C   0  0  0  0  0  0  0  0  0  0  0  0
  189.6230  173.5060  137.3730 O   0  0  0  0  0  0  0  0  0  0  0  0
  190.2960  177.1890  139.3930 N   0  0  0  0  0  0  0  0  0  0  0  0
  191.2910  175.1940  138.6690 O   0  0  0  0  0  0  0  0  0  0  0  0
  188.1240  177.7840  138.4180 C   0  0  0  0  0  2  0  0  0  0  0  0
  189.4200  178.3020  139.0240 C   0  0  0  0  0  2  0  0  0  0  0  0
  188.4490  176.9410  137.1930 C   0  0  0  0  0  2  0  0  0  0  0  0
  190.3490  176.0250  138.5440 C   0  0  0  0  0  0  0  0  0  0  0  0
  188.4660  174.4810  135.5290 C   0  0  1  0  0  3  0  0  0  0  0  0
  188.0390  173.0530  135.2350 C   0  0  0  0  0  2  0  0  0  0  0  0
  186.9880  174.0670  135.6260 C   0  0  1  0  0  3  0  0  0  0  0  0
  186.5510  173.7940  136.9900 N   0  0  0  0  0  2  0  0  0  0  0  0
  184.4880  172.6480  137.5680 C   0  0  0  0  0  1  0  0  0  0  0  0
  185.1040  173.9170  137.0100 C   0  0  0  0  0  2  0  0  0  0  0  0
  192.5000  177.5040  140.2740 C   0  0  0  0  0  2  0  0  0  0  0  0
  191.1980  177.3440  140.5070 C   0  0  0  0  0  0  0  0  0  0  0  0
  186.4160  177.8270  143.3120 N   0  0  0  0  0  1  0  0  0  0  0  0
  189.6990  177.2710  144.5730 C   0  0  0  0  0  0  0  0  0  0  0  0
  189.3670  177.4780  142.1210 C   0  0  0  0  0  3  0  0  0  0  0  0
  187.7150  177.4710  145.3690 N   0  0  0  0  0  0  0  0  0  0  0  0
  188.8840  177.5030  143.5000 C   0  0  0  0  0  0  0  0  0  0  0  0
  191.6750  177.4510  143.0700 C   0  0  0  0  0  2  0  0  0  0  0  0
  188.9760  177.2310  145.7120 N   0  0  0  0  0  0  0  0  0  0  0  0
  191.1350  176.8960  144.4070 C   0  0  0  0  0  2  0  0  0  0  0  0
  186.6120  177.4970  146.3130 C   0  0  0  0  0  1  0  0  0  0  0  0
  187.6290  177.6330  144.0340 C   0  0  0  0  0  0  0  0  0  0  0  0
  190.6910  177.3750  141.9010 C   0  0  0  0  0  0  0  0  0  0  0  0
  1  9  1  0  0  0  0
  2  3  2  0  0  0  0
  2  1  1  0  0  0  0
  4 17  1  0  0  0  0
  6  7  1  0  0  0  0
  7  4  1  0  0  0  0
  8  1  1  0  0  0  0
  8  6  1  0  0  0  0
  9  5  2  0  0  0  0
  9  4  1  0  0  0  0
 10 12  1  0  0  0  0
 10  2  1  1  0  0  0
 11 10  1  0  0  0  0
 11 12  1  0  0  0  0
 12 13  1  1  0  0  0
 13 15  1  0  0  0  0
 15 14  1  0  0  0  0
 16 17  2  0  0  0  0
 17 28  1  0  0  0  0
 18 27  1  0  0  0  0
 19 24  2  0  0  0  0
 20 22  1  0  0  0  0
 21 24  1  0  0  0  0
 21 26  1  0  0  0  0
 22 27  2  0  0  0  0
 22 19  1  0  0  0  0
 23 25  1  0  0  0  0
 25 19  1  0  0  0  0
 27 21  1  0  0  0  0
 28 20  2  0  0  0  0
 28 23  1  0  0  0  0
M  END
>  <MODEL>
5

>  <REMARK>
 VINA RESULT:      -7.9      3.005      5.498
  Name = 
  5 active torsions:
  status: ('A' for Active; 'I' for Inactive)
    1  A    between atoms: C_2  and  C_3
    2  A    between atoms: N_6  and  C_11
    3  A    between atoms: N_6  and  C_28
    4  A    between atoms: N_16  and  C_20
    5  A    between atoms: C_20  and  C_25
                            x       y       z     vdW  Elec       q    Type
                         _______ _______ _______ _____ _____    ______ ____

>  <TORSDO>
F 5

$$$$
=
 OpenBabel11052413313D

 28 31  0  0  1  0  0  0  0  0999 V2000
  184.9340  178.0820  138.9430 N   0  0  0  0  0  0  0  0  0  0  0  0
  186.0700  178.2810  138.0770 C   0  0  0  0  0  0  0  0  0  0  0  0
  187.2030  178.5330  138.5710 O   0  0  0  0  0  0  0  0  0  0  0  0
  183.8660  178.2180  141.1920 N   0  0  0  0  0  0  0  0  0  0  0  0
  185.7380  179.5080  140.6240 O   0  0  0  0  0  0  0  0  0  0  0  0
  183.1160  176.5430  139.5620 C   0  0  0  0  0  2  0  0  0  0  0  0
  182.7040  177.4900  140.6790 C   0  0  0  0  0  2  0  0  0  0  0  0
  183.7710  177.3440  138.4460 C   0  0  0  0  0  2  0  0  0  0  0  0
  184.8920  178.6420  140.2710 C   0  0  0  0  0  0  0  0  0  0  0  0
  185.9560  178.1050  136.5830 C   0  0  1  0  0  3  0  0  0  0  0  0
  187.3080  177.7920  135.9650 C   0  0  0  0  0  2  0  0  0  0  0  0
  186.2750  176.6920  136.0660 C   0  0  1  0  0  3  0  0  0  0  0  0
  186.6730  175.7650  137.1190 N   0  0  0  0  0  2  0  0  0  0  0  0
  186.1390  173.4120  137.4010 C   0  0  0  0  0  1  0  0  0  0  0  0
  186.7940  174.4520  136.5110 C   0  0  0  0  0  2  0  0  0  0  0  0
  182.8330  179.2690  143.0780 C   0  0  0  0  0  2  0  0  0  0  0  0
  183.8860  178.6270  142.5730 C   0  0  0  0  0  0  0  0  0  0  0  0
  185.7260  179.5660  147.7400 N   0  0  0  0  0  1  0  0  0  0  0  0
  187.1680  177.5440  145.1890 C   0  0  0  0  0  0  0  0  0  0  0  0
  185.0430  178.7420  144.7220 C   0  0  0  0  0  3  0  0  0  0  0  0
  187.6080  178.0690  147.2230 N   0  0  0  0  0  0  0  0  0  0  0  0
  186.1830  178.4090  145.5750 C   0  0  0  0  0  0  0  0  0  0  0  0
  186.2720  177.6140  142.8660 C   0  0  0  0  0  2  0  0  0  0  0  0
  188.0250  177.3220  146.2060 N   0  0  0  0  0  0  0  0  0  0  0  0
  187.1080  176.8110  143.8890 C   0  0  0  0  0  2  0  0  0  0  0  0
  188.2560  178.1010  148.5220 C   0  0  0  0  0  1  0  0  0  0  0  0
  186.4890  178.7330  146.8700 C   0  0  0  0  0  0  0  0  0  0  0  0
  185.0370  178.3020  143.4500 C   0  0  0  0  0  0  0  0  0  0  0  0
  1  9  1  0  0  0  0
  2  3  2  0  0  0  0
  2  1  1  0  0  0  0
  4 17  1  0  0  0  0
  6  7  1  0  0  0  0
  7  4  1  0  0  0  0
  8  1  1  0  0  0  0
  8  6  1  0  0  0  0
  9  5  2  0  0  0  0
  9  4  1  0  0  0  0
 10  2  1  1  0  0  0
 11 12  1  0  0  0  0
 11 10  1  0  0  0  0
 12 10  1  0  0  0  0
 12 13  1  1  0  0  0
 15 13  1  0  0  0  0
 15 14  1  0  0  0  0
 17 16  2  0  0  0  0
 17 28  1  0  0  0  0
 19 22  1  0  0  0  0
 19 24  2  0  0  0  0
 20 22  1  0  0  0  0
 21 26  1  0  0  0  0
 22 27  2  0  0  0  0
 23 28  1  0  0  0  0
 23 25  1  0  0  0  0
 24 21  1  0  0  0  0
 25 19  1  0  0  0  0
 27 21  1  0  0  0  0
 27 18  1  0  0  0  0
 28 20  2  0  0  0  0
M  END
>  <MODEL>
6

>  <REMARK>
 VINA RESULT:      -7.9      3.123      5.738
  Name = 
  5 active torsions:
  status: ('A' for Active; 'I' for Inactive)
    1  A    between atoms: C_2  and  C_3
    2  A    between atoms: N_6  and  C_11
    3  A    between atoms: N_6  and  C_28
    4  A    between atoms: N_16  and  C_20
    5  A    between atoms: C_20  and  C_25
                            x       y       z     vdW  Elec       q    Type
                         _______ _______ _______ _____ _____    ______ ____

>  <TORSDO>
F 5

$$$$
=
 OpenBabel11052413313D

 28 31  0  0  1  0  0  0  0  0999 V2000
  182.4870  178.5600  141.9730 N   0  0  0  0  0  0  0  0  0  0  0  0
  181.5590  178.1050  140.9660 C   0  0  0  0  0  0  0  0  0  0  0  0
  181.9040  177.2050  140.1530 O   0  0  0  0  0  0  0  0  0  0  0  0
  184.7920  178.6640  142.9160 N   0  0  0  0  0  0  0  0  0  0  0  0
  184.3900  178.1370  140.6680 O   0  0  0  0  0  0  0  0  0  0  0  0
  182.8400  178.8930  144.3860 C   0  0  0  0  0  2  0  0  0  0  0  0
  184.2700  179.3330  144.1080 C   0  0  0  0  0  2  0  0  0  0  0  0
  181.9750  179.2200  143.1770 C   0  0  0  0  0  2  0  0  0  0  0  0
  183.9120  178.4340  141.7970 C   0  0  0  0  0  0  0  0  0  0  0  0
  180.1410  178.6170  140.9190 C   0  0  1  0  0  3  0  0  0  0  0  0
  180.0940  180.1170  141.1470 C   0  0  0  0  0  2  0  0  0  0  0  0
  179.8310  179.5770  139.7590 C   0  0  1  0  0  3  0  0  0  0  0  0
  180.9870  179.8580  138.9150 N   0  0  0  0  0  2  0  0  0  0  0  0
  181.2100  182.1260  138.0730 C   0  0  0  0  0  1  0  0  0  0  0  0
  180.5470  180.7760  137.8780 C   0  0  0  0  0  2  0  0  0  0  0  0
  186.8360  178.6000  141.6710 C   0  0  0  0  0  2  0  0  0  0  0  0
  186.2040  178.3900  142.8250 C   0  0  0  0  0  0  0  0  0  0  0  0
  191.3960  177.0350  144.2970 N   0  0  0  0  0  1  0  0  0  0  0  0
  188.4700  177.1910  146.3200 C   0  0  0  0  0  0  0  0  0  0  0  0
  188.3000  177.7530  143.9070 C   0  0  0  0  0  3  0  0  0  0  0  0
  190.5520  176.7430  146.5890 N   0  0  0  0  0  0  0  0  0  0  0  0
  189.0410  177.2990  145.0820 C   0  0  0  0  0  0  0  0  0  0  0  0
  186.2300  177.4970  145.2760 C   0  0  0  0  0  2  0  0  0  0  0  0
  189.4020  176.8720  147.2410 N   0  0  0  0  0  0  0  0  0  0  0  0
  187.0590  177.6080  146.5760 C   0  0  0  0  0  2  0  0  0  0  0  0
  191.8140  176.4200  147.2300 C   0  0  0  0  0  1  0  0  0  0  0  0
  190.3640  177.0030  145.2800 C   0  0  0  0  0  0  0  0  0  0  0  0
  186.9700  177.9260  144.0070 C   0  0  0  0  0  0  0  0  0  0  0  0
  1  8  1  0  0  0  0
  2  1  1  0  0  0  0
  3  2  2  0  0  0  0
  4  7  1  0  0  0  0
  5  9  2  0  0  0  0
  7  6  1  0  0  0  0
  8  6  1  0  0  0  0
  9  1  1  0  0  0  0
  9  4  1  0  0  0  0
 10  2  1  6  0  0  0
 10 11  1  0  0  0  0
 12 13  1  6  0  0  0
 12 10  1  0  0  0  0
 12 11  1  0  0  0  0
 15 14  1  0  0  0  0
 15 13  1  0  0  0  0
 16 17  2  0  0  0  0
 17  4  1  0  0  0  0
 17 28  1  0  0  0  0
 18 27  1  0  0  0  0
 19 25  1  0  0  0  0
 19 24  2  0  0  0  0
 20 28  2  0  0  0  0
 20 22  1  0  0  0  0
 21 26  1  0  0  0  0
 21 24  1  0  0  0  0
 22 27  2  0  0  0  0
 22 19  1  0  0  0  0
 23 25  1  0  0  0  0
 27 21  1  0  0  0  0
 28 23  1  0  0  0  0
M  END
>  <MODEL>
7

>  <REMARK>
 VINA RESULT:      -7.7      3.134      7.276
  Name = 
  5 active torsions:
  status: ('A' for Active; 'I' for Inactive)
    1  A    between atoms: C_2  and  C_3
    2  A    between atoms: N_6  and  C_11
    3  A    between atoms: N_6  and  C_28
    4  A    between atoms: N_16  and  C_20
    5  A    between atoms: C_20  and  C_25
                            x       y       z     vdW  Elec       q    Type
                         _______ _______ _______ _____ _____    ______ ____

>  <TORSDO>
F 5

$$$$
=
 OpenBabel11052413313D

 28 31  0  0  1  0  0  0  0  0999 V2000
  182.2310  178.7890  141.5160 N   0  0  0  0  0  0  0  0  0  0  0  0
  180.8480  179.1470  141.3170 C   0  0  0  0  0  0  0  0  0  0  0  0
  180.2270  179.7800  142.2130 O   0  0  0  0  0  0  0  0  0  0  0  0
  184.2210  178.5430  142.9970 N   0  0  0  0  0  0  0  0  0  0  0  0
  182.0390  178.6150  143.8480 O   0  0  0  0  0  0  0  0  0  0  0  0
  184.5070  178.9470  140.5930 C   0  0  0  0  0  2  0  0  0  0  0  0
  185.0490  178.2430  141.8280 C   0  0  0  0  0  2  0  0  0  0  0  0
  183.0730  178.4980  140.3530 C   0  0  0  0  0  2  0  0  0  0  0  0
  182.7920  178.6520  142.8370 C   0  0  0  0  0  0  0  0  0  0  0  0
  180.1440  178.8600  140.0140 C   0  0  1  0  0  3  0  0  0  0  0  0
  178.9310  179.7560  139.8400 C   0  0  0  0  0  2  0  0  0  0  0  0
  180.1590  180.0140  138.9960 C   0  0  1  0  0  3  0  0  0  0  0  0
  180.8290  181.2120  139.4880 N   0  0  0  0  0  2  0  0  0  0  0  0
  180.7260  182.0320  137.2040 C   0  0  0  0  0  1  0  0  0  0  0  0
  181.6220  181.7400  138.3920 C   0  0  0  0  0  2  0  0  0  0  0  0
  184.1120  178.9700  145.3500 C   0  0  0  0  0  2  0  0  0  0  0  0
  184.8310  178.5700  144.3020 C   0  0  0  0  0  0  0  0  0  0  0  0
  188.6010  177.9770  148.3520 N   0  0  0  0  0  1  0  0  0  0  0  0
  188.8580  177.0900  144.9140 C   0  0  0  0  0  0  0  0  0  0  0  0
  186.7520  178.1120  145.7410 C   0  0  0  0  0  3  0  0  0  0  0  0
  190.0860  176.9680  146.6710 N   0  0  0  0  0  0  0  0  0  0  0  0
  188.1290  177.6570  145.9220 C   0  0  0  0  0  0  0  0  0  0  0  0
  187.1130  177.8090  143.2910 C   0  0  0  0  0  2  0  0  0  0  0  0
  190.0450  176.6510  145.3810 N   0  0  0  0  0  0  0  0  0  0  0  0
  188.2690  176.8210  143.5680 C   0  0  0  0  0  2  0  0  0  0  0  0
  191.1980  176.6500  147.5480 C   0  0  0  0  0  1  0  0  0  0  0  0
  188.9350  177.5730  147.0270 C   0  0  0  0  0  0  0  0  0  0  0  0
  186.2290  178.1160  144.5010 C   0  0  0  0  0  0  0  0  0  0  0  0
  1  9  1  0  0  0  0
  2  1  1  0  0  0  0
  2  3  2  0  0  0  0
  4 17  1  0  0  0  0
  6  7  1  0  0  0  0
  7  4  1  0  0  0  0
  8  6  1  0  0  0  0
  8  1  1  0  0  0  0
  9  4  1  0  0  0  0
  9  5  2  0  0  0  0
 10  2  1  1  0  0  0
 11 10  1  0  0  0  0
 12 13  1  1  0  0  0
 12 11  1  0  0  0  0
 12 10  1  0  0  0  0
 14 15  1  0  0  0  0
 15 13  1  0  0  0  0
 17 28  1  0  0  0  0
 17 16  2  0  0  0  0
 19 24  2  0  0  0  0
 19 22  1  0  0  0  0
 20 22  1  0  0  0  0
 21 27  1  0  0  0  0
 21 26  1  0  0  0  0
 22 27  2  0  0  0  0
 23 25  1  0  0  0  0
 23 28  1  0  0  0  0
 24 21  1  0  0  0  0
 25 19  1  0  0  0  0
 27 18  1  0  0  0  0
 28 20  2  0  0  0  0
M  END
>  <MODEL>
8

>  <REMARK>
 VINA RESULT:      -7.6      3.670      7.479
  Name = 
  5 active torsions:
  status: ('A' for Active; 'I' for Inactive)
    1  A    between atoms: C_2  and  C_3
    2  A    between atoms: N_6  and  C_11
    3  A    between atoms: N_6  and  C_28
    4  A    between atoms: N_16  and  C_20
    5  A    between atoms: C_20  and  C_25
                            x       y       z     vdW  Elec       q    Type
                         _______ _______ _______ _____ _____    ______ ____

>  <TORSDO>
F 5

$$$$
=
 OpenBabel11052413313D

 28 31  0  0  1  0  0  0  0  0999 V2000
  189.3720  177.2570  141.8540 N   0  0  0  0  0  0  0  0  0  0  0  0
  188.6990  176.9820  143.1000 C   0  0  0  0  0  0  0  0  0  0  0  0
  187.4630  176.7360  143.1070 O   0  0  0  0  0  0  0  0  0  0  0  0
  189.3030  177.7910  139.4200 N   0  0  0  0  0  0  0  0  0  0  0  0
  187.4800  178.2010  140.8340 O   0  0  0  0  0  0  0  0  0  0  0  0
  191.2250  176.5990  140.3740 C   0  0  0  0  0  2  0  0  0  0  0  0
  190.7550  177.6170  139.3450 C   0  0  0  0  0  2  0  0  0  0  0  0
  190.8220  177.0740  141.7630 C   0  0  0  0  0  2  0  0  0  0  0  0
  188.6580  177.7670  140.7090 C   0  0  0  0  0  0  0  0  0  0  0  0
  189.4630  176.8890  144.3980 C   0  0  1  0  0  3  0  0  0  0  0  0
  189.8400  178.2680  144.9100 C   0  0  0  0  0  2  0  0  0  0  0  0
  188.7510  177.4940  145.6190 C   0  0  1  0  0  3  0  0  0  0  0  0
  187.4610  178.0930  145.3000 N   0  0  0  0  0  2  0  0  0  0  0  0
  185.2760  178.6030  146.2330 C   0  0  0  0  0  1  0  0  0  0  0  0
  186.6010  177.8980  146.4550 C   0  0  0  0  0  2  0  0  0  0  0  0
  188.9010  179.2450  137.5610 C   0  0  0  0  0  2  0  0  0  0  0  0
  188.5750  178.1380  138.2260 C   0  0  0  0  0  0  0  0  0  0  0  0
  187.7150  172.8230  136.8210 N   0  0  0  0  0  1  0  0  0  0  0  0
  185.3990  175.5270  136.8520 C   0  0  0  0  0  0  0  0  0  0  0  0
  187.7480  175.9420  137.5420 C   0  0  0  0  0  3  0  0  0  0  0  0
  185.3680  173.4290  136.4010 N   0  0  0  0  0  0  0  0  0  0  0  0
  186.6810  175.0850  137.0290 C   0  0  0  0  0  0  0  0  0  0  0  0
  186.1910  177.8620  137.2010 C   0  0  0  0  0  2  0  0  0  0  0  0
  184.5960  174.5060  136.4890 N   0  0  0  0  0  0  0  0  0  0  0  0
  184.9780  176.9040  137.2460 C   0  0  0  0  0  2  0  0  0  0  0  0
  184.8770  172.1070  136.0510 C   0  0  0  0  0  1  0  0  0  0  0  0
  186.6350  173.7490  136.7300 C   0  0  0  0  0  0  0  0  0  0  0  0
  187.5030  177.2550  137.7020 C   0  0  0  0  0  0  0  0  0  0  0  0
  1  2  1  0  0  0  0
  2  3  2  0  0  0  0
  4  9  1  0  0  0  0
  6  8  1  0  0  0  0
  7  4  1  0  0  0  0
  7  6  1  0  0  0  0
  8  1  1  0  0  0  0
  9  5  2  0  0  0  0
  9  1  1  0  0  0  0
 10  2  1  6  0  0  0
 10 11  1  0  0  0  0
 10 12  1  0  0  0  0
 11 12  1  0  0  0  0
 12 13  1  6  0  0  0
 13 15  1  0  0  0  0
 14 15  1  0  0  0  0
 16 17  2  0  0  0  0
 17  4  1  0  0  0  0
 19 22  1  0  0  0  0
 19 25  1  0  0  0  0
 20 28  2  0  0  0  0
 21 24  1  0  0  0  0
 21 27  1  0  0  0  0
 22 20  1  0  0  0  0
 23 25  1  0  0  0  0
 23 28  1  0  0  0  0
 24 19  2  0  0  0  0
 26 21  1  0  0  0  0
 27 18  1  0  0  0  0
 27 22  2  0  0  0  0
 28 17  1  0  0  0  0
M  END
>  <MODEL>
9

>  <REMARK>
 VINA RESULT:      -7.3      3.120      7.413
  Name = 
  5 active torsions:
  status: ('A' for Active; 'I' for Inactive)
    1  A    between atoms: C_2  and  C_3
    2  A    between atoms: N_6  and  C_11
    3  A    between atoms: N_6  and  C_28
    4  A    between atoms: N_16  and  C_20
    5  A    between atoms: C_20  and  C_25
                            x       y       z     vdW  Elec       q    Type
                         _______ _______ _______ _____ _____    ______ ____

>  <TORSDO>
F 5

$$$$
