=
 OpenBabel11052414173D

 34 39  0  0  1  0  0  0  0  0999 V2000
  181.0550  180.4430  139.6330 C   0  0  2  0  0  3  0  0  0  0  0  0
  180.5120  177.9940  140.1190 C   0  0  1  0  0  3  0  0  0  0  0  0
  182.7220  179.0030  140.7730 C   0  0  0  0  0  0  0  0  0  0  0  0
  184.6940  178.6880  142.1200 C   0  0  0  0  0  0  0  0  0  0  0  0
  178.9320  179.3880  138.7730 C   0  0  0  0  0  2  0  0  0  0  0  0
  179.0470  178.2930  139.8240 C   0  0  0  0  0  2  0  0  0  0  0  0
  182.5200  178.9740  143.1570 C   0  0  0  0  0  3  0  0  0  0  0  0
  181.2430  179.2590  140.6080 C   0  0  1  0  0  3  0  0  0  0  0  0
  183.1050  178.8600  144.4180 C   0  0  0  0  0  3  0  0  0  0  0  0
  185.2720  178.5740  143.3880 C   0  0  0  0  0  3  0  0  0  0  0  0
  179.5830  180.6680  139.2860 C   0  0  0  0  0  2  0  0  0  0  0  0
  183.5260  178.9370  139.4900 C   0  0  2  0  0  3  0  0  0  0  0  0
  181.9060  180.2720  138.3680 C   0  0  0  0  0  2  0  0  0  0  0  0
  180.5770  176.8940  141.1640 C   0  0  0  0  0  1  0  0  0  0  0  0
  185.4860  178.6060  141.0520 C   0  0  0  0  0  3  0  0  0  0  0  0
  184.9560  178.7190  139.7230 N   0  0  0  0  0  0  0  0  0  0  0  0
  184.4880  178.6580  144.5400 C   0  0  0  0  0  0  0  0  0  0  0  0
  183.2990  178.8880  141.9890 C   0  0  0  0  0  0  0  0  0  0  0  0
  183.3220  180.1680  138.7230 N   0  0  0  0  0  2  0  0  0  0  0  0
  186.2860  177.0900  136.5820 C   0  0  0  0  0  0  0  0  0  0  0  0
  187.6550  177.2960  136.7930 O   0  0  0  0  0  0  0  0  0  0  0  0
  185.8330  178.5440  138.5690 C   0  0  2  0  0  3  0  0  0  0  0  0
  188.1490  178.2000  137.7800 C   0  0  0  0  0  2  0  0  0  0  0  0
  185.2820  177.4700  137.6290 C   0  0  0  0  0  2  0  0  0  0  0  0
  187.2540  178.2120  139.0100 C   0  0  0  0  0  2  0  0  0  0  0  0
  185.8910  176.4790  135.5170 N   0  0  0  0  0  2  0  0  0  0  0  0
  185.1050  178.5420  145.7880 O   0  0  0  0  0  0  0  0  0  0  0  0
  186.0340  177.5090  146.0920 C   0  0  0  0  0  2  0  0  0  0  0  0
  189.2350  177.8590  144.8230 C   0  0  0  0  0  1  0  0  0  0  0  0
  188.5000  177.2050  145.9750 C   0  0  2  0  0  3  0  0  0  0  0  0
  188.9910  177.9920  148.2230 C   0  0  0  0  0  2  0  0  0  0  0  0
  187.5270  178.2330  147.9470 C   0  0  0  0  0  2  0  0  0  0  0  0
  187.3800  178.1140  146.4450 C   0  0  2  0  0  3  0  0  0  0  0  0
  189.4470  177.0260  147.1490 C   0  0  0  0  0  2  0  0  0  0  0  0
  1 13  1  6  0  0  0
  1  8  1  0  0  0  0
  2  8  1  0  0  0  0
  2 14  1  1  0  0  0
  3 18  2  0  0  0  0
  4 10  1  0  0  0  0
  5 11  1  0  0  0  0
  5  6  1  0  0  0  0
  6  2  1  0  0  0  0
  7  9  2  0  0  0  0
  8  3  1  6  0  0  0
  9 17  1  0  0  0  0
 10 17  2  0  0  0  0
 11  1  1  0  0  0  0
 12 19  1  1  0  0  0
 12 16  1  0  0  0  0
 12  3  1  0  0  0  0
 13 19  1  0  0  0  0
 15  4  2  0  0  0  0
 16 15  1  0  0  0  0
 17 27  1  0  0  0  0
 18  4  1  0  0  0  0
 18  7  1  0  0  0  0
 20 21  1  0  0  0  0
 20 24  1  0  0  0  0
 21 23  1  0  0  0  0
 22 24  1  6  0  0  0
 22 25  1  0  0  0  0
 22 16  1  0  0  0  0
 23 25  1  0  0  0  0
 26 20  2  0  0  0  0
 27 28  1  0  0  0  0
 30 29  1  6  0  0  0
 30 33  1  0  0  0  0
 30 34  1  0  0  0  0
 32 31  1  0  0  0  0
 33 28  1  1  0  0  0
 33 32  1  0  0  0  0
 34 31  1  0  0  0  0
M  END
>  <MODEL>
1

>  <REMARK>
 VINA RESULT:      -9.1      0.000      0.000
  Name = 
  4 active torsions:
  status: ('A' for Active; 'I' for Inactive)
    1  A    between atoms: O_3  and  C_13
    2  A    between atoms: O_3  and  C_29
    3  A    between atoms: C_12  and  N_28
    4  A    between atoms: C_13  and  C_33
                            x       y       z     vdW  Elec       q    Type
                         _______ _______ _______ _____ _____    ______ ____

>  <TORSDO>
F 4

$$$$
=
 OpenBabel11052414173D

 34 39  0  0  1  0  0  0  0  0999 V2000
  186.5600  176.3070  136.9280 C   0  0  2  0  0  3  0  0  0  0  0  0
  187.9310  178.4250  136.5270 C   0  0  1  0  0  3  0  0  0  0  0  0
  187.0980  177.8170  138.8210 C   0  0  0  0  0  0  0  0  0  0  0  0
  187.3320  178.2790  141.1740 C   0  0  0  0  0  0  0  0  0  0  0  0
  187.1940  177.0200  134.5940 C   0  0  0  0  0  2  0  0  0  0  0  0
  188.3190  177.8760  135.1580 C   0  0  0  0  0  2  0  0  0  0  0  0
  189.1670  177.3160  139.9120 C   0  0  0  0  0  3  0  0  0  0  0  0
  187.6110  177.2800  137.5070 C   0  0  1  0  0  3  0  0  0  0  0  0
  189.9520  177.2980  141.0660 C   0  0  0  0  0  3  0  0  0  0  0  0
  188.1260  178.2580  142.3240 C   0  0  0  0  0  3  0  0  0  0  0  0
  186.9280  175.8380  135.5210 C   0  0  0  0  0  2  0  0  0  0  0  0
  185.6670  178.3170  138.8140 C   0  0  2  0  0  3  0  0  0  0  0  0
  185.1510  176.9150  136.9620 C   0  0  0  0  0  2  0  0  0  0  0  0
  189.0770  179.2770  137.0450 C   0  0  0  0  0  1  0  0  0  0  0  0
  186.0900  178.7490  141.2690 C   0  0  0  0  0  3  0  0  0  0  0  0
  185.2230  178.7940  140.1260 N   0  0  0  0  0  0  0  0  0  0  0  0
  189.4340  177.7710  142.2800 C   0  0  0  0  0  0  0  0  0  0  0  0
  187.8500  177.8070  139.9430 C   0  0  0  0  0  0  0  0  0  0  0  0
  184.7800  177.2540  138.3360 N   0  0  0  0  0  2  0  0  0  0  0  0
  181.5260  178.9250  140.9020 C   0  0  0  0  0  0  0  0  0  0  0  0
  181.1100  179.7450  139.8460 O   0  0  0  0  0  0  0  0  0  0  0  0
  183.8940  179.3890  140.2390 C   0  0  2  0  0  3  0  0  0  0  0  0
  182.0290  180.4960  139.0540 C   0  0  0  0  0  2  0  0  0  0  0  0
  182.9470  178.4590  141.0000 C   0  0  0  0  0  2  0  0  0  0  0  0
  183.3360  179.7380  138.8640 C   0  0  0  0  0  2  0  0  0  0  0  0
  180.6550  178.4850  141.7460 N   0  0  0  0  0  2  0  0  0  0  0  0
  190.1940  177.7650  143.4530 O   0  0  0  0  0  0  0  0  0  0  0  0
  189.7660  178.4070  144.6470 C   0  0  0  0  0  2  0  0  0  0  0  0
  186.5260  177.3770  145.2980 C   0  0  0  0  0  1  0  0  0  0  0  0
  187.6960  178.0560  145.9820 C   0  0  2  0  0  3  0  0  0  0  0  0
  188.7480  176.8980  147.8420 C   0  0  0  0  0  2  0  0  0  0  0  0
  189.7830  177.0910  146.7600 C   0  0  0  0  0  2  0  0  0  0  0  0
  188.9940  177.4270  145.5110 C   0  0  2  0  0  3  0  0  0  0  0  0
  187.6120  177.8320  147.4810 C   0  0  0  0  0  2  0  0  0  0  0  0
  1 11  1  6  0  0  0
  1 13  1  0  0  0  0
  1  8  1  0  0  0  0
  2 14  1  1  0  0  0
  2  8  1  0  0  0  0
  3 18  2  0  0  0  0
  4 15  2  0  0  0  0
  4 10  1  0  0  0  0
  5  6  1  0  0  0  0
  5 11  1  0  0  0  0
  6  2  1  0  0  0  0
  7 18  1  0  0  0  0
  7  9  2  0  0  0  0
  8  3  1  1  0  0  0
  9 17  1  0  0  0  0
 12 19  1  1  0  0  0
 12  3  1  0  0  0  0
 12 16  1  0  0  0  0
 13 19  1  0  0  0  0
 16 22  1  0  0  0  0
 16 15  1  0  0  0  0
 17 10  2  0  0  0  0
 17 27  1  0  0  0  0
 18  4  1  0  0  0  0
 20 24  1  0  0  0  0
 20 26  2  0  0  0  0
 21 20  1  0  0  0  0
 22 25  1  6  0  0  0
 22 24  1  0  0  0  0
 23 21  1  0  0  0  0
 25 23  1  0  0  0  0
 27 28  1  0  0  0  0
 30 29  1  6  0  0  0
 30 34  1  0  0  0  0
 32 31  1  0  0  0  0
 33 28  1  6  0  0  0
 33 30  1  0  0  0  0
 33 32  1  0  0  0  0
 34 31  1  0  0  0  0
M  END
>  <MODEL>
2

>  <REMARK>
 VINA RESULT:      -8.6      2.279      5.828
  Name = 
  4 active torsions:
  status: ('A' for Active; 'I' for Inactive)
    1  A    between atoms: O_3  and  C_13
    2  A    between atoms: O_3  and  C_29
    3  A    between atoms: C_12  and  N_28
    4  A    between atoms: C_13  and  C_33
                            x       y       z     vdW  Elec       q    Type
                         _______ _______ _______ _____ _____    ______ ____

>  <TORSDO>
F 4

$$$$
=
 OpenBabel11052414173D

 34 39  0  0  1  0  0  0  0  0999 V2000
  187.0550  176.1850  136.7650 C   0  0  2  0  0  3  0  0  0  0  0  0
  188.2720  178.4300  136.6970 C   0  0  1  0  0  3  0  0  0  0  0  0
  186.7240  177.8330  138.5890 C   0  0  0  0  0  0  0  0  0  0  0  0
  186.0440  178.4270  140.8220 C   0  0  0  0  0  0  0  0  0  0  0  0
  188.4230  176.8600  134.7570 C   0  0  0  0  0  2  0  0  0  0  0  0
  189.1800  177.8690  135.6090 C   0  0  0  0  0  2  0  0  0  0  0  0
  188.2940  177.6330  140.3830 C   0  0  0  0  0  3  0  0  0  0  0  0
  187.7280  177.3020  137.5940 C   0  0  1  0  0  3  0  0  0  0  0  0
  188.6040  177.7610  141.7380 C   0  0  0  0  0  3  0  0  0  0  0  0
  186.3640  178.5540  142.1760 C   0  0  0  0  0  3  0  0  0  0  0  0
  187.9520  175.6990  135.6270 C   0  0  0  0  0  2  0  0  0  0  0  0
  185.3530  178.1590  138.0300 C   0  0  2  0  0  3  0  0  0  0  0  0
  185.6790  176.6210  136.2430 C   0  0  0  0  0  2  0  0  0  0  0  0
  189.0650  179.4350  137.5140 C   0  0  0  0  0  1  0  0  0  0  0  0
  184.8130  178.7500  140.4290 C   0  0  0  0  0  3  0  0  0  0  0  0
  184.4190  178.6390  139.0520 N   0  0  0  0  0  0  0  0  0  0  0  0
  187.6390  178.2240  142.6430 C   0  0  0  0  0  0  0  0  0  0  0  0
  187.0150  177.9640  139.9010 C   0  0  0  0  0  0  0  0  0  0  0  0
  184.8050  176.9770  137.3610 N   0  0  0  0  0  2  0  0  0  0  0  0
  181.5710  181.0590  138.4940 C   0  0  0  0  0  0  0  0  0  0  0  0
  180.5000  180.2120  138.8080 O   0  0  0  0  0  0  0  0  0  0  0  0
  183.0910  179.0760  138.6340 C   0  0  2  0  0  3  0  0  0  0  0  0
  180.6510  178.7970  138.9160 C   0  0  0  0  0  2  0  0  0  0  0  0
  182.9880  180.6020  138.6650 C   0  0  0  0  0  2  0  0  0  0  0  0
  182.0100  178.4340  139.4970 C   0  0  0  0  0  2  0  0  0  0  0  0
  181.3360  182.2790  138.1480 N   0  0  0  0  0  2  0  0  0  0  0  0
  187.9170  178.3630  144.0050 O   0  0  0  0  0  0  0  0  0  0  0  0
  188.3480  177.2770  144.8150 C   0  0  0  0  0  2  0  0  0  0  0  0
  191.5630  178.3940  144.1830 C   0  0  0  0  0  1  0  0  0  0  0  0
  190.8330  177.1890  144.7420 C   0  0  2  0  0  3  0  0  0  0  0  0
  191.1690  176.6510  147.0890 C   0  0  0  0  0  2  0  0  0  0  0  0
  189.7030  176.9410  146.8750 C   0  0  0  0  0  2  0  0  0  0  0  0
  189.6280  177.6500  145.5400 C   0  0  2  0  0  3  0  0  0  0  0  0
  191.7420  176.4430  145.7030 C   0  0  0  0  0  2  0  0  0  0  0  0
  1 11  1  6  0  0  0
  1  8  1  0  0  0  0
  2 14  1  1  0  0  0
  2  8  1  0  0  0  0
  3 18  2  0  0  0  0
  4 10  1  0  0  0  0
  5  6  1  0  0  0  0
  5 11  1  0  0  0  0
  6  2  1  0  0  0  0
  7  9  2  0  0  0  0
  8  3  1  1  0  0  0
  9 17  1  0  0  0  0
 10 17  2  0  0  0  0
 12 19  1  1  0  0  0
 12  3  1  0  0  0  0
 12 16  1  0  0  0  0
 13  1  1  0  0  0  0
 13 19  1  0  0  0  0
 15  4  2  0  0  0  0
 16 15  1  0  0  0  0
 17 27  1  0  0  0  0
 18  7  1  0  0  0  0
 18  4  1  0  0  0  0
 20 24  1  0  0  0  0
 20 21  1  0  0  0  0
 21 23  1  0  0  0  0
 22 24  1  1  0  0  0
 22 16  1  0  0  0  0
 22 25  1  0  0  0  0
 23 25  1  0  0  0  0
 26 20  2  0  0  0  0
 27 28  1  0  0  0  0
 30 29  1  1  0  0  0
 30 33  1  0  0  0  0
 30 34  1  0  0  0  0
 32 31  1  0  0  0  0
 33 28  1  6  0  0  0
 33 32  1  0  0  0  0
 34 31  1  0  0  0  0
M  END
>  <MODEL>
3

>  <REMARK>
 VINA RESULT:      -8.0      2.298      5.831
  Name = 
  4 active torsions:
  status: ('A' for Active; 'I' for Inactive)
    1  A    between atoms: O_3  and  C_13
    2  A    between atoms: O_3  and  C_29
    3  A    between atoms: C_12  and  N_28
    4  A    between atoms: C_13  and  C_33
                            x       y       z     vdW  Elec       q    Type
                         _______ _______ _______ _____ _____    ______ ____

>  <TORSDO>
F 4

$$$$
=
 OpenBabel11052414173D

 34 39  0  0  1  0  0  0  0  0999 V2000
  188.4180  178.4420  136.8290 C   0  0  2  0  0  3  0  0  0  0  0  0
  187.3890  176.1120  137.0340 C   0  0  1  0  0  3  0  0  0  0  0  0
  186.7410  177.9740  138.5960 C   0  0  0  0  0  0  0  0  0  0  0  0
  185.1180  178.6820  140.2290 C   0  0  0  0  0  0  0  0  0  0  0  0
  189.2400  176.5290  135.4050 C   0  0  0  0  0  2  0  0  0  0  0  0
  187.9360  175.7830  135.6490 C   0  0  0  0  0  2  0  0  0  0  0  0
  184.4770  178.3390  137.9150 C   0  0  0  0  0  3  0  0  0  0  0  0
  187.1540  177.6270  137.1860 C   0  0  1  0  0  3  0  0  0  0  0  0
  183.1650  178.7000  138.2240 C   0  0  0  0  0  3  0  0  0  0  0  0
  183.8010  179.0400  140.5300 C   0  0  0  0  0  3  0  0  0  0  0  0
  188.9960  178.0330  135.4740 C   0  0  0  0  0  2  0  0  0  0  0  0
  187.8500  177.9620  139.6290 C   0  0  2  0  0  3  0  0  0  0  0  0
  189.4760  178.3540  137.9360 C   0  0  0  0  0  2  0  0  0  0  0  0
  186.0960  175.3410  137.2350 C   0  0  0  0  0  1  0  0  0  0  0  0
  186.0180  178.6920  141.2110 C   0  0  0  0  0  3  0  0  0  0  0  0
  187.3880  178.3380  140.9670 N   0  0  0  0  0  0  0  0  0  0  0  0
  182.8190  179.0520  139.5370 C   0  0  0  0  0  0  0  0  0  0  0  0
  185.4730  178.3220  138.9070 C   0  0  0  0  0  0  0  0  0  0  0  0
  188.9290  178.8540  139.1980 N   0  0  0  0  0  2  0  0  0  0  0  0
  190.4700  177.2240  142.8500 C   0  0  0  0  0  0  0  0  0  0  0  0
  189.9290  177.1680  144.1400 O   0  0  0  0  0  0  0  0  0  0  0  0
  188.3360  178.2780  142.0760 C   0  0  2  0  0  3  0  0  0  0  0  0
  188.6720  177.7570  144.4680 C   0  0  0  0  0  2  0  0  0  0  0  0
  189.6020  177.5240  141.6650 C   0  0  0  0  0  2  0  0  0  0  0  0
  187.6940  177.6470  143.3070 C   0  0  0  0  0  2  0  0  0  0  0  0
  191.7090  176.9180  142.6660 N   0  0  0  0  0  2  0  0  0  0  0  0
  181.5150  179.4180  139.8790 O   0  0  0  0  0  0  0  0  0  0  0  0
  180.7190  178.6660  140.7850 C   0  0  0  0  0  2  0  0  0  0  0  0
  182.2840  179.0750  143.8460 C   0  0  0  0  0  1  0  0  0  0  0  0
  180.9920  178.5470  143.2560 C   0  0  2  0  0  3  0  0  0  0  0  0
  178.9310  179.7020  143.8270 C   0  0  0  0  0  2  0  0  0  0  0  0
  179.1170  179.7810  142.3300 C   0  0  0  0  0  2  0  0  0  0  0  0
  180.5690  179.4230  142.0910 C   0  0  2  0  0  3  0  0  0  0  0  0
  179.8860  178.6250  144.2940 C   0  0  0  0  0  2  0  0  0  0  0  0
  1 11  1  6  0  0  0
  1  8  1  0  0  0  0
  1 13  1  0  0  0  0
  2  8  1  0  0  0  0
  2 14  1  6  0  0  0
  3 18  2  0  0  0  0
  4 10  1  0  0  0  0
  4 15  2  0  0  0  0
  5 11  1  0  0  0  0
  5  6  1  0  0  0  0
  6  2  1  0  0  0  0
  7  9  2  0  0  0  0
  7 18  1  0  0  0  0
  8  3  1  1  0  0  0
  9 17  1  0  0  0  0
 12  3  1  6  0  0  0
 12 16  1  0  0  0  0
 13 19  1  0  0  0  0
 16 15  1  0  0  0  0
 17 27  1  0  0  0  0
 17 10  2  0  0  0  0
 18  4  1  0  0  0  0
 19 12  1  0  0  0  0
 20 21  1  0  0  0  0
 21 23  1  0  0  0  0
 22 16  1  6  0  0  0
 22 25  1  0  0  0  0
 24 22  1  0  0  0  0
 24 20  1  0  0  0  0
 25 23  1  0  0  0  0
 26 20  2  0  0  0  0
 27 28  1  0  0  0  0
 30 29  1  1  0  0  0
 30 34  1  0  0  0  0
 31 34  1  0  0  0  0
 32 31  1  0  0  0  0
 33 28  1  6  0  0  0
 33 32  1  0  0  0  0
 33 30  1  0  0  0  0
M  END
>  <MODEL>
4

>  <REMARK>
 VINA RESULT:      -7.9      2.779      7.220
  Name = 
  4 active torsions:
  status: ('A' for Active; 'I' for Inactive)
    1  A    between atoms: O_3  and  C_13
    2  A    between atoms: O_3  and  C_29
    3  A    between atoms: C_12  and  N_28
    4  A    between atoms: C_13  and  C_33
                            x       y       z     vdW  Elec       q    Type
                         _______ _______ _______ _____ _____    ______ ____

>  <TORSDO>
F 4

$$$$
=
 OpenBabel11052414173D

 34 39  0  0  1  0  0  0  0  0999 V2000
  191.0880  174.2780  137.5900 C   0  0  2  0  0  3  0  0  0  0  0  0
  192.5890  176.3400  137.4490 C   0  0  1  0  0  3  0  0  0  0  0  0
  190.3890  176.3990  138.6690 C   0  0  0  0  0  0  0  0  0  0  0  0
  189.0530  177.6500  140.2350 C   0  0  0  0  0  0  0  0  0  0  0  0
  193.1770  174.2700  136.1770 C   0  0  0  0  0  2  0  0  0  0  0  0
  193.7260  175.4410  136.9790 C   0  0  0  0  0  2  0  0  0  0  0  0
  191.1520  176.6460  140.9220 C   0  0  0  0  0  3  0  0  0  0  0  0
  191.5850  175.5500  138.3110 C   0  0  1  0  0  3  0  0  0  0  0  0
  190.9690  177.1450  142.2130 C   0  0  0  0  0  3  0  0  0  0  0  0
  188.8790  178.1460  141.5300 C   0  0  0  0  0  3  0  0  0  0  0  0
  192.2450  173.4370  137.0510 C   0  0  0  0  0  2  0  0  0  0  0  0
  189.3830  176.6200  137.5570 C   0  0  2  0  0  3  0  0  0  0  0  0
  190.0820  174.6150  136.4810 C   0  0  0  0  0  2  0  0  0  0  0  0
  193.1840  177.4960  138.2350 C   0  0  0  0  0  1  0  0  0  0  0  0
  188.1150  177.9080  139.3250 C   0  0  0  0  0  3  0  0  0  0  0  0
  188.2330  177.4240  137.9790 N   0  0  0  0  0  0  0  0  0  0  0  0
  189.8290  177.9000  142.5230 C   0  0  0  0  0  0  0  0  0  0  0  0
  190.2030  176.8890  139.9140 C   0  0  0  0  0  0  0  0  0  0  0  0
  188.9310  175.3250  137.0420 N   0  0  0  0  0  2  0  0  0  0  0  0
  185.0610  177.0920  135.9510 C   0  0  0  0  0  0  0  0  0  0  0  0
  185.5390  177.5560  134.7200 O   0  0  0  0  0  0  0  0  0  0  0  0
  187.2320  177.7900  136.9810 C   0  0  2  0  0  3  0  0  0  0  0  0
  186.7820  178.2460  134.5940 C   0  0  0  0  0  2  0  0  0  0  0  0
  185.9850  176.9150  137.1180 C   0  0  0  0  0  2  0  0  0  0  0  0
  187.8130  177.7030  135.5730 C   0  0  0  0  0  2  0  0  0  0  0  0
  183.8300  176.7190  136.0560 N   0  0  0  0  0  2  0  0  0  0  0  0
  189.6160  178.4130  143.8060 O   0  0  0  0  0  0  0  0  0  0  0  0
  190.2190  177.8540  144.9660 C   0  0  0  0  0  2  0  0  0  0  0  0
  186.8220  177.1910  145.0170 C   0  0  0  0  0  1  0  0  0  0  0  0
  187.8870  177.8970  145.8320 C   0  0  2  0  0  3  0  0  0  0  0  0
  188.3870  177.0190  148.0430 C   0  0  0  0  0  2  0  0  0  0  0  0
  189.6430  176.9400  147.2080 C   0  0  0  0  0  2  0  0  0  0  0  0
  189.1790  177.1030  145.7760 C   0  0  2  0  0  3  0  0  0  0  0  0
  187.4630  177.9510  147.2890 C   0  0  0  0  0  2  0  0  0  0  0  0
  1 13  1  6  0  0  0
  1  8  1  0  0  0  0
  2 14  1  1  0  0  0
  2  8  1  0  0  0  0
  3 18  2  0  0  0  0
  4 10  1  0  0  0  0
  5  6  1  0  0  0  0
  5 11  1  0  0  0  0
  6  2  1  0  0  0  0
  7  9  2  0  0  0  0
  8  3  1  6  0  0  0
  9 17  1  0  0  0  0
 10 17  2  0  0  0  0
 11  1  1  0  0  0  0
 12 19  1  1  0  0  0
 12 16  1  0  0  0  0
 12  3  1  0  0  0  0
 13 19  1  0  0  0  0
 15  4  2  0  0  0  0
 16 15  1  0  0  0  0
 17 27  1  0  0  0  0
 18  4  1  0  0  0  0
 18  7  1  0  0  0  0
 20 26  2  0  0  0  0
 20 24  1  0  0  0  0
 21 20  1  0  0  0  0
 22 25  1  6  0  0  0
 22 24  1  0  0  0  0
 22 16  1  0  0  0  0
 23 21  1  0  0  0  0
 23 25  1  0  0  0  0
 27 28  1  0  0  0  0
 30 29  1  6  0  0  0
 30 34  1  0  0  0  0
 32 31  1  0  0  0  0
 33 28  1  6  0  0  0
 33 30  1  0  0  0  0
 33 32  1  0  0  0  0
 34 31  1  0  0  0  0
M  END
>  <MODEL>
5

>  <REMARK>
 VINA RESULT:      -7.6      4.155      7.621
  Name = 
  4 active torsions:
  status: ('A' for Active; 'I' for Inactive)
    1  A    between atoms: O_3  and  C_13
    2  A    between atoms: O_3  and  C_29
    3  A    between atoms: C_12  and  N_28
    4  A    between atoms: C_13  and  C_33
                            x       y       z     vdW  Elec       q    Type
                         _______ _______ _______ _____ _____    ______ ____

>  <TORSDO>
F 4

$$$$
=
 OpenBabel11052414173D

 34 39  0  0  1  0  0  0  0  0999 V2000
  192.7430  176.7490  137.4940 C   0  0  2  0  0  3  0  0  0  0  0  0
  191.4280  174.5610  137.5950 C   0  0  1  0  0  3  0  0  0  0  0  0
  190.5180  176.6870  138.5870 C   0  0  0  0  0  0  0  0  0  0  0  0
  188.5330  177.7570  139.4360 C   0  0  0  0  0  0  0  0  0  0  0  0
  193.7620  174.5830  136.6980 C   0  0  0  0  0  2  0  0  0  0  0  0
  192.3710  173.9820  136.5480 C   0  0  0  0  0  2  0  0  0  0  0  0
  188.6890  177.1060  137.1040 C   0  0  0  0  0  3  0  0  0  0  0  0
  191.3440  176.0950  137.4710 C   0  0  1  0  0  3  0  0  0  0  0  0
  187.4050  177.6050  136.8780 C   0  0  0  0  0  3  0  0  0  0  0  0
  187.2480  178.2530  139.2000 C   0  0  0  0  0  3  0  0  0  0  0  0
  193.6970  176.0940  136.4950 C   0  0  0  0  0  2  0  0  0  0  0  0
  191.1940  176.7540  139.9420 C   0  0  2  0  0  3  0  0  0  0  0  0
  193.3380  176.7580  138.9090 C   0  0  0  0  0  2  0  0  0  0  0  0
  190.0590  173.9280  137.4120 C   0  0  0  0  0  1  0  0  0  0  0  0
  189.0350  177.8540  140.6660 C   0  0  0  0  0  3  0  0  0  0  0  0
  190.3510  177.3670  140.9720 N   0  0  0  0  0  0  0  0  0  0  0  0
  186.6770  178.1820  137.9280 C   0  0  0  0  0  0  0  0  0  0  0  0
  189.2740  177.1700  138.3810 C   0  0  0  0  0  0  0  0  0  0  0  0
  192.4570  177.4870  139.8220 N   0  0  0  0  0  2  0  0  0  0  0  0
  191.4330  175.9950  144.3230 C   0  0  0  0  0  0  0  0  0  0  0  0
  190.9160  177.0020  145.1480 O   0  0  0  0  0  0  0  0  0  0  0  0
  190.8460  177.4110  142.3440 C   0  0  2  0  0  3  0  0  0  0  0  0
  190.4780  178.2590  144.6360 C   0  0  0  0  0  2  0  0  0  0  0  0
  191.1760  176.0040  142.8460 C   0  0  0  0  0  2  0  0  0  0  0  0
  189.8430  178.1020  143.2630 C   0  0  0  0  0  2  0  0  0  0  0  0
  192.0560  174.9970  144.8510 N   0  0  0  0  0  2  0  0  0  0  0  0
  185.3900  178.6920  137.7350 O   0  0  0  0  0  0  0  0  0  0  0  0
  184.2260  178.0490  138.2380 C   0  0  0  0  0  2  0  0  0  0  0  0
  184.3940  178.5290  141.6620 C   0  0  0  0  0  1  0  0  0  0  0  0
  183.4290  178.0550  140.5950 C   0  0  2  0  0  3  0  0  0  0  0  0
  181.4240  179.3760  140.2140 C   0  0  0  0  0  2  0  0  0  0  0  0
  182.2260  179.3550  138.9350 C   0  0  0  0  0  2  0  0  0  0  0  0
  183.6080  178.8890  139.3400 C   0  0  2  0  0  3  0  0  0  0  0  0
  182.0010  178.2660  141.0670 C   0  0  0  0  0  2  0  0  0  0  0  0
  1 11  1  6  0  0  0
  1 13  1  0  0  0  0
  2 14  1  6  0  0  0
  4 15  2  0  0  0  0
  6  5  1  0  0  0  0
  6  2  1  0  0  0  0
  7 18  1  0  0  0  0
  8  1  1  0  0  0  0
  8  2  1  0  0  0  0
  8  3  1  1  0  0  0
  9  7  2  0  0  0  0
  9 17  1  0  0  0  0
 10  4  1  0  0  0  0
 11  5  1  0  0  0  0
 12  3  1  6  0  0  0
 12 16  1  0  0  0  0
 13 19  1  0  0  0  0
 15 16  1  0  0  0  0
 17 10  2  0  0  0  0
 18  3  2  0  0  0  0
 18  4  1  0  0  0  0
 19 12  1  0  0  0  0
 20 26  2  0  0  0  0
 20 21  1  0  0  0  0
 22 16  1  6  0  0  0
 22 24  1  0  0  0  0
 22 25  1  0  0  0  0
 23 21  1  0  0  0  0
 24 20  1  0  0  0  0
 25 23  1  0  0  0  0
 27 17  1  0  0  0  0
 27 28  1  0  0  0  0
 30 34  1  0  0  0  0
 30 29  1  1  0  0  0
 31 34  1  0  0  0  0
 32 33  1  0  0  0  0
 32 31  1  0  0  0  0
 33 28  1  6  0  0  0
 33 30  1  0  0  0  0
M  END
>  <MODEL>
6

>  <REMARK>
 VINA RESULT:      -7.5      3.982      9.416
  Name = 
  4 active torsions:
  status: ('A' for Active; 'I' for Inactive)
    1  A    between atoms: O_3  and  C_13
    2  A    between atoms: O_3  and  C_29
    3  A    between atoms: C_12  and  N_28
    4  A    between atoms: C_13  and  C_33
                            x       y       z     vdW  Elec       q    Type
                         _______ _______ _______ _____ _____    ______ ____

>  <TORSDO>
F 4

$$$$
=
 OpenBabel11052414173D

 34 39  0  0  1  0  0  0  0  0999 V2000
  188.0160  178.2150  135.8830 C   0  0  2  0  0  3  0  0  0  0  0  0
  186.4790  176.4340  136.8790 C   0  0  1  0  0  3  0  0  0  0  0  0
  188.5860  177.1520  138.0500 C   0  0  0  0  0  0  0  0  0  0  0  0
  189.7780  177.0940  140.1430 C   0  0  0  0  0  0  0  0  0  0  0  0
  186.0310  177.3450  134.5940 C   0  0  0  0  0  2  0  0  0  0  0  0
  185.3990  176.8580  135.8900 C   0  0  0  0  0  2  0  0  0  0  0  0
  187.6610  178.2640  139.9560 C   0  0  0  0  0  3  0  0  0  0  0  0
  187.4380  177.6010  137.1780 C   0  0  1  0  0  3  0  0  0  0  0  0
  187.7410  178.6250  141.3020 C   0  0  0  0  0  3  0  0  0  0  0  0
  189.8490  177.4590  141.4900 C   0  0  0  0  0  3  0  0  0  0  0  0
  186.9190  178.5520  134.8730 C   0  0  0  0  0  2  0  0  0  0  0  0
  189.6610  176.3410  137.3570 C   0  0  2  0  0  3  0  0  0  0  0  0
  189.0880  177.3110  135.2600 C   0  0  0  0  0  2  0  0  0  0  0  0
  185.8030  175.9500  138.1500 C   0  0  0  0  0  1  0  0  0  0  0  0
  190.7710  176.3690  139.6290 C   0  0  0  0  0  3  0  0  0  0  0  0
  190.7600  175.9650  138.2520 N   0  0  0  0  0  0  0  0  0  0  0  0
  188.8380  178.2220  142.0780 C   0  0  0  0  0  0  0  0  0  0  0  0
  188.6720  177.4940  139.3550 C   0  0  0  0  0  0  0  0  0  0  0  0
  190.1790  177.0940  136.2120 N   0  0  0  0  0  2  0  0  0  0  0  0
  194.0140  175.1050  136.5340 C   0  0  0  0  0  0  0  0  0  0  0  0
  193.6110  173.9370  135.8740 O   0  0  0  0  0  0  0  0  0  0  0  0
  191.8180  175.1040  137.7340 C   0  0  2  0  0  3  0  0  0  0  0  0
  192.3990  173.2580  136.1960 C   0  0  0  0  0  2  0  0  0  0  0  0
  193.0290  175.9320  137.3030 C   0  0  0  0  0  2  0  0  0  0  0  0
  191.3050  174.2420  136.5850 C   0  0  0  0  0  2  0  0  0  0  0  0
  195.2260  175.5260  136.3980 N   0  0  0  0  0  2  0  0  0  0  0  0
  188.9490  178.5680  143.4270 O   0  0  0  0  0  0  0  0  0  0  0  0
  189.7730  177.8520  144.3380 C   0  0  0  0  0  2  0  0  0  0  0  0
  186.4520  177.1600  145.0290 C   0  0  0  0  0  1  0  0  0  0  0  0
  187.6370  177.9020  145.6140 C   0  0  2  0  0  3  0  0  0  0  0  0
  188.5460  177.1030  147.7220 C   0  0  0  0  0  2  0  0  0  0  0  0
  189.6290  177.0070  146.6750 C   0  0  0  0  0  2  0  0  0  0  0  0
  188.9090  177.1190  145.3470 C   0  0  2  0  0  3  0  0  0  0  0  0
  187.4850  178.0010  147.1220 C   0  0  0  0  0  2  0  0  0  0  0  0
  1 11  1  6  0  0  0
  1  8  1  0  0  0  0
  2  8  1  0  0  0  0
  2 14  1  1  0  0  0
  3 18  2  0  0  0  0
  4 10  1  0  0  0  0
  5 11  1  0  0  0  0
  5  6  1  0  0  0  0
  6  2  1  0  0  0  0
  7  9  2  0  0  0  0
  8  3  1  1  0  0  0
  9 17  1  0  0  0  0
 10 17  2  0  0  0  0
 12 19  1  6  0  0  0
 12  3  1  0  0  0  0
 12 16  1  0  0  0  0
 13  1  1  0  0  0  0
 13 19  1  0  0  0  0
 15  4  2  0  0  0  0
 16 15  1  0  0  0  0
 17 27  1  0  0  0  0
 18  7  1  0  0  0  0
 18  4  1  0  0  0  0
 20 24  1  0  0  0  0
 21 23  1  0  0  0  0
 21 20  1  0  0  0  0
 22 25  1  6  0  0  0
 22 16  1  0  0  0  0
 23 25  1  0  0  0  0
 24 22  1  0  0  0  0
 26 20  2  0  0  0  0
 27 28  1  0  0  0  0
 30 29  1  1  0  0  0
 30 34  1  0  0  0  0
 32 31  1  0  0  0  0
 33 28  1  6  0  0  0
 33 30  1  0  0  0  0
 33 32  1  0  0  0  0
 34 31  1  0  0  0  0
M  END
>  <MODEL>
7

>  <REMARK>
 VINA RESULT:      -7.4      4.507      6.343
  Name = 
  4 active torsions:
  status: ('A' for Active; 'I' for Inactive)
    1  A    between atoms: O_3  and  C_13
    2  A    between atoms: O_3  and  C_29
    3  A    between atoms: C_12  and  N_28
    4  A    between atoms: C_13  and  C_33
                            x       y       z     vdW  Elec       q    Type
                         _______ _______ _______ _____ _____    ______ ____

>  <TORSDO>
F 4

$$$$
=
 OpenBabel11052414173D

 34 39  0  0  1  0  0  0  0  0999 V2000
  185.3240  179.4880  144.4030 C   0  0  2  0  0  3  0  0  0  0  0  0
  186.3360  177.1420  144.4190 C   0  0  1  0  0  3  0  0  0  0  0  0
  185.7320  178.2950  142.2670 C   0  0  0  0  0  0  0  0  0  0  0  0
  186.0230  178.2530  139.8760 C   0  0  0  0  0  0  0  0  0  0  0  0
  185.7130  178.2570  146.5690 C   0  0  0  0  0  2  0  0  0  0  0  0
  186.7260  177.3550  145.8770 C   0  0  0  0  0  2  0  0  0  0  0  0
  187.9100  178.6580  141.3460 C   0  0  0  0  0  3  0  0  0  0  0  0
  186.2470  178.4870  143.6730 C   0  0  1  0  0  3  0  0  0  0  0  0
  188.7510  178.7680  140.2380 C   0  0  0  0  0  3  0  0  0  0  0  0
  186.8740  178.3640  138.7720 C   0  0  0  0  0  3  0  0  0  0  0  0
  185.6800  179.6190  145.8830 C   0  0  0  0  0  2  0  0  0  0  0  0
  184.2440  178.0350  142.1400 C   0  0  2  0  0  3  0  0  0  0  0  0
  183.8430  179.1280  144.2160 C   0  0  0  0  0  2  0  0  0  0  0  0
  187.3670  176.2320  143.7740 C   0  0  0  0  0  1  0  0  0  0  0  0
  184.7320  178.0120  139.6590 C   0  0  0  0  0  3  0  0  0  0  0  0
  183.8060  177.8910  140.7490 N   0  0  0  0  0  0  0  0  0  0  0  0
  188.2360  178.6210  138.9430 C   0  0  0  0  0  0  0  0  0  0  0  0
  186.5380  178.3970  141.1870 C   0  0  0  0  0  0  0  0  0  0  0  0
  183.5020  179.1170  142.7930 N   0  0  0  0  0  2  0  0  0  0  0  0
  180.9220  175.9770  139.2310 C   0  0  0  0  0  0  0  0  0  0  0  0
  180.0360  177.0430  139.0270 O   0  0  0  0  0  0  0  0  0  0  0  0
  182.4110  177.5460  140.4900 C   0  0  2  0  0  3  0  0  0  0  0  0
  180.2270  178.3210  139.6310 C   0  0  0  0  0  2  0  0  0  0  0  0
  182.3120  176.2190  139.7350 C   0  0  0  0  0  2  0  0  0  0  0  0
  181.7060  178.6650  139.7300 C   0  0  0  0  0  2  0  0  0  0  0  0
  180.5700  174.7840  138.8900 N   0  0  0  0  0  2  0  0  0  0  0  0
  189.0510  178.7260  137.8130 O   0  0  0  0  0  0  0  0  0  0  0  0
  189.2690  177.6420  136.9190 C   0  0  0  0  0  2  0  0  0  0  0  0
  191.6800  176.7530  139.2380 C   0  0  0  0  0  1  0  0  0  0  0  0
  191.2870  176.4840  137.7990 C   0  0  2  0  0  3  0  0  0  0  0  0
  190.5960  174.2260  137.2180 C   0  0  0  0  0  2  0  0  0  0  0  0
  189.4420  175.1600  136.9420 C   0  0  0  0  0  2  0  0  0  0  0  0
  189.7740  176.4350  137.6860 C   0  0  2  0  0  3  0  0  0  0  0  0
  191.8070  175.1220  137.3740 C   0  0  0  0  0  2  0  0  0  0  0  0
  1 13  1  1  0  0  0
  1 11  1  0  0  0  0
  2 14  1  6  0  0  0
  2  6  1  0  0  0  0
  4 18  1  0  0  0  0
  6  5  1  0  0  0  0
  8  3  1  6  0  0  0
  8  1  1  0  0  0  0
  8  2  1  0  0  0  0
  9  7  2  0  0  0  0
 10 17  2  0  0  0  0
 10  4  1  0  0  0  0
 11  5  1  0  0  0  0
 12  3  1  6  0  0  0
 12 19  1  0  0  0  0
 15  4  2  0  0  0  0
 15 16  1  0  0  0  0
 16 12  1  0  0  0  0
 17  9  1  0  0  0  0
 18  7  1  0  0  0  0
 18  3  2  0  0  0  0
 19 13  1  0  0  0  0
 20 24  1  0  0  0  0
 21 20  1  0  0  0  0
 21 23  1  0  0  0  0
 22 25  1  6  0  0  0
 22 16  1  0  0  0  0
 23 25  1  0  0  0  0
 24 22  1  0  0  0  0
 26 20  2  0  0  0  0
 27 17  1  0  0  0  0
 28 27  1  0  0  0  0
 30 29  1  1  0  0  0
 31 34  1  0  0  0  0
 32 31  1  0  0  0  0
 32 33  1  0  0  0  0
 33 28  1  6  0  0  0
 33 30  1  0  0  0  0
 34 30  1  0  0  0  0
M  END
>  <MODEL>
8

>  <REMARK>
 VINA RESULT:      -7.3      2.788      7.161
  Name = 
  4 active torsions:
  status: ('A' for Active; 'I' for Inactive)
    1  A    between atoms: O_3  and  C_13
    2  A    between atoms: O_3  and  C_29
    3  A    between atoms: C_12  and  N_28
    4  A    between atoms: C_13  and  C_33
                            x       y       z     vdW  Elec       q    Type
                         _______ _______ _______ _____ _____    ______ ____

>  <TORSDO>
F 4

$$$$
=
 OpenBabel11052414173D

 34 39  0  0  1  0  0  0  0  0999 V2000
  188.3980  178.3220  136.7260 C   0  0  2  0  0  3  0  0  0  0  0  0
  187.3740  175.9990  137.0160 C   0  0  1  0  0  3  0  0  0  0  0  0
  186.7920  177.8920  138.5670 C   0  0  0  0  0  0  0  0  0  0  0  0
  185.2380  178.6350  140.2510 C   0  0  0  0  0  0  0  0  0  0  0  0
  189.1590  176.3810  135.3070 C   0  0  0  0  0  2  0  0  0  0  0  0
  187.8640  175.6430  135.6170 C   0  0  0  0  0  2  0  0  0  0  0  0
  184.5040  178.2500  137.9710 C   0  0  0  0  0  3  0  0  0  0  0  0
  187.1480  177.5170  137.1490 C   0  0  1  0  0  3  0  0  0  0  0  0
  183.2050  178.6200  138.3260 C   0  0  0  0  0  3  0  0  0  0  0  0
  183.9340  179.0020  140.5970 C   0  0  0  0  0  3  0  0  0  0  0  0
  188.9210  177.8860  135.3570 C   0  0  0  0  0  2  0  0  0  0  0  0
  187.9420  177.8960  139.5550 C   0  0  2  0  0  3  0  0  0  0  0  0
  189.5000  178.2530  137.7910 C   0  0  0  0  0  2  0  0  0  0  0  0
  186.0880  175.2360  137.2830 C   0  0  0  0  0  1  0  0  0  0  0  0
  186.1760  178.6610  141.1950 C   0  0  0  0  0  3  0  0  0  0  0  0
  187.5340  178.2990  140.9040 N   0  0  0  0  0  0  0  0  0  0  0  0
  182.9140  178.9980  139.6440 C   0  0  0  0  0  0  0  0  0  0  0  0
  185.5390  178.2490  138.9220 C   0  0  0  0  0  0  0  0  0  0  0  0
  189.0040  178.7770  139.0640 N   0  0  0  0  0  2  0  0  0  0  0  0
  190.6300  177.1340  142.7320 C   0  0  0  0  0  0  0  0  0  0  0  0
  190.1450  177.1960  144.0440 O   0  0  0  0  0  0  0  0  0  0  0  0
  188.5260  178.2570  141.9740 C   0  0  2  0  0  3  0  0  0  0  0  0
  188.9380  177.8780  144.3810 C   0  0  0  0  0  2  0  0  0  0  0  0
  189.7290  177.4050  141.5650 C   0  0  0  0  0  2  0  0  0  0  0  0
  187.9060  177.7480  143.2710 C   0  0  0  0  0  2  0  0  0  0  0  0
  191.8420  176.7450  142.5190 N   0  0  0  0  0  2  0  0  0  0  0  0
  181.6250  179.3740  140.0310 O   0  0  0  0  0  0  0  0  0  0  0  0
  180.8540  178.6260  140.9630 C   0  0  0  0  0  2  0  0  0  0  0  0
  179.7400  175.3710  140.5860 C   0  0  0  0  0  1  0  0  0  0  0  0
  180.3710  176.4900  139.7820 C   0  0  2  0  0  3  0  0  0  0  0  0
  179.0690  177.4540  137.9690 C   0  0  0  0  0  2  0  0  0  0  0  0
  179.3630  178.5440  138.9720 C   0  0  0  0  0  2  0  0  0  0  0  0
  179.7970  177.8220  140.2300 C   0  0  2  0  0  3  0  0  0  0  0  0
  180.0190  176.3260  138.3140 C   0  0  0  0  0  2  0  0  0  0  0  0
  1 11  1  6  0  0  0
  1  8  1  0  0  0  0
  1 13  1  0  0  0  0
  2  8  1  0  0  0  0
  2 14  1  6  0  0  0
  3 18  2  0  0  0  0
  4 10  1  0  0  0  0
  4 15  2  0  0  0  0
  5 11  1  0  0  0  0
  5  6  1  0  0  0  0
  6  2  1  0  0  0  0
  7  9  2  0  0  0  0
  7 18  1  0  0  0  0
  8  3  1  1  0  0  0
  9 17  1  0  0  0  0
 12  3  1  6  0  0  0
 12 16  1  0  0  0  0
 13 19  1  0  0  0  0
 16 15  1  0  0  0  0
 17 27  1  0  0  0  0
 17 10  2  0  0  0  0
 18  4  1  0  0  0  0
 19 12  1  0  0  0  0
 20 21  1  0  0  0  0
 21 23  1  0  0  0  0
 22 16  1  6  0  0  0
 22 25  1  0  0  0  0
 24 22  1  0  0  0  0
 24 20  1  0  0  0  0
 25 23  1  0  0  0  0
 26 20  2  0  0  0  0
 27 28  1  0  0  0  0
 30 33  1  0  0  0  0
 30 29  1  1  0  0  0
 31 34  1  0  0  0  0
 31 32  1  0  0  0  0
 32 33  1  0  0  0  0
 33 28  1  6  0  0  0
 34 30  1  0  0  0  0
M  END
>  <MODEL>
9

>  <REMARK>
 VINA RESULT:      -7.0      2.855      7.836
  Name = 
  4 active torsions:
  status: ('A' for Active; 'I' for Inactive)
    1  A    between atoms: O_3  and  C_13
    2  A    between atoms: O_3  and  C_29
    3  A    between atoms: C_12  and  N_28
    4  A    between atoms: C_13  and  C_33
                            x       y       z     vdW  Elec       q    Type
                         _______ _______ _______ _____ _____    ______ ____

>  <TORSDO>
F 4

$$$$
