=
 OpenBabel11052414063D

 34 40  0  0  1  0  0  0  0  0999 V2000
  188.3800  177.4160  144.8960 C   0  0  0  0  0  0  0  0  0  0  0  0
  190.5330  177.3950  143.7750 C   0  0  0  0  0  3  0  0  0  0  0  0
  188.5070  178.0160  142.5230 C   0  0  0  0  0  0  0  0  0  0  0  0
  188.5210  178.9290  140.1140 C   0  0  1  0  0  3  0  0  0  0  0  0
  190.3770  176.7830  146.1110 C   0  0  0  0  0  3  0  0  0  0  0  0
  191.1440  176.9840  144.9620 C   0  0  0  0  0  3  0  0  0  0  0  0
  189.8010  177.0180  140.5880 C   0  0  0  0  0  0  0  0  0  0  0  0
  189.1450  177.6050  143.7190 C   0  0  0  0  0  0  0  0  0  0  0  0
  189.1870  178.4180  138.8310 C   0  0  0  0  0  2  0  0  0  0  0  0
  188.9980  177.0010  146.0790 C   0  0  0  0  0  3  0  0  0  0  0  0
  187.1180  178.2750  142.5370 C   0  0  0  0  0  0  0  0  0  0  0  0
  187.0100  177.6680  144.8880 C   0  0  0  0  0  3  0  0  0  0  0  0
  190.2110  175.9870  141.1840 O   0  0  0  0  0  0  0  0  0  0  0  0
  187.1360  178.4620  140.0970 N   0  0  0  0  0  2  0  0  0  0  0  0
  186.4610  178.8850  141.3180 C   0  0  1  0  0  3  0  0  0  0  0  0
  189.7750  177.1340  139.1780 N   0  0  0  0  0  0  0  0  0  0  0  0
  189.3110  178.2500  141.2560 C   0  0  2  0  0  3  0  0  0  0  0  0
  186.3890  178.1100  143.7240 C   0  0  0  0  0  3  0  0  0  0  0  0
  190.7690  175.0770  138.6250 O   0  0  0  0  0  0  0  0  0  0  0  0
  189.9820  174.0370  136.2120 O   0  0  0  0  0  1  0  0  0  0  0  0
  190.9810  175.8570  137.4750 C   0  0  1  0  0  0  0  0  0  0  0  0
  190.9790  175.0160  136.1870 C   0  0  1  0  0  3  0  0  0  0  0  0
  189.7360  175.9830  138.2840 C   0  0  2  0  0  3  0  0  0  0  0  0
  193.1740  175.4370  135.8130 C   0  0  0  0  0  2  0  0  0  0  0  0
  193.4470  176.1450  137.1440 C   0  0  0  0  0  2  0  0  0  0  0  0
  192.1670  176.8030  137.6600 C   0  0  0  0  0  2  0  0  0  0  0  0
  192.2340  174.4050  136.0070 O   0  0  0  0  0  0  0  0  0  0  0  0
  182.7500  178.6120  142.1300 C   0  0  0  0  0  0  0  0  0  0  0  0
  182.2680  177.9830  140.9780 C   0  0  0  0  0  3  0  0  0  0  0  0
  184.9970  178.5700  141.2140 C   0  0  0  0  0  0  0  0  0  0  0  0
  183.1480  177.6480  139.9450 C   0  0  0  0  0  3  0  0  0  0  0  0
  184.1110  178.9070  142.2490 C   0  0  0  0  0  3  0  0  0  0  0  0
  184.5110  177.9420  140.0620 C   0  0  0  0  0  3  0  0  0  0  0  0
  181.6480  179.0340  143.4230 Cl  0  0  0  0  0  0  0  0  0  0  0  0
  1 10  2  0  0  0  0
  2  6  1  0  0  0  0
  3 11  2  0  0  0  0
  3  8  1  0  0  0  0
  4  9  1  6  0  0  0
  4 17  1  0  0  0  0
  6  5  2  0  0  0  0
  7 13  2  0  0  0  0
  8  2  2  0  0  0  0
  8  1  1  0  0  0  0
  9 16  1  0  0  0  0
 10  5  1  0  0  0  0
 11 18  1  0  0  0  0
 12  1  1  0  0  0  0
 14  4  1  0  0  0  0
 14 15  1  0  0  0  0
 15 30  1  6  0  0  0
 15 11  1  0  0  0  0
 16  7  1  0  0  0  0
 17  7  1  6  0  0  0
 17  3  1  0  0  0  0
 18 12  2  0  0  0  0
 21 26  1  1  0  0  0
 21 23  1  0  0  0  0
 21 19  1  0  0  0  0
 22 20  1  1  0  0  0
 22 21  1  0  0  0  0
 23 19  1  0  0  0  0
 23 16  1  1  0  0  0
 24 27  1  0  0  0  0
 24 25  1  0  0  0  0
 25 26  1  0  0  0  0
 27 22  1  0  0  0  0
 28 32  1  0  0  0  0
 28 34  1  0  0  0  0
 29 28  2  0  0  0  0
 30 32  2  0  0  0  0
 31 33  2  0  0  0  0
 31 29  1  0  0  0  0
 33 30  1  0  0  0  0
M  END
>  <MODEL>
1

>  <REMARK>
 VINA RESULT:     -10.0      0.000      0.000
  Name = 
  2 active torsions:
  status: ('A' for Active; 'I' for Inactive)
    1  A    between atoms: C_12  and  C_28
    2  A    between atoms: C_17  and  N_29
                            x       y       z     vdW  Elec       q    Type
                         _______ _______ _______ _____ _____    ______ ____

>  <TORSDO>
F 2

$$$$
=
 OpenBabel11052414063D

 34 40  0  0  1  0  0  0  0  0999 V2000
  188.6000  177.3090  145.4090 C   0  0  0  0  0  0  0  0  0  0  0  0
  190.7120  177.2800  144.2110 C   0  0  0  0  0  3  0  0  0  0  0  0
  188.6580  177.9830  143.0530 C   0  0  0  0  0  0  0  0  0  0  0  0
  188.6080  178.9750  140.6750 C   0  0  1  0  0  3  0  0  0  0  0  0
  190.6250  176.5960  146.5310 C   0  0  0  0  0  3  0  0  0  0  0  0
  191.3550  176.8180  145.3620 C   0  0  0  0  0  3  0  0  0  0  0  0
  189.8600  177.0230  141.0420 C   0  0  0  0  0  0  0  0  0  0  0  0
  189.3280  177.5210  144.2120 C   0  0  0  0  0  0  0  0  0  0  0  0
  189.2170  178.4910  139.3540 C   0  0  0  0  0  2  0  0  0  0  0  0
  189.2510  176.8440  146.5560 C   0  0  0  0  0  3  0  0  0  0  0  0
  187.2760  178.2720  143.1250 C   0  0  0  0  0  0  0  0  0  0  0  0
  187.2370  177.5900  145.4580 C   0  0  0  0  0  3  0  0  0  0  0  0
  190.2680  175.9640  141.5910 O   0  0  0  0  0  0  0  0  0  0  0  0
  187.2130  178.5370  140.6930 N   0  0  0  0  0  2  0  0  0  0  0  0
  186.5900  178.9350  141.9500 C   0  0  1  0  0  3  0  0  0  0  0  0
  189.7880  177.1840  139.6390 N   0  0  0  0  0  0  0  0  0  0  0  0
  189.4220  178.2420  141.7660 C   0  0  2  0  0  3  0  0  0  0  0  0
  186.5860  178.0840  144.3320 C   0  0  0  0  0  3  0  0  0  0  0  0
  190.7500  175.1540  138.9490 O   0  0  0  0  0  0  0  0  0  0  0  0
  189.8030  174.1910  136.5610 O   0  0  0  0  0  1  0  0  0  0  0  0
  190.8800  175.9740  137.8150 C   0  0  1  0  0  0  0  0  0  0  0  0
  190.7920  175.1760  136.5010 C   0  0  1  0  0  3  0  0  0  0  0  0
  189.6920  176.0640  138.7100 C   0  0  2  0  0  3  0  0  0  0  0  0
  192.9550  175.6220  135.9940 C   0  0  0  0  0  2  0  0  0  0  0  0
  193.3160  176.2870  137.3260 C   0  0  0  0  0  2  0  0  0  0  0  0
  192.0720  176.9190  137.9510 C   0  0  0  0  0  2  0  0  0  0  0  0
  192.0350  174.5790  136.2160 O   0  0  0  0  0  0  0  0  0  0  0  0
  183.1900  177.6780  140.7830 C   0  0  0  0  0  0  0  0  0  0  0  0
  182.3670  178.1310  141.8180 C   0  0  0  0  0  3  0  0  0  0  0  0
  185.1170  178.6540  141.8890 C   0  0  0  0  0  0  0  0  0  0  0  0
  182.9160  178.8430  142.8880 C   0  0  0  0  0  3  0  0  0  0  0  0
  184.5630  177.9370  140.8170 C   0  0  0  0  0  3  0  0  0  0  0  0
  184.2900  179.1040  142.9240 C   0  0  0  0  0  3  0  0  0  0  0  0
  182.5020  176.7850  139.4450 Cl  0  0  0  0  0  0  0  0  0  0  0  0
  1 12  1  0  0  0  0
  1 10  2  0  0  0  0
  2  8  2  0  0  0  0
  2  6  1  0  0  0  0
  3 11  2  0  0  0  0
  3  8  1  0  0  0  0
  4  9  1  6  0  0  0
  4 14  1  0  0  0  0
  4 17  1  0  0  0  0
  5 10  1  0  0  0  0
  6  5  2  0  0  0  0
  7 13  2  0  0  0  0
  8  1  1  0  0  0  0
  9 16  1  0  0  0  0
 11 18  1  0  0  0  0
 14 15  1  0  0  0  0
 15 30  1  6  0  0  0
 15 11  1  0  0  0  0
 16  7  1  0  0  0  0
 17  7  1  6  0  0  0
 17  3  1  0  0  0  0
 18 12  2  0  0  0  0
 21 26  1  1  0  0  0
 21 23  1  0  0  0  0
 21 19  1  0  0  0  0
 22 20  1  1  0  0  0
 22 21  1  0  0  0  0
 23 19  1  0  0  0  0
 23 16  1  1  0  0  0
 24 27  1  0  0  0  0
 24 25  1  0  0  0  0
 25 26  1  0  0  0  0
 27 22  1  0  0  0  0
 28 32  2  0  0  0  0
 28 29  1  0  0  0  0
 29 31  2  0  0  0  0
 30 33  2  0  0  0  0
 31 33  1  0  0  0  0
 32 30  1  0  0  0  0
 34 28  1  0  0  0  0
M  END
>  <MODEL>
2

>  <REMARK>
 VINA RESULT:      -9.7      0.965      1.274
  Name = 
  2 active torsions:
  status: ('A' for Active; 'I' for Inactive)
    1  A    between atoms: C_12  and  C_28
    2  A    between atoms: C_17  and  N_29
                            x       y       z     vdW  Elec       q    Type
                         _______ _______ _______ _____ _____    ______ ____

>  <TORSDO>
F 2

$$$$
=
 OpenBabel11052414063D

 34 40  0  0  1  0  0  0  0  0999 V2000
  187.5840  177.4620  145.7250 C   0  0  0  0  0  0  0  0  0  0  0  0
  189.8630  177.4800  144.8880 C   0  0  0  0  0  3  0  0  0  0  0  0
  188.0040  178.0650  143.3870 C   0  0  0  0  0  0  0  0  0  0  0  0
  188.3100  178.9790  140.9970 C   0  0  1  0  0  3  0  0  0  0  0  0
  189.4210  176.8650  147.1870 C   0  0  0  0  0  3  0  0  0  0  0  0
  190.3240  177.0790  146.1450 C   0  0  0  0  0  3  0  0  0  0  0  0
  189.5510  177.0910  141.6350 C   0  0  0  0  0  0  0  0  0  0  0  0
  188.4910  177.6650  144.6550 C   0  0  0  0  0  0  0  0  0  0  0  0
  189.1430  178.4800  139.8110 C   0  0  0  0  0  2  0  0  0  0  0  0
  188.0530  177.0590  146.9790 C   0  0  0  0  0  3  0  0  0  0  0  0
  186.6200  178.3000  143.2220 C   0  0  0  0  0  0  0  0  0  0  0  0
  186.2230  177.6900  145.5420 C   0  0  0  0  0  3  0  0  0  0  0  0
  189.9000  176.0670  142.2810 O   0  0  0  0  0  0  0  0  0  0  0  0
  186.9470  178.4870  140.8040 N   0  0  0  0  0  2  0  0  0  0  0  0
  186.1130  178.8980  141.9280 C   0  0  1  0  0  3  0  0  0  0  0  0
  189.7040  177.2060  140.2330 N   0  0  0  0  0  0  0  0  0  0  0  0
  188.9580  178.3140  142.2320 C   0  0  2  0  0  3  0  0  0  0  0  0
  185.7480  178.1220  144.3070 C   0  0  0  0  0  3  0  0  0  0  0  0
  190.7310  176.3250  138.3110 O   0  0  0  0  0  0  0  0  0  0  0  0
  189.5700  174.0370  137.3400 O   0  0  0  0  0  1  0  0  0  0  0  0
  189.3730  176.3800  137.9540 C   0  0  1  0  0  0  0  0  0  0  0  0
  188.9730  175.2510  136.9890 C   0  0  1  0  0  3  0  0  0  0  0  0
  189.8000  176.0550  139.3440 C   0  0  2  0  0  3  0  0  0  0  0  0
  188.5740  176.7180  135.3100 C   0  0  0  0  0  2  0  0  0  0  0  0
  189.1120  177.9600  136.0280 C   0  0  0  0  0  2  0  0  0  0  0  0
  188.9670  177.7950  137.5410 C   0  0  0  0  0  2  0  0  0  0  0  0
  189.3360  175.5910  135.6720 O   0  0  0  0  0  0  0  0  0  0  0  0
  182.3270  178.6200  142.2270 C   0  0  0  0  0  0  0  0  0  0  0  0
  182.0160  177.9200  141.0570 C   0  0  0  0  0  3  0  0  0  0  0  0
  184.6800  178.5570  141.6390 C   0  0  0  0  0  0  0  0  0  0  0  0
  183.0340  177.5400  140.1780 C   0  0  0  0  0  3  0  0  0  0  0  0
  183.6560  178.9390  142.5180 C   0  0  0  0  0  3  0  0  0  0  0  0
  184.3650  177.8580  140.4680 C   0  0  0  0  0  3  0  0  0  0  0  0
  181.0520  179.0970  143.3260 Cl  0  0  0  0  0  0  0  0  0  0  0  0
  1 10  2  0  0  0  0
  2  6  1  0  0  0  0
  3  8  1  0  0  0  0
  4  9  1  6  0  0  0
  4 17  1  0  0  0  0
  6  5  2  0  0  0  0
  7 13  2  0  0  0  0
  8  2  2  0  0  0  0
  8  1  1  0  0  0  0
  9 16  1  0  0  0  0
 10  5  1  0  0  0  0
 11  3  2  0  0  0  0
 11 18  1  0  0  0  0
 12  1  1  0  0  0  0
 14  4  1  0  0  0  0
 14 15  1  0  0  0  0
 15 30  1  6  0  0  0
 15 11  1  0  0  0  0
 16  7  1  0  0  0  0
 17  7  1  6  0  0  0
 17  3  1  0  0  0  0
 18 12  2  0  0  0  0
 19 23  1  0  0  0  0
 21 26  1  6  0  0  0
 21 19  1  0  0  0  0
 21 23  1  0  0  0  0
 22 20  1  1  0  0  0
 22 21  1  0  0  0  0
 23 16  1  1  0  0  0
 24 27  1  0  0  0  0
 24 25  1  0  0  0  0
 25 26  1  0  0  0  0
 27 22  1  0  0  0  0
 28 32  1  0  0  0  0
 28 34  1  0  0  0  0
 29 28  2  0  0  0  0
 30 32  2  0  0  0  0
 31 33  2  0  0  0  0
 31 29  1  0  0  0  0
 33 30  1  0  0  0  0
M  END
>  <MODEL>
3

>  <REMARK>
 VINA RESULT:      -8.8      1.559      1.734
  Name = 
  2 active torsions:
  status: ('A' for Active; 'I' for Inactive)
    1  A    between atoms: C_12  and  C_28
    2  A    between atoms: C_17  and  N_29
                            x       y       z     vdW  Elec       q    Type
                         _______ _______ _______ _____ _____    ______ ____

>  <TORSDO>
F 2

$$$$
=
 OpenBabel11052414063D

 34 40  0  0  1  0  0  0  0  0999 V2000
  187.4800  177.5190  145.6320 C   0  0  0  0  0  0  0  0  0  0  0  0
  189.7620  177.5360  144.8030 C   0  0  0  0  0  3  0  0  0  0  0  0
  187.9060  178.1050  143.2910 C   0  0  0  0  0  0  0  0  0  0  0  0
  188.2180  179.0030  140.8950 C   0  0  1  0  0  3  0  0  0  0  0  0
  189.3120  176.9370  147.1040 C   0  0  0  0  0  3  0  0  0  0  0  0
  190.2190  177.1450  146.0640 C   0  0  0  0  0  3  0  0  0  0  0  0
  189.4620  177.1220  141.5510 C   0  0  0  0  0  0  0  0  0  0  0  0
  188.3900  177.7160  144.5630 C   0  0  0  0  0  0  0  0  0  0  0  0
  189.0570  178.4970  139.7160 C   0  0  0  0  0  2  0  0  0  0  0  0
  187.9460  177.1260  146.8900 C   0  0  0  0  0  3  0  0  0  0  0  0
  186.5220  178.3360  143.1190 C   0  0  0  0  0  0  0  0  0  0  0  0
  186.1190  177.7430  145.4420 C   0  0  0  0  0  3  0  0  0  0  0  0
  189.8110  176.1040  142.2060 O   0  0  0  0  0  0  0  0  0  0  0  0
  186.8580  178.5070  140.7010 N   0  0  0  0  0  2  0  0  0  0  0  0
  186.0190  178.9240  141.8190 C   0  0  1  0  0  3  0  0  0  0  0  0
  189.6190  177.2270  140.1490 N   0  0  0  0  0  0  0  0  0  0  0  0
  188.8640  178.3480  142.1370 C   0  0  2  0  0  3  0  0  0  0  0  0
  185.6470  178.1640  144.2030 C   0  0  0  0  0  3  0  0  0  0  0  0
  190.6580  176.3330  138.2400 O   0  0  0  0  0  0  0  0  0  0  0  0
  189.5040  174.0380  137.2770 O   0  0  0  0  0  1  0  0  0  0  0  0
  189.3020  176.3860  137.8740 C   0  0  1  0  0  0  0  0  0  0  0  0
  188.9090  175.2500  136.9140 C   0  0  1  0  0  3  0  0  0  0  0  0
  189.7210  176.0700  139.2680 C   0  0  2  0  0  3  0  0  0  0  0  0
  188.5210  176.7060  135.2220 C   0  0  0  0  0  2  0  0  0  0  0  0
  189.0550  177.9520  135.9350 C   0  0  0  0  0  2  0  0  0  0  0  0
  188.9000  177.7970  137.4480 C   0  0  0  0  0  2  0  0  0  0  0  0
  189.2800  175.5800  135.5970 O   0  0  0  0  0  0  0  0  0  0  0  0
  182.9010  177.5550  140.1140 C   0  0  0  0  0  0  0  0  0  0  0  0
  181.9090  177.9310  141.0260 C   0  0  0  0  0  3  0  0  0  0  0  0
  184.5880  178.5780  141.5270 C   0  0  0  0  0  0  0  0  0  0  0  0
  182.2550  178.6280  142.1870 C   0  0  0  0  0  3  0  0  0  0  0  0
  184.2380  177.8760  140.3640 C   0  0  0  0  0  3  0  0  0  0  0  0
  183.5930  178.9510  142.4380 C   0  0  0  0  0  3  0  0  0  0  0  0
  182.4680  176.6810  138.6620 Cl  0  0  0  0  0  0  0  0  0  0  0  0
  1 10  2  0  0  0  0
  2  6  1  0  0  0  0
  3  8  1  0  0  0  0
  4  9  1  6  0  0  0
  4 17  1  0  0  0  0
  6  5  2  0  0  0  0
  7 13  2  0  0  0  0
  8  2  2  0  0  0  0
  8  1  1  0  0  0  0
  9 16  1  0  0  0  0
 10  5  1  0  0  0  0
 11  3  2  0  0  0  0
 11 18  1  0  0  0  0
 12  1  1  0  0  0  0
 14  4  1  0  0  0  0
 14 15  1  0  0  0  0
 15 30  1  6  0  0  0
 15 11  1  0  0  0  0
 16  7  1  0  0  0  0
 17  7  1  6  0  0  0
 17  3  1  0  0  0  0
 18 12  2  0  0  0  0
 19 23  1  0  0  0  0
 21 26  1  6  0  0  0
 21 19  1  0  0  0  0
 21 23  1  0  0  0  0
 22 20  1  1  0  0  0
 22 21  1  0  0  0  0
 23 16  1  1  0  0  0
 24 27  1  0  0  0  0
 24 25  1  0  0  0  0
 25 26  1  0  0  0  0
 27 22  1  0  0  0  0
 28 32  2  0  0  0  0
 28 29  1  0  0  0  0
 29 31  2  0  0  0  0
 30 33  2  0  0  0  0
 31 33  1  0  0  0  0
 32 30  1  0  0  0  0
 34 28  1  0  0  0  0
M  END
>  <MODEL>
4

>  <REMARK>
 VINA RESULT:      -8.5      1.816      2.140
  Name = 
  2 active torsions:
  status: ('A' for Active; 'I' for Inactive)
    1  A    between atoms: C_12  and  C_28
    2  A    between atoms: C_17  and  N_29
                            x       y       z     vdW  Elec       q    Type
                         _______ _______ _______ _____ _____    ______ ____

>  <TORSDO>
F 2

$$$$
=
 OpenBabel11052414063D

 34 40  0  0  1  0  0  0  0  0999 V2000
  188.3410  178.1810  138.8240 C   0  0  0  0  0  0  0  0  0  0  0  0
  186.6710  178.1390  137.0620 C   0  0  0  0  0  3  0  0  0  0  0  0
  185.9750  178.4550  139.4010 C   0  0  0  0  0  0  0  0  0  0  0  0
  183.5690  179.0260  140.1260 C   0  0  1  0  0  3  0  0  0  0  0  0
  189.0120  177.8470  136.5210 C   0  0  0  0  0  3  0  0  0  0  0  0
  187.6790  177.9340  136.1160 C   0  0  0  0  0  3  0  0  0  0  0  0
  183.8830  177.2820  138.5870 C   0  0  0  0  0  0  0  0  0  0  0  0
  186.9830  178.2530  138.4270 C   0  0  0  0  0  0  0  0  0  0  0  0
  182.2190  178.3850  139.7850 C   0  0  0  0  0  2  0  0  0  0  0  0
  189.3430  177.9730  137.8720 C   0  0  0  0  0  3  0  0  0  0  0  0
  186.3470  178.6270  140.7530 C   0  0  0  0  0  0  0  0  0  0  0  0
  188.6880  178.3450  140.1630 C   0  0  0  0  0  3  0  0  0  0  0  0
  184.4550  176.3700  137.9320 O   0  0  0  0  0  0  0  0  0  0  0  0
  183.9950  178.4760  141.4120 N   0  0  0  0  0  2  0  0  0  0  0  0
  185.2990  179.0220  141.7710 C   0  0  1  0  0  3  0  0  0  0  0  0
  182.5340  177.2000  139.0030 N   0  0  0  0  0  0  0  0  0  0  0  0
  184.5140  178.5620  138.9960 C   0  0  2  0  0  3  0  0  0  0  0  0
  187.7020  178.5830  141.1150 C   0  0  0  0  0  3  0  0  0  0  0  0
  182.1170  175.0780  138.0820 O   0  0  0  0  0  0  0  0  0  0  0  0
  180.0290  173.7200  139.2330 O   0  0  0  0  0  1  0  0  0  0  0  0
  180.8510  175.6890  138.0690 C   0  0  1  0  0  0  0  0  0  0  0  0
  179.7080  174.6780  138.2670 C   0  0  1  0  0  3  0  0  0  0  0  0
  181.8250  175.9370  139.1690 C   0  0  2  0  0  3  0  0  0  0  0  0
  178.9310  175.0230  136.1670 C   0  0  0  0  0  2  0  0  0  0  0  0
  180.0890  175.9080  135.6930 C   0  0  0  0  0  2  0  0  0  0  0  0
  180.7090  176.6410  136.8820 C   0  0  0  0  0  2  0  0  0  0  0  0
  179.4150  174.0370  137.0490 O   0  0  0  0  0  0  0  0  0  0  0  0
  187.1640  177.5750  144.7600 C   0  0  0  0  0  0  0  0  0  0  0  0
  186.2710  177.8600  145.7970 C   0  0  0  0  0  3  0  0  0  0  0  0
  185.6470  178.6050  143.1710 C   0  0  0  0  0  0  0  0  0  0  0  0
  185.0690  178.5180  145.5240 C   0  0  0  0  0  3  0  0  0  0  0  0
  186.8540  177.9470  143.4490 C   0  0  0  0  0  3  0  0  0  0  0  0
  184.7570  178.8910  144.2120 C   0  0  0  0  0  3  0  0  0  0  0  0
  188.6700  176.7530  145.1020 Cl  0  0  0  0  0  0  0  0  0  0  0  0
  1 12  1  0  0  0  0
  2  8  1  0  0  0  0
  3 11  2  0  0  0  0
  4  9  1  6  0  0  0
  4 14  1  0  0  0  0
  5 10  2  0  0  0  0
  6  5  1  0  0  0  0
  6  2  2  0  0  0  0
  7 16  1  0  0  0  0
  8  1  2  0  0  0  0
  8  3  1  0  0  0  0
 10  1  1  0  0  0  0
 11 18  1  0  0  0  0
 11 15  1  0  0  0  0
 12 18  2  0  0  0  0
 13  7  2  0  0  0  0
 14 15  1  0  0  0  0
 15 30  1  1  0  0  0
 16  9  1  0  0  0  0
 17  7  1  1  0  0  0
 17  3  1  0  0  0  0
 17  4  1  0  0  0  0
 19 23  1  0  0  0  0
 21 26  1  6  0  0  0
 21 19  1  0  0  0  0
 21 22  1  0  0  0  0
 21 23  1  0  0  0  0
 22 20  1  1  0  0  0
 23 16  1  6  0  0  0
 24 27  1  0  0  0  0
 25 24  1  0  0  0  0
 25 26  1  0  0  0  0
 27 22  1  0  0  0  0
 28 34  1  0  0  0  0
 28 29  1  0  0  0  0
 30 32  1  0  0  0  0
 30 33  2  0  0  0  0
 31 29  2  0  0  0  0
 32 28  2  0  0  0  0
 33 31  1  0  0  0  0
M  END
>  <MODEL>
5

>  <REMARK>
 VINA RESULT:      -8.4      4.211      7.756
  Name = 
  2 active torsions:
  status: ('A' for Active; 'I' for Inactive)
    1  A    between atoms: C_12  and  C_28
    2  A    between atoms: C_17  and  N_29
                            x       y       z     vdW  Elec       q    Type
                         _______ _______ _______ _____ _____    ______ ____

>  <TORSDO>
F 2

$$$$
=
 OpenBabel11052414063D

 34 40  0  0  1  0  0  0  0  0999 V2000
  186.1600  177.8580  144.9430 C   0  0  0  0  0  0  0  0  0  0  0  0
  188.5440  177.9840  144.5040 C   0  0  0  0  0  3  0  0  0  0  0  0
  186.9410  178.3710  142.6780 C   0  0  0  0  0  0  0  0  0  0  0  0
  187.6030  179.1850  140.3240 C   0  0  1  0  0  3  0  0  0  0  0  0
  187.7470  177.4550  146.7270 C   0  0  0  0  0  3  0  0  0  0  0  0
  188.8040  177.6770  145.8420 C   0  0  0  0  0  3  0  0  0  0  0  0
  188.8200  177.4160  141.2740 C   0  0  0  0  0  0  0  0  0  0  0  0
  187.2240  178.0670  144.0320 C   0  0  0  0  0  0  0  0  0  0  0  0
  188.6550  178.6840  139.3280 C   0  0  0  0  0  2  0  0  0  0  0  0
  186.4280  177.5480  146.2800 C   0  0  0  0  0  3  0  0  0  0  0  0
  185.5960  178.5060  142.2680 C   0  0  0  0  0  0  0  0  0  0  0  0
  184.8400  177.9860  144.5190 C   0  0  0  0  0  3  0  0  0  0  0  0
  189.1090  176.4500  142.0290 O   0  0  0  0  0  0  0  0  0  0  0  0
  186.3230  178.5960  139.9330 N   0  0  0  0  0  2  0  0  0  0  0  0
  185.2870  179.0060  140.8730 C   0  0  1  0  0  3  0  0  0  0  0  0
  189.2050  177.4720  139.9140 N   0  0  0  0  0  0  0  0  0  0  0  0
  188.0650  178.6260  141.6880 C   0  0  2  0  0  3  0  0  0  0  0  0
  184.5610  178.3250  143.1980 C   0  0  0  0  0  3  0  0  0  0  0  0
  190.5990  175.5900  139.7150 O   0  0  0  0  0  0  0  0  0  0  0  0
  190.4540  174.3090  137.2930 O   0  0  0  0  0  1  0  0  0  0  0  0
  190.8980  176.3350  138.5620 C   0  0  1  0  0  0  0  0  0  0  0  0
  191.2710  175.4410  137.3660 C   0  0  1  0  0  3  0  0  0  0  0  0
  189.5180  176.2880  139.1230 C   0  0  2  0  0  3  0  0  0  0  0  0
  193.4020  176.2100  137.3550 C   0  0  0  0  0  2  0  0  0  0  0  0
  193.3040  177.0220  138.6500 C   0  0  0  0  0  2  0  0  0  0  0  0
  191.8630  177.4770  138.8760 C   0  0  0  0  0  2  0  0  0  0  0  0
  192.6180  175.0450  137.4620 O   0  0  0  0  0  0  0  0  0  0  0  0
  181.5270  178.5010  140.5390 C   0  0  0  0  0  0  0  0  0  0  0  0
  181.4630  177.7180  139.3820 C   0  0  0  0  0  3  0  0  0  0  0  0
  183.9470  178.5570  140.3670 C   0  0  0  0  0  0  0  0  0  0  0  0
  182.6380  177.3560  138.7170 C   0  0  0  0  0  3  0  0  0  0  0  0
  182.7650  178.9210  141.0310 C   0  0  0  0  0  3  0  0  0  0  0  0
  183.8780  177.7750  139.2080 C   0  0  0  0  0  3  0  0  0  0  0  0
  180.0560  178.9560  141.3700 Cl  0  0  0  0  0  0  0  0  0  0  0  0
  1 10  2  0  0  0  0
  2  6  1  0  0  0  0
  3  8  1  0  0  0  0
  4  9  1  6  0  0  0
  4 17  1  0  0  0  0
  6  5  2  0  0  0  0
  7 13  2  0  0  0  0
  8  2  2  0  0  0  0
  8  1  1  0  0  0  0
  9 16  1  0  0  0  0
 10  5  1  0  0  0  0
 11  3  2  0  0  0  0
 11 18  1  0  0  0  0
 12  1  1  0  0  0  0
 14  4  1  0  0  0  0
 14 15  1  0  0  0  0
 15 30  1  6  0  0  0
 15 11  1  0  0  0  0
 16  7  1  0  0  0  0
 17  7  1  6  0  0  0
 17  3  1  0  0  0  0
 18 12  2  0  0  0  0
 21 26  1  1  0  0  0
 21 23  1  0  0  0  0
 21 19  1  0  0  0  0
 22 20  1  1  0  0  0
 22 27  1  0  0  0  0
 22 21  1  0  0  0  0
 23 19  1  0  0  0  0
 23 16  1  1  0  0  0
 24 27  1  0  0  0  0
 24 25  1  0  0  0  0
 25 26  1  0  0  0  0
 28 32  1  0  0  0  0
 28 34  1  0  0  0  0
 29 28  2  0  0  0  0
 30 32  2  0  0  0  0
 31 33  2  0  0  0  0
 31 29  1  0  0  0  0
 33 30  1  0  0  0  0
M  END
>  <MODEL>
6

>  <REMARK>
 VINA RESULT:      -8.2      1.277      1.709
  Name = 
  2 active torsions:
  status: ('A' for Active; 'I' for Inactive)
    1  A    between atoms: C_12  and  C_28
    2  A    between atoms: C_17  and  N_29
                            x       y       z     vdW  Elec       q    Type
                         _______ _______ _______ _____ _____    ______ ____

>  <TORSDO>
F 2

$$$$
=
 OpenBabel11052414063D

 34 40  0  0  1  0  0  0  0  0999 V2000
  186.4130  177.8070  144.0000 C   0  0  0  0  0  0  0  0  0  0  0  0
  188.8370  177.7440  143.8620 C   0  0  0  0  0  3  0  0  0  0  0  0
  187.5080  178.2220  141.8470 C   0  0  0  0  0  0  0  0  0  0  0  0
  188.5180  178.9450  139.5890 C   0  0  1  0  0  3  0  0  0  0  0  0
  187.7310  177.3140  145.9710 C   0  0  0  0  0  3  0  0  0  0  0  0
  188.9030  177.4400  145.2240 C   0  0  0  0  0  3  0  0  0  0  0  0
  189.4670  177.1050  140.6950 C   0  0  0  0  0  0  0  0  0  0  0  0
  187.5960  177.9200  143.2270 C   0  0  0  0  0  0  0  0  0  0  0  0
  189.6430  178.3500  138.7360 C   0  0  0  0  0  2  0  0  0  0  0  0
  186.4880  177.5000  145.3620 C   0  0  0  0  0  3  0  0  0  0  0  0
  186.2380  178.4520  141.2710 C   0  0  0  0  0  0  0  0  0  0  0  0
  185.1700  178.0280  143.4130 C   0  0  0  0  0  3  0  0  0  0  0  0
  189.5850  176.1320  141.4880 O   0  0  0  0  0  0  0  0  0  0  0  0
  187.2550  178.4480  139.0450 N   0  0  0  0  0  2  0  0  0  0  0  0
  186.1450  178.9520  139.8450 C   0  0  1  0  0  3  0  0  0  0  0  0
  190.0210  177.1090  139.3940 N   0  0  0  0  0  0  0  0  0  0  0  0
  188.7620  178.3750  141.0040 C   0  0  2  0  0  3  0  0  0  0  0  0
  185.0850  178.3650  142.0660 C   0  0  0  0  0  3  0  0  0  0  0  0
  190.4880  176.1910  137.2810 O   0  0  0  0  0  0  0  0  0  0  0  0
  190.4140  173.4500  137.1820 O   0  0  0  0  0  1  0  0  0  0  0  0
  189.2910  175.5550  137.6520 C   0  0  1  0  0  0  0  0  0  0  0  0
  189.1910  174.1230  137.0970 C   0  0  1  0  0  3  0  0  0  0  0  0
  190.3380  175.8910  138.6570 C   0  0  2  0  0  3  0  0  0  0  0  0
  187.4570  174.6800  135.7500 C   0  0  0  0  0  2  0  0  0  0  0  0
  187.5050  176.1880  136.0140 C   0  0  0  0  0  2  0  0  0  0  0  0
  188.0850  176.4590  137.4030 C   0  0  0  0  0  2  0  0  0  0  0  0
  188.7640  174.1540  135.7560 O   0  0  0  0  0  0  0  0  0  0  0  0
  182.5940  179.1750  138.4850 C   0  0  0  0  0  0  0  0  0  0  0  0
  182.4480  177.9100  137.9080 C   0  0  0  0  0  3  0  0  0  0  0  0
  184.8470  178.5980  139.1780 C   0  0  0  0  0  0  0  0  0  0  0  0
  183.4990  176.9900  137.9640 C   0  0  0  0  0  3  0  0  0  0  0  0
  183.7910  179.5200  139.1190 C   0  0  0  0  0  3  0  0  0  0  0  0
  184.6970  177.3330  138.5970 C   0  0  0  0  0  3  0  0  0  0  0  0
  181.2790  180.3270  138.4140 Cl  0  0  0  0  0  0  0  0  0  0  0  0
  1 10  2  0  0  0  0
  2  6  1  0  0  0  0
  3  8  1  0  0  0  0
  4  9  1  6  0  0  0
  4 17  1  0  0  0  0
  6  5  2  0  0  0  0
  7 13  2  0  0  0  0
  8  2  2  0  0  0  0
  8  1  1  0  0  0  0
  9 16  1  0  0  0  0
 10  5  1  0  0  0  0
 11  3  2  0  0  0  0
 11 18  1  0  0  0  0
 12  1  1  0  0  0  0
 14  4  1  0  0  0  0
 14 15  1  0  0  0  0
 15 30  1  6  0  0  0
 15 11  1  0  0  0  0
 16  7  1  0  0  0  0
 17  7  1  6  0  0  0
 17  3  1  0  0  0  0
 18 12  2  0  0  0  0
 19 21  1  0  0  0  0
 19 23  1  0  0  0  0
 21 26  1  1  0  0  0
 21 23  1  0  0  0  0
 22 20  1  6  0  0  0
 22 21  1  0  0  0  0
 23 16  1  1  0  0  0
 24 27  1  0  0  0  0
 24 25  1  0  0  0  0
 25 26  1  0  0  0  0
 27 22  1  0  0  0  0
 28 32  1  0  0  0  0
 29 31  1  0  0  0  0
 29 28  2  0  0  0  0
 31 33  2  0  0  0  0
 32 30  2  0  0  0  0
 33 30  1  0  0  0  0
 34 28  1  0  0  0  0
M  END
>  <MODEL>
7

>  <REMARK>
 VINA RESULT:      -8.2      1.859      2.616
  Name = 
  2 active torsions:
  status: ('A' for Active; 'I' for Inactive)
    1  A    between atoms: C_12  and  C_28
    2  A    between atoms: C_17  and  N_29
                            x       y       z     vdW  Elec       q    Type
                         _______ _______ _______ _____ _____    ______ ____

>  <TORSDO>
F 2

$$$$
=
 OpenBabel11052414063D

 34 40  0  0  1  0  0  0  0  0999 V2000
  183.3450  178.4620  141.1870 C   0  0  0  0  0  0  0  0  0  0  0  0
  184.7810  179.1750  143.0100 C   0  0  0  0  0  3  0  0  0  0  0  0
  185.7660  178.6050  140.8280 C   0  0  0  0  0  0  0  0  0  0  0  0
  188.2440  178.9670  140.2230 C   0  0  1  0  0  3  0  0  0  0  0  0
  182.3910  179.0030  143.3450 C   0  0  0  0  0  3  0  0  0  0  0  0
  183.6620  179.3000  143.8370 C   0  0  0  0  0  3  0  0  0  0  0  0
  187.7370  177.9310  142.2680 C   0  0  0  0  0  0  0  0  0  0  0  0
  184.6430  178.7440  141.6800 C   0  0  0  0  0  0  0  0  0  0  0  0
  189.5400  178.5690  140.9390 C   0  0  0  0  0  2  0  0  0  0  0  0
  182.2310  178.5870  142.0220 C   0  0  0  0  0  3  0  0  0  0  0  0
  185.5660  178.2290  139.4800 C   0  0  0  0  0  0  0  0  0  0  0  0
  183.1690  178.0850  139.8580 C   0  0  0  0  0  3  0  0  0  0  0  0
  187.0860  177.3130  143.1520 O   0  0  0  0  0  0  0  0  0  0  0  0
  187.9820  177.9480  139.2080 N   0  0  0  0  0  2  0  0  0  0  0  0
  186.7340  178.2530  138.5180 C   0  0  1  0  0  3  0  0  0  0  0  0
  189.1280  177.7600  142.0750 N   0  0  0  0  0  0  0  0  0  0  0  0
  187.1640  178.9260  141.3270 C   0  0  2  0  0  3  0  0  0  0  0  0
  184.2670  177.9870  139.0090 C   0  0  0  0  0  3  0  0  0  0  0  0
  189.2360  176.0110  143.6420 O   0  0  0  0  0  0  0  0  0  0  0  0
  191.5720  174.5730  143.5930 O   0  0  0  0  0  1  0  0  0  0  0  0
  190.4380  176.7080  143.8530 C   0  0  1  0  0  0  0  0  0  0  0  0
  191.5840  175.7810  144.2970 C   0  0  1  0  0  3  0  0  0  0  0  0
  189.8500  176.5630  142.4920 C   0  0  2  0  0  3  0  0  0  0  0  0
  191.6800  176.7480  146.3430 C   0  0  0  0  0  2  0  0  0  0  0  0
  190.4350  177.6270  146.1830 C   0  0  0  0  0  2  0  0  0  0  0  0
  190.2110  177.9550  144.7070 C   0  0  0  0  0  2  0  0  0  0  0  0
  191.4880  175.5220  145.6780 O   0  0  0  0  0  0  0  0  0  0  0  0
  186.5220  175.0740  136.4310 C   0  0  0  0  0  0  0  0  0  0  0  0
  186.2190  175.6000  135.1710 C   0  0  0  0  0  3  0  0  0  0  0  0
  186.5630  177.3170  137.3570 C   0  0  0  0  0  0  0  0  0  0  0  0
  186.0860  176.9810  135.0040 C   0  0  0  0  0  3  0  0  0  0  0  0
  186.6940  175.9300  137.5230 C   0  0  0  0  0  3  0  0  0  0  0  0
  186.2570  177.8390  136.0950 C   0  0  0  0  0  3  0  0  0  0  0  0
  186.6860  173.3450  136.6410 Cl  0  0  0  0  0  0  0  0  0  0  0  0
  1  8  1  0  0  0  0
  1 10  2  0  0  0  0
  2  6  1  0  0  0  0
  3  8  1  0  0  0  0
  4  9  1  1  0  0  0
  4 17  1  0  0  0  0
  5  6  2  0  0  0  0
  7 13  2  0  0  0  0
  8  2  2  0  0  0  0
  9 16  1  0  0  0  0
 10  5  1  0  0  0  0
 11  3  2  0  0  0  0
 12  1  1  0  0  0  0
 14  4  1  0  0  0  0
 15 30  1  6  0  0  0
 15 14  1  0  0  0  0
 15 11  1  0  0  0  0
 16  7  1  0  0  0  0
 17  3  1  6  0  0  0
 17  7  1  0  0  0  0
 18 11  1  0  0  0  0
 18 12  2  0  0  0  0
 19 21  1  0  0  0  0
 21 22  1  0  0  0  0
 21 26  1  1  0  0  0
 22 20  1  6  0  0  0
 22 27  1  0  0  0  0
 23 16  1  1  0  0  0
 23 19  1  0  0  0  0
 23 21  1  0  0  0  0
 25 24  1  0  0  0  0
 26 25  1  0  0  0  0
 27 24  1  0  0  0  0
 28 34  1  0  0  0  0
 28 32  1  0  0  0  0
 29 28  2  0  0  0  0
 30 32  2  0  0  0  0
 31 29  1  0  0  0  0
 31 33  2  0  0  0  0
 33 30  1  0  0  0  0
M  END
>  <MODEL>
8

>  <REMARK>
 VINA RESULT:      -7.9      3.602      6.291
  Name = 
  2 active torsions:
  status: ('A' for Active; 'I' for Inactive)
    1  A    between atoms: C_12  and  C_28
    2  A    between atoms: C_17  and  N_29
                            x       y       z     vdW  Elec       q    Type
                         _______ _______ _______ _____ _____    ______ ____

>  <TORSDO>
F 2

$$$$
=
 OpenBabel11052414063D

 34 40  0  0  1  0  0  0  0  0999 V2000
  188.9110  177.2970  143.2710 C   0  0  0  0  0  0  0  0  0  0  0  0
  191.0020  177.2440  142.0380 C   0  0  0  0  0  3  0  0  0  0  0  0
  188.9250  177.9070  140.8970 C   0  0  0  0  0  0  0  0  0  0  0  0
  188.8300  178.8330  138.4940 C   0  0  1  0  0  3  0  0  0  0  0  0
  190.9580  176.6230  144.3770 C   0  0  0  0  0  3  0  0  0  0  0  0
  191.6660  176.8160  143.1900 C   0  0  0  0  0  3  0  0  0  0  0  0
  190.0980  176.8970  138.8930 C   0  0  0  0  0  0  0  0  0  0  0  0
  189.6170  177.4790  142.0560 C   0  0  0  0  0  0  0  0  0  0  0  0
  189.4190  178.3170  137.1770 C   0  0  0  0  0  2  0  0  0  0  0  0
  189.5830  176.8650  144.4190 C   0  0  0  0  0  3  0  0  0  0  0  0
  187.5440  178.1910  140.9850 C   0  0  0  0  0  0  0  0  0  0  0  0
  187.5480  177.5730  143.3360 C   0  0  0  0  0  3  0  0  0  0  0  0
  190.5200  175.8560  139.4620 O   0  0  0  0  0  0  0  0  0  0  0  0
  187.4380  178.3900  138.5480 N   0  0  0  0  0  2  0  0  0  0  0  0
  186.8350  178.8190  139.8040 C   0  0  1  0  0  3  0  0  0  0  0  0
  190.0000  177.0210  137.4870 N   0  0  0  0  0  0  0  0  0  0  0  0
  189.6660  178.1340  139.5910 C   0  0  2  0  0  3  0  0  0  0  0  0
  186.8750  178.0330  142.2080 C   0  0  0  0  0  3  0  0  0  0  0  0
  188.8730  176.1070  135.6370 O   0  0  0  0  0  0  0  0  0  0  0  0
  189.3440  173.4380  135.2140 O   0  0  0  0  0  1  0  0  0  0  0  0
  188.5620  175.2150  136.6770 C   0  0  1  0  0  0  0  0  0  0  0  0
  188.3880  173.7690  136.1780 C   0  0  1  0  0  3  0  0  0  0  0  0
  189.8950  175.8760  136.5900 C   0  0  2  0  0  3  0  0  0  0  0  0
  186.1820  173.7720  136.6960 C   0  0  0  0  0  2  0  0  0  0  0  0
  186.0870  175.2580  137.0590 C   0  0  0  0  0  2  0  0  0  0  0  0
  187.4410  175.7630  137.5590 C   0  0  0  0  0  2  0  0  0  0  0  0
  187.0980  173.5970  135.6400 O   0  0  0  0  0  0  0  0  0  0  0  0
  183.1900  178.4860  140.8580 C   0  0  0  0  0  0  0  0  0  0  0  0
  182.6140  177.9980  139.6810 C   0  0  0  0  0  3  0  0  0  0  0  0
  185.3620  178.5300  139.7760 C   0  0  0  0  0  0  0  0  0  0  0  0
  183.4090  177.7770  138.5530 C   0  0  0  0  0  3  0  0  0  0  0  0
  184.5610  178.7530  140.9070 C   0  0  0  0  0  3  0  0  0  0  0  0
  184.7810  178.0440  138.6000 C   0  0  0  0  0  3  0  0  0  0  0  0
  182.1950  178.7650  142.2700 Cl  0  0  0  0  0  0  0  0  0  0  0  0
  1 12  1  0  0  0  0
  1 10  2  0  0  0  0
  2  8  2  0  0  0  0
  2  6  1  0  0  0  0
  3 11  2  0  0  0  0
  3  8  1  0  0  0  0
  4  9  1  6  0  0  0
  4 14  1  0  0  0  0
  4 17  1  0  0  0  0
  5 10  1  0  0  0  0
  6  5  2  0  0  0  0
  7 13  2  0  0  0  0
  8  1  1  0  0  0  0
  9 16  1  0  0  0  0
 11 18  1  0  0  0  0
 14 15  1  0  0  0  0
 15 30  1  6  0  0  0
 15 11  1  0  0  0  0
 16  7  1  0  0  0  0
 17  7  1  6  0  0  0
 17  3  1  0  0  0  0
 18 12  2  0  0  0  0
 19 23  1  0  0  0  0
 19 21  1  0  0  0  0
 21 26  1  1  0  0  0
 22 20  1  6  0  0  0
 22 21  1  0  0  0  0
 23 21  1  0  0  0  0
 23 16  1  1  0  0  0
 24 25  1  0  0  0  0
 25 26  1  0  0  0  0
 27 22  1  0  0  0  0
 27 24  1  0  0  0  0
 28 32  1  0  0  0  0
 28 34  1  0  0  0  0
 29 28  2  0  0  0  0
 30 32  2  0  0  0  0
 31 33  2  0  0  0  0
 31 29  1  0  0  0  0
 33 30  1  0  0  0  0
M  END
>  <MODEL>
9

>  <REMARK>
 VINA RESULT:      -7.9      1.786      2.751
  Name = 
  2 active torsions:
  status: ('A' for Active; 'I' for Inactive)
    1  A    between atoms: C_12  and  C_28
    2  A    between atoms: C_17  and  N_29
                            x       y       z     vdW  Elec       q    Type
                         _______ _______ _______ _____ _____    ______ ____

>  <TORSDO>
F 2

$$$$
