=
 OpenBabel11052416443D

 43 47  0  0  1  0  0  0  0  0999 V2000
  187.4770  177.6520  138.1750 C   0  0  1  0  0  3  0  0  0  0  0  0
  187.8770  172.5140  136.9490 C   0  0  1  0  0  3  0  0  0  0  0  0
  189.0570  174.6740  137.1490 C   0  0  1  0  0  3  0  0  0  0  0  0
  186.4990  173.2110  136.9210 C   0  0  0  0  0  2  0  0  0  0  0  0
  187.7990  171.3130  136.2490 O   0  0  0  0  0  1  0  0  0  0  0  0
  187.7470  175.3620  137.1570 C   0  0  0  0  0  0  0  0  0  0  0  0
  188.9800  173.3870  136.3420 C   0  0  0  0  0  2  0  0  0  0  0  0
  186.5750  174.7170  137.0440 C   0  0  0  0  0  3  0  0  0  0  0  0
  187.9220  176.8220  136.9570 C   0  0  2  0  0  3  0  0  0  0  0  0
  189.3490  177.0270  136.7100 N   0  0  0  0  0  2  0  0  0  0  0  0
  189.9540  175.7060  136.5020 C   0  0  0  0  0  2  0  0  0  0  0  0
  188.6380  178.2110  139.0260 C   0  0  1  0  0  3  0  0  0  0  0  0
  189.0020  179.4720  138.5460 O   0  0  0  0  0  1  0  0  0  0  0  0
  188.2300  178.3320  140.4190 N   0  0  0  0  0  2  0  0  0  0  0  0
  189.2760  177.3180  143.8710 C   0  0  0  0  0  0  0  0  0  0  0  0
  190.4350  176.5810  143.5890 C   0  0  0  0  0  0  0  0  0  0  0  0
  191.1810  176.0610  144.5910 F   0  0  0  0  0  0  0  0  0  0  0  0
  190.1000  176.9790  141.2170 C   0  0  0  0  0  3  0  0  0  0  0  0
  188.5430  177.8910  142.8270 C   0  0  0  0  0  3  0  0  0  0  0  0
  188.9560  177.7350  141.4950 C   0  0  0  0  0  0  0  0  0  0  0  0
  188.7470  177.5570  145.5240 Cl  0  0  0  0  0  0  0  0  0  0  0  0
  190.8380  176.4050  142.2600 C   0  0  0  0  0  3  0  0  0  0  0  0
  186.3980  178.5220  137.8680 O   0  0  0  0  0  0  0  0  0  0  0  0
  185.3600  178.4560  138.8230 C   0  0  1  0  0  3  0  0  0  0  0  0
  184.8190  179.7290  139.0430 O   0  0  0  0  0  1  0  0  0  0  0  0
  184.2460  177.4880  138.3840 C   0  0  2  0  0  3  0  0  0  0  0  0
  184.0790  177.5810  136.8760 C   0  0  0  0  0  1  0  0  0  0  0  0
  182.9340  177.7810  139.0550 C   0  0  0  0  0  3  0  0  0  0  0  0
  182.1680  176.8410  139.6170 C   0  0  0  0  0  3  0  0  0  0  0  0
  180.8220  177.2150  140.1770 C   0  0  0  0  0  2  0  0  0  0  0  0
  180.6650  178.7410  140.1690 C   0  0  1  0  0  3  0  0  0  0  0  0
  179.4440  179.9690  141.8980 O   0  0  0  0  0  0  0  0  0  0  0  0
  179.4330  179.1720  139.3730 C   0  0  0  0  0  2  0  0  0  0  0  0
  179.1440  180.6640  139.5740 C   0  0  0  0  0  2  0  0  0  0  0  0
  180.7010  179.4330  141.5610 C   0  0  1  0  0  3  0  0  0  0  0  0
  179.2680  181.0820  141.0550 C   0  0  0  0  0  2  0  0  0  0  0  0
  181.2620  178.5770  142.7010 C   0  0  0  0  0  2  0  0  0  0  0  0
  182.6260  179.0620  143.2080 C   0  0  1  0  0  3  0  0  0  0  0  0
  185.2850  179.0800  144.2810 C   0  0  0  0  0  3  0  0  0  0  0  0
  184.2660  178.9710  145.1500 C   0  0  0  0  0  3  0  0  0  0  0  0
  185.0700  179.1380  142.7860 C   0  0  0  0  0  2  0  0  0  0  0  0
  182.8310  178.7880  144.7080 C   0  0  0  0  0  2  0  0  0  0  0  0
  183.7600  178.4590  142.3840 C   0  0  0  0  0  2  0  0  0  0  0  0
  1 23  1  6  0  0  0
  1 12  1  0  0  0  0
  2  5  1  6  0  0  0
  3  7  1  6  0  0  0
  3  6  1  0  0  0  0
  4  2  1  0  0  0  0
  4  8  1  0  0  0  0
  7  2  1  0  0  0  0
  8  6  2  0  0  0  0
  9  6  1  0  0  0  0
  9  1  1  1  0  0  0
 10  9  1  0  0  0  0
 11 10  1  0  0  0  0
 11  3  1  0  0  0  0
 12 13  1  6  0  0  0
 12 14  1  0  0  0  0
 14 20  1  0  0  0  0
 15 21  1  0  0  0  0
 16 15  1  0  0  0  0
 16 17  1  0  0  0  0
 18 20  2  0  0  0  0
 18 22  1  0  0  0  0
 19 15  2  0  0  0  0
 20 19  1  0  0  0  0
 22 16  2  0  0  0  0
 23 24  1  0  0  0  0
 24 25  1  6  0  0  0
 26 27  1  6  0  0  0
 26 24  1  0  0  0  0
 26 28  1  0  0  0  0
 28 29  2  0  0  0  0
 29 30  1  0  0  0  0
 31 30  1  1  0  0  0
 31 35  1  0  0  0  0
 33 34  1  0  0  0  0
 33 31  1  0  0  0  0
 34 36  1  0  0  0  0
 35 32  1  0  0  0  0
 35 37  1  1  0  0  0
 36 32  1  0  0  0  0
 38 37  1  6  0  0  0
 38 42  1  0  0  0  0
 39 40  2  0  0  0  0
 41 39  1  0  0  0  0
 42 40  1  0  0  0  0
 43 41  1  0  0  0  0
 43 38  1  0  0  0  0
M  END
>  <MODEL>
1

>  <REMARK>
 VINA RESULT:      -8.3      0.000      0.000
  Name = 
  12 active torsions:
  status: ('A' for Active; 'I' for Inactive)
    1  A    between atoms: N_1  and  C_34
    2  A    between atoms: N_1  and  C_35
    3  A    between atoms: C_2  and  C_6
    4  A    between atoms: C_2  and  C_13
    5  A    between atoms: C_3  and  C_4
    6  A    between atoms: C_3  and  C_12
    7  A    between atoms: C_8  and  O_27
    8  A    between atoms: C_8  and  C_30
    9  A    between atoms: C_8  and  C_34
   10  A    between atoms: C_11  and  C_14
   11  A    between atoms: C_13  and  O_27
   12  A    between atoms: C_14  and  C_41
                            x       y       z     vdW  Elec       q    Type
                         _______ _______ _______ _____ _____    ______ ____

>  <TORSDO>
F 12

$$$$
=
 OpenBabel11052416443D

 43 47  0  0  1  0  0  0  0  0999 V2000
  188.6170  177.4760  139.0090 C   0  0  1  0  0  3  0  0  0  0  0  0
  193.4310  176.3000  137.1360 C   0  0  1  0  0  3  0  0  0  0  0  0
  190.9950  176.0000  136.8680 C   0  0  1  0  0  3  0  0  0  0  0  0
  193.2630  176.7730  138.5970 C   0  0  0  0  0  2  0  0  0  0  0  0
  194.6810  175.7040  136.9860 O   0  0  0  0  0  1  0  0  0  0  0  0
  190.8070  176.4810  138.2540 C   0  0  0  0  0  0  0  0  0  0  0  0
  192.3410  175.3070  136.7210 C   0  0  0  0  0  2  0  0  0  0  0  0
  191.8240  176.8260  139.0590 C   0  0  0  0  0  3  0  0  0  0  0  0
  189.4270  176.1990  138.7230 C   0  0  2  0  0  3  0  0  0  0  0  0
  188.7860  175.4340  137.6540 N   0  0  0  0  0  2  0  0  0  0  0  0
  189.8340  175.0430  136.7040 C   0  0  0  0  0  2  0  0  0  0  0  0
  188.7730  178.0240  140.4440 C   0  0  1  0  0  3  0  0  0  0  0  0
  187.7470  178.9350  140.7080 O   0  0  0  0  0  1  0  0  0  0  0  0
  188.7040  176.9370  141.4100 N   0  0  0  0  0  2  0  0  0  0  0  0
  189.6120  177.1590  145.0380 C   0  0  0  0  0  0  0  0  0  0  0  0
  190.9960  176.9380  144.9770 C   0  0  0  0  0  0  0  0  0  0  0  0
  191.7510  176.9890  146.0990 F   0  0  0  0  0  0  0  0  0  0  0  0
  190.8390  176.6820  142.5690 C   0  0  0  0  0  3  0  0  0  0  0  0
  188.8520  177.1520  143.8650 C   0  0  0  0  0  3  0  0  0  0  0  0
  189.4630  176.9250  142.6210 C   0  0  0  0  0  0  0  0  0  0  0  0
  188.8220  177.4740  146.5710 Cl  0  0  0  0  0  0  0  0  0  0  0  0
  191.6030  176.6900  143.7420 C   0  0  0  0  0  3  0  0  0  0  0  0
  188.6740  178.4010  137.9340 O   0  0  0  0  0  0  0  0  0  0  0  0
  187.3920  178.7940  137.4880 C   0  0  1  0  0  3  0  0  0  0  0  0
  187.4990  179.8350  136.5570 O   0  0  0  0  0  1  0  0  0  0  0  0
  186.6240  177.6150  136.8630 C   0  0  2  0  0  3  0  0  0  0  0  0
  186.6860  177.7350  135.3480 C   0  0  0  0  0  1  0  0  0  0  0  0
  185.1890  177.5670  137.3050 C   0  0  0  0  0  3  0  0  0  0  0  0
  184.7500  178.1080  138.4460 C   0  0  0  0  0  3  0  0  0  0  0  0
  183.3140  177.9220  138.8540 C   0  0  0  0  0  2  0  0  0  0  0  0
  182.6600  179.2920  139.0780 C   0  0  1  0  0  3  0  0  0  0  0  0
  180.4920  179.5740  140.1790 O   0  0  0  0  0  0  0  0  0  0  0  0
  181.8030  179.7050  137.8820 C   0  0  0  0  0  2  0  0  0  0  0  0
  180.9630  180.9450  138.2100 C   0  0  0  0  0  2  0  0  0  0  0  0
  181.8750  179.4580  140.4110 C   0  0  1  0  0  3  0  0  0  0  0  0
  180.3100  180.8470  139.6050 C   0  0  0  0  0  2  0  0  0  0  0  0
  182.1700  178.3980  141.4780 C   0  0  0  0  0  2  0  0  0  0  0  0
  183.1500  178.8800  142.5540 C   0  0  1  0  0  3  0  0  0  0  0  0
  184.9410  178.9060  144.7950 C   0  0  0  0  0  3  0  0  0  0  0  0
  183.6230  178.9280  145.0530 C   0  0  0  0  0  3  0  0  0  0  0  0
  185.4860  178.8150  143.3870 C   0  0  0  0  0  2  0  0  0  0  0  0
  182.5750  178.7570  143.9760 C   0  0  0  0  0  2  0  0  0  0  0  0
  184.4860  178.1500  142.4420 C   0  0  0  0  0  2  0  0  0  0  0  0
  1 23  1  6  0  0  0
  1 12  1  0  0  0  0
  2  5  1  1  0  0  0
  2  4  1  0  0  0  0
  3 11  1  1  0  0  0
  3  6  1  0  0  0  0
  4  8  1  0  0  0  0
  6  9  1  0  0  0  0
  6  8  2  0  0  0  0
  7  3  1  0  0  0  0
  7  2  1  0  0  0  0
  9  1  1  6  0  0  0
 10  9  1  0  0  0  0
 11 10  1  0  0  0  0
 12 13  1  1  0  0  0
 12 14  1  0  0  0  0
 14 20  1  0  0  0  0
 15 21  1  0  0  0  0
 16 15  1  0  0  0  0
 16 17  1  0  0  0  0
 18 20  2  0  0  0  0
 18 22  1  0  0  0  0
 19 15  2  0  0  0  0
 20 19  1  0  0  0  0
 22 16  2  0  0  0  0
 24 25  1  6  0  0  0
 24 23  1  0  0  0  0
 26 27  1  6  0  0  0
 26 28  1  0  0  0  0
 26 24  1  0  0  0  0
 28 29  2  0  0  0  0
 29 30  1  0  0  0  0
 31 30  1  6  0  0  0
 31 35  1  0  0  0  0
 32 35  1  0  0  0  0
 33 34  1  0  0  0  0
 33 31  1  0  0  0  0
 34 36  1  0  0  0  0
 35 37  1  1  0  0  0
 36 32  1  0  0  0  0
 38 37  1  6  0  0  0
 38 42  1  0  0  0  0
 39 40  2  0  0  0  0
 41 39  1  0  0  0  0
 42 40  1  0  0  0  0
 43 38  1  0  0  0  0
 43 41  1  0  0  0  0
M  END
>  <MODEL>
2

>  <REMARK>
 VINA RESULT:      -8.2      2.016      2.998
  Name = 
  12 active torsions:
  status: ('A' for Active; 'I' for Inactive)
    1  A    between atoms: N_1  and  C_34
    2  A    between atoms: N_1  and  C_35
    3  A    between atoms: C_2  and  C_6
    4  A    between atoms: C_2  and  C_13
    5  A    between atoms: C_3  and  C_4
    6  A    between atoms: C_3  and  C_12
    7  A    between atoms: C_8  and  O_27
    8  A    between atoms: C_8  and  C_30
    9  A    between atoms: C_8  and  C_34
   10  A    between atoms: C_11  and  C_14
   11  A    between atoms: C_13  and  O_27
   12  A    between atoms: C_14  and  C_41
                            x       y       z     vdW  Elec       q    Type
                         _______ _______ _______ _____ _____    ______ ____

>  <TORSDO>
F 12

$$$$
=
 OpenBabel11052416443D

 43 47  0  0  1  0  0  0  0  0999 V2000
  184.9150  178.1480  138.8800 C   0  0  1  0  0  3  0  0  0  0  0  0
  181.7710  178.4680  143.1320 C   0  0  1  0  0  3  0  0  0  0  0  0
  181.9200  178.6330  140.6720 C   0  0  1  0  0  3  0  0  0  0  0  0
  183.3000  178.6270  143.2860 C   0  0  0  0  0  2  0  0  0  0  0  0
  181.1410  178.9520  144.2750 O   0  0  0  0  0  1  0  0  0  0  0  0
  183.3900  178.7540  140.7930 C   0  0  0  0  0  0  0  0  0  0  0  0
  181.2340  179.2080  141.9020 C   0  0  0  0  0  2  0  0  0  0  0  0
  184.0340  178.7650  141.9710 C   0  0  0  0  0  3  0  0  0  0  0  0
  183.9840  179.2010  139.5090 C   0  0  2  0  0  3  0  0  0  0  0  0
  182.8590  179.4680  138.6140 N   0  0  0  0  0  2  0  0  0  0  0  0
  181.6360  179.4410  139.4250 C   0  0  0  0  0  2  0  0  0  0  0  0
  184.3230  177.4240  137.6510 C   0  0  1  0  0  3  0  0  0  0  0  0
  185.1830  177.5790  136.5610 O   0  0  0  0  0  1  0  0  0  0  0  0
  184.1600  176.0040  137.9300 N   0  0  0  0  0  2  0  0  0  0  0  0
  180.6810  175.0010  138.8910 C   0  0  0  0  0  0  0  0  0  0  0  0
  180.4130  174.0210  137.9240 C   0  0  0  0  0  0  0  0  0  0  0  0
  179.2440  173.3390  137.9410 F   0  0  0  0  0  0  0  0  0  0  0  0
  182.6080  174.3910  136.9550 C   0  0  0  0  0  3  0  0  0  0  0  0
  181.9120  175.6620  138.8910 C   0  0  0  0  0  3  0  0  0  0  0  0
  182.8880  175.3530  137.9300 C   0  0  0  0  0  0  0  0  0  0  0  0
  179.4960  175.3920  140.1210 Cl  0  0  0  0  0  0  0  0  0  0  0  0
  181.3760  173.7250  136.9530 C   0  0  0  0  0  3  0  0  0  0  0  0
  186.2600  178.5950  138.8050 O   0  0  0  0  0  0  0  0  0  0  0  0
  187.1750  177.6460  139.3120 C   0  0  1  0  0  3  0  0  0  0  0  0
  187.9680  177.1340  138.2770 O   0  0  0  0  0  1  0  0  0  0  0  0
  188.0750  178.2530  140.4030 C   0  0  2  0  0  3  0  0  0  0  0  0
  189.5140  178.2520  139.9120 C   0  0  0  0  0  1  0  0  0  0  0  0
  187.9870  177.5040  141.7030 C   0  0  0  0  0  3  0  0  0  0  0  0
  187.1250  177.8150  142.6760 C   0  0  0  0  0  3  0  0  0  0  0  0
  187.1770  177.0720  143.9820 C   0  0  0  0  0  2  0  0  0  0  0  0
  187.2790  178.0710  145.1420 C   0  0  1  0  0  3  0  0  0  0  0  0
  187.6360  177.3920  147.4660 O   0  0  0  0  0  0  0  0  0  0  0  0
  185.9040  178.3900  145.7290 C   0  0  0  0  0  2  0  0  0  0  0  0
  186.0340  179.1870  147.0310 C   0  0  0  0  0  2  0  0  0  0  0  0
  188.2950  177.7080  146.2630 C   0  0  1  0  0  3  0  0  0  0  0  0
  187.1310  178.6130  147.9530 C   0  0  0  0  0  2  0  0  0  0  0  0
  189.3170  176.6290  145.8920 C   0  0  0  0  0  2  0  0  0  0  0  0
  190.4790  177.1620  145.0450 C   0  0  1  0  0  3  0  0  0  0  0  0
  191.9800  178.2660  142.8650 C   0  0  0  0  0  3  0  0  0  0  0  0
  191.6780  176.9580  142.8110 C   0  0  0  0  0  3  0  0  0  0  0  0
  191.5130  179.1570  143.9940 C   0  0  0  0  0  2  0  0  0  0  0  0
  190.7590  176.2890  143.8090 C   0  0  0  0  0  2  0  0  0  0  0  0
  190.2400  178.6150  144.6430 C   0  0  0  0  0  2  0  0  0  0  0  0
  1 23  1  6  0  0  0
  2  4  1  0  0  0  0
  2  5  1  1  0  0  0
  3 11  1  6  0  0  0
  3  6  1  0  0  0  0
  3  7  1  0  0  0  0
  6  8  2  0  0  0  0
  7  2  1  0  0  0  0
  8  4  1  0  0  0  0
  9  1  1  6  0  0  0
  9  6  1  0  0  0  0
 10 11  1  0  0  0  0
 10  9  1  0  0  0  0
 12 13  1  6  0  0  0
 12 14  1  0  0  0  0
 12  1  1  0  0  0  0
 15 19  1  0  0  0  0
 15 21  1  0  0  0  0
 16 17  1  0  0  0  0
 16 15  2  0  0  0  0
 18 20  1  0  0  0  0
 20 14  1  0  0  0  0
 20 19  2  0  0  0  0
 22 18  2  0  0  0  0
 22 16  1  0  0  0  0
 23 24  1  0  0  0  0
 24 25  1  6  0  0  0
 24 26  1  0  0  0  0
 26 27  1  6  0  0  0
 26 28  1  0  0  0  0
 28 29  2  0  0  0  0
 29 30  1  0  0  0  0
 31 30  1  6  0  0  0
 31 33  1  0  0  0  0
 31 35  1  0  0  0  0
 32 36  1  0  0  0  0
 33 34  1  0  0  0  0
 34 36  1  0  0  0  0
 35 37  1  6  0  0  0
 35 32  1  0  0  0  0
 38 37  1  6  0  0  0
 39 41  1  0  0  0  0
 40 39  2  0  0  0  0
 40 42  1  0  0  0  0
 41 43  1  0  0  0  0
 42 38  1  0  0  0  0
 43 38  1  0  0  0  0
M  END
>  <MODEL>
3

>  <REMARK>
 VINA RESULT:      -8.0      3.833      8.307
  Name = 
  12 active torsions:
  status: ('A' for Active; 'I' for Inactive)
    1  A    between atoms: N_1  and  C_34
    2  A    between atoms: N_1  and  C_35
    3  A    between atoms: C_2  and  C_6
    4  A    between atoms: C_2  and  C_13
    5  A    between atoms: C_3  and  C_4
    6  A    between atoms: C_3  and  C_12
    7  A    between atoms: C_8  and  O_27
    8  A    between atoms: C_8  and  C_30
    9  A    between atoms: C_8  and  C_34
   10  A    between atoms: C_11  and  C_14
   11  A    between atoms: C_13  and  O_27
   12  A    between atoms: C_14  and  C_41
                            x       y       z     vdW  Elec       q    Type
                         _______ _______ _______ _____ _____    ______ ____

>  <TORSDO>
F 12

$$$$
=
 OpenBabel11052416443D

 43 47  0  0  1  0  0  0  0  0999 V2000
  187.2770  177.6090  137.1950 C   0  0  1  0  0  3  0  0  0  0  0  0
  187.9690  172.3710  136.8060 C   0  0  1  0  0  3  0  0  0  0  0  0
  188.9240  174.6060  136.3660 C   0  0  1  0  0  3  0  0  0  0  0  0
  186.5480  172.9540  136.9690 C   0  0  0  0  0  2  0  0  0  0  0  0
  187.8790  171.0560  136.3560 O   0  0  0  0  0  1  0  0  0  0  0  0
  187.5770  175.1910  136.5490 C   0  0  0  0  0  0  0  0  0  0  0  0
  188.8210  173.1860  135.8280 C   0  0  0  0  0  2  0  0  0  0  0  0
  186.4840  174.4570  136.8120 C   0  0  0  0  0  3  0  0  0  0  0  0
  187.5480  176.5940  136.0690 C   0  0  2  0  0  3  0  0  0  0  0  0
  188.8610  176.8470  135.4780 N   0  0  0  0  0  2  0  0  0  0  0  0
  189.5490  175.5550  135.3680 C   0  0  0  0  0  2  0  0  0  0  0  0
  185.8170  178.1040  137.2720 C   0  0  1  0  0  3  0  0  0  0  0  0
  185.1210  177.6790  136.1380 O   0  0  0  0  0  1  0  0  0  0  0  0
  185.1640  177.5690  138.4590 N   0  0  0  0  0  2  0  0  0  0  0  0
  182.3930  179.9810  139.1930 C   0  0  0  0  0  0  0  0  0  0  0  0
  181.7240  179.3070  140.2250 C   0  0  0  0  0  0  0  0  0  0  0  0
  180.6570  179.8720  140.8370 F   0  0  0  0  0  0  0  0  0  0  0  0
  183.3130  177.4810  140.0500 C   0  0  0  0  0  3  0  0  0  0  0  0
  183.5230  179.4070  138.6040 C   0  0  0  0  0  3  0  0  0  0  0  0
  183.9970  178.1590  139.0360 C   0  0  0  0  0  0  0  0  0  0  0  0
  181.8440  181.5540  138.6480 Cl  0  0  0  0  0  0  0  0  0  0  0  0
  182.1820  178.0530  140.6440 C   0  0  0  0  0  3  0  0  0  0  0  0
  187.9250  177.2520  138.4070 O   0  0  0  0  0  0  0  0  0  0  0  0
  188.9650  178.1440  138.7490 C   0  0  1  0  0  3  0  0  0  0  0  0
  188.7790  179.3760  138.1080 O   0  0  0  0  0  1  0  0  0  0  0  0
  189.0510  178.3590  140.2710 C   0  0  2  0  0  3  0  0  0  0  0  0
  190.3130  177.6880  140.7910 C   0  0  0  0  0  1  0  0  0  0  0  0
  187.8550  177.8120  140.9960 C   0  0  0  0  0  3  0  0  0  0  0  0
  186.9610  178.5800  141.6280 C   0  0  0  0  0  3  0  0  0  0  0  0
  185.8500  177.9370  142.4120 C   0  0  0  0  0  2  0  0  0  0  0  0
  185.7840  178.5560  143.8150 C   0  0  1  0  0  3  0  0  0  0  0  0
  185.9260  177.2340  145.8690 O   0  0  0  0  0  0  0  0  0  0  0  0
  184.3410  178.6700  144.3080 C   0  0  0  0  0  2  0  0  0  0  0  0
  184.2970  179.0550  145.7910 C   0  0  0  0  0  2  0  0  0  0  0  0
  186.6920  177.8960  144.8920 C   0  0  1  0  0  3  0  0  0  0  0  0
  185.3170  178.2520  146.6270 C   0  0  0  0  0  2  0  0  0  0  0  0
  187.7960  176.9860  144.3440 C   0  0  0  0  0  2  0  0  0  0  0  0
  189.1560  177.2130  145.0160 C   0  0  1  0  0  3  0  0  0  0  0  0
  191.6430  176.7390  146.3630 C   0  0  0  0  0  3  0  0  0  0  0  0
  190.5290  176.7760  147.1120 C   0  0  0  0  0  3  0  0  0  0  0  0
  191.6100  176.8850  144.8580 C   0  0  0  0  0  2  0  0  0  0  0  0
  189.1430  176.8570  146.5130 C   0  0  0  0  0  2  0  0  0  0  0  0
  190.2600  176.4540  144.2860 C   0  0  0  0  0  2  0  0  0  0  0  0
  1 12  1  0  0  0  0
  1 23  1  1  0  0  0
  2  5  1  6  0  0  0
  2  4  1  0  0  0  0
  3 11  1  6  0  0  0
  3  6  1  0  0  0  0
  6  8  2  0  0  0  0
  7  3  1  0  0  0  0
  7  2  1  0  0  0  0
  8  4  1  0  0  0  0
  9  6  1  0  0  0  0
  9  1  1  1  0  0  0
 10  9  1  0  0  0  0
 11 10  1  0  0  0  0
 12 13  1  6  0  0  0
 12 14  1  0  0  0  0
 14 20  1  0  0  0  0
 15 16  1  0  0  0  0
 16 22  2  0  0  0  0
 16 17  1  0  0  0  0
 18 22  1  0  0  0  0
 19 20  1  0  0  0  0
 19 15  2  0  0  0  0
 20 18  2  0  0  0  0
 21 15  1  0  0  0  0
 23 24  1  0  0  0  0
 24 25  1  6  0  0  0
 24 26  1  0  0  0  0
 26 27  1  1  0  0  0
 26 28  1  0  0  0  0
 28 29  2  0  0  0  0
 29 30  1  0  0  0  0
 31 30  1  6  0  0  0
 31 33  1  0  0  0  0
 31 35  1  0  0  0  0
 32 36  1  0  0  0  0
 33 34  1  0  0  0  0
 34 36  1  0  0  0  0
 35 37  1  6  0  0  0
 35 32  1  0  0  0  0
 38 37  1  6  0  0  0
 38 42  1  0  0  0  0
 39 40  2  0  0  0  0
 41 39  1  0  0  0  0
 42 40  1  0  0  0  0
 43 41  1  0  0  0  0
 43 38  1  0  0  0  0
M  END
>  <MODEL>
4

>  <REMARK>
 VINA RESULT:      -8.0      3.148      6.054
  Name = 
  12 active torsions:
  status: ('A' for Active; 'I' for Inactive)
    1  A    between atoms: N_1  and  C_34
    2  A    between atoms: N_1  and  C_35
    3  A    between atoms: C_2  and  C_6
    4  A    between atoms: C_2  and  C_13
    5  A    between atoms: C_3  and  C_4
    6  A    between atoms: C_3  and  C_12
    7  A    between atoms: C_8  and  O_27
    8  A    between atoms: C_8  and  C_30
    9  A    between atoms: C_8  and  C_34
   10  A    between atoms: C_11  and  C_14
   11  A    between atoms: C_13  and  O_27
   12  A    between atoms: C_14  and  C_41
                            x       y       z     vdW  Elec       q    Type
                         _______ _______ _______ _____ _____    ______ ____

>  <TORSDO>
F 12

$$$$
=
 OpenBabel11052416443D

 43 47  0  0  1  0  0  0  0  0999 V2000
  183.3850  178.4340  140.0460 C   0  0  1  0  0  3  0  0  0  0  0  0
  182.0050  175.0500  136.2100 C   0  0  1  0  0  3  0  0  0  0  0  0
  181.6350  177.2750  137.2160 C   0  0  1  0  0  3  0  0  0  0  0  0
  182.6920  174.5290  137.4920 C   0  0  0  0  0  2  0  0  0  0  0  0
  181.4120  173.9840  135.5400 O   0  0  0  0  0  1  0  0  0  0  0  0
  182.3170  176.8080  138.4430 C   0  0  0  0  0  0  0  0  0  0  0  0
  180.9460  176.1150  136.5130 C   0  0  0  0  0  2  0  0  0  0  0  0
  182.7940  175.5620  138.5930 C   0  0  0  0  0  3  0  0  0  0  0  0
  182.0900  177.7570  139.5610 C   0  0  2  0  0  3  0  0  0  0  0  0
  181.1630  178.7670  139.0510 N   0  0  0  0  0  2  0  0  0  0  0  0
  180.6480  178.2820  137.7650 C   0  0  0  0  0  2  0  0  0  0  0  0
  184.2140  179.1040  138.9290 C   0  0  1  0  0  3  0  0  0  0  0  0
  184.1820  180.4910  139.0940 O   0  0  0  0  0  1  0  0  0  0  0  0
  185.5970  178.6500  138.9850 N   0  0  0  0  0  2  0  0  0  0  0  0
  188.2310  177.1160  136.8060 C   0  0  0  0  0  0  0  0  0  0  0  0
  187.4480  176.6340  135.7470 C   0  0  0  0  0  0  0  0  0  0  0  0
  188.0280  176.0370  134.6800 F   0  0  0  0  0  0  0  0  0  0  0  0
  185.4530  177.4560  136.8580 C   0  0  0  0  0  3  0  0  0  0  0  0
  187.6230  177.7750  137.8790 C   0  0  0  0  0  3  0  0  0  0  0  0
  186.2320  177.9590  137.9060 C   0  0  0  0  0  0  0  0  0  0  0  0
  189.9730  176.9270  136.7900 Cl  0  0  0  0  0  0  0  0  0  0  0  0
  186.0590  176.7980  135.7810 C   0  0  0  0  0  3  0  0  0  0  0  0
  183.1960  179.1510  141.2560 O   0  0  0  0  0  0  0  0  0  0  0  0
  183.5880  178.4100  142.3930 C   0  0  1  0  0  3  0  0  0  0  0  0
  184.5480  177.4520  142.0420 O   0  0  0  0  0  1  0  0  0  0  0  0
  184.1440  179.3210  143.5010 C   0  0  2  0  0  3  0  0  0  0  0  0
  185.3030  180.1290  142.9390 C   0  0  0  0  0  1  0  0  0  0  0  0
  184.6060  178.5470  144.7030 C   0  0  0  0  0  3  0  0  0  0  0  0
  185.6220  178.9330  145.4820 C   0  0  0  0  0  3  0  0  0  0  0  0
  186.0780  178.0420  146.6050 C   0  0  0  0  0  2  0  0  0  0  0  0
  187.5510  178.3290  146.9260 C   0  0  1  0  0  3  0  0  0  0  0  0
  189.2850  176.6030  146.9080 O   0  0  0  0  0  0  0  0  0  0  0  0
  187.8300  178.2120  148.4250 C   0  0  0  0  0  2  0  0  0  0  0  0
  189.3360  178.2550  148.7080 C   0  0  0  0  0  2  0  0  0  0  0  0
  188.5950  177.5240  146.0990 C   0  0  1  0  0  3  0  0  0  0  0  0
  190.1340  177.3760  147.7230 C   0  0  0  0  0  2  0  0  0  0  0  0
  188.0470  176.8520  144.8360 C   0  0  0  0  0  2  0  0  0  0  0  0
  188.7950  177.2610  143.5610 C   0  0  1  0  0  3  0  0  0  0  0  0
  189.6880  177.3560  140.8370 C   0  0  0  0  0  3  0  0  0  0  0  0
  190.2190  176.4120  141.6310 C   0  0  0  0  0  3  0  0  0  0  0  0
  188.6190  178.3110  141.3200 C   0  0  0  0  0  2  0  0  0  0  0  0
  189.7210  176.1500  143.0350 C   0  0  0  0  0  2  0  0  0  0  0  0
  187.8200  177.7140  142.4780 C   0  0  0  0  0  2  0  0  0  0  0  0
  1 23  1  1  0  0  0
  2  5  1  1  0  0  0
  2  7  1  0  0  0  0
  2  4  1  0  0  0  0
  3  7  1  1  0  0  0
  3 11  1  0  0  0  0
  3  6  1  0  0  0  0
  4  8  1  0  0  0  0
  6  8  2  0  0  0  0
  6  9  1  0  0  0  0
  9  1  1  6  0  0  0
 10  9  1  0  0  0  0
 11 10  1  0  0  0  0
 12 14  1  0  0  0  0
 12 13  1  1  0  0  0
 12  1  1  0  0  0  0
 15 19  1  0  0  0  0
 16 22  1  0  0  0  0
 16 15  2  0  0  0  0
 17 16  1  0  0  0  0
 18 20  1  0  0  0  0
 19 20  2  0  0  0  0
 20 14  1  0  0  0  0
 21 15  1  0  0  0  0
 22 18  2  0  0  0  0
 23 24  1  0  0  0  0
 24 25  1  6  0  0  0
 24 26  1  0  0  0  0
 26 27  1  6  0  0  0
 26 28  1  0  0  0  0
 28 29  2  0  0  0  0
 29 30  1  0  0  0  0
 31 30  1  1  0  0  0
 31 33  1  0  0  0  0
 32 36  1  0  0  0  0
 33 34  1  0  0  0  0
 35 37  1  6  0  0  0
 35 32  1  0  0  0  0
 35 31  1  0  0  0  0
 36 34  1  0  0  0  0
 38 37  1  1  0  0  0
 39 41  1  0  0  0  0
 39 40  2  0  0  0  0
 40 42  1  0  0  0  0
 41 43  1  0  0  0  0
 42 38  1  0  0  0  0
 43 38  1  0  0  0  0
M  END
>  <MODEL>
5

>  <REMARK>
 VINA RESULT:      -8.0      3.603      7.515
  Name = 
  12 active torsions:
  status: ('A' for Active; 'I' for Inactive)
    1  A    between atoms: N_1  and  C_34
    2  A    between atoms: N_1  and  C_35
    3  A    between atoms: C_2  and  C_6
    4  A    between atoms: C_2  and  C_13
    5  A    between atoms: C_3  and  C_4
    6  A    between atoms: C_3  and  C_12
    7  A    between atoms: C_8  and  O_27
    8  A    between atoms: C_8  and  C_30
    9  A    between atoms: C_8  and  C_34
   10  A    between atoms: C_11  and  C_14
   11  A    between atoms: C_13  and  O_27
   12  A    between atoms: C_14  and  C_41
                            x       y       z     vdW  Elec       q    Type
                         _______ _______ _______ _____ _____    ______ ____

>  <TORSDO>
F 12

$$$$
=
 OpenBabel11052416443D

 43 47  0  0  1  0  0  0  0  0999 V2000
  184.9600  177.8380  137.9660 C   0  0  1  0  0  3  0  0  0  0  0  0
  183.4390  178.5760  142.9870 C   0  0  1  0  0  3  0  0  0  0  0  0
  182.7130  178.1950  140.6570 C   0  0  1  0  0  3  0  0  0  0  0  0
  184.8430  179.0280  142.5290 C   0  0  0  0  0  2  0  0  0  0  0  0
  183.1280  179.1920  144.1960 O   0  0  0  0  0  1  0  0  0  0  0  0
  184.0620  178.5930  140.1970 C   0  0  0  0  0  0  0  0  0  0  0  0
  182.3580  178.9090  141.9530 C   0  0  0  0  0  2  0  0  0  0  0  0
  185.0390  178.9850  141.0300 C   0  0  0  0  0  3  0  0  0  0  0  0
  184.0660  178.8290  138.7320 C   0  0  2  0  0  3  0  0  0  0  0  0
  182.6770  178.6850  138.2960 N   0  0  0  0  0  2  0  0  0  0  0  0
  181.8410  178.6340  139.5010 C   0  0  0  0  0  2  0  0  0  0  0  0
  184.2090  176.9560  136.9450 C   0  0  1  0  0  3  0  0  0  0  0  0
  184.6590  177.2510  135.6560 O   0  0  0  0  0  1  0  0  0  0  0  0
  184.4480  175.5460  137.2220 N   0  0  0  0  0  2  0  0  0  0  0  0
  181.0850  173.9500  137.6460 C   0  0  0  0  0  0  0  0  0  0  0  0
  181.3840  172.6180  137.3270 C   0  0  0  0  0  0  0  0  0  0  0  0
  180.4320  171.6600  137.4080 F   0  0  0  0  0  0  0  0  0  0  0  0
  183.6920  173.2450  136.9080 C   0  0  0  0  0  3  0  0  0  0  0  0
  182.0920  174.9200  137.6050 C   0  0  0  0  0  3  0  0  0  0  0  0
  183.4040  174.5720  137.2470 C   0  0  0  0  0  0  0  0  0  0  0  0
  179.4650  174.4150  138.1230 Cl  0  0  0  0  0  0  0  0  0  0  0  0
  182.6860  172.2710  136.9500 C   0  0  0  0  0  3  0  0  0  0  0  0
  186.1890  178.4220  137.5640 O   0  0  0  0  0  0  0  0  0  0  0  0
  187.3040  177.6190  137.8910 C   0  0  1  0  0  3  0  0  0  0  0  0
  187.5610  176.7010  136.8640 O   0  0  0  0  0  1  0  0  0  0  0  0
  188.5600  178.4710  138.1510 C   0  0  2  0  0  3  0  0  0  0  0  0
  189.7500  177.8150  137.4680 C   0  0  0  0  0  1  0  0  0  0  0  0
  188.8490  178.6340  139.6160 C   0  0  0  0  0  3  0  0  0  0  0  0
  188.2260  177.9380  140.5730 C   0  0  0  0  0  3  0  0  0  0  0  0
  188.5100  178.2410  142.0180 C   0  0  0  0  0  2  0  0  0  0  0  0
  189.5770  177.2760  142.5500 C   0  0  1  0  0  3  0  0  0  0  0  0
  190.1790  177.1170  144.9160 O   0  0  0  0  0  0  0  0  0  0  0  0
  190.9690  177.9060  142.5150 C   0  0  0  0  0  2  0  0  0  0  0  0
  191.9830  177.0380  143.2690 C   0  0  0  0  0  2  0  0  0  0  0  0
  189.2850  176.6410  143.9400 C   0  0  1  0  0  3  0  0  0  0  0  0
  191.4210  176.5280  144.6130 C   0  0  0  0  0  2  0  0  0  0  0  0
  187.8330  176.7530  144.4160 C   0  0  0  0  0  2  0  0  0  0  0  0
  187.6540  177.7310  145.5850 C   0  0  1  0  0  3  0  0  0  0  0  0
  186.7240  178.9250  148.0210 C   0  0  0  0  0  3  0  0  0  0  0  0
  185.9540  179.0640  146.9290 C   0  0  0  0  0  3  0  0  0  0  0  0
  188.0090  178.1290  148.0080 C   0  0  0  0  0  2  0  0  0  0  0  0
  186.2460  178.3510  145.6270 C   0  0  0  0  0  2  0  0  0  0  0  0
  187.9940  177.0620  146.9130 C   0  0  0  0  0  2  0  0  0  0  0  0
  1 23  1  6  0  0  0
  2  5  1  1  0  0  0
  3 11  1  6  0  0  0
  3  7  1  0  0  0  0
  4  2  1  0  0  0  0
  6  3  1  0  0  0  0
  6  8  2  0  0  0  0
  7  2  1  0  0  0  0
  8  4  1  0  0  0  0
  9  1  1  6  0  0  0
  9  6  1  0  0  0  0
 10  9  1  0  0  0  0
 10 11  1  0  0  0  0
 12 13  1  6  0  0  0
 12 14  1  0  0  0  0
 12  1  1  0  0  0  0
 14 20  1  0  0  0  0
 15 21  1  0  0  0  0
 16 17  1  0  0  0  0
 16 15  2  0  0  0  0
 18 22  2  0  0  0  0
 18 20  1  0  0  0  0
 19 15  1  0  0  0  0
 20 19  2  0  0  0  0
 22 16  1  0  0  0  0
 23 24  1  0  0  0  0
 24 25  1  6  0  0  0
 24 26  1  0  0  0  0
 26 27  1  6  0  0  0
 26 28  1  0  0  0  0
 28 29  2  0  0  0  0
 29 30  1  0  0  0  0
 31 30  1  1  0  0  0
 31 35  1  0  0  0  0
 33 31  1  0  0  0  0
 33 34  1  0  0  0  0
 34 36  1  0  0  0  0
 35 37  1  1  0  0  0
 35 32  1  0  0  0  0
 36 32  1  0  0  0  0
 38 37  1  6  0  0  0
 38 42  1  0  0  0  0
 38 43  1  0  0  0  0
 40 39  2  0  0  0  0
 41 39  1  0  0  0  0
 42 40  1  0  0  0  0
 43 41  1  0  0  0  0
M  END
>  <MODEL>
6

>  <REMARK>
 VINA RESULT:      -7.9      3.902      8.282
  Name = 
  12 active torsions:
  status: ('A' for Active; 'I' for Inactive)
    1  A    between atoms: N_1  and  C_34
    2  A    between atoms: N_1  and  C_35
    3  A    between atoms: C_2  and  C_6
    4  A    between atoms: C_2  and  C_13
    5  A    between atoms: C_3  and  C_4
    6  A    between atoms: C_3  and  C_12
    7  A    between atoms: C_8  and  O_27
    8  A    between atoms: C_8  and  C_30
    9  A    between atoms: C_8  and  C_34
   10  A    between atoms: C_11  and  C_14
   11  A    between atoms: C_13  and  O_27
   12  A    between atoms: C_14  and  C_41
                            x       y       z     vdW  Elec       q    Type
                         _______ _______ _______ _____ _____    ______ ____

>  <TORSDO>
F 12

$$$$
=
 OpenBabel11052416443D

 43 47  0  0  1  0  0  0  0  0999 V2000
  188.1200  178.0800  141.2080 C   0  0  1  0  0  3  0  0  0  0  0  0
  186.2670  176.6170  136.4650 C   0  0  1  0  0  3  0  0  0  0  0  0
  188.2370  176.7440  137.9490 C   0  0  1  0  0  3  0  0  0  0  0  0
  185.5040  177.6650  137.3050 C   0  0  0  0  0  2  0  0  0  0  0  0
  185.8220  176.6710  135.1470 O   0  0  0  0  0  1  0  0  0  0  0  0
  187.5130  177.7250  138.7870 C   0  0  0  0  0  0  0  0  0  0  0  0
  187.7830  176.8400  136.5000 C   0  0  0  0  0  2  0  0  0  0  0  0
  186.2760  178.1650  138.5060 C   0  0  0  0  0  3  0  0  0  0  0  0
  188.4420  178.3900  139.7340 C   0  0  2  0  0  3  0  0  0  0  0  0
  189.7780  177.8950  139.4030 N   0  0  0  0  0  2  0  0  0  0  0  0
  189.6770  177.1730  138.1300 C   0  0  0  0  0  2  0  0  0  0  0  0
  189.3600  177.8340  142.0950 C   0  0  1  0  0  3  0  0  0  0  0  0
  189.7340  179.0290  142.7140 O   0  0  0  0  0  1  0  0  0  0  0  0
  189.0600  176.8420  143.1180 N   0  0  0  0  0  2  0  0  0  0  0  0
  189.6730  177.1750  146.7990 C   0  0  0  0  0  0  0  0  0  0  0  0
  191.0250  176.8090  146.8750 C   0  0  0  0  0  0  0  0  0  0  0  0
  191.6820  176.8460  148.0570 F   0  0  0  0  0  0  0  0  0  0  0  0
  191.0490  176.4350  144.4770 C   0  0  0  0  0  3  0  0  0  0  0  0
  189.0200  177.1790  145.5630 C   0  0  0  0  0  3  0  0  0  0  0  0
  189.7070  176.8210  144.3920 C   0  0  0  0  0  0  0  0  0  0  0  0
  188.7920  177.6540  148.2370 Cl  0  0  0  0  0  0  0  0  0  0  0  0
  191.7060  176.4320  145.7130 C   0  0  0  0  0  3  0  0  0  0  0  0
  187.0900  178.9110  141.7190 O   0  0  0  0  0  0  0  0  0  0  0  0
  186.0640  178.1750  142.3520 C   0  0  1  0  0  3  0  0  0  0  0  0
  186.1940  178.2560  143.7440 O   0  0  0  0  0  1  0  0  0  0  0  0
  184.6680  178.6710  141.9310 C   0  0  2  0  0  3  0  0  0  0  0  0
  183.8780  179.0340  143.1790 C   0  0  0  0  0  1  0  0  0  0  0  0
  183.9100  177.6460  141.1360 C   0  0  0  0  0  3  0  0  0  0  0  0
  182.7630  177.9060  140.5010 C   0  0  0  0  0  3  0  0  0  0  0  0
  182.0240  176.7910  139.8140 C   0  0  0  0  0  2  0  0  0  0  0  0
  181.4090  177.3070  138.5060 C   0  0  1  0  0  3  0  0  0  0  0  0
  182.1750  176.5930  136.2940 O   0  0  0  0  0  0  0  0  0  0  0  0
  182.0950  178.5890  138.0330 C   0  0  0  0  0  2  0  0  0  0  0  0
  181.6490  178.9590  136.6140 C   0  0  0  0  0  2  0  0  0  0  0  0
  181.3040  176.2710  137.3510 C   0  0  1  0  0  3  0  0  0  0  0  0
  181.6200  177.7320  135.6790 C   0  0  0  0  0  2  0  0  0  0  0  0
  181.4630  174.8060  137.7720 C   0  0  0  0  0  2  0  0  0  0  0  0
  182.6770  174.1220  137.1330 C   0  0  1  0  0  3  0  0  0  0  0  0
  184.8760  172.3350  136.6850 C   0  0  0  0  0  3  0  0  0  0  0  0
  185.0730  173.3620  137.5280 C   0  0  0  0  0  3  0  0  0  0  0  0
  183.5400  172.0760  136.0260 C   0  0  0  0  0  2  0  0  0  0  0  0
  183.9560  174.2800  137.9740 C   0  0  0  0  0  2  0  0  0  0  0  0
  182.3890  172.6490  136.8520 C   0  0  0  0  0  2  0  0  0  0  0  0
  1 23  1  1  0  0  0
  1 12  1  0  0  0  0
  2  5  1  6  0  0  0
  2  7  1  0  0  0  0
  2  4  1  0  0  0  0
  3  7  1  6  0  0  0
  3 11  1  0  0  0  0
  3  6  1  0  0  0  0
  4  8  1  0  0  0  0
  6  9  1  0  0  0  0
  8  6  2  0  0  0  0
  9  1  1  1  0  0  0
 10  9  1  0  0  0  0
 11 10  1  0  0  0  0
 12 13  1  1  0  0  0
 12 14  1  0  0  0  0
 14 20  1  0  0  0  0
 15 16  1  0  0  0  0
 15 21  1  0  0  0  0
 16 17  1  0  0  0  0
 18 22  1  0  0  0  0
 19 15  2  0  0  0  0
 20 18  2  0  0  0  0
 20 19  1  0  0  0  0
 22 16  2  0  0  0  0
 23 24  1  0  0  0  0
 24 25  1  1  0  0  0
 26 24  1  0  0  0  0
 26 27  1  1  0  0  0
 28 26  1  0  0  0  0
 29 28  2  0  0  0  0
 30 29  1  0  0  0  0
 31 30  1  1  0  0  0
 32 35  1  0  0  0  0
 33 31  1  0  0  0  0
 34 33  1  0  0  0  0
 35 37  1  1  0  0  0
 35 31  1  0  0  0  0
 36 32  1  0  0  0  0
 36 34  1  0  0  0  0
 38 37  1  1  0  0  0
 38 42  1  0  0  0  0
 39 40  2  0  0  0  0
 40 42  1  0  0  0  0
 41 39  1  0  0  0  0
 41 43  1  0  0  0  0
 43 38  1  0  0  0  0
M  END
>  <MODEL>
7

>  <REMARK>
 VINA RESULT:      -7.9      2.633      4.991
  Name = 
  12 active torsions:
  status: ('A' for Active; 'I' for Inactive)
    1  A    between atoms: N_1  and  C_34
    2  A    between atoms: N_1  and  C_35
    3  A    between atoms: C_2  and  C_6
    4  A    between atoms: C_2  and  C_13
    5  A    between atoms: C_3  and  C_4
    6  A    between atoms: C_3  and  C_12
    7  A    between atoms: C_8  and  O_27
    8  A    between atoms: C_8  and  C_30
    9  A    between atoms: C_8  and  C_34
   10  A    between atoms: C_11  and  C_14
   11  A    between atoms: C_13  and  O_27
   12  A    between atoms: C_14  and  C_41
                            x       y       z     vdW  Elec       q    Type
                         _______ _______ _______ _____ _____    ______ ____

>  <TORSDO>
F 12

$$$$
=
 OpenBabel11052416443D

 43 47  0  0  1  0  0  0  0  0999 V2000
  182.0080  179.2040  139.8540 C   0  0  1  0  0  3  0  0  0  0  0  0
  184.6200  175.8590  136.6830 C   0  0  1  0  0  3  0  0  0  0  0  0
  184.8020  177.6620  138.3610 C   0  0  1  0  0  3  0  0  0  0  0  0
  183.1450  176.2140  136.3880 C   0  0  0  0  0  2  0  0  0  0  0  0
  185.1920  175.2890  135.5490 O   0  0  0  0  0  1  0  0  0  0  0  0
  183.3820  178.0000  138.1180 C   0  0  0  0  0  0  0  0  0  0  0  0
  185.4370  177.0850  137.1040 C   0  0  0  0  0  2  0  0  0  0  0  0
  182.6160  177.3620  137.2190 C   0  0  0  0  0  3  0  0  0  0  0  0
  183.0470  179.3120  138.7230 C   0  0  2  0  0  3  0  0  0  0  0  0
  184.3020  179.8470  139.2500 N   0  0  0  0  0  2  0  0  0  0  0  0
  185.3880  179.0050  138.7350 C   0  0  0  0  0  2  0  0  0  0  0  0
  180.5420  179.1470  139.3720 C   0  0  1  0  0  3  0  0  0  0  0  0
  179.7810  178.4140  140.2860 O   0  0  0  0  0  1  0  0  0  0  0  0
  179.9920  180.4910  139.2650 N   0  0  0  0  0  2  0  0  0  0  0  0
  181.1670  183.4580  137.3030 C   0  0  0  0  0  0  0  0  0  0  0  0
  180.8020  183.0760  136.0040 C   0  0  0  0  0  0  0  0  0  0  0  0
  181.0040  183.9110  134.9590 F   0  0  0  0  0  0  0  0  0  0  0  0
  179.9430  180.9780  136.8720 C   0  0  0  0  0  3  0  0  0  0  0  0
  180.9080  182.6050  138.3800 C   0  0  0  0  0  3  0  0  0  0  0  0
  180.2840  181.3650  138.1730 C   0  0  0  0  0  0  0  0  0  0  0  0
  181.9230  185.0110  137.6010 Cl  0  0  0  0  0  0  0  0  0  0  0  0
  180.1990  181.8320  135.7920 C   0  0  0  0  0  3  0  0  0  0  0  0
  182.4110  178.2990  140.8700 O   0  0  0  0  0  0  0  0  0  0  0  0
  182.7430  178.9520  142.0770 C   0  0  1  0  0  3  0  0  0  0  0  0
  181.6440  178.9590  142.9450 O   0  0  0  0  0  1  0  0  0  0  0  0
  183.9470  178.2870  142.7690 C   0  0  2  0  0  3  0  0  0  0  0  0
  183.9230  178.6410  144.2480 C   0  0  0  0  0  1  0  0  0  0  0  0
  185.2590  178.7100  142.1720 C   0  0  0  0  0  3  0  0  0  0  0  0
  186.4420  178.2460  142.5860 C   0  0  0  0  0  3  0  0  0  0  0  0
  187.7080  178.8030  141.9960 C   0  0  0  0  0  2  0  0  0  0  0  0
  188.5820  177.6560  141.4700 C   0  0  1  0  0  3  0  0  0  0  0  0
  191.0110  177.8280  141.2280 O   0  0  0  0  0  0  0  0  0  0  0  0
  188.6970  177.6940  139.9470 C   0  0  0  0  0  2  0  0  0  0  0  0
  189.7600  176.7070  139.4520 C   0  0  0  0  0  2  0  0  0  0  0  0
  189.9820  177.5110  142.1330 C   0  0  1  0  0  3  0  0  0  0  0  0
  191.0440  176.7640  140.3060 C   0  0  0  0  0  2  0  0  0  0  0  0
  190.1580  178.2640  143.4560 C   0  0  0  0  0  2  0  0  0  0  0  0
  190.1940  177.3380  144.6790 C   0  0  1  0  0  3  0  0  0  0  0  0
  190.5970  176.3570  147.3440 C   0  0  0  0  0  3  0  0  0  0  0  0
  191.6680  176.4150  146.5350 C   0  0  0  0  0  3  0  0  0  0  0  0
  189.2290  176.8340  146.9080 C   0  0  0  0  0  2  0  0  0  0  0  0
  191.6260  177.0590  145.1670 C   0  0  0  0  0  2  0  0  0  0  0  0
  189.3310  177.8920  145.8090 C   0  0  0  0  0  2  0  0  0  0  0  0
  1 23  1  6  0  0  0
  2  5  1  6  0  0  0
  2  7  1  0  0  0  0
  3  7  1  6  0  0  0
  3 11  1  0  0  0  0
  4  2  1  0  0  0  0
  4  8  1  0  0  0  0
  6  3  1  0  0  0  0
  6  9  1  0  0  0  0
  8  6  2  0  0  0  0
  9 10  1  0  0  0  0
  9  1  1  1  0  0  0
 11 10  1  0  0  0  0
 12  1  1  0  0  0  0
 12 13  1  1  0  0  0
 14 12  1  0  0  0  0
 15 21  1  0  0  0  0
 15 19  1  0  0  0  0
 16 15  2  0  0  0  0
 17 16  1  0  0  0  0
 18 20  1  0  0  0  0
 20 19  2  0  0  0  0
 20 14  1  0  0  0  0
 22 16  1  0  0  0  0
 22 18  2  0  0  0  0
 23 24  1  0  0  0  0
 24 26  1  0  0  0  0
 24 25  1  1  0  0  0
 26 27  1  1  0  0  0
 28 29  2  0  0  0  0
 28 26  1  0  0  0  0
 30 29  1  0  0  0  0
 31 30  1  1  0  0  0
 31 35  1  0  0  0  0
 32 35  1  0  0  0  0
 33 31  1  0  0  0  0
 34 33  1  0  0  0  0
 34 36  1  0  0  0  0
 35 37  1  1  0  0  0
 36 32  1  0  0  0  0
 38 37  1  6  0  0  0
 38 42  1  0  0  0  0
 38 43  1  0  0  0  0
 40 39  2  0  0  0  0
 41 39  1  0  0  0  0
 42 40  1  0  0  0  0
 43 41  1  0  0  0  0
M  END
>  <MODEL>
8

>  <REMARK>
 VINA RESULT:      -7.8      4.105      8.565
  Name = 
  12 active torsions:
  status: ('A' for Active; 'I' for Inactive)
    1  A    between atoms: N_1  and  C_34
    2  A    between atoms: N_1  and  C_35
    3  A    between atoms: C_2  and  C_6
    4  A    between atoms: C_2  and  C_13
    5  A    between atoms: C_3  and  C_4
    6  A    between atoms: C_3  and  C_12
    7  A    between atoms: C_8  and  O_27
    8  A    between atoms: C_8  and  C_30
    9  A    between atoms: C_8  and  C_34
   10  A    between atoms: C_11  and  C_14
   11  A    between atoms: C_13  and  O_27
   12  A    between atoms: C_14  and  C_41
                            x       y       z     vdW  Elec       q    Type
                         _______ _______ _______ _____ _____    ______ ____

>  <TORSDO>
F 12

$$$$
=
 OpenBabel11052416443D

 43 47  0  0  1  0  0  0  0  0999 V2000
  189.4400  176.8790  138.0850 C   0  0  1  0  0  3  0  0  0  0  0  0
  193.6670  175.1270  135.4150 C   0  0  1  0  0  3  0  0  0  0  0  0
  191.3160  174.7040  136.0430 C   0  0  1  0  0  3  0  0  0  0  0  0
  193.8440  176.1450  136.5630 C   0  0  0  0  0  2  0  0  0  0  0  0
  194.8970  174.5420  135.1250 O   0  0  0  0  0  1  0  0  0  0  0  0
  191.4530  175.7000  137.1300 C   0  0  0  0  0  0  0  0  0  0  0  0
  192.6520  174.0330  135.7630 C   0  0  0  0  0  2  0  0  0  0  0  0
  192.5950  176.3560  137.3890 C   0  0  0  0  0  3  0  0  0  0  0  0
  190.3080  175.6070  138.0700 C   0  0  2  0  0  3  0  0  0  0  0  0
  189.5100  174.4660  137.6230 N   0  0  0  0  0  2  0  0  0  0  0  0
  190.3000  173.7430  136.6190 C   0  0  0  0  0  2  0  0  0  0  0  0
  189.6760  177.8000  139.3010 C   0  0  1  0  0  3  0  0  0  0  0  0
  189.1250  179.0580  139.0470 O   0  0  0  0  0  1  0  0  0  0  0  0
  189.0510  177.2380  140.4900 N   0  0  0  0  0  2  0  0  0  0  0  0
  191.0210  176.3000  143.5360 C   0  0  0  0  0  0  0  0  0  0  0  0
  190.7880  177.4150  144.3540 C   0  0  0  0  0  0  0  0  0  0  0  0
  191.2890  177.4640  145.6100 F   0  0  0  0  0  0  0  0  0  0  0  0
  189.4430  178.4120  142.5960 C   0  0  0  0  0  3  0  0  0  0  0  0
  190.4560  176.2420  142.2580 C   0  0  0  0  0  3  0  0  0  0  0  0
  189.6540  177.2920  141.7850 C   0  0  0  0  0  0  0  0  0  0  0  0
  191.9950  174.9600  144.1050 Cl  0  0  0  0  0  0  0  0  0  0  0  0
  190.0060  178.4720  143.8770 C   0  0  0  0  0  3  0  0  0  0  0  0
  189.3440  177.4810  136.8030 O   0  0  0  0  0  0  0  0  0  0  0  0
  188.0670  177.3190  136.2220 C   0  0  1  0  0  3  0  0  0  0  0  0
  188.0910  176.2890  135.2730 O   0  0  0  0  0  1  0  0  0  0  0  0
  186.9940  177.0210  137.2850 C   0  0  2  0  0  3  0  0  0  0  0  0
  185.9840  176.0450  136.7040 C   0  0  0  0  0  1  0  0  0  0  0  0
  186.2850  178.2620  137.7480 C   0  0  0  0  0  3  0  0  0  0  0  0
  185.1370  178.2430  138.4330 C   0  0  0  0  0  3  0  0  0  0  0  0
  184.4480  179.5380  138.7670 C   0  0  0  0  0  2  0  0  0  0  0  0
  183.1040  179.2470  139.4470 C   0  0  1  0  0  3  0  0  0  0  0  0
  182.6670  177.2100  140.7320 O   0  0  0  0  0  0  0  0  0  0  0  0
  182.1400  178.5330  138.5000 C   0  0  0  0  0  2  0  0  0  0  0  0
  180.9030  178.0290  139.2520 C   0  0  0  0  0  2  0  0  0  0  0  0
  183.1820  178.5170  140.8190 C   0  0  1  0  0  3  0  0  0  0  0  0
  181.2740  177.3600  140.5920 C   0  0  0  0  0  2  0  0  0  0  0  0
  184.5620  178.5250  141.4850 C   0  0  0  0  0  2  0  0  0  0  0  0
  184.5050  178.2810  142.9980 C   0  0  1  0  0  3  0  0  0  0  0  0
  184.8010  178.6350  145.8290 C   0  0  0  0  0  3  0  0  0  0  0  0
  185.8770  178.2200  145.1390 C   0  0  0  0  0  3  0  0  0  0  0  0
  183.4870  178.9620  145.1560 C   0  0  0  0  0  2  0  0  0  0  0  0
  185.9020  178.1490  143.6290 C   0  0  0  0  0  2  0  0  0  0  0  0
  183.6930  179.3680  143.6970 C   0  0  0  0  0  2  0  0  0  0  0  0
  1 23  1  6  0  0  0
  1 12  1  0  0  0  0
  2  5  1  1  0  0  0
  2  7  1  0  0  0  0
  2  4  1  0  0  0  0
  3  7  1  1  0  0  0
  3 11  1  0  0  0  0
  3  6  1  0  0  0  0
  4  8  1  0  0  0  0
  6  8  2  0  0  0  0
  6  9  1  0  0  0  0
  9  1  1  6  0  0  0
 10  9  1  0  0  0  0
 11 10  1  0  0  0  0
 12 13  1  6  0  0  0
 12 14  1  0  0  0  0
 14 20  1  0  0  0  0
 15 21  1  0  0  0  0
 15 16  1  0  0  0  0
 16 17  1  0  0  0  0
 18 22  1  0  0  0  0
 19 15  2  0  0  0  0
 20 19  1  0  0  0  0
 20 18  2  0  0  0  0
 22 16  2  0  0  0  0
 24 25  1  6  0  0  0
 24 23  1  0  0  0  0
 24 26  1  0  0  0  0
 26 27  1  6  0  0  0
 26 28  1  0  0  0  0
 28 29  2  0  0  0  0
 29 30  1  0  0  0  0
 31 30  1  6  0  0  0
 31 35  1  0  0  0  0
 32 35  1  0  0  0  0
 33 34  1  0  0  0  0
 33 31  1  0  0  0  0
 34 36  1  0  0  0  0
 35 37  1  6  0  0  0
 36 32  1  0  0  0  0
 38 37  1  6  0  0  0
 38 42  1  0  0  0  0
 38 43  1  0  0  0  0
 40 39  2  0  0  0  0
 41 39  1  0  0  0  0
 42 40  1  0  0  0  0
 43 41  1  0  0  0  0
M  END
>  <MODEL>
9

>  <REMARK>
 VINA RESULT:      -7.8      2.288      3.592
  Name = 
  12 active torsions:
  status: ('A' for Active; 'I' for Inactive)
    1  A    between atoms: N_1  and  C_34
    2  A    between atoms: N_1  and  C_35
    3  A    between atoms: C_2  and  C_6
    4  A    between atoms: C_2  and  C_13
    5  A    between atoms: C_3  and  C_4
    6  A    between atoms: C_3  and  C_12
    7  A    between atoms: C_8  and  O_27
    8  A    between atoms: C_8  and  C_30
    9  A    between atoms: C_8  and  C_34
   10  A    between atoms: C_11  and  C_14
   11  A    between atoms: C_13  and  O_27
   12  A    between atoms: C_14  and  C_41
                            x       y       z     vdW  Elec       q    Type
                         _______ _______ _______ _____ _____    ______ ____

>  <TORSDO>
F 12

$$$$
