=
 OpenBabel11052414043D

 34 40  0  0  1  0  0  0  0  0999 V2000
  186.1460  178.1610  145.8640 C   0  0  0  0  0  0  0  0  0  0  0  0
  187.9690  177.3430  144.4510 C   0  0  0  0  0  0  0  0  0  0  0  0
  185.9470  178.3180  143.4490 C   0  0  0  0  0  0  0  0  0  0  0  0
  185.9420  179.0220  140.9790 C   0  0  1  0  0  3  0  0  0  0  0  0
  188.2110  177.3990  146.8660 C   0  0  0  0  0  3  0  0  0  0  0  0
  188.7270  177.1030  145.6000 C   0  0  0  0  0  3  0  0  0  0  0  0
  187.6810  177.7730  141.7950 C   0  0  0  0  0  0  0  0  0  0  0  0
  186.6850  177.9210  144.5780 C   0  0  0  0  0  0  0  0  0  0  0  0
  186.6130  178.4580  139.8030 N   0  0  0  0  0  2  0  0  0  0  0  0
  186.9180  177.9090  147.0000 C   0  0  0  0  0  3  0  0  0  0  0  0
  184.6250  178.7870  143.5760 C   0  0  0  0  0  0  0  0  0  0  0  0
  184.8530  178.6750  145.9980 C   0  0  0  0  0  3  0  0  0  0  0  0
  188.5670  176.6540  142.8860 S   0  0  0  0  0  0  0  0  0  0  0  0
  184.4480  178.7110  141.0070 C   0  0  0  0  0  2  0  0  0  0  0  0
  183.8280  179.2010  142.3360 C   0  0  1  0  0  3  0  0  0  0  0  0
  187.8520  177.8500  140.3180 C   0  0  1  0  0  3  0  0  0  0  0  0
  186.5700  178.3630  142.1320 C   0  0  0  0  0  0  0  0  0  0  0  0
  184.0950  178.9760  144.8630 C   0  0  0  0  0  3  0  0  0  0  0  0
  180.3110  178.5360  143.6460 C   0  0  0  0  0  0  0  0  0  0  0  0
  179.6930  178.0260  142.5000 C   0  0  0  0  0  3  0  0  0  0  0  0
  182.3890  178.7890  142.4080 C   0  0  0  0  0  0  0  0  0  0  0  0
  180.4220  177.8890  141.3100 C   0  0  0  0  0  3  0  0  0  0  0  0
  181.6570  178.9170  143.6030 C   0  0  0  0  0  3  0  0  0  0  0  0
  181.7680  178.2690  141.2630 C   0  0  0  0  0  3  0  0  0  0  0  0
  179.6040  178.6710  144.8010 F   0  0  0  0  0  0  0  0  0  0  0  0
  189.0380  178.7400  139.9750 C   0  0  0  0  0  2  0  0  0  0  0  0
  189.7990  178.1510  138.8820 N   0  0  0  0  0  2  0  0  0  0  0  0
  191.8050  177.3950  140.9480 C   0  0  0  0  0  1  0  0  0  0  0  0
  190.0530  176.7600  139.2360 C   0  0  2  0  0  3  0  0  0  0  0  0
  191.5030  176.5770  139.7070 C   0  0  1  0  0  3  0  0  0  0  0  0
  192.0830  176.3000  137.2260 C   0  0  0  0  0  2  0  0  0  0  0  0
  190.9780  175.2470  137.3670 C   0  0  0  0  0  2  0  0  0  0  0  0
  189.7300  175.8570  138.0290 C   0  0  0  0  0  2  0  0  0  0  0  0
  192.5070  176.8840  138.5910 C   0  0  0  0  0  2  0  0  0  0  0  0
  1 12  1  0  0  0  0
  1 10  2  0  0  0  0
  2  8  2  0  0  0  0
  2  6  1  0  0  0  0
  3 11  2  0  0  0  0
  3  8  1  0  0  0  0
  4 14  1  6  0  0  0
  4 17  1  0  0  0  0
  5 10  1  0  0  0  0
  6  5  2  0  0  0  0
  7 17  2  0  0  0  0
  7 13  1  0  0  0  0
  8  1  1  0  0  0  0
  9 16  1  0  0  0  0
  9  4  1  0  0  0  0
 11 18  1  0  0  0  0
 13  2  1  0  0  0  0
 14 15  1  0  0  0  0
 15 21  1  1  0  0  0
 15 11  1  0  0  0  0
 16 26  1  1  0  0  0
 16  7  1  0  0  0  0
 17  3  1  0  0  0  0
 18 12  2  0  0  0  0
 19 25  1  0  0  0  0
 20 19  2  0  0  0  0
 21 23  2  0  0  0  0
 22 20  1  0  0  0  0
 23 19  1  0  0  0  0
 24 22  2  0  0  0  0
 24 21  1  0  0  0  0
 27 26  1  0  0  0  0
 29 27  1  6  0  0  0
 29 30  1  0  0  0  0
 30 28  1  1  0  0  0
 31 32  1  0  0  0  0
 31 34  1  0  0  0  0
 32 33  1  0  0  0  0
 33 29  1  0  0  0  0
 34 30  1  0  0  0  0
M  END
>  <MODEL>
1

>  <REMARK>
 VINA RESULT:     -10.8      0.000      0.000
  Name = 
  4 active torsions:
  status: ('A' for Active; 'I' for Inactive)
    1  A    between atoms: N_3  and  C_13
    2  A    between atoms: N_3  and  C_17
    3  A    between atoms: C_12  and  C_28
    4  A    between atoms: C_17  and  C_29
                            x       y       z     vdW  Elec       q    Type
                         _______ _______ _______ _____ _____    ______ ____

>  <TORSDO>
F 4

$$$$
=
 OpenBabel11052414043D

 34 40  0  0  1  0  0  0  0  0999 V2000
  186.4220  178.0970  145.8950 C   0  0  0  0  0  0  0  0  0  0  0  0
  188.1480  177.2670  144.3720 C   0  0  0  0  0  0  0  0  0  0  0  0
  186.0930  178.2940  143.4970 C   0  0  0  0  0  0  0  0  0  0  0  0
  185.9640  179.0370  141.0420 C   0  0  1  0  0  3  0  0  0  0  0  0
  188.5240  177.2810  146.7710 C   0  0  0  0  0  3  0  0  0  0  0  0
  188.9630  176.9960  145.4740 C   0  0  0  0  0  3  0  0  0  0  0  0
  187.7220  177.7440  141.7420 C   0  0  0  0  0  0  0  0  0  0  0  0
  186.8840  177.8670  144.5780 C   0  0  0  0  0  0  0  0  0  0  0  0
  186.5590  178.4790  139.8230 N   0  0  0  0  0  2  0  0  0  0  0  0
  187.2500  177.8130  146.9830 C   0  0  0  0  0  3  0  0  0  0  0  0
  184.7880  178.7850  143.7040 C   0  0  0  0  0  0  0  0  0  0  0  0
  185.1480  178.6320  146.1090 C   0  0  0  0  0  3  0  0  0  0  0  0
  188.6460  176.5920  142.7660 S   0  0  0  0  0  0  0  0  0  0  0  0
  184.4690  178.7520  141.1480 C   0  0  0  0  0  2  0  0  0  0  0  0
  183.9330  179.2330  142.5160 C   0  0  1  0  0  3  0  0  0  0  0  0
  187.8130  177.8410  140.2600 C   0  0  1  0  0  3  0  0  0  0  0  0
  186.6420  178.3490  142.1480 C   0  0  0  0  0  0  0  0  0  0  0  0
  184.3340  178.9640  145.0220 C   0  0  0  0  0  3  0  0  0  0  0  0
  180.3950  178.0630  141.7100 C   0  0  0  0  0  0  0  0  0  0  0  0
  179.8040  178.1120  142.9770 C   0  0  0  0  0  3  0  0  0  0  0  0
  182.4920  178.8460  142.6620 C   0  0  0  0  0  0  0  0  0  0  0  0
  180.5520  178.5340  144.0850 C   0  0  0  0  0  3  0  0  0  0  0  0
  181.7360  178.4310  141.5500 C   0  0  0  0  0  3  0  0  0  0  0  0
  181.8930  178.9010  143.9290 C   0  0  0  0  0  3  0  0  0  0  0  0
  179.6710  177.6520  140.6340 F   0  0  0  0  0  0  0  0  0  0  0  0
  188.9950  178.7140  139.8640 C   0  0  0  0  0  2  0  0  0  0  0  0
  189.6790  178.1310  138.7180 N   0  0  0  0  0  2  0  0  0  0  0  0
  191.8670  177.3160  140.5650 C   0  0  0  0  0  1  0  0  0  0  0  0
  189.9360  176.7330  139.0370 C   0  0  2  0  0  3  0  0  0  0  0  0
  191.4220  176.5140  139.3580 C   0  0  1  0  0  3  0  0  0  0  0  0
  191.7400  176.2440  136.8290 C   0  0  0  0  0  2  0  0  0  0  0  0
  190.6320  175.2140  137.0760 C   0  0  0  0  0  2  0  0  0  0  0  0
  189.4720  175.8470  137.8650 C   0  0  0  0  0  2  0  0  0  0  0  0
  192.3140  176.8080  138.1470 C   0  0  0  0  0  2  0  0  0  0  0  0
  1 12  1  0  0  0  0
  1 10  2  0  0  0  0
  2  8  2  0  0  0  0
  2  6  1  0  0  0  0
  3 11  2  0  0  0  0
  3  8  1  0  0  0  0
  4 14  1  6  0  0  0
  4 17  1  0  0  0  0
  5 10  1  0  0  0  0
  6  5  2  0  0  0  0
  7 17  2  0  0  0  0
  7 13  1  0  0  0  0
  8  1  1  0  0  0  0
  9 16  1  0  0  0  0
  9  4  1  0  0  0  0
 11 18  1  0  0  0  0
 13  2  1  0  0  0  0
 14 15  1  0  0  0  0
 15 21  1  1  0  0  0
 15 11  1  0  0  0  0
 16 26  1  1  0  0  0
 16  7  1  0  0  0  0
 17  3  1  0  0  0  0
 18 12  2  0  0  0  0
 19 20  1  0  0  0  0
 20 22  2  0  0  0  0
 21 24  2  0  0  0  0
 23 19  2  0  0  0  0
 23 21  1  0  0  0  0
 24 22  1  0  0  0  0
 25 19  1  0  0  0  0
 27 26  1  0  0  0  0
 29 27  1  6  0  0  0
 29 30  1  0  0  0  0
 30 28  1  1  0  0  0
 31 32  1  0  0  0  0
 31 34  1  0  0  0  0
 32 33  1  0  0  0  0
 33 29  1  0  0  0  0
 34 30  1  0  0  0  0
M  END
>  <MODEL>
2

>  <REMARK>
 VINA RESULT:     -10.7      0.796      1.149
  Name = 
  4 active torsions:
  status: ('A' for Active; 'I' for Inactive)
    1  A    between atoms: N_3  and  C_13
    2  A    between atoms: N_3  and  C_17
    3  A    between atoms: C_12  and  C_28
    4  A    between atoms: C_17  and  C_29
                            x       y       z     vdW  Elec       q    Type
                         _______ _______ _______ _____ _____    ______ ____

>  <TORSDO>
F 4

$$$$
=
 OpenBabel11052414043D

 34 40  0  0  1  0  0  0  0  0999 V2000
  184.8320  178.5440  145.2960 C   0  0  0  0  0  0  0  0  0  0  0  0
  186.9540  177.7740  144.3490 C   0  0  0  0  0  0  0  0  0  0  0  0
  185.1070  178.4710  142.8840 C   0  0  0  0  0  0  0  0  0  0  0  0
  185.5430  178.9560  140.4000 C   0  0  1  0  0  3  0  0  0  0  0  0
  186.7060  178.0610  146.7480 C   0  0  0  0  0  3  0  0  0  0  0  0
  187.4830  177.7040  145.6410 C   0  0  0  0  0  3  0  0  0  0  0  0
  187.1700  177.9440  141.6570 C   0  0  0  0  0  0  0  0  0  0  0  0
  185.6320  178.2430  144.1680 C   0  0  0  0  0  0  0  0  0  0  0  0
  186.4730  178.3540  139.4390 N   0  0  0  0  0  2  0  0  0  0  0  0
  185.3790  178.4630  146.5780 C   0  0  0  0  0  3  0  0  0  0  0  0
  183.7560  178.8290  142.7070 C   0  0  0  0  0  0  0  0  0  0  0  0
  183.5050  178.9490  145.1270 C   0  0  0  0  0  3  0  0  0  0  0  0
  187.8990  177.0080  143.0070 S   0  0  0  0  0  0  0  0  0  0  0  0
  184.1000  178.5140  140.1730 C   0  0  0  0  0  2  0  0  0  0  0  0
  183.1940  179.0600  141.3020 C   0  0  1  0  0  3  0  0  0  0  0  0
  187.6250  177.9080  140.2410 C   0  0  1  0  0  3  0  0  0  0  0  0
  185.9740  178.4580  141.7130 C   0  0  0  0  0  0  0  0  0  0  0  0
  182.9680  179.0810  143.8430 C   0  0  0  0  0  3  0  0  0  0  0  0
  180.2650  176.7800  140.4350 C   0  0  0  0  0  0  0  0  0  0  0  0
  179.1860  177.5570  140.8690 C   0  0  0  0  0  3  0  0  0  0  0  0
  181.8030  178.5280  141.1390 C   0  0  0  0  0  0  0  0  0  0  0  0
  179.4120  178.8220  141.4310 C   0  0  0  0  0  3  0  0  0  0  0  0
  181.5720  177.2630  140.5680 C   0  0  0  0  0  3  0  0  0  0  0  0
  180.7170  179.3070  141.5660 C   0  0  0  0  0  3  0  0  0  0  0  0
  180.0470  175.5520  139.8910 F   0  0  0  0  0  0  0  0  0  0  0  0
  188.7900  178.8670  140.0400 C   0  0  0  0  0  2  0  0  0  0  0  0
  189.7220  178.3190  139.0670 N   0  0  0  0  0  2  0  0  0  0  0  0
  191.4590  177.3680  141.2890 C   0  0  0  0  0  1  0  0  0  0  0  0
  189.8760  176.9020  139.3710 C   0  0  2  0  0  3  0  0  0  0  0  0
  191.2580  176.6260  139.9820 C   0  0  1  0  0  3  0  0  0  0  0  0
  192.0890  176.4430  137.5640 C   0  0  0  0  0  2  0  0  0  0  0  0
  190.9320  175.4390  137.5310 C   0  0  0  0  0  2  0  0  0  0  0  0
  189.6470  176.0760  138.0900 C   0  0  0  0  0  2  0  0  0  0  0  0
  192.3890  176.9380  138.9960 C   0  0  0  0  0  2  0  0  0  0  0  0
  1 10  2  0  0  0  0
  2  6  1  0  0  0  0
  3  8  1  0  0  0  0
  4 14  1  6  0  0  0
  4 17  1  0  0  0  0
  6  5  2  0  0  0  0
  7 17  2  0  0  0  0
  7 13  1  0  0  0  0
  8  2  2  0  0  0  0
  8  1  1  0  0  0  0
  9 16  1  0  0  0  0
  9  4  1  0  0  0  0
 10  5  1  0  0  0  0
 11  3  2  0  0  0  0
 11 18  1  0  0  0  0
 12  1  1  0  0  0  0
 13  2  1  0  0  0  0
 14 15  1  0  0  0  0
 15 21  1  1  0  0  0
 15 11  1  0  0  0  0
 16 26  1  1  0  0  0
 16  7  1  0  0  0  0
 17  3  1  0  0  0  0
 18 12  2  0  0  0  0
 19 23  2  0  0  0  0
 19 20  1  0  0  0  0
 20 22  2  0  0  0  0
 21 24  2  0  0  0  0
 22 24  1  0  0  0  0
 23 21  1  0  0  0  0
 25 19  1  0  0  0  0
 27 26  1  0  0  0  0
 29 27  1  6  0  0  0
 29 30  1  0  0  0  0
 30 28  1  1  0  0  0
 31 34  1  0  0  0  0
 32 31  1  0  0  0  0
 32 33  1  0  0  0  0
 33 29  1  0  0  0  0
 34 30  1  0  0  0  0
M  END
>  <MODEL>
3

>  <REMARK>
 VINA RESULT:     -10.1      1.328      1.663
  Name = 
  4 active torsions:
  status: ('A' for Active; 'I' for Inactive)
    1  A    between atoms: N_3  and  C_13
    2  A    between atoms: N_3  and  C_17
    3  A    between atoms: C_12  and  C_28
    4  A    between atoms: C_17  and  C_29
                            x       y       z     vdW  Elec       q    Type
                         _______ _______ _______ _____ _____    ______ ____

>  <TORSDO>
F 4

$$$$
=
 OpenBabel11052414043D

 34 40  0  0  1  0  0  0  0  0999 V2000
  185.1570  178.8760  141.8540 C   0  0  0  0  0  0  0  0  0  0  0  0
  186.5420  177.6330  143.4430 C   0  0  0  0  0  0  0  0  0  0  0  0
  187.2500  177.9000  141.1040 C   0  0  0  0  0  0  0  0  0  0  0  0
  189.6750  177.3990  140.4240 C   0  0  1  0  0  3  0  0  0  0  0  0
  184.5490  178.8000  144.1940 C   0  0  0  0  0  3  0  0  0  0  0  0
  185.6620  177.9960  144.4650 C   0  0  0  0  0  3  0  0  0  0  0  0
  188.9330  176.7830  142.5030 C   0  0  0  0  0  0  0  0  0  0  0  0
  186.3160  178.1140  142.1320 C   0  0  0  0  0  0  0  0  0  0  0  0
  190.6400  176.4100  140.9150 N   0  0  0  0  0  2  0  0  0  0  0  0
  184.2870  179.2240  142.8890 C   0  0  0  0  0  3  0  0  0  0  0  0
  186.9680  178.2830  139.7780 C   0  0  0  0  0  0  0  0  0  0  0  0
  184.8950  179.3040  140.5490 C   0  0  0  0  0  3  0  0  0  0  0  0
  187.7690  176.3490  143.8010 S   0  0  0  0  0  0  0  0  0  0  0  0
  189.1020  177.0320  139.0590 C   0  0  0  0  0  2  0  0  0  0  0  0
  187.9880  178.0300  138.6650 C   0  0  1  0  0  3  0  0  0  0  0  0
  190.2870  176.1910  142.3280 C   0  0  1  0  0  3  0  0  0  0  0  0
  188.5800  177.3830  141.4020 C   0  0  0  0  0  0  0  0  0  0  0  0
  185.7880  179.0010  139.5170 C   0  0  0  0  0  3  0  0  0  0  0  0
  186.1630  175.9430  136.0480 C   0  0  0  0  0  0  0  0  0  0  0  0
  186.1450  176.8300  134.9670 C   0  0  0  0  0  3  0  0  0  0  0  0
  187.3490  177.5970  137.3800 C   0  0  0  0  0  0  0  0  0  0  0  0
  186.7350  178.0960  135.0870 C   0  0  0  0  0  3  0  0  0  0  0  0
  186.7640  176.3230  137.2530 C   0  0  0  0  0  3  0  0  0  0  0  0
  187.3360  178.4800  136.2900 C   0  0  0  0  0  3  0  0  0  0  0  0
  185.5900  174.7140  135.9330 F   0  0  0  0  0  0  0  0  0  0  0  0
  191.2910  176.9060  143.2220 C   0  0  0  0  0  2  0  0  0  0  0  0
  191.3440  176.2580  144.5240 N   0  0  0  0  0  2  0  0  0  0  0  0
  192.4720  175.7140  147.2240 C   0  0  0  0  0  1  0  0  0  0  0  0
  191.4980  177.3100  145.5210 C   0  0  2  0  0  3  0  0  0  0  0  0
  191.3870  176.7340  146.9390 C   0  0  1  0  0  3  0  0  0  0  0  0
  188.8560  177.0330  146.6670 C   0  0  0  0  0  2  0  0  0  0  0  0
  189.3360  178.4500  146.3350 C   0  0  0  0  0  2  0  0  0  0  0  0
  190.4470  178.4100  145.2710 C   0  0  0  0  0  2  0  0  0  0  0  0
  189.9980  176.1440  147.2070 C   0  0  0  0  0  2  0  0  0  0  0  0
  1  8  1  0  0  0  0
  1 10  2  0  0  0  0
  2 13  1  0  0  0  0
  2  6  1  0  0  0  0
  3 17  1  0  0  0  0
  3  8  1  0  0  0  0
  4 14  1  6  0  0  0
  4  9  1  0  0  0  0
  4 17  1  0  0  0  0
  5  6  2  0  0  0  0
  7 13  1  0  0  0  0
  8  2  2  0  0  0  0
  9 16  1  0  0  0  0
 10  5  1  0  0  0  0
 11  3  2  0  0  0  0
 12  1  1  0  0  0  0
 15 21  1  6  0  0  0
 15 14  1  0  0  0  0
 15 11  1  0  0  0  0
 16  7  1  0  0  0  0
 16 26  1  1  0  0  0
 17  7  2  0  0  0  0
 18 11  1  0  0  0  0
 18 12  2  0  0  0  0
 19 23  1  0  0  0  0
 20 22  1  0  0  0  0
 20 19  2  0  0  0  0
 22 24  2  0  0  0  0
 23 21  2  0  0  0  0
 24 21  1  0  0  0  0
 25 19  1  0  0  0  0
 26 27  1  0  0  0  0
 29 27  1  6  0  0  0
 29 30  1  0  0  0  0
 30 34  1  0  0  0  0
 30 28  1  6  0  0  0
 31 34  1  0  0  0  0
 32 31  1  0  0  0  0
 33 29  1  0  0  0  0
 33 32  1  0  0  0  0
M  END
>  <MODEL>
4

>  <REMARK>
 VINA RESULT:      -9.7      3.220      6.445
  Name = 
  4 active torsions:
  status: ('A' for Active; 'I' for Inactive)
    1  A    between atoms: N_3  and  C_13
    2  A    between atoms: N_3  and  C_17
    3  A    between atoms: C_12  and  C_28
    4  A    between atoms: C_17  and  C_29
                            x       y       z     vdW  Elec       q    Type
                         _______ _______ _______ _____ _____    ______ ____

>  <TORSDO>
F 4

$$$$
=
 OpenBabel11052414043D

 34 40  0  0  1  0  0  0  0  0999 V2000
  185.2650  178.2440  142.8200 C   0  0  0  0  0  0  0  0  0  0  0  0
  186.5250  178.6010  140.7520 C   0  0  0  0  0  0  0  0  0  0  0  0
  187.6070  177.6130  142.7260 C   0  0  0  0  0  0  0  0  0  0  0  0
  189.8700  176.4200  142.4950 C   0  0  1  0  0  3  0  0  0  0  0  0
  184.1340  179.0220  140.8280 C   0  0  0  0  0  3  0  0  0  0  0  0
  185.3440  179.0070  140.1250 C   0  0  0  0  0  3  0  0  0  0  0  0
  189.0620  177.6610  140.7460 C   0  0  0  0  0  0  0  0  0  0  0  0
  186.4800  178.1700  142.0980 C   0  0  0  0  0  0  0  0  0  0  0  0
  191.0200  176.6730  141.6210 N   0  0  0  0  0  2  0  0  0  0  0  0
  184.0970  178.6580  142.1760 C   0  0  0  0  0  3  0  0  0  0  0  0
  187.5890  177.2910  144.0970 C   0  0  0  0  0  0  0  0  0  0  0  0
  185.2260  177.8780  144.1680 C   0  0  0  0  0  3  0  0  0  0  0  0
  188.0870  178.9020  139.8870 S   0  0  0  0  0  0  0  0  0  0  0  0
  190.1220  176.8530  143.9350 C   0  0  0  0  0  2  0  0  0  0  0  0
  188.8300  176.6990  144.7700 C   0  0  1  0  0  3  0  0  0  0  0  0
  190.4550  177.2680  140.3970 C   0  0  1  0  0  3  0  0  0  0  0  0
  188.7860  177.2470  141.9490 C   0  0  0  0  0  0  0  0  0  0  0  0
  186.3810  177.4140  144.8050 C   0  0  0  0  0  3  0  0  0  0  0  0
  190.4920  177.6450  148.0680 C   0  0  0  0  0  0  0  0  0  0  0  0
  189.4300  178.2670  148.7320 C   0  0  0  0  0  3  0  0  0  0  0  0
  189.0500  177.2350  146.1520 C   0  0  0  0  0  0  0  0  0  0  0  0
  188.1760  178.3680  148.1120 C   0  0  0  0  0  3  0  0  0  0  0  0
  190.3050  177.1280  146.7810 C   0  0  0  0  0  3  0  0  0  0  0  0
  187.9850  177.8520  146.8250 C   0  0  0  0  0  3  0  0  0  0  0  0
  191.7090  177.5480  148.6680 F   0  0  0  0  0  0  0  0  0  0  0  0
  190.4440  176.2320  139.2830 C   0  0  0  0  0  2  0  0  0  0  0  0
  190.1460  176.8750  138.0120 N   0  0  0  0  0  2  0  0  0  0  0  0
  191.0590  176.0030  135.3150 C   0  0  0  0  0  1  0  0  0  0  0  0
  189.3890  175.9190  137.2140 C   0  0  2  0  0  3  0  0  0  0  0  0
  189.6060  176.1700  135.7150 C   0  0  1  0  0  3  0  0  0  0  0  0
  187.7030  177.8770  135.9120 C   0  0  0  0  0  2  0  0  0  0  0  0
  187.0200  176.6370  136.4990 C   0  0  0  0  0  2  0  0  0  0  0  0
  187.8970  176.0040  137.5940 C   0  0  0  0  0  2  0  0  0  0  0  0
  189.0750  177.5430  135.2860 C   0  0  0  0  0  2  0  0  0  0  0  0
  1 12  1  0  0  0  0
  2  8  1  0  0  0  0
  3 11  2  0  0  0  0
  4 14  1  1  0  0  0
  5 10  2  0  0  0  0
  6  2  2  0  0  0  0
  6  5  1  0  0  0  0
  7 17  2  0  0  0  0
  8  3  1  0  0  0  0
  8  1  2  0  0  0  0
  9  4  1  0  0  0  0
 10  1  1  0  0  0  0
 11 15  1  0  0  0  0
 11 18  1  0  0  0  0
 12 18  2  0  0  0  0
 13  7  1  0  0  0  0
 13  2  1  0  0  0  0
 14 15  1  0  0  0  0
 15 21  1  1  0  0  0
 16 26  1  6  0  0  0
 16  7  1  0  0  0  0
 16  9  1  0  0  0  0
 17  4  1  0  0  0  0
 17  3  1  0  0  0  0
 19 25  1  0  0  0  0
 19 20  1  0  0  0  0
 21 23  1  0  0  0  0
 21 24  2  0  0  0  0
 22 20  2  0  0  0  0
 23 19  2  0  0  0  0
 24 22  1  0  0  0  0
 27 26  1  0  0  0  0
 29 33  1  0  0  0  0
 29 27  1  1  0  0  0
 30 28  1  1  0  0  0
 30 29  1  0  0  0  0
 31 32  1  0  0  0  0
 32 33  1  0  0  0  0
 34 30  1  0  0  0  0
 34 31  1  0  0  0  0
M  END
>  <MODEL>
5

>  <REMARK>
 VINA RESULT:      -9.6      2.986      6.039
  Name = 
  4 active torsions:
  status: ('A' for Active; 'I' for Inactive)
    1  A    between atoms: N_3  and  C_13
    2  A    between atoms: N_3  and  C_17
    3  A    between atoms: C_12  and  C_28
    4  A    between atoms: C_17  and  C_29
                            x       y       z     vdW  Elec       q    Type
                         _______ _______ _______ _____ _____    ______ ____

>  <TORSDO>
F 4

$$$$
=
 OpenBabel11052414043D

 34 40  0  0  1  0  0  0  0  0999 V2000
  185.3280  178.2420  142.9120 C   0  0  0  0  0  0  0  0  0  0  0  0
  186.5090  178.5970  140.7980 C   0  0  0  0  0  0  0  0  0  0  0  0
  187.6650  177.6110  142.7300 C   0  0  0  0  0  0  0  0  0  0  0  0
  189.9180  176.4170  142.4150 C   0  0  1  0  0  3  0  0  0  0  0  0
  184.1230  179.0180  140.9640 C   0  0  0  0  0  3  0  0  0  0  0  0
  185.3050  179.0030  140.2160 C   0  0  0  0  0  3  0  0  0  0  0  0
  189.0440  177.6570  140.6970 C   0  0  0  0  0  0  0  0  0  0  0  0
  186.5150  178.1670  142.1460 C   0  0  0  0  0  0  0  0  0  0  0  0
  191.0340  176.6690  141.4980 N   0  0  0  0  0  2  0  0  0  0  0  0
  184.1370  178.6560  142.3130 C   0  0  0  0  0  3  0  0  0  0  0  0
  187.6990  177.2900  144.1020 C   0  0  0  0  0  0  0  0  0  0  0  0
  185.3400  177.8780  144.2620 C   0  0  0  0  0  3  0  0  0  0  0  0
  188.0380  178.8970  139.8750 S   0  0  0  0  0  0  0  0  0  0  0  0
  190.2240  176.8520  143.8450 C   0  0  0  0  0  2  0  0  0  0  0  0
  188.9640  176.6990  144.7280 C   0  0  1  0  0  3  0  0  0  0  0  0
  190.4230  177.2640  140.2970 C   0  0  1  0  0  3  0  0  0  0  0  0
  188.8140  177.2440  141.9110 C   0  0  0  0  0  0  0  0  0  0  0  0
  186.5180  177.4150  144.8550 C   0  0  0  0  0  3  0  0  0  0  0  0
  188.5000  178.3640  148.1260 C   0  0  0  0  0  0  0  0  0  0  0  0
  189.7790  178.2130  148.6730 C   0  0  0  0  0  3  0  0  0  0  0  0
  189.2370  177.2370  146.1010 C   0  0  0  0  0  0  0  0  0  0  0  0
  190.7890  177.5820  147.9330 C   0  0  0  0  0  3  0  0  0  0  0  0
  188.2270  177.8790  146.8420 C   0  0  0  0  0  3  0  0  0  0  0  0
  190.5200  177.0950  146.6490 C   0  0  0  0  0  3  0  0  0  0  0  0
  187.5180  178.9750  148.8440 F   0  0  0  0  0  0  0  0  0  0  0  0
  190.3700  176.2260  139.1850 C   0  0  0  0  0  2  0  0  0  0  0  0
  190.2040  176.8870  137.8980 N   0  0  0  0  0  2  0  0  0  0  0  0
  190.8660  176.3590  135.0440 C   0  0  0  0  0  1  0  0  0  0  0  0
  189.3880  176.0100  137.0680 C   0  0  2  0  0  3  0  0  0  0  0  0
  189.4560  176.4400  135.5950 C   0  0  1  0  0  3  0  0  0  0  0  0
  187.5550  178.0610  136.1700 C   0  0  0  0  0  2  0  0  0  0  0  0
  186.9510  176.7440  136.6680 C   0  0  0  0  0  2  0  0  0  0  0  0
  187.9390  176.0110  137.5920 C   0  0  0  0  0  2  0  0  0  0  0  0
  188.8650  177.8390  135.3830 C   0  0  0  0  0  2  0  0  0  0  0  0
  1 12  1  0  0  0  0
  2  8  1  0  0  0  0
  3 11  2  0  0  0  0
  4 14  1  1  0  0  0
  5 10  2  0  0  0  0
  6  2  2  0  0  0  0
  6  5  1  0  0  0  0
  7 17  2  0  0  0  0
  8  3  1  0  0  0  0
  8  1  2  0  0  0  0
  9  4  1  0  0  0  0
 10  1  1  0  0  0  0
 11 15  1  0  0  0  0
 11 18  1  0  0  0  0
 12 18  2  0  0  0  0
 13  7  1  0  0  0  0
 13  2  1  0  0  0  0
 14 15  1  0  0  0  0
 15 21  1  1  0  0  0
 16 26  1  6  0  0  0
 16  7  1  0  0  0  0
 16  9  1  0  0  0  0
 17  4  1  0  0  0  0
 17  3  1  0  0  0  0
 19 20  1  0  0  0  0
 19 25  1  0  0  0  0
 21 24  2  0  0  0  0
 21 23  1  0  0  0  0
 22 20  2  0  0  0  0
 23 19  2  0  0  0  0
 24 22  1  0  0  0  0
 27 26  1  0  0  0  0
 29 33  1  0  0  0  0
 29 27  1  1  0  0  0
 30 28  1  1  0  0  0
 30 29  1  0  0  0  0
 31 32  1  0  0  0  0
 32 33  1  0  0  0  0
 34 30  1  0  0  0  0
 34 31  1  0  0  0  0
M  END
>  <MODEL>
6

>  <REMARK>
 VINA RESULT:      -9.6      2.563      5.897
  Name = 
  4 active torsions:
  status: ('A' for Active; 'I' for Inactive)
    1  A    between atoms: N_3  and  C_13
    2  A    between atoms: N_3  and  C_17
    3  A    between atoms: C_12  and  C_28
    4  A    between atoms: C_17  and  C_29
                            x       y       z     vdW  Elec       q    Type
                         _______ _______ _______ _____ _____    ______ ____

>  <TORSDO>
F 4

$$$$
=
 OpenBabel11052414043D

 34 40  0  0  1  0  0  0  0  0999 V2000
  185.5090  178.2000  139.3520 C   0  0  0  0  0  0  0  0  0  0  0  0
  183.2710  177.4340  138.7250 C   0  0  0  0  0  0  0  0  0  0  0  0
  183.7070  178.3270  140.9730 C   0  0  0  0  0  0  0  0  0  0  0  0
  181.7510  179.0100  142.4930 C   0  0  1  0  0  3  0  0  0  0  0  0
  185.0510  177.5190  137.0760 C   0  0  0  0  0  3  0  0  0  0  0  0
  183.7260  177.2310  137.4200 C   0  0  0  0  0  3  0  0  0  0  0  0
  181.3340  177.8300  140.5730 C   0  0  0  0  0  0  0  0  0  0  0  0
  184.1550  177.9670  139.6910 C   0  0  0  0  0  0  0  0  0  0  0  0
  180.4010  178.4600  142.6490 N   0  0  0  0  0  2  0  0  0  0  0  0
  185.9460  177.9850  138.0430 C   0  0  0  0  0  3  0  0  0  0  0  0
  184.6130  178.7510  141.9660 C   0  0  0  0  0  0  0  0  0  0  0  0
  186.4050  178.6690  140.3180 C   0  0  0  0  0  3  0  0  0  0  0  0
  181.6530  176.7530  139.1710 S   0  0  0  0  0  0  0  0  0  0  0  0
  182.6700  178.6460  143.6550 C   0  0  0  0  0  2  0  0  0  0  0  0
  184.1110  179.1260  143.3630 C   0  0  1  0  0  3  0  0  0  0  0  0
  180.0540  177.9000  141.3300 C   0  0  1  0  0  3  0  0  0  0  0  0
  182.2810  178.3830  141.2750 C   0  0  0  0  0  0  0  0  0  0  0  0
  185.9620  178.9330  141.6170 C   0  0  0  0  0  3  0  0  0  0  0  0
  187.0270  177.4850  145.1900 C   0  0  0  0  0  0  0  0  0  0  0  0
  186.7400  177.8330  146.5140 C   0  0  0  0  0  3  0  0  0  0  0  0
  185.0310  178.6640  144.4520 C   0  0  0  0  0  0  0  0  0  0  0  0
  185.5970  178.5890  146.8100 C   0  0  0  0  0  3  0  0  0  0  0  0
  186.1750  177.8970  144.1590 C   0  0  0  0  0  3  0  0  0  0  0  0
  184.7430  179.0030  145.7820 C   0  0  0  0  0  3  0  0  0  0  0  0
  188.1370  176.7540  144.9010 F   0  0  0  0  0  0  0  0  0  0  0  0
  179.0770  178.8280  140.6230 C   0  0  0  0  0  2  0  0  0  0  0  0
  179.2070  178.6780  139.1810 N   0  0  0  0  0  2  0  0  0  0  0  0
  178.9310  179.0520  136.2410 C   0  0  0  0  0  1  0  0  0  0  0  0
  178.9730  179.9890  138.5900 C   0  0  2  0  0  3  0  0  0  0  0  0
  179.5670  180.0610  137.1760 C   0  0  1  0  0  3  0  0  0  0  0  0
  181.7630  180.7090  138.3280 C   0  0  0  0  0  2  0  0  0  0  0  0
  180.8190  181.7540  138.9330 C   0  0  0  0  0  2  0  0  0  0  0  0
  179.5620  181.0780  139.5090 C   0  0  0  0  0  2  0  0  0  0  0  0
  181.0920  179.9080  137.1910 C   0  0  0  0  0  2  0  0  0  0  0  0
  1  8  2  0  0  0  0
  1 12  1  0  0  0  0
  2 13  1  0  0  0  0
  2  8  1  0  0  0  0
  3 17  1  0  0  0  0
  3 11  2  0  0  0  0
  4  9  1  0  0  0  0
  4 14  1  1  0  0  0
  5  6  1  0  0  0  0
  5 10  2  0  0  0  0
  6  2  2  0  0  0  0
  7 17  2  0  0  0  0
  7 16  1  0  0  0  0
  8  3  1  0  0  0  0
 10  1  1  0  0  0  0
 11 15  1  0  0  0  0
 12 18  2  0  0  0  0
 13  7  1  0  0  0  0
 15 14  1  0  0  0  0
 15 21  1  1  0  0  0
 16 26  1  6  0  0  0
 16  9  1  0  0  0  0
 17  4  1  0  0  0  0
 18 11  1  0  0  0  0
 19 20  1  0  0  0  0
 20 22  2  0  0  0  0
 21 24  2  0  0  0  0
 23 21  1  0  0  0  0
 23 19  2  0  0  0  0
 24 22  1  0  0  0  0
 25 19  1  0  0  0  0
 27 26  1  0  0  0  0
 29 27  1  1  0  0  0
 29 33  1  0  0  0  0
 30 28  1  6  0  0  0
 30 34  1  0  0  0  0
 30 29  1  0  0  0  0
 31 32  1  0  0  0  0
 32 33  1  0  0  0  0
 34 31  1  0  0  0  0
M  END
>  <MODEL>
7

>  <REMARK>
 VINA RESULT:      -9.5      3.984      8.206
  Name = 
  4 active torsions:
  status: ('A' for Active; 'I' for Inactive)
    1  A    between atoms: N_3  and  C_13
    2  A    between atoms: N_3  and  C_17
    3  A    between atoms: C_12  and  C_28
    4  A    between atoms: C_17  and  C_29
                            x       y       z     vdW  Elec       q    Type
                         _______ _______ _______ _____ _____    ______ ____

>  <TORSDO>
F 4

$$$$
=
 OpenBabel11052414043D

 34 40  0  0  1  0  0  0  0  0999 V2000
  185.2130  178.2430  142.8660 C   0  0  0  0  0  0  0  0  0  0  0  0
  186.5130  178.6160  140.8260 C   0  0  0  0  0  0  0  0  0  0  0  0
  187.5670  177.6460  142.8240 C   0  0  0  0  0  0  0  0  0  0  0  0
  189.8510  176.4860  142.6440 C   0  0  1  0  0  3  0  0  0  0  0  0
  184.1150  179.0020  140.8490 C   0  0  0  0  0  3  0  0  0  0  0  0
  185.3400  179.0040  140.1730 C   0  0  0  0  0  3  0  0  0  0  0  0
  189.0630  177.7130  140.8760 C   0  0  0  0  0  0  0  0  0  0  0  0
  186.4450  178.1860  142.1710 C   0  0  0  0  0  0  0  0  0  0  0  0
  191.0160  176.7550  141.7950 N   0  0  0  0  0  2  0  0  0  0  0  0
  184.0540  178.6400  142.1960 C   0  0  0  0  0  3  0  0  0  0  0  0
  187.5230  177.3260  144.1950 C   0  0  0  0  0  0  0  0  0  0  0  0
  185.1500  177.8780  144.2140 C   0  0  0  0  0  3  0  0  0  0  0  0
  188.0890  178.9390  139.9950 S   0  0  0  0  0  0  0  0  0  0  0  0
  190.0660  176.9250  144.0890 C   0  0  0  0  0  2  0  0  0  0  0  0
  188.7570  176.7530  144.8960 C   0  0  1  0  0  3  0  0  0  0  0  0
  190.4690  177.3410  140.5580 C   0  0  1  0  0  3  0  0  0  0  0  0
  188.7670  177.2970  142.0740 C   0  0  0  0  0  0  0  0  0  0  0  0
  186.2980  177.4320  144.8760 C   0  0  0  0  0  3  0  0  0  0  0  0
  190.3570  177.8300  148.1840 C   0  0  0  0  0  0  0  0  0  0  0  0
  189.2450  178.3310  148.8680 C   0  0  0  0  0  3  0  0  0  0  0  0
  188.9400  177.2940  146.2820 C   0  0  0  0  0  0  0  0  0  0  0  0
  187.9800  178.3080  148.2660 C   0  0  0  0  0  3  0  0  0  0  0  0
  190.2070  177.3100  146.8930 C   0  0  0  0  0  3  0  0  0  0  0  0
  187.8260  177.7900  146.9750 C   0  0  0  0  0  3  0  0  0  0  0  0
  191.5860  177.8530  148.7680 F   0  0  0  0  0  0  0  0  0  0  0  0
  190.4970  176.3030  139.4450 C   0  0  0  0  0  2  0  0  0  0  0  0
  190.0140  176.8930  138.2060 N   0  0  0  0  0  2  0  0  0  0  0  0
  189.4300  177.4700  135.3440 C   0  0  0  0  0  1  0  0  0  0  0  0
  190.8510  176.3780  137.1300 C   0  0  2  0  0  3  0  0  0  0  0  0
  190.0260  176.1720  135.8520 C   0  0  1  0  0  3  0  0  0  0  0  0
  189.4400  173.8720  136.8190 C   0  0  0  0  0  2  0  0  0  0  0  0
  190.9700  173.8160  136.8900 C   0  0  0  0  0  2  0  0  0  0  0  0
  191.5260  175.0700  137.5880 C   0  0  0  0  0  2  0  0  0  0  0  0
  188.9390  175.1080  136.0420 C   0  0  0  0  0  2  0  0  0  0  0  0
  1 12  1  0  0  0  0
  2  8  1  0  0  0  0
  3 11  2  0  0  0  0
  4 14  1  1  0  0  0
  5 10  2  0  0  0  0
  6  2  2  0  0  0  0
  6  5  1  0  0  0  0
  7 17  2  0  0  0  0
  8  3  1  0  0  0  0
  8  1  2  0  0  0  0
  9  4  1  0  0  0  0
 10  1  1  0  0  0  0
 11 18  1  0  0  0  0
 11 15  1  0  0  0  0
 12 18  2  0  0  0  0
 13  2  1  0  0  0  0
 13  7  1  0  0  0  0
 14 15  1  0  0  0  0
 15 21  1  1  0  0  0
 16 26  1  6  0  0  0
 16  7  1  0  0  0  0
 16  9  1  0  0  0  0
 17  4  1  0  0  0  0
 17  3  1  0  0  0  0
 19 25  1  0  0  0  0
 19 20  1  0  0  0  0
 21 23  1  0  0  0  0
 21 24  2  0  0  0  0
 22 20  2  0  0  0  0
 23 19  2  0  0  0  0
 24 22  1  0  0  0  0
 27 26  1  0  0  0  0
 29 33  1  0  0  0  0
 29 27  1  1  0  0  0
 30 28  1  1  0  0  0
 30 34  1  0  0  0  0
 30 29  1  0  0  0  0
 31 32  1  0  0  0  0
 32 33  1  0  0  0  0
 34 31  1  0  0  0  0
M  END
>  <MODEL>
8

>  <REMARK>
 VINA RESULT:      -9.4      2.925      5.939
  Name = 
  4 active torsions:
  status: ('A' for Active; 'I' for Inactive)
    1  A    between atoms: N_3  and  C_13
    2  A    between atoms: N_3  and  C_17
    3  A    between atoms: C_12  and  C_28
    4  A    between atoms: C_17  and  C_29
                            x       y       z     vdW  Elec       q    Type
                         _______ _______ _______ _____ _____    ______ ____

>  <TORSDO>
F 4

$$$$
=
 OpenBabel11052414043D

 34 40  0  0  1  0  0  0  0  0999 V2000
  184.3660  178.7560  141.5220 C   0  0  0  0  0  0  0  0  0  0  0  0
  185.7590  178.1420  143.4380 C   0  0  0  0  0  0  0  0  0  0  0  0
  186.7210  178.2710  141.1800 C   0  0  0  0  0  0  0  0  0  0  0  0
  189.2690  178.3370  140.8630 C   0  0  1  0  0  3  0  0  0  0  0  0
  183.4550  178.8370  143.7610 C   0  0  0  0  0  3  0  0  0  0  0  0
  184.6760  178.3970  144.2830 C   0  0  0  0  0  3  0  0  0  0  0  0
  188.3970  177.8310  142.9220 C   0  0  0  0  0  0  0  0  0  0  0  0
  185.6210  178.3690  142.0490 C   0  0  0  0  0  0  0  0  0  0  0  0
  190.3600  177.7090  141.6150 N   0  0  0  0  0  2  0  0  0  0  0  0
  183.2940  178.9990  142.3830 C   0  0  0  0  0  3  0  0  0  0  0  0
  186.5540  178.3860  139.7850 C   0  0  0  0  0  0  0  0  0  0  0  0
  184.2050  178.9220  140.1430 C   0  0  0  0  0  3  0  0  0  0  0  0
  187.1930  177.2850  144.1380 S   0  0  0  0  0  0  0  0  0  0  0  0
  189.0100  177.6530  139.5240 C   0  0  0  0  0  2  0  0  0  0  0  0
  187.7590  178.2630  138.8490 C   0  0  1  0  0  3  0  0  0  0  0  0
  189.8650  177.5960  142.9980 C   0  0  1  0  0  3  0  0  0  0  0  0
  188.0770  178.1650  141.7040 C   0  0  0  0  0  0  0  0  0  0  0  0
  185.2880  178.7280  139.2810 C   0  0  0  0  0  3  0  0  0  0  0  0
  187.1120  175.4200  136.3940 C   0  0  0  0  0  0  0  0  0  0  0  0
  186.8250  176.1360  135.2270 C   0  0  0  0  0  3  0  0  0  0  0  0
  187.4420  177.5100  137.5930 C   0  0  0  0  0  0  0  0  0  0  0  0
  186.8530  177.5380  135.2390 C   0  0  0  0  0  3  0  0  0  0  0  0
  187.4220  176.1030  137.5750 C   0  0  0  0  0  3  0  0  0  0  0  0
  187.1610  178.2250  136.4190 C   0  0  0  0  0  3  0  0  0  0  0  0
  187.0840  174.0590  136.3830 F   0  0  0  0  0  0  0  0  0  0  0  0
  190.5220  178.6620  143.8640 C   0  0  0  0  0  2  0  0  0  0  0  0
  191.3100  178.0310  144.9120 N   0  0  0  0  0  2  0  0  0  0  0  0
  189.0890  177.7660  146.8760 C   0  0  0  0  0  1  0  0  0  0  0  0
  190.6890  176.7460  145.2030 C   0  0  2  0  0  3  0  0  0  0  0  0
  190.1550  176.7140  146.6420 C   0  0  1  0  0  3  0  0  0  0  0  0
  192.5220  175.9910  147.3100 C   0  0  0  0  0  2  0  0  0  0  0  0
  192.2080  174.9410  146.2390 C   0  0  0  0  0  2  0  0  0  0  0  0
  191.7070  175.6160  144.9500 C   0  0  0  0  0  2  0  0  0  0  0  0
  191.2850  176.8420  147.6700 C   0  0  0  0  0  2  0  0  0  0  0  0
  1  8  1  0  0  0  0
  1 10  2  0  0  0  0
  2 13  1  0  0  0  0
  2  6  1  0  0  0  0
  3 17  1  0  0  0  0
  3  8  1  0  0  0  0
  4 14  1  6  0  0  0
  4  9  1  0  0  0  0
  4 17  1  0  0  0  0
  5  6  2  0  0  0  0
  7 16  1  0  0  0  0
  7 13  1  0  0  0  0
  8  2  2  0  0  0  0
  9 16  1  0  0  0  0
 10  5  1  0  0  0  0
 11  3  2  0  0  0  0
 12  1  1  0  0  0  0
 15 21  1  6  0  0  0
 15 14  1  0  0  0  0
 15 11  1  0  0  0  0
 16 26  1  1  0  0  0
 17  7  2  0  0  0  0
 18 11  1  0  0  0  0
 18 12  2  0  0  0  0
 19 23  1  0  0  0  0
 20 22  1  0  0  0  0
 20 19  2  0  0  0  0
 22 24  2  0  0  0  0
 23 21  2  0  0  0  0
 24 21  1  0  0  0  0
 25 19  1  0  0  0  0
 26 27  1  0  0  0  0
 29 27  1  1  0  0  0
 29 30  1  0  0  0  0
 30 28  1  6  0  0  0
 30 34  1  0  0  0  0
 31 34  1  0  0  0  0
 32 31  1  0  0  0  0
 33 29  1  0  0  0  0
 33 32  1  0  0  0  0
M  END
>  <MODEL>
9

>  <REMARK>
 VINA RESULT:      -9.4      3.298      6.518
  Name = 
  4 active torsions:
  status: ('A' for Active; 'I' for Inactive)
    1  A    between atoms: N_3  and  C_13
    2  A    between atoms: N_3  and  C_17
    3  A    between atoms: C_12  and  C_28
    4  A    between atoms: C_17  and  C_29
                            x       y       z     vdW  Elec       q    Type
                         _______ _______ _______ _____ _____    ______ ____

>  <TORSDO>
F 4

$$$$
