=
 OpenBabel11052412563D

 31 35  0  0  0  0  0  0  0  0999 V2000
  184.9130  178.5180  143.6500 C   0  0  0  0  0  0  0  0  0  0  0  0
  188.6030  177.7800  143.4190 C   0  0  0  0  0  0  0  0  0  0  0  0
  189.0460  177.5290  144.7610 C   0  0  0  0  0  0  0  0  0  0  0  0
  188.5980  177.1070  147.2380 C   0  0  0  0  0  3  0  0  0  0  0  0
  187.2550  178.1140  143.0690 C   0  0  0  0  0  0  0  0  0  0  0  0
  184.6080  178.7700  142.3140 C   0  0  0  0  0  3  0  0  0  0  0  0
  188.1520  177.7700  145.9640 C   0  0  0  0  0  2  0  0  0  0  0  0
  189.1950  177.9450  141.0260 C   0  0  0  0  0  0  0  0  0  0  0  0
  183.6590  178.6090  144.8670 Cl  0  0  0  0  0  0  0  0  0  0  0  0
  191.2980  177.0830  143.9440 C   0  0  0  0  0  3  0  0  0  0  0  0
  189.8550  176.7210  147.4360 C   0  0  0  0  0  3  0  0  0  0  0  0
  187.8840  178.2830  140.7200 C   0  0  0  0  0  3  0  0  0  0  0  0
  189.5640  177.6880  142.3630 C   0  0  0  0  0  0  0  0  0  0  0  0
  186.2190  178.1920  144.0190 C   0  0  0  0  0  3  0  0  0  0  0  0
  190.8450  176.8420  146.3650 C   0  0  0  0  0  0  0  0  0  0  0  0
  186.9190  178.3640  141.7130 C   0  0  0  0  0  0  0  0  0  0  0  0
  185.6100  178.6920  141.3490 C   0  0  0  0  0  3  0  0  0  0  0  0
  190.8880  177.3410  142.6470 C   0  0  0  0  0  3  0  0  0  0  0  0
  190.3960  177.1750  144.9990 C   0  0  0  0  0  0  0  0  0  0  0  0
  192.0580  176.6090  146.6110 O   0  0  0  0  0  0  0  0  0  0  0  0
  190.1860  177.8970  139.9020 C   0  0  0  0  0  2  0  0  0  0  0  0
  187.3620  177.7990  135.6650 C   0  0  0  0  0  0  0  0  0  0  0  0
  188.7820  178.3940  137.4690 N   0  0  0  0  0  0  0  0  0  0  0  0
  188.4990  174.9030  137.3610 O   0  0  0  0  0  0  0  0  0  0  0  0
  190.2800  175.6590  139.1140 O   0  0  0  0  0  0  0  0  0  0  0  0
  186.5570  178.1600  134.5940 O   0  0  0  0  0  1  0  0  0  0  0  0
  189.8240  176.8190  138.9260 C   0  0  0  0  0  0  0  0  0  0  0  0
  187.9980  178.7700  136.4260 C   0  0  0  0  0  3  0  0  0  0  0  0
  188.3550  176.1210  137.0700 C   0  0  0  0  0  0  0  0  0  0  0  0
  188.9710  177.1100  137.7980 N   0  0  0  0  0  0  0  0  0  0  0  0
  187.5420  176.4600  135.9900 C   0  0  0  0  0  3  0  0  0  0  0  0
  1 14  1  0  0  0  0
  1  9  1  0  0  0  0
  2  3  1  0  0  0  0
  3 19  2  0  0  0  0
  3  7  1  0  0  0  0
  4 11  2  0  0  0  0
  5  2  1  0  0  0  0
  5 14  2  0  0  0  0
  6  1  2  0  0  0  0
  7  4  1  0  0  0  0
  8 13  1  0  0  0  0
 10 19  1  0  0  0  0
 12  8  2  0  0  0  0
 12 16  1  0  0  0  0
 13 18  1  0  0  0  0
 13  2  2  0  0  0  0
 15 20  2  0  0  0  0
 15 11  1  0  0  0  0
 16  5  1  0  0  0  0
 17 16  2  0  0  0  0
 17  6  1  0  0  0  0
 18 10  2  0  0  0  0
 19 15  1  0  0  0  0
 21  8  1  0  0  0  0
 22 31  2  0  0  0  0
 22 28  1  0  0  0  0
 23 30  1  0  0  0  0
 26 22  1  0  0  0  0
 27 25  2  0  0  0  0
 27 21  1  0  0  0  0
 28 23  2  0  0  0  0
 29 24  2  0  0  0  0
 29 30  1  0  0  0  0
 30 27  1  0  0  0  0
 31 29  1  0  0  0  0
M  END
>  <MODEL>
1

>  <REMARK>
 VINA RESULT:     -11.2      0.000      0.000
  Name = 
  2 active torsions:
  status: ('A' for Active; 'I' for Inactive)
    1  A    between atoms: C_9  and  C_23
    2  A    between atoms: C_15  and  C_23
                            x       y       z     vdW  Elec       q    Type
                         _______ _______ _______ _____ _____    ______ ____

>  <TORSDO>
F 2

$$$$
=
 OpenBabel11052412563D

 31 35  0  0  0  0  0  0  0  0999 V2000
  191.0180  176.7010  144.6500 C   0  0  0  0  0  0  0  0  0  0  0  0
  187.6440  177.8640  143.4320 C   0  0  0  0  0  0  0  0  0  0  0  0
  186.8290  178.0230  144.6020 C   0  0  0  0  0  0  0  0  0  0  0  0
  186.5210  178.1350  147.1340 C   0  0  0  0  0  3  0  0  0  0  0  0
  189.0060  177.4200  143.4580 C   0  0  0  0  0  0  0  0  0  0  0  0
  191.7000  176.5560  143.4440 C   0  0  0  0  0  3  0  0  0  0  0  0
  187.2880  177.5610  145.9740 C   0  0  0  0  0  2  0  0  0  0  0  0
  187.8080  178.0130  140.9710 C   0  0  0  0  0  0  0  0  0  0  0  0
  191.8240  176.3470  146.1620 Cl  0  0  0  0  0  0  0  0  0  0  0  0
  184.9790  178.7980  143.2190 C   0  0  0  0  0  3  0  0  0  0  0  0
  185.2960  178.6350  146.9980 C   0  0  0  0  0  3  0  0  0  0  0  0
  189.1220  177.5650  141.0270 C   0  0  0  0  0  3  0  0  0  0  0  0
  187.0660  178.1700  142.1600 C   0  0  0  0  0  0  0  0  0  0  0  0
  189.6890  177.1310  144.6530 C   0  0  0  0  0  3  0  0  0  0  0  0
  184.6790  178.7360  145.6750 C   0  0  0  0  0  0  0  0  0  0  0  0
  189.7240  177.2760  142.2420 C   0  0  0  0  0  0  0  0  0  0  0  0
  191.0540  176.8440  142.2440 C   0  0  0  0  0  3  0  0  0  0  0  0
  185.7480  178.6310  142.0810 C   0  0  0  0  0  3  0  0  0  0  0  0
  185.5020  178.4990  144.4730 C   0  0  0  0  0  0  0  0  0  0  0  0
  183.4700  179.0760  145.5780 O   0  0  0  0  0  0  0  0  0  0  0  0
  187.2190  178.2870  139.6200 C   0  0  0  0  0  2  0  0  0  0  0  0
  188.3190  174.6500  136.2300 C   0  0  0  0  0  0  0  0  0  0  0  0
  187.2620  176.1440  137.7380 N   0  0  0  0  0  0  0  0  0  0  0  0
  190.4510  177.3800  136.9760 O   0  0  0  0  0  0  0  0  0  0  0  0
  189.0790  179.0960  138.3840 O   0  0  0  0  0  0  0  0  0  0  0  0
  188.3020  173.4860  135.4740 O   0  0  0  0  0  1  0  0  0  0  0  0
  188.2620  178.1500  138.5530 C   0  0  0  0  0  0  0  0  0  0  0  0
  187.2240  175.0000  137.0070 C   0  0  0  0  0  3  0  0  0  0  0  0
  189.4290  176.6430  136.9850 C   0  0  0  0  0  0  0  0  0  0  0  0
  188.3240  176.9580  137.7400 N   0  0  0  0  0  0  0  0  0  0  0  0
  189.4340  175.4790  136.2180 C   0  0  0  0  0  3  0  0  0  0  0  0
  1 14  1  0  0  0  0
  1  9  1  0  0  0  0
  2  5  1  0  0  0  0
  2  3  1  0  0  0  0
  3  7  1  0  0  0  0
  5 14  2  0  0  0  0
  6  1  2  0  0  0  0
  7  4  1  0  0  0  0
  8 12  2  0  0  0  0
  8 13  1  0  0  0  0
 10 19  1  0  0  0  0
 11  4  2  0  0  0  0
 12 16  1  0  0  0  0
 13  2  2  0  0  0  0
 15 11  1  0  0  0  0
 16 17  2  0  0  0  0
 16  5  1  0  0  0  0
 17  6  1  0  0  0  0
 18 13  1  0  0  0  0
 18 10  2  0  0  0  0
 19  3  2  0  0  0  0
 19 15  1  0  0  0  0
 20 15  2  0  0  0  0
 21  8  1  0  0  0  0
 22 28  1  0  0  0  0
 23 30  1  0  0  0  0
 24 29  2  0  0  0  0
 25 27  2  0  0  0  0
 26 22  1  0  0  0  0
 27 21  1  0  0  0  0
 28 23  2  0  0  0  0
 29 30  1  0  0  0  0
 30 27  1  0  0  0  0
 31 22  2  0  0  0  0
 31 29  1  0  0  0  0
M  END
>  <MODEL>
2

>  <REMARK>
 VINA RESULT:     -11.1      2.764      4.412
  Name = 
  2 active torsions:
  status: ('A' for Active; 'I' for Inactive)
    1  A    between atoms: C_9  and  C_23
    2  A    between atoms: C_15  and  C_23
                            x       y       z     vdW  Elec       q    Type
                         _______ _______ _______ _____ _____    ______ ____

>  <TORSDO>
F 2

$$$$
=
 OpenBabel11052412563D

 31 35  0  0  0  0  0  0  0  0999 V2000
  184.8110  178.6200  144.1400 C   0  0  0  0  0  0  0  0  0  0  0  0
  188.4240  177.6820  143.6030 C   0  0  0  0  0  0  0  0  0  0  0  0
  188.9860  177.4870  144.9090 C   0  0  0  0  0  0  0  0  0  0  0  0
  188.7650  177.2310  147.4400 C   0  0  0  0  0  3  0  0  0  0  0  0
  187.0640  178.0640  143.3640 C   0  0  0  0  0  0  0  0  0  0  0  0
  184.3880  178.8090  142.8270 C   0  0  0  0  0  3  0  0  0  0  0  0
  188.2260  177.8420  146.1750 C   0  0  0  0  0  2  0  0  0  0  0  0
  188.7840  177.6790  141.1590 C   0  0  0  0  0  0  0  0  0  0  0  0
  183.6900  178.8440  145.4640 Cl  0  0  0  0  0  0  0  0  0  0  0  0
  191.1230  176.8810  143.9100 C   0  0  0  0  0  3  0  0  0  0  0  0
  190.0180  176.7950  147.5400 C   0  0  0  0  0  3  0  0  0  0  0  0
  187.4650  178.0650  140.9600 C   0  0  0  0  0  3  0  0  0  0  0  0
  189.2710  177.4810  142.4680 C   0  0  0  0  0  0  0  0  0  0  0  0
  186.1320  178.2490  144.4020 C   0  0  0  0  0  3  0  0  0  0  0  0
  190.9010  176.8030  146.3740 C   0  0  0  0  0  0  0  0  0  0  0  0
  186.6080  178.2520  142.0340 C   0  0  0  0  0  0  0  0  0  0  0  0
  185.2850  178.6250  141.7770 C   0  0  0  0  0  3  0  0  0  0  0  0
  190.5990  177.0850  142.6450 C   0  0  0  0  0  3  0  0  0  0  0  0
  190.3350  177.0790  145.0390 C   0  0  0  0  0  0  0  0  0  0  0  0
  192.1210  176.5230  146.5160 O   0  0  0  0  0  0  0  0  0  0  0  0
  189.6560  177.5160  139.9500 C   0  0  0  0  0  2  0  0  0  0  0  0
  187.3820  175.6260  135.8040 C   0  0  0  0  0  0  0  0  0  0  0  0
  188.2300  176.0210  137.9830 N   0  0  0  0  0  0  0  0  0  0  0  0
  188.3560  179.0130  136.1650 O   0  0  0  0  0  0  0  0  0  0  0  0
  188.9760  179.3970  138.6710 O   0  0  0  0  0  0  0  0  0  0  0  0
  186.8430  174.7670  134.8570 O   0  0  0  0  0  1  0  0  0  0  0  0
  189.0130  178.1390  138.7490 C   0  0  0  0  0  0  0  0  0  0  0  0
  187.7050  175.1620  137.0720 C   0  0  0  0  0  3  0  0  0  0  0  0
  188.1470  177.8070  136.4620 C   0  0  0  0  0  0  0  0  0  0  0  0
  188.4510  177.3120  137.7080 N   0  0  0  0  0  0  0  0  0  0  0  0
  187.6050  176.9620  135.4950 C   0  0  0  0  0  3  0  0  0  0  0  0
  1 14  1  0  0  0  0
  1  9  1  0  0  0  0
  2  3  1  0  0  0  0
  3 19  2  0  0  0  0
  3  7  1  0  0  0  0
  4 11  2  0  0  0  0
  5  2  1  0  0  0  0
  5 14  2  0  0  0  0
  6  1  2  0  0  0  0
  7  4  1  0  0  0  0
  8 13  1  0  0  0  0
 10 19  1  0  0  0  0
 12  8  2  0  0  0  0
 12 16  1  0  0  0  0
 13 18  1  0  0  0  0
 13  2  2  0  0  0  0
 15 20  2  0  0  0  0
 15 11  1  0  0  0  0
 16  5  1  0  0  0  0
 17 16  2  0  0  0  0
 17  6  1  0  0  0  0
 18 10  2  0  0  0  0
 19 15  1  0  0  0  0
 21  8  1  0  0  0  0
 22 28  1  0  0  0  0
 24 29  2  0  0  0  0
 25 27  2  0  0  0  0
 26 22  1  0  0  0  0
 27 21  1  0  0  0  0
 28 23  2  0  0  0  0
 29 30  1  0  0  0  0
 30 23  1  0  0  0  0
 30 27  1  0  0  0  0
 31 22  2  0  0  0  0
 31 29  1  0  0  0  0
M  END
>  <MODEL>
3

>  <REMARK>
 VINA RESULT:     -11.0      1.176      1.609
  Name = 
  2 active torsions:
  status: ('A' for Active; 'I' for Inactive)
    1  A    between atoms: C_9  and  C_23
    2  A    between atoms: C_15  and  C_23
                            x       y       z     vdW  Elec       q    Type
                         _______ _______ _______ _____ _____    ______ ____

>  <TORSDO>
F 2

$$$$
=
 OpenBabel11052412563D

 31 35  0  0  0  0  0  0  0  0999 V2000
  184.6240  178.5650  143.9170 C   0  0  0  0  0  0  0  0  0  0  0  0
  188.3010  177.9360  143.3670 C   0  0  0  0  0  0  0  0  0  0  0  0
  188.8560  177.6480  144.6590 C   0  0  0  0  0  0  0  0  0  0  0  0
  188.6160  177.1200  147.1450 C   0  0  0  0  0  3  0  0  0  0  0  0
  186.9210  178.2470  143.1380 C   0  0  0  0  0  0  0  0  0  0  0  0
  184.2080  178.8590  142.6210 C   0  0  0  0  0  3  0  0  0  0  0  0
  188.0540  177.8190  145.9370 C   0  0  0  0  0  2  0  0  0  0  0  0
  188.6970  178.2080  140.9430 C   0  0  0  0  0  0  0  0  0  0  0  0
  183.4700  178.5760  145.2310 Cl  0  0  0  0  0  0  0  0  0  0  0  0
  191.0450  177.2930  143.6500 C   0  0  0  0  0  3  0  0  0  0  0  0
  189.8950  176.7620  147.2280 C   0  0  0  0  0  3  0  0  0  0  0  0
  187.3570  178.5210  140.7550 C   0  0  0  0  0  3  0  0  0  0  0  0
  189.1770  177.9110  142.2360 C   0  0  0  0  0  0  0  0  0  0  0  0
  185.9630  178.2610  144.1680 C   0  0  0  0  0  3  0  0  0  0  0  0
  190.7920  176.9500  146.0880 C   0  0  0  0  0  0  0  0  0  0  0  0
  186.4730  178.5390  141.8240 C   0  0  0  0  0  0  0  0  0  0  0  0
  185.1310  178.8450  141.5760 C   0  0  0  0  0  3  0  0  0  0  0  0
  190.5270  177.5890  142.4010 C   0  0  0  0  0  3  0  0  0  0  0  0
  190.2280  177.3210  144.7750 C   0  0  0  0  0  0  0  0  0  0  0  0
  192.0270  176.7400  146.2280 O   0  0  0  0  0  0  0  0  0  0  0  0
  189.5950  178.2280  139.7430 C   0  0  0  0  0  2  0  0  0  0  0  0
  193.5720  175.5340  138.0510 C   0  0  0  0  0  0  0  0  0  0  0  0
  192.1210  177.0220  139.1940 N   0  0  0  0  0  0  0  0  0  0  0  0
  190.1870  174.6310  137.5150 O   0  0  0  0  0  0  0  0  0  0  0  0
  188.7120  176.1340  139.0550 O   0  0  0  0  0  0  0  0  0  0  0  0
  194.8520  175.1260  137.7030 O   0  0  0  0  0  1  0  0  0  0  0  0
  189.7420  176.8520  139.1710 C   0  0  0  0  0  0  0  0  0  0  0  0
  193.3830  176.6420  138.8650 C   0  0  0  0  0  3  0  0  0  0  0  0
  191.1860  175.2640  137.9520 C   0  0  0  0  0  0  0  0  0  0  0  0
  191.0390  176.3640  138.7620 N   0  0  0  0  0  0  0  0  0  0  0  0
  192.4620  174.8370  137.5890 C   0  0  0  0  0  3  0  0  0  0  0  0
  1 14  1  0  0  0  0
  1  9  1  0  0  0  0
  2  3  1  0  0  0  0
  3 19  2  0  0  0  0
  3  7  1  0  0  0  0
  4 11  2  0  0  0  0
  5  2  1  0  0  0  0
  5 14  2  0  0  0  0
  6  1  2  0  0  0  0
  7  4  1  0  0  0  0
  8 13  1  0  0  0  0
 10 19  1  0  0  0  0
 12  8  2  0  0  0  0
 12 16  1  0  0  0  0
 13 18  1  0  0  0  0
 13  2  2  0  0  0  0
 15 20  2  0  0  0  0
 15 11  1  0  0  0  0
 16  5  1  0  0  0  0
 17 16  2  0  0  0  0
 17  6  1  0  0  0  0
 18 10  2  0  0  0  0
 19 15  1  0  0  0  0
 21  8  1  0  0  0  0
 22 28  1  0  0  0  0
 24 29  2  0  0  0  0
 25 27  2  0  0  0  0
 26 22  1  0  0  0  0
 27 21  1  0  0  0  0
 28 23  2  0  0  0  0
 29 30  1  0  0  0  0
 30 27  1  0  0  0  0
 30 23  1  0  0  0  0
 31 29  1  0  0  0  0
 31 22  2  0  0  0  0
M  END
>  <MODEL>
4

>  <REMARK>
 VINA RESULT:     -10.9      1.879      2.821
  Name = 
  2 active torsions:
  status: ('A' for Active; 'I' for Inactive)
    1  A    between atoms: C_9  and  C_23
    2  A    between atoms: C_15  and  C_23
                            x       y       z     vdW  Elec       q    Type
                         _______ _______ _______ _____ _____    ______ ____

>  <TORSDO>
F 2

$$$$
=
 OpenBabel11052412563D

 31 35  0  0  0  0  0  0  0  0999 V2000
  189.9770  177.1370  145.9750 C   0  0  0  0  0  0  0  0  0  0  0  0
  187.6280  178.0390  143.1660 C   0  0  0  0  0  0  0  0  0  0  0  0
  186.3330  178.1990  143.7630 C   0  0  0  0  0  0  0  0  0  0  0  0
  184.7990  178.4040  145.7930 C   0  0  0  0  0  3  0  0  0  0  0  0
  188.8080  177.6800  143.8950 C   0  0  0  0  0  0  0  0  0  0  0  0
  191.1740  176.9810  145.2800 C   0  0  0  0  0  3  0  0  0  0  0  0
  186.0600  177.8270  145.2100 C   0  0  0  0  0  2  0  0  0  0  0  0
  188.9940  178.0880  141.1080 C   0  0  0  0  0  0  0  0  0  0  0  0
  189.9310  176.9000  147.7080 Cl  0  0  0  0  0  0  0  0  0  0  0  0
  185.3980  178.7990  141.5950 C   0  0  0  0  0  3  0  0  0  0  0  0
  183.7910  178.8230  145.0330 C   0  0  0  0  0  3  0  0  0  0  0  0
  190.1170  177.7240  141.8390 C   0  0  0  0  0  3  0  0  0  0  0  0
  187.7530  178.2520  141.7570 C   0  0  0  0  0  0  0  0  0  0  0  0
  188.8120  177.4850  145.2890 C   0  0  0  0  0  3  0  0  0  0  0  0
  183.9140  178.8270  143.5760 C   0  0  0  0  0  0  0  0  0  0  0  0
  190.0410  177.5250  143.2100 C   0  0  0  0  0  0  0  0  0  0  0  0
  191.2050  177.1750  143.9010 C   0  0  0  0  0  3  0  0  0  0  0  0
  186.6370  178.6280  141.0030 C   0  0  0  0  0  3  0  0  0  0  0  0
  185.2340  178.5870  142.9600 C   0  0  0  0  0  0  0  0  0  0  0  0
  182.9050  179.0880  142.8680 O   0  0  0  0  0  0  0  0  0  0  0  0
  189.1500  178.2660  139.6270 C   0  0  0  0  0  2  0  0  0  0  0  0
  193.2330  175.7140  137.9680 C   0  0  0  0  0  0  0  0  0  0  0  0
  191.7100  177.1060  139.1380 N   0  0  0  0  0  0  0  0  0  0  0  0
  189.8920  174.8610  137.1540 O   0  0  0  0  0  0  0  0  0  0  0  0
  188.3190  176.2350  138.7180 O   0  0  0  0  0  0  0  0  0  0  0  0
  194.5340  175.3350  137.6670 O   0  0  0  0  0  1  0  0  0  0  0  0
  189.3380  176.9400  138.9550 C   0  0  0  0  0  0  0  0  0  0  0  0
  192.9910  176.7530  138.8570 C   0  0  0  0  0  3  0  0  0  0  0  0
  190.8590  175.4550  137.7020 C   0  0  0  0  0  0  0  0  0  0  0  0
  190.6580  176.4860  138.5880 N   0  0  0  0  0  0  0  0  0  0  0  0
  192.1570  175.0580  137.3840 C   0  0  0  0  0  3  0  0  0  0  0  0
  1  9  1  0  0  0  0
  2  3  1  0  0  0  0
  2  5  1  0  0  0  0
  3  7  1  0  0  0  0
  5 14  2  0  0  0  0
  6  1  2  0  0  0  0
  7  4  1  0  0  0  0
  8 13  1  0  0  0  0
  8 12  2  0  0  0  0
 10 19  1  0  0  0  0
 11  4  2  0  0  0  0
 12 16  1  0  0  0  0
 13  2  2  0  0  0  0
 14  1  1  0  0  0  0
 15 11  1  0  0  0  0
 16  5  1  0  0  0  0
 16 17  2  0  0  0  0
 17  6  1  0  0  0  0
 18 10  2  0  0  0  0
 18 13  1  0  0  0  0
 19 15  1  0  0  0  0
 19  3  2  0  0  0  0
 20 15  2  0  0  0  0
 21  8  1  0  0  0  0
 22 28  1  0  0  0  0
 24 29  2  0  0  0  0
 25 27  2  0  0  0  0
 26 22  1  0  0  0  0
 27 21  1  0  0  0  0
 28 23  2  0  0  0  0
 29 30  1  0  0  0  0
 30 27  1  0  0  0  0
 30 23  1  0  0  0  0
 31 29  1  0  0  0  0
 31 22  2  0  0  0  0
M  END
>  <MODEL>
5

>  <REMARK>
 VINA RESULT:     -10.9      2.721      4.994
  Name = 
  2 active torsions:
  status: ('A' for Active; 'I' for Inactive)
    1  A    between atoms: C_9  and  C_23
    2  A    between atoms: C_15  and  C_23
                            x       y       z     vdW  Elec       q    Type
                         _______ _______ _______ _____ _____    ______ ____

>  <TORSDO>
F 2

$$$$
=
 OpenBabel11052412563D

 31 35  0  0  0  0  0  0  0  0999 V2000
  190.4330  177.1910  141.9770 C   0  0  0  0  0  0  0  0  0  0  0  0
  186.8890  178.1570  142.8290 C   0  0  0  0  0  0  0  0  0  0  0  0
  186.7740  178.0370  144.2550 C   0  0  0  0  0  0  0  0  0  0  0  0
  187.7840  177.7130  146.5760 C   0  0  0  0  0  3  0  0  0  0  0  0
  188.0850  177.8660  142.0950 C   0  0  0  0  0  0  0  0  0  0  0  0
  190.4160  177.3140  140.5900 C   0  0  0  0  0  3  0  0  0  0  0  0
  187.8690  177.4170  145.1040 C   0  0  0  0  0  2  0  0  0  0  0  0
  185.7870  178.7110  140.6890 C   0  0  0  0  0  0  0  0  0  0  0  0
  191.8970  176.6920  142.7940 Cl  0  0  0  0  0  0  0  0  0  0  0  0
  184.4680  178.8150  144.1420 C   0  0  0  0  0  3  0  0  0  0  0  0
  186.6510  178.0910  147.1610 C   0  0  0  0  0  3  0  0  0  0  0  0
  186.9560  178.4060  140.0030 C   0  0  0  0  0  3  0  0  0  0  0  0
  185.7430  178.5950  142.0940 C   0  0  0  0  0  0  0  0  0  0  0  0
  189.2820  177.4670  142.7170 C   0  0  0  0  0  3  0  0  0  0  0  0
  185.4490  178.3320  146.3620 C   0  0  0  0  0  0  0  0  0  0  0  0
  188.0930  177.9950  140.6820 C   0  0  0  0  0  0  0  0  0  0  0  0
  189.2480  177.7160  139.9440 C   0  0  0  0  0  3  0  0  0  0  0  0
  184.5600  178.9160  142.7650 C   0  0  0  0  0  3  0  0  0  0  0  0
  185.5560  178.3800  144.8900 C   0  0  0  0  0  0  0  0  0  0  0  0
  184.3520  178.5490  146.9400 O   0  0  0  0  0  0  0  0  0  0  0  0
  184.5930  179.1290  139.8850 C   0  0  0  0  0  2  0  0  0  0  0  0
  180.1810  176.7010  140.6400 C   0  0  0  0  0  0  0  0  0  0  0  0
  181.9270  178.2960  140.4650 N   0  0  0  0  0  0  0  0  0  0  0  0
  182.8410  175.4220  138.6800 O   0  0  0  0  0  0  0  0  0  0  0  0
  184.5500  177.3590  138.3030 O   0  0  0  0  0  0  0  0  0  0  0  0
  178.9320  176.3260  141.1180 O   0  0  0  0  0  1  0  0  0  0  0  0
  183.9450  177.9400  139.2450 C   0  0  0  0  0  0  0  0  0  0  0  0
  180.7040  177.9500  140.9440 C   0  0  0  0  0  3  0  0  0  0  0  0
  182.1730  176.2270  139.3830 C   0  0  0  0  0  0  0  0  0  0  0  0
  182.6570  177.4730  139.7020 N   0  0  0  0  0  0  0  0  0  0  0  0
  180.9220  175.8300  139.8520 C   0  0  0  0  0  3  0  0  0  0  0  0
  1 14  1  0  0  0  0
  1  9  1  0  0  0  0
  2  3  1  0  0  0  0
  3 19  2  0  0  0  0
  3  7  1  0  0  0  0
  4 11  2  0  0  0  0
  5 14  2  0  0  0  0
  5  2  1  0  0  0  0
  6  1  2  0  0  0  0
  7  4  1  0  0  0  0
  8 13  1  0  0  0  0
 10 19  1  0  0  0  0
 12 16  1  0  0  0  0
 12  8  2  0  0  0  0
 13 18  1  0  0  0  0
 13  2  2  0  0  0  0
 15 20  2  0  0  0  0
 15 11  1  0  0  0  0
 16  5  1  0  0  0  0
 17  6  1  0  0  0  0
 17 16  2  0  0  0  0
 18 10  2  0  0  0  0
 19 15  1  0  0  0  0
 21  8  1  0  0  0  0
 22 28  1  0  0  0  0
 22 26  1  0  0  0  0
 23 28  2  0  0  0  0
 24 29  2  0  0  0  0
 25 27  2  0  0  0  0
 27 30  1  0  0  0  0
 27 21  1  0  0  0  0
 29 30  1  0  0  0  0
 29 31  1  0  0  0  0
 30 23  1  0  0  0  0
 31 22  2  0  0  0  0
M  END
>  <MODEL>
6

>  <REMARK>
 VINA RESULT:     -10.7      4.098      5.802
  Name = 
  2 active torsions:
  status: ('A' for Active; 'I' for Inactive)
    1  A    between atoms: C_9  and  C_23
    2  A    between atoms: C_15  and  C_23
                            x       y       z     vdW  Elec       q    Type
                         _______ _______ _______ _____ _____    ______ ____

>  <TORSDO>
F 2

$$$$
=
 OpenBabel11052412563D

 31 35  0  0  0  0  0  0  0  0999 V2000
  190.4390  176.7630  145.4240 C   0  0  0  0  0  0  0  0  0  0  0  0
  187.7130  177.9270  143.0930 C   0  0  0  0  0  0  0  0  0  0  0  0
  186.5310  178.0620  143.8960 C   0  0  0  0  0  0  0  0  0  0  0  0
  185.3360  178.1320  146.1500 C   0  0  0  0  0  3  0  0  0  0  0  0
  188.9800  177.4900  143.6000 C   0  0  0  0  0  0  0  0  0  0  0  0
  191.5090  176.6410  144.5410 C   0  0  0  0  0  3  0  0  0  0  0  0
  186.4730  177.5810  145.3350 C   0  0  0  0  0  2  0  0  0  0  0  0
  188.7460  178.1170  140.8570 C   0  0  0  0  0  0  0  0  0  0  0  0
  190.6540  176.3890  147.1200 Cl  0  0  0  0  0  0  0  0  0  0  0  0
  185.2900  178.8490  141.9520 C   0  0  0  0  0  3  0  0  0  0  0  0
  184.2350  178.6270  145.5910 C   0  0  0  0  0  3  0  0  0  0  0  0
  189.9570  177.6750  141.3740 C   0  0  0  0  0  3  0  0  0  0  0  0
  187.6250  178.2500  141.7030 C   0  0  0  0  0  0  0  0  0  0  0  0
  189.1930  177.1850  144.9570 C   0  0  0  0  0  3  0  0  0  0  0  0
  184.1320  178.7460  144.1370 C   0  0  0  0  0  0  0  0  0  0  0  0
  190.0870  177.3690  142.7210 C   0  0  0  0  0  0  0  0  0  0  0  0
  191.3330  176.9450  143.1930 C   0  0  0  0  0  3  0  0  0  0  0  0
  186.4180  178.7040  141.1630 C   0  0  0  0  0  3  0  0  0  0  0  0
  185.3330  178.5320  143.3060 C   0  0  0  0  0  0  0  0  0  0  0  0
  183.0340  179.0800  143.6170 O   0  0  0  0  0  0  0  0  0  0  0  0
  188.6770  178.4090  139.3880 C   0  0  0  0  0  2  0  0  0  0  0  0
  185.3430  176.2190  136.2220 C   0  0  0  0  0  0  0  0  0  0  0  0
  186.6580  177.7320  137.4900 N   0  0  0  0  0  0  0  0  0  0  0  0
  188.1840  174.5780  137.5600 O   0  0  0  0  0  0  0  0  0  0  0  0
  189.7010  176.3920  138.6650 O   0  0  0  0  0  0  0  0  0  0  0  0
  184.2280  175.9530  135.4400 O   0  0  0  0  0  1  0  0  0  0  0  0
  188.6850  177.1370  138.5970 C   0  0  0  0  0  0  0  0  0  0  0  0
  185.5600  177.4940  136.7290 C   0  0  0  0  0  3  0  0  0  0  0  0
  187.3700  175.5030  137.2970 C   0  0  0  0  0  0  0  0  0  0  0  0
  187.5520  176.7780  137.7780 N   0  0  0  0  0  0  0  0  0  0  0  0
  186.2570  175.2130  136.5100 C   0  0  0  0  0  3  0  0  0  0  0  0
  1  9  1  0  0  0  0
  2  5  1  0  0  0  0
  2  3  1  0  0  0  0
  3  7  1  0  0  0  0
  5 14  2  0  0  0  0
  6  1  2  0  0  0  0
  7  4  1  0  0  0  0
  8 12  2  0  0  0  0
  8 13  1  0  0  0  0
 10 19  1  0  0  0  0
 11  4  2  0  0  0  0
 12 16  1  0  0  0  0
 13  2  2  0  0  0  0
 14  1  1  0  0  0  0
 15 11  1  0  0  0  0
 16 17  2  0  0  0  0
 16  5  1  0  0  0  0
 17  6  1  0  0  0  0
 18 13  1  0  0  0  0
 18 10  2  0  0  0  0
 19  3  2  0  0  0  0
 19 15  1  0  0  0  0
 20 15  2  0  0  0  0
 21  8  1  0  0  0  0
 22 31  2  0  0  0  0
 22 28  1  0  0  0  0
 23 30  1  0  0  0  0
 26 22  1  0  0  0  0
 27 25  2  0  0  0  0
 27 21  1  0  0  0  0
 28 23  2  0  0  0  0
 29 24  2  0  0  0  0
 29 30  1  0  0  0  0
 30 27  1  0  0  0  0
 31 29  1  0  0  0  0
M  END
>  <MODEL>
7

>  <REMARK>
 VINA RESULT:     -10.5      2.537      4.334
  Name = 
  2 active torsions:
  status: ('A' for Active; 'I' for Inactive)
    1  A    between atoms: C_9  and  C_23
    2  A    between atoms: C_15  and  C_23
                            x       y       z     vdW  Elec       q    Type
                         _______ _______ _______ _____ _____    ______ ____

>  <TORSDO>
F 2

$$$$
=
 OpenBabel11052412563D

 31 35  0  0  0  0  0  0  0  0999 V2000
  184.3250  178.6180  143.9840 C   0  0  0  0  0  0  0  0  0  0  0  0
  187.9760  178.0490  143.2300 C   0  0  0  0  0  0  0  0  0  0  0  0
  188.6070  177.7770  144.4900 C   0  0  0  0  0  0  0  0  0  0  0  0
  188.5170  177.2580  146.9880 C   0  0  0  0  0  3  0  0  0  0  0  0
  186.5800  178.3350  143.0790 C   0  0  0  0  0  0  0  0  0  0  0  0
  183.8320  178.8970  142.7120 C   0  0  0  0  0  3  0  0  0  0  0  0
  187.8760  177.9410  145.8110 C   0  0  0  0  0  2  0  0  0  0  0  0
  188.2290  178.3140  140.7880 C   0  0  0  0  0  0  0  0  0  0  0  0
  183.2470  178.6150  145.3620 Cl  0  0  0  0  0  0  0  0  0  0  0  0
  190.7420  177.4550  143.3610 C   0  0  0  0  0  3  0  0  0  0  0  0
  189.8040  176.9220  147.0010 C   0  0  0  0  0  3  0  0  0  0  0  0
  186.8760  178.6040  140.6740 C   0  0  0  0  0  3  0  0  0  0  0  0
  188.7860  178.0330  142.0520 C   0  0  0  0  0  0  0  0  0  0  0  0
  185.6810  178.3370  144.1610 C   0  0  0  0  0  3  0  0  0  0  0  0
  190.6330  177.1190  145.8110 C   0  0  0  0  0  0  0  0  0  0  0  0
  186.0530  178.6120  141.7900 C   0  0  0  0  0  0  0  0  0  0  0  0
  184.6950  178.8930  141.6180 C   0  0  0  0  0  3  0  0  0  0  0  0
  190.1490  177.7350  142.1420 C   0  0  0  0  0  3  0  0  0  0  0  0
  189.9890  177.4740  144.5310 C   0  0  0  0  0  0  0  0  0  0  0  0
  191.8760  176.9320  145.8820 O   0  0  0  0  0  0  0  0  0  0  0  0
  189.0590  178.3440  139.5390 C   0  0  0  0  0  2  0  0  0  0  0  0
  191.9680  174.6840  137.5210 C   0  0  0  0  0  0  0  0  0  0  0  0
  191.0200  176.3800  138.8800 N   0  0  0  0  0  0  0  0  0  0  0  0
  188.5950  175.2700  136.6070 O   0  0  0  0  0  0  0  0  0  0  0  0
  187.5750  176.9170  138.3560 O   0  0  0  0  0  0  0  0  0  0  0  0
  193.0460  173.8860  137.1640 O   0  0  0  0  0  1  0  0  0  0  0  0
  188.7700  177.1480  138.6850 C   0  0  0  0  0  0  0  0  0  0  0  0
  192.0880  175.6110  138.5480 C   0  0  0  0  0  3  0  0  0  0  0  0
  189.6860  175.3780  137.2290 C   0  0  0  0  0  0  0  0  0  0  0  0
  189.8410  176.2820  138.2530 N   0  0  0  0  0  0  0  0  0  0  0  0
  190.7550  174.5670  136.8530 C   0  0  0  0  0  3  0  0  0  0  0  0
  1 14  1  0  0  0  0
  1  9  1  0  0  0  0
  2  3  1  0  0  0  0
  3 19  2  0  0  0  0
  3  7  1  0  0  0  0
  4 11  2  0  0  0  0
  5  2  1  0  0  0  0
  5 14  2  0  0  0  0
  6  1  2  0  0  0  0
  7  4  1  0  0  0  0
  8 13  1  0  0  0  0
 10 19  1  0  0  0  0
 12  8  2  0  0  0  0
 12 16  1  0  0  0  0
 13 18  1  0  0  0  0
 13  2  2  0  0  0  0
 15 20  2  0  0  0  0
 15 11  1  0  0  0  0
 16  5  1  0  0  0  0
 17 16  2  0  0  0  0
 17  6  1  0  0  0  0
 18 10  2  0  0  0  0
 19 15  1  0  0  0  0
 21  8  1  0  0  0  0
 22 28  1  0  0  0  0
 24 29  2  0  0  0  0
 25 27  2  0  0  0  0
 26 22  1  0  0  0  0
 27 21  1  0  0  0  0
 28 23  2  0  0  0  0
 29 30  1  0  0  0  0
 30 27  1  0  0  0  0
 30 23  1  0  0  0  0
 31 29  1  0  0  0  0
 31 22  2  0  0  0  0
M  END
>  <MODEL>
8

>  <REMARK>
 VINA RESULT:     -10.4      1.566      2.458
  Name = 
  2 active torsions:
  status: ('A' for Active; 'I' for Inactive)
    1  A    between atoms: C_9  and  C_23
    2  A    between atoms: C_15  and  C_23
                            x       y       z     vdW  Elec       q    Type
                         _______ _______ _______ _____ _____    ______ ____

>  <TORSDO>
F 2

$$$$
=
 OpenBabel11052412563D

 31 35  0  0  0  0  0  0  0  0999 V2000
  186.8120  177.9680  146.9870 C   0  0  0  0  0  0  0  0  0  0  0  0
  187.4240  178.0850  143.2680 C   0  0  0  0  0  0  0  0  0  0  0  0
  188.8120  177.7710  143.0800 C   0  0  0  0  0  0  0  0  0  0  0  0
  191.0720  176.9560  143.9410 C   0  0  0  0  0  3  0  0  0  0  0  0
  186.7850  178.1580  144.5480 C   0  0  0  0  0  0  0  0  0  0  0  0
  185.4640  178.3120  147.0450 C   0  0  0  0  0  3  0  0  0  0  0  0
  189.7790  177.6600  144.2460 C   0  0  0  0  0  2  0  0  0  0  0  0
  185.2620  178.6710  142.2270 C   0  0  0  0  0  0  0  0  0  0  0  0
  187.6960  177.6310  148.4590 Cl  0  0  0  0  0  0  0  0  0  0  0  0
  188.5310  177.9300  140.6650 C   0  0  0  0  0  3  0  0  0  0  0  0
  191.5400  176.8320  142.7020 C   0  0  0  0  0  3  0  0  0  0  0  0
  184.6740  178.7510  143.4830 C   0  0  0  0  0  3  0  0  0  0  0  0
  186.6260  178.3370  142.1070 C   0  0  0  0  0  0  0  0  0  0  0  0
  187.4610  177.8900  145.7530 C   0  0  0  0  0  3  0  0  0  0  0  0
  190.7490  177.2980  141.5620 C   0  0  0  0  0  0  0  0  0  0  0  0
  185.4090  178.4960  144.6310 C   0  0  0  0  0  0  0  0  0  0  0  0
  184.7650  178.5750  145.8690 C   0  0  0  0  0  3  0  0  0  0  0  0
  187.1950  178.2530  140.8330 C   0  0  0  0  0  3  0  0  0  0  0  0
  189.3420  177.6920  141.7700 C   0  0  0  0  0  0  0  0  0  0  0  0
  191.2620  177.3050  140.4120 O   0  0  0  0  0  0  0  0  0  0  0  0
  184.4080  178.9800  141.0340 C   0  0  0  0  0  2  0  0  0  0  0  0
  181.5560  175.4840  138.6720 C   0  0  0  0  0  0  0  0  0  0  0  0
  183.3210  176.7600  139.6100 N   0  0  0  0  0  0  0  0  0  0  0  0
  180.2900  177.8370  141.0000 O   0  0  0  0  0  0  0  0  0  0  0  0
  182.3290  178.9580  142.1820 O   0  0  0  0  0  0  0  0  0  0  0  0
  181.1110  174.4880  137.8140 O   0  0  0  0  0  1  0  0  0  0  0  0
  183.0130  178.4750  141.2390 C   0  0  0  0  0  0  0  0  0  0  0  0
  182.9090  175.7830  138.7630 C   0  0  0  0  0  3  0  0  0  0  0  0
  181.1220  177.1910  140.3070 C   0  0  0  0  0  0  0  0  0  0  0  0
  182.4690  177.4560  140.3720 N   0  0  0  0  0  0  0  0  0  0  0  0
  180.6520  176.1950  139.4520 C   0  0  0  0  0  3  0  0  0  0  0  0
  1  6  1  0  0  0  0
  1  9  1  0  0  0  0
  2  5  1  0  0  0  0
  3  2  1  0  0  0  0
  3  7  1  0  0  0  0
  4  7  1  0  0  0  0
  5 16  2  0  0  0  0
  5 14  1  0  0  0  0
  8 12  2  0  0  0  0
 10 18  2  0  0  0  0
 10 19  1  0  0  0  0
 11  4  2  0  0  0  0
 12 16  1  0  0  0  0
 13  8  1  0  0  0  0
 13  2  2  0  0  0  0
 14  1  2  0  0  0  0
 15 19  1  0  0  0  0
 15 11  1  0  0  0  0
 16 17  1  0  0  0  0
 17  6  2  0  0  0  0
 18 13  1  0  0  0  0
 19  3  2  0  0  0  0
 20 15  2  0  0  0  0
 21 27  1  0  0  0  0
 21  8  1  0  0  0  0
 22 28  1  0  0  0  0
 22 31  2  0  0  0  0
 23 30  1  0  0  0  0
 26 22  1  0  0  0  0
 27 25  2  0  0  0  0
 28 23  2  0  0  0  0
 29 30  1  0  0  0  0
 29 24  2  0  0  0  0
 30 27  1  0  0  0  0
 31 29  1  0  0  0  0
M  END
>  <MODEL>
9

>  <REMARK>
 VINA RESULT:     -10.2      3.870      5.479
  Name = 
  2 active torsions:
  status: ('A' for Active; 'I' for Inactive)
    1  A    between atoms: C_9  and  C_23
    2  A    between atoms: C_15  and  C_23
                            x       y       z     vdW  Elec       q    Type
                         _______ _______ _______ _____ _____    ______ ____

>  <TORSDO>
F 2

$$$$
