=
 OpenBabel11052416263D

 43 49  0  0  1  0  0  0  0  0999 V2000
  182.7950  178.7310  139.8150 C   0  0  1  0  0  3  0  0  0  0  0  0
  184.9090  178.6720  146.0570 C   0  0  0  0  0  0  0  0  0  0  0  0
  183.0320  178.7490  141.3080 C   0  0  0  0  0  0  0  0  0  0  0  0
  183.4350  178.8710  144.0860 C   0  0  0  0  0  0  0  0  0  0  0  0
  186.0270  178.5180  145.1850 N   0  0  0  0  0  2  0  0  0  0  0  0
  185.0580  178.5830  147.3030 O   0  0  0  0  0  0  0  0  0  0  0  0
  184.5490  178.8010  143.2210 C   0  0  0  0  0  0  0  0  0  0  0  0
  183.6140  178.8820  145.5030 N   0  0  0  0  0  2  0  0  0  0  0  0
  185.9500  178.9070  143.7800 C   0  0  0  0  0  2  0  0  0  0  0  0
  185.5170  178.6720  140.8980 C   0  0  0  0  0  1  0  0  0  0  0  0
  184.3430  178.7460  141.8270 C   0  0  0  0  0  0  0  0  0  0  0  0
  181.9430  178.8270  142.1880 C   0  0  0  0  0  3  0  0  0  0  0  0
  182.1440  178.8830  143.5650 C   0  0  0  0  0  3  0  0  0  0  0  0
  183.7900  177.4640  137.9380 C   0  0  2  0  0  3  0  0  0  0  0  0
  182.9540  177.3440  139.1980 C   0  0  2  0  0  3  0  0  0  0  0  0
  182.2890  177.2910  137.8380 C   0  0  0  0  0  2  0  0  0  0  0  0
  184.4230  176.2440  137.6960 O   0  0  0  0  0  0  0  0  0  0  0  0
  185.3330  176.5130  136.6730 C   0  0  0  0  0  2  0  0  0  0  0  0
  186.6610  175.8460  136.9800 C   0  0  0  0  0  2  0  0  0  0  0  0
  187.7410  176.8950  137.1700 C   0  0  0  0  0  2  0  0  0  0  0  0
  187.6820  177.4010  138.4700 O   0  0  0  0  0  0  0  0  0  0  0  0
  188.9790  177.8370  138.7500 C   0  0  2  0  0  3  0  0  0  0  0  0
  188.9270  177.0940  141.1440 C   0  0  2  0  0  3  0  0  0  0  0  0
  189.6110  176.9220  139.7780 C   0  0  2  0  0  0  0  0  0  0  0  0
  189.0750  178.2760  140.2000 C   0  0  1  0  0  3  0  0  0  0  0  0
  189.8540  177.2100  142.3260 C   0  0  0  0  0  0  0  0  0  0  0  0
  191.4890  176.2010  143.9840 C   0  0  0  0  0  2  0  0  0  0  0  0
  190.8760  178.5980  144.1440 C   0  0  0  0  0  2  0  0  0  0  0  0
  191.0490  177.3050  144.9350 C   0  0  0  0  0  2  0  0  0  0  0  0
  189.9930  178.4010  142.9390 C   0  0  0  0  0  3  0  0  0  0  0  0
  190.3880  175.9420  142.9550 C   0  0  0  0  0  2  0  0  0  0  0  0
  191.1310  177.0340  139.7400 C   0  0  0  0  0  2  0  0  0  0  0  0
  192.9810  176.7000  138.5800 C   0  0  0  0  0  1  0  0  0  0  0  0
  191.6210  176.3860  138.6060 O   0  0  0  0  0  0  0  0  0  0  0  0
  181.4850  179.4080  139.4030 C   0  0  0  0  0  2  0  0  0  0  0  0
  181.6860  180.7470  138.7010 C   0  0  0  0  0  2  0  0  0  0  0  0
  179.3480  183.1210  138.5280 N   0  0  0  0  0  0  0  0  0  0  0  0
  180.0520  183.3540  137.4830 C   0  0  0  0  0  0  0  0  0  0  0  0
  180.4790  181.1270  137.9810 N   0  0  0  0  0  0  0  0  0  0  0  0
  179.5660  181.7510  138.9500 C   0  0  0  0  0  2  0  0  0  0  0  0
  180.8470  182.1940  137.0530 C   0  0  0  0  0  2  0  0  0  0  0  0
  180.0680  184.5850  136.8270 O   0  0  0  0  0  0  0  0  0  0  0  0
  180.9140  184.8330  135.7150 C   0  0  0  0  0  1  0  0  0  0  0  0
  1 35  1  1  0  0  0
  1  3  1  0  0  0  0
  2  6  2  0  0  0  0
  3 11  2  0  0  0  0
  3 12  1  0  0  0  0
  4  8  1  0  0  0  0
  5  2  1  0  0  0  0
  7  9  1  0  0  0  0
  7  4  2  0  0  0  0
  8  2  1  0  0  0  0
  9  5  1  0  0  0  0
 10 11  1  0  0  0  0
 11  7  1  0  0  0  0
 12 13  2  0  0  0  0
 13  4  1  0  0  0  0
 14 17  1  6  0  0  0
 14 15  1  0  0  0  0
 15  1  1  1  0  0  0
 16 14  1  0  0  0  0
 16 15  1  0  0  0  0
 18 19  1  0  0  0  0
 18 17  1  0  0  0  0
 19 20  1  0  0  0  0
 20 21  1  0  0  0  0
 22 21  1  1  0  0  0
 22 24  1  0  0  0  0
 22 25  1  0  0  0  0
 23 26  1  1  0  0  0
 24 32  1  6  0  0  0
 24 25  1  0  0  0  0
 24 23  1  0  0  0  0
 25 23  1  0  0  0  0
 26 30  2  0  0  0  0
 26 31  1  0  0  0  0
 27 29  1  0  0  0  0
 28 29  1  0  0  0  0
 30 28  1  0  0  0  0
 31 27  1  0  0  0  0
 33 34  1  0  0  0  0
 34 32  1  0  0  0  0
 36 35  1  0  0  0  0
 37 40  1  0  0  0  0
 38 37  2  0  0  0  0
 39 36  1  0  0  0  0
 39 40  1  0  0  0  0
 41 38  1  0  0  0  0
 41 39  1  0  0  0  0
 42 38  1  0  0  0  0
 43 42  1  0  0  0  0
M  END
>  <MODEL>
1

>  <REMARK>
 VINA RESULT:      -7.6      0.000      0.000
  Name = 
  15 active torsions:
  status: ('A' for Active; 'I' for Inactive)
    1  A    between atoms: C_1  and  C_34
    2  A    between atoms: C_1  and  C_35
    3  A    between atoms: C_2  and  C_7
    4  A    between atoms: C_2  and  O_12
    5  A    between atoms: O_3  and  C_4
    6  A    between atoms: O_3  and  C_17
    7  A    between atoms: C_6  and  O_12
    8  A    between atoms: C_7  and  C_17
    9  A    between atoms: C_8  and  C_34
   10  A    between atoms: C_10  and  C_22
   11  A    between atoms: C_10  and  O_42
   12  A    between atoms: C_11  and  C_14
   13  A    between atoms: C_13  and  C_34
   14  A    between atoms: C_19  and  O_25
   15  A    between atoms: N_28  and  C_35
                            x       y       z     vdW  Elec       q    Type
                         _______ _______ _______ _____ _____    ______ ____

>  <TORSDO>
F 15

$$$$
=
 OpenBabel11052416263D

 43 49  0  0  1  0  0  0  0  0999 V2000
  189.7710  177.0590  140.3030 C   0  0  1  0  0  3  0  0  0  0  0  0
  189.4910  177.5830  146.8660 C   0  0  0  0  0  0  0  0  0  0  0  0
  189.9590  177.1280  141.8010 C   0  0  0  0  0  0  0  0  0  0  0  0
  190.3390  177.1690  144.5850 C   0  0  0  0  0  0  0  0  0  0  0  0
  188.1890  177.7940  146.3260 N   0  0  0  0  0  2  0  0  0  0  0  0
  189.7020  177.7410  148.0970 O   0  0  0  0  0  0  0  0  0  0  0  0
  189.0360  177.2950  144.0560 C   0  0  0  0  0  0  0  0  0  0  0  0
  190.5620  177.2370  145.9940 N   0  0  0  0  0  2  0  0  0  0  0  0
  187.8420  177.3370  144.9830 C   0  0  0  0  0  2  0  0  0  0  0  0
  187.4710  177.4020  142.0840 C   0  0  0  0  0  1  0  0  0  0  0  0
  188.8490  177.2700  142.6580 C   0  0  0  0  0  0  0  0  0  0  0  0
  191.2430  176.9970  142.3520 C   0  0  0  0  0  3  0  0  0  0  0  0
  191.4300  177.0210  143.7320 C   0  0  0  0  0  3  0  0  0  0  0  0
  188.0830  177.7420  138.6290 C   0  0  2  0  0  3  0  0  0  0  0  0
  188.9890  178.2420  139.7390 C   0  0  2  0  0  3  0  0  0  0  0  0
  189.3610  178.4800  138.2900 C   0  0  0  0  0  2  0  0  0  0  0  0
  186.9940  178.6070  138.5100 O   0  0  0  0  0  0  0  0  0  0  0  0
  186.5600  178.4500  137.1930 C   0  0  0  0  0  2  0  0  0  0  0  0
  185.8470  177.1180  137.0430 C   0  0  0  0  0  2  0  0  0  0  0  0
  184.3600  177.3420  136.8390 C   0  0  0  0  0  2  0  0  0  0  0  0
  183.6410  176.6410  137.8110 O   0  0  0  0  0  0  0  0  0  0  0  0
  182.7200  177.5620  138.3150 C   0  0  2  0  0  3  0  0  0  0  0  0
  183.8020  177.7130  140.5710 C   0  0  2  0  0  3  0  0  0  0  0  0
  183.4090  178.4830  139.3000 C   0  0  2  0  0  0  0  0  0  0  0  0
  182.5390  177.3500  139.8070 C   0  0  1  0  0  3  0  0  0  0  0  0
  183.4820  178.4010  141.8730 C   0  0  0  0  0  0  0  0  0  0  0  0
  184.1850  179.6780  143.9510 C   0  0  0  0  0  2  0  0  0  0  0  0
  181.8040  179.0790  143.6040 C   0  0  0  0  0  2  0  0  0  0  0  0
  182.9500  179.0820  144.6110 C   0  0  0  0  0  2  0  0  0  0  0  0
  182.2060  178.4380  142.3010 C   0  0  0  0  0  3  0  0  0  0  0  0
  184.6230  178.7890  142.7870 C   0  0  0  0  0  2  0  0  0  0  0  0
  182.6150  179.7720  139.4810 C   0  0  0  0  0  2  0  0  0  0  0  0
  181.2580  180.8390  138.1030 C   0  0  0  0  0  1  0  0  0  0  0  0
  181.3820  179.6580  138.8370 O   0  0  0  0  0  0  0  0  0  0  0  0
  191.0760  176.8040  139.5420 C   0  0  0  0  0  2  0  0  0  0  0  0
  191.0090  175.6050  138.6020 C   0  0  0  0  0  2  0  0  0  0  0  0
  194.2780  175.7970  137.9610 N   0  0  0  0  0  0  0  0  0  0  0  0
  193.9860  174.6210  137.5450 C   0  0  0  0  0  0  0  0  0  0  0  0
  191.9630  175.7610  137.5140 N   0  0  0  0  0  0  0  0  0  0  0  0
  193.0670  176.5940  138.0130 C   0  0  0  0  0  2  0  0  0  0  0  0
  192.5530  174.4470  137.2640 C   0  0  0  0  0  2  0  0  0  0  0  0
  194.9310  173.6080  137.3820 O   0  0  0  0  0  0  0  0  0  0  0  0
  195.2670  172.7180  138.4360 C   0  0  0  0  0  1  0  0  0  0  0  0
  1 35  1  6  0  0  0
  1  3  1  0  0  0  0
  2  6  2  0  0  0  0
  3 12  2  0  0  0  0
  3 11  1  0  0  0  0
  4  8  1  0  0  0  0
  5  2  1  0  0  0  0
  7  4  1  0  0  0  0
  7  9  1  0  0  0  0
  8  2  1  0  0  0  0
  9  5  1  0  0  0  0
 10 11  1  0  0  0  0
 11  7  2  0  0  0  0
 12 13  1  0  0  0  0
 13  4  2  0  0  0  0
 14 17  1  1  0  0  0
 14 15  1  0  0  0  0
 15  1  1  6  0  0  0
 16 14  1  0  0  0  0
 16 15  1  0  0  0  0
 18 17  1  0  0  0  0
 19 18  1  0  0  0  0
 20 19  1  0  0  0  0
 20 21  1  0  0  0  0
 22 21  1  1  0  0  0
 22 24  1  0  0  0  0
 22 25  1  0  0  0  0
 23 26  1  1  0  0  0
 24 32  1  1  0  0  0
 24 25  1  0  0  0  0
 24 23  1  0  0  0  0
 25 23  1  0  0  0  0
 26 30  2  0  0  0  0
 26 31  1  0  0  0  0
 27 29  1  0  0  0  0
 28 29  1  0  0  0  0
 30 28  1  0  0  0  0
 31 27  1  0  0  0  0
 33 34  1  0  0  0  0
 34 32  1  0  0  0  0
 36 35  1  0  0  0  0
 37 40  1  0  0  0  0
 38 37  2  0  0  0  0
 39 40  1  0  0  0  0
 39 36  1  0  0  0  0
 41 39  1  0  0  0  0
 41 38  1  0  0  0  0
 42 38  1  0  0  0  0
 42 43  1  0  0  0  0
M  END
>  <MODEL>
2

>  <REMARK>
 VINA RESULT:      -7.0      3.371      9.083
  Name = 
  15 active torsions:
  status: ('A' for Active; 'I' for Inactive)
    1  A    between atoms: C_1  and  C_34
    2  A    between atoms: C_1  and  C_35
    3  A    between atoms: C_2  and  C_7
    4  A    between atoms: C_2  and  O_12
    5  A    between atoms: O_3  and  C_4
    6  A    between atoms: O_3  and  C_17
    7  A    between atoms: C_6  and  O_12
    8  A    between atoms: C_7  and  C_17
    9  A    between atoms: C_8  and  C_34
   10  A    between atoms: C_10  and  C_22
   11  A    between atoms: C_10  and  O_42
   12  A    between atoms: C_11  and  C_14
   13  A    between atoms: C_13  and  C_34
   14  A    between atoms: C_19  and  O_25
   15  A    between atoms: N_28  and  C_35
                            x       y       z     vdW  Elec       q    Type
                         _______ _______ _______ _____ _____    ______ ____

>  <TORSDO>
F 15

$$$$
=
 OpenBabel11052416263D

 43 49  0  0  1  0  0  0  0  0999 V2000
  187.1940  177.8710  142.4660 C   0  0  1  0  0  3  0  0  0  0  0  0
  191.5270  176.6520  147.2790 C   0  0  0  0  0  0  0  0  0  0  0  0
  188.3480  177.5290  143.3790 C   0  0  0  0  0  0  0  0  0  0  0  0
  190.4950  176.8050  145.0420 C   0  0  0  0  0  0  0  0  0  0  0  0
  190.2960  177.0800  147.8580 N   0  0  0  0  0  2  0  0  0  0  0  0
  192.5380  176.4640  148.0040 O   0  0  0  0  0  0  0  0  0  0  0  0
  189.2520  177.1490  145.6160 C   0  0  0  0  0  0  0  0  0  0  0  0
  191.6140  176.4830  145.8680 N   0  0  0  0  0  2  0  0  0  0  0  0
  189.0440  177.0180  147.1080 C   0  0  0  0  0  2  0  0  0  0  0  0
  186.8500  177.8730  145.3750 C   0  0  0  0  0  1  0  0  0  0  0  0
  188.1750  177.5070  144.7780 C   0  0  0  0  0  0  0  0  0  0  0  0
  189.5920  177.1750  142.8330 C   0  0  0  0  0  3  0  0  0  0  0  0
  190.6550  176.8200  143.6580 C   0  0  0  0  0  3  0  0  0  0  0  0
  184.7360  178.1320  142.3720 C   0  0  2  0  0  3  0  0  0  0  0  0
  185.9710  178.3960  143.2120 C   0  0  2  0  0  3  0  0  0  0  0  0
  185.3230  179.5260  142.4380 C   0  0  0  0  0  2  0  0  0  0  0  0
  183.6250  178.0480  143.2130 O   0  0  0  0  0  0  0  0  0  0  0  0
  182.7670  179.0540  142.7680 C   0  0  0  0  0  2  0  0  0  0  0  0
  181.6230  178.4400  141.9800 C   0  0  0  0  0  2  0  0  0  0  0  0
  180.5020  179.4490  141.8150 C   0  0  0  0  0  2  0  0  0  0  0  0
  179.8000  179.1850  140.6370 O   0  0  0  0  0  0  0  0  0  0  0  0
  180.7700  179.1650  139.6330 C   0  0  2  0  0  3  0  0  0  0  0  0
  180.0460  181.3380  138.6140 C   0  0  2  0  0  3  0  0  0  0  0  0
  181.1910  180.5840  139.3070 C   0  0  2  0  0  0  0  0  0  0  0  0
  180.2380  179.8480  138.3860 C   0  0  1  0  0  3  0  0  0  0  0  0
  180.4350  182.1390  137.3980 C   0  0  0  0  0  0  0  0  0  0  0  0
  181.2620  184.2770  136.3080 C   0  0  0  0  0  2  0  0  0  0  0  0
  180.6920  182.3090  134.9120 C   0  0  0  0  0  2  0  0  0  0  0  0
  180.5110  183.8150  135.0680 C   0  0  0  0  0  2  0  0  0  0  0  0
  180.3510  181.5700  136.1810 C   0  0  0  0  0  3  0  0  0  0  0  0
  180.6500  183.6290  137.5500 C   0  0  0  0  0  2  0  0  0  0  0  0
  182.5530  180.5990  138.6210 C   0  0  0  0  0  2  0  0  0  0  0  0
  184.3060  179.2570  138.6780 C   0  0  0  0  0  1  0  0  0  0  0  0
  183.5190  180.0810  139.4840 O   0  0  0  0  0  0  0  0  0  0  0  0
  187.5970  178.7740  141.2950 C   0  0  0  0  0  2  0  0  0  0  0  0
  187.6620  178.0430  139.9570 C   0  0  0  0  0  2  0  0  0  0  0  0
  190.2040  177.2970  137.9290 N   0  0  0  0  0  0  0  0  0  0  0  0
  189.2860  177.6360  137.1030 C   0  0  0  0  0  0  0  0  0  0  0  0
  188.6690  178.6500  139.0990 N   0  0  0  0  0  0  0  0  0  0  0  0
  189.8980  177.8550  139.2320 C   0  0  0  0  0  2  0  0  0  0  0  0
  188.2320  178.4580  137.7170 C   0  0  0  0  0  2  0  0  0  0  0  0
  189.2820  177.2580  135.7600 O   0  0  0  0  0  0  0  0  0  0  0  0
  189.2680  175.8940  135.3630 C   0  0  0  0  0  1  0  0  0  0  0  0
  1 35  1  6  0  0  0
  1  3  1  0  0  0  0
  2  5  1  0  0  0  0
  2  6  2  0  0  0  0
  3 11  1  0  0  0  0
  4  7  1  0  0  0  0
  4  8  1  0  0  0  0
  7  9  1  0  0  0  0
  8  2  1  0  0  0  0
  9  5  1  0  0  0  0
 11 10  1  0  0  0  0
 11  7  2  0  0  0  0
 12  3  2  0  0  0  0
 12 13  1  0  0  0  0
 13  4  2  0  0  0  0
 14 16  1  0  0  0  0
 14 15  1  0  0  0  0
 14 17  1  1  0  0  0
 15  1  1  6  0  0  0
 16 15  1  0  0  0  0
 18 17  1  0  0  0  0
 19 18  1  0  0  0  0
 20 19  1  0  0  0  0
 21 20  1  0  0  0  0
 22 21  1  1  0  0  0
 23 26  1  6  0  0  0
 23 24  1  0  0  0  0
 24 32  1  6  0  0  0
 24 22  1  0  0  0  0
 25 23  1  0  0  0  0
 25 24  1  0  0  0  0
 25 22  1  0  0  0  0
 26 31  1  0  0  0  0
 27 31  1  0  0  0  0
 28 29  1  0  0  0  0
 28 30  1  0  0  0  0
 29 27  1  0  0  0  0
 30 26  2  0  0  0  0
 32 34  1  0  0  0  0
 33 34  1  0  0  0  0
 36 35  1  0  0  0  0
 37 40  1  0  0  0  0
 38 41  1  0  0  0  0
 38 37  2  0  0  0  0
 39 40  1  0  0  0  0
 39 36  1  0  0  0  0
 41 39  1  0  0  0  0
 42 38  1  0  0  0  0
 43 42  1  0  0  0  0
M  END
>  <MODEL>
3

>  <REMARK>
 VINA RESULT:      -6.9      3.272      9.141
  Name = 
  15 active torsions:
  status: ('A' for Active; 'I' for Inactive)
    1  A    between atoms: C_1  and  C_34
    2  A    between atoms: C_1  and  C_35
    3  A    between atoms: C_2  and  C_7
    4  A    between atoms: C_2  and  O_12
    5  A    between atoms: O_3  and  C_4
    6  A    between atoms: O_3  and  C_17
    7  A    between atoms: C_6  and  O_12
    8  A    between atoms: C_7  and  C_17
    9  A    between atoms: C_8  and  C_34
   10  A    between atoms: C_10  and  C_22
   11  A    between atoms: C_10  and  O_42
   12  A    between atoms: C_11  and  C_14
   13  A    between atoms: C_13  and  C_34
   14  A    between atoms: C_19  and  O_25
   15  A    between atoms: N_28  and  C_35
                            x       y       z     vdW  Elec       q    Type
                         _______ _______ _______ _____ _____    ______ ____

>  <TORSDO>
F 15

$$$$
=
 OpenBabel11052416263D

 43 49  0  0  1  0  0  0  0  0999 V2000
  189.8010  177.1440  139.6550 C   0  0  1  0  0  3  0  0  0  0  0  0
  191.2260  177.1100  146.0890 C   0  0  0  0  0  0  0  0  0  0  0  0
  190.3730  177.1420  141.0540 C   0  0  0  0  0  0  0  0  0  0  0  0
  191.4830  177.0590  143.6340 C   0  0  0  0  0  0  0  0  0  0  0  0
  189.8100  177.0720  145.9250 N   0  0  0  0  0  2  0  0  0  0  0  0
  191.7300  177.2200  147.2370 O   0  0  0  0  0  0  0  0  0  0  0  0
  190.0860  176.9380  143.4700 C   0  0  0  0  0  0  0  0  0  0  0  0
  192.0640  177.0710  144.9390 N   0  0  0  0  0  2  0  0  0  0  0  0
  189.2050  176.6500  144.6650 C   0  0  0  0  0  2  0  0  0  0  0  0
  188.0510  176.8460  141.9860 C   0  0  0  0  0  1  0  0  0  0  0  0
  189.5330  176.9740  142.1740 C   0  0  0  0  0  0  0  0  0  0  0  0
  191.7590  177.2520  141.2430 C   0  0  0  0  0  3  0  0  0  0  0  0
  192.3070  177.2150  142.5220 C   0  0  0  0  0  3  0  0  0  0  0  0
  187.7920  177.8410  138.3920 C   0  0  2  0  0  3  0  0  0  0  0  0
  188.8280  178.2920  139.4040 C   0  0  2  0  0  3  0  0  0  0  0  0
  188.9190  178.7580  137.9660 C   0  0  0  0  0  2  0  0  0  0  0  0
  186.6240  178.5830  138.5770 O   0  0  0  0  0  0  0  0  0  0  0  0
  185.7200  178.0570  137.6520 C   0  0  0  0  0  2  0  0  0  0  0  0
  184.3480  177.9380  138.2890 C   0  0  0  0  0  2  0  0  0  0  0  0
  183.8360  179.3090  138.6890 C   0  0  0  0  0  2  0  0  0  0  0  0
  184.2690  179.6150  139.9810 O   0  0  0  0  0  0  0  0  0  0  0  0
  183.6680  178.6580  140.8020 C   0  0  2  0  0  3  0  0  0  0  0  0
  184.9760  179.2970  142.8430 C   0  0  2  0  0  3  0  0  0  0  0  0
  183.5770  179.1900  142.2180 C   0  0  2  0  0  0  0  0  0  0  0  0
  184.6540  178.1870  141.8550 C   0  0  1  0  0  3  0  0  0  0  0  0
  185.1030  178.7670  144.2480 C   0  0  0  0  0  0  0  0  0  0  0  0
  184.2800  178.5760  146.6410 C   0  0  0  0  0  2  0  0  0  0  0  0
  186.3640  177.4260  145.9470 C   0  0  0  0  0  2  0  0  0  0  0  0
  185.7330  178.3150  147.0130 C   0  0  0  0  0  2  0  0  0  0  0  0
  186.1450  177.9740  144.5600 C   0  0  0  0  0  3  0  0  0  0  0  0
  184.2180  179.3530  145.3270 C   0  0  0  0  0  2  0  0  0  0  0  0
  182.5140  178.4360  143.0090 C   0  0  0  0  0  2  0  0  0  0  0  0
  180.5180  178.6300  143.9360 C   0  0  0  0  0  1  0  0  0  0  0  0
  181.2770  179.0610  142.8470 O   0  0  0  0  0  0  0  0  0  0  0  0
  190.8710  177.0350  138.5640 C   0  0  0  0  0  2  0  0  0  0  0  0
  190.9740  175.6430  137.9490 C   0  0  0  0  0  2  0  0  0  0  0  0
  194.3060  175.6100  138.1050 N   0  0  0  0  0  0  0  0  0  0  0  0
  194.0320  174.3820  137.8680 C   0  0  0  0  0  0  0  0  0  0  0  0
  192.1660  175.5440  137.1200 N   0  0  0  0  0  0  0  0  0  0  0  0
  193.1820  176.4330  137.7010 C   0  0  0  0  0  2  0  0  0  0  0  0
  192.6950  174.1910  137.2830 C   0  0  0  0  0  2  0  0  0  0  0  0
  194.9080  173.3320  138.1440 O   0  0  0  0  0  0  0  0  0  0  0  0
  196.2610  173.5590  138.5120 C   0  0  0  0  0  1  0  0  0  0  0  0
  1 35  1  6  0  0  0
  1  3  1  0  0  0  0
  2  6  2  0  0  0  0
  3 12  2  0  0  0  0
  3 11  1  0  0  0  0
  4  8  1  0  0  0  0
  5  2  1  0  0  0  0
  7  4  1  0  0  0  0
  7  9  1  0  0  0  0
  8  2  1  0  0  0  0
  9  5  1  0  0  0  0
 10 11  1  0  0  0  0
 11  7  2  0  0  0  0
 12 13  1  0  0  0  0
 13  4  2  0  0  0  0
 14 17  1  1  0  0  0
 14 15  1  0  0  0  0
 15  1  1  6  0  0  0
 16 14  1  0  0  0  0
 16 15  1  0  0  0  0
 18 19  1  0  0  0  0
 18 17  1  0  0  0  0
 19 20  1  0  0  0  0
 20 21  1  0  0  0  0
 22 21  1  6  0  0  0
 22 25  1  0  0  0  0
 22 24  1  0  0  0  0
 23 26  1  1  0  0  0
 24 23  1  0  0  0  0
 24 32  1  1  0  0  0
 25 24  1  0  0  0  0
 25 23  1  0  0  0  0
 26 30  2  0  0  0  0
 26 31  1  0  0  0  0
 27 29  1  0  0  0  0
 28 29  1  0  0  0  0
 30 28  1  0  0  0  0
 31 27  1  0  0  0  0
 34 32  1  0  0  0  0
 34 33  1  0  0  0  0
 36 35  1  0  0  0  0
 38 37  2  0  0  0  0
 38 42  1  0  0  0  0
 39 41  1  0  0  0  0
 39 40  1  0  0  0  0
 39 36  1  0  0  0  0
 40 37  1  0  0  0  0
 41 38  1  0  0  0  0
 42 43  1  0  0  0  0
M  END
>  <MODEL>
4

>  <REMARK>
 VINA RESULT:      -6.9      4.120      9.214
  Name = 
  15 active torsions:
  status: ('A' for Active; 'I' for Inactive)
    1  A    between atoms: C_1  and  C_34
    2  A    between atoms: C_1  and  C_35
    3  A    between atoms: C_2  and  C_7
    4  A    between atoms: C_2  and  O_12
    5  A    between atoms: O_3  and  C_4
    6  A    between atoms: O_3  and  C_17
    7  A    between atoms: C_6  and  O_12
    8  A    between atoms: C_7  and  C_17
    9  A    between atoms: C_8  and  C_34
   10  A    between atoms: C_10  and  C_22
   11  A    between atoms: C_10  and  O_42
   12  A    between atoms: C_11  and  C_14
   13  A    between atoms: C_13  and  C_34
   14  A    between atoms: C_19  and  O_25
   15  A    between atoms: N_28  and  C_35
                            x       y       z     vdW  Elec       q    Type
                         _______ _______ _______ _____ _____    ______ ____

>  <TORSDO>
F 15

$$$$
=
 OpenBabel11052416263D

 43 49  0  0  1  0  0  0  0  0999 V2000
  181.6800  178.3560  141.4110 C   0  0  1  0  0  3  0  0  0  0  0  0
  185.9920  176.6360  136.7340 C   0  0  0  0  0  0  0  0  0  0  0  0
  182.7600  178.2010  140.3660 C   0  0  0  0  0  0  0  0  0  0  0  0
  184.7310  177.9820  138.3740 C   0  0  0  0  0  0  0  0  0  0  0  0
  185.1250  175.5340  136.9960 N   0  0  0  0  0  2  0  0  0  0  0  0
  186.9680  176.5030  135.9510 O   0  0  0  0  0  0  0  0  0  0  0  0
  183.8210  176.9220  138.5750 C   0  0  0  0  0  0  0  0  0  0  0  0
  185.7720  177.8730  137.4030 N   0  0  0  0  0  2  0  0  0  0  0  0
  183.8330  175.7270  137.6490 C   0  0  0  0  0  2  0  0  0  0  0  0
  181.8560  175.9190  139.7950 C   0  0  0  0  0  1  0  0  0  0  0  0
  182.8300  177.0370  139.5720 C   0  0  0  0  0  0  0  0  0  0  0  0
  183.6720  179.2430  140.1410 C   0  0  0  0  0  3  0  0  0  0  0  0
  184.6500  179.1320  139.1560 C   0  0  0  0  0  3  0  0  0  0  0  0
  182.7460  178.4640  143.6400 C   0  0  2  0  0  3  0  0  0  0  0  0
  182.0770  179.2850  142.5540 C   0  0  2  0  0  3  0  0  0  0  0  0
  181.3160  178.9290  143.8150 C   0  0  0  0  0  2  0  0  0  0  0  0
  183.6030  179.2900  144.3700 O   0  0  0  0  0  0  0  0  0  0  0  0
  184.6950  178.4790  144.6820 C   0  0  0  0  0  2  0  0  0  0  0  0
  185.3950  179.0150  145.9180 C   0  0  0  0  0  2  0  0  0  0  0  0
  186.6430  178.2020  146.2070 C   0  0  0  0  0  2  0  0  0  0  0  0
  186.7230  177.1300  145.3140 O   0  0  0  0  0  0  0  0  0  0  0  0
  188.0740  177.0410  144.9730 C   0  0  2  0  0  3  0  0  0  0  0  0
  187.6990  177.5360  142.5440 C   0  0  2  0  0  3  0  0  0  0  0  0
  188.3760  178.0030  143.8430 C   0  0  2  0  0  0  0  0  0  0  0  0
  188.2160  176.5240  143.5540 C   0  0  1  0  0  3  0  0  0  0  0  0
  188.5620  177.5770  141.3090 C   0  0  0  0  0  0  0  0  0  0  0  0
  189.1480  178.5250  139.0290 C   0  0  0  0  0  2  0  0  0  0  0  0
  190.4950  176.6800  139.9920 C   0  0  0  0  0  2  0  0  0  0  0  0
  189.7760  177.1690  138.7390 C   0  0  0  0  0  2  0  0  0  0  0  0
  189.6010  176.7260  141.2040 C   0  0  0  0  0  3  0  0  0  0  0  0
  188.0840  178.3750  140.1170 C   0  0  0  0  0  2  0  0  0  0  0  0
  189.8680  178.3120  143.7800 C   0  0  0  0  0  2  0  0  0  0  0  0
  191.6320  177.2160  144.5330 C   0  0  0  0  0  1  0  0  0  0  0  0
  190.4850  177.8870  144.9580 O   0  0  0  0  0  0  0  0  0  0  0  0
  180.3120  178.7100  140.8180 C   0  0  0  0  0  2  0  0  0  0  0  0
  180.0600  180.2110  140.7210 C   0  0  0  0  0  2  0  0  0  0  0  0
  180.4430  181.8130  137.8190 N   0  0  0  0  0  0  0  0  0  0  0  0
  180.5270  180.5850  137.4660 C   0  0  0  0  0  0  0  0  0  0  0  0
  179.3700  180.5280  139.4790 N   0  0  0  0  0  0  0  0  0  0  0  0
  179.7580  181.8930  139.0950 C   0  0  0  0  0  2  0  0  0  0  0  0
  179.9270  179.6620  138.4410 C   0  0  0  0  0  2  0  0  0  0  0  0
  181.1330  180.1670  136.2820 O   0  0  0  0  0  0  0  0  0  0  0  0
  180.7300  180.6640  135.0140 C   0  0  0  0  0  1  0  0  0  0  0  0
  1 35  1  6  0  0  0
  2  5  1  0  0  0  0
  2  8  1  0  0  0  0
  3  1  1  0  0  0  0
  4  7  2  0  0  0  0
  4 13  1  0  0  0  0
  5  9  1  0  0  0  0
  6  2  2  0  0  0  0
  7 11  1  0  0  0  0
  8  4  1  0  0  0  0
  9  7  1  0  0  0  0
 11 10  1  0  0  0  0
 11  3  2  0  0  0  0
 12  3  1  0  0  0  0
 13 12  2  0  0  0  0
 14 16  1  0  0  0  0
 14 17  1  1  0  0  0
 15  1  1  6  0  0  0
 15 14  1  0  0  0  0
 15 16  1  0  0  0  0
 17 18  1  0  0  0  0
 18 19  1  0  0  0  0
 19 20  1  0  0  0  0
 21 20  1  0  0  0  0
 22 21  1  6  0  0  0
 23 26  1  6  0  0  0
 23 25  1  0  0  0  0
 23 24  1  0  0  0  0
 24 32  1  6  0  0  0
 24 22  1  0  0  0  0
 25 24  1  0  0  0  0
 25 22  1  0  0  0  0
 27 31  1  0  0  0  0
 28 30  1  0  0  0  0
 29 27  1  0  0  0  0
 29 28  1  0  0  0  0
 30 26  2  0  0  0  0
 31 26  1  0  0  0  0
 32 34  1  0  0  0  0
 33 34  1  0  0  0  0
 36 35  1  0  0  0  0
 37 40  1  0  0  0  0
 38 37  2  0  0  0  0
 38 41  1  0  0  0  0
 39 36  1  0  0  0  0
 40 39  1  0  0  0  0
 41 39  1  0  0  0  0
 42 38  1  0  0  0  0
 43 42  1  0  0  0  0
M  END
>  <MODEL>
5

>  <REMARK>
 VINA RESULT:      -6.9      2.535      5.656
  Name = 
  15 active torsions:
  status: ('A' for Active; 'I' for Inactive)
    1  A    between atoms: C_1  and  C_34
    2  A    between atoms: C_1  and  C_35
    3  A    between atoms: C_2  and  C_7
    4  A    between atoms: C_2  and  O_12
    5  A    between atoms: O_3  and  C_4
    6  A    between atoms: O_3  and  C_17
    7  A    between atoms: C_6  and  O_12
    8  A    between atoms: C_7  and  C_17
    9  A    between atoms: C_8  and  C_34
   10  A    between atoms: C_10  and  C_22
   11  A    between atoms: C_10  and  O_42
   12  A    between atoms: C_11  and  C_14
   13  A    between atoms: C_13  and  C_34
   14  A    between atoms: C_19  and  O_25
   15  A    between atoms: N_28  and  C_35
                            x       y       z     vdW  Elec       q    Type
                         _______ _______ _______ _____ _____    ______ ____

>  <TORSDO>
F 15

$$$$
=
 OpenBabel11052416263D

 43 49  0  0  1  0  0  0  0  0999 V2000
  185.8940  177.6750  138.6030 C   0  0  1  0  0  3  0  0  0  0  0  0
  192.4090  176.7760  138.1770 C   0  0  0  0  0  0  0  0  0  0  0  0
  187.3410  177.4090  138.2590 C   0  0  0  0  0  0  0  0  0  0  0  0
  190.0090  176.8270  137.5970 C   0  0  0  0  0  0  0  0  0  0  0  0
  192.0770  177.1620  139.5100 N   0  0  0  0  0  2  0  0  0  0  0  0
  193.6120  176.6540  137.8320 O   0  0  0  0  0  0  0  0  0  0  0  0
  189.6710  177.1270  138.9340 C   0  0  0  0  0  0  0  0  0  0  0  0
  191.3660  176.5770  137.2280 N   0  0  0  0  0  2  0  0  0  0  0  0
  190.7170  177.0230  140.0220 C   0  0  0  0  0  2  0  0  0  0  0  0
  187.9580  177.7330  140.6800 C   0  0  0  0  0  1  0  0  0  0  0  0
  188.3300  177.4140  139.2640 C   0  0  0  0  0  0  0  0  0  0  0  0
  187.7020  177.1000  136.9390 C   0  0  0  0  0  3  0  0  0  0  0  0
  189.0250  176.8150  136.6120 C   0  0  0  0  0  3  0  0  0  0  0  0
  184.6760  178.6820  140.5050 C   0  0  2  0  0  3  0  0  0  0  0  0
  185.6920  178.9530  139.4120 C   0  0  2  0  0  3  0  0  0  0  0  0
  184.2690  179.4530  139.2670 C   0  0  0  0  0  2  0  0  0  0  0  0
  184.8980  179.5690  141.5600 O   0  0  0  0  0  0  0  0  0  0  0  0
  184.7060  178.8050  142.7120 C   0  0  0  0  0  2  0  0  0  0  0  0
  184.2850  179.7050  143.8600 C   0  0  0  0  0  2  0  0  0  0  0  0
  184.2910  178.9270  145.1630 C   0  0  0  0  0  2  0  0  0  0  0  0
  185.4830  179.1700  145.8500 O   0  0  0  0  0  0  0  0  0  0  0  0
  185.9630  177.9080  146.2030 C   0  0  2  0  0  3  0  0  0  0  0  0
  188.1050  178.1430  144.9230 C   0  0  2  0  0  3  0  0  0  0  0  0
  187.4740  177.9500  146.3110 C   0  0  2  0  0  0  0  0  0  0  0  0
  186.8200  177.3470  145.0830 C   0  0  1  0  0  3  0  0  0  0  0  0
  189.2760  177.2460  144.6110 C   0  0  0  0  0  0  0  0  0  0  0  0
  191.6570  176.4670  145.0160 C   0  0  0  0  0  2  0  0  0  0  0  0
  190.2920  175.4200  143.2310 C   0  0  0  0  0  2  0  0  0  0  0  0
  191.6520  176.0260  143.5590 C   0  0  0  0  0  2  0  0  0  0  0  0
  189.1620  176.3340  143.6270 C   0  0  0  0  0  3  0  0  0  0  0  0
  190.6220  177.5730  145.2200 C   0  0  0  0  0  2  0  0  0  0  0  0
  187.9880  176.7920  147.1580 C   0  0  0  0  0  2  0  0  0  0  0  0
  188.8300  178.3990  148.4170 C   0  0  0  0  0  1  0  0  0  0  0  0
  188.1160  177.2020  148.4850 O   0  0  0  0  0  0  0  0  0  0  0  0
  184.9610  177.5980  137.3900 C   0  0  0  0  0  2  0  0  0  0  0  0
  184.2710  176.2460  137.2380 C   0  0  0  0  0  2  0  0  0  0  0  0
  181.3900  174.6150  137.6500 N   0  0  0  0  0  0  0  0  0  0  0  0
  181.4360  175.3560  138.6940 C   0  0  0  0  0  0  0  0  0  0  0  0
  182.8280  176.4200  137.1690 N   0  0  0  0  0  0  0  0  0  0  0  0
  182.2590  175.1760  136.6330 C   0  0  0  0  0  2  0  0  0  0  0  0
  182.3370  176.5090  138.5430 C   0  0  0  0  0  2  0  0  0  0  0  0
  180.7120  175.0910  139.8560 O   0  0  0  0  0  0  0  0  0  0  0  0
  179.2970  175.2100  139.9040 C   0  0  0  0  0  1  0  0  0  0  0  0
  1 35  1  6  0  0  0
  2  5  1  0  0  0  0
  3  1  1  0  0  0  0
  3 11  1  0  0  0  0
  4  7  1  0  0  0  0
  5  9  1  0  0  0  0
  6  2  2  0  0  0  0
  7 11  2  0  0  0  0
  7  9  1  0  0  0  0
  8  4  1  0  0  0  0
  8  2  1  0  0  0  0
 11 10  1  0  0  0  0
 12  3  2  0  0  0  0
 13 12  1  0  0  0  0
 13  4  2  0  0  0  0
 14 17  1  1  0  0  0
 15  1  1  6  0  0  0
 15 14  1  0  0  0  0
 16 15  1  0  0  0  0
 16 14  1  0  0  0  0
 17 18  1  0  0  0  0
 18 19  1  0  0  0  0
 19 20  1  0  0  0  0
 20 21  1  0  0  0  0
 22 21  1  6  0  0  0
 22 24  1  0  0  0  0
 23 26  1  1  0  0  0
 23 25  1  0  0  0  0
 23 24  1  0  0  0  0
 24 32  1  1  0  0  0
 25 22  1  0  0  0  0
 25 24  1  0  0  0  0
 26 31  1  0  0  0  0
 27 31  1  0  0  0  0
 28 29  1  0  0  0  0
 28 30  1  0  0  0  0
 29 27  1  0  0  0  0
 30 26  2  0  0  0  0
 32 34  1  0  0  0  0
 33 34  1  0  0  0  0
 36 35  1  0  0  0  0
 37 38  2  0  0  0  0
 38 42  1  0  0  0  0
 39 36  1  0  0  0  0
 39 41  1  0  0  0  0
 40 39  1  0  0  0  0
 40 37  1  0  0  0  0
 41 38  1  0  0  0  0
 42 43  1  0  0  0  0
M  END
>  <MODEL>
6

>  <REMARK>
 VINA RESULT:      -6.8      3.619      7.198
  Name = 
  15 active torsions:
  status: ('A' for Active; 'I' for Inactive)
    1  A    between atoms: C_1  and  C_34
    2  A    between atoms: C_1  and  C_35
    3  A    between atoms: C_2  and  C_7
    4  A    between atoms: C_2  and  O_12
    5  A    between atoms: O_3  and  C_4
    6  A    between atoms: O_3  and  C_17
    7  A    between atoms: C_6  and  O_12
    8  A    between atoms: C_7  and  C_17
    9  A    between atoms: C_8  and  C_34
   10  A    between atoms: C_10  and  C_22
   11  A    between atoms: C_10  and  O_42
   12  A    between atoms: C_11  and  C_14
   13  A    between atoms: C_13  and  C_34
   14  A    between atoms: C_19  and  O_25
   15  A    between atoms: N_28  and  C_35
                            x       y       z     vdW  Elec       q    Type
                         _______ _______ _______ _____ _____    ______ ____

>  <TORSDO>
F 15

$$$$
=
 OpenBabel11052416263D

 43 49  0  0  1  0  0  0  0  0999 V2000
  189.8200  176.6710  138.5010 C   0  0  1  0  0  3  0  0  0  0  0  0
  195.0660  173.1250  136.6710 C   0  0  0  0  0  0  0  0  0  0  0  0
  191.1590  176.0690  138.1400 C   0  0  0  0  0  0  0  0  0  0  0  0
  193.6590  175.0170  137.4050 C   0  0  0  0  0  0  0  0  0  0  0  0
  193.8900  172.3330  136.5160 N   0  0  0  0  0  2  0  0  0  0  0  0
  196.2020  172.6190  136.4840 O   0  0  0  0  0  0  0  0  0  0  0  0
  192.4880  174.2620  137.1730 C   0  0  0  0  0  0  0  0  0  0  0  0
  194.9440  174.4820  137.0870 N   0  0  0  0  0  2  0  0  0  0  0  0
  192.5680  172.9480  136.4300 C   0  0  0  0  0  2  0  0  0  0  0  0
  189.9840  174.0060  137.2970 C   0  0  0  0  0  1  0  0  0  0  0  0
  191.2340  174.7960  137.5390 C   0  0  0  0  0  0  0  0  0  0  0  0
  192.3360  176.8010  138.3530 C   0  0  0  0  0  3  0  0  0  0  0  0
  193.5750  176.2770  137.9910 C   0  0  0  0  0  3  0  0  0  0  0  0
  189.9290  176.8900  140.9620 C   0  0  2  0  0  3  0  0  0  0  0  0
  189.8990  177.6630  139.6580 C   0  0  2  0  0  3  0  0  0  0  0  0
  188.6540  177.5740  140.5170 C   0  0  0  0  0  2  0  0  0  0  0  0
  190.5660  177.6650  141.9340 O   0  0  0  0  0  0  0  0  0  0  0  0
  191.7460  176.9760  142.2190 C   0  0  0  0  0  2  0  0  0  0  0  0
  191.4800  175.9180  143.2740 C   0  0  0  0  0  2  0  0  0  0  0  0
  191.4450  176.5520  144.6520 C   0  0  0  0  0  2  0  0  0  0  0  0
  190.1970  176.3330  145.2400 O   0  0  0  0  0  0  0  0  0  0  0  0
  189.7020  177.6070  145.5290 C   0  0  2  0  0  3  0  0  0  0  0  0
  187.3760  177.1010  144.7430 C   0  0  2  0  0  3  0  0  0  0  0  0
  188.2480  177.5050  145.9420 C   0  0  2  0  0  0  0  0  0  0  0  0
  188.6060  177.9720  144.5450 C   0  0  1  0  0  3  0  0  0  0  0  0
  186.1040  177.8900  144.5680 C   0  0  0  0  0  0  0  0  0  0  0  0
  183.9340  178.8480  145.4680 C   0  0  0  0  0  2  0  0  0  0  0  0
  184.5620  179.2040  143.0960 C   0  0  0  0  0  2  0  0  0  0  0  0
  183.4310  178.7900  144.0320 C   0  0  0  0  0  2  0  0  0  0  0  0
  185.8240  178.4270  143.3650 C   0  0  0  0  0  3  0  0  0  0  0  0
  185.0580  177.8310  145.6590 C   0  0  0  0  0  2  0  0  0  0  0  0
  187.8230  178.7390  146.7300 C   0  0  0  0  0  2  0  0  0  0  0  0
  188.4290  178.0210  148.7300 C   0  0  0  0  0  1  0  0  0  0  0  0
  187.3070  178.3510  147.9670 O   0  0  0  0  0  0  0  0  0  0  0  0
  189.0680  177.2380  137.2930 C   0  0  0  0  0  2  0  0  0  0  0  0
  187.9470  176.3320  136.7950 C   0  0  0  0  0  2  0  0  0  0  0  0
  184.8660  177.2190  137.7190 N   0  0  0  0  0  0  0  0  0  0  0  0
  185.5360  178.2870  137.9420 C   0  0  0  0  0  0  0  0  0  0  0  0
  186.8020  177.1290  136.3780 N   0  0  0  0  0  0  0  0  0  0  0  0
  185.5890  176.3960  136.7690 C   0  0  0  0  0  2  0  0  0  0  0  0
  186.8000  178.3430  137.1920 C   0  0  0  0  0  2  0  0  0  0  0  0
  185.1130  179.2910  138.8140 O   0  0  0  0  0  0  0  0  0  0  0  0
  183.8150  179.2900  139.3900 C   0  0  0  0  0  1  0  0  0  0  0  0
  1 35  1  6  0  0  0
  2  8  1  0  0  0  0
  3 12  1  0  0  0  0
  3  1  1  0  0  0  0
  4 13  1  0  0  0  0
  5  2  1  0  0  0  0
  6  2  2  0  0  0  0
  7  4  2  0  0  0  0
  7 11  1  0  0  0  0
  8  4  1  0  0  0  0
  9  5  1  0  0  0  0
  9  7  1  0  0  0  0
 10 11  1  0  0  0  0
 11  3  2  0  0  0  0
 13 12  2  0  0  0  0
 14 17  1  1  0  0  0
 15  1  1  6  0  0  0
 15 16  1  0  0  0  0
 15 14  1  0  0  0  0
 16 14  1  0  0  0  0
 17 18  1  0  0  0  0
 18 19  1  0  0  0  0
 19 20  1  0  0  0  0
 20 21  1  0  0  0  0
 22 21  1  6  0  0  0
 22 24  1  0  0  0  0
 23 26  1  1  0  0  0
 23 24  1  0  0  0  0
 24 32  1  1  0  0  0
 25 23  1  0  0  0  0
 25 22  1  0  0  0  0
 25 24  1  0  0  0  0
 26 31  1  0  0  0  0
 27 31  1  0  0  0  0
 28 30  1  0  0  0  0
 28 29  1  0  0  0  0
 29 27  1  0  0  0  0
 30 26  2  0  0  0  0
 32 34  1  0  0  0  0
 34 33  1  0  0  0  0
 36 35  1  0  0  0  0
 37 38  2  0  0  0  0
 38 42  1  0  0  0  0
 39 40  1  0  0  0  0
 39 36  1  0  0  0  0
 39 41  1  0  0  0  0
 40 37  1  0  0  0  0
 41 38  1  0  0  0  0
 42 43  1  0  0  0  0
M  END
>  <MODEL>
7

>  <REMARK>
 VINA RESULT:      -6.8      4.001      9.078
  Name = 
  15 active torsions:
  status: ('A' for Active; 'I' for Inactive)
    1  A    between atoms: C_1  and  C_34
    2  A    between atoms: C_1  and  C_35
    3  A    between atoms: C_2  and  C_7
    4  A    between atoms: C_2  and  O_12
    5  A    between atoms: O_3  and  C_4
    6  A    between atoms: O_3  and  C_17
    7  A    between atoms: C_6  and  O_12
    8  A    between atoms: C_7  and  C_17
    9  A    between atoms: C_8  and  C_34
   10  A    between atoms: C_10  and  C_22
   11  A    between atoms: C_10  and  O_42
   12  A    between atoms: C_11  and  C_14
   13  A    between atoms: C_13  and  C_34
   14  A    between atoms: C_19  and  O_25
   15  A    between atoms: N_28  and  C_35
                            x       y       z     vdW  Elec       q    Type
                         _______ _______ _______ _____ _____    ______ ____

>  <TORSDO>
F 15

$$$$
=
 OpenBabel11052416263D

 43 49  0  0  1  0  0  0  0  0999 V2000
  185.9730  177.7150  138.2040 C   0  0  1  0  0  3  0  0  0  0  0  0
  192.5000  176.8310  138.4280 C   0  0  0  0  0  0  0  0  0  0  0  0
  187.4470  177.4400  138.0090 C   0  0  0  0  0  0  0  0  0  0  0  0
  190.1650  176.8390  137.6270 C   0  0  0  0  0  0  0  0  0  0  0  0
  192.0470  177.2790  139.7040 N   0  0  0  0  0  2  0  0  0  0  0  0
  193.7310  176.6980  138.2020 O   0  0  0  0  0  0  0  0  0  0  0  0
  189.7040  177.2030  138.9100 C   0  0  0  0  0  0  0  0  0  0  0  0
  191.5500  176.5790  137.3970 N   0  0  0  0  0  2  0  0  0  0  0  0
  190.6440  177.1590  140.0940 C   0  0  0  0  0  2  0  0  0  0  0  0
  187.8360  177.8860  140.4580 C   0  0  0  0  0  1  0  0  0  0  0  0
  188.3380  177.4990  139.1000 C   0  0  0  0  0  0  0  0  0  0  0  0
  187.9290  177.0680  136.7450 C   0  0  0  0  0  3  0  0  0  0  0  0
  189.2760  176.7740  136.5560 C   0  0  0  0  0  3  0  0  0  0  0  0
  184.6710  178.5650  140.1270 C   0  0  2  0  0  3  0  0  0  0  0  0
  185.6990  178.9370  139.0750 C   0  0  2  0  0  3  0  0  0  0  0  0
  184.2590  179.3840  138.9220 C   0  0  0  0  0  2  0  0  0  0  0  0
  184.8310  179.4010  141.2330 O   0  0  0  0  0  0  0  0  0  0  0  0
  184.4440  178.6230  142.3250 C   0  0  0  0  0  2  0  0  0  0  0  0
  183.7500  179.4960  143.3550 C   0  0  0  0  0  2  0  0  0  0  0  0
  183.9160  178.9000  144.7410 C   0  0  0  0  0  2  0  0  0  0  0  0
  185.1560  179.2710  145.2670 O   0  0  0  0  0  0  0  0  0  0  0  0
  185.6870  178.0990  145.8070 C   0  0  2  0  0  3  0  0  0  0  0  0
  187.8440  178.2520  144.5380 C   0  0  2  0  0  3  0  0  0  0  0  0
  187.1920  178.2320  145.9290 C   0  0  2  0  0  0  0  0  0  0  0  0
  186.5940  177.4260  144.7930 C   0  0  1  0  0  3  0  0  0  0  0  0
  189.0620  177.3800  144.3770 C   0  0  0  0  0  0  0  0  0  0  0  0
  191.4490  176.7530  144.9680 C   0  0  0  0  0  2  0  0  0  0  0  0
  190.2130  175.4620  143.2500 C   0  0  0  0  0  2  0  0  0  0  0  0
  191.5310  176.1580  143.5690 C   0  0  0  0  0  2  0  0  0  0  0  0
  189.0310  176.3630  143.4940 C   0  0  0  0  0  3  0  0  0  0  0  0
  190.3630  177.8280  145.0050 C   0  0  0  0  0  2  0  0  0  0  0  0
  187.7420  177.2350  146.9440 C   0  0  0  0  0  2  0  0  0  0  0  0
  189.0740  178.0580  148.5020 C   0  0  0  0  0  1  0  0  0  0  0  0
  187.7310  177.8070  148.2160 O   0  0  0  0  0  0  0  0  0  0  0  0
  185.1860  177.7440  136.8900 C   0  0  0  0  0  2  0  0  0  0  0  0
  183.9940  176.7930  136.8730 C   0  0  0  0  0  2  0  0  0  0  0  0
  183.1560  173.5790  136.5610 N   0  0  0  0  0  0  0  0  0  0  0  0
  184.1590  173.6780  135.7700 C   0  0  0  0  0  0  0  0  0  0  0  0
  184.4130  175.4510  137.2480 N   0  0  0  0  0  0  0  0  0  0  0  0
  183.1970  174.6690  137.5160 C   0  0  0  0  0  2  0  0  0  0  0  0
  185.0130  174.8390  136.0650 C   0  0  0  0  0  2  0  0  0  0  0  0
  184.4090  172.7810  134.7320 O   0  0  0  0  0  0  0  0  0  0  0  0
  185.5450  171.9280  134.7320 C   0  0  0  0  0  1  0  0  0  0  0  0
  1 35  1  6  0  0  0
  2  5  1  0  0  0  0
  3  1  1  0  0  0  0
  3 11  1  0  0  0  0
  4  7  1  0  0  0  0
  5  9  1  0  0  0  0
  6  2  2  0  0  0  0
  7 11  2  0  0  0  0
  7  9  1  0  0  0  0
  8  4  1  0  0  0  0
  8  2  1  0  0  0  0
 11 10  1  0  0  0  0
 12  3  2  0  0  0  0
 13 12  1  0  0  0  0
 13  4  2  0  0  0  0
 14 17  1  1  0  0  0
 15  1  1  6  0  0  0
 15 14  1  0  0  0  0
 16 15  1  0  0  0  0
 16 14  1  0  0  0  0
 17 18  1  0  0  0  0
 18 19  1  0  0  0  0
 19 20  1  0  0  0  0
 20 21  1  0  0  0  0
 22 21  1  6  0  0  0
 22 24  1  0  0  0  0
 23 26  1  1  0  0  0
 23 25  1  0  0  0  0
 23 24  1  0  0  0  0
 24 32  1  1  0  0  0
 25 22  1  0  0  0  0
 25 24  1  0  0  0  0
 26 31  1  0  0  0  0
 27 31  1  0  0  0  0
 28 30  1  0  0  0  0
 28 29  1  0  0  0  0
 29 27  1  0  0  0  0
 30 26  2  0  0  0  0
 32 34  1  0  0  0  0
 34 33  1  0  0  0  0
 36 35  1  0  0  0  0
 36 39  1  0  0  0  0
 37 40  1  0  0  0  0
 38 41  1  0  0  0  0
 38 37  2  0  0  0  0
 39 40  1  0  0  0  0
 41 39  1  0  0  0  0
 42 38  1  0  0  0  0
 43 42  1  0  0  0  0
M  END
>  <MODEL>
8

>  <REMARK>
 VINA RESULT:      -6.6      3.764      7.577
  Name = 
  15 active torsions:
  status: ('A' for Active; 'I' for Inactive)
    1  A    between atoms: C_1  and  C_34
    2  A    between atoms: C_1  and  C_35
    3  A    between atoms: C_2  and  C_7
    4  A    between atoms: C_2  and  O_12
    5  A    between atoms: O_3  and  C_4
    6  A    between atoms: O_3  and  C_17
    7  A    between atoms: C_6  and  O_12
    8  A    between atoms: C_7  and  C_17
    9  A    between atoms: C_8  and  C_34
   10  A    between atoms: C_10  and  C_22
   11  A    between atoms: C_10  and  O_42
   12  A    between atoms: C_11  and  C_14
   13  A    between atoms: C_13  and  C_34
   14  A    between atoms: C_19  and  O_25
   15  A    between atoms: N_28  and  C_35
                            x       y       z     vdW  Elec       q    Type
                         _______ _______ _______ _____ _____    ______ ____

>  <TORSDO>
F 15

$$$$
=
 OpenBabel11052416263D

 43 49  0  0  1  0  0  0  0  0999 V2000
  186.7340  177.9870  143.2820 C   0  0  1  0  0  3  0  0  0  0  0  0
  191.7890  176.0430  147.0370 C   0  0  0  0  0  0  0  0  0  0  0  0
  187.7590  177.6420  144.3380 C   0  0  0  0  0  0  0  0  0  0  0  0
  189.6710  177.0910  146.3220 C   0  0  0  0  0  0  0  0  0  0  0  0
  192.0560  175.6950  145.6800 N   0  0  0  0  0  2  0  0  0  0  0  0
  192.5690  175.6730  147.9530 O   0  0  0  0  0  0  0  0  0  0  0  0
  189.9710  176.8210  144.9690 C   0  0  0  0  0  0  0  0  0  0  0  0
  190.6070  176.7720  147.3520 N   0  0  0  0  0  2  0  0  0  0  0  0
  191.3530  176.3480  144.5790 C   0  0  0  0  0  2  0  0  0  0  0  0
  189.3170  176.8240  142.5350 C   0  0  0  0  0  1  0  0  0  0  0  0
  189.0110  177.1040  143.9750 C   0  0  0  0  0  0  0  0  0  0  0  0
  187.4890  177.9070  145.6890 C   0  0  0  0  0  3  0  0  0  0  0  0
  188.4350  177.6300  146.6710 C   0  0  0  0  0  3  0  0  0  0  0  0
  184.2730  178.1730  143.4360 C   0  0  2  0  0  3  0  0  0  0  0  0
  185.5840  178.8360  143.8140 C   0  0  2  0  0  3  0  0  0  0  0  0
  184.7570  179.3850  142.6690 C   0  0  0  0  0  2  0  0  0  0  0  0
  183.2910  178.5550  144.3510 O   0  0  0  0  0  0  0  0  0  0  0  0
  182.3000  179.1590  143.5760 C   0  0  0  0  0  2  0  0  0  0  0  0
  180.9390  178.6170  143.9710 C   0  0  0  0  0  2  0  0  0  0  0  0
  179.9430  178.8350  142.8470 C   0  0  0  0  0  2  0  0  0  0  0  0
  180.5090  179.6560  141.8700 O   0  0  0  0  0  0  0  0  0  0  0  0
  180.0720  179.1280  140.6530 C   0  0  2  0  0  3  0  0  0  0  0  0
  182.2520  178.0090  140.1250 C   0  0  2  0  0  3  0  0  0  0  0  0
  180.7550  177.8000  140.4010 C   0  0  2  0  0  0  0  0  0  0  0  0
  181.2320  179.0440  139.6780 C   0  0  1  0  0  3  0  0  0  0  0  0
  182.8120  177.2420  138.9550 C   0  0  0  0  0  0  0  0  0  0  0  0
  183.6270  177.1190  136.5550 C   0  0  0  0  0  2  0  0  0  0  0  0
  183.5870  175.0780  137.9610 C   0  0  0  0  0  2  0  0  0  0  0  0
  183.2180  175.6540  136.5980 C   0  0  0  0  0  2  0  0  0  0  0  0
  183.0560  175.9250  139.0880 C   0  0  0  0  0  3  0  0  0  0  0  0
  182.8300  177.9050  137.5950 C   0  0  0  0  0  2  0  0  0  0  0  0
  179.9680  176.9710  139.3930 C   0  0  0  0  0  2  0  0  0  0  0  0
  179.5840  174.8250  139.0370 C   0  0  0  0  0  1  0  0  0  0  0  0
  179.4800  175.8190  140.0110 O   0  0  0  0  0  0  0  0  0  0  0  0
  187.3540  178.5730  142.0090 C   0  0  0  0  0  2  0  0  0  0  0  0
  186.6220  178.1670  140.7330 C   0  0  0  0  0  2  0  0  0  0  0  0
  188.9110  177.2150  138.5000 N   0  0  0  0  0  0  0  0  0  0  0  0
  187.8290  177.1750  137.8160 C   0  0  0  0  0  0  0  0  0  0  0  0
  187.3530  178.6290  139.5630 N   0  0  0  0  0  0  0  0  0  0  0  0
  188.7140  178.0800  139.6480 C   0  0  0  0  0  2  0  0  0  0  0  0
  186.7500  177.9900  138.3950 C   0  0  0  0  0  2  0  0  0  0  0  0
  187.6870  176.4280  136.6470 O   0  0  0  0  0  0  0  0  0  0  0  0
  187.1300  175.1220  136.6520 C   0  0  0  0  0  1  0  0  0  0  0  0
  1 35  1  6  0  0  0
  1  3  1  0  0  0  0
  2  8  1  0  0  0  0
  2  6  2  0  0  0  0
  3 12  1  0  0  0  0
  4 13  1  0  0  0  0
  4  8  1  0  0  0  0
  5  2  1  0  0  0  0
  7  4  2  0  0  0  0
  9  7  1  0  0  0  0
  9  5  1  0  0  0  0
 10 11  1  0  0  0  0
 11  3  2  0  0  0  0
 11  7  1  0  0  0  0
 12 13  2  0  0  0  0
 14 15  1  0  0  0  0
 14 17  1  1  0  0  0
 15  1  1  6  0  0  0
 16 14  1  0  0  0  0
 16 15  1  0  0  0  0
 18 19  1  0  0  0  0
 18 17  1  0  0  0  0
 20 19  1  0  0  0  0
 21 20  1  0  0  0  0
 22 21  1  1  0  0  0
 23 26  1  6  0  0  0
 23 24  1  0  0  0  0
 24 32  1  6  0  0  0
 24 22  1  0  0  0  0
 25 23  1  0  0  0  0
 25 24  1  0  0  0  0
 25 22  1  0  0  0  0
 26 30  2  0  0  0  0
 27 29  1  0  0  0  0
 27 31  1  0  0  0  0
 28 30  1  0  0  0  0
 29 28  1  0  0  0  0
 31 26  1  0  0  0  0
 32 34  1  0  0  0  0
 33 34  1  0  0  0  0
 36 35  1  0  0  0  0
 37 40  1  0  0  0  0
 38 41  1  0  0  0  0
 38 37  2  0  0  0  0
 39 40  1  0  0  0  0
 39 36  1  0  0  0  0
 41 39  1  0  0  0  0
 42 43  1  0  0  0  0
 42 38  1  0  0  0  0
M  END
>  <MODEL>
9

>  <REMARK>
 VINA RESULT:      -6.5      3.378      8.470
  Name = 
  15 active torsions:
  status: ('A' for Active; 'I' for Inactive)
    1  A    between atoms: C_1  and  C_34
    2  A    between atoms: C_1  and  C_35
    3  A    between atoms: C_2  and  C_7
    4  A    between atoms: C_2  and  O_12
    5  A    between atoms: O_3  and  C_4
    6  A    between atoms: O_3  and  C_17
    7  A    between atoms: C_6  and  O_12
    8  A    between atoms: C_7  and  C_17
    9  A    between atoms: C_8  and  C_34
   10  A    between atoms: C_10  and  C_22
   11  A    between atoms: C_10  and  O_42
   12  A    between atoms: C_11  and  C_14
   13  A    between atoms: C_13  and  C_34
   14  A    between atoms: C_19  and  O_25
   15  A    between atoms: N_28  and  C_35
                            x       y       z     vdW  Elec       q    Type
                         _______ _______ _______ _____ _____    ______ ____

>  <TORSDO>
F 15

$$$$
