=
 OpenBabel11052412513D

 25 28  0  0  0  0  0  0  0  0999 V2000
  187.3300  177.8520  145.3440 C   0  0  0  0  0  0  0  0  0  0  0  0
  188.5070  177.4220  144.7320 C   0  0  0  0  0  3  0  0  0  0  0  0
  187.9500  177.9190  147.8170 C   0  0  0  0  0  3  0  0  0  0  0  0
  186.1850  178.1280  144.5740 C   0  0  0  0  0  0  0  0  0  0  0  0
  183.7560  178.7640  143.3450 C   0  0  0  0  0  3  0  0  0  0  0  0
  189.2740  177.5010  147.8470 C   0  0  0  0  0  3  0  0  0  0  0  0
  185.0960  178.5520  145.3190 C   0  0  0  0  0  0  0  0  0  0  0  0
  183.8720  178.8760  144.7380 C   0  0  0  0  0  3  0  0  0  0  0  0
  191.3630  176.7200  146.7990 C   0  0  0  0  0  0  0  0  0  0  0  0
  192.0690  176.5880  147.8730 N   0  0  0  0  0  2  0  0  0  0  0  0
  189.7120  177.1250  145.3430 C   0  0  0  0  0  0  0  0  0  0  0  0
  184.8490  178.3360  142.5710 C   0  0  0  0  0  3  0  0  0  0  0  0
  187.1040  178.0730  146.7210 C   0  0  0  0  0  0  0  0  0  0  0  0
  185.5110  178.5970  146.9370 S   0  0  0  0  0  0  0  0  0  0  0  0
  191.8230  176.4560  145.5980 O   0  0  0  0  0  0  0  0  0  0  0  0
  186.0720  178.0160  143.1810 C   0  0  0  0  0  3  0  0  0  0  0  0
  190.8760  176.6890  144.7150 C   0  0  0  0  0  0  0  0  0  0  0  0
  190.0510  177.1480  146.7570 C   0  0  0  0  0  0  0  0  0  0  0  0
  191.0760  176.4860  143.3110 N   0  0  0  0  0  2  0  0  0  0  0  0
  191.4530  177.5310  142.3690 C   0  0  0  0  0  2  0  0  0  0  0  0
  191.5430  177.2180  139.8760 C   0  0  0  0  0  0  0  0  0  0  0  0
  190.9550  177.0570  138.7730 O   0  0  0  0  0  0  0  0  0  0  0  0
  192.9650  177.3020  139.9030 N   0  0  0  0  0  1  0  0  0  0  0  0
  189.3360  177.2200  141.0650 C   0  0  0  0  0  1  0  0  0  0  0  0
  190.7870  177.3140  141.0920 N   0  0  0  0  0  0  0  0  0  0  0  0
  1 13  1  0  0  0  0
  2 11  1  0  0  0  0
  2  1  2  0  0  0  0
  3  6  1  0  0  0  0
  4  7  1  0  0  0  0
  4  1  1  0  0  0  0
  5  8  1  0  0  0  0
  7 14  1  0  0  0  0
  8  7  2  0  0  0  0
  9 10  2  0  0  0  0
 11 18  1  0  0  0  0
 12 16  1  0  0  0  0
 12  5  2  0  0  0  0
 13 14  1  0  0  0  0
 13  3  2  0  0  0  0
 15  9  1  0  0  0  0
 16  4  2  0  0  0  0
 17 11  2  0  0  0  0
 17 15  1  0  0  0  0
 18  9  1  0  0  0  0
 18  6  2  0  0  0  0
 19 17  1  0  0  0  0
 20 19  1  0  0  0  0
 21 23  1  0  0  0  0
 21 25  1  0  0  0  0
 22 21  2  0  0  0  0
 24 25  1  0  0  0  0
 25 20  1  0  0  0  0
M  END
>  <MODEL>
1

>  <REMARK>
 VINA RESULT:     -11.0      0.000      0.000
  Name = 
  3 active torsions:
  status: ('A' for Active; 'I' for Inactive)
    1  A    between atoms: N_6  and  C_15
    2  A    between atoms: N_6  and  C_23
    3  A    between atoms: C_15  and  N_25
                            x       y       z     vdW  Elec       q    Type
                         _______ _______ _______ _____ _____    ______ ____

>  <TORSDO>
F 3

$$$$
=
 OpenBabel11052412513D

 25 28  0  0  0  0  0  0  0  0999 V2000
  187.0970  177.8400  144.7800 C   0  0  0  0  0  0  0  0  0  0  0  0
  188.1600  177.4190  143.9830 C   0  0  0  0  0  3  0  0  0  0  0  0
  188.0720  177.7760  147.1360 C   0  0  0  0  0  3  0  0  0  0  0  0
  185.8590  178.1740  144.2000 C   0  0  0  0  0  0  0  0  0  0  0  0
  183.2930  178.9140  143.3720 C   0  0  0  0  0  3  0  0  0  0  0  0
  189.3750  177.3330  146.9520 C   0  0  0  0  0  3  0  0  0  0  0  0
  184.9010  178.5810  145.1150 C   0  0  0  0  0  0  0  0  0  0  0  0
  183.6150  178.9550  144.7360 C   0  0  0  0  0  3  0  0  0  0  0  0
  191.2690  176.5660  145.5740 C   0  0  0  0  0  0  0  0  0  0  0  0
  192.1200  176.3680  146.5260 N   0  0  0  0  0  2  0  0  0  0  0  0
  189.4340  177.0700  144.3970 C   0  0  0  0  0  0  0  0  0  0  0  0
  184.2500  178.5030  142.4260 C   0  0  0  0  0  3  0  0  0  0  0  0
  187.0790  177.9980  146.1840 C   0  0  0  0  0  0  0  0  0  0  0  0
  185.5490  178.5410  146.6550 S   0  0  0  0  0  0  0  0  0  0  0  0
  191.5410  176.3510  144.3070 O   0  0  0  0  0  0  0  0  0  0  0  0
  185.5410  178.1320  142.8350 C   0  0  0  0  0  3  0  0  0  0  0  0
  190.4830  176.6440  143.5850 C   0  0  0  0  0  0  0  0  0  0  0  0
  189.9750  177.0190  145.7440 C   0  0  0  0  0  0  0  0  0  0  0  0
  190.4700  176.5060  142.1590 N   0  0  0  0  0  2  0  0  0  0  0  0
  190.7830  177.5750  141.2210 C   0  0  0  0  0  2  0  0  0  0  0  0
  189.0200  177.8130  139.4440 C   0  0  0  0  0  0  0  0  0  0  0  0
  188.5610  177.5030  138.3120 O   0  0  0  0  0  0  0  0  0  0  0  0
  188.2980  178.7290  140.2620 N   0  0  0  0  0  1  0  0  0  0  0  0
  190.9970  176.3200  139.0630 C   0  0  0  0  0  1  0  0  0  0  0  0
  190.2570  177.2490  139.9020 N   0  0  0  0  0  0  0  0  0  0  0  0
  1 13  1  0  0  0  0
  2 11  1  0  0  0  0
  2  1  2  0  0  0  0
  4  1  1  0  0  0  0
  4  7  1  0  0  0  0
  5  8  1  0  0  0  0
  6  3  1  0  0  0  0
  7 14  1  0  0  0  0
  8  7  2  0  0  0  0
  9 18  1  0  0  0  0
  9 10  2  0  0  0  0
 11 18  1  0  0  0  0
 12 16  1  0  0  0  0
 12  5  2  0  0  0  0
 13 14  1  0  0  0  0
 13  3  2  0  0  0  0
 15  9  1  0  0  0  0
 16  4  2  0  0  0  0
 17 15  1  0  0  0  0
 17 11  2  0  0  0  0
 18  6  2  0  0  0  0
 19 17  1  0  0  0  0
 20 19  1  0  0  0  0
 21 25  1  0  0  0  0
 21 23  1  0  0  0  0
 22 21  2  0  0  0  0
 24 25  1  0  0  0  0
 25 20  1  0  0  0  0
M  END
>  <MODEL>
2

>  <REMARK>
 VINA RESULT:     -10.5      1.202      1.582
  Name = 
  3 active torsions:
  status: ('A' for Active; 'I' for Inactive)
    1  A    between atoms: N_6  and  C_15
    2  A    between atoms: N_6  and  C_23
    3  A    between atoms: C_15  and  N_25
                            x       y       z     vdW  Elec       q    Type
                         _______ _______ _______ _____ _____    ______ ____

>  <TORSDO>
F 3

$$$$
=
 OpenBabel11052412513D

 25 28  0  0  0  0  0  0  0  0999 V2000
  188.0390  177.6230  145.5630 C   0  0  0  0  0  0  0  0  0  0  0  0
  187.6110  177.7900  144.2470 C   0  0  0  0  0  3  0  0  0  0  0  0
  185.9750  178.2370  146.9290 C   0  0  0  0  0  3  0  0  0  0  0  0
  189.3530  177.2020  145.8380 C   0  0  0  0  0  0  0  0  0  0  0  0
  191.8740  176.3770  146.7230 C   0  0  0  0  0  3  0  0  0  0  0  0
  185.0220  178.5700  145.9760 C   0  0  0  0  0  3  0  0  0  0  0  0
  189.6300  177.0740  147.1900 C   0  0  0  0  0  0  0  0  0  0  0  0
  190.8750  176.6660  147.6630 C   0  0  0  0  0  3  0  0  0  0  0  0
  184.2410  178.8950  143.6600 C   0  0  0  0  0  0  0  0  0  0  0  0
  183.0400  179.2920  143.9270 N   0  0  0  0  0  2  0  0  0  0  0  0
  186.3570  178.1830  143.8140 C   0  0  0  0  0  0  0  0  0  0  0  0
  191.6130  176.5010  145.3460 C   0  0  0  0  0  3  0  0  0  0  0  0
  187.2920  177.8230  146.7460 C   0  0  0  0  0  0  0  0  0  0  0  0
  188.2730  177.4740  148.0780 S   0  0  0  0  0  0  0  0  0  0  0  0
  184.7060  178.7760  142.4390 O   0  0  0  0  0  0  0  0  0  0  0  0
  190.3500  176.9140  144.8950 C   0  0  0  0  0  3  0  0  0  0  0  0
  185.9500  178.3520  142.4930 C   0  0  0  0  0  0  0  0  0  0  0  0
  185.1910  178.5490  144.6010 C   0  0  0  0  0  0  0  0  0  0  0  0
  186.7320  178.1290  141.3130 N   0  0  0  0  0  2  0  0  0  0  0  0
  187.9220  178.8880  140.9530 C   0  0  0  0  0  2  0  0  0  0  0  0
  189.3750  178.1570  139.0360 C   0  0  0  0  0  0  0  0  0  0  0  0
  190.2250  177.3650  138.5490 O   0  0  0  0  0  0  0  0  0  0  0  0
  188.8640  179.2140  138.2280 N   0  0  0  0  0  1  0  0  0  0  0  0
  189.4550  176.9230  141.2160 C   0  0  0  0  0  1  0  0  0  0  0  0
  188.9270  177.9970  140.3900 N   0  0  0  0  0  0  0  0  0  0  0  0
  1  4  1  0  0  0  0
  1 13  1  0  0  0  0
  2  1  2  0  0  0  0
  4  7  1  0  0  0  0
  5  8  1  0  0  0  0
  6  3  1  0  0  0  0
  7  8  2  0  0  0  0
  7 14  1  0  0  0  0
  9 10  2  0  0  0  0
  9 18  1  0  0  0  0
 11  2  1  0  0  0  0
 11 18  1  0  0  0  0
 12  5  2  0  0  0  0
 13  3  2  0  0  0  0
 13 14  1  0  0  0  0
 15 17  1  0  0  0  0
 15  9  1  0  0  0  0
 16 12  1  0  0  0  0
 16  4  2  0  0  0  0
 17 11  2  0  0  0  0
 18  6  2  0  0  0  0
 19 17  1  0  0  0  0
 20 19  1  0  0  0  0
 21 25  1  0  0  0  0
 22 21  2  0  0  0  0
 23 21  1  0  0  0  0
 25 20  1  0  0  0  0
 25 24  1  0  0  0  0
M  END
>  <MODEL>
3

>  <REMARK>
 VINA RESULT:     -10.1      2.788      5.263
  Name = 
  3 active torsions:
  status: ('A' for Active; 'I' for Inactive)
    1  A    between atoms: N_6  and  C_15
    2  A    between atoms: N_6  and  C_23
    3  A    between atoms: C_15  and  N_25
                            x       y       z     vdW  Elec       q    Type
                         _______ _______ _______ _____ _____    ______ ____

>  <TORSDO>
F 3

$$$$
=
 OpenBabel11052412513D

 25 28  0  0  0  0  0  0  0  0999 V2000
  188.3400  177.6960  144.3140 C   0  0  0  0  0  0  0  0  0  0  0  0
  188.5630  177.8620  142.9480 C   0  0  0  0  0  3  0  0  0  0  0  0
  185.8560  178.2170  144.5660 C   0  0  0  0  0  3  0  0  0  0  0  0
  189.3930  177.3210  145.1690 C   0  0  0  0  0  0  0  0  0  0  0  0
  191.2490  176.5800  147.1250 C   0  0  0  0  0  3  0  0  0  0  0  0
  185.4410  178.5250  143.2780 C   0  0  0  0  0  3  0  0  0  0  0  0
  189.0190  177.1880  146.4960 C   0  0  0  0  0  0  0  0  0  0  0  0
  189.9180  176.8220  147.4950 C   0  0  0  0  0  3  0  0  0  0  0  0
  185.8070  178.8460  140.8610 C   0  0  0  0  0  0  0  0  0  0  0  0
  184.6050  179.1950  140.5390 N   0  0  0  0  0  2  0  0  0  0  0  0
  187.6380  178.2120  141.9810 C   0  0  0  0  0  0  0  0  0  0  0  0
  191.6500  176.7100  145.7830 C   0  0  0  0  0  3  0  0  0  0  0  0
  187.1240  177.8540  145.0160 C   0  0  0  0  0  0  0  0  0  0  0  0
  187.3900  177.5270  146.6530 S   0  0  0  0  0  0  0  0  0  0  0  0
  186.7890  178.7580  139.9940 O   0  0  0  0  0  0  0  0  0  0  0  0
  190.7230  177.0810  144.7960 C   0  0  0  0  0  3  0  0  0  0  0  0
  187.8820  178.3800  140.6200 C   0  0  0  0  0  0  0  0  0  0  0  0
  186.2270  178.5250  142.1380 C   0  0  0  0  0  0  0  0  0  0  0  0
  189.1280  178.2000  139.9380 N   0  0  0  0  0  2  0  0  0  0  0  0
  189.7500  176.9090  139.6780 C   0  0  0  0  0  2  0  0  0  0  0  0
  192.0490  176.7390  138.6740 C   0  0  0  0  0  0  0  0  0  0  0  0
  193.3020  176.8150  138.7930 O   0  0  0  0  0  0  0  0  0  0  0  0
  191.4890  176.3720  137.4170 N   0  0  0  0  0  1  0  0  0  0  0  0
  191.7710  177.4050  141.0750 C   0  0  0  0  0  1  0  0  0  0  0  0
  191.1980  177.0230  139.7940 N   0  0  0  0  0  0  0  0  0  0  0  0
  1 13  1  0  0  0  0
  1  4  1  0  0  0  0
  2  1  2  0  0  0  0
  3 13  2  0  0  0  0
  4  7  1  0  0  0  0
  5  8  1  0  0  0  0
  6  3  1  0  0  0  0
  7 14  1  0  0  0  0
  7  8  2  0  0  0  0
  9 18  1  0  0  0  0
 10  9  2  0  0  0  0
 11 18  1  0  0  0  0
 11  2  1  0  0  0  0
 12  5  2  0  0  0  0
 13 14  1  0  0  0  0
 15 17  1  0  0  0  0
 15  9  1  0  0  0  0
 16  4  2  0  0  0  0
 16 12  1  0  0  0  0
 17 11  2  0  0  0  0
 18  6  2  0  0  0  0
 19 17  1  0  0  0  0
 20 25  1  0  0  0  0
 20 19  1  0  0  0  0
 21 22  2  0  0  0  0
 21 25  1  0  0  0  0
 23 21  1  0  0  0  0
 25 24  1  0  0  0  0
M  END
>  <MODEL>
4

>  <REMARK>
 VINA RESULT:      -9.9      2.590      5.247
  Name = 
  3 active torsions:
  status: ('A' for Active; 'I' for Inactive)
    1  A    between atoms: N_6  and  C_15
    2  A    between atoms: N_6  and  C_23
    3  A    between atoms: C_15  and  N_25
                            x       y       z     vdW  Elec       q    Type
                         _______ _______ _______ _____ _____    ______ ____

>  <TORSDO>
F 3

$$$$
=
 OpenBabel11052412513D

 25 28  0  0  0  0  0  0  0  0999 V2000
  186.7800  178.2370  144.5820 C   0  0  0  0  0  0  0  0  0  0  0  0
  187.3150  178.2550  143.2950 C   0  0  0  0  0  3  0  0  0  0  0  0
  184.3060  178.7190  144.1920 C   0  0  0  0  0  3  0  0  0  0  0  0
  187.6060  177.9870  145.6940 C   0  0  0  0  0  0  0  0  0  0  0  0
  188.9550  177.5180  148.0970 C   0  0  0  0  0  3  0  0  0  0  0  0
  184.2020  178.8700  142.8160 C   0  0  0  0  0  3  0  0  0  0  0  0
  186.9330  177.9940  146.9060 C   0  0  0  0  0  0  0  0  0  0  0  0
  187.5750  177.7650  148.1200 C   0  0  0  0  0  3  0  0  0  0  0  0
  185.1200  178.9290  140.5290 C   0  0  0  0  0  0  0  0  0  0  0  0
  184.0260  179.2090  139.9010 N   0  0  0  0  0  2  0  0  0  0  0  0
  186.6390  178.4710  142.1070 C   0  0  0  0  0  0  0  0  0  0  0  0
  189.6570  177.5080  146.8780 C   0  0  0  0  0  3  0  0  0  0  0  0
  185.4340  178.4410  144.9610 C   0  0  0  0  0  0  0  0  0  0  0  0
  185.3130  178.3060  146.6420 S   0  0  0  0  0  0  0  0  0  0  0  0
  186.2760  178.7700  139.9280 O   0  0  0  0  0  0  0  0  0  0  0  0
  188.9850  177.7410  145.6680 C   0  0  0  0  0  3  0  0  0  0  0  0
  187.1930  178.4920  140.8290 C   0  0  0  0  0  0  0  0  0  0  0  0
  185.2310  178.7630  141.8960 C   0  0  0  0  0  0  0  0  0  0  0  0
  188.5640  178.2690  140.4780 N   0  0  0  0  0  2  0  0  0  0  0  0
  189.1780  176.9560  140.3350 C   0  0  0  0  0  2  0  0  0  0  0  0
  190.2470  176.1760  142.4730 C   0  0  0  0  0  0  0  0  0  0  0  0
  191.2490  176.1150  143.2350 O   0  0  0  0  0  0  0  0  0  0  0  0
  189.0260  175.5640  142.8770 N   0  0  0  0  0  1  0  0  0  0  0  0
  191.5870  177.4700  140.7950 C   0  0  0  0  0  1  0  0  0  0  0  0
  190.3380  176.8530  141.2110 N   0  0  0  0  0  0  0  0  0  0  0  0
  1 13  1  0  0  0  0
  1  4  1  0  0  0  0
  2  1  2  0  0  0  0
  3 13  2  0  0  0  0
  4  7  1  0  0  0  0
  5  8  1  0  0  0  0
  6  3  1  0  0  0  0
  7  8  2  0  0  0  0
  9 18  1  0  0  0  0
 10  9  2  0  0  0  0
 11  2  1  0  0  0  0
 12  5  2  0  0  0  0
 13 14  1  0  0  0  0
 14  7  1  0  0  0  0
 15  9  1  0  0  0  0
 15 17  1  0  0  0  0
 16  4  2  0  0  0  0
 16 12  1  0  0  0  0
 17 11  2  0  0  0  0
 18 11  1  0  0  0  0
 18  6  2  0  0  0  0
 19 17  1  0  0  0  0
 20 19  1  0  0  0  0
 20 25  1  0  0  0  0
 21 23  1  0  0  0  0
 21 22  2  0  0  0  0
 24 25  1  0  0  0  0
 25 21  1  0  0  0  0
M  END
>  <MODEL>
5

>  <REMARK>
 VINA RESULT:      -9.7      2.177      5.351
  Name = 
  3 active torsions:
  status: ('A' for Active; 'I' for Inactive)
    1  A    between atoms: N_6  and  C_15
    2  A    between atoms: N_6  and  C_23
    3  A    between atoms: C_15  and  N_25
                            x       y       z     vdW  Elec       q    Type
                         _______ _______ _______ _____ _____    ______ ____

>  <TORSDO>
F 3

$$$$
=
 OpenBabel11052412513D

 25 28  0  0  0  0  0  0  0  0999 V2000
  187.7060  177.8660  144.3350 C   0  0  0  0  0  0  0  0  0  0  0  0
  187.9840  177.9180  142.9700 C   0  0  0  0  0  3  0  0  0  0  0  0
  185.2550  178.5580  144.4580 C   0  0  0  0  0  3  0  0  0  0  0  0
  188.7050  177.4880  145.2530 C   0  0  0  0  0  0  0  0  0  0  0  0
  190.4440  176.7770  147.3230 C   0  0  0  0  0  3  0  0  0  0  0  0
  184.9030  178.7970  143.1370 C   0  0  0  0  0  3  0  0  0  0  0  0
  188.2790  177.4750  146.5710 C   0  0  0  0  0  0  0  0  0  0  0  0
  189.1200  177.1270  147.6260 C   0  0  0  0  0  3  0  0  0  0  0  0
  185.3670  178.9200  140.7190 C   0  0  0  0  0  0  0  0  0  0  0  0
  184.2020  179.3190  140.3290 N   0  0  0  0  0  2  0  0  0  0  0  0
  187.1150  178.2540  141.9480 C   0  0  0  0  0  0  0  0  0  0  0  0
  190.8950  176.7840  145.9910 C   0  0  0  0  0  3  0  0  0  0  0  0
  186.4810  178.1500  144.9790 C   0  0  0  0  0  0  0  0  0  0  0  0
  186.6720  177.9260  146.6440 S   0  0  0  0  0  0  0  0  0  0  0  0
  186.3690  178.7070  139.8970 O   0  0  0  0  0  0  0  0  0  0  0  0
  190.0270  177.1390  144.9470 C   0  0  0  0  0  3  0  0  0  0  0  0
  187.4140  178.3080  140.5880 C   0  0  0  0  0  0  0  0  0  0  0  0
  185.7240  178.6660  142.0290 C   0  0  0  0  0  0  0  0  0  0  0  0
  188.6680  178.0010  139.9670 N   0  0  0  0  0  2  0  0  0  0  0  0
  189.2760  178.7820  138.8990 C   0  0  0  0  0  2  0  0  0  0  0  0
  188.3930  178.2040  136.6170 C   0  0  0  0  0  0  0  0  0  0  0  0
  188.4380  177.4950  135.5750 O   0  0  0  0  0  0  0  0  0  0  0  0
  187.3980  179.2170  136.7290 N   0  0  0  0  0  1  0  0  0  0  0  0
  190.3570  176.9620  137.5590 C   0  0  0  0  0  1  0  0  0  0  0  0
  189.3370  177.9910  137.6770 N   0  0  0  0  0  0  0  0  0  0  0  0
  1 13  1  0  0  0  0
  1  4  1  0  0  0  0
  2  1  2  0  0  0  0
  3 13  2  0  0  0  0
  4  7  1  0  0  0  0
  5  8  1  0  0  0  0
  6  3  1  0  0  0  0
  7 14  1  0  0  0  0
  7  8  2  0  0  0  0
  9 18  1  0  0  0  0
 10  9  2  0  0  0  0
 11 18  1  0  0  0  0
 11  2  1  0  0  0  0
 12  5  2  0  0  0  0
 13 14  1  0  0  0  0
 15 17  1  0  0  0  0
 15  9  1  0  0  0  0
 16  4  2  0  0  0  0
 16 12  1  0  0  0  0
 17 11  2  0  0  0  0
 18  6  2  0  0  0  0
 19 17  1  0  0  0  0
 20 19  1  0  0  0  0
 21 23  1  0  0  0  0
 21 25  1  0  0  0  0
 22 21  2  0  0  0  0
 24 25  1  0  0  0  0
 25 20  1  0  0  0  0
M  END
>  <MODEL>
6

>  <REMARK>
 VINA RESULT:      -9.5      3.109      5.585
  Name = 
  3 active torsions:
  status: ('A' for Active; 'I' for Inactive)
    1  A    between atoms: N_6  and  C_15
    2  A    between atoms: N_6  and  C_23
    3  A    between atoms: C_15  and  N_25
                            x       y       z     vdW  Elec       q    Type
                         _______ _______ _______ _____ _____    ______ ____

>  <TORSDO>
F 3

$$$$
=
 OpenBabel11052412513D

 25 28  0  0  0  0  0  0  0  0999 V2000
  187.6500  177.6990  145.2500 C   0  0  0  0  0  0  0  0  0  0  0  0
  186.9950  177.8800  144.0330 C   0  0  0  0  0  3  0  0  0  0  0  0
  185.8510  178.2530  146.9700 C   0  0  0  0  0  3  0  0  0  0  0  0
  188.9980  177.2960  145.2810 C   0  0  0  0  0  0  0  0  0  0  0  0
  191.6470  176.4990  145.6920 C   0  0  0  0  0  3  0  0  0  0  0  0
  184.7410  178.5860  146.2060 C   0  0  0  0  0  3  0  0  0  0  0  0
  189.5110  177.1490  146.5600 C   0  0  0  0  0  0  0  0  0  0  0  0
  190.8250  176.7550  146.7990 C   0  0  0  0  0  3  0  0  0  0  0  0
  183.5590  178.9360  144.0710 C   0  0  0  0  0  0  0  0  0  0  0  0
  182.4180  179.3080  144.5520 N   0  0  0  0  0  2  0  0  0  0  0  0
  185.6780  178.2580  143.8360 C   0  0  0  0  0  0  0  0  0  0  0  0
  191.1460  176.6420  144.3850 C   0  0  0  0  0  3  0  0  0  0  0  0
  187.1210  177.8650  146.5500 C   0  0  0  0  0  0  0  0  0  0  0  0
  188.3260  177.5110  147.6810 S   0  0  0  0  0  0  0  0  0  0  0  0
  183.8030  178.8450  142.7840 O   0  0  0  0  0  0  0  0  0  0  0  0
  189.8170  177.0400  144.1720 C   0  0  0  0  0  3  0  0  0  0  0  0
  185.0420  178.4420  142.6100 C   0  0  0  0  0  0  0  0  0  0  0  0
  184.6650  178.5910  144.8230 C   0  0  0  0  0  0  0  0  0  0  0  0
  185.6070  178.2530  141.3070 N   0  0  0  0  0  2  0  0  0  0  0  0
  185.2570  179.0370  140.1310 C   0  0  0  0  0  2  0  0  0  0  0  0
  185.8620  177.9290  137.9570 C   0  0  0  0  0  0  0  0  0  0  0  0
  185.5560  177.1810  136.9890 O   0  0  0  0  0  0  0  0  0  0  0  0
  187.1440  178.5490  137.9810 N   0  0  0  0  0  1  0  0  0  0  0  0
  183.6210  177.5110  139.0010 C   0  0  0  0  0  1  0  0  0  0  0  0
  184.9270  178.1500  139.0230 N   0  0  0  0  0  0  0  0  0  0  0  0
  1  4  1  0  0  0  0
  1 13  1  0  0  0  0
  2  1  2  0  0  0  0
  4  7  1  0  0  0  0
  5  8  1  0  0  0  0
  6  3  1  0  0  0  0
  7  8  2  0  0  0  0
  7 14  1  0  0  0  0
  9 10  2  0  0  0  0
  9 18  1  0  0  0  0
 11  2  1  0  0  0  0
 11 18  1  0  0  0  0
 12  5  2  0  0  0  0
 13  3  2  0  0  0  0
 13 14  1  0  0  0  0
 15  9  1  0  0  0  0
 16 12  1  0  0  0  0
 16  4  2  0  0  0  0
 17 15  1  0  0  0  0
 17 11  2  0  0  0  0
 18  6  2  0  0  0  0
 19 17  1  0  0  0  0
 20 19  1  0  0  0  0
 21 23  1  0  0  0  0
 21 25  1  0  0  0  0
 22 21  2  0  0  0  0
 24 25  1  0  0  0  0
 25 20  1  0  0  0  0
M  END
>  <MODEL>
7

>  <REMARK>
 VINA RESULT:      -9.3      3.759      5.974
  Name = 
  3 active torsions:
  status: ('A' for Active; 'I' for Inactive)
    1  A    between atoms: N_6  and  C_15
    2  A    between atoms: N_6  and  C_23
    3  A    between atoms: C_15  and  N_25
                            x       y       z     vdW  Elec       q    Type
                         _______ _______ _______ _____ _____    ______ ____

>  <TORSDO>
F 3

$$$$
=
 OpenBabel11052412513D

 25 28  0  0  0  0  0  0  0  0999 V2000
  188.8570  177.6290  143.8910 C   0  0  0  0  0  0  0  0  0  0  0  0
  187.8230  178.0850  143.0740 C   0  0  0  0  0  3  0  0  0  0  0  0
  190.7190  177.0930  142.2330 C   0  0  0  0  0  3  0  0  0  0  0  0
  188.6870  177.5660  145.2870 C   0  0  0  0  0  0  0  0  0  0  0  0
  188.6810  177.3260  148.0730 C   0  0  0  0  0  3  0  0  0  0  0  0
  190.1700  177.3980  140.9950 C   0  0  0  0  0  3  0  0  0  0  0  0
  189.8010  177.1010  145.9670 C   0  0  0  0  0  0  0  0  0  0  0  0
  189.8310  176.9690  147.3530 C   0  0  0  0  0  3  0  0  0  0  0  0
  188.3560  178.1790  139.5200 C   0  0  0  0  0  0  0  0  0  0  0  0
  188.9630  178.0310  138.3890 N   0  0  0  0  0  2  0  0  0  0  0  0
  187.8380  178.2170  141.6970 C   0  0  0  0  0  0  0  0  0  0  0  0
  187.5400  177.8000  147.4010 C   0  0  0  0  0  3  0  0  0  0  0  0
  190.1430  177.1960  143.4970 C   0  0  0  0  0  0  0  0  0  0  0  0
  191.0180  176.7550  144.8750 S   0  0  0  0  0  0  0  0  0  0  0  0
  187.1270  178.6270  139.6250 O   0  0  0  0  0  0  0  0  0  0  0  0
  187.5370  177.9240  146.0030 C   0  0  0  0  0  3  0  0  0  0  0  0
  186.7910  178.6680  140.8950 C   0  0  0  0  0  0  0  0  0  0  0  0
  188.8980  177.8920  140.7580 C   0  0  0  0  0  0  0  0  0  0  0  0
  185.5000  179.1120  141.3300 N   0  0  0  0  0  2  0  0  0  0  0  0
  184.3310  178.2530  141.4630 C   0  0  0  0  0  2  0  0  0  0  0  0
  182.1660  178.8960  142.5670 C   0  0  0  0  0  0  0  0  0  0  0  0
  181.5240  179.2450  143.5930 O   0  0  0  0  0  0  0  0  0  0  0  0
  181.4790  178.7710  141.3240 N   0  0  0  0  0  1  0  0  0  0  0  0
  184.2710  178.7490  143.9190 C   0  0  0  0  0  1  0  0  0  0  0  0
  183.5730  178.6270  142.6490 N   0  0  0  0  0  0  0  0  0  0  0  0
  1  4  1  0  0  0  0
  2  1  2  0  0  0  0
  3 13  2  0  0  0  0
  4  7  2  0  0  0  0
  4 16  1  0  0  0  0
  6  3  1  0  0  0  0
  7  8  1  0  0  0  0
  8  5  2  0  0  0  0
  9 15  1  0  0  0  0
  9 18  1  0  0  0  0
 10  9  2  0  0  0  0
 11  2  1  0  0  0  0
 12  5  1  0  0  0  0
 13  1  1  0  0  0  0
 13 14  1  0  0  0  0
 14  7  1  0  0  0  0
 15 17  1  0  0  0  0
 16 12  2  0  0  0  0
 17 19  1  0  0  0  0
 17 11  2  0  0  0  0
 18  6  2  0  0  0  0
 18 11  1  0  0  0  0
 19 20  1  0  0  0  0
 20 25  1  0  0  0  0
 21 25  1  0  0  0  0
 21 22  2  0  0  0  0
 23 21  1  0  0  0  0
 25 24  1  0  0  0  0
M  END
>  <MODEL>
8

>  <REMARK>
 VINA RESULT:      -9.2      3.952      6.864
  Name = 
  3 active torsions:
  status: ('A' for Active; 'I' for Inactive)
    1  A    between atoms: N_6  and  C_15
    2  A    between atoms: N_6  and  C_23
    3  A    between atoms: C_15  and  N_25
                            x       y       z     vdW  Elec       q    Type
                         _______ _______ _______ _____ _____    ______ ____

>  <TORSDO>
F 3

$$$$
=
 OpenBabel11052412513D

 25 28  0  0  0  0  0  0  0  0999 V2000
  186.5930  178.1760  142.9020 C   0  0  0  0  0  0  0  0  0  0  0  0
  187.8370  177.7250  142.4640 C   0  0  0  0  0  3  0  0  0  0  0  0
  185.4340  178.8820  140.7430 C   0  0  0  0  0  3  0  0  0  0  0  0
  186.2680  178.1530  144.2720 C   0  0  0  0  0  0  0  0  0  0  0  0
  185.3100  178.2350  146.8970 C   0  0  0  0  0  3  0  0  0  0  0  0
  186.3730  178.6250  139.7540 C   0  0  0  0  0  3  0  0  0  0  0  0
  184.9960  178.6250  144.5550 C   0  0  0  0  0  0  0  0  0  0  0  0
  184.4890  178.6800  145.8510 C   0  0  0  0  0  3  0  0  0  0  0  0
  188.5710  177.8540  138.9480 C   0  0  0  0  0  0  0  0  0  0  0  0
  188.3980  178.0900  137.6890 N   0  0  0  0  0  2  0  0  0  0  0  0
  188.3000  177.6710  141.1610 C   0  0  0  0  0  0  0  0  0  0  0  0
  186.6040  177.7520  146.6310 C   0  0  0  0  0  3  0  0  0  0  0  0
  185.5330  178.6840  142.1190 C   0  0  0  0  0  0  0  0  0  0  0  0
  184.2420  179.0820  143.1360 S   0  0  0  0  0  0  0  0  0  0  0  0
  189.6790  177.3490  139.4400 O   0  0  0  0  0  0  0  0  0  0  0  0
  187.0910  177.7080  145.3160 C   0  0  0  0  0  3  0  0  0  0  0  0
  189.5510  177.2230  140.7430 C   0  0  0  0  0  0  0  0  0  0  0  0
  187.6390  178.0930  139.9380 C   0  0  0  0  0  0  0  0  0  0  0  0
  190.6020  176.7020  141.5660 N   0  0  0  0  0  2  0  0  0  0  0  0
  191.6840  177.4980  142.1290 C   0  0  0  0  0  2  0  0  0  0  0  0
  191.5140  176.7550  144.5250 C   0  0  0  0  0  0  0  0  0  0  0  0
  191.2500  177.0080  145.7310 O   0  0  0  0  0  0  0  0  0  0  0  0
  191.9160  175.4380  144.1600 N   0  0  0  0  0  1  0  0  0  0  0  0
  191.0090  179.1310  143.9050 C   0  0  0  0  0  1  0  0  0  0  0  0
  191.4120  177.7850  143.5310 N   0  0  0  0  0  0  0  0  0  0  0  0
  1  4  1  0  0  0  0
  2  1  2  0  0  0  0
  3 13  2  0  0  0  0
  4  7  2  0  0  0  0
  4 16  1  0  0  0  0
  6 18  2  0  0  0  0
  6  3  1  0  0  0  0
  7  8  1  0  0  0  0
  8  5  2  0  0  0  0
  9 15  1  0  0  0  0
  9 18  1  0  0  0  0
 10  9  2  0  0  0  0
 11  2  1  0  0  0  0
 12  5  1  0  0  0  0
 13  1  1  0  0  0  0
 13 14  1  0  0  0  0
 14  7  1  0  0  0  0
 15 17  1  0  0  0  0
 16 12  2  0  0  0  0
 17 11  2  0  0  0  0
 17 19  1  0  0  0  0
 18 11  1  0  0  0  0
 19 20  1  0  0  0  0
 20 25  1  0  0  0  0
 21 22  2  0  0  0  0
 23 21  1  0  0  0  0
 25 24  1  0  0  0  0
 25 21  1  0  0  0  0
M  END
>  <MODEL>
9

>  <REMARK>
 VINA RESULT:      -9.0      1.881      5.177
  Name = 
  3 active torsions:
  status: ('A' for Active; 'I' for Inactive)
    1  A    between atoms: N_6  and  C_15
    2  A    between atoms: N_6  and  C_23
    3  A    between atoms: C_15  and  N_25
                            x       y       z     vdW  Elec       q    Type
                         _______ _______ _______ _____ _____    ______ ____

>  <TORSDO>
F 3

$$$$
