=
 OpenBabel11052413013D

 31 34  0  0  1  0  0  0  0  0999 V2000
  187.7810  177.9270  144.7850 C   0  0  1  0  0  3  0  0  0  0  0  0
  186.5190  178.5560  145.4100 C   0  0  1  0  0  3  0  0  0  0  0  0
  185.4290  178.7970  144.3800 C   0  0  0  0  0  0  0  0  0  0  0  0
  185.3460  178.4560  141.9350 C   0  0  0  0  0  3  0  0  0  0  0  0
  185.8140  179.3420  143.0390 C   0  0  0  0  0  2  0  0  0  0  0  0
  183.8400  178.4740  146.1090 O   0  0  0  0  0  0  0  0  0  0  0  0
  184.0580  178.2180  141.7040 C   0  0  0  0  0  3  0  0  0  0  0  0
  186.0360  177.7570  146.5400 N   0  0  0  0  0  2  0  0  0  0  0  0
  182.9490  178.7150  142.5390 C   0  0  0  0  0  3  0  0  0  0  0  0
  184.8630  178.4180  147.0980 C   0  0  0  0  0  2  0  0  0  0  0  0
  184.1380  178.7430  144.7680 C   0  0  0  0  0  0  0  0  0  0  0  0
  182.9900  178.9490  143.8570 C   0  0  0  0  0  3  0  0  0  0  0  0
  189.9800  176.4780  147.2560 N   0  0  0  0  0  0  0  0  0  0  0  0
  189.6380  177.7860  147.7960 C   0  0  0  0  0  2  0  0  0  0  0  0
  191.4240  176.3490  147.3430 C   0  0  0  0  0  1  0  0  0  0  0  0
  189.6480  176.5690  145.8540 C   0  0  0  0  0  2  0  0  0  0  0  0
  189.0350  177.9350  145.6680 C   0  0  2  0  0  3  0  0  0  0  0  0
  188.7360  178.4330  146.9380 O   0  0  0  0  0  0  0  0  0  0  0  0
  187.5690  176.6200  144.0100 C   0  0  0  0  0  2  0  0  0  0  0  0
  188.6950  176.3190  143.0250 C   0  0  0  0  0  2  0  0  0  0  0  0
  188.9850  177.5090  142.1130 C   0  0  1  0  0  3  0  0  0  0  0  0
  191.1400  177.1320  142.4500 C   0  0  0  0  0  1  0  0  0  0  0  0
  190.1730  178.1370  142.4940 O   0  0  0  0  0  0  0  0  0  0  0  0
  189.0650  177.0860  140.6490 C   0  0  0  0  0  2  0  0  0  0  0  0
  187.0060  178.0220  138.6490 C   0  0  2  0  0  3  0  0  0  0  0  0
  187.9180  177.9930  137.4530 C   0  0  2  0  0  3  0  0  0  0  0  0
  185.7980  178.6600  138.3590 O   0  0  0  0  0  1  0  0  0  0  0  0
  187.7000  178.7210  139.7170 N   0  0  0  0  0  2  0  0  0  0  0  0
  189.5510  177.7240  138.1590 S   0  0  0  0  0  0  0  0  0  0  0  0
  189.0310  178.2550  139.7750 N   0  0  0  0  0  0  0  0  0  0  0  0
  187.9090  179.2740  136.7640 N   0  0  0  0  0  1  0  0  0  0  0  0
  1 19  1  1  0  0  0
  2  1  1  6  0  0  0
  2  8  1  0  0  0  0
  3 11  2  0  0  0  0
  3  2  1  0  0  0  0
  4  5  1  0  0  0  0
  5  3  1  0  0  0  0
  6 10  1  0  0  0  0
  7  4  2  0  0  0  0
  7  9  1  0  0  0  0
  8 10  1  0  0  0  0
  9 12  2  0  0  0  0
 11  6  1  0  0  0  0
 12 11  1  0  0  0  0
 13 15  1  0  0  0  0
 13 14  1  0  0  0  0
 16 13  1  0  0  0  0
 17  1  1  6  0  0  0
 17 16  1  0  0  0  0
 17 18  1  0  0  0  0
 18 14  1  0  0  0  0
 20 19  1  0  0  0  0
 21 24  1  6  0  0  0
 21 23  1  0  0  0  0
 21 20  1  0  0  0  0
 22 23  1  0  0  0  0
 25 27  1  6  0  0  0
 25 28  1  0  0  0  0
 26 31  1  1  0  0  0
 26 29  1  0  0  0  0
 26 25  1  0  0  0  0
 28 30  1  0  0  0  0
 29 30  1  0  0  0  0
 30 24  1  0  0  0  0
M  END
>  <MODEL>
1

>  <REMARK>
 VINA RESULT:      -8.2      0.000      0.000
  Name = 
  8 active torsions:
  status: ('A' for Active; 'I' for Inactive)
    1  A    between atoms: C_3  and  C_9
    2  A    between atoms: C_3  and  N_22
    3  A    between atoms: C_4  and  C_12
    4  A    between atoms: C_9  and  C_15
    5  A    between atoms: C_9  and  O_23
    6  A    between atoms: C_12  and  C_20
    7  A    between atoms: C_12  and  C_27
    8  A    between atoms: C_15  and  C_20
                            x       y       z     vdW  Elec       q    Type
                         _______ _______ _______ _____ _____    ______ ____

>  <TORSDO>
F 8

$$$$
=
 OpenBabel11052413013D

 31 34  0  0  1  0  0  0  0  0999 V2000
  185.6460  178.1300  141.8450 C   0  0  1  0  0  3  0  0  0  0  0  0
  185.2940  178.1510  143.3450 C   0  0  1  0  0  3  0  0  0  0  0  0
  186.4400  177.6570  144.2100 C   0  0  0  0  0  0  0  0  0  0  0  0
  188.6760  176.7650  143.6570 C   0  0  0  0  0  3  0  0  0  0  0  0
  187.2200  176.4610  143.7560 C   0  0  0  0  0  2  0  0  0  0  0  0
  185.6560  179.0910  145.9260 O   0  0  0  0  0  0  0  0  0  0  0  0
  189.4120  177.1080  144.7110 C   0  0  0  0  0  3  0  0  0  0  0  0
  184.8300  179.4780  143.7600 N   0  0  0  0  0  2  0  0  0  0  0  0
  188.8830  177.3140  146.0720 C   0  0  0  0  0  3  0  0  0  0  0  0
  184.4910  179.4210  145.1760 C   0  0  0  0  0  2  0  0  0  0  0  0
  186.5780  178.1480  145.4590 C   0  0  0  0  0  0  0  0  0  0  0  0
  187.6590  177.7530  146.3900 C   0  0  0  0  0  3  0  0  0  0  0  0
  182.7930  179.3230  139.9800 N   0  0  0  0  0  0  0  0  0  0  0  0
  182.2680  178.2310  140.7870 C   0  0  0  0  0  2  0  0  0  0  0  0
  182.3360  179.1010  138.6190 C   0  0  0  0  0  1  0  0  0  0  0  0
  184.2220  179.1190  139.9830 C   0  0  0  0  0  2  0  0  0  0  0  0
  184.4630  177.9360  140.8870 C   0  0  2  0  0  3  0  0  0  0  0  0
  183.2850  177.7120  141.6030 O   0  0  0  0  0  0  0  0  0  0  0  0
  186.6660  179.1750  141.3770 C   0  0  0  0  0  2  0  0  0  0  0  0
  188.0170  178.5700  141.0060 C   0  0  0  0  0  2  0  0  0  0  0  0
  188.0110  177.9930  139.5920 C   0  0  1  0  0  3  0  0  0  0  0  0
  186.8540  177.8940  137.7070 C   0  0  0  0  0  1  0  0  0  0  0  0
  187.1810  178.7490  138.7610 O   0  0  0  0  0  0  0  0  0  0  0  0
  189.4180  177.9320  139.0060 C   0  0  0  0  0  2  0  0  0  0  0  0
  192.1360  176.8220  138.3010 C   0  0  2  0  0  3  0  0  0  0  0  0
  191.6330  175.7050  137.4280 C   0  0  2  0  0  3  0  0  0  0  0  0
  193.5000  176.6890  138.5710 O   0  0  0  0  0  1  0  0  0  0  0  0
  191.3750  176.7940  139.5380 N   0  0  0  0  0  2  0  0  0  0  0  0
  189.8550  175.7040  137.7070 S   0  0  0  0  0  0  0  0  0  0  0  0
  190.0090  176.6160  139.2270 N   0  0  0  0  0  0  0  0  0  0  0  0
  192.1770  174.4260  137.8580 N   0  0  0  0  0  1  0  0  0  0  0  0
  1 19  1  6  0  0  0
  2  1  1  6  0  0  0
  2  8  1  0  0  0  0
  2  3  1  0  0  0  0
  3 11  2  0  0  0  0
  4  5  1  0  0  0  0
  4  7  2  0  0  0  0
  5  3  1  0  0  0  0
  7  9  1  0  0  0  0
  8 10  1  0  0  0  0
  9 12  2  0  0  0  0
 10  6  1  0  0  0  0
 11  6  1  0  0  0  0
 11 12  1  0  0  0  0
 13 16  1  0  0  0  0
 13 14  1  0  0  0  0
 14 18  1  0  0  0  0
 15 13  1  0  0  0  0
 16 17  1  0  0  0  0
 17 18  1  0  0  0  0
 17  1  1  1  0  0  0
 20 19  1  0  0  0  0
 21 24  1  6  0  0  0
 21 20  1  0  0  0  0
 22 23  1  0  0  0  0
 23 21  1  0  0  0  0
 24 30  1  0  0  0  0
 25 27  1  1  0  0  0
 25 28  1  0  0  0  0
 26 29  1  0  0  0  0
 26 31  1  1  0  0  0
 26 25  1  0  0  0  0
 29 30  1  0  0  0  0
 30 28  1  0  0  0  0
M  END
>  <MODEL>
2

>  <REMARK>
 VINA RESULT:      -7.8      2.610      5.761
  Name = 
  8 active torsions:
  status: ('A' for Active; 'I' for Inactive)
    1  A    between atoms: C_3  and  C_9
    2  A    between atoms: C_3  and  N_22
    3  A    between atoms: C_4  and  C_12
    4  A    between atoms: C_9  and  C_15
    5  A    between atoms: C_9  and  O_23
    6  A    between atoms: C_12  and  C_20
    7  A    between atoms: C_12  and  C_27
    8  A    between atoms: C_15  and  C_20
                            x       y       z     vdW  Elec       q    Type
                         _______ _______ _______ _____ _____    ______ ____

>  <TORSDO>
F 8

$$$$
=
 OpenBabel11052413013D

 31 34  0  0  1  0  0  0  0  0999 V2000
  188.3900  178.1390  142.4630 C   0  0  1  0  0  3  0  0  0  0  0  0
  186.8690  177.9330  142.3140 C   0  0  1  0  0  3  0  0  0  0  0  0
  186.1520  177.9790  143.6510 C   0  0  0  0  0  0  0  0  0  0  0  0
  186.9670  178.2280  145.9690 C   0  0  0  0  0  3  0  0  0  0  0  0
  186.7750  177.2900  144.8270 C   0  0  0  0  0  2  0  0  0  0  0  0
  184.2530  178.8240  142.5100 O   0  0  0  0  0  0  0  0  0  0  0  0
  185.9510  178.8230  146.5880 C   0  0  0  0  0  3  0  0  0  0  0  0
  186.2990  178.8840  141.3550 N   0  0  0  0  0  2  0  0  0  0  0  0
  184.5380  178.7070  146.1840 C   0  0  0  0  0  3  0  0  0  0  0  0
  184.8710  178.6180  141.2430 C   0  0  0  0  0  2  0  0  0  0  0  0
  184.8790  178.4250  143.6970 C   0  0  0  0  0  0  0  0  0  0  0  0
  184.0810  178.5260  144.9390 C   0  0  0  0  0  3  0  0  0  0  0  0
  191.3230  176.8160  144.1030 N   0  0  0  0  0  0  0  0  0  0  0  0
  190.6920  175.6540  143.4950 C   0  0  0  0  0  2  0  0  0  0  0  0
  191.6130  176.4660  145.4830 C   0  0  0  0  0  1  0  0  0  0  0  0
  190.2830  177.8170  144.1310 C   0  0  0  0  0  2  0  0  0  0  0  0
  189.0960  177.1920  143.4420 C   0  0  2  0  0  3  0  0  0  0  0  0
  189.5540  176.0520  142.7760 O   0  0  0  0  0  0  0  0  0  0  0  0
  189.1670  178.3900  141.1650 C   0  0  0  0  0  2  0  0  0  0  0  0
  189.1220  177.2080  140.2010 C   0  0  0  0  0  2  0  0  0  0  0  0
  188.7170  177.6390  138.7930 C   0  0  1  0  0  3  0  0  0  0  0  0
  189.0440  179.2360  137.2940 C   0  0  0  0  0  1  0  0  0  0  0  0
  188.8270  179.0250  138.6570 O   0  0  0  0  0  0  0  0  0  0  0  0
  189.5600  176.9430  137.7290 C   0  0  0  0  0  2  0  0  0  0  0  0
  192.4610  176.3760  137.1140 C   0  0  2  0  0  3  0  0  0  0  0  0
  192.2810  174.9120  136.8210 C   0  0  2  0  0  3  0  0  0  0  0  0
  193.8110  176.7190  137.2110 O   0  0  0  0  0  1  0  0  0  0  0  0
  191.7790  176.6640  138.3640 N   0  0  0  0  0  2  0  0  0  0  0  0
  190.5920  174.5710  137.3360 S   0  0  0  0  0  0  0  0  0  0  0  0
  190.5170  176.0320  138.3490 N   0  0  0  0  0  0  0  0  0  0  0  0
  193.1890  174.1080  137.6230 N   0  0  0  0  0  1  0  0  0  0  0  0
  1 19  1  6  0  0  0
  2  1  1  1  0  0  0
  2  3  1  0  0  0  0
  3 11  2  0  0  0  0
  3  5  1  0  0  0  0
  4  7  2  0  0  0  0
  5  4  1  0  0  0  0
  6 11  1  0  0  0  0
  8  2  1  0  0  0  0
  9  7  1  0  0  0  0
 10  8  1  0  0  0  0
 10  6  1  0  0  0  0
 11 12  1  0  0  0  0
 12  9  2  0  0  0  0
 13 16  1  0  0  0  0
 13 15  1  0  0  0  0
 14 13  1  0  0  0  0
 17  1  1  6  0  0  0
 17 16  1  0  0  0  0
 18 17  1  0  0  0  0
 18 14  1  0  0  0  0
 20 19  1  0  0  0  0
 21 24  1  6  0  0  0
 21 20  1  0  0  0  0
 22 23  1  0  0  0  0
 23 21  1  0  0  0  0
 24 30  1  0  0  0  0
 25 27  1  1  0  0  0
 25 28  1  0  0  0  0
 26 25  1  0  0  0  0
 26 29  1  0  0  0  0
 26 31  1  1  0  0  0
 29 30  1  0  0  0  0
 30 28  1  0  0  0  0
M  END
>  <MODEL>
3

>  <REMARK>
 VINA RESULT:      -7.8      2.820      4.286
  Name = 
  8 active torsions:
  status: ('A' for Active; 'I' for Inactive)
    1  A    between atoms: C_3  and  C_9
    2  A    between atoms: C_3  and  N_22
    3  A    between atoms: C_4  and  C_12
    4  A    between atoms: C_9  and  C_15
    5  A    between atoms: C_9  and  O_23
    6  A    between atoms: C_12  and  C_20
    7  A    between atoms: C_12  and  C_27
    8  A    between atoms: C_15  and  C_20
                            x       y       z     vdW  Elec       q    Type
                         _______ _______ _______ _____ _____    ______ ____

>  <TORSDO>
F 8

$$$$
=
 OpenBabel11052413013D

 31 34  0  0  1  0  0  0  0  0999 V2000
  187.8230  177.8680  144.8480 C   0  0  1  0  0  3  0  0  0  0  0  0
  186.5480  178.5260  145.4130 C   0  0  1  0  0  3  0  0  0  0  0  0
  185.5120  178.7870  144.3330 C   0  0  0  0  0  0  0  0  0  0  0  0
  185.5350  178.4400  141.8880 C   0  0  0  0  0  3  0  0  0  0  0  0
  185.9700  179.3190  143.0100 C   0  0  0  0  0  2  0  0  0  0  0  0
  183.8380  178.5040  145.9870 O   0  0  0  0  0  0  0  0  0  0  0  0
  184.2540  178.2290  141.5980 C   0  0  0  0  0  3  0  0  0  0  0  0
  185.9950  177.7410  146.5210 N   0  0  0  0  0  2  0  0  0  0  0  0
  183.1180  178.7520  142.3790 C   0  0  0  0  0  3  0  0  0  0  0  0
  184.8130  178.4290  147.0230 C   0  0  0  0  0  2  0  0  0  0  0  0
  184.2030  178.7610  144.6610 C   0  0  0  0  0  0  0  0  0  0  0  0
  183.1040  178.9890  143.6970 C   0  0  0  0  0  3  0  0  0  0  0  0
  190.0500  176.5680  147.3770 N   0  0  0  0  0  0  0  0  0  0  0  0
  189.6480  177.8730  147.8830 C   0  0  0  0  0  2  0  0  0  0  0  0
  191.4970  176.5020  147.4830 C   0  0  0  0  0  1  0  0  0  0  0  0
  189.7310  176.6140  145.9700 C   0  0  0  0  0  2  0  0  0  0  0  0
  189.0650  177.9480  145.7450 C   0  0  2  0  0  3  0  0  0  0  0  0
  188.7300  178.4630  147.0000 O   0  0  0  0  0  0  0  0  0  0  0  0
  187.6340  176.5100  144.1610 C   0  0  0  0  0  2  0  0  0  0  0  0
  188.1870  176.4760  142.7390 C   0  0  0  0  0  2  0  0  0  0  0  0
  189.3090  177.4930  142.5430 C   0  0  1  0  0  3  0  0  0  0  0  0
  191.4530  177.9450  142.8600 C   0  0  0  0  0  1  0  0  0  0  0  0
  190.5540  176.8860  142.7190 O   0  0  0  0  0  0  0  0  0  0  0  0
  189.2370  178.1460  141.1660 C   0  0  0  0  0  2  0  0  0  0  0  0
  190.4420  177.4550  138.4850 C   0  0  2  0  0  3  0  0  0  0  0  0
  189.2230  177.7860  137.6690 C   0  0  2  0  0  3  0  0  0  0  0  0
  191.4060  176.7910  137.7230 O   0  0  0  0  0  1  0  0  0  0  0  0
  190.0190  176.6200  139.5950 N   0  0  0  0  0  2  0  0  0  0  0  0
  187.9350  178.0420  138.8990 S   0  0  0  0  0  0  0  0  0  0  0  0
  188.8450  177.1700  140.1550 N   0  0  0  0  0  0  0  0  0  0  0  0
  188.8470  176.6660  136.8210 N   0  0  0  0  0  1  0  0  0  0  0  0
  1 19  1  1  0  0  0
  2  1  1  6  0  0  0
  2  8  1  0  0  0  0
  3 11  2  0  0  0  0
  3  2  1  0  0  0  0
  4  5  1  0  0  0  0
  5  3  1  0  0  0  0
  6 10  1  0  0  0  0
  7  4  2  0  0  0  0
  7  9  1  0  0  0  0
  8 10  1  0  0  0  0
  9 12  2  0  0  0  0
 11  6  1  0  0  0  0
 12 11  1  0  0  0  0
 13 15  1  0  0  0  0
 13 14  1  0  0  0  0
 16 13  1  0  0  0  0
 17  1  1  6  0  0  0
 17 16  1  0  0  0  0
 17 18  1  0  0  0  0
 18 14  1  0  0  0  0
 20 19  1  0  0  0  0
 21 24  1  6  0  0  0
 21 23  1  0  0  0  0
 21 20  1  0  0  0  0
 23 22  1  0  0  0  0
 25 27  1  6  0  0  0
 25 28  1  0  0  0  0
 26 31  1  6  0  0  0
 26 25  1  0  0  0  0
 26 29  1  0  0  0  0
 28 30  1  0  0  0  0
 29 30  1  0  0  0  0
 30 24  1  0  0  0  0
M  END
>  <MODEL>
4

>  <REMARK>
 VINA RESULT:      -7.6      1.442      1.572
  Name = 
  8 active torsions:
  status: ('A' for Active; 'I' for Inactive)
    1  A    between atoms: C_3  and  C_9
    2  A    between atoms: C_3  and  N_22
    3  A    between atoms: C_4  and  C_12
    4  A    between atoms: C_9  and  C_15
    5  A    between atoms: C_9  and  O_23
    6  A    between atoms: C_12  and  C_20
    7  A    between atoms: C_12  and  C_27
    8  A    between atoms: C_15  and  C_20
                            x       y       z     vdW  Elec       q    Type
                         _______ _______ _______ _____ _____    ______ ____

>  <TORSDO>
F 8

$$$$
=
 OpenBabel11052413013D

 31 34  0  0  1  0  0  0  0  0999 V2000
  185.5850  178.2180  142.0440 C   0  0  1  0  0  3  0  0  0  0  0  0
  185.3600  178.1630  143.5680 C   0  0  1  0  0  3  0  0  0  0  0  0
  186.5780  177.6390  144.3080 C   0  0  0  0  0  0  0  0  0  0  0  0
  188.7640  176.7950  143.5260 C   0  0  0  0  0  3  0  0  0  0  0  0
  187.3230  176.4730  143.7320 C   0  0  0  0  0  2  0  0  0  0  0  0
  185.9330  178.9810  146.1520 O   0  0  0  0  0  0  0  0  0  0  0  0
  189.5840  177.0940  144.5300 C   0  0  0  0  0  3  0  0  0  0  0  0
  184.9260  179.4640  144.0850 N   0  0  0  0  0  2  0  0  0  0  0  0
  189.1710  177.2290  145.9390 C   0  0  0  0  0  3  0  0  0  0  0  0
  184.7070  179.3360  145.5200 C   0  0  0  0  0  2  0  0  0  0  0  0
  186.8180  178.0700  145.5640 C   0  0  0  0  0  0  0  0  0  0  0  0
  187.9750  177.6410  146.3800 C   0  0  0  0  0  3  0  0  0  0  0  0
  183.3850  178.2280  139.1790 N   0  0  0  0  0  0  0  0  0  0  0  0
  183.9670  179.5620  139.1950 C   0  0  0  0  0  2  0  0  0  0  0  0
  181.9500  178.3940  139.0330 C   0  0  0  0  0  1  0  0  0  0  0  0
  183.6190  177.7170  140.5090 C   0  0  0  0  0  2  0  0  0  0  0  0
  184.4190  178.7800  141.2200 C   0  0  2  0  0  3  0  0  0  0  0  0
  184.8890  179.6660  140.2480 O   0  0  0  0  0  0  0  0  0  0  0  0
  186.9660  178.6980  141.5830 C   0  0  0  0  0  2  0  0  0  0  0  0
  187.4190  178.0560  140.2740 C   0  0  0  0  0  2  0  0  0  0  0  0
  188.9140  178.2550  140.0330 C   0  0  1  0  0  3  0  0  0  0  0  0
  190.9660  177.4450  140.2230 C   0  0  0  0  0  1  0  0  0  0  0  0
  189.6420  177.2050  140.5980 O   0  0  0  0  0  0  0  0  0  0  0  0
  189.2300  178.3670  138.5450 C   0  0  0  0  0  2  0  0  0  0  0  0
  189.6860  176.8870  135.9530 C   0  0  2  0  0  3  0  0  0  0  0  0
  188.5760  177.5540  135.1890 C   0  0  2  0  0  3  0  0  0  0  0  0
  190.2090  175.7970  135.2540 O   0  0  0  0  0  1  0  0  0  0  0  0
  189.1460  176.4520  137.2290 N   0  0  0  0  0  2  0  0  0  0  0  0
  187.6710  178.4670  136.4470 S   0  0  0  0  0  0  0  0  0  0  0  0
  188.3580  177.4930  137.7670 N   0  0  0  0  0  0  0  0  0  0  0  0
  187.6880  176.5650  134.5960 N   0  0  0  0  0  1  0  0  0  0  0  0
  1 19  1  1  0  0  0
  2  1  1  6  0  0  0
  2  8  1  0  0  0  0
  2  3  1  0  0  0  0
  3 11  2  0  0  0  0
  4  5  1  0  0  0  0
  4  7  2  0  0  0  0
  5  3  1  0  0  0  0
  7  9  1  0  0  0  0
  8 10  1  0  0  0  0
  9 12  2  0  0  0  0
 10  6  1  0  0  0  0
 11  6  1  0  0  0  0
 11 12  1  0  0  0  0
 13 14  1  0  0  0  0
 13 16  1  0  0  0  0
 14 18  1  0  0  0  0
 15 13  1  0  0  0  0
 16 17  1  0  0  0  0
 17  1  1  6  0  0  0
 18 17  1  0  0  0  0
 20 19  1  0  0  0  0
 21 24  1  6  0  0  0
 21 20  1  0  0  0  0
 21 23  1  0  0  0  0
 22 23  1  0  0  0  0
 25 27  1  6  0  0  0
 25 28  1  0  0  0  0
 26 31  1  1  0  0  0
 26 25  1  0  0  0  0
 26 29  1  0  0  0  0
 28 30  1  0  0  0  0
 29 30  1  0  0  0  0
 30 24  1  0  0  0  0
M  END
>  <MODEL>
5

>  <REMARK>
 VINA RESULT:      -7.6      2.363      5.366
  Name = 
  8 active torsions:
  status: ('A' for Active; 'I' for Inactive)
    1  A    between atoms: C_3  and  C_9
    2  A    between atoms: C_3  and  N_22
    3  A    between atoms: C_4  and  C_12
    4  A    between atoms: C_9  and  C_15
    5  A    between atoms: C_9  and  O_23
    6  A    between atoms: C_12  and  C_20
    7  A    between atoms: C_12  and  C_27
    8  A    between atoms: C_15  and  C_20
                            x       y       z     vdW  Elec       q    Type
                         _______ _______ _______ _____ _____    ______ ____

>  <TORSDO>
F 8

$$$$
=
 OpenBabel11052413013D

 31 34  0  0  1  0  0  0  0  0999 V2000
  188.4400  178.1540  142.6680 C   0  0  1  0  0  3  0  0  0  0  0  0
  186.9190  177.9410  142.5300 C   0  0  1  0  0  3  0  0  0  0  0  0
  186.2140  177.9610  143.8750 C   0  0  0  0  0  0  0  0  0  0  0  0
  187.0510  178.1790  146.1890 C   0  0  0  0  0  3  0  0  0  0  0  0
  186.8530  177.2580  145.0330 C   0  0  0  0  0  2  0  0  0  0  0  0
  184.3000  178.8120  142.7650 O   0  0  0  0  0  0  0  0  0  0  0  0
  186.0370  178.7580  146.8270 C   0  0  0  0  0  3  0  0  0  0  0  0
  186.3340  178.9040  141.5920 N   0  0  0  0  0  2  0  0  0  0  0  0
  184.6210  178.6390  146.4350 C   0  0  0  0  0  3  0  0  0  0  0  0
  184.9060  178.6310  141.4890 C   0  0  0  0  0  2  0  0  0  0  0  0
  184.9390  178.3990  143.9400 C   0  0  0  0  0  0  0  0  0  0  0  0
  184.1520  178.4750  145.1910 C   0  0  0  0  0  3  0  0  0  0  0  0
  191.3990  176.8300  144.2610 N   0  0  0  0  0  0  0  0  0  0  0  0
  190.8260  175.6920  143.5560 C   0  0  0  0  0  2  0  0  0  0  0  0
  191.6810  176.3890  145.6160 C   0  0  0  0  0  1  0  0  0  0  0  0
  190.3180  177.7830  144.3430 C   0  0  0  0  0  2  0  0  0  0  0  0
  189.1690  177.1650  143.5870 C   0  0  2  0  0  3  0  0  0  0  0  0
  189.6840  176.0980  142.8470 O   0  0  0  0  0  0  0  0  0  0  0  0
  189.1950  178.4790  141.3730 C   0  0  0  0  0  2  0  0  0  0  0  0
  188.7830  177.5930  140.2010 C   0  0  0  0  0  2  0  0  0  0  0  0
  189.9480  177.3380  139.2470 C   0  0  1  0  0  3  0  0  0  0  0  0
  191.4100  175.8800  138.4440 C   0  0  0  0  0  1  0  0  0  0  0  0
  190.5220  176.0890  139.5010 O   0  0  0  0  0  0  0  0  0  0  0  0
  189.5070  177.4210  137.7890 C   0  0  0  0  0  2  0  0  0  0  0  0
  187.8270  176.1690  135.6160 C   0  0  2  0  0  3  0  0  0  0  0  0
  187.0030  177.3930  135.3230 C   0  0  2  0  0  3  0  0  0  0  0  0
  187.3080  175.0370  134.9830 O   0  0  0  0  0  1  0  0  0  0  0  0
  187.8380  175.9780  137.0560 N   0  0  0  0  0  2  0  0  0  0  0  0
  187.4300  178.5310  136.6490 S   0  0  0  0  0  0  0  0  0  0  0  0
  188.0660  177.2250  137.6770 N   0  0  0  0  0  0  0  0  0  0  0  0
  185.5820  177.0920  135.4010 N   0  0  0  0  0  1  0  0  0  0  0  0
  1 19  1  6  0  0  0
  2  1  1  1  0  0  0
  2  3  1  0  0  0  0
  3 11  2  0  0  0  0
  3  5  1  0  0  0  0
  4  7  2  0  0  0  0
  5  4  1  0  0  0  0
  6 11  1  0  0  0  0
  8  2  1  0  0  0  0
  9  7  1  0  0  0  0
 10  8  1  0  0  0  0
 10  6  1  0  0  0  0
 11 12  1  0  0  0  0
 12  9  2  0  0  0  0
 13 16  1  0  0  0  0
 13 15  1  0  0  0  0
 14 13  1  0  0  0  0
 17  1  1  6  0  0  0
 17 16  1  0  0  0  0
 18 14  1  0  0  0  0
 18 17  1  0  0  0  0
 20 19  1  0  0  0  0
 21 24  1  6  0  0  0
 21 23  1  0  0  0  0
 21 20  1  0  0  0  0
 22 23  1  0  0  0  0
 25 27  1  6  0  0  0
 25 28  1  0  0  0  0
 26 31  1  1  0  0  0
 26 25  1  0  0  0  0
 26 29  1  0  0  0  0
 28 30  1  0  0  0  0
 29 30  1  0  0  0  0
 30 24  1  0  0  0  0
M  END
>  <MODEL>
6

>  <REMARK>
 VINA RESULT:      -7.4      2.376      3.573
  Name = 
  8 active torsions:
  status: ('A' for Active; 'I' for Inactive)
    1  A    between atoms: C_3  and  C_9
    2  A    between atoms: C_3  and  N_22
    3  A    between atoms: C_4  and  C_12
    4  A    between atoms: C_9  and  C_15
    5  A    between atoms: C_9  and  O_23
    6  A    between atoms: C_12  and  C_20
    7  A    between atoms: C_12  and  C_27
    8  A    between atoms: C_15  and  C_20
                            x       y       z     vdW  Elec       q    Type
                         _______ _______ _______ _____ _____    ______ ____

>  <TORSDO>
F 8

$$$$
=
 OpenBabel11052413013D

 31 34  0  0  1  0  0  0  0  0999 V2000
  188.2870  177.8960  141.9890 C   0  0  1  0  0  3  0  0  0  0  0  0
  186.7540  177.9580  142.1390 C   0  0  1  0  0  3  0  0  0  0  0  0
  186.3210  177.9310  143.5940 C   0  0  0  0  0  0  0  0  0  0  0  0
  187.5870  177.7220  145.7040 C   0  0  0  0  0  3  0  0  0  0  0  0
  187.0150  176.9950  144.5360 C   0  0  0  0  0  2  0  0  0  0  0  0
  184.4310  179.2190  142.9690 O   0  0  0  0  0  0  0  0  0  0  0  0
  186.8320  178.3790  146.5810 C   0  0  0  0  0  3  0  0  0  0  0  0
  186.2000  179.1120  141.4260 N   0  0  0  0  0  2  0  0  0  0  0  0
  185.3720  178.5480  146.4700 C   0  0  0  0  0  3  0  0  0  0  0  0
  184.7520  179.0960  141.5860 C   0  0  0  0  0  2  0  0  0  0  0  0
  185.1830  178.5640  143.9510 C   0  0  0  0  0  0  0  0  0  0  0  0
  184.6640  178.6170  145.3350 C   0  0  0  0  0  3  0  0  0  0  0  0
  191.2960  177.2490  143.8800 N   0  0  0  0  0  0  0  0  0  0  0  0
  190.7290  175.9300  143.6350 C   0  0  0  0  0  2  0  0  0  0  0  0
  191.6100  177.3180  145.2960 C   0  0  0  0  0  1  0  0  0  0  0  0
  190.2010  178.1600  143.6440 C   0  0  0  0  0  2  0  0  0  0  0  0
  189.0490  177.3040  143.1810 C   0  0  2  0  0  3  0  0  0  0  0  0
  189.5690  176.0480  142.8550 O   0  0  0  0  0  0  0  0  0  0  0  0
  188.8130  177.4410  140.6220 C   0  0  0  0  0  2  0  0  0  0  0  0
  188.7150  178.5240  139.5510 C   0  0  0  0  0  2  0  0  0  0  0  0
  187.9660  178.0330  138.3140 C   0  0  1  0  0  3  0  0  0  0  0  0
  185.7770  177.9840  137.9850 C   0  0  0  0  0  1  0  0  0  0  0  0
  186.8670  178.8540  138.0520 O   0  0  0  0  0  0  0  0  0  0  0  0
  188.8780  177.9770  137.0930 C   0  0  0  0  0  2  0  0  0  0  0  0
  190.6750  175.5610  137.3060 C   0  0  2  0  0  3  0  0  0  0  0  0
  191.0370  175.4980  135.8480 C   0  0  2  0  0  3  0  0  0  0  0  0
  191.0940  174.4170  137.9890 O   0  0  0  0  0  1  0  0  0  0  0  0
  189.2320  175.7000  137.3990 N   0  0  0  0  0  2  0  0  0  0  0  0
  189.9250  176.6830  135.0750 S   0  0  0  0  0  0  0  0  0  0  0  0
  188.8080  176.6640  136.4590 N   0  0  0  0  0  0  0  0  0  0  0  0
  190.7680  174.1760  135.3030 N   0  0  0  0  0  1  0  0  0  0  0  0
  1 19  1  6  0  0  0
  2  1  1  1  0  0  0
  2  3  1  0  0  0  0
  3 11  2  0  0  0  0
  3  5  1  0  0  0  0
  4  7  2  0  0  0  0
  5  4  1  0  0  0  0
  6 11  1  0  0  0  0
  8 10  1  0  0  0  0
  8  2  1  0  0  0  0
  9  7  1  0  0  0  0
 10  6  1  0  0  0  0
 11 12  1  0  0  0  0
 12  9  2  0  0  0  0
 13 15  1  0  0  0  0
 14 13  1  0  0  0  0
 16 13  1  0  0  0  0
 17  1  1  6  0  0  0
 17 16  1  0  0  0  0
 18 17  1  0  0  0  0
 18 14  1  0  0  0  0
 20 19  1  0  0  0  0
 21 24  1  6  0  0  0
 21 20  1  0  0  0  0
 22 23  1  0  0  0  0
 23 21  1  0  0  0  0
 25 28  1  0  0  0  0
 25 27  1  1  0  0  0
 26 31  1  6  0  0  0
 26 25  1  0  0  0  0
 29 26  1  0  0  0  0
 29 30  1  0  0  0  0
 30 24  1  0  0  0  0
 30 28  1  0  0  0  0
M  END
>  <MODEL>
7

>  <REMARK>
 VINA RESULT:      -7.1      2.541      4.257
  Name = 
  8 active torsions:
  status: ('A' for Active; 'I' for Inactive)
    1  A    between atoms: C_3  and  C_9
    2  A    between atoms: C_3  and  N_22
    3  A    between atoms: C_4  and  C_12
    4  A    between atoms: C_9  and  C_15
    5  A    between atoms: C_9  and  O_23
    6  A    between atoms: C_12  and  C_20
    7  A    between atoms: C_12  and  C_27
    8  A    between atoms: C_15  and  C_20
                            x       y       z     vdW  Elec       q    Type
                         _______ _______ _______ _____ _____    ______ ____

>  <TORSDO>
F 8

$$$$
=
 OpenBabel11052413013D

 31 34  0  0  1  0  0  0  0  0999 V2000
  185.6670  177.9920  141.8640 C   0  0  1  0  0  3  0  0  0  0  0  0
  185.3740  178.0640  143.3760 C   0  0  1  0  0  3  0  0  0  0  0  0
  186.5700  177.6450  144.2120 C   0  0  0  0  0  0  0  0  0  0  0  0
  188.8120  176.8050  143.6050 C   0  0  0  0  0  3  0  0  0  0  0  0
  187.3730  176.4580  143.7760 C   0  0  0  0  0  2  0  0  0  0  0  0
  185.8040  179.1240  145.8990 O   0  0  0  0  0  0  0  0  0  0  0  0
  189.5760  177.2170  144.6130 C   0  0  0  0  0  3  0  0  0  0  0  0
  184.8810  179.3920  143.7550 N   0  0  0  0  0  2  0  0  0  0  0  0
  189.0950  177.4620  145.9850 C   0  0  0  0  0  3  0  0  0  0  0  0
  184.6000  179.3830  145.1850 C   0  0  0  0  0  2  0  0  0  0  0  0
  186.7400  178.1930  145.4340 C   0  0  0  0  0  0  0  0  0  0  0  0
  187.8690  177.8730  146.3350 C   0  0  0  0  0  3  0  0  0  0  0  0
  182.9330  179.5280  140.0720 N   0  0  0  0  0  0  0  0  0  0  0  0
  182.2980  178.5270  140.9160 C   0  0  0  0  0  2  0  0  0  0  0  0
  182.4030  179.3500  138.7320 C   0  0  0  0  0  1  0  0  0  0  0  0
  184.3220  179.1360  140.0330 C   0  0  0  0  0  2  0  0  0  0  0  0
  184.4370  177.9440  140.9500 C   0  0  2  0  0  3  0  0  0  0  0  0
  183.2650  177.8890  141.7080 O   0  0  0  0  0  0  0  0  0  0  0  0
  186.7930  178.8990  141.3520 C   0  0  0  0  0  2  0  0  0  0  0  0
  187.8270  178.1540  140.5120 C   0  0  0  0  0  2  0  0  0  0  0  0
  187.8160  178.6160  139.0570 C   0  0  1  0  0  3  0  0  0  0  0  0
  189.4360  178.4930  137.5520 C   0  0  0  0  0  1  0  0  0  0  0  0
  189.0510  179.1700  138.7110 O   0  0  0  0  0  0  0  0  0  0  0  0
  187.4740  177.4720  138.1080 C   0  0  0  0  0  2  0  0  0  0  0  0
  185.4840  175.6840  136.7090 C   0  0  2  0  0  3  0  0  0  0  0  0
  185.6920  176.2550  135.3330 C   0  0  2  0  0  3  0  0  0  0  0  0
  184.3740  174.8370  136.7510 O   0  0  0  0  0  1  0  0  0  0  0  0
  185.3020  176.7950  137.6270 N   0  0  0  0  0  2  0  0  0  0  0  0
  186.7070  177.7130  135.6190 S   0  0  0  0  0  0  0  0  0  0  0  0
  186.2710  177.7810  137.3420 N   0  0  0  0  0  0  0  0  0  0  0  0
  184.4270  176.6700  134.7470 N   0  0  0  0  0  1  0  0  0  0  0  0
  1 19  1  6  0  0  0
  2  1  1  6  0  0  0
  2  8  1  0  0  0  0
  2  3  1  0  0  0  0
  3 11  2  0  0  0  0
  4  5  1  0  0  0  0
  4  7  2  0  0  0  0
  5  3  1  0  0  0  0
  7  9  1  0  0  0  0
  8 10  1  0  0  0  0
  9 12  2  0  0  0  0
 10  6  1  0  0  0  0
 11  6  1  0  0  0  0
 11 12  1  0  0  0  0
 13 14  1  0  0  0  0
 14 18  1  0  0  0  0
 15 13  1  0  0  0  0
 16 13  1  0  0  0  0
 16 17  1  0  0  0  0
 17 18  1  0  0  0  0
 17  1  1  1  0  0  0
 20 19  1  0  0  0  0
 21 24  1  6  0  0  0
 21 20  1  0  0  0  0
 22 23  1  0  0  0  0
 23 21  1  0  0  0  0
 25 27  1  6  0  0  0
 25 28  1  0  0  0  0
 26 31  1  1  0  0  0
 26 29  1  0  0  0  0
 26 25  1  0  0  0  0
 29 30  1  0  0  0  0
 30 28  1  0  0  0  0
 30 24  1  0  0  0  0
M  END
>  <MODEL>
8

>  <REMARK>
 VINA RESULT:      -6.9      2.592      5.522
  Name = 
  8 active torsions:
  status: ('A' for Active; 'I' for Inactive)
    1  A    between atoms: C_3  and  C_9
    2  A    between atoms: C_3  and  N_22
    3  A    between atoms: C_4  and  C_12
    4  A    between atoms: C_9  and  C_15
    5  A    between atoms: C_9  and  O_23
    6  A    between atoms: C_12  and  C_20
    7  A    between atoms: C_12  and  C_27
    8  A    between atoms: C_15  and  C_20
                            x       y       z     vdW  Elec       q    Type
                         _______ _______ _______ _____ _____    ______ ____

>  <TORSDO>
F 8

$$$$
=
 OpenBabel11052413013D

 31 34  0  0  1  0  0  0  0  0999 V2000
  185.0590  178.4920  139.2230 C   0  0  1  0  0  3  0  0  0  0  0  0
  183.8050  179.0780  138.5430 C   0  0  1  0  0  3  0  0  0  0  0  0
  182.6260  178.1230  138.5980 C   0  0  0  0  0  0  0  0  0  0  0  0
  182.3830  175.8270  139.4750 C   0  0  0  0  0  3  0  0  0  0  0  0
  182.8660  176.6660  138.3420 C   0  0  0  0  0  2  0  0  0  0  0  0
  181.2000  180.0160  138.6190 O   0  0  0  0  0  0  0  0  0  0  0  0
  181.1030  175.7690  139.8300 C   0  0  0  0  0  3  0  0  0  0  0  0
  183.4690  180.3920  139.0990 N   0  0  0  0  0  2  0  0  0  0  0  0
  180.0260  176.5730  139.2240 C   0  0  0  0  0  3  0  0  0  0  0  0
  182.2960  180.8980  138.3980 C   0  0  0  0  0  2  0  0  0  0  0  0
  181.3750  178.6280  138.6380 C   0  0  0  0  0  0  0  0  0  0  0  0
  180.1500  177.8010  138.7030 C   0  0  0  0  0  3  0  0  0  0  0  0
  187.7090  176.5850  137.6770 N   0  0  0  0  0  0  0  0  0  0  0  0
  188.3970  177.6470  138.3970 C   0  0  0  0  0  2  0  0  0  0  0  0
  188.2570  176.5620  136.3320 C   0  0  0  0  0  1  0  0  0  0  0  0
  186.3460  177.0490  137.5690 C   0  0  0  0  0  2  0  0  0  0  0  0
  186.2960  178.3520  138.3270 C   0  0  2  0  0  3  0  0  0  0  0  0
  187.4640  178.4350  139.0890 O   0  0  0  0  0  0  0  0  0  0  0  0
  185.3630  179.0070  140.6350 C   0  0  0  0  0  2  0  0  0  0  0  0
  184.6020  178.2560  141.7240 C   0  0  0  0  0  2  0  0  0  0  0  0
  185.2790  178.3920  143.0860 C   0  0  1  0  0  3  0  0  0  0  0  0
  183.2200  178.9740  143.6570 C   0  0  0  0  0  1  0  0  0  0  0  0
  184.3380  178.2730  144.1120 O   0  0  0  0  0  0  0  0  0  0  0  0
  186.3840  177.3560  143.2690 C   0  0  0  0  0  2  0  0  0  0  0  0
  189.1780  176.2160  143.1900 C   0  0  2  0  0  3  0  0  0  0  0  0
  189.6110  176.7560  144.5250 C   0  0  2  0  0  3  0  0  0  0  0  0
  190.2570  175.6970  142.4710 O   0  0  0  0  0  1  0  0  0  0  0  0
  188.5600  177.3030  142.4510 N   0  0  0  0  0  2  0  0  0  0  0  0
  188.2830  177.8780  144.9900 S   0  0  0  0  0  0  0  0  0  0  0  0
  187.6910  178.0030  143.3170 N   0  0  0  0  0  0  0  0  0  0  0  0
  190.8460  177.5150  144.4010 N   0  0  0  0  0  1  0  0  0  0  0  0
  1 19  1  1  0  0  0
  2  3  1  0  0  0  0
  2  8  1  0  0  0  0
  2  1  1  1  0  0  0
  3 11  2  0  0  0  0
  4  7  2  0  0  0  0
  5  3  1  0  0  0  0
  5  4  1  0  0  0  0
  6 11  1  0  0  0  0
  9  7  1  0  0  0  0
 10  6  1  0  0  0  0
 10  8  1  0  0  0  0
 11 12  1  0  0  0  0
 12  9  2  0  0  0  0
 13 14  1  0  0  0  0
 14 18  1  0  0  0  0
 15 13  1  0  0  0  0
 16 13  1  0  0  0  0
 16 17  1  0  0  0  0
 17 18  1  0  0  0  0
 17  1  1  1  0  0  0
 19 20  1  0  0  0  0
 21 20  1  6  0  0  0
 21 24  1  0  0  0  0
 21 23  1  0  0  0  0
 22 23  1  0  0  0  0
 24 30  1  0  0  0  0
 25 27  1  6  0  0  0
 25 26  1  0  0  0  0
 26 31  1  6  0  0  0
 26 29  1  0  0  0  0
 28 25  1  0  0  0  0
 28 30  1  0  0  0  0
 30 29  1  0  0  0  0
M  END
>  <MODEL>
9

>  <REMARK>
 VINA RESULT:      -6.8      3.217      6.987
  Name = 
  8 active torsions:
  status: ('A' for Active; 'I' for Inactive)
    1  A    between atoms: C_3  and  C_9
    2  A    between atoms: C_3  and  N_22
    3  A    between atoms: C_4  and  C_12
    4  A    between atoms: C_9  and  C_15
    5  A    between atoms: C_9  and  O_23
    6  A    between atoms: C_12  and  C_20
    7  A    between atoms: C_12  and  C_27
    8  A    between atoms: C_15  and  C_20
                            x       y       z     vdW  Elec       q    Type
                         _______ _______ _______ _____ _____    ______ ____

>  <TORSDO>
F 8

$$$$
