=
 OpenBabel11052414393D

 32 36  0  0  1  0  0  0  0  0999 V2000
  183.0730  177.9710  140.8690 C   0  0  1  0  0  3  0  0  0  0  0  0
  184.7020  178.1660  139.1810 C   0  0  0  0  0  0  0  0  0  0  0  0
  183.1230  176.3910  138.8130 C   0  0  0  0  0  3  0  0  0  0  0  0
  187.0140  178.2700  136.3180 N   0  0  0  0  0  2  0  0  0  0  0  0
  183.6090  177.4440  139.5840 C   0  0  0  0  0  0  0  0  0  0  0  0
  185.4020  176.4940  136.0270 C   0  0  0  0  0  3  0  0  0  0  0  0
  184.8340  176.8150  137.1970 C   0  0  0  0  0  0  0  0  0  0  0  0
  183.7510  176.1030  137.6340 N   0  0  0  0  0  0  0  0  0  0  0  0
  185.0450  179.1750  140.1170 N   0  0  0  0  0  2  0  0  0  0  0  0
  184.1000  179.0800  141.2370 C   0  0  2  0  0  3  0  0  0  0  0  0
  185.3490  177.8820  137.9760 C   0  0  0  0  0  0  0  0  0  0  0  0
  186.5030  177.2290  135.5670 O   0  0  0  0  0  0  0  0  0  0  0  0
  186.4030  178.5990  137.5700 C   0  0  0  0  0  3  0  0  0  0  0  0
  184.8750  178.5460  144.9400 C   0  0  0  0  0  0  0  0  0  0  0  0
  184.2790  178.7100  146.1820 O   0  0  0  0  0  1  0  0  0  0  0  0
  184.8170  178.7270  142.5130 C   0  0  0  0  0  0  0  0  0  0  0  0
  186.1480  177.9790  144.8670 C   0  0  0  0  0  3  0  0  0  0  0  0
  186.0930  178.1400  142.4560 C   0  0  0  0  0  3  0  0  0  0  0  0
  184.2070  178.9310  143.7680 C   0  0  0  0  0  0  0  0  0  0  0  0
  182.8320  179.5140  143.8580 C   0  0  0  0  0  1  0  0  0  0  0  0
  186.7620  177.7720  143.6300 C   0  0  0  0  0  0  0  0  0  0  0  0
  188.8100  176.9800  144.7680 C   0  0  0  0  0  1  0  0  0  0  0  0
  188.0340  177.1870  143.5940 O   0  0  0  0  0  0  0  0  0  0  0  0
  180.5940  177.9750  141.0480 C   0  0  0  0  0  2  0  0  0  0  0  0
  181.6980  178.5600  140.6740 C   0  0  2  0  0  3  0  0  0  0  0  0
  181.3860  179.7420  139.9520 N   0  0  0  0  0  0  0  0  0  0  0  0
  180.0650  180.0370  140.0580 O   0  0  0  0  0  0  0  0  0  0  0  0
  179.4870  178.8390  140.5410 C   0  0  0  0  0  2  0  0  0  0  0  0
  182.1440  180.1820  138.7900 C   0  0  0  0  0  2  0  0  0  0  0  0
  181.2630  180.1510  137.5460 C   0  0  0  0  0  2  0  0  0  0  0  0
  181.4590  178.8630  136.7560 C   0  0  0  0  0  2  0  0  0  0  0  0
  180.2690  177.9350  136.9850 C   0  0  0  0  0  1  0  0  0  0  0  0
  1  5  1  6  0  0  0
  1 10  1  0  0  0  0
  2  5  2  0  0  0  0
  2  9  1  0  0  0  0
  3  5  1  0  0  0  0
  4 13  1  0  0  0  0
  6  7  2  0  0  0  0
  7  8  1  0  0  0  0
  7 11  1  0  0  0  0
  8  3  2  0  0  0  0
  9 10  1  0  0  0  0
 10 16  1  1  0  0  0
 11  2  1  0  0  0  0
 12  6  1  0  0  0  0
 12  4  1  0  0  0  0
 13 11  2  0  0  0  0
 14 15  1  0  0  0  0
 16 19  1  0  0  0  0
 17 14  1  0  0  0  0
 18 16  2  0  0  0  0
 18 21  1  0  0  0  0
 19 20  1  0  0  0  0
 19 14  2  0  0  0  0
 21 17  2  0  0  0  0
 23 21  1  0  0  0  0
 23 22  1  0  0  0  0
 25  1  1  0  0  0  0
 25 24  1  6  0  0  0
 26 27  1  0  0  0  0
 26 25  1  0  0  0  0
 27 28  1  0  0  0  0
 28 24  1  0  0  0  0
 29 26  1  0  0  0  0
 30 29  1  0  0  0  0
 31 32  1  0  0  0  0
 31 30  1  0  0  0  0
M  END
>  <MODEL>
1

>  <REMARK>
 VINA RESULT:      -7.1      0.000      0.000
  Name = 
  6 active torsions:
  status: ('A' for Active; 'I' for Inactive)
    1  A    between atoms: C_1  and  C_5
    2  A    between atoms: C_13  and  C_18
    3  A    between atoms: N_14  and  C_29
    4  A    between atoms: O_15  and  C_26
    5  A    between atoms: C_16  and  C_27
    6  A    between atoms: C_18  and  C_29
                            x       y       z     vdW  Elec       q    Type
                         _______ _______ _______ _____ _____    ______ ____

>  <TORSDO>
F 6

$$$$
=
 OpenBabel11052414393D

 32 36  0  0  1  0  0  0  0  0999 V2000
  182.9410  177.8490  140.5000 C   0  0  1  0  0  3  0  0  0  0  0  0
  184.6690  178.1110  138.9250 C   0  0  0  0  0  0  0  0  0  0  0  0
  183.2300  176.2350  138.4910 C   0  0  0  0  0  3  0  0  0  0  0  0
  187.1670  178.3020  136.2270 N   0  0  0  0  0  2  0  0  0  0  0  0
  183.5970  177.3310  139.2680 C   0  0  0  0  0  0  0  0  0  0  0  0
  185.6900  176.4240  135.8670 C   0  0  0  0  0  3  0  0  0  0  0  0
  185.0230  176.7320  136.9870 C   0  0  0  0  0  0  0  0  0  0  0  0
  183.9560  175.9640  137.3660 N   0  0  0  0  0  0  0  0  0  0  0  0
  184.8840  179.1570  139.8580 N   0  0  0  0  0  2  0  0  0  0  0  0
  183.8700  179.0260  140.9120 C   0  0  2  0  0  3  0  0  0  0  0  0
  185.4160  177.8440  137.7740 C   0  0  0  0  0  0  0  0  0  0  0  0
  186.7740  177.2160  135.4670 O   0  0  0  0  0  0  0  0  0  0  0  0
  186.4510  178.6170  137.4250 C   0  0  0  0  0  3  0  0  0  0  0  0
  184.4280  178.6600  144.6740 C   0  0  0  0  0  0  0  0  0  0  0  0
  183.7530  178.8580  145.8690 O   0  0  0  0  0  1  0  0  0  0  0  0
  184.5160  178.7430  142.2420 C   0  0  0  0  0  0  0  0  0  0  0  0
  185.7160  178.1250  144.7020 C   0  0  0  0  0  3  0  0  0  0  0  0
  185.8060  178.1890  142.2870 C   0  0  0  0  0  3  0  0  0  0  0  0
  183.8240  178.9810  143.4480 C   0  0  0  0  0  0  0  0  0  0  0  0
  182.4330  179.5300  143.4310 C   0  0  0  0  0  1  0  0  0  0  0  0
  186.4110  177.8860  143.5140 C   0  0  0  0  0  0  0  0  0  0  0  0
  188.4980  177.1350  142.4220 C   0  0  0  0  0  1  0  0  0  0  0  0
  187.6960  177.3340  143.5790 O   0  0  0  0  0  0  0  0  0  0  0  0
  181.2310  179.6090  140.1040 C   0  0  0  0  0  2  0  0  0  0  0  0
  181.5490  178.3480  140.1970 C   0  0  2  0  0  3  0  0  0  0  0  0
  180.3760  177.5560  140.1060 N   0  0  0  0  0  0  0  0  0  0  0  0
  179.3130  178.3090  139.7250 O   0  0  0  0  0  0  0  0  0  0  0  0
  179.7480  179.6410  139.9330 C   0  0  0  0  0  2  0  0  0  0  0  0
  180.1710  176.3510  140.8970 C   0  0  0  0  0  2  0  0  0  0  0  0
  179.0160  175.5360  140.3250 C   0  0  0  0  0  2  0  0  0  0  0  0
  179.2930  174.0400  140.4100 C   0  0  0  0  0  2  0  0  0  0  0  0
  179.3120  173.6030  141.8720 C   0  0  0  0  0  1  0  0  0  0  0  0
  1  5  1  6  0  0  0
  1 10  1  0  0  0  0
  2  5  2  0  0  0  0
  2  9  1  0  0  0  0
  3  5  1  0  0  0  0
  4 13  1  0  0  0  0
  6  7  2  0  0  0  0
  7  8  1  0  0  0  0
  7 11  1  0  0  0  0
  8  3  2  0  0  0  0
  9 10  1  0  0  0  0
 10 16  1  1  0  0  0
 11  2  1  0  0  0  0
 12  6  1  0  0  0  0
 12  4  1  0  0  0  0
 13 11  2  0  0  0  0
 14 17  1  0  0  0  0
 14 15  1  0  0  0  0
 16 18  2  0  0  0  0
 16 19  1  0  0  0  0
 18 21  1  0  0  0  0
 19 14  2  0  0  0  0
 20 19  1  0  0  0  0
 21 23  1  0  0  0  0
 21 17  2  0  0  0  0
 22 23  1  0  0  0  0
 25 24  1  1  0  0  0
 25  1  1  0  0  0  0
 26 25  1  0  0  0  0
 26 29  1  0  0  0  0
 27 28  1  0  0  0  0
 27 26  1  0  0  0  0
 28 24  1  0  0  0  0
 30 31  1  0  0  0  0
 30 29  1  0  0  0  0
 31 32  1  0  0  0  0
M  END
>  <MODEL>
2

>  <REMARK>
 VINA RESULT:      -7.0      1.495      2.276
  Name = 
  6 active torsions:
  status: ('A' for Active; 'I' for Inactive)
    1  A    between atoms: C_1  and  C_5
    2  A    between atoms: C_13  and  C_18
    3  A    between atoms: N_14  and  C_29
    4  A    between atoms: O_15  and  C_26
    5  A    between atoms: C_16  and  C_27
    6  A    between atoms: C_18  and  C_29
                            x       y       z     vdW  Elec       q    Type
                         _______ _______ _______ _____ _____    ______ ____

>  <TORSDO>
F 6

$$$$
=
 OpenBabel11052414393D

 32 36  0  0  1  0  0  0  0  0999 V2000
  181.9440  177.8630  139.6810 C   0  0  1  0  0  3  0  0  0  0  0  0
  180.7830  179.8980  139.4620 C   0  0  0  0  0  0  0  0  0  0  0  0
  181.6420  179.0370  137.3890 C   0  0  0  0  0  3  0  0  0  0  0  0
  178.9310  182.9990  138.7490 N   0  0  0  0  0  2  0  0  0  0  0  0
  181.4750  178.9410  138.7680 C   0  0  0  0  0  0  0  0  0  0  0  0
  179.8430  182.0810  136.7080 C   0  0  0  0  0  3  0  0  0  0  0  0
  180.3760  181.0660  137.4000 C   0  0  0  0  0  0  0  0  0  0  0  0
  181.0860  180.1020  136.7390 N   0  0  0  0  0  0  0  0  0  0  0  0
  180.7480  179.6230  140.8530 N   0  0  0  0  0  2  0  0  0  0  0  0
  181.5070  178.3870  141.0800 C   0  0  2  0  0  3  0  0  0  0  0  0
  180.2060  180.9890  138.8070 C   0  0  0  0  0  0  0  0  0  0  0  0
  179.1020  183.0630  137.3790 O   0  0  0  0  0  0  0  0  0  0  0  0
  179.5110  181.9140  139.4780 C   0  0  0  0  0  3  0  0  0  0  0  0
  183.7310  179.0040  144.1240 C   0  0  0  0  0  0  0  0  0  0  0  0
  183.6300  179.1340  145.5010 O   0  0  0  0  0  1  0  0  0  0  0  0
  182.7140  178.6500  141.9410 C   0  0  0  0  0  0  0  0  0  0  0  0
  184.9920  179.0550  143.5270 C   0  0  0  0  0  3  0  0  0  0  0  0
  183.9910  178.6880  141.3580 C   0  0  0  0  0  3  0  0  0  0  0  0
  182.5860  178.8110  143.3360 C   0  0  0  0  0  0  0  0  0  0  0  0
  181.2440  178.7330  143.9910 C   0  0  0  0  0  1  0  0  0  0  0  0
  185.1300  178.8970  142.1470 C   0  0  0  0  0  0  0  0  0  0  0  0
  187.4940  178.1750  142.1020 C   0  0  0  0  0  1  0  0  0  0  0  0
  186.4110  178.9380  141.5840 O   0  0  0  0  0  0  0  0  0  0  0  0
  180.1860  176.1290  139.9660 C   0  0  0  0  0  2  0  0  0  0  0  0
  181.2610  176.5560  139.3630 C   0  0  2  0  0  3  0  0  0  0  0  0
  181.7420  175.5500  138.4850 N   0  0  0  0  0  0  0  0  0  0  0  0
  180.8350  174.5490  138.3550 O   0  0  0  0  0  0  0  0  0  0  0  0
  179.9460  174.7530  139.4380 C   0  0  0  0  0  2  0  0  0  0  0  0
  183.1590  175.2840  138.2880 C   0  0  0  0  0  2  0  0  0  0  0  0
  183.6650  176.0130  137.0490 C   0  0  0  0  0  2  0  0  0  0  0  0
  185.1180  176.4420  137.2080 C   0  0  0  0  0  2  0  0  0  0  0  0
  185.1780  177.8440  137.8060 C   0  0  0  0  0  1  0  0  0  0  0  0
  1  5  1  6  0  0  0
  1 10  1  0  0  0  0
  2  9  1  0  0  0  0
  3  5  1  0  0  0  0
  4 13  1  0  0  0  0
  5  2  2  0  0  0  0
  6 12  1  0  0  0  0
  6  7  2  0  0  0  0
  7 11  1  0  0  0  0
  8  3  2  0  0  0  0
  8  7  1  0  0  0  0
  9 10  1  0  0  0  0
 10 16  1  1  0  0  0
 11  2  1  0  0  0  0
 11 13  2  0  0  0  0
 12  4  1  0  0  0  0
 14 15  1  0  0  0  0
 16 19  1  0  0  0  0
 17 14  1  0  0  0  0
 18 16  2  0  0  0  0
 18 21  1  0  0  0  0
 19 20  1  0  0  0  0
 19 14  2  0  0  0  0
 21 17  2  0  0  0  0
 23 22  1  0  0  0  0
 23 21  1  0  0  0  0
 25  1  1  0  0  0  0
 25 24  1  1  0  0  0
 26 25  1  0  0  0  0
 27 26  1  0  0  0  0
 27 28  1  0  0  0  0
 28 24  1  0  0  0  0
 29 26  1  0  0  0  0
 30 31  1  0  0  0  0
 30 29  1  0  0  0  0
 31 32  1  0  0  0  0
M  END
>  <MODEL>
3

>  <REMARK>
 VINA RESULT:      -6.9      2.364      4.679
  Name = 
  6 active torsions:
  status: ('A' for Active; 'I' for Inactive)
    1  A    between atoms: C_1  and  C_5
    2  A    between atoms: C_13  and  C_18
    3  A    between atoms: N_14  and  C_29
    4  A    between atoms: O_15  and  C_26
    5  A    between atoms: C_16  and  C_27
    6  A    between atoms: C_18  and  C_29
                            x       y       z     vdW  Elec       q    Type
                         _______ _______ _______ _____ _____    ______ ____

>  <TORSDO>
F 6

$$$$
=
 OpenBabel11052414393D

 32 36  0  0  1  0  0  0  0  0999 V2000
  189.1320  176.4690  138.5620 C   0  0  1  0  0  3  0  0  0  0  0  0
  191.4250  176.0160  138.2870 C   0  0  0  0  0  0  0  0  0  0  0  0
  189.9810  174.4740  137.1390 C   0  0  0  0  0  3  0  0  0  0  0  0
  194.9140  175.1000  137.5520 N   0  0  0  0  0  2  0  0  0  0  0  0
  190.1660  175.5860  137.9580 C   0  0  0  0  0  0  0  0  0  0  0  0
  193.3990  173.5790  136.4420 C   0  0  0  0  0  3  0  0  0  0  0  0
  192.3540  174.2440  136.9540 C   0  0  0  0  0  0  0  0  0  0  0  0
  191.0850  173.8300  136.6570 N   0  0  0  0  0  0  0  0  0  0  0  0
  191.3920  177.1450  139.1450 N   0  0  0  0  0  2  0  0  0  0  0  0
  189.9820  177.4570  139.4120 C   0  0  2  0  0  3  0  0  0  0  0  0
  192.5600  175.3670  137.7960 C   0  0  0  0  0  0  0  0  0  0  0  0
  194.7010  174.0080  136.7320 O   0  0  0  0  0  0  0  0  0  0  0  0
  193.7900  175.7970  138.0980 C   0  0  0  0  0  3  0  0  0  0  0  0
  188.1510  177.5500  142.7630 C   0  0  0  0  0  0  0  0  0  0  0  0
  186.9420  177.9700  143.3000 O   0  0  0  0  0  1  0  0  0  0  0  0
  189.6660  177.2960  140.8750 C   0  0  0  0  0  0  0  0  0  0  0  0
  189.0730  176.9050  143.5890 C   0  0  0  0  0  3  0  0  0  0  0  0
  190.5760  176.6340  141.7160 C   0  0  0  0  0  3  0  0  0  0  0  0
  188.4440  177.7580  141.4070 C   0  0  0  0  0  0  0  0  0  0  0  0
  187.4370  178.4280  140.5280 C   0  0  0  0  0  1  0  0  0  0  0  0
  190.2860  176.4440  143.0720 C   0  0  0  0  0  0  0  0  0  0  0  0
  191.6170  176.3560  145.1550 C   0  0  0  0  0  1  0  0  0  0  0  0
  191.1800  175.7870  143.9260 O   0  0  0  0  0  0  0  0  0  0  0  0
  188.5380  178.4680  137.2100 C   0  0  0  0  0  2  0  0  0  0  0  0
  188.3660  177.2070  137.4920 C   0  0  2  0  0  3  0  0  0  0  0  0
  187.2730  176.6990  136.7420 N   0  0  0  0  0  0  0  0  0  0  0  0
  186.8800  177.5910  135.7970 O   0  0  0  0  0  0  0  0  0  0  0  0
  187.4910  178.8040  136.2010 C   0  0  0  0  0  2  0  0  0  0  0  0
  186.3220  175.7380  137.2810 C   0  0  0  0  0  2  0  0  0  0  0  0
  186.3220  174.4690  136.4370 C   0  0  0  0  0  2  0  0  0  0  0  0
  186.3670  173.2200  137.3090 C   0  0  0  0  0  2  0  0  0  0  0  0
  184.9540  172.8460  137.7450 C   0  0  0  0  0  1  0  0  0  0  0  0
  1  5  1  6  0  0  0
  1 10  1  0  0  0  0
  2  9  1  0  0  0  0
  3  5  1  0  0  0  0
  4 13  1  0  0  0  0
  5  2  2  0  0  0  0
  6 12  1  0  0  0  0
  6  7  2  0  0  0  0
  7 11  1  0  0  0  0
  8  7  1  0  0  0  0
  8  3  2  0  0  0  0
  9 10  1  0  0  0  0
 10 16  1  1  0  0  0
 11 13  2  0  0  0  0
 11  2  1  0  0  0  0
 12  4  1  0  0  0  0
 14 15  1  0  0  0  0
 14 17  1  0  0  0  0
 16 19  1  0  0  0  0
 16 18  2  0  0  0  0
 18 21  1  0  0  0  0
 19 14  2  0  0  0  0
 20 19  1  0  0  0  0
 21 17  2  0  0  0  0
 21 23  1  0  0  0  0
 23 22  1  0  0  0  0
 25 24  1  1  0  0  0
 25  1  1  0  0  0  0
 26 29  1  0  0  0  0
 26 25  1  0  0  0  0
 27 28  1  0  0  0  0
 27 26  1  0  0  0  0
 28 24  1  0  0  0  0
 30 29  1  0  0  0  0
 30 31  1  0  0  0  0
 31 32  1  0  0  0  0
M  END
>  <MODEL>
4

>  <REMARK>
 VINA RESULT:      -6.9      4.661      6.816
  Name = 
  6 active torsions:
  status: ('A' for Active; 'I' for Inactive)
    1  A    between atoms: C_1  and  C_5
    2  A    between atoms: C_13  and  C_18
    3  A    between atoms: N_14  and  C_29
    4  A    between atoms: O_15  and  C_26
    5  A    between atoms: C_16  and  C_27
    6  A    between atoms: C_18  and  C_29
                            x       y       z     vdW  Elec       q    Type
                         _______ _______ _______ _____ _____    ______ ____

>  <TORSDO>
F 6

$$$$
=
 OpenBabel11052414393D

 32 36  0  0  1  0  0  0  0  0999 V2000
  190.1380  177.3930  143.0220 C   0  0  1  0  0  3  0  0  0  0  0  0
  190.2770  176.6030  140.8100 C   0  0  0  0  0  0  0  0  0  0  0  0
  192.1020  178.0290  141.4530 C   0  0  0  0  0  3  0  0  0  0  0  0
  190.8660  175.4540  137.3620 N   0  0  0  0  0  2  0  0  0  0  0  0
  190.9010  177.3860  141.7440 C   0  0  0  0  0  0  0  0  0  0  0  0
  192.6570  176.9110  138.0750 C   0  0  0  0  0  3  0  0  0  0  0  0
  192.0630  177.0600  139.2660 C   0  0  0  0  0  0  0  0  0  0  0  0
  192.6530  177.8480  140.2160 N   0  0  0  0  0  0  0  0  0  0  0  0
  189.0610  176.0600  141.2990 N   0  0  0  0  0  2  0  0  0  0  0  0
  188.8730  176.5590  142.6680 C   0  0  2  0  0  3  0  0  0  0  0  0
  190.8340  176.4080  139.5430 C   0  0  0  0  0  0  0  0  0  0  0  0
  192.0630  176.0930  137.1030 O   0  0  0  0  0  0  0  0  0  0  0  0
  190.2380  175.6270  138.6360 C   0  0  0  0  0  3  0  0  0  0  0  0
  185.7930  178.3530  144.0420 C   0  0  0  0  0  0  0  0  0  0  0  0
  185.0840  178.4840  145.2270 O   0  0  0  0  0  1  0  0  0  0  0  0
  187.6380  177.4130  142.7610 C   0  0  0  0  0  0  0  0  0  0  0  0
  185.3880  179.0820  142.9240 C   0  0  0  0  0  3  0  0  0  0  0  0
  187.2260  178.1670  141.6490 C   0  0  0  0  0  3  0  0  0  0  0  0
  186.9120  177.5080  143.9660 C   0  0  0  0  0  0  0  0  0  0  0  0
  187.3510  176.7520  145.1790 C   0  0  0  0  0  1  0  0  0  0  0  0
  186.0990  178.9950  141.7250 C   0  0  0  0  0  0  0  0  0  0  0  0
  184.5570  179.3780  139.8310 C   0  0  0  0  0  1  0  0  0  0  0  0
  185.6730  179.7530  140.6280 O   0  0  0  0  0  0  0  0  0  0  0  0
  191.5160  175.5700  143.9980 C   0  0  0  0  0  2  0  0  0  0  0  0
  190.9270  176.7270  144.1220 C   0  0  2  0  0  3  0  0  0  0  0  0
  191.0320  177.1710  145.4650 N   0  0  0  0  0  0  0  0  0  0  0  0
  191.8970  176.3930  146.1650 O   0  0  0  0  0  0  0  0  0  0  0  0
  192.0500  175.2420  145.3540 C   0  0  0  0  0  2  0  0  0  0  0  0
  189.9580  177.8710  146.1540 C   0  0  0  0  0  2  0  0  0  0  0  0
  189.7370  177.2670  147.5360 C   0  0  0  0  0  2  0  0  0  0  0  0
  189.0570  178.2560  148.4750 C   0  0  0  0  0  2  0  0  0  0  0  0
  187.5520  178.2520  148.2220 C   0  0  0  0  0  1  0  0  0  0  0  0
  1  5  1  6  0  0  0
  1 25  1  0  0  0  0
  2  9  1  0  0  0  0
  2  5  2  0  0  0  0
  3  5  1  0  0  0  0
  4 13  1  0  0  0  0
  6  7  2  0  0  0  0
  7 11  1  0  0  0  0
  7  8  1  0  0  0  0
  8  3  2  0  0  0  0
  9 10  1  0  0  0  0
 10 16  1  6  0  0  0
 10  1  1  0  0  0  0
 11  2  1  0  0  0  0
 12  4  1  0  0  0  0
 12  6  1  0  0  0  0
 13 11  2  0  0  0  0
 14 15  1  0  0  0  0
 16 19  2  0  0  0  0
 17 14  2  0  0  0  0
 18 21  2  0  0  0  0
 18 16  1  0  0  0  0
 19 14  1  0  0  0  0
 19 20  1  0  0  0  0
 21 17  1  0  0  0  0
 22 23  1  0  0  0  0
 23 21  1  0  0  0  0
 24 28  1  0  0  0  0
 25 24  1  1  0  0  0
 25 26  1  0  0  0  0
 26 29  1  0  0  0  0
 26 27  1  0  0  0  0
 28 27  1  0  0  0  0
 29 30  1  0  0  0  0
 30 31  1  0  0  0  0
 32 31  1  0  0  0  0
M  END
>  <MODEL>
5

>  <REMARK>
 VINA RESULT:      -6.7      4.045      8.247
  Name = 
  6 active torsions:
  status: ('A' for Active; 'I' for Inactive)
    1  A    between atoms: C_1  and  C_5
    2  A    between atoms: C_13  and  C_18
    3  A    between atoms: N_14  and  C_29
    4  A    between atoms: O_15  and  C_26
    5  A    between atoms: C_16  and  C_27
    6  A    between atoms: C_18  and  C_29
                            x       y       z     vdW  Elec       q    Type
                         _______ _______ _______ _____ _____    ______ ____

>  <TORSDO>
F 6

$$$$
=
 OpenBabel11052414393D

 32 36  0  0  1  0  0  0  0  0999 V2000
  187.9390  176.8200  138.1320 C   0  0  1  0  0  3  0  0  0  0  0  0
  190.2750  176.7530  138.4060 C   0  0  0  0  0  0  0  0  0  0  0  0
  189.3560  174.7780  137.3900 C   0  0  0  0  0  3  0  0  0  0  0  0
  193.9330  176.3720  138.5730 N   0  0  0  0  0  2  0  0  0  0  0  0
  189.1960  176.0420  137.9530 C   0  0  0  0  0  0  0  0  0  0  0  0
  192.9340  174.4120  137.5750 C   0  0  0  0  0  3  0  0  0  0  0  0
  191.7180  174.9590  137.7140 C   0  0  0  0  0  0  0  0  0  0  0  0
  190.6190  174.2680  137.2850 N   0  0  0  0  0  0  0  0  0  0  0  0
  189.8930  178.0010  138.9610 N   0  0  0  0  0  2  0  0  0  0  0  0
  188.4300  178.0940  138.8780 C   0  0  2  0  0  3  0  0  0  0  0  0
  191.5720  176.2420  138.3000 C   0  0  0  0  0  0  0  0  0  0  0  0
  194.0650  175.1220  138.0000 O   0  0  0  0  0  0  0  0  0  0  0  0
  192.6300  176.9430  138.7230 C   0  0  0  0  0  3  0  0  0  0  0  0
  185.9260  178.6020  141.7170 C   0  0  0  0  0  0  0  0  0  0  0  0
  184.6090  178.9920  141.9120 O   0  0  0  0  0  1  0  0  0  0  0  0
  187.8200  178.1650  140.2520 C   0  0  0  0  0  0  0  0  0  0  0  0
  186.6860  178.2040  142.8180 C   0  0  0  0  0  3  0  0  0  0  0  0
  188.5660  177.7520  141.3680 C   0  0  0  0  0  3  0  0  0  0  0  0
  186.4880  178.5940  140.4320 C   0  0  0  0  0  0  0  0  0  0  0  0
  185.6550  178.9990  139.2580 C   0  0  0  0  0  1  0  0  0  0  0  0
  188.0050  177.7780  142.6510 C   0  0  0  0  0  0  0  0  0  0  0  0
  188.4220  177.8230  145.0880 C   0  0  0  0  0  1  0  0  0  0  0  0
  188.7330  177.3710  143.7760 O   0  0  0  0  0  0  0  0  0  0  0  0
  187.7470  178.1740  136.0570 C   0  0  0  0  0  2  0  0  0  0  0  0
  187.3370  177.1810  136.7970 C   0  0  2  0  0  3  0  0  0  0  0  0
  186.1770  176.6050  136.2160 N   0  0  0  0  0  0  0  0  0  0  0  0
  185.9700  177.0930  134.9660 O   0  0  0  0  0  0  0  0  0  0  0  0
  186.7920  178.2450  134.9110 C   0  0  0  0  0  2  0  0  0  0  0  0
  185.0570  176.1170  137.0060 C   0  0  0  0  0  2  0  0  0  0  0  0
  184.6220  174.7430  136.5090 C   0  0  0  0  0  2  0  0  0  0  0  0
  184.7860  173.6810  137.5900 C   0  0  0  0  0  2  0  0  0  0  0  0
  186.1020  172.9370  137.3830 C   0  0  0  0  0  1  0  0  0  0  0  0
  1  5  1  6  0  0  0
  1 10  1  0  0  0  0
  2  9  1  0  0  0  0
  3  5  1  0  0  0  0
  4 13  1  0  0  0  0
  5  2  2  0  0  0  0
  6  7  2  0  0  0  0
  6 12  1  0  0  0  0
  7 11  1  0  0  0  0
  8  3  2  0  0  0  0
  8  7  1  0  0  0  0
 10  9  1  0  0  0  0
 10 16  1  1  0  0  0
 11  2  1  0  0  0  0
 11 13  2  0  0  0  0
 12  4  1  0  0  0  0
 14 15  1  0  0  0  0
 14 17  1  0  0  0  0
 16 19  1  0  0  0  0
 16 18  2  0  0  0  0
 18 21  1  0  0  0  0
 19 14  2  0  0  0  0
 20 19  1  0  0  0  0
 21 17  2  0  0  0  0
 21 23  1  0  0  0  0
 23 22  1  0  0  0  0
 25 24  1  1  0  0  0
 25  1  1  0  0  0  0
 26 25  1  0  0  0  0
 26 29  1  0  0  0  0
 27 26  1  0  0  0  0
 28 27  1  0  0  0  0
 28 24  1  0  0  0  0
 30 29  1  0  0  0  0
 30 31  1  0  0  0  0
 32 31  1  0  0  0  0
M  END
>  <MODEL>
6

>  <REMARK>
 VINA RESULT:      -6.7      3.972      6.049
  Name = 
  6 active torsions:
  status: ('A' for Active; 'I' for Inactive)
    1  A    between atoms: C_1  and  C_5
    2  A    between atoms: C_13  and  C_18
    3  A    between atoms: N_14  and  C_29
    4  A    between atoms: O_15  and  C_26
    5  A    between atoms: C_16  and  C_27
    6  A    between atoms: C_18  and  C_29
                            x       y       z     vdW  Elec       q    Type
                         _______ _______ _______ _____ _____    ______ ____

>  <TORSDO>
F 6

$$$$
=
 OpenBabel11052414393D

 32 36  0  0  1  0  0  0  0  0999 V2000
  181.7620  178.5680  140.6600 C   0  0  1  0  0  3  0  0  0  0  0  0
  181.8290  176.6340  139.3220 C   0  0  0  0  0  0  0  0  0  0  0  0
  179.8860  176.7790  140.7300 C   0  0  0  0  0  3  0  0  0  0  0  0
  181.5590  173.5760  137.2890 N   0  0  0  0  0  2  0  0  0  0  0  0
  181.0950  177.2950  140.2710 C   0  0  0  0  0  0  0  0  0  0  0  0
  179.6430  173.7820  138.7470 C   0  0  0  0  0  3  0  0  0  0  0  0
  180.1380  174.9260  139.2390 C   0  0  0  0  0  0  0  0  0  0  0  0
  179.4370  175.6020  140.1990 N   0  0  0  0  0  0  0  0  0  0  0  0
  183.0330  177.3150  139.0120 N   0  0  0  0  0  2  0  0  0  0  0  0
  183.0920  178.5160  139.8570 C   0  0  2  0  0  3  0  0  0  0  0  0
  181.3780  175.4320  138.7700 C   0  0  0  0  0  0  0  0  0  0  0  0
  180.3500  173.0930  137.7530 O   0  0  0  0  0  0  0  0  0  0  0  0
  182.0810  174.7950  137.8270 C   0  0  0  0  0  3  0  0  0  0  0  0
  186.6670  178.5250  141.2030 C   0  0  0  0  0  0  0  0  0  0  0  0
  187.9720  178.6340  140.7450 O   0  0  0  0  0  1  0  0  0  0  0  0
  184.2690  178.4530  140.7940 C   0  0  0  0  0  0  0  0  0  0  0  0
  186.4360  178.4190  142.5750 C   0  0  0  0  0  3  0  0  0  0  0  0
  184.0530  178.3620  142.1790 C   0  0  0  0  0  3  0  0  0  0  0  0
  185.5890  178.5330  140.3050 C   0  0  0  0  0  0  0  0  0  0  0  0
  185.8500  178.6740  138.8390 C   0  0  0  0  0  1  0  0  0  0  0  0
  185.1320  178.3380  143.0700 C   0  0  0  0  0  0  0  0  0  0  0  0
  186.0130  178.3240  145.3810 C   0  0  0  0  0  1  0  0  0  0  0  0
  184.9370  178.2480  144.4540 O   0  0  0  0  0  0  0  0  0  0  0  0
  181.1190  180.4250  139.1390 C   0  0  0  0  0  2  0  0  0  0  0  0
  180.9320  179.7570  140.2430 C   0  0  2  0  0  3  0  0  0  0  0  0
  179.9390  180.4030  141.0250 N   0  0  0  0  0  0  0  0  0  0  0  0
  179.3190  181.3760  140.3100 O   0  0  0  0  0  0  0  0  0  0  0  0
  180.1770  181.5820  139.2020 C   0  0  0  0  0  2  0  0  0  0  0  0
  180.0100  180.4930  142.4760 C   0  0  0  0  0  2  0  0  0  0  0  0
  178.9490  179.6020  143.1110 C   0  0  0  0  0  2  0  0  0  0  0  0
  179.5660  178.6220  144.1030 C   0  0  0  0  0  2  0  0  0  0  0  0
  181.0850  178.6360  143.9620 C   0  0  0  0  0  1  0  0  0  0  0  0
  1  5  1  6  0  0  0
  2  5  2  0  0  0  0
  4 12  1  0  0  0  0
  4 13  1  0  0  0  0
  5  3  1  0  0  0  0
  6  7  2  0  0  0  0
  7  8  1  0  0  0  0
  8  3  2  0  0  0  0
  9  2  1  0  0  0  0
  9 10  1  0  0  0  0
 10  1  1  0  0  0  0
 10 16  1  1  0  0  0
 11  7  1  0  0  0  0
 11  2  1  0  0  0  0
 12  6  1  0  0  0  0
 13 11  2  0  0  0  0
 14 17  1  0  0  0  0
 15 14  1  0  0  0  0
 16 18  2  0  0  0  0
 17 21  2  0  0  0  0
 18 21  1  0  0  0  0
 19 16  1  0  0  0  0
 19 14  2  0  0  0  0
 20 19  1  0  0  0  0
 21 23  1  0  0  0  0
 23 22  1  0  0  0  0
 24 28  1  0  0  0  0
 25 24  1  1  0  0  0
 25  1  1  0  0  0  0
 25 26  1  0  0  0  0
 26 29  1  0  0  0  0
 27 26  1  0  0  0  0
 28 27  1  0  0  0  0
 29 30  1  0  0  0  0
 30 31  1  0  0  0  0
 32 31  1  0  0  0  0
M  END
>  <MODEL>
7

>  <REMARK>
 VINA RESULT:      -6.5      2.512      4.523
  Name = 
  6 active torsions:
  status: ('A' for Active; 'I' for Inactive)
    1  A    between atoms: C_1  and  C_5
    2  A    between atoms: C_13  and  C_18
    3  A    between atoms: N_14  and  C_29
    4  A    between atoms: O_15  and  C_26
    5  A    between atoms: C_16  and  C_27
    6  A    between atoms: C_18  and  C_29
                            x       y       z     vdW  Elec       q    Type
                         _______ _______ _______ _____ _____    ______ ____

>  <TORSDO>
F 6

$$$$
=
 OpenBabel11052414393D

 32 36  0  0  1  0  0  0  0  0999 V2000
  184.7390  178.0090  141.2810 C   0  0  1  0  0  3  0  0  0  0  0  0
  183.3030  179.1770  139.8290 C   0  0  0  0  0  0  0  0  0  0  0  0
  182.2180  177.4370  141.0850 C   0  0  0  0  0  3  0  0  0  0  0  0
  180.7650  180.8700  137.7680 N   0  0  0  0  0  2  0  0  0  0  0  0
  183.3590  178.1600  140.7450 C   0  0  0  0  0  0  0  0  0  0  0  0
  179.7490  179.0910  139.0500 C   0  0  0  0  0  3  0  0  0  0  0  0
  180.9410  178.7970  139.5880 C   0  0  0  0  0  0  0  0  0  0  0  0
  181.0330  177.7770  140.4940 N   0  0  0  0  0  0  0  0  0  0  0  0
  184.5740  179.7660  139.6110 N   0  0  0  0  0  2  0  0  0  0  0  0
  185.5440  179.0470  140.4480 C   0  0  2  0  0  3  0  0  0  0  0  0
  182.0960  179.5350  139.2220 C   0  0  0  0  0  0  0  0  0  0  0  0
  179.6460  180.1450  138.1320 O   0  0  0  0  0  0  0  0  0  0  0  0
  182.0330  180.5410  138.3440 C   0  0  0  0  0  3  0  0  0  0  0  0
  188.8430  177.5550  139.2310 C   0  0  0  0  0  0  0  0  0  0  0  0
  190.1610  177.4190  139.6420 O   0  0  0  0  0  1  0  0  0  0  0  0
  186.5730  178.3520  139.5960 C   0  0  0  0  0  0  0  0  0  0  0  0
  188.4460  176.9760  138.0250 C   0  0  0  0  0  3  0  0  0  0  0  0
  186.1850  177.7500  138.3870 C   0  0  0  0  0  3  0  0  0  0  0  0
  187.9150  178.2530  140.0180 C   0  0  0  0  0  0  0  0  0  0  0  0
  188.3480  178.8460  141.3200 C   0  0  0  0  0  1  0  0  0  0  0  0
  187.1200  177.0690  137.5970 C   0  0  0  0  0  0  0  0  0  0  0  0
  185.5670  176.8190  135.6890 C   0  0  0  0  0  1  0  0  0  0  0  0
  186.7530  176.4630  136.3890 O   0  0  0  0  0  0  0  0  0  0  0  0
  184.1780  179.3780  143.2780 C   0  0  0  0  0  2  0  0  0  0  0  0
  184.7850  178.3520  142.7490 C   0  0  2  0  0  3  0  0  0  0  0  0
  185.5830  177.7150  143.7350 N   0  0  0  0  0  0  0  0  0  0  0  0
  185.3090  178.2070  144.9700 O   0  0  0  0  0  0  0  0  0  0  0  0
  184.6040  179.4070  144.7090 C   0  0  0  0  0  2  0  0  0  0  0  0
  186.8930  177.1490  143.4480 C   0  0  0  0  0  2  0  0  0  0  0  0
  187.7490  177.1360  144.7090 C   0  0  0  0  0  2  0  0  0  0  0  0
  189.2280  176.9810  144.3770 C   0  0  0  0  0  2  0  0  0  0  0  0
  189.3950  176.0030  143.2190 C   0  0  0  0  0  1  0  0  0  0  0  0
  1  5  1  6  0  0  0
  1 25  1  0  0  0  0
  2  5  2  0  0  0  0
  4 12  1  0  0  0  0
  4 13  1  0  0  0  0
  5  3  1  0  0  0  0
  6  7  2  0  0  0  0
  7  8  1  0  0  0  0
  8  3  2  0  0  0  0
  9  2  1  0  0  0  0
  9 10  1  0  0  0  0
 10 16  1  6  0  0  0
 10  1  1  0  0  0  0
 11  7  1  0  0  0  0
 11  2  1  0  0  0  0
 12  6  1  0  0  0  0
 13 11  2  0  0  0  0
 14 15  1  0  0  0  0
 14 19  1  0  0  0  0
 16 19  2  0  0  0  0
 17 14  2  0  0  0  0
 18 16  1  0  0  0  0
 19 20  1  0  0  0  0
 21 17  1  0  0  0  0
 21 18  2  0  0  0  0
 22 23  1  0  0  0  0
 23 21  1  0  0  0  0
 24 28  1  0  0  0  0
 25 24  1  6  0  0  0
 25 26  1  0  0  0  0
 26 27  1  0  0  0  0
 28 27  1  0  0  0  0
 29 26  1  0  0  0  0
 29 30  1  0  0  0  0
 31 30  1  0  0  0  0
 32 31  1  0  0  0  0
M  END
>  <MODEL>
8

>  <REMARK>
 VINA RESULT:      -6.5      1.898      6.350
  Name = 
  6 active torsions:
  status: ('A' for Active; 'I' for Inactive)
    1  A    between atoms: C_1  and  C_5
    2  A    between atoms: C_13  and  C_18
    3  A    between atoms: N_14  and  C_29
    4  A    between atoms: O_15  and  C_26
    5  A    between atoms: C_16  and  C_27
    6  A    between atoms: C_18  and  C_29
                            x       y       z     vdW  Elec       q    Type
                         _______ _______ _______ _____ _____    ______ ____

>  <TORSDO>
F 6

$$$$
=
 OpenBabel11052414393D

 32 36  0  0  1  0  0  0  0  0999 V2000
  188.1750  178.2420  144.7780 C   0  0  1  0  0  3  0  0  0  0  0  0
  189.1850  177.3910  142.8300 C   0  0  0  0  0  0  0  0  0  0  0  0
  190.5030  179.0480  143.9700 C   0  0  0  0  0  3  0  0  0  0  0  0
  191.0970  176.1930  139.9210 N   0  0  0  0  0  2  0  0  0  0  0  0
  189.3470  178.2780  143.8620 C   0  0  0  0  0  0  0  0  0  0  0  0
  192.3550  177.8780  141.1110 C   0  0  0  0  0  3  0  0  0  0  0  0
  191.3570  178.0000  141.9960 C   0  0  0  0  0  0  0  0  0  0  0  0
  191.4820  178.8880  143.0290 N   0  0  0  0  0  0  0  0  0  0  0  0
  187.9340  176.7270  142.8930 N   0  0  0  0  0  2  0  0  0  0  0  0
  187.2140  177.2500  144.0620 C   0  0  2  0  0  3  0  0  0  0  0  0
  190.1810  177.2170  141.8660 C   0  0  0  0  0  0  0  0  0  0  0  0
  192.2380  176.9600  140.0590 O   0  0  0  0  0  0  0  0  0  0  0  0
  190.0350  176.3370  140.8690 C   0  0  0  0  0  3  0  0  0  0  0  0
  183.8210  179.0020  144.1760 C   0  0  0  0  0  0  0  0  0  0  0  0
  182.8520  179.3770  145.0960 O   0  0  0  0  0  1  0  0  0  0  0  0
  185.9520  177.9550  143.6400 C   0  0  0  0  0  0  0  0  0  0  0  0
  183.6510  179.3430  142.8340 C   0  0  0  0  0  3  0  0  0  0  0  0
  185.7730  178.3190  142.2950 C   0  0  0  0  0  3  0  0  0  0  0  0
  184.9640  178.2990  144.5860 C   0  0  0  0  0  0  0  0  0  0  0  0
  185.1460  177.9630  146.0320 C   0  0  0  0  0  1  0  0  0  0  0  0
  184.6220  179.0060  141.8890 C   0  0  0  0  0  0  0  0  0  0  0  0
  183.2720  178.9900  139.8170 C   0  0  0  0  0  1  0  0  0  0  0  0
  184.4260  179.3780  140.5530 O   0  0  0  0  0  0  0  0  0  0  0  0
  188.2930  178.3160  147.2590 C   0  0  0  0  0  2  0  0  0  0  0  0
  188.5700  177.7160  146.1350 C   0  0  2  0  0  3  0  0  0  0  0  0
  189.4020  176.5940  146.3900 N   0  0  0  0  0  0  0  0  0  0  0  0
  189.4750  176.3400  147.7220 O   0  0  0  0  0  0  0  0  0  0  0  0
  188.9840  177.5260  148.3210 C   0  0  0  0  0  2  0  0  0  0  0  0
  190.4920  176.2010  145.5100 C   0  0  0  0  0  2  0  0  0  0  0  0
  191.8340  176.5180  146.1610 C   0  0  0  0  0  2  0  0  0  0  0  0
  192.4300  175.2900  146.8380 C   0  0  0  0  0  2  0  0  0  0  0  0
  192.8050  175.6280  148.2770 C   0  0  0  0  0  1  0  0  0  0  0  0
  1  5  1  6  0  0  0
  1 25  1  0  0  0  0
  2  9  1  0  0  0  0
  2  5  2  0  0  0  0
  4 12  1  0  0  0  0
  4 13  1  0  0  0  0
  5  3  1  0  0  0  0
  6  7  2  0  0  0  0
  7  8  1  0  0  0  0
  8  3  2  0  0  0  0
  9 10  1  0  0  0  0
 10 16  1  6  0  0  0
 10  1  1  0  0  0  0
 11  7  1  0  0  0  0
 11  2  1  0  0  0  0
 12  6  1  0  0  0  0
 13 11  2  0  0  0  0
 14 19  1  0  0  0  0
 14 15  1  0  0  0  0
 16 19  2  0  0  0  0
 17 14  2  0  0  0  0
 18 16  1  0  0  0  0
 19 20  1  0  0  0  0
 21 18  2  0  0  0  0
 21 17  1  0  0  0  0
 22 23  1  0  0  0  0
 23 21  1  0  0  0  0
 24 28  1  0  0  0  0
 25 26  1  0  0  0  0
 25 24  1  6  0  0  0
 26 27  1  0  0  0  0
 27 28  1  0  0  0  0
 29 30  1  0  0  0  0
 29 26  1  0  0  0  0
 30 31  1  0  0  0  0
 31 32  1  0  0  0  0
M  END
>  <MODEL>
9

>  <REMARK>
 VINA RESULT:      -6.4      3.655      8.373
  Name = 
  6 active torsions:
  status: ('A' for Active; 'I' for Inactive)
    1  A    between atoms: C_1  and  C_5
    2  A    between atoms: C_13  and  C_18
    3  A    between atoms: N_14  and  C_29
    4  A    between atoms: O_15  and  C_26
    5  A    between atoms: C_16  and  C_27
    6  A    between atoms: C_18  and  C_29
                            x       y       z     vdW  Elec       q    Type
                         _______ _______ _______ _____ _____    ______ ____

>  <TORSDO>
F 6

$$$$
