=
 OpenBabel11052413083D

 31 35  0  0  0  0  0  0  0  0999 V2000
  185.2240  178.6160  144.1890 C   0  0  0  0  0  0  0  0  0  0  0  0
  188.8090  177.4970  143.9100 C   0  0  0  0  0  0  0  0  0  0  0  0
  189.3170  177.3920  145.2410 C   0  0  0  0  0  0  0  0  0  0  0  0
  188.6950  177.3260  138.6430 O   0  0  0  0  0  0  0  0  0  0  0  0
  189.8450  176.9860  139.0320 C   0  0  0  0  0  0  0  0  0  0  0  0
  189.0970  177.5540  147.6610 C   0  0  0  0  0  0  0  0  0  0  0  0
  187.4780  177.8950  143.5810 C   0  0  0  0  0  0  0  0  0  0  0  0
  184.8660  178.6740  142.8430 C   0  0  0  0  0  3  0  0  0  0  0  0
  188.5520  177.6740  146.3840 C   0  0  0  0  0  3  0  0  0  0  0  0
  189.2530  177.2650  141.5070 C   0  0  0  0  0  0  0  0  0  0  0  0
  184.3190  178.9330  145.1450 F   0  0  0  0  0  0  0  0  0  0  0  0
  191.4540  176.6980  144.3820 N   0  0  0  0  0  0  0  0  0  0  0  0
  188.2720  177.8570  148.8590 C   0  0  0  0  0  1  0  0  0  0  0  0
  187.9780  177.6490  141.2410 N   0  0  0  0  0  0  0  0  0  0  0  0
  189.6910  177.1820  142.8390 C   0  0  0  0  0  0  0  0  0  0  0  0
  190.1520  176.9450  140.4330 N   0  0  0  0  0  2  0  0  0  0  0  0
  186.5160  178.2300  144.5510 C   0  0  0  0  0  3  0  0  0  0  0  0
  190.4220  177.1500  147.8010 C   0  0  0  0  0  3  0  0  0  0  0  0
  187.0950  177.9600  142.2170 C   0  0  0  0  0  0  0  0  0  0  0  0
  185.7990  178.3470  141.8610 C   0  0  0  0  0  3  0  0  0  0  0  0
  191.0040  176.7870  143.1090 C   0  0  0  0  0  3  0  0  0  0  0  0
  190.6600  176.9850  145.4420 C   0  0  0  0  0  0  0  0  0  0  0  0
  191.1680  176.8770  146.7000 N   0  0  0  0  0  0  0  0  0  0  0  0
  192.8150  175.9200  136.1230 C   0  0  0  0  0  0  0  0  0  0  0  0
  190.5010  176.2050  136.7660 C   0  0  0  0  0  3  0  0  0  0  0  0
  192.6990  177.0830  139.5790 F   0  0  0  0  0  0  0  0  0  0  0  0
  193.8320  175.5480  135.1040 C   0  0  0  0  0  1  0  0  0  0  0  0
  191.4570  175.8550  135.8080 C   0  0  0  0  0  3  0  0  0  0  0  0
  192.2670  176.6870  138.3560 C   0  0  0  0  0  0  0  0  0  0  0  0
  190.8900  176.6240  138.0470 C   0  0  0  0  0  0  0  0  0  0  0  0
  193.2180  176.3350  137.3930 C   0  0  0  0  0  3  0  0  0  0  0  0
  1 17  1  0  0  0  0
  1 11  1  0  0  0  0
  2  3  2  0  0  0  0
  3 22  1  0  0  0  0
  3  9  1  0  0  0  0
  4  5  2  0  0  0  0
  5 16  1  0  0  0  0
  6 18  1  0  0  0  0
  6 13  1  0  0  0  0
  7  2  1  0  0  0  0
  7 17  2  0  0  0  0
  8  1  2  0  0  0  0
  9  6  2  0  0  0  0
 10 15  1  0  0  0  0
 12 22  2  0  0  0  0
 14 10  2  0  0  0  0
 14 19  1  0  0  0  0
 15 21  2  0  0  0  0
 15  2  1  0  0  0  0
 16 10  1  0  0  0  0
 19  7  1  0  0  0  0
 20 19  2  0  0  0  0
 20  8  1  0  0  0  0
 21 12  1  0  0  0  0
 22 23  1  0  0  0  0
 23 18  2  0  0  0  0
 24 31  1  0  0  0  0
 25 30  2  0  0  0  0
 27 24  1  0  0  0  0
 28 24  2  0  0  0  0
 28 25  1  0  0  0  0
 29 26  1  0  0  0  0
 30 29  1  0  0  0  0
 30  5  1  0  0  0  0
 31 29  2  0  0  0  0
M  END
>  <MODEL>
1

>  <REMARK>
 VINA RESULT:     -11.5      0.000      0.000
  Name = 
  1 active torsions:
  status: ('A' for Active; 'I' for Inactive)
    1  A    between atoms: C_9  and  C_22
                            x       y       z     vdW  Elec       q    Type
                         _______ _______ _______ _____ _____    ______ ____

>  <TORSDO>
F 1

$$$$
=
 OpenBabel11052413083D

 31 35  0  0  0  0  0  0  0  0999 V2000
  185.1400  178.5810  144.1870 C   0  0  0  0  0  0  0  0  0  0  0  0
  188.7310  177.4820  143.9010 C   0  0  0  0  0  0  0  0  0  0  0  0
  189.2430  177.3820  145.2320 C   0  0  0  0  0  0  0  0  0  0  0  0
  188.6060  177.3010  138.6350 O   0  0  0  0  0  0  0  0  0  0  0  0
  189.7590  176.9690  139.0220 C   0  0  0  0  0  0  0  0  0  0  0  0
  189.0280  177.5480  147.6520 C   0  0  0  0  0  0  0  0  0  0  0  0
  187.3970  177.8720  143.5750 C   0  0  0  0  0  0  0  0  0  0  0  0
  184.7790  178.6340  142.8420 C   0  0  0  0  0  3  0  0  0  0  0  0
  188.4790  177.6620  146.3760 C   0  0  0  0  0  3  0  0  0  0  0  0
  189.1710  177.2490  141.4980 C   0  0  0  0  0  0  0  0  0  0  0  0
  184.2360  178.8940  145.1450 F   0  0  0  0  0  0  0  0  0  0  0  0
  191.3820  176.7000  144.3690 N   0  0  0  0  0  0  0  0  0  0  0  0
  188.2040  177.8470  148.8510 C   0  0  0  0  0  1  0  0  0  0  0  0
  187.8930  177.6240  141.2340 N   0  0  0  0  0  0  0  0  0  0  0  0
  189.6120  177.1710  142.8290 C   0  0  0  0  0  0  0  0  0  0  0  0
  190.0700  176.9330  140.4220 N   0  0  0  0  0  2  0  0  0  0  0  0
  186.4360  178.2030  144.5470 C   0  0  0  0  0  3  0  0  0  0  0  0
  190.3550  177.1520  147.7900 C   0  0  0  0  0  3  0  0  0  0  0  0
  187.0100  177.9330  142.2120 C   0  0  0  0  0  0  0  0  0  0  0  0
  185.7110  178.3110  141.8580 C   0  0  0  0  0  3  0  0  0  0  0  0
  190.9290  176.7830  143.0970 C   0  0  0  0  0  3  0  0  0  0  0  0
  190.5890  176.9840  145.4300 C   0  0  0  0  0  0  0  0  0  0  0  0
  191.1000  176.8810  146.6870 N   0  0  0  0  0  0  0  0  0  0  0  0
  192.8430  175.9460  136.2180 C   0  0  0  0  0  0  0  0  0  0  0  0
  192.1490  176.6240  138.4330 C   0  0  0  0  0  3  0  0  0  0  0  0
  189.2060  176.2310  136.2660 F   0  0  0  0  0  0  0  0  0  0  0  0
  193.9220  175.5940  135.2580 C   0  0  0  0  0  1  0  0  0  0  0  0
  193.1640  176.2930  137.5310 C   0  0  0  0  0  3  0  0  0  0  0  0
  190.4890  176.2590  136.7040 C   0  0  0  0  0  0  0  0  0  0  0  0
  190.8030  176.6120  138.0360 C   0  0  0  0  0  0  0  0  0  0  0  0
  191.5090  175.9290  135.8070 C   0  0  0  0  0  3  0  0  0  0  0  0
  1 17  1  0  0  0  0
  1 11  1  0  0  0  0
  2  3  2  0  0  0  0
  3 22  1  0  0  0  0
  3  9  1  0  0  0  0
  4  5  2  0  0  0  0
  5 16  1  0  0  0  0
  6 18  1  0  0  0  0
  6 13  1  0  0  0  0
  7  2  1  0  0  0  0
  7 17  2  0  0  0  0
  8  1  2  0  0  0  0
  9  6  2  0  0  0  0
 10 15  1  0  0  0  0
 12 22  2  0  0  0  0
 14 10  2  0  0  0  0
 14 19  1  0  0  0  0
 15 21  2  0  0  0  0
 15  2  1  0  0  0  0
 16 10  1  0  0  0  0
 19  7  1  0  0  0  0
 20 19  2  0  0  0  0
 20  8  1  0  0  0  0
 21 12  1  0  0  0  0
 22 23  1  0  0  0  0
 23 18  2  0  0  0  0
 24 28  1  0  0  0  0
 26 29  1  0  0  0  0
 27 24  1  0  0  0  0
 28 25  2  0  0  0  0
 29 30  2  0  0  0  0
 30 25  1  0  0  0  0
 30  5  1  0  0  0  0
 31 24  2  0  0  0  0
 31 29  1  0  0  0  0
M  END
>  <MODEL>
2

>  <REMARK>
 VINA RESULT:     -11.4      0.883      1.238
  Name = 
  1 active torsions:
  status: ('A' for Active; 'I' for Inactive)
    1  A    between atoms: C_9  and  C_22
                            x       y       z     vdW  Elec       q    Type
                         _______ _______ _______ _____ _____    ______ ____

>  <TORSDO>
F 1

$$$$
=
 OpenBabel11052413083D

 31 35  0  0  0  0  0  0  0  0999 V2000
  191.1580  177.2740  141.7550 C   0  0  0  0  0  0  0  0  0  0  0  0
  187.8400  177.8780  143.4320 C   0  0  0  0  0  0  0  0  0  0  0  0
  188.0380  177.6750  144.8330 C   0  0  0  0  0  0  0  0  0  0  0  0
  185.3720  178.9700  138.9050 O   0  0  0  0  0  0  0  0  0  0  0  0
  184.5410  179.0620  139.8490 C   0  0  0  0  0  0  0  0  0  0  0  0
  189.4140  177.1310  146.7670 C   0  0  0  0  0  0  0  0  0  0  0  0
  188.8610  177.7450  142.4430 C   0  0  0  0  0  0  0  0  0  0  0  0
  190.8190  177.5030  140.4230 C   0  0  0  0  0  3  0  0  0  0  0  0
  189.2750  177.3170  145.3930 C   0  0  0  0  0  3  0  0  0  0  0  0
  186.2740  178.4510  141.6310 C   0  0  0  0  0  0  0  0  0  0  0  0
  192.4270  176.9350  142.0830 F   0  0  0  0  0  0  0  0  0  0  0  0
  185.7230  178.1790  145.2450 N   0  0  0  0  0  0  0  0  0  0  0  0
  190.7310  176.7530  147.3430 C   0  0  0  0  0  1  0  0  0  0  0  0
  187.2750  178.3140  140.7250 N   0  0  0  0  0  0  0  0  0  0  0  0
  186.5350  178.2370  142.9950 C   0  0  0  0  0  0  0  0  0  0  0  0
  184.9520  178.8140  141.2010 N   0  0  0  0  0  2  0  0  0  0  0  0
  190.1870  177.3940  142.7520 C   0  0  0  0  0  3  0  0  0  0  0  0
  188.3070  177.3030  147.5940 C   0  0  0  0  0  3  0  0  0  0  0  0
  188.5360  177.9740  141.0820 C   0  0  0  0  0  0  0  0  0  0  0  0
  189.5110  177.8520  140.0870 C   0  0  0  0  0  3  0  0  0  0  0  0
  185.5010  178.3800  143.9250 C   0  0  0  0  0  3  0  0  0  0  0  0
  186.9450  177.8360  145.7200 C   0  0  0  0  0  0  0  0  0  0  0  0
  187.1080  177.6480  147.0570 N   0  0  0  0  0  0  0  0  0  0  0  0
  180.4880  180.1860  138.9970 C   0  0  0  0  0  0  0  0  0  0  0  0
  182.8670  180.5110  138.7190 C   0  0  0  0  0  3  0  0  0  0  0  0
  182.2480  177.6710  140.9690 F   0  0  0  0  0  0  0  0  0  0  0  0
  179.0890  180.5860  138.6920 C   0  0  0  0  0  1  0  0  0  0  0  0
  181.5530  180.8880  138.4320 C   0  0  0  0  0  3  0  0  0  0  0  0
  182.0490  178.7240  140.1380 C   0  0  0  0  0  0  0  0  0  0  0  0
  183.1340  179.4290  139.5710 C   0  0  0  0  0  0  0  0  0  0  0  0
  180.7360  179.1060  139.8470 C   0  0  0  0  0  3  0  0  0  0  0  0
  1 11  1  0  0  0  0
  1 17  1  0  0  0  0
  2  3  2  0  0  0  0
  3  9  1  0  0  0  0
  3 22  1  0  0  0  0
  4  5  2  0  0  0  0
  5 16  1  0  0  0  0
  6 13  1  0  0  0  0
  6 18  1  0  0  0  0
  7 17  2  0  0  0  0
  7  2  1  0  0  0  0
  8  1  2  0  0  0  0
  9  6  2  0  0  0  0
 10 15  1  0  0  0  0
 12 22  2  0  0  0  0
 14 19  1  0  0  0  0
 14 10  2  0  0  0  0
 15  2  1  0  0  0  0
 15 21  2  0  0  0  0
 16 10  1  0  0  0  0
 19  7  1  0  0  0  0
 20  8  1  0  0  0  0
 20 19  2  0  0  0  0
 21 12  1  0  0  0  0
 22 23  1  0  0  0  0
 23 18  2  0  0  0  0
 24 31  1  0  0  0  0
 25 30  2  0  0  0  0
 27 24  1  0  0  0  0
 28 25  1  0  0  0  0
 28 24  2  0  0  0  0
 29 26  1  0  0  0  0
 30  5  1  0  0  0  0
 30 29  1  0  0  0  0
 31 29  2  0  0  0  0
M  END
>  <MODEL>
3

>  <REMARK>
 VINA RESULT:     -11.1      3.218      7.038
  Name = 
  1 active torsions:
  status: ('A' for Active; 'I' for Inactive)
    1  A    between atoms: C_9  and  C_22
                            x       y       z     vdW  Elec       q    Type
                         _______ _______ _______ _____ _____    ______ ____

>  <TORSDO>
F 1

$$$$
=
 OpenBabel11052413083D

 31 35  0  0  0  0  0  0  0  0999 V2000
  186.3390  178.0410  146.9690 C   0  0  0  0  0  0  0  0  0  0  0  0
  187.2590  178.0340  143.3160 C   0  0  0  0  0  0  0  0  0  0  0  0
  188.6630  177.7800  143.2410 C   0  0  0  0  0  0  0  0  0  0  0  0
  182.3280  179.0110  141.7300 O   0  0  0  0  0  0  0  0  0  0  0  0
  183.0680  178.9200  140.7130 C   0  0  0  0  0  0  0  0  0  0  0  0
  190.8380  177.3360  144.2400 C   0  0  0  0  0  0  0  0  0  0  0  0
  186.5150  178.1170  144.5330 C   0  0  0  0  0  0  0  0  0  0  0  0
  184.9710  178.2950  146.8900 C   0  0  0  0  0  3  0  0  0  0  0  0
  189.4730  177.5820  144.3700 C   0  0  0  0  0  3  0  0  0  0  0  0
  185.1720  178.4720  142.1000 C   0  0  0  0  0  0  0  0  0  0  0  0
  186.9300  177.8780  148.1760 F   0  0  0  0  0  0  0  0  0  0  0  0
  188.5680  177.9050  140.8410 N   0  0  0  0  0  0  0  0  0  0  0  0
  191.6800  177.1280  145.4470 C   0  0  0  0  0  1  0  0  0  0  0  0
  184.5060  178.5410  143.2800 N   0  0  0  0  0  0  0  0  0  0  0  0
  186.5540  178.2180  142.0950 C   0  0  0  0  0  0  0  0  0  0  0  0
  184.4700  178.6560  140.8600 N   0  0  0  0  0  2  0  0  0  0  0  0
  187.1000  177.9520  145.8010 C   0  0  0  0  0  3  0  0  0  0  0  0
  191.4050  177.2890  142.9690 C   0  0  0  0  0  3  0  0  0  0  0  0
  185.1220  178.3750  144.4730 C   0  0  0  0  0  0  0  0  0  0  0  0
  184.3650  178.4620  145.6460 C   0  0  0  0  0  3  0  0  0  0  0  0
  187.2360  178.1470  140.8770 C   0  0  0  0  0  3  0  0  0  0  0  0
  189.2910  177.7220  141.9720 C   0  0  0  0  0  0  0  0  0  0  0  0
  190.6260  177.4800  141.8730 N   0  0  0  0  0  0  0  0  0  0  0  0
  181.3880  179.4750  136.8030 C   0  0  0  0  0  0  0  0  0  0  0  0
  181.9030  180.3100  139.0130 C   0  0  0  0  0  3  0  0  0  0  0  0
  183.0860  176.8450  138.6770 F   0  0  0  0  0  0  0  0  0  0  0  0
  180.8020  179.6820  135.4520 C   0  0  0  0  0  1  0  0  0  0  0  0
  181.3530  180.5050  137.7430 C   0  0  0  0  0  3  0  0  0  0  0  0
  182.5270  178.0490  138.3980 C   0  0  0  0  0  0  0  0  0  0  0  0
  182.4960  179.0850  139.3580 C   0  0  0  0  0  0  0  0  0  0  0  0
  181.9740  178.2510  137.1300 C   0  0  0  0  0  3  0  0  0  0  0  0
  1 11  1  0  0  0  0
  2  7  1  0  0  0  0
  3  2  2  0  0  0  0
  3  9  1  0  0  0  0
  5 16  1  0  0  0  0
  5  4  2  0  0  0  0
  6  9  2  0  0  0  0
  6 13  1  0  0  0  0
  7 17  1  0  0  0  0
  8  1  1  0  0  0  0
 10 14  2  0  0  0  0
 12 21  1  0  0  0  0
 12 22  2  0  0  0  0
 14 19  1  0  0  0  0
 15 10  1  0  0  0  0
 15  2  1  0  0  0  0
 16 10  1  0  0  0  0
 17  1  2  0  0  0  0
 18  6  1  0  0  0  0
 19  7  2  0  0  0  0
 19 20  1  0  0  0  0
 20  8  2  0  0  0  0
 21 15  2  0  0  0  0
 22  3  1  0  0  0  0
 23 22  1  0  0  0  0
 23 18  2  0  0  0  0
 24 31  2  0  0  0  0
 24 28  1  0  0  0  0
 25 30  1  0  0  0  0
 27 24  1  0  0  0  0
 28 25  2  0  0  0  0
 29 26  1  0  0  0  0
 29 30  2  0  0  0  0
 30  5  1  0  0  0  0
 31 29  1  0  0  0  0
M  END
>  <MODEL>
4

>  <REMARK>
 VINA RESULT:     -10.7      4.068      6.647
  Name = 
  1 active torsions:
  status: ('A' for Active; 'I' for Inactive)
    1  A    between atoms: C_9  and  C_22
                            x       y       z     vdW  Elec       q    Type
                         _______ _______ _______ _____ _____    ______ ____

>  <TORSDO>
F 1

$$$$
=
 OpenBabel11052413083D

 31 35  0  0  0  0  0  0  0  0999 V2000
  189.8150  177.5080  142.4760 C   0  0  0  0  0  0  0  0  0  0  0  0
  186.2480  178.4150  143.2750 C   0  0  0  0  0  0  0  0  0  0  0  0
  186.1060  178.3360  144.6940 C   0  0  0  0  0  0  0  0  0  0  0  0
  184.9620  179.1840  138.2220 O   0  0  0  0  0  0  0  0  0  0  0  0
  183.9440  179.4030  138.9340 C   0  0  0  0  0  0  0  0  0  0  0  0
  186.9620  177.9160  146.9350 C   0  0  0  0  0  0  0  0  0  0  0  0
  187.4580  178.1430  142.5660 C   0  0  0  0  0  0  0  0  0  0  0  0
  189.8070  177.6250  141.0870 C   0  0  0  0  0  3  0  0  0  0  0  0
  187.1540  177.9770  145.5560 C   0  0  0  0  0  3  0  0  0  0  0  0
  185.1780  178.8850  141.1160 C   0  0  0  0  0  0  0  0  0  0  0  0
  190.9500  177.1450  143.1190 F   0  0  0  0  0  0  0  0  0  0  0  0
  183.7960  178.9800  144.5100 N   0  0  0  0  0  0  0  0  0  0  0  0
  188.0840  177.5360  147.8320 C   0  0  0  0  0  1  0  0  0  0  0  0
  186.3490  178.6190  140.4840 N   0  0  0  0  0  0  0  0  0  0  0  0
  185.1050  178.7890  142.5160 C   0  0  0  0  0  0  0  0  0  0  0  0
  184.0170  179.2650  140.3600 N   0  0  0  0  0  2  0  0  0  0  0  0
  188.6520  177.7650  143.2050 C   0  0  0  0  0  3  0  0  0  0  0  0
  185.7090  178.2140  147.4620 C   0  0  0  0  0  3  0  0  0  0  0  0
  187.4690  178.2580  141.1530 C   0  0  0  0  0  0  0  0  0  0  0  0
  188.6370  177.9990  140.4280 C   0  0  0  0  0  3  0  0  0  0  0  0
  183.8970  179.0650  143.1630 C   0  0  0  0  0  3  0  0  0  0  0  0
  184.8510  178.6290  145.2840 C   0  0  0  0  0  0  0  0  0  0  0  0
  184.6900  178.5610  146.6330 N   0  0  0  0  0  0  0  0  0  0  0  0
  180.2230  180.4880  137.0920 C   0  0  0  0  0  0  0  0  0  0  0  0
  181.8470  178.8160  137.7360 C   0  0  0  0  0  3  0  0  0  0  0  0
  182.9930  182.1460  138.7910 F   0  0  0  0  0  0  0  0  0  0  0  0
  178.9310  180.8480  136.4520 C   0  0  0  0  0  1  0  0  0  0  0  0
  180.6320  179.1540  137.1340 C   0  0  0  0  0  3  0  0  0  0  0  0
  182.2420  181.1510  138.2590 C   0  0  0  0  0  0  0  0  0  0  0  0
  182.6650  179.8040  138.3050 C   0  0  0  0  0  0  0  0  0  0  0  0
  181.0250  181.4820  137.6530 C   0  0  0  0  0  3  0  0  0  0  0  0
  1 11  1  0  0  0  0
  1 17  1  0  0  0  0
  2  3  2  0  0  0  0
  3 22  1  0  0  0  0
  3  9  1  0  0  0  0
  4  5  2  0  0  0  0
  5 16  1  0  0  0  0
  6 18  1  0  0  0  0
  6 13  1  0  0  0  0
  7 17  2  0  0  0  0
  7  2  1  0  0  0  0
  8  1  2  0  0  0  0
  9  6  2  0  0  0  0
 10 15  1  0  0  0  0
 12 22  2  0  0  0  0
 14 10  2  0  0  0  0
 14 19  1  0  0  0  0
 15 21  2  0  0  0  0
 15  2  1  0  0  0  0
 16 10  1  0  0  0  0
 19  7  1  0  0  0  0
 20  8  1  0  0  0  0
 20 19  2  0  0  0  0
 21 12  1  0  0  0  0
 22 23  1  0  0  0  0
 23 18  2  0  0  0  0
 24 28  2  0  0  0  0
 24 31  1  0  0  0  0
 25 30  2  0  0  0  0
 27 24  1  0  0  0  0
 28 25  1  0  0  0  0
 29 30  1  0  0  0  0
 29 26  1  0  0  0  0
 30  5  1  0  0  0  0
 31 29  2  0  0  0  0
M  END
>  <MODEL>
5

>  <REMARK>
 VINA RESULT:     -10.6      4.200      7.327
  Name = 
  1 active torsions:
  status: ('A' for Active; 'I' for Inactive)
    1  A    between atoms: C_9  and  C_22
                            x       y       z     vdW  Elec       q    Type
                         _______ _______ _______ _____ _____    ______ ____

>  <TORSDO>
F 1

$$$$
=
 OpenBabel11052413083D

 31 35  0  0  0  0  0  0  0  0999 V2000
  185.4210  178.2540  146.6580 C   0  0  0  0  0  0  0  0  0  0  0  0
  185.4080  178.2980  142.8920 C   0  0  0  0  0  0  0  0  0  0  0  0
  184.0740  178.6040  142.4830 C   0  0  0  0  0  0  0  0  0  0  0  0
  190.5380  177.1430  142.5280 O   0  0  0  0  0  0  0  0  0  0  0  0
  190.0690  177.2620  141.3640 C   0  0  0  0  0  0  0  0  0  0  0  0
  181.7380  179.1270  142.9340 C   0  0  0  0  0  0  0  0  0  0  0  0
  185.8340  178.1870  144.2500 C   0  0  0  0  0  0  0  0  0  0  0  0
  186.7580  177.9490  146.9080 C   0  0  0  0  0  3  0  0  0  0  0  0
  183.0230  178.8310  143.3860 C   0  0  0  0  0  3  0  0  0  0  0  0
  187.7100  177.7850  142.2080 C   0  0  0  0  0  0  0  0  0  0  0  0
  184.5630  178.4370  147.6890 F   0  0  0  0  0  0  0  0  0  0  0  0
  184.7390  178.4780  140.1750 N   0  0  0  0  0  0  0  0  0  0  0  0
  180.6390  179.3640  143.9050 C   0  0  0  0  0  1  0  0  0  0  0  0
  188.0690  177.6900  143.5140 N   0  0  0  0  0  0  0  0  0  0  0  0
  186.3800  178.0890  141.8730 C   0  0  0  0  0  0  0  0  0  0  0  0
  188.6820  177.5770  141.1720 N   0  0  0  0  0  2  0  0  0  0  0  0
  184.9670  178.3710  145.3420 C   0  0  0  0  0  3  0  0  0  0  0  0
  181.4970  179.1960  141.5650 C   0  0  0  0  0  3  0  0  0  0  0  0
  187.1900  177.8780  144.5250 C   0  0  0  0  0  0  0  0  0  0  0  0
  187.6390  177.7620  145.8440 C   0  0  0  0  0  3  0  0  0  0  0  0
  186.0130  178.1870  140.5280 C   0  0  0  0  0  3  0  0  0  0  0  0
  183.7720  178.6870  141.1010 C   0  0  0  0  0  0  0  0  0  0  0  0
  182.5090  178.9770  140.6860 N   0  0  0  0  0  0  0  0  0  0  0  0
  192.6700  176.7480  137.9890 C   0  0  0  0  0  0  0  0  0  0  0  0
  192.3230  177.2970  140.3180 C   0  0  0  0  0  3  0  0  0  0  0  0
  189.1100  176.4620  138.7390 F   0  0  0  0  0  0  0  0  0  0  0  0
  193.5830  176.5730  136.8290 C   0  0  0  0  0  1  0  0  0  0  0  0
  193.1820  177.1330  139.2290 C   0  0  0  0  0  3  0  0  0  0  0  0
  190.4340  176.6870  138.9260 C   0  0  0  0  0  0  0  0  0  0  0  0
  190.9440  177.0770  140.1840 C   0  0  0  0  0  0  0  0  0  0  0  0
  191.3000  176.5250  137.8390 C   0  0  0  0  0  3  0  0  0  0  0  0
  1  8  1  0  0  0  0
  1 11  1  0  0  0  0
  2  7  1  0  0  0  0
  3  2  2  0  0  0  0
  3  9  1  0  0  0  0
  5  4  2  0  0  0  0
  6  9  2  0  0  0  0
  6 13  1  0  0  0  0
  7 19  2  0  0  0  0
  7 17  1  0  0  0  0
 10 14  2  0  0  0  0
 12 21  1  0  0  0  0
 12 22  2  0  0  0  0
 14 19  1  0  0  0  0
 15 10  1  0  0  0  0
 15  2  1  0  0  0  0
 16  5  1  0  0  0  0
 16 10  1  0  0  0  0
 17  1  2  0  0  0  0
 18  6  1  0  0  0  0
 19 20  1  0  0  0  0
 20  8  2  0  0  0  0
 21 15  2  0  0  0  0
 22  3  1  0  0  0  0
 23 22  1  0  0  0  0
 23 18  2  0  0  0  0
 24 28  1  0  0  0  0
 26 29  1  0  0  0  0
 27 24  1  0  0  0  0
 28 25  2  0  0  0  0
 29 30  2  0  0  0  0
 30 25  1  0  0  0  0
 30  5  1  0  0  0  0
 31 24  2  0  0  0  0
 31 29  1  0  0  0  0
M  END
>  <MODEL>
6

>  <REMARK>
 VINA RESULT:     -10.0      2.324      5.214
  Name = 
  1 active torsions:
  status: ('A' for Active; 'I' for Inactive)
    1  A    between atoms: C_9  and  C_22
                            x       y       z     vdW  Elec       q    Type
                         _______ _______ _______ _____ _____    ______ ____

>  <TORSDO>
F 1

$$$$
=
 OpenBabel11052413083D

 31 35  0  0  0  0  0  0  0  0999 V2000
  185.4160  178.2530  146.5940 C   0  0  0  0  0  0  0  0  0  0  0  0
  185.4160  178.3020  142.8280 C   0  0  0  0  0  0  0  0  0  0  0  0
  184.0850  178.6160  142.4150 C   0  0  0  0  0  0  0  0  0  0  0  0
  190.5410  177.1200  142.4800 O   0  0  0  0  0  0  0  0  0  0  0  0
  190.0760  177.2430  141.3140 C   0  0  0  0  0  0  0  0  0  0  0  0
  181.7510  179.1510  142.8590 C   0  0  0  0  0  0  0  0  0  0  0  0
  185.8360  178.1870  144.1880 C   0  0  0  0  0  0  0  0  0  0  0  0
  186.7500  177.9410  146.8480 C   0  0  0  0  0  3  0  0  0  0  0  0
  183.0320  178.8470  143.3150 C   0  0  0  0  0  3  0  0  0  0  0  0
  187.7170  177.7790  142.1520 C   0  0  0  0  0  0  0  0  0  0  0  0
  184.5550  178.4390  147.6230 F   0  0  0  0  0  0  0  0  0  0  0  0
  184.7570  178.4900  140.1090 N   0  0  0  0  0  0  0  0  0  0  0  0
  180.6490  179.3930  143.8270 C   0  0  0  0  0  1  0  0  0  0  0  0
  188.0720  177.6800  143.4580 N   0  0  0  0  0  0  0  0  0  0  0  0
  186.3900  178.0900  141.8130 C   0  0  0  0  0  0  0  0  0  0  0  0
  188.6920  177.5660  141.1180 N   0  0  0  0  0  2  0  0  0  0  0  0
  184.9670  178.3750  145.2770 C   0  0  0  0  0  3  0  0  0  0  0  0
  181.5140  179.2230  141.4890 C   0  0  0  0  0  3  0  0  0  0  0  0
  187.1900  177.8700  144.4670 C   0  0  0  0  0  0  0  0  0  0  0  0
  187.6340  177.7500  145.7870 C   0  0  0  0  0  3  0  0  0  0  0  0
  186.0290  178.1920  140.4660 C   0  0  0  0  0  3  0  0  0  0  0  0
  183.7880  178.7020  141.0320 C   0  0  0  0  0  0  0  0  0  0  0  0
  182.5280  179.0000  140.6140 N   0  0  0  0  0  0  0  0  0  0  0  0
  192.5560  176.6820  137.8570 C   0  0  0  0  0  0  0  0  0  0  0  0
  190.3750  176.7310  138.9010 C   0  0  0  0  0  3  0  0  0  0  0  0
  192.9700  177.5030  141.3880 F   0  0  0  0  0  0  0  0  0  0  0  0
  193.4020  176.4860  136.6510 C   0  0  0  0  0  1  0  0  0  0  0  0
  191.1700  176.5470  137.7670 C   0  0  0  0  0  3  0  0  0  0  0  0
  192.3580  177.1920  140.2190 C   0  0  0  0  0  0  0  0  0  0  0  0
  190.9540  177.0560  140.1380 C   0  0  0  0  0  0  0  0  0  0  0  0
  193.1470  177.0050  139.0800 C   0  0  0  0  0  3  0  0  0  0  0  0
  1  8  1  0  0  0  0
  1 11  1  0  0  0  0
  2  7  1  0  0  0  0
  3  2  2  0  0  0  0
  3  9  1  0  0  0  0
  5  4  2  0  0  0  0
  6  9  2  0  0  0  0
  6 13  1  0  0  0  0
  7 19  2  0  0  0  0
  7 17  1  0  0  0  0
 10 14  2  0  0  0  0
 12 21  1  0  0  0  0
 12 22  2  0  0  0  0
 14 19  1  0  0  0  0
 15 10  1  0  0  0  0
 15  2  1  0  0  0  0
 16  5  1  0  0  0  0
 16 10  1  0  0  0  0
 17  1  2  0  0  0  0
 18  6  1  0  0  0  0
 19 20  1  0  0  0  0
 20  8  2  0  0  0  0
 21 15  2  0  0  0  0
 22  3  1  0  0  0  0
 23 22  1  0  0  0  0
 23 18  2  0  0  0  0
 24 31  1  0  0  0  0
 25 30  2  0  0  0  0
 27 24  1  0  0  0  0
 28 24  2  0  0  0  0
 28 25  1  0  0  0  0
 29 26  1  0  0  0  0
 30 29  1  0  0  0  0
 30  5  1  0  0  0  0
 31 29  2  0  0  0  0
M  END
>  <MODEL>
7

>  <REMARK>
 VINA RESULT:      -9.8      2.236      5.104
  Name = 
  1 active torsions:
  status: ('A' for Active; 'I' for Inactive)
    1  A    between atoms: C_9  and  C_22
                            x       y       z     vdW  Elec       q    Type
                         _______ _______ _______ _____ _____    ______ ____

>  <TORSDO>
F 1

$$$$
=
 OpenBabel11052413083D

 31 35  0  0  0  0  0  0  0  0999 V2000
  184.9150  178.9790  141.7670 C   0  0  0  0  0  0  0  0  0  0  0  0
  188.3610  177.6030  142.4130 C   0  0  0  0  0  0  0  0  0  0  0  0
  188.5130  177.5080  143.8310 C   0  0  0  0  0  0  0  0  0  0  0  0
  189.5490  177.2610  137.2900 O   0  0  0  0  0  0  0  0  0  0  0  0
  190.5370  176.8550  137.9600 C   0  0  0  0  0  0  0  0  0  0  0  0
  187.7100  177.7680  146.1150 C   0  0  0  0  0  0  0  0  0  0  0  0
  187.1880  178.0820  141.7550 C   0  0  0  0  0  0  0  0  0  0  0  0
  184.9090  179.0160  140.3740 C   0  0  0  0  0  3  0  0  0  0  0  0
  187.5110  177.8820  144.7410 C   0  0  0  0  0  3  0  0  0  0  0  0
  189.3700  177.2600  140.2020 C   0  0  0  0  0  0  0  0  0  0  0  0
  183.8280  179.3910  142.4610 F   0  0  0  0  0  0  0  0  0  0  0  0
  190.7370  176.6380  143.5460 N   0  0  0  0  0  0  0  0  0  0  0  0
  186.6380  178.1680  147.0640 C   0  0  0  0  0  1  0  0  0  0  0  0
  188.2350  177.7220  139.6190 N   0  0  0  0  0  0  0  0  0  0  0  0
  189.4550  177.1910  141.6030 C   0  0  0  0  0  0  0  0  0  0  0  0
  190.4820  176.8410  139.3940 N   0  0  0  0  0  2  0  0  0  0  0  0
  186.0440  178.5160  142.4470 C   0  0  0  0  0  3  0  0  0  0  0  0
  188.9230  177.2780  146.5900 C   0  0  0  0  0  3  0  0  0  0  0  0
  187.1630  178.1270  140.3380 C   0  0  0  0  0  0  0  0  0  0  0  0
  186.0300  178.5910  139.6620 C   0  0  0  0  0  3  0  0  0  0  0  0
  190.6260  176.7140  142.2000 C   0  0  0  0  0  3  0  0  0  0  0  0
  189.7280  177.0160  144.3680 C   0  0  0  0  0  0  0  0  0  0  0  0
  189.8970  176.9150  145.7150 N   0  0  0  0  0  0  0  0  0  0  0  0
  194.1330  175.5120  136.0410 C   0  0  0  0  0  0  0  0  0  0  0  0
  192.9650  176.3230  137.9960 C   0  0  0  0  0  3  0  0  0  0  0  0
  190.6310  176.0480  135.1690 F   0  0  0  0  0  0  0  0  0  0  0  0
  195.3860  175.0480  135.3890 C   0  0  0  0  0  1  0  0  0  0  0  0
  194.1430  175.8880  137.3850 C   0  0  0  0  0  3  0  0  0  0  0  0
  191.7630  176.0050  135.9150 C   0  0  0  0  0  0  0  0  0  0  0  0
  191.7630  176.3880  137.2740 C   0  0  0  0  0  0  0  0  0  0  0  0
  192.9460  175.5700  135.3080 C   0  0  0  0  0  3  0  0  0  0  0  0
  1 17  1  0  0  0  0
  1 11  1  0  0  0  0
  2  3  2  0  0  0  0
  3 22  1  0  0  0  0
  3  9  1  0  0  0  0
  4  5  2  0  0  0  0
  5 16  1  0  0  0  0
  6 18  1  0  0  0  0
  6 13  1  0  0  0  0
  7  2  1  0  0  0  0
  7 17  2  0  0  0  0
  8  1  2  0  0  0  0
  9  6  2  0  0  0  0
 10 15  1  0  0  0  0
 12 22  2  0  0  0  0
 14 10  2  0  0  0  0
 14 19  1  0  0  0  0
 15 21  2  0  0  0  0
 15  2  1  0  0  0  0
 16 10  1  0  0  0  0
 19  7  1  0  0  0  0
 20 19  2  0  0  0  0
 20  8  1  0  0  0  0
 21 12  1  0  0  0  0
 22 23  1  0  0  0  0
 23 18  2  0  0  0  0
 24 28  1  0  0  0  0
 26 29  1  0  0  0  0
 27 24  1  0  0  0  0
 28 25  2  0  0  0  0
 29 30  2  0  0  0  0
 30  5  1  0  0  0  0
 30 25  1  0  0  0  0
 31 29  1  0  0  0  0
 31 24  2  0  0  0  0
M  END
>  <MODEL>
8

>  <REMARK>
 VINA RESULT:      -9.6      1.571      2.108
  Name = 
  1 active torsions:
  status: ('A' for Active; 'I' for Inactive)
    1  A    between atoms: C_9  and  C_22
                            x       y       z     vdW  Elec       q    Type
                         _______ _______ _______ _____ _____    ______ ____

>  <TORSDO>
F 1

$$$$
=
 OpenBabel11052413083D

 31 35  0  0  0  0  0  0  0  0999 V2000
  190.9710  177.0140  145.5090 C   0  0  0  0  0  0  0  0  0  0  0  0
  189.0540  177.6040  142.3210 C   0  0  0  0  0  0  0  0  0  0  0  0
  189.9920  177.5120  141.2480 C   0  0  0  0  0  0  0  0  0  0  0  0
  184.4560  178.2600  144.8140 O   0  0  0  0  0  0  0  0  0  0  0  0
  184.2640  178.3880  143.5740 C   0  0  0  0  0  0  0  0  0  0  0  0
  192.2320  177.1690  140.3540 C   0  0  0  0  0  0  0  0  0  0  0  0
  189.3830  177.4400  143.7010 C   0  0  0  0  0  0  0  0  0  0  0  0
  189.9490  177.1300  146.4500 C   0  0  0  0  0  3  0  0  0  0  0  0
  191.3580  177.2480  141.4370 C   0  0  0  0  0  3  0  0  0  0  0  0
  186.7250  177.9800  143.0000 C   0  0  0  0  0  0  0  0  0  0  0  0
  192.2360  176.7510  145.9120 F   0  0  0  0  0  0  0  0  0  0  0  0
  188.2390  177.9530  139.6620 N   0  0  0  0  0  0  0  0  0  0  0  0
  193.6740  176.8880  140.5740 C   0  0  0  0  0  1  0  0  0  0  0  0
  187.0840  177.8160  144.2990 N   0  0  0  0  0  0  0  0  0  0  0  0
  187.6970  177.8770  141.9910 C   0  0  0  0  0  0  0  0  0  0  0  0
  185.3580  178.2560  142.6550 N   0  0  0  0  0  2  0  0  0  0  0  0
  190.6880  177.1670  144.1500 C   0  0  0  0  0  3  0  0  0  0  0  0
  191.7380  177.3560  139.0660 C   0  0  0  0  0  3  0  0  0  0  0  0
  188.3580  177.5550  144.6730 C   0  0  0  0  0  0  0  0  0  0  0  0
  188.6460  177.4000  146.0330 C   0  0  0  0  0  3  0  0  0  0  0  0
  187.3240  178.0450  140.6550 C   0  0  0  0  0  3  0  0  0  0  0  0
  189.5440  177.6950  139.9160 C   0  0  0  0  0  0  0  0  0  0  0  0
  190.4180  177.6120  138.8760 N   0  0  0  0  0  0  0  0  0  0  0  0
  180.3060  179.2320  142.1460 C   0  0  0  0  0  0  0  0  0  0  0  0
  181.8870  179.0030  143.9610 C   0  0  0  0  0  3  0  0  0  0  0  0
  183.5530  178.3170  140.7570 F   0  0  0  0  0  0  0  0  0  0  0  0
  178.9310  179.5280  141.6660 C   0  0  0  0  0  1  0  0  0  0  0  0
  180.5940  179.2810  143.5110 C   0  0  0  0  0  3  0  0  0  0  0  0
  182.6070  178.6290  141.6760 C   0  0  0  0  0  0  0  0  0  0  0  0
  182.9080  178.6750  143.0550 C   0  0  0  0  0  0  0  0  0  0  0  0
  181.3100  178.9080  141.2320 C   0  0  0  0  0  3  0  0  0  0  0  0
  1 11  1  0  0  0  0
  1  8  1  0  0  0  0
  2  7  1  0  0  0  0
  3  9  1  0  0  0  0
  3  2  2  0  0  0  0
  5  4  2  0  0  0  0
  6 13  1  0  0  0  0
  6  9  2  0  0  0  0
  7 17  1  0  0  0  0
  7 19  2  0  0  0  0
 10 14  2  0  0  0  0
 12 22  2  0  0  0  0
 12 21  1  0  0  0  0
 14 19  1  0  0  0  0
 15  2  1  0  0  0  0
 15 10  1  0  0  0  0
 16 10  1  0  0  0  0
 16  5  1  0  0  0  0
 17  1  2  0  0  0  0
 18  6  1  0  0  0  0
 19 20  1  0  0  0  0
 20  8  2  0  0  0  0
 21 15  2  0  0  0  0
 22  3  1  0  0  0  0
 23 18  2  0  0  0  0
 23 22  1  0  0  0  0
 24 28  1  0  0  0  0
 26 29  1  0  0  0  0
 27 24  1  0  0  0  0
 28 25  2  0  0  0  0
 29 30  2  0  0  0  0
 30  5  1  0  0  0  0
 30 25  1  0  0  0  0
 31 29  1  0  0  0  0
 31 24  2  0  0  0  0
M  END
>  <MODEL>
9

>  <REMARK>
 VINA RESULT:      -9.5      3.026      8.168
  Name = 
  1 active torsions:
  status: ('A' for Active; 'I' for Inactive)
    1  A    between atoms: C_9  and  C_22
                            x       y       z     vdW  Elec       q    Type
                         _______ _______ _______ _____ _____    ______ ____

>  <TORSDO>
F 1

$$$$
