=
 OpenBabel11052416103D

 43 50  0  0  1  0  0  0  0  0999 V2000
  182.0010  179.1640  142.4070 C   0  0  0  0  0  0  0  0  0  0  0  0
  185.8910  177.9070  145.4010 C   0  0  0  0  0  0  0  0  0  0  0  0
  188.0340  177.2170  143.7010 C   0  0  0  0  0  0  0  0  0  0  0  0
  183.4220  178.7110  144.3150 C   0  0  0  0  0  0  0  0  0  0  0  0
  183.0370  178.8050  141.5430 C   0  0  0  0  0  3  0  0  0  0  0  0
  180.8070  179.5620  141.9030 F   0  0  0  0  0  0  0  0  0  0  0  0
  184.4830  178.3520  143.4480 C   0  0  0  0  0  0  0  0  0  0  0  0
  182.1930  179.1150  143.7900 C   0  0  0  0  0  3  0  0  0  0  0  0
  184.2720  178.4030  142.0580 C   0  0  0  0  0  3  0  0  0  0  0  0
  186.7990  177.6050  143.1630 C   0  0  0  0  0  3  0  0  0  0  0  0
  185.7230  177.9530  143.9920 C   0  0  0  0  0  0  0  0  0  0  0  0
  184.8220  178.2660  146.2340 C   0  0  0  0  0  3  0  0  0  0  0  0
  187.1220  177.4940  145.9510 C   0  0  0  0  0  0  0  0  0  0  0  0
  188.1810  177.1670  145.0920 C   0  0  0  0  0  3  0  0  0  0  0  0
  183.6000  178.6650  145.6970 C   0  0  0  0  0  3  0  0  0  0  0  0
  187.3150  177.4260  147.4610 C   0  0  2  0  0  3  0  0  0  0  0  0
  189.6490  177.1440  146.9150 C   0  0  2  0  0  3  0  0  0  0  0  0
  190.8540  176.4120  147.4670 C   0  0  2  0  0  3  0  0  0  0  0  0
  189.9810  178.3430  147.7020 C   0  0  1  0  0  3  0  0  0  0  0  0
  187.7950  178.6260  147.9350 O   0  0  0  0  0  0  0  0  0  0  0  0
  188.7170  177.5510  148.0810 C   0  0  2  0  0  0  0  0  0  0  0  0
  191.2040  177.6470  148.2660 C   0  0  0  0  0  2  0  0  0  0  0  0
  191.7580  176.8500  145.2260 C   0  0  0  0  0  2  0  0  0  0  0  0
  191.8530  176.1900  146.3770 C   0  0  0  0  0  3  0  0  0  0  0  0
  189.1320  176.8620  142.8370 N   0  0  0  0  0  0  0  0  0  0  0  0
  189.6950  175.5190  142.8640 C   0  0  0  0  0  1  0  0  0  0  0  0
  189.6510  177.7940  141.8430 C   0  0  0  0  0  2  0  0  0  0  0  0
  189.2030  177.3800  140.4480 C   0  0  2  0  0  3  0  0  0  0  0  0
  190.2930  176.8760  139.7430 O   0  0  0  0  0  1  0  0  0  0  0  0
  188.6130  178.5550  139.6830 C   0  0  0  0  0  2  0  0  0  0  0  0
  188.4660  178.2490  138.2660 N   0  0  0  0  0  0  0  0  0  0  0  0
  187.5920  177.6790  136.2930 N   0  0  0  0  0  0  0  0  0  0  0  0
  189.4640  178.2460  137.3670 C   0  0  0  0  0  3  0  0  0  0  0  0
  187.3510  177.9050  137.5980 C   0  0  0  0  0  0  0  0  0  0  0  0
  188.9190  177.8960  136.1460 C   0  0  0  0  0  3  0  0  0  0  0  0
  185.9880  177.7450  138.2320 C   0  0  1  0  0  3  0  0  0  0  0  0
  185.5620  178.9540  138.7820 O   0  0  0  0  0  1  0  0  0  0  0  0
  184.9520  177.2090  137.3330 N   0  0  0  0  0  0  0  0  0  0  0  0
  182.4040  175.9050  139.4440 C   0  0  0  0  0  1  0  0  0  0  0  0
  184.0580  175.0720  137.8760 N   0  0  0  0  0  2  0  0  0  0  0  0
  183.0060  176.0520  138.0640 C   0  0  2  0  0  3  0  0  0  0  0  0
  185.0950  175.7670  137.1250 C   0  0  0  0  0  2  0  0  0  0  0  0
  183.6460  177.4090  137.9350 C   0  0  0  0  0  2  0  0  0  0  0  0
  1  8  1  0  0  0  0
  2 13  1  0  0  0  0
  2 12  1  0  0  0  0
  3 14  1  0  0  0  0
  4 15  1  0  0  0  0
  5  9  1  0  0  0  0
  5  1  2  0  0  0  0
  6  1  1  0  0  0  0
  7 11  1  0  0  0  0
  7  4  1  0  0  0  0
  8  4  2  0  0  0  0
  9  7  2  0  0  0  0
 10  3  2  0  0  0  0
 10 11  1  0  0  0  0
 11  2  2  0  0  0  0
 14 13  2  0  0  0  0
 15 12  2  0  0  0  0
 16 13  1  6  0  0  0
 16 20  1  0  0  0  0
 16 21  1  0  0  0  0
 17 18  1  0  0  0  0
 17 19  1  0  0  0  0
 17 21  1  0  0  0  0
 18 22  1  0  0  0  0
 19 21  1  0  0  0  0
 19 22  1  0  0  0  0
 20 21  1  0  0  0  0
 23 24  2  0  0  0  0
 24 18  1  0  0  0  0
 25 26  1  0  0  0  0
 25  3  1  0  0  0  0
 27 25  1  0  0  0  0
 28 27  1  0  0  0  0
 29 28  1  0  0  0  0
 30 28  1  0  0  0  0
 31 30  1  0  0  0  0
 32 34  2  0  0  0  0
 33 31  1  0  0  0  0
 34 36  1  0  0  0  0
 34 31  1  0  0  0  0
 35 32  1  0  0  0  0
 35 33  2  0  0  0  0
 36 37  1  0  0  0  0
 38 43  1  0  0  0  0
 38 36  1  0  0  0  0
 40 41  1  0  0  0  0
 41 39  1  0  0  0  0
 42 38  1  0  0  0  0
 42 40  1  0  0  0  0
 43 41  1  0  0  0  0
M  END
>  <MODEL>
1

>  <REMARK>
 VINA RESULT:     -10.3      0.000      0.000
  Name = 
  9 active torsions:
  status: ('A' for Active; 'I' for Inactive)
    1  A    between atoms: C_1  and  C_34
    2  A    between atoms: N_2  and  C_6
    3  A    between atoms: N_2  and  C_13
    4  A    between atoms: C_3  and  N_4
    5  A    between atoms: C_3  and  C_12
    6  A    between atoms: C_6  and  C_12
    7  A    between atoms: N_11  and  C_14
    8  A    between atoms: C_14  and  C_22
    9  A    between atoms: C_19  and  C_37
                            x       y       z     vdW  Elec       q    Type
                         _______ _______ _______ _____ _____    ______ ____

>  <TORSDO>
F 9

$$$$
=
 OpenBabel11052416103D

 43 50  0  0  1  0  0  0  0  0999 V2000
  184.4320  178.8580  144.8010 C   0  0  0  0  0  0  0  0  0  0  0  0
  182.2150  178.6520  140.2480 C   0  0  0  0  0  0  0  0  0  0  0  0
  184.2590  178.1380  138.3730 C   0  0  0  0  0  0  0  0  0  0  0  0
  182.8280  178.8740  142.9860 C   0  0  0  0  0  0  0  0  0  0  0  0
  185.4660  178.6270  143.8910 C   0  0  0  0  0  3  0  0  0  0  0  0
  184.7060  178.9600  146.1240 F   0  0  0  0  0  0  0  0  0  0  0  0
  183.8680  178.6310  142.0560 C   0  0  0  0  0  0  0  0  0  0  0  0
  183.1160  178.9830  144.3490 C   0  0  0  0  0  3  0  0  0  0  0  0
  185.1880  178.5120  142.5260 C   0  0  0  0  0  3  0  0  0  0  0  0
  184.5620  178.2620  139.7350 C   0  0  0  0  0  3  0  0  0  0  0  0
  183.5600  178.5160  140.6820 C   0  0  0  0  0  0  0  0  0  0  0  0
  181.2080  178.8930  141.1920 C   0  0  0  0  0  3  0  0  0  0  0  0
  181.9040  178.5520  138.8760 C   0  0  0  0  0  0  0  0  0  0  0  0
  182.9300  178.2840  137.9590 C   0  0  0  0  0  3  0  0  0  0  0  0
  181.5100  179.0020  142.5490 C   0  0  0  0  0  3  0  0  0  0  0  0
  180.4690  178.7090  138.3920 C   0  0  2  0  0  3  0  0  0  0  0  0
  181.1420  180.9640  137.8570 C   0  0  2  0  0  3  0  0  0  0  0  0
  180.5260  182.3470  137.8280 C   0  0  2  0  0  3  0  0  0  0  0  0
  180.7770  180.7410  136.4480 C   0  0  1  0  0  3  0  0  0  0  0  0
  180.4160  178.6300  137.0190 O   0  0  0  0  0  0  0  0  0  0  0  0
  180.0570  179.9110  137.5250 C   0  0  2  0  0  0  0  0  0  0  0  0
  180.1620  182.1250  136.3770 C   0  0  0  0  0  2  0  0  0  0  0  0
  181.5570  184.4910  137.2190 C   0  0  0  0  0  2  0  0  0  0  0  0
  181.5990  183.3810  137.9500 C   0  0  0  0  0  3  0  0  0  0  0  0
  185.2990  177.8770  137.4100 N   0  0  0  0  0  0  0  0  0  0  0  0
  185.0910  176.9210  136.3310 C   0  0  0  0  0  1  0  0  0  0  0  0
  186.5520  178.6230  137.4190 C   0  0  0  0  0  2  0  0  0  0  0  0
  187.7350  177.6680  137.4860 C   0  0  2  0  0  3  0  0  0  0  0  0
  187.3670  176.5260  138.1940 O   0  0  0  0  0  1  0  0  0  0  0  0
  188.9330  178.3130  138.1660 C   0  0  0  0  0  2  0  0  0  0  0  0
  190.0030  177.3490  138.3890 N   0  0  0  0  0  0  0  0  0  0  0  0
  191.5050  176.0310  139.3830 N   0  0  0  0  0  0  0  0  0  0  0  0
  190.6980  176.7280  137.4220 C   0  0  0  0  0  3  0  0  0  0  0  0
  190.5050  176.9160  139.5580 C   0  0  0  0  0  0  0  0  0  0  0  0
  191.6250  175.9090  138.0410 C   0  0  0  0  0  3  0  0  0  0  0  0
  190.0420  177.3880  140.9170 C   0  0  1  0  0  3  0  0  0  0  0  0
  188.6810  177.1300  141.0840 O   0  0  0  0  0  1  0  0  0  0  0  0
  190.8020  176.8350  142.0510 N   0  0  0  0  0  0  0  0  0  0  0  0
  188.6780  177.1280  144.8880 C   0  0  0  0  0  1  0  0  0  0  0  0
  190.7610  178.0760  144.0810 N   0  0  0  0  0  2  0  0  0  0  0  0
  190.0430  176.8370  144.3060 C   0  0  2  0  0  3  0  0  0  0  0  0
  191.4740  177.8790  142.8260 C   0  0  0  0  0  2  0  0  0  0  0  0
  189.8870  176.1730  142.9630 C   0  0  0  0  0  2  0  0  0  0  0  0
  1  6  1  0  0  0  0
  2 11  1  0  0  0  0
  2 12  1  0  0  0  0
  3 10  1  0  0  0  0
  4  8  2  0  0  0  0
  5  1  2  0  0  0  0
  7  9  2  0  0  0  0
  7  4  1  0  0  0  0
  8  1  1  0  0  0  0
  9  5  1  0  0  0  0
 10 11  2  0  0  0  0
 11  7  1  0  0  0  0
 12 15  2  0  0  0  0
 13  2  2  0  0  0  0
 14  3  2  0  0  0  0
 14 13  1  0  0  0  0
 15  4  1  0  0  0  0
 16 13  1  6  0  0  0
 18 17  1  0  0  0  0
 18 24  1  0  0  0  0
 19 21  1  0  0  0  0
 19 17  1  0  0  0  0
 20 21  1  0  0  0  0
 20 16  1  0  0  0  0
 21 17  1  0  0  0  0
 21 16  1  0  0  0  0
 22 19  1  0  0  0  0
 22 18  1  0  0  0  0
 23 24  2  0  0  0  0
 25 27  1  0  0  0  0
 25  3  1  0  0  0  0
 26 25  1  0  0  0  0
 27 28  1  0  0  0  0
 28 30  1  0  0  0  0
 28 29  1  0  0  0  0
 30 31  1  0  0  0  0
 31 34  1  0  0  0  0
 32 34  2  0  0  0  0
 33 35  2  0  0  0  0
 33 31  1  0  0  0  0
 34 36  1  0  0  0  0
 35 32  1  0  0  0  0
 36 37  1  0  0  0  0
 36 38  1  0  0  0  0
 38 42  1  0  0  0  0
 38 43  1  0  0  0  0
 40 41  1  0  0  0  0
 41 39  1  0  0  0  0
 42 40  1  0  0  0  0
 43 41  1  0  0  0  0
M  END
>  <MODEL>
2

>  <REMARK>
 VINA RESULT:     -10.3      3.009      8.312
  Name = 
  9 active torsions:
  status: ('A' for Active; 'I' for Inactive)
    1  A    between atoms: C_1  and  C_34
    2  A    between atoms: N_2  and  C_6
    3  A    between atoms: N_2  and  C_13
    4  A    between atoms: C_3  and  N_4
    5  A    between atoms: C_3  and  C_12
    6  A    between atoms: C_6  and  C_12
    7  A    between atoms: N_11  and  C_14
    8  A    between atoms: C_14  and  C_22
    9  A    between atoms: C_19  and  C_37
                            x       y       z     vdW  Elec       q    Type
                         _______ _______ _______ _____ _____    ______ ____

>  <TORSDO>
F 9

$$$$
=
 OpenBabel11052416103D

 43 50  0  0  1  0  0  0  0  0999 V2000
  187.9320  177.5130  147.5510 C   0  0  0  0  0  0  0  0  0  0  0  0
  185.5390  178.5680  143.2100 C   0  0  0  0  0  0  0  0  0  0  0  0
  187.3930  178.1190  141.1320 C   0  0  0  0  0  0  0  0  0  0  0  0
  186.2850  178.1420  145.8900 C   0  0  0  0  0  0  0  0  0  0  0  0
  188.8760  177.3060  146.5440 C   0  0  0  0  0  3  0  0  0  0  0  0
  188.2690  177.3050  148.8470 F   0  0  0  0  0  0  0  0  0  0  0  0
  187.2320  177.9280  144.8600 C   0  0  0  0  0  0  0  0  0  0  0  0
  186.6390  177.9310  147.2250 C   0  0  0  0  0  3  0  0  0  0  0  0
  188.5300  177.5100  145.2050 C   0  0  0  0  0  3  0  0  0  0  0  0
  187.7650  177.9210  142.4680 C   0  0  0  0  0  3  0  0  0  0  0  0
  186.8570  178.1370  143.5150 C   0  0  0  0  0  0  0  0  0  0  0  0
  184.6230  178.7730  144.2520 C   0  0  0  0  0  3  0  0  0  0  0  0
  185.1630  178.7930  141.8700 C   0  0  0  0  0  0  0  0  0  0  0  0
  186.0920  178.5530  140.8480 C   0  0  0  0  0  3  0  0  0  0  0  0
  184.9920  178.5610  145.5800 C   0  0  0  0  0  3  0  0  0  0  0  0
  183.7570  179.2680  141.5270 C   0  0  2  0  0  3  0  0  0  0  0  0
  183.9890  177.8220  139.6090 C   0  0  2  0  0  3  0  0  0  0  0  0
  183.5350  177.7860  138.1640 C   0  0  2  0  0  3  0  0  0  0  0  0
  182.7980  177.0660  140.0300 C   0  0  1  0  0  3  0  0  0  0  0  0
  182.8320  178.3070  141.8670 O   0  0  0  0  0  0  0  0  0  0  0  0
  182.9170  178.5380  140.4650 C   0  0  2  0  0  0  0  0  0  0  0  0
  182.3180  176.9980  138.5940 C   0  0  0  0  0  2  0  0  0  0  0  0
  184.6000  177.1130  136.0550 C   0  0  0  0  0  2  0  0  0  0  0  0
  184.4630  176.9270  137.3650 C   0  0  0  0  0  3  0  0  0  0  0  0
  188.3360  177.8930  140.0660 N   0  0  0  0  0  0  0  0  0  0  0  0
  189.7180  177.5400  140.3580 C   0  0  0  0  0  1  0  0  0  0  0  0
  187.9240  177.9120  138.6670 C   0  0  0  0  0  2  0  0  0  0  0  0
  189.1050  178.2660  137.7740 C   0  0  2  0  0  3  0  0  0  0  0  0
  189.0610  179.6240  137.4680 O   0  0  0  0  0  1  0  0  0  0  0  0
  189.0870  177.4610  136.4830 C   0  0  0  0  0  2  0  0  0  0  0  0
  189.0560  176.0290  136.7490 N   0  0  0  0  0  0  0  0  0  0  0  0
  189.6730  173.9510  137.2800 N   0  0  0  0  0  0  0  0  0  0  0  0
  187.9770  175.2410  136.6150 C   0  0  0  0  0  3  0  0  0  0  0  0
  190.0630  175.2330  137.1480 C   0  0  0  0  0  0  0  0  0  0  0  0
  188.3620  173.9540  136.9490 C   0  0  0  0  0  3  0  0  0  0  0  0
  191.4820  175.6990  137.3850 C   0  0  1  0  0  3  0  0  0  0  0  0
  191.8300  175.5360  138.7250 O   0  0  0  0  0  1  0  0  0  0  0  0
  192.4900  175.0600  136.5210 N   0  0  0  0  0  0  0  0  0  0  0  0
  195.2890  174.3980  138.6120 C   0  0  0  0  0  1  0  0  0  0  0  0
  194.7310  175.8300  136.7350 N   0  0  0  0  0  2  0  0  0  0  0  0
  194.6830  174.4680  137.2280 C   0  0  2  0  0  3  0  0  0  0  0  0
  193.4750  176.0200  136.0210 C   0  0  0  0  0  2  0  0  0  0  0  0
  193.2290  174.0790  137.2950 C   0  0  0  0  0  2  0  0  0  0  0  0
  1  6  1  0  0  0  0
  2 11  1  0  0  0  0
  2 12  1  0  0  0  0
  3 10  1  0  0  0  0
  4  8  2  0  0  0  0
  5  1  2  0  0  0  0
  7  9  2  0  0  0  0
  7  4  1  0  0  0  0
  8  1  1  0  0  0  0
  9  5  1  0  0  0  0
 10 11  2  0  0  0  0
 11  7  1  0  0  0  0
 12 15  2  0  0  0  0
 13  2  2  0  0  0  0
 14  3  2  0  0  0  0
 14 13  1  0  0  0  0
 15  4  1  0  0  0  0
 16 20  1  0  0  0  0
 16 13  1  6  0  0  0
 17 19  1  0  0  0  0
 17 21  1  0  0  0  0
 18 22  1  0  0  0  0
 18 17  1  0  0  0  0
 19 21  1  0  0  0  0
 21 16  1  0  0  0  0
 21 20  1  0  0  0  0
 22 19  1  0  0  0  0
 23 24  2  0  0  0  0
 24 18  1  0  0  0  0
 25 26  1  0  0  0  0
 25  3  1  0  0  0  0
 27 25  1  0  0  0  0
 28 27  1  0  0  0  0
 29 28  1  0  0  0  0
 30 31  1  0  0  0  0
 30 28  1  0  0  0  0
 31 34  1  0  0  0  0
 33 31  1  0  0  0  0
 33 35  2  0  0  0  0
 34 32  2  0  0  0  0
 34 36  1  0  0  0  0
 35 32  1  0  0  0  0
 36 37  1  0  0  0  0
 38 43  1  0  0  0  0
 38 36  1  0  0  0  0
 40 41  1  0  0  0  0
 41 43  1  0  0  0  0
 41 39  1  0  0  0  0
 42 38  1  0  0  0  0
 42 40  1  0  0  0  0
M  END
>  <MODEL>
3

>  <REMARK>
 VINA RESULT:     -10.2      3.310      7.250
  Name = 
  9 active torsions:
  status: ('A' for Active; 'I' for Inactive)
    1  A    between atoms: C_1  and  C_34
    2  A    between atoms: N_2  and  C_6
    3  A    between atoms: N_2  and  C_13
    4  A    between atoms: C_3  and  N_4
    5  A    between atoms: C_3  and  C_12
    6  A    between atoms: C_6  and  C_12
    7  A    between atoms: N_11  and  C_14
    8  A    between atoms: C_14  and  C_22
    9  A    between atoms: C_19  and  C_37
                            x       y       z     vdW  Elec       q    Type
                         _______ _______ _______ _____ _____    ______ ____

>  <TORSDO>
F 9

$$$$
=
 OpenBabel11052416103D

 43 50  0  0  1  0  0  0  0  0999 V2000
  181.8630  179.2810  140.5260 C   0  0  0  0  0  0  0  0  0  0  0  0
  185.0240  178.1610  144.3260 C   0  0  0  0  0  0  0  0  0  0  0  0
  187.5160  177.5490  143.1550 C   0  0  0  0  0  0  0  0  0  0  0  0
  182.8350  178.8780  142.7080 C   0  0  0  0  0  0  0  0  0  0  0  0
  183.0780  178.9600  139.9190 C   0  0  0  0  0  3  0  0  0  0  0  0
  180.8000  179.6370  139.7650 F   0  0  0  0  0  0  0  0  0  0  0  0
  184.0750  178.5580  142.1030 C   0  0  0  0  0  0  0  0  0  0  0  0
  181.7410  179.2390  141.9180 C   0  0  0  0  0  3  0  0  0  0  0  0
  184.1800  178.6020  140.7010 C   0  0  0  0  0  3  0  0  0  0  0  0
  186.4210  177.8940  142.3510 C   0  0  0  0  0  3  0  0  0  0  0  0
  185.1740  178.2020  142.9150 C   0  0  0  0  0  0  0  0  0  0  0  0
  183.7830  178.4820  144.8960 C   0  0  0  0  0  3  0  0  0  0  0  0
  186.1130  177.7930  145.1410 C   0  0  0  0  0  0  0  0  0  0  0  0
  187.3490  177.5040  144.5440 C   0  0  0  0  0  3  0  0  0  0  0  0
  182.6990  178.8380  144.0950 C   0  0  0  0  0  3  0  0  0  0  0  0
  185.9650  177.7310  146.6560 C   0  0  2  0  0  3  0  0  0  0  0  0
  188.3740  177.5920  146.6530 C   0  0  2  0  0  3  0  0  0  0  0  0
  189.4650  176.9330  147.4700 C   0  0  2  0  0  3  0  0  0  0  0  0
  188.4480  178.8060  147.4830 C   0  0  1  0  0  3  0  0  0  0  0  0
  186.2530  178.9550  147.2140 O   0  0  0  0  0  0  0  0  0  0  0  0
  187.1800  177.9380  147.5750 C   0  0  2  0  0  0  0  0  0  0  0  0
  189.5520  178.1840  148.3150 C   0  0  0  0  0  2  0  0  0  0  0  0
  191.7420  176.0910  147.0900 C   0  0  0  0  0  2  0  0  0  0  0  0
  190.6960  176.7750  146.6340 C   0  0  0  0  0  3  0  0  0  0  0  0
  188.7910  177.2340  142.5620 N   0  0  0  0  0  0  0  0  0  0  0  0
  189.5340  176.0520  142.9790 C   0  0  0  0  0  1  0  0  0  0  0  0
  189.3360  178.0220  141.4630 C   0  0  0  0  0  2  0  0  0  0  0  0
  190.4060  177.2290  140.7260 C   0  0  2  0  0  3  0  0  0  0  0  0
  191.6370  177.4230  141.3490 O   0  0  0  0  0  1  0  0  0  0  0  0
  190.5100  177.6570  139.2690 C   0  0  0  0  0  2  0  0  0  0  0  0
  190.6930  176.5110  138.3880 N   0  0  0  0  0  0  0  0  0  0  0  0
  190.3950  175.0060  136.7680 N   0  0  0  0  0  0  0  0  0  0  0  0
  191.6810  175.6080  138.4890 C   0  0  0  0  0  3  0  0  0  0  0  0
  189.9320  176.1290  137.3480 C   0  0  0  0  0  0  0  0  0  0  0  0
  191.4960  174.6790  137.4820 C   0  0  0  0  0  3  0  0  0  0  0  0
  188.6780  176.8420  136.8960 C   0  0  1  0  0  3  0  0  0  0  0  0
  188.3480  176.4700  135.5930 O   0  0  0  0  0  1  0  0  0  0  0  0
  187.5150  176.6580  137.7820 N   0  0  0  0  0  0  0  0  0  0  0  0
  184.6470  176.9300  135.6960 C   0  0  0  0  0  1  0  0  0  0  0  0
  185.6980  178.1690  137.4980 N   0  0  0  0  0  2  0  0  0  0  0  0
  185.2500  176.8550  137.0820 C   0  0  2  0  0  3  0  0  0  0  0  0
  186.9450  177.9340  138.2150 C   0  0  0  0  0  2  0  0  0  0  0  0
  186.4650  175.9670  137.0550 C   0  0  0  0  0  2  0  0  0  0  0  0
  1  8  1  0  0  0  0
  2 12  1  0  0  0  0
  2 13  1  0  0  0  0
  3 14  1  0  0  0  0
  4 15  1  0  0  0  0
  5  1  2  0  0  0  0
  5  9  1  0  0  0  0
  6  1  1  0  0  0  0
  7  4  1  0  0  0  0
  7 11  1  0  0  0  0
  8  4  2  0  0  0  0
  9  7  2  0  0  0  0
 10 11  1  0  0  0  0
 10  3  2  0  0  0  0
 11  2  2  0  0  0  0
 14 13  2  0  0  0  0
 15 12  2  0  0  0  0
 16 13  1  6  0  0  0
 16 20  1  0  0  0  0
 16 21  1  0  0  0  0
 17 18  1  0  0  0  0
 17 19  1  0  0  0  0
 17 21  1  0  0  0  0
 18 22  1  0  0  0  0
 19 21  1  0  0  0  0
 19 22  1  0  0  0  0
 20 21  1  0  0  0  0
 24 23  2  0  0  0  0
 24 18  1  0  0  0  0
 25 26  1  0  0  0  0
 25  3  1  0  0  0  0
 27 25  1  0  0  0  0
 28 29  1  0  0  0  0
 28 27  1  0  0  0  0
 30 28  1  0  0  0  0
 31 33  1  0  0  0  0
 31 30  1  0  0  0  0
 32 34  2  0  0  0  0
 32 35  1  0  0  0  0
 34 31  1  0  0  0  0
 35 33  2  0  0  0  0
 36 34  1  0  0  0  0
 36 38  1  0  0  0  0
 37 36  1  0  0  0  0
 38 42  1  0  0  0  0
 39 41  1  0  0  0  0
 40 42  1  0  0  0  0
 41 40  1  0  0  0  0
 43 41  1  0  0  0  0
 43 38  1  0  0  0  0
M  END
>  <MODEL>
4

>  <REMARK>
 VINA RESULT:     -10.2      1.754      2.346
  Name = 
  9 active torsions:
  status: ('A' for Active; 'I' for Inactive)
    1  A    between atoms: C_1  and  C_34
    2  A    between atoms: N_2  and  C_6
    3  A    between atoms: N_2  and  C_13
    4  A    between atoms: C_3  and  N_4
    5  A    between atoms: C_3  and  C_12
    6  A    between atoms: C_6  and  C_12
    7  A    between atoms: N_11  and  C_14
    8  A    between atoms: C_14  and  C_22
    9  A    between atoms: C_19  and  C_37
                            x       y       z     vdW  Elec       q    Type
                         _______ _______ _______ _____ _____    ______ ____

>  <TORSDO>
F 9

$$$$
=
 OpenBabel11052416103D

 43 50  0  0  1  0  0  0  0  0999 V2000
  191.1750  176.3760  147.0830 C   0  0  0  0  0  0  0  0  0  0  0  0
  187.3890  178.1310  144.2070 C   0  0  0  0  0  0  0  0  0  0  0  0
  188.2970  178.0590  141.5380 C   0  0  0  0  0  0  0  0  0  0  0  0
  189.0630  177.2630  146.2970 C   0  0  0  0  0  0  0  0  0  0  0  0
  191.6580  176.3510  145.7730 C   0  0  0  0  0  3  0  0  0  0  0  0
  191.9620  175.9540  148.1020 F   0  0  0  0  0  0  0  0  0  0  0  0
  189.5390  177.2350  144.9640 C   0  0  0  0  0  0  0  0  0  0  0  0
  189.8810  176.8320  147.3440 C   0  0  0  0  0  3  0  0  0  0  0  0
  190.8460  176.7770  144.7180 C   0  0  0  0  0  3  0  0  0  0  0  0
  189.1320  177.6390  142.5820 C   0  0  0  0  0  3  0  0  0  0  0  0
  188.6980  177.6670  143.9150 C   0  0  0  0  0  0  0  0  0  0  0  0
  186.9460  178.1490  145.5370 C   0  0  0  0  0  3  0  0  0  0  0  0
  186.5500  178.5780  143.1660 C   0  0  0  0  0  0  0  0  0  0  0  0
  187.0120  178.5230  141.8430 C   0  0  0  0  0  3  0  0  0  0  0  0
  187.7740  177.7180  146.5730 C   0  0  0  0  0  3  0  0  0  0  0  0
  185.1470  179.0910  143.4640 C   0  0  2  0  0  3  0  0  0  0  0  0
  184.7240  178.5910  141.1410 C   0  0  2  0  0  3  0  0  0  0  0  0
  183.8890  179.1430  140.0050 C   0  0  2  0  0  3  0  0  0  0  0  0
  183.6370  177.6780  141.5330 C   0  0  1  0  0  3  0  0  0  0  0  0
  184.2770  178.0380  143.6250 O   0  0  0  0  0  0  0  0  0  0  0  0
  183.9910  178.8370  142.4820 C   0  0  2  0  0  0  0  0  0  0  0  0
  182.7770  178.1970  140.3970 C   0  0  0  0  0  2  0  0  0  0  0  0
  183.8390  177.9120  137.8800 C   0  0  0  0  0  2  0  0  0  0  0  0
  184.4870  178.7380  138.6960 C   0  0  0  0  0  3  0  0  0  0  0  0
  188.7560  178.0250  140.1720 N   0  0  0  0  0  0  0  0  0  0  0  0
  190.1600  177.7940  139.8640 C   0  0  0  0  0  1  0  0  0  0  0  0
  187.8260  178.1230  139.0530 C   0  0  0  0  0  2  0  0  0  0  0  0
  188.5840  178.0940  137.7330 C   0  0  2  0  0  3  0  0  0  0  0  0
  188.5740  179.3670  137.1680 O   0  0  0  0  0  1  0  0  0  0  0  0
  187.9610  177.1080  136.7560 C   0  0  0  0  0  2  0  0  0  0  0  0
  188.5950  175.7990  136.8430 N   0  0  0  0  0  0  0  0  0  0  0  0
  188.9280  173.5920  136.8220 N   0  0  0  0  0  0  0  0  0  0  0  0
  189.8790  175.5810  137.1700 C   0  0  0  0  0  3  0  0  0  0  0  0
  188.0420  174.5900  136.6400 C   0  0  0  0  0  0  0  0  0  0  0  0
  190.0830  174.2130  137.1520 C   0  0  0  0  0  3  0  0  0  0  0  0
  186.5910  174.3600  136.2870 C   0  0  1  0  0  3  0  0  0  0  0  0
  186.4840  173.7400  135.0420 O   0  0  0  0  0  1  0  0  0  0  0  0
  185.8280  173.6010  137.2940 N   0  0  0  0  0  0  0  0  0  0  0  0
  183.5700  171.5490  135.4660 C   0  0  0  0  0  1  0  0  0  0  0  0
  183.4750  173.4510  136.9710 N   0  0  0  0  0  2  0  0  0  0  0  0
  184.0320  172.1250  136.7870 C   0  0  2  0  0  3  0  0  0  0  0  0
  184.5400  174.2260  137.5950 C   0  0  0  0  0  2  0  0  0  0  0  0
  185.5300  172.2790  136.7720 C   0  0  0  0  0  2  0  0  0  0  0  0
  1  8  1  0  0  0  0
  1  6  1  0  0  0  0
  2 12  1  0  0  0  0
  3 14  2  0  0  0  0
  3 10  1  0  0  0  0
  4 15  1  0  0  0  0
  4  8  2  0  0  0  0
  5  1  2  0  0  0  0
  7  4  1  0  0  0  0
  9  7  2  0  0  0  0
  9  5  1  0  0  0  0
 10 11  2  0  0  0  0
 11  2  1  0  0  0  0
 11  7  1  0  0  0  0
 12 15  2  0  0  0  0
 13  2  2  0  0  0  0
 14 13  1  0  0  0  0
 16 13  1  6  0  0  0
 16 20  1  0  0  0  0
 17 19  1  0  0  0  0
 17 21  1  0  0  0  0
 18 22  1  0  0  0  0
 18 17  1  0  0  0  0
 19 21  1  0  0  0  0
 21 16  1  0  0  0  0
 21 20  1  0  0  0  0
 22 19  1  0  0  0  0
 23 24  2  0  0  0  0
 24 18  1  0  0  0  0
 25  3  1  0  0  0  0
 26 25  1  0  0  0  0
 27 25  1  0  0  0  0
 28 27  1  0  0  0  0
 29 28  1  0  0  0  0
 30 31  1  0  0  0  0
 30 28  1  0  0  0  0
 31 33  1  0  0  0  0
 32 35  1  0  0  0  0
 34 32  2  0  0  0  0
 34 31  1  0  0  0  0
 35 33  2  0  0  0  0
 36 34  1  0  0  0  0
 36 38  1  0  0  0  0
 37 36  1  0  0  0  0
 38 42  1  0  0  0  0
 39 41  1  0  0  0  0
 40 42  1  0  0  0  0
 41 40  1  0  0  0  0
 43 41  1  0  0  0  0
 43 38  1  0  0  0  0
M  END
>  <MODEL>
5

>  <REMARK>
 VINA RESULT:     -10.2      3.110      6.255
  Name = 
  9 active torsions:
  status: ('A' for Active; 'I' for Inactive)
    1  A    between atoms: C_1  and  C_34
    2  A    between atoms: N_2  and  C_6
    3  A    between atoms: N_2  and  C_13
    4  A    between atoms: C_3  and  N_4
    5  A    between atoms: C_3  and  C_12
    6  A    between atoms: C_6  and  C_12
    7  A    between atoms: N_11  and  C_14
    8  A    between atoms: C_14  and  C_22
    9  A    between atoms: C_19  and  C_37
                            x       y       z     vdW  Elec       q    Type
                         _______ _______ _______ _____ _____    ______ ____

>  <TORSDO>
F 9

$$$$
=
 OpenBabel11052416103D

 43 50  0  0  1  0  0  0  0  0999 V2000
  188.1620  177.3800  147.5650 C   0  0  0  0  0  0  0  0  0  0  0  0
  185.6170  178.5510  143.3420 C   0  0  0  0  0  0  0  0  0  0  0  0
  187.4030  178.1820  141.1900 C   0  0  0  0  0  0  0  0  0  0  0  0
  186.4560  178.0480  145.9810 C   0  0  0  0  0  0  0  0  0  0  0  0
  189.0740  177.2120  146.5210 C   0  0  0  0  0  3  0  0  0  0  0  0
  188.5440  177.1340  148.8420 F   0  0  0  0  0  0  0  0  0  0  0  0
  187.3690  177.8730  144.9130 C   0  0  0  0  0  0  0  0  0  0  0  0
  186.8570  177.7980  147.2960 C   0  0  0  0  0  3  0  0  0  0  0  0
  188.6810  177.4550  145.2010 C   0  0  0  0  0  3  0  0  0  0  0  0
  187.8210  177.9450  142.5060 C   0  0  0  0  0  3  0  0  0  0  0  0
  186.9470  178.1210  143.5890 C   0  0  0  0  0  0  0  0  0  0  0  0
  184.7360  178.7170  144.4200 C   0  0  0  0  0  3  0  0  0  0  0  0
  185.1950  178.8150  142.0230 C   0  0  0  0  0  0  0  0  0  0  0  0
  186.0900  178.6150  140.9630 C   0  0  0  0  0  3  0  0  0  0  0  0
  185.1510  178.4670  145.7270 C   0  0  0  0  0  3  0  0  0  0  0  0
  183.7740  179.2900  141.7420 C   0  0  2  0  0  3  0  0  0  0  0  0
  183.9190  177.8380  139.8200 C   0  0  2  0  0  3  0  0  0  0  0  0
  183.4010  177.7970  138.3980 C   0  0  2  0  0  3  0  0  0  0  0  0
  182.7480  177.0840  140.2970 C   0  0  1  0  0  3  0  0  0  0  0  0
  182.8660  178.3300  142.1270 O   0  0  0  0  0  0  0  0  0  0  0  0
  182.8870  178.5570  140.7220 C   0  0  2  0  0  0  0  0  0  0  0  0
  182.2050  177.0120  138.8840 C   0  0  0  0  0  2  0  0  0  0  0  0
  184.9510  177.4480  136.5240 C   0  0  0  0  0  2  0  0  0  0  0  0
  184.2920  176.9360  137.5600 C   0  0  0  0  0  3  0  0  0  0  0  0
  188.3110  177.9970  140.0860 N   0  0  0  0  0  0  0  0  0  0  0  0
  189.6630  177.5030  140.3100 C   0  0  0  0  0  1  0  0  0  0  0  0
  187.8850  178.2000  138.7060 C   0  0  0  0  0  2  0  0  0  0  0  0
  189.0930  178.4460  137.8130 C   0  0  2  0  0  3  0  0  0  0  0  0
  189.0610  179.7570  137.3430 O   0  0  0  0  0  1  0  0  0  0  0  0
  189.1110  177.4910  136.6290 C   0  0  0  0  0  2  0  0  0  0  0  0
  189.9170  176.3090  136.9080 N   0  0  0  0  0  0  0  0  0  0  0  0
  190.5880  174.1890  137.1000 N   0  0  0  0  0  0  0  0  0  0  0  0
  191.1470  176.3220  137.4470 C   0  0  0  0  0  3  0  0  0  0  0  0
  189.6010  175.0180  136.7090 C   0  0  0  0  0  0  0  0  0  0  0  0
  191.5620  175.0080  137.5610 C   0  0  0  0  0  3  0  0  0  0  0  0
  188.2820  174.5350  136.1510 C   0  0  1  0  0  3  0  0  0  0  0  0
  188.4410  174.0950  134.8370 O   0  0  0  0  0  1  0  0  0  0  0  0
  187.6210  173.4920  136.9550 N   0  0  0  0  0  0  0  0  0  0  0  0
  185.9250  171.3980  134.6340 C   0  0  0  0  0  1  0  0  0  0  0  0
  185.3680  172.9700  136.3960 N   0  0  0  0  0  2  0  0  0  0  0  0
  186.1840  171.8190  136.0640 C   0  0  2  0  0  3  0  0  0  0  0  0
  186.2190  173.8110  137.2270 C   0  0  0  0  0  2  0  0  0  0  0  0
  187.6210  172.2440  136.2120 C   0  0  0  0  0  2  0  0  0  0  0  0
  1  6  1  0  0  0  0
  2 11  1  0  0  0  0
  2 12  1  0  0  0  0
  3 10  1  0  0  0  0
  4  8  2  0  0  0  0
  5  1  2  0  0  0  0
  7  9  2  0  0  0  0
  7  4  1  0  0  0  0
  8  1  1  0  0  0  0
  9  5  1  0  0  0  0
 10 11  2  0  0  0  0
 11  7  1  0  0  0  0
 12 15  2  0  0  0  0
 13  2  2  0  0  0  0
 14  3  2  0  0  0  0
 14 13  1  0  0  0  0
 15  4  1  0  0  0  0
 16 13  1  6  0  0  0
 16 20  1  0  0  0  0
 17 19  1  0  0  0  0
 17 21  1  0  0  0  0
 18 22  1  0  0  0  0
 18 17  1  0  0  0  0
 19 21  1  0  0  0  0
 21 16  1  0  0  0  0
 21 20  1  0  0  0  0
 22 19  1  0  0  0  0
 23 24  2  0  0  0  0
 24 18  1  0  0  0  0
 25 26  1  0  0  0  0
 25  3  1  0  0  0  0
 27 25  1  0  0  0  0
 28 27  1  0  0  0  0
 29 28  1  0  0  0  0
 30 31  1  0  0  0  0
 30 28  1  0  0  0  0
 31 33  1  0  0  0  0
 32 35  1  0  0  0  0
 33 35  2  0  0  0  0
 34 31  1  0  0  0  0
 34 32  2  0  0  0  0
 36 34  1  0  0  0  0
 36 38  1  0  0  0  0
 37 36  1  0  0  0  0
 38 42  1  0  0  0  0
 39 41  1  0  0  0  0
 40 42  1  0  0  0  0
 41 43  1  0  0  0  0
 41 40  1  0  0  0  0
 43 38  1  0  0  0  0
M  END
>  <MODEL>
6

>  <REMARK>
 VINA RESULT:      -9.9      2.992      6.336
  Name = 
  9 active torsions:
  status: ('A' for Active; 'I' for Inactive)
    1  A    between atoms: C_1  and  C_34
    2  A    between atoms: N_2  and  C_6
    3  A    between atoms: N_2  and  C_13
    4  A    between atoms: C_3  and  N_4
    5  A    between atoms: C_3  and  C_12
    6  A    between atoms: C_6  and  C_12
    7  A    between atoms: N_11  and  C_14
    8  A    between atoms: C_14  and  C_22
    9  A    between atoms: C_19  and  C_37
                            x       y       z     vdW  Elec       q    Type
                         _______ _______ _______ _____ _____    ______ ____

>  <TORSDO>
F 9

$$$$
=
 OpenBabel11052416103D

 43 50  0  0  1  0  0  0  0  0999 V2000
  191.1070  176.4400  147.0250 C   0  0  0  0  0  0  0  0  0  0  0  0
  187.3170  178.1560  144.1300 C   0  0  0  0  0  0  0  0  0  0  0  0
  188.2070  178.0060  141.4570 C   0  0  0  0  0  0  0  0  0  0  0  0
  188.9970  177.3270  146.2310 C   0  0  0  0  0  0  0  0  0  0  0  0
  191.5810  176.3780  145.7130 C   0  0  0  0  0  3  0  0  0  0  0  0
  191.8970  176.0380  148.0490 F   0  0  0  0  0  0  0  0  0  0  0  0
  189.4640  177.2600  144.8950 C   0  0  0  0  0  0  0  0  0  0  0  0
  189.8180  176.9150  147.2830 C   0  0  0  0  0  3  0  0  0  0  0  0
  190.7650  176.7830  144.6530 C   0  0  0  0  0  3  0  0  0  0  0  0
  189.0450  177.6060  142.5060 C   0  0  0  0  0  3  0  0  0  0  0  0
  188.6200  177.6720  143.8410 C   0  0  0  0  0  0  0  0  0  0  0  0
  186.8840  178.2120  145.4620 C   0  0  0  0  0  3  0  0  0  0  0  0
  186.4760  178.5830  143.0830 C   0  0  0  0  0  0  0  0  0  0  0  0
  186.9280  178.4900  141.7590 C   0  0  0  0  0  3  0  0  0  0  0  0
  187.7150  177.8000  146.5030 C   0  0  0  0  0  3  0  0  0  0  0  0
  185.0800  179.1170  143.3770 C   0  0  2  0  0  3  0  0  0  0  0  0
  184.6200  178.5110  141.0860 C   0  0  2  0  0  3  0  0  0  0  0  0
  183.7700  179.0140  139.9380 C   0  0  2  0  0  3  0  0  0  0  0  0
  183.5350  177.6230  141.5360 C   0  0  1  0  0  3  0  0  0  0  0  0
  184.2070  178.0760  143.6000 O   0  0  0  0  0  0  0  0  0  0  0  0
  183.9080  178.8230  142.4250 C   0  0  2  0  0  0  0  0  0  0  0  0
  182.6600  178.0920  140.3900 C   0  0  0  0  0  2  0  0  0  0  0  0
  183.7290  177.6140  137.9190 C   0  0  0  0  0  2  0  0  0  0  0  0
  184.3480  178.5450  138.6410 C   0  0  0  0  0  3  0  0  0  0  0  0
  188.6560  177.9330  140.0900 N   0  0  0  0  0  0  0  0  0  0  0  0
  187.7020  177.9760  138.9900 C   0  0  0  0  0  1  0  0  0  0  0  0
  190.0740  177.9130  139.7530 C   0  0  0  0  0  2  0  0  0  0  0  0
  190.4150  176.6480  138.9780 C   0  0  2  0  0  3  0  0  0  0  0  0
  191.0520  175.7450  139.8250 O   0  0  0  0  0  1  0  0  0  0  0  0
  191.3210  176.9490  137.7940 C   0  0  0  0  0  2  0  0  0  0  0  0
  191.4640  175.7900  136.9230 N   0  0  0  0  0  0  0  0  0  0  0  0
  192.3470  174.1650  135.6730 N   0  0  0  0  0  0  0  0  0  0  0  0
  190.4480  175.0900  136.3940 C   0  0  0  0  0  3  0  0  0  0  0  0
  192.5960  175.2170  136.4760 C   0  0  0  0  0  0  0  0  0  0  0  0
  190.9980  174.0820  135.6230 C   0  0  0  0  0  3  0  0  0  0  0  0
  193.9890  175.7090  136.7950 C   0  0  1  0  0  3  0  0  0  0  0  0
  194.3590  175.3200  138.0830 O   0  0  0  0  0  1  0  0  0  0  0  0
  195.0210  175.2970  135.8280 N   0  0  0  0  0  0  0  0  0  0  0  0
  197.9630  174.6990  137.7360 C   0  0  0  0  0  1  0  0  0  0  0  0
  197.1750  176.2790  136.0710 N   0  0  0  0  0  2  0  0  0  0  0  0
  197.2930  174.8700  136.3900 C   0  0  2  0  0  3  0  0  0  0  0  0
  195.8760  176.4140  135.4250 C   0  0  0  0  0  2  0  0  0  0  0  0
  195.8940  174.3160  136.4500 C   0  0  0  0  0  2  0  0  0  0  0  0
  1  8  1  0  0  0  0
  1  6  1  0  0  0  0
  2 12  1  0  0  0  0
  3 14  2  0  0  0  0
  3 10  1  0  0  0  0
  4 15  1  0  0  0  0
  4  8  2  0  0  0  0
  5  1  2  0  0  0  0
  7  4  1  0  0  0  0
  9  7  2  0  0  0  0
  9  5  1  0  0  0  0
 10 11  2  0  0  0  0
 11  2  1  0  0  0  0
 11  7  1  0  0  0  0
 12 15  2  0  0  0  0
 13  2  2  0  0  0  0
 14 13  1  0  0  0  0
 16 13  1  6  0  0  0
 16 20  1  0  0  0  0
 17 19  1  0  0  0  0
 17 21  1  0  0  0  0
 18 22  1  0  0  0  0
 18 17  1  0  0  0  0
 19 21  1  0  0  0  0
 21 16  1  0  0  0  0
 21 20  1  0  0  0  0
 22 19  1  0  0  0  0
 23 24  2  0  0  0  0
 24 18  1  0  0  0  0
 25  3  1  0  0  0  0
 26 25  1  0  0  0  0
 27 25  1  0  0  0  0
 28 27  1  0  0  0  0
 28 29  1  0  0  0  0
 30 28  1  0  0  0  0
 31 30  1  0  0  0  0
 32 34  2  0  0  0  0
 33 31  1  0  0  0  0
 34 36  1  0  0  0  0
 34 31  1  0  0  0  0
 35 32  1  0  0  0  0
 35 33  2  0  0  0  0
 36 37  1  0  0  0  0
 38 43  1  0  0  0  0
 38 36  1  0  0  0  0
 40 41  1  0  0  0  0
 41 43  1  0  0  0  0
 41 39  1  0  0  0  0
 42 38  1  0  0  0  0
 42 40  1  0  0  0  0
M  END
>  <MODEL>
7

>  <REMARK>
 VINA RESULT:      -9.8      4.316      7.991
  Name = 
  9 active torsions:
  status: ('A' for Active; 'I' for Inactive)
    1  A    between atoms: C_1  and  C_34
    2  A    between atoms: N_2  and  C_6
    3  A    between atoms: N_2  and  C_13
    4  A    between atoms: C_3  and  N_4
    5  A    between atoms: C_3  and  C_12
    6  A    between atoms: C_6  and  C_12
    7  A    between atoms: N_11  and  C_14
    8  A    between atoms: C_14  and  C_22
    9  A    between atoms: C_19  and  C_37
                            x       y       z     vdW  Elec       q    Type
                         _______ _______ _______ _____ _____    ______ ____

>  <TORSDO>
F 9

$$$$
=
 OpenBabel11052416103D

 43 50  0  0  1  0  0  0  0  0999 V2000
  184.9330  178.8640  144.6840 C   0  0  0  0  0  0  0  0  0  0  0  0
  181.5450  178.6160  140.9240 C   0  0  0  0  0  0  0  0  0  0  0  0
  182.8590  177.4390  138.7240 C   0  0  0  0  0  0  0  0  0  0  0  0
  182.9210  179.0210  143.3460 C   0  0  0  0  0  0  0  0  0  0  0  0
  185.6150  178.3000  143.6040 C   0  0  0  0  0  3  0  0  0  0  0  0
  185.5760  179.0590  145.8620 F   0  0  0  0  0  0  0  0  0  0  0  0
  183.5990  178.4430  142.2450 C   0  0  0  0  0  0  0  0  0  0  0  0
  183.5900  179.2250  144.5550 C   0  0  0  0  0  3  0  0  0  0  0  0
  184.9530  178.0890  142.3910 C   0  0  0  0  0  3  0  0  0  0  0  0
  183.5450  177.6530  139.9270 C   0  0  0  0  0  3  0  0  0  0  0  0
  182.9080  178.2360  141.0320 C   0  0  0  0  0  0  0  0  0  0  0  0
  180.9000  179.1880  142.0300 C   0  0  0  0  0  3  0  0  0  0  0  0
  180.8540  178.4260  139.7100 C   0  0  0  0  0  0  0  0  0  0  0  0
  181.5170  177.8280  138.6300 C   0  0  0  0  0  3  0  0  0  0  0  0
  181.5810  179.3880  143.2300 C   0  0  0  0  0  3  0  0  0  0  0  0
  179.3940  178.8410  139.5740 C   0  0  2  0  0  3  0  0  0  0  0  0
  180.2930  180.7820  138.4570 C   0  0  2  0  0  3  0  0  0  0  0  0
  179.9590  182.2520  138.3110 C   0  0  2  0  0  3  0  0  0  0  0  0
  179.5100  180.4560  137.2540 C   0  0  1  0  0  3  0  0  0  0  0  0
  178.9420  178.5860  138.2990 O   0  0  0  0  0  0  0  0  0  0  0  0
  178.9830  179.9720  138.6170 C   0  0  2  0  0  0  0  0  0  0  0  0
  179.1660  181.9210  137.0670 C   0  0  0  0  0  2  0  0  0  0  0  0
  181.1260  184.1010  137.1920 C   0  0  0  0  0  2  0  0  0  0  0  0
  181.1950  183.0170  137.9600 C   0  0  0  0  0  3  0  0  0  0  0  0
  183.5260  176.8390  137.5950 N   0  0  0  0  0  0  0  0  0  0  0  0
  183.4350  177.4390  136.2720 C   0  0  0  0  0  1  0  0  0  0  0  0
  184.3900  175.6740  137.7520 C   0  0  0  0  0  2  0  0  0  0  0  0
  185.4460  175.6510  136.6560 C   0  0  2  0  0  3  0  0  0  0  0  0
  185.3240  174.4740  135.9210 O   0  0  0  0  0  1  0  0  0  0  0  0
  186.8500  175.7340  137.2360 C   0  0  0  0  0  2  0  0  0  0  0  0
  187.3880  177.0850  137.1400 N   0  0  0  0  0  0  0  0  0  0  0  0
  188.5740  178.9350  137.5320 N   0  0  0  0  0  0  0  0  0  0  0  0
  186.9940  178.0130  136.2530 C   0  0  0  0  0  3  0  0  0  0  0  0
  188.3370  177.6610  137.8980 C   0  0  0  0  0  0  0  0  0  0  0  0
  187.7330  179.1570  136.4960 C   0  0  0  0  0  3  0  0  0  0  0  0
  189.0360  176.9850  139.0560 C   0  0  1  0  0  3  0  0  0  0  0  0
  190.0810  176.1850  138.5940 O   0  0  0  0  0  1  0  0  0  0  0  0
  189.5280  177.9040  140.0970 N   0  0  0  0  0  0  0  0  0  0  0  0
  190.4760  175.8530  142.8430 C   0  0  0  0  0  1  0  0  0  0  0  0
  188.7810  177.5090  142.3210 N   0  0  0  0  0  2  0  0  0  0  0  0
  190.2020  177.2280  142.2760 C   0  0  2  0  0  3  0  0  0  0  0  0
  188.4960  178.2230  141.0840 C   0  0  0  0  0  2  0  0  0  0  0  0
  190.6090  177.2660  140.8260 C   0  0  0  0  0  2  0  0  0  0  0  0
  1  6  1  0  0  0  0
  2 11  1  0  0  0  0
  2 12  1  0  0  0  0
  3 10  1  0  0  0  0
  4  8  2  0  0  0  0
  5  1  2  0  0  0  0
  7  9  2  0  0  0  0
  7  4  1  0  0  0  0
  8  1  1  0  0  0  0
  9  5  1  0  0  0  0
 10 11  2  0  0  0  0
 11  7  1  0  0  0  0
 12 15  2  0  0  0  0
 13  2  2  0  0  0  0
 14  3  2  0  0  0  0
 14 13  1  0  0  0  0
 15  4  1  0  0  0  0
 16 13  1  6  0  0  0
 17 21  1  0  0  0  0
 18 17  1  0  0  0  0
 19 17  1  0  0  0  0
 19 21  1  0  0  0  0
 20 21  1  0  0  0  0
 20 16  1  0  0  0  0
 21 16  1  0  0  0  0
 22 19  1  0  0  0  0
 22 18  1  0  0  0  0
 23 24  2  0  0  0  0
 24 18  1  0  0  0  0
 25 27  1  0  0  0  0
 25  3  1  0  0  0  0
 26 25  1  0  0  0  0
 28 30  1  0  0  0  0
 28 27  1  0  0  0  0
 29 28  1  0  0  0  0
 31 30  1  0  0  0  0
 31 34  1  0  0  0  0
 32 34  2  0  0  0  0
 33 35  2  0  0  0  0
 33 31  1  0  0  0  0
 34 36  1  0  0  0  0
 35 32  1  0  0  0  0
 36 38  1  0  0  0  0
 37 36  1  0  0  0  0
 38 43  1  0  0  0  0
 38 42  1  0  0  0  0
 41 40  1  0  0  0  0
 41 39  1  0  0  0  0
 42 40  1  0  0  0  0
 43 41  1  0  0  0  0
M  END
>  <MODEL>
8

>  <REMARK>
 VINA RESULT:      -9.8      3.107      8.270
  Name = 
  9 active torsions:
  status: ('A' for Active; 'I' for Inactive)
    1  A    between atoms: C_1  and  C_34
    2  A    between atoms: N_2  and  C_6
    3  A    between atoms: N_2  and  C_13
    4  A    between atoms: C_3  and  N_4
    5  A    between atoms: C_3  and  C_12
    6  A    between atoms: C_6  and  C_12
    7  A    between atoms: N_11  and  C_14
    8  A    between atoms: C_14  and  C_22
    9  A    between atoms: C_19  and  C_37
                            x       y       z     vdW  Elec       q    Type
                         _______ _______ _______ _____ _____    ______ ____

>  <TORSDO>
F 9

$$$$
=
 OpenBabel11052416103D

 43 50  0  0  1  0  0  0  0  0999 V2000
  191.1470  176.3500  147.0820 C   0  0  0  0  0  0  0  0  0  0  0  0
  187.4600  178.1330  144.0970 C   0  0  0  0  0  0  0  0  0  0  0  0
  188.4450  178.0500  141.4540 C   0  0  0  0  0  0  0  0  0  0  0  0
  189.0660  177.2540  146.2350 C   0  0  0  0  0  0  0  0  0  0  0  0
  191.6680  176.3200  145.7870 C   0  0  0  0  0  3  0  0  0  0  0  0
  191.9010  175.9230  148.1240 F   0  0  0  0  0  0  0  0  0  0  0  0
  189.5810  177.2200  144.9160 C   0  0  0  0  0  0  0  0  0  0  0  0
  189.8500  176.8170  147.3060 C   0  0  0  0  0  3  0  0  0  0  0  0
  190.8900  176.7510  144.7080 C   0  0  0  0  0  3  0  0  0  0  0  0
  189.2460  177.6250  142.5230 C   0  0  0  0  0  3  0  0  0  0  0  0
  188.7740  177.6580  143.8430 C   0  0  0  0  0  0  0  0  0  0  0  0
  186.9790  178.1550  145.4130 C   0  0  0  0  0  3  0  0  0  0  0  0
  186.6560  178.5840  143.0310 C   0  0  0  0  0  0  0  0  0  0  0  0
  187.1550  178.5250  141.7220 C   0  0  0  0  0  3  0  0  0  0  0  0
  187.7730  177.7190  146.4720 C   0  0  0  0  0  3  0  0  0  0  0  0
  185.2490  179.1100  143.2870 C   0  0  2  0  0  3  0  0  0  0  0  0
  184.8750  178.5660  140.9660 C   0  0  2  0  0  3  0  0  0  0  0  0
  184.0670  179.0990  139.8010 C   0  0  2  0  0  3  0  0  0  0  0  0
  183.7760  177.6650  141.3510 C   0  0  1  0  0  3  0  0  0  0  0  0
  184.3710  178.0630  143.4490 O   0  0  0  0  0  0  0  0  0  0  0  0
  184.1140  178.8410  142.2860 C   0  0  2  0  0  0  0  0  0  0  0  0
  182.9430  178.1650  140.1870 C   0  0  0  0  0  2  0  0  0  0  0  0
  184.2230  177.6120  137.8520 C   0  0  0  0  0  2  0  0  0  0  0  0
  184.6930  178.6660  138.5130 C   0  0  0  0  0  3  0  0  0  0  0  0
  188.9430  178.0120  140.1020 N   0  0  0  0  0  0  0  0  0  0  0  0
  190.3030  177.5730  139.8230 C   0  0  0  0  0  1  0  0  0  0  0  0
  188.0820  178.3130  138.9640 C   0  0  0  0  0  2  0  0  0  0  0  0
  188.5060  177.4960  137.7520 C   0  0  2  0  0  3  0  0  0  0  0  0
  188.1030  178.1500  136.5900 O   0  0  0  0  0  1  0  0  0  0  0  0
  187.8950  176.1030  137.7800 C   0  0  0  0  0  2  0  0  0  0  0  0
  188.2680  175.3330  136.6000 N   0  0  0  0  0  0  0  0  0  0  0  0
  189.4530  174.1790  135.1010 N   0  0  0  0  0  0  0  0  0  0  0  0
  187.4410  175.0100  135.5930 C   0  0  0  0  0  3  0  0  0  0  0  0
  189.4720  174.8240  136.2830 C   0  0  0  0  0  0  0  0  0  0  0  0
  188.1770  174.2920  134.6680 C   0  0  0  0  0  3  0  0  0  0  0  0
  190.7180  174.9850  137.1230 C   0  0  1  0  0  3  0  0  0  0  0  0
  191.1420  173.7470  137.6070 O   0  0  0  0  0  1  0  0  0  0  0  0
  191.8330  175.6680  136.4440 N   0  0  0  0  0  0  0  0  0  0  0  0
  194.7760  173.9060  137.3820 C   0  0  0  0  0  1  0  0  0  0  0  0
  193.7840  176.0920  137.7390 N   0  0  0  0  0  2  0  0  0  0  0  0
  194.1270  175.1080  136.7310 C   0  0  2  0  0  3  0  0  0  0  0  0
  192.5000  176.6360  137.3160 C   0  0  0  0  0  2  0  0  0  0  0  0
  192.8390  174.6890  136.0730 C   0  0  0  0  0  2  0  0  0  0  0  0
  1  8  1  0  0  0  0
  1  6  1  0  0  0  0
  2 12  1  0  0  0  0
  3 14  2  0  0  0  0
  3 10  1  0  0  0  0
  4 15  1  0  0  0  0
  4  8  2  0  0  0  0
  5  1  2  0  0  0  0
  7  4  1  0  0  0  0
  9  7  2  0  0  0  0
  9  5  1  0  0  0  0
 10 11  2  0  0  0  0
 11  2  1  0  0  0  0
 11  7  1  0  0  0  0
 12 15  2  0  0  0  0
 13  2  2  0  0  0  0
 14 13  1  0  0  0  0
 16 13  1  6  0  0  0
 16 20  1  0  0  0  0
 17 19  1  0  0  0  0
 17 21  1  0  0  0  0
 18 22  1  0  0  0  0
 18 17  1  0  0  0  0
 19 21  1  0  0  0  0
 21 16  1  0  0  0  0
 21 20  1  0  0  0  0
 22 19  1  0  0  0  0
 23 24  2  0  0  0  0
 24 18  1  0  0  0  0
 25  3  1  0  0  0  0
 26 25  1  0  0  0  0
 27 25  1  0  0  0  0
 28 30  1  0  0  0  0
 28 27  1  0  0  0  0
 29 28  1  0  0  0  0
 31 30  1  0  0  0  0
 32 34  2  0  0  0  0
 33 31  1  0  0  0  0
 34 31  1  0  0  0  0
 34 36  1  0  0  0  0
 35 32  1  0  0  0  0
 35 33  2  0  0  0  0
 36 37  1  0  0  0  0
 38 36  1  0  0  0  0
 38 42  1  0  0  0  0
 41 39  1  0  0  0  0
 41 40  1  0  0  0  0
 42 40  1  0  0  0  0
 43 38  1  0  0  0  0
 43 41  1  0  0  0  0
M  END
>  <MODEL>
9

>  <REMARK>
 VINA RESULT:      -9.7      3.431      7.168
  Name = 
  9 active torsions:
  status: ('A' for Active; 'I' for Inactive)
    1  A    between atoms: C_1  and  C_34
    2  A    between atoms: N_2  and  C_6
    3  A    between atoms: N_2  and  C_13
    4  A    between atoms: C_3  and  N_4
    5  A    between atoms: C_3  and  C_12
    6  A    between atoms: C_6  and  C_12
    7  A    between atoms: N_11  and  C_14
    8  A    between atoms: C_14  and  C_22
    9  A    between atoms: C_19  and  C_37
                            x       y       z     vdW  Elec       q    Type
                         _______ _______ _______ _____ _____    ______ ____

>  <TORSDO>
F 9

$$$$
