=
 OpenBabel11052413413D

 27 31  0  0  1  0  0  0  0  0999 V2000
  188.4810  177.8720  137.1750 C   0  0  2  0  0  0  0  0  0  0  0  0
  186.7850  177.8620  139.0960 C   0  0  2  0  0  3  0  0  0  0  0  0
  189.2530  177.5740  139.5350 O   0  0  0  0  0  0  0  0  0  0  0  0
  185.9990  178.4130  143.0380 C   0  0  0  0  0  3  0  0  0  0  0  0
  186.4840  177.8180  145.4020 C   0  0  0  0  0  1  0  0  0  0  0  0
  185.6440  178.6850  139.5020 N   0  0  0  0  0  0  0  0  0  0  0  0
  188.3370  177.0810  142.1500 C   0  0  0  0  0  2  0  0  0  0  0  0
  190.6980  175.0180  137.9990 C   0  0  0  0  0  1  0  0  0  0  0  0
  188.2280  177.3580  143.6540 C   0  0  0  0  0  2  0  0  0  0  0  0
  190.9960  176.8930  136.3750 C   0  0  0  0  0  2  0  0  0  0  0  0
  188.0580  178.2710  139.8740 C   0  0  2  0  0  3  0  0  0  0  0  0
  186.9850  177.9550  137.5750 C   0  0  2  0  0  3  0  0  0  0  0  0
  186.8940  177.8540  144.0120 N   0  0  0  0  0  0  0  0  0  0  0  0
  186.3960  178.5880  141.7770 C   0  0  0  0  0  0  0  0  0  0  0  0
  189.0490  179.2880  137.1470 C   0  0  0  0  0  1  0  0  0  0  0  0
  187.8300  178.3080  141.3980 C   0  0  1  0  0  3  0  0  0  0  0  0
  190.6170  176.5200  137.8160 C   0  0  1  0  0  3  0  0  0  0  0  0
  185.4280  178.9870  140.7470 C   0  0  0  0  0  3  0  0  0  0  0  0
  189.8600  176.7970  135.4800 N   0  0  0  0  0  0  0  0  0  0  0  0
  188.7020  177.2590  135.8120 C   0  0  0  0  0  3  0  0  0  0  0  0
  189.2180  177.0110  138.2330 C   0  0  2  0  0  3  0  0  0  0  0  0
  184.4140  175.1820  135.5900 N   0  0  0  0  0  0  0  0  0  0  0  0
  186.0830  176.9660  136.8860 C   0  0  0  0  0  0  0  0  0  0  0  0
  186.1330  175.6000  137.1950 C   0  0  0  0  0  3  0  0  0  0  0  0
  185.2810  174.7170  136.5280 C   0  0  0  0  0  3  0  0  0  0  0  0
  184.3500  176.5050  135.2740 C   0  0  0  0  0  3  0  0  0  0  0  0
  185.1840  177.4200  135.9170 C   0  0  0  0  0  3  0  0  0  0  0  0
  1 15  1  1  0  0  0
  1 12  1  0  0  0  0
  1 21  1  0  0  0  0
  2  6  1  1  0  0  0
  2 11  1  0  0  0  0
  4 13  1  0  0  0  0
  6 18  2  0  0  0  0
  7  9  1  0  0  0  0
  9 13  1  0  0  0  0
 10 17  1  0  0  0  0
 11  3  1  1  0  0  0
 11 16  1  0  0  0  0
 12 23  1  6  0  0  0
 12  2  1  0  0  0  0
 13  5  1  0  0  0  0
 14  4  2  0  0  0  0
 16 14  1  0  0  0  0
 16  7  1  6  0  0  0
 17  8  1  6  0  0  0
 17 21  1  0  0  0  0
 18 14  1  0  0  0  0
 19 20  2  0  0  0  0
 19 10  1  0  0  0  0
 20  1  1  0  0  0  0
 21  3  1  1  0  0  0
 22 25  1  0  0  0  0
 23 24  1  0  0  0  0
 25 24  2  0  0  0  0
 26 22  2  0  0  0  0
 26 27  1  0  0  0  0
 27 23  2  0  0  0  0
M  END
>  <MODEL>
1

>  <REMARK>
 VINA RESULT:      -6.7      0.000      0.000
  Name = 
  1 active torsions:
  status: ('A' for Active; 'I' for Inactive)
    1  A    between atoms: C_9  and  C_15
                            x       y       z     vdW  Elec       q    Type
                         _______ _______ _______ _____ _____    ______ ____

>  <TORSDO>
F 1

$$$$
=
 OpenBabel11052413413D

 27 31  0  0  1  0  0  0  0  0999 V2000
  188.6460  177.8740  138.3730 C   0  0  2  0  0  0  0  0  0  0  0  0
  190.8680  176.8660  139.1560 C   0  0  2  0  0  3  0  0  0  0  0  0
  189.8310  176.1860  136.9580 O   0  0  0  0  0  0  0  0  0  0  0  0
  194.3760  175.0500  138.2290 C   0  0  0  0  0  3  0  0  0  0  0  0
  195.5620  173.1420  137.1640 C   0  0  0  0  0  1  0  0  0  0  0  0
  192.1210  177.3760  139.7140 N   0  0  0  0  0  0  0  0  0  0  0  0
  191.9380  174.3210  136.9820 C   0  0  0  0  0  2  0  0  0  0  0  0
  186.7730  174.9220  137.1420 C   0  0  0  0  0  1  0  0  0  0  0  0
  193.2140  173.6670  136.4400 C   0  0  0  0  0  2  0  0  0  0  0  0
  186.3550  177.3640  136.8190 C   0  0  0  0  0  2  0  0  0  0  0  0
  191.0010  176.6390  137.6310 C   0  0  2  0  0  3  0  0  0  0  0  0
  189.7120  177.8200  139.4970 C   0  0  2  0  0  3  0  0  0  0  0  0
  194.3700  173.9580  137.2960 N   0  0  0  0  0  0  0  0  0  0  0  0
  193.3520  175.9020  138.2780 C   0  0  0  0  0  0  0  0  0  0  0  0
  189.0290  178.9870  137.4020 C   0  0  0  0  0  1  0  0  0  0  0  0
  192.2350  175.7900  137.2680 C   0  0  1  0  0  3  0  0  0  0  0  0
  187.4050  176.2450  136.7590 C   0  0  1  0  0  3  0  0  0  0  0  0
  193.2750  176.9030  139.3490 C   0  0  0  0  0  3  0  0  0  0  0  0
  186.2200  177.9000  138.1590 N   0  0  0  0  0  0  0  0  0  0  0  0
  187.2540  178.1650  138.8840 C   0  0  0  0  0  3  0  0  0  0  0  0
  188.6330  176.5020  137.6520 C   0  0  2  0  0  3  0  0  0  0  0  0
  188.2420  176.8790  143.3950 N   0  0  0  0  0  0  0  0  0  0  0  0
  189.1810  177.4980  140.8690 C   0  0  0  0  0  0  0  0  0  0  0  0
  188.1580  178.2600  141.4480 C   0  0  0  0  0  3  0  0  0  0  0  0
  187.6990  177.9300  142.7250 C   0  0  0  0  0  3  0  0  0  0  0  0
  189.2370  176.1270  142.8510 C   0  0  0  0  0  3  0  0  0  0  0  0
  189.7250  176.4230  141.5770 C   0  0  0  0  0  3  0  0  0  0  0  0
  1 15  1  6  0  0  0
  1 20  1  0  0  0  0
  1 12  1  0  0  0  0
  2 12  1  0  0  0  0
  2  6  1  6  0  0  0
  4 14  2  0  0  0  0
  5 13  1  0  0  0  0
  9  7  1  0  0  0  0
  9 13  1  0  0  0  0
 10 19  1  0  0  0  0
 11  3  1  1  0  0  0
 11  2  1  0  0  0  0
 12 23  1  1  0  0  0
 13  4  1  0  0  0  0
 14 18  1  0  0  0  0
 16  7  1  1  0  0  0
 16 11  1  0  0  0  0
 16 14  1  0  0  0  0
 17 10  1  0  0  0  0
 17  8  1  1  0  0  0
 17 21  1  0  0  0  0
 18  6  2  0  0  0  0
 19 20  2  0  0  0  0
 21  3  1  6  0  0  0
 21  1  1  0  0  0  0
 23 24  2  0  0  0  0
 23 27  1  0  0  0  0
 24 25  1  0  0  0  0
 25 22  2  0  0  0  0
 26 22  1  0  0  0  0
 27 26  2  0  0  0  0
M  END
>  <MODEL>
2

>  <REMARK>
 VINA RESULT:      -6.2      2.475      6.712
  Name = 
  1 active torsions:
  status: ('A' for Active; 'I' for Inactive)
    1  A    between atoms: C_9  and  C_15
                            x       y       z     vdW  Elec       q    Type
                         _______ _______ _______ _____ _____    ______ ____

>  <TORSDO>
F 1

$$$$
=
 OpenBabel11052413413D

 27 31  0  0  1  0  0  0  0  0999 V2000
  188.2070  177.6110  136.7880 C   0  0  2  0  0  0  0  0  0  0  0  0
  186.6710  177.7490  138.8340 C   0  0  2  0  0  3  0  0  0  0  0  0
  189.1350  177.2640  139.0850 O   0  0  0  0  0  0  0  0  0  0  0  0
  186.2420  178.3850  142.8190 C   0  0  0  0  0  3  0  0  0  0  0  0
  186.8610  177.7660  145.1450 C   0  0  0  0  0  1  0  0  0  0  0  0
  185.6350  178.6640  139.3180 N   0  0  0  0  0  0  0  0  0  0  0  0
  188.3890  176.8630  141.7690 C   0  0  0  0  0  2  0  0  0  0  0  0
  190.2450  174.5910  137.4720 C   0  0  0  0  0  1  0  0  0  0  0  0
  188.4200  177.1560  143.2730 C   0  0  0  0  0  2  0  0  0  0  0  0
  190.5650  176.4270  135.8080 C   0  0  0  0  0  2  0  0  0  0  0  0
  188.0300  178.0580  139.5070 C   0  0  2  0  0  3  0  0  0  0  0  0
  186.7590  177.8170  137.3010 C   0  0  2  0  0  3  0  0  0  0  0  0
  187.1620  177.7600  143.7270 N   0  0  0  0  0  0  0  0  0  0  0  0
  186.5520  178.5200  141.5290 C   0  0  0  0  0  0  0  0  0  0  0  0
  188.8830  178.9760  136.6990 C   0  0  0  0  0  1  0  0  0  0  0  0
  187.9260  178.1220  141.0430 C   0  0  1  0  0  3  0  0  0  0  0  0
  190.2710  176.0940  137.2790 C   0  0  1  0  0  3  0  0  0  0  0  0
  185.5430  178.9900  140.5730 C   0  0  0  0  0  3  0  0  0  0  0  0
  189.3590  176.4180  135.0050 N   0  0  0  0  0  0  0  0  0  0  0  0
  188.2710  176.9740  135.4200 C   0  0  0  0  0  3  0  0  0  0  0  0
  188.9530  176.6990  137.7960 C   0  0  2  0  0  3  0  0  0  0  0  0
  183.8510  175.1830  135.6150 N   0  0  0  0  0  0  0  0  0  0  0  0
  185.7290  176.9000  136.6970 C   0  0  0  0  0  0  0  0  0  0  0  0
  184.7140  177.3960  135.8680 C   0  0  0  0  0  3  0  0  0  0  0  0
  183.7750  176.5110  135.3320 C   0  0  0  0  0  3  0  0  0  0  0  0
  184.8280  174.6810  136.4180 C   0  0  0  0  0  3  0  0  0  0  0  0
  185.7850  175.5320  136.9730 C   0  0  0  0  0  3  0  0  0  0  0  0
  1 15  1  6  0  0  0
  1 12  1  0  0  0  0
  1 21  1  0  0  0  0
  2  6  1  1  0  0  0
  2 11  1  0  0  0  0
  4 13  1  0  0  0  0
  6 18  2  0  0  0  0
  7  9  1  0  0  0  0
  9 13  1  0  0  0  0
 10 17  1  0  0  0  0
 11  3  1  1  0  0  0
 11 16  1  0  0  0  0
 12 23  1  6  0  0  0
 12  2  1  0  0  0  0
 13  5  1  0  0  0  0
 14  4  2  0  0  0  0
 16 14  1  0  0  0  0
 16  7  1  1  0  0  0
 17  8  1  6  0  0  0
 17 21  1  0  0  0  0
 18 14  1  0  0  0  0
 19 20  2  0  0  0  0
 19 10  1  0  0  0  0
 20  1  1  0  0  0  0
 21  3  1  1  0  0  0
 22 26  1  0  0  0  0
 23 27  1  0  0  0  0
 24 23  2  0  0  0  0
 25 22  2  0  0  0  0
 25 24  1  0  0  0  0
 26 27  2  0  0  0  0
M  END
>  <MODEL>
3

>  <REMARK>
 VINA RESULT:      -6.1      0.524      1.059
  Name = 
  1 active torsions:
  status: ('A' for Active; 'I' for Inactive)
    1  A    between atoms: C_9  and  C_15
                            x       y       z     vdW  Elec       q    Type
                         _______ _______ _______ _____ _____    ______ ____

>  <TORSDO>
F 1

$$$$
=
 OpenBabel11052413413D

 27 31  0  0  1  0  0  0  0  0999 V2000
  187.3700  177.7300  137.0260 C   0  0  2  0  0  0  0  0  0  0  0  0
  184.9320  177.0700  137.4580 C   0  0  2  0  0  3  0  0  0  0  0  0
  186.1960  178.5260  139.0860 O   0  0  0  0  0  0  0  0  0  0  0  0
  181.3920  177.8530  139.2810 C   0  0  0  0  0  3  0  0  0  0  0  0
  180.1310  178.2470  141.3860 C   0  0  0  0  0  1  0  0  0  0  0  0
  183.6910  177.0420  136.6810 N   0  0  0  0  0  0  0  0  0  0  0  0
  183.8680  178.1600  140.6250 C   0  0  0  0  0  2  0  0  0  0  0  0
  188.9760  177.2160  140.3270 C   0  0  0  0  0  1  0  0  0  0  0  0
  182.6140  178.6290  141.3700 C   0  0  0  0  0  2  0  0  0  0  0  0
  189.7810  178.4300  138.2980 C   0  0  0  0  0  2  0  0  0  0  0  0
  185.0100  178.3550  138.3160 C   0  0  2  0  0  3  0  0  0  0  0  0
  186.1430  176.9280  136.5220 C   0  0  2  0  0  3  0  0  0  0  0  0
  181.3900  178.2250  140.6680 N   0  0  0  0  0  0  0  0  0  0  0  0
  182.5070  177.9540  138.5550 C   0  0  0  0  0  0  0  0  0  0  0  0
  187.3070  179.1310  136.4240 C   0  0  0  0  0  1  0  0  0  0  0  0
  183.7420  178.5760  139.1630 C   0  0  1  0  0  3  0  0  0  0  0  0
  188.6060  178.2340  139.2670 C   0  0  1  0  0  3  0  0  0  0  0  0
  182.5550  177.4040  137.1950 C   0  0  0  0  0  3  0  0  0  0  0  0
  189.7780  177.4370  137.2420 N   0  0  0  0  0  0  0  0  0  0  0  0
  188.6910  177.1150  136.6270 C   0  0  0  0  0  3  0  0  0  0  0  0
  187.3010  177.7980  138.5730 C   0  0  2  0  0  3  0  0  0  0  0  0
  186.8530  172.7820  135.7850 N   0  0  0  0  0  0  0  0  0  0  0  0
  186.3990  175.4700  136.2470 C   0  0  0  0  0  0  0  0  0  0  0  0
  186.7170  175.0190  134.9590 C   0  0  0  0  0  3  0  0  0  0  0  0
  186.9430  173.6570  134.7480 C   0  0  0  0  0  3  0  0  0  0  0  0
  186.5450  173.1990  137.0430 C   0  0  0  0  0  3  0  0  0  0  0  0
  186.3120  174.5510  137.2970 C   0  0  0  0  0  3  0  0  0  0  0  0
  1 15  1  6  0  0  0
  1 21  1  0  0  0  0
  2  6  1  6  0  0  0
  2 11  1  0  0  0  0
  4 13  1  0  0  0  0
  6 18  2  0  0  0  0
  7  9  1  0  0  0  0
 10 17  1  0  0  0  0
 11  3  1  1  0  0  0
 11 16  1  0  0  0  0
 12 23  1  1  0  0  0
 12  1  1  0  0  0  0
 12  2  1  0  0  0  0
 13  9  1  0  0  0  0
 13  5  1  0  0  0  0
 14 16  1  0  0  0  0
 14  4  2  0  0  0  0
 16  7  1  1  0  0  0
 17  8  1  1  0  0  0
 18 14  1  0  0  0  0
 19 10  1  0  0  0  0
 20  1  1  0  0  0  0
 20 19  2  0  0  0  0
 21  3  1  6  0  0  0
 21 17  1  0  0  0  0
 22 26  1  0  0  0  0
 23 27  1  0  0  0  0
 24 23  2  0  0  0  0
 25 24  1  0  0  0  0
 25 22  2  0  0  0  0
 26 27  2  0  0  0  0
M  END
>  <MODEL>
4

>  <REMARK>
 VINA RESULT:      -5.6      2.606      3.915
  Name = 
  1 active torsions:
  status: ('A' for Active; 'I' for Inactive)
    1  A    between atoms: C_9  and  C_15
                            x       y       z     vdW  Elec       q    Type
                         _______ _______ _______ _____ _____    ______ ____

>  <TORSDO>
F 1

$$$$
=
 OpenBabel11052413413D

 27 31  0  0  1  0  0  0  0  0999 V2000
  187.1480  177.8240  136.9510 C   0  0  2  0  0  0  0  0  0  0  0  0
  184.8200  177.4900  137.9670 C   0  0  2  0  0  3  0  0  0  0  0  0
  186.6760  178.5720  139.2900 O   0  0  0  0  0  0  0  0  0  0  0  0
  182.0310  178.5990  140.6990 C   0  0  0  0  0  3  0  0  0  0  0  0
  181.4190  178.9610  143.0800 C   0  0  0  0  0  1  0  0  0  0  0  0
  183.4380  177.7230  137.5430 N   0  0  0  0  0  0  0  0  0  0  0  0
  184.7790  178.4010  141.3610 C   0  0  0  0  0  2  0  0  0  0  0  0
  189.4160  176.7490  139.6790 C   0  0  0  0  0  1  0  0  0  0  0  0
  183.8480  178.9720  142.4360 C   0  0  0  0  0  2  0  0  0  0  0  0
  189.8830  178.0300  137.5850 C   0  0  0  0  0  2  0  0  0  0  0  0
  185.3250  178.6570  138.8490 C   0  0  2  0  0  3  0  0  0  0  0  0
  185.7170  177.2660  136.7400 C   0  0  2  0  0  3  0  0  0  0  0  0
  182.4380  178.8260  142.0570 N   0  0  0  0  0  0  0  0  0  0  0  0
  182.9300  178.6080  139.7130 C   0  0  0  0  0  0  0  0  0  0  0  0
  187.1740  179.2720  136.4710 C   0  0  0  0  0  1  0  0  0  0  0  0
  184.3630  178.9760  140.0110 C   0  0  1  0  0  3  0  0  0  0  0  0
  188.9700  177.9120  138.8150 C   0  0  1  0  0  3  0  0  0  0  0  0
  182.5430  178.1960  138.3580 C   0  0  0  0  0  3  0  0  0  0  0  0
  189.4490  177.1590  136.5100 N   0  0  0  0  0  0  0  0  0  0  0  0
  188.2050  177.0640  136.1840 C   0  0  0  0  0  3  0  0  0  0  0  0
  187.4800  177.7450  138.4630 C   0  0  2  0  0  3  0  0  0  0  0  0
  185.5230  173.1820  135.5090 N   0  0  0  0  0  0  0  0  0  0  0  0
  185.6480  175.8220  136.3220 C   0  0  0  0  0  0  0  0  0  0  0  0
  185.8500  174.7880  137.2460 C   0  0  0  0  0  3  0  0  0  0  0  0
  185.7820  173.4620  136.8140 C   0  0  0  0  0  3  0  0  0  0  0  0
  185.3250  174.1700  134.5950 C   0  0  0  0  0  3  0  0  0  0  0  0
  185.3840  175.5090  134.9860 C   0  0  0  0  0  3  0  0  0  0  0  0
  1 15  1  6  0  0  0
  1 21  1  0  0  0  0
  2  6  1  6  0  0  0
  2 11  1  0  0  0  0
  4 13  1  0  0  0  0
  6 18  2  0  0  0  0
  7  9  1  0  0  0  0
 10 17  1  0  0  0  0
 11  3  1  1  0  0  0
 11 16  1  0  0  0  0
 12 23  1  1  0  0  0
 12  1  1  0  0  0  0
 12  2  1  0  0  0  0
 13  9  1  0  0  0  0
 13  5  1  0  0  0  0
 14 16  1  0  0  0  0
 14  4  2  0  0  0  0
 16  7  1  1  0  0  0
 17  8  1  6  0  0  0
 18 14  1  0  0  0  0
 19 10  1  0  0  0  0
 20 19  2  0  0  0  0
 20  1  1  0  0  0  0
 21 17  1  0  0  0  0
 21  3  1  1  0  0  0
 22 25  1  0  0  0  0
 23 24  1  0  0  0  0
 25 24  2  0  0  0  0
 26 27  1  0  0  0  0
 26 22  2  0  0  0  0
 27 23  2  0  0  0  0
M  END
>  <MODEL>
5

>  <REMARK>
 VINA RESULT:      -5.6      2.238      3.014
  Name = 
  1 active torsions:
  status: ('A' for Active; 'I' for Inactive)
    1  A    between atoms: C_9  and  C_15
                            x       y       z     vdW  Elec       q    Type
                         _______ _______ _______ _____ _____    ______ ____

>  <TORSDO>
F 1

$$$$
=
 OpenBabel11052413413D

 27 31  0  0  1  0  0  0  0  0999 V2000
  181.6440  177.2300  139.0690 C   0  0  2  0  0  0  0  0  0  0  0  0
  181.2140  179.7390  139.3640 C   0  0  2  0  0  3  0  0  0  0  0  0
  181.0860  178.6530  137.0900 O   0  0  0  0  0  0  0  0  0  0  0  0
  179.5120  183.1560  137.9880 C   0  0  0  0  0  3  0  0  0  0  0  0
  179.2620  184.8130  136.1530 C   0  0  0  0  0  1  0  0  0  0  0  0
  180.4290  180.5770  140.2710 N   0  0  0  0  0  0  0  0  0  0  0  0
  180.8060  181.3260  136.2550 C   0  0  0  0  0  2  0  0  0  0  0  0
  183.8340  177.0990  136.0810 C   0  0  0  0  0  1  0  0  0  0  0  0
  180.0740  182.5010  135.5980 C   0  0  0  0  0  2  0  0  0  0  0  0
  182.5580  175.2920  137.2440 C   0  0  0  0  0  2  0  0  0  0  0  0
  180.4460  179.4960  138.0430 C   0  0  2  0  0  3  0  0  0  0  0  0
  181.5940  178.4220  140.0590 C   0  0  2  0  0  3  0  0  0  0  0  0
  179.6320  183.4830  136.5960 N   0  0  0  0  0  0  0  0  0  0  0  0
  179.7100  181.9060  138.4090 C   0  0  0  0  0  0  0  0  0  0  0  0
  180.2610  176.5870  139.0230 C   0  0  0  0  0  1  0  0  0  0  0  0
  179.9460  180.8060  137.4030 C   0  0  1  0  0  3  0  0  0  0  0  0
  182.4870  176.7100  136.6570 C   0  0  1  0  0  3  0  0  0  0  0  0
  179.7670  181.6110  139.8460 C   0  0  0  0  0  3  0  0  0  0  0  0
  183.0550  175.3000  138.6060 N   0  0  0  0  0  0  0  0  0  0  0  0
  182.6360  176.1620  139.4680 C   0  0  0  0  0  3  0  0  0  0  0  0
  182.0370  177.7760  137.6730 C   0  0  2  0  0  3  0  0  0  0  0  0
  185.1070  178.9870  142.4210 N   0  0  0  0  0  0  0  0  0  0  0  0
  182.8410  178.6260  140.8790 C   0  0  0  0  0  0  0  0  0  0  0  0
  184.0860  178.8230  140.2680 C   0  0  0  0  0  3  0  0  0  0  0  0
  185.2180  179.0030  141.0660 C   0  0  0  0  0  3  0  0  0  0  0  0
  183.9070  178.7970  143.0340 C   0  0  0  0  0  3  0  0  0  0  0  0
  182.7520  178.6120  142.2730 C   0  0  0  0  0  3  0  0  0  0  0  0
  1 15  1  6  0  0  0
  1 20  1  0  0  0  0
  1 12  1  0  0  0  0
  2 12  1  0  0  0  0
  2  6  1  1  0  0  0
  4 14  2  0  0  0  0
  5 13  1  0  0  0  0
  9  7  1  0  0  0  0
  9 13  1  0  0  0  0
 10 19  1  0  0  0  0
 11  3  1  6  0  0  0
 11  2  1  0  0  0  0
 12 23  1  6  0  0  0
 13  4  1  0  0  0  0
 14 18  1  0  0  0  0
 16  7  1  6  0  0  0
 16 11  1  0  0  0  0
 16 14  1  0  0  0  0
 17  8  1  1  0  0  0
 17 10  1  0  0  0  0
 17 21  1  0  0  0  0
 18  6  2  0  0  0  0
 19 20  2  0  0  0  0
 21  3  1  6  0  0  0
 21  1  1  0  0  0  0
 22 26  1  0  0  0  0
 23 27  1  0  0  0  0
 24 23  2  0  0  0  0
 24 25  1  0  0  0  0
 25 22  2  0  0  0  0
 27 26  2  0  0  0  0
M  END
>  <MODEL>
6

>  <REMARK>
 VINA RESULT:      -5.5      5.239      8.340
  Name = 
  1 active torsions:
  status: ('A' for Active; 'I' for Inactive)
    1  A    between atoms: C_9  and  C_15
                            x       y       z     vdW  Elec       q    Type
                         _______ _______ _______ _____ _____    ______ ____

>  <TORSDO>
F 1

$$$$
=
 OpenBabel11052413413D

 27 31  0  0  1  0  0  0  0  0999 V2000
  182.9970  178.6310  138.9370 C   0  0  2  0  0  0  0  0  0  0  0  0
  183.1400  178.2580  141.4680 C   0  0  2  0  0  3  0  0  0  0  0  0
  185.2240  178.4010  140.0520 O   0  0  0  0  0  0  0  0  0  0  0  0
  185.2810  178.5360  144.9040 C   0  0  0  0  0  3  0  0  0  0  0  0
  187.3390  177.9630  146.1740 C   0  0  0  0  0  1  0  0  0  0  0  0
  182.5310  178.8510  142.6600 N   0  0  0  0  0  0  0  0  0  0  0  0
  186.4560  177.6720  142.4750 C   0  0  0  0  0  2  0  0  0  0  0  0
  185.4440  176.1940  137.5900 C   0  0  0  0  0  1  0  0  0  0  0  0
  187.4000  177.8770  143.6640 C   0  0  0  0  0  2  0  0  0  0  0  0
  184.3210  178.1430  136.5020 C   0  0  0  0  0  2  0  0  0  0  0  0
  184.5420  178.8630  141.2140 C   0  0  2  0  0  3  0  0  0  0  0  0
  182.2100  178.4330  140.2580 C   0  0  2  0  0  3  0  0  0  0  0  0
  186.6540  178.1150  144.9050 N   0  0  0  0  0  0  0  0  0  0  0  0
  184.6620  178.8190  143.7570 C   0  0  0  0  0  0  0  0  0  0  0  0
  183.2290  180.1260  138.7360 C   0  0  0  0  0  1  0  0  0  0  0  0
  185.4420  178.8110  142.4640 C   0  0  1  0  0  3  0  0  0  0  0  0
  185.0990  177.6630  137.7360 C   0  0  1  0  0  3  0  0  0  0  0  0
  183.2160  179.0710  143.7410 C   0  0  0  0  0  3  0  0  0  0  0  0
  182.9020  177.8740  136.6250 N   0  0  0  0  0  0  0  0  0  0  0  0
  182.2660  178.1100  137.7210 C   0  0  0  0  0  3  0  0  0  0  0  0
  184.3490  177.8830  139.0620 C   0  0  2  0  0  3  0  0  0  0  0  0
  179.2970  175.3110  140.2050 N   0  0  0  0  0  0  0  0  0  0  0  0
  181.1950  177.3210  140.2370 C   0  0  0  0  0  0  0  0  0  0  0  0
  181.5500  176.0220  139.8530 C   0  0  0  0  0  3  0  0  0  0  0  0
  180.5760  175.0210  139.8440 C   0  0  0  0  0  3  0  0  0  0  0  0
  178.9310  176.5670  140.5800 C   0  0  0  0  0  3  0  0  0  0  0  0
  179.8740  177.5950  140.6030 C   0  0  0  0  0  3  0  0  0  0  0  0
  1 15  1  6  0  0  0
  1 21  1  0  0  0  0
  1 12  1  0  0  0  0
  2  6  1  1  0  0  0
  4 13  1  0  0  0  0
  6 18  2  0  0  0  0
  7  9  1  0  0  0  0
  9 13  1  0  0  0  0
 10 19  1  0  0  0  0
 10 17  1  0  0  0  0
 11  3  1  6  0  0  0
 11  2  1  0  0  0  0
 11 16  1  0  0  0  0
 12 23  1  6  0  0  0
 12  2  1  0  0  0  0
 13  5  1  0  0  0  0
 14  4  2  0  0  0  0
 16  7  1  6  0  0  0
 16 14  1  0  0  0  0
 17  8  1  6  0  0  0
 17 21  1  0  0  0  0
 18 14  1  0  0  0  0
 19 20  2  0  0  0  0
 20  1  1  0  0  0  0
 21  3  1  1  0  0  0
 22 26  1  0  0  0  0
 23 27  1  0  0  0  0
 24 23  2  0  0  0  0
 25 24  1  0  0  0  0
 25 22  2  0  0  0  0
 26 27  2  0  0  0  0
M  END
>  <MODEL>
7

>  <REMARK>
 VINA RESULT:      -5.5      3.513      5.061
  Name = 
  1 active torsions:
  status: ('A' for Active; 'I' for Inactive)
    1  A    between atoms: C_9  and  C_15
                            x       y       z     vdW  Elec       q    Type
                         _______ _______ _______ _____ _____    ______ ____

>  <TORSDO>
F 1

$$$$
=
 OpenBabel11052413413D

 27 31  0  0  1  0  0  0  0  0999 V2000
  184.2520  178.9100  140.0560 C   0  0  2  0  0  0  0  0  0  0  0  0
  186.7120  178.2350  139.8130 C   0  0  2  0  0  3  0  0  0  0  0  0
  184.9730  177.4330  138.1700 O   0  0  0  0  0  0  0  0  0  0  0  0
  189.7500  176.9730  137.4370 C   0  0  0  0  0  3  0  0  0  0  0  0
  190.6420  175.2750  135.8560 C   0  0  0  0  0  1  0  0  0  0  0  0
  188.0050  178.9200  139.8590 N   0  0  0  0  0  0  0  0  0  0  0  0
  187.1350  175.9030  137.2180 C   0  0  0  0  0  2  0  0  0  0  0  0
  182.4480  175.7250  139.4690 C   0  0  0  0  0  1  0  0  0  0  0  0
  188.1560  175.4530  136.1680 C   0  0  0  0  0  2  0  0  0  0  0  0
  181.6180  178.0820  139.5130 C   0  0  0  0  0  2  0  0  0  0  0  0
  186.2450  178.0480  138.3500 C   0  0  2  0  0  3  0  0  0  0  0  0
  185.6800  179.0030  140.6530 C   0  0  2  0  0  3  0  0  0  0  0  0
  189.5100  175.9030  136.5100 N   0  0  0  0  0  0  0  0  0  0  0  0
  188.7300  177.6620  137.9500 C   0  0  0  0  0  0  0  0  0  0  0  0
  184.0590  180.0780  139.0930 C   0  0  0  0  0  1  0  0  0  0  0  0
  187.3260  177.3960  137.4650 C   0  0  1  0  0  3  0  0  0  0  0  0
  182.6900  177.1320  138.9600 C   0  0  1  0  0  3  0  0  0  0  0  0
  188.9630  178.6290  139.0310 C   0  0  0  0  0  3  0  0  0  0  0  0
  181.9680  178.5770  140.8300 N   0  0  0  0  0  0  0  0  0  0  0  0
  183.1610  178.9840  141.0980 C   0  0  0  0  0  3  0  0  0  0  0  0
  184.1290  177.5590  139.3040 C   0  0  2  0  0  3  0  0  0  0  0  0
  186.0550  177.8140  144.7380 N   0  0  0  0  0  0  0  0  0  0  0  0
  185.7970  178.5900  142.0970 C   0  0  0  0  0  0  0  0  0  0  0  0
  184.9290  179.1000  143.0710 C   0  0  0  0  0  3  0  0  0  0  0  0
  185.0760  178.6950  144.3990 C   0  0  0  0  0  3  0  0  0  0  0  0
  186.9100  177.3070  143.8080 C   0  0  0  0  0  3  0  0  0  0  0  0
  186.7960  177.6870  142.4700 C   0  0  0  0  0  3  0  0  0  0  0  0
  1 15  1  6  0  0  0
  1 12  1  0  0  0  0
  1 20  1  0  0  0  0
  2  6  1  6  0  0  0
  2 12  1  0  0  0  0
  4 14  2  0  0  0  0
  5 13  1  0  0  0  0
  9 13  1  0  0  0  0
  9  7  1  0  0  0  0
 10 19  1  0  0  0  0
 11  3  1  1  0  0  0
 11  2  1  0  0  0  0
 12 23  1  1  0  0  0
 13  4  1  0  0  0  0
 14 18  1  0  0  0  0
 16  7  1  1  0  0  0
 16 14  1  0  0  0  0
 16 11  1  0  0  0  0
 17 21  1  0  0  0  0
 17  8  1  1  0  0  0
 17 10  1  0  0  0  0
 18  6  2  0  0  0  0
 19 20  2  0  0  0  0
 21  3  1  6  0  0  0
 21  1  1  0  0  0  0
 23 27  2  0  0  0  0
 23 24  1  0  0  0  0
 24 25  2  0  0  0  0
 25 22  1  0  0  0  0
 26 22  2  0  0  0  0
 27 26  1  0  0  0  0
M  END
>  <MODEL>
8

>  <REMARK>
 VINA RESULT:      -5.4      2.220      6.839
  Name = 
  1 active torsions:
  status: ('A' for Active; 'I' for Inactive)
    1  A    between atoms: C_9  and  C_15
                            x       y       z     vdW  Elec       q    Type
                         _______ _______ _______ _____ _____    ______ ____

>  <TORSDO>
F 1

$$$$
=
 OpenBabel11052413413D

 27 31  0  0  1  0  0  0  0  0999 V2000
  181.5220  178.7190  140.6600 C   0  0  2  0  0  0  0  0  0  0  0  0
  183.8870  178.1730  139.8380 C   0  0  2  0  0  3  0  0  0  0  0  0
  181.8660  177.0460  138.8330 O   0  0  0  0  0  0  0  0  0  0  0  0
  186.3070  176.7900  136.8890 C   0  0  0  0  0  3  0  0  0  0  0  0
  186.9160  174.9510  135.3320 C   0  0  0  0  0  1  0  0  0  0  0  0
  185.0750  178.9380  139.4520 N   0  0  0  0  0  0  0  0  0  0  0  0
  183.8420  175.5390  137.5130 C   0  0  0  0  0  2  0  0  0  0  0  0
  179.9450  175.3780  140.9560 C   0  0  0  0  0  1  0  0  0  0  0  0
  184.5920  175.0140  136.2840 C   0  0  0  0  0  2  0  0  0  0  0  0
  178.9310  177.6610  140.9520 C   0  0  0  0  0  2  0  0  0  0  0  0
  183.0750  177.7590  138.5890 C   0  0  2  0  0  3  0  0  0  0  0  0
  183.0400  178.9830  140.8330 C   0  0  2  0  0  3  0  0  0  0  0  0
  185.9390  175.5900  136.1920 N   0  0  0  0  0  0  0  0  0  0  0  0
  185.3950  177.4780  137.5770 C   0  0  0  0  0  0  0  0  0  0  0  0
  180.9720  179.7310  139.6580 C   0  0  0  0  0  1  0  0  0  0  0  0
  183.9450  177.0600  137.5250 C   0  0  1  0  0  3  0  0  0  0  0  0
  179.9090  176.7140  140.2410 C   0  0  1  0  0  3  0  0  0  0  0  0
  185.8070  178.5960  138.4350 C   0  0  0  0  0  3  0  0  0  0  0  0
  179.5620  178.3530  142.0580 N   0  0  0  0  0  0  0  0  0  0  0  0
  180.7390  178.8680  141.9430 C   0  0  0  0  0  3  0  0  0  0  0  0
  181.3390  177.2740  140.1310 C   0  0  2  0  0  3  0  0  0  0  0  0
  184.5850  178.3990  144.7710 N   0  0  0  0  0  0  0  0  0  0  0  0
  183.5700  178.7800  142.2280 C   0  0  0  0  0  0  0  0  0  0  0  0
  182.8230  179.1610  143.3500 C   0  0  0  0  0  3  0  0  0  0  0  0
  183.3550  178.9600  144.6260 C   0  0  0  0  0  3  0  0  0  0  0  0
  185.3270  178.0230  143.6950 C   0  0  0  0  0  3  0  0  0  0  0  0
  184.8320  178.2070  142.4030 C   0  0  0  0  0  3  0  0  0  0  0  0
  1 15  1  6  0  0  0
  1 12  1  0  0  0  0
  1 20  1  0  0  0  0
  2  6  1  6  0  0  0
  2 12  1  0  0  0  0
  4 14  2  0  0  0  0
  5 13  1  0  0  0  0
  9  7  1  0  0  0  0
 10 19  1  0  0  0  0
 11  3  1  1  0  0  0
 11  2  1  0  0  0  0
 12 23  1  1  0  0  0
 13  9  1  0  0  0  0
 13  4  1  0  0  0  0
 14 18  1  0  0  0  0
 16  7  1  1  0  0  0
 16 14  1  0  0  0  0
 16 11  1  0  0  0  0
 17 10  1  0  0  0  0
 17  8  1  1  0  0  0
 18  6  2  0  0  0  0
 20 19  2  0  0  0  0
 21  3  1  6  0  0  0
 21 17  1  0  0  0  0
 21  1  1  0  0  0  0
 23 27  2  0  0  0  0
 23 24  1  0  0  0  0
 24 25  2  0  0  0  0
 25 22  1  0  0  0  0
 26 22  2  0  0  0  0
 27 26  1  0  0  0  0
M  END
>  <MODEL>
9

>  <REMARK>
 VINA RESULT:      -5.0      3.743      8.109
  Name = 
  1 active torsions:
  status: ('A' for Active; 'I' for Inactive)
    1  A    between atoms: C_9  and  C_15
                            x       y       z     vdW  Elec       q    Type
                         _______ _______ _______ _____ _____    ______ ____

>  <TORSDO>
F 1

$$$$
