=
 OpenBabel11052413493D

 27 31  0  0  1  0  0  0  0  0999 V2000
  186.4100  178.6470  141.7020 N   0  0  0  0  0  0  0  0  0  0  0  0
  185.9410  178.1350  144.0450 C   0  0  0  0  0  0  0  0  0  0  0  0
  188.0770  177.0100  143.5830 N   0  0  0  0  0  0  0  0  0  0  0  0
  187.1320  178.7310  148.0920 C   0  0  0  0  0  3  0  0  0  0  0  0
  188.6690  178.2890  149.8600 F   0  0  0  0  0  0  0  0  0  0  0  0
  184.9370  178.6970  145.0360 C   0  0  0  0  0  2  0  0  0  0  0  0
  188.6790  177.1450  146.3860 C   0  0  0  0  0  3  0  0  0  0  0  0
  189.8380  176.8850  140.4380 C   0  0  0  0  0  0  0  0  0  0  0  0
  189.0630  177.3190  147.7180 C   0  0  0  0  0  3  0  0  0  0  0  0
  190.8750  176.2130  139.8820 F   0  0  0  0  0  0  0  0  0  0  0  0
  187.5130  177.7550  145.9000 C   0  0  0  0  0  0  0  0  0  0  0  0
  185.5210  177.9360  142.6100 C   0  0  1  0  0  3  0  0  0  0  0  0
  188.2920  178.1140  148.5710 C   0  0  0  0  0  0  0  0  0  0  0  0
  186.7400  178.5420  146.7640 C   0  0  0  0  0  0  0  0  0  0  0  0
  187.6650  178.3520  141.5660 C   0  0  0  0  0  0  0  0  0  0  0  0
  187.1330  177.6460  144.4700 C   0  0  0  0  0  0  0  0  0  0  0  0
  189.4440  176.5680  141.6770 C   0  0  0  0  0  3  0  0  0  0  0  0
  185.5640  179.1700  146.2660 N   0  0  0  0  0  2  0  0  0  0  0  0
  189.1030  177.9110  139.6110 C   0  0  0  0  0  2  0  0  0  0  0  0
  188.4570  178.9960  140.4770 C   0  0  0  0  0  2  0  0  0  0  0  0
  188.3240  177.2650  142.3290 C   0  0  0  0  0  0  0  0  0  0  0  0
  181.4120  178.8670  141.7380 C   0  0  0  0  0  3  0  0  0  0  0  0
  184.0880  178.2790  142.3180 C   0  0  0  0  0  0  0  0  0  0  0  0
  183.5900  178.0860  141.0240 C   0  0  0  0  0  3  0  0  0  0  0  0
  182.2550  178.3810  140.7340 C   0  0  0  0  0  3  0  0  0  0  0  0
  181.9020  179.0560  143.0320 C   0  0  0  0  0  3  0  0  0  0  0  0
  183.2370  178.7620  143.3240 C   0  0  0  0  0  3  0  0  0  0  0  0
  1 12  1  0  0  0  0
  2 16  2  0  0  0  0
  2  6  1  0  0  0  0
  3 16  1  0  0  0  0
  4 13  1  0  0  0  0
  6 18  1  0  0  0  0
  7  9  1  0  0  0  0
  8 17  2  0  0  0  0
  9 13  2  0  0  0  0
 10  8  1  0  0  0  0
 11  7  2  0  0  0  0
 11 14  1  0  0  0  0
 12 23  1  1  0  0  0
 12  2  1  0  0  0  0
 13  5  1  0  0  0  0
 14  4  2  0  0  0  0
 15  1  2  0  0  0  0
 15 21  1  0  0  0  0
 16 11  1  0  0  0  0
 17 21  1  0  0  0  0
 18 14  1  0  0  0  0
 19  8  1  0  0  0  0
 19 20  1  0  0  0  0
 20 15  1  0  0  0  0
 21  3  2  0  0  0  0
 22 26  1  0  0  0  0
 23 27  1  0  0  0  0
 24 23  2  0  0  0  0
 25 24  1  0  0  0  0
 25 22  2  0  0  0  0
 26 27  2  0  0  0  0
M  END
>  <MODEL>
1

>  <REMARK>
 VINA RESULT:     -10.4      0.000      0.000
  Name = 
  1 active torsions:
  status: ('A' for Active; 'I' for Inactive)
    1  A    between atoms: C_9  and  C_15
                            x       y       z     vdW  Elec       q    Type
                         _______ _______ _______ _____ _____    ______ ____

>  <TORSDO>
F 1

$$$$
=
 OpenBabel11052413493D

 27 31  0  0  1  0  0  0  0  0999 V2000
  187.5160  178.5520  141.9370 N   0  0  0  0  0  0  0  0  0  0  0  0
  187.8730  177.5670  144.1450 C   0  0  0  0  0  0  0  0  0  0  0  0
  189.5600  176.4990  142.7100 N   0  0  0  0  0  0  0  0  0  0  0  0
  190.5050  177.2450  147.4790 C   0  0  0  0  0  3  0  0  0  0  0  0
  192.5200  176.3870  148.4220 F   0  0  0  0  0  0  0  0  0  0  0  0
  187.3640  177.9350  145.5270 C   0  0  0  0  0  2  0  0  0  0  0  0
  191.1460  176.0120  145.0520 C   0  0  0  0  0  3  0  0  0  0  0  0
  190.0390  176.9940  139.1700 C   0  0  0  0  0  0  0  0  0  0  0  0
  192.0030  175.8850  146.1490 C   0  0  0  0  0  3  0  0  0  0  0  0
  190.7240  176.4240  138.1500 F   0  0  0  0  0  0  0  0  0  0  0  0
  189.9580  176.7490  145.1640 C   0  0  0  0  0  0  0  0  0  0  0  0
  186.9430  177.6920  142.9640 C   0  0  1  0  0  3  0  0  0  0  0  0
  191.6850  176.5030  147.3610 C   0  0  0  0  0  0  0  0  0  0  0  0
  189.6410  177.3570  146.3870 C   0  0  0  0  0  0  0  0  0  0  0  0
  188.5950  178.2530  141.2870 C   0  0  0  0  0  0  0  0  0  0  0  0
  189.0770  176.9600  143.9900 C   0  0  0  0  0  0  0  0  0  0  0  0
  190.0880  176.4320  140.3840 C   0  0  0  0  0  3  0  0  0  0  0  0
  188.4410  178.1140  146.4950 N   0  0  0  0  0  2  0  0  0  0  0  0
  189.1710  178.1960  138.8890 C   0  0  0  0  0  2  0  0  0  0  0  0
  189.0050  179.0900  140.1200 C   0  0  0  0  0  2  0  0  0  0  0  0
  189.3630  177.0090  141.5270 C   0  0  0  0  0  0  0  0  0  0  0  0
  182.9250  178.9170  143.8950 C   0  0  0  0  0  3  0  0  0  0  0  0
  185.5480  178.1350  143.3020 C   0  0  0  0  0  0  0  0  0  0  0  0
  184.5930  178.2200  142.2840 C   0  0  0  0  0  3  0  0  0  0  0  0
  183.2840  178.6130  142.5780 C   0  0  0  0  0  3  0  0  0  0  0  0
  183.8730  178.8290  144.9170 C   0  0  0  0  0  3  0  0  0  0  0  0
  185.1830  178.4360  144.6230 C   0  0  0  0  0  3  0  0  0  0  0  0
  1 12  1  0  0  0  0
  2  6  1  0  0  0  0
  3 16  1  0  0  0  0
  6 18  1  0  0  0  0
  7 11  2  0  0  0  0
  7  9  1  0  0  0  0
  8 17  2  0  0  0  0
  9 13  2  0  0  0  0
 10  8  1  0  0  0  0
 11 14  1  0  0  0  0
 12 23  1  1  0  0  0
 12  2  1  0  0  0  0
 13  4  1  0  0  0  0
 13  5  1  0  0  0  0
 14 18  1  0  0  0  0
 14  4  2  0  0  0  0
 15 21  1  0  0  0  0
 15  1  2  0  0  0  0
 16  2  2  0  0  0  0
 16 11  1  0  0  0  0
 17 21  1  0  0  0  0
 19  8  1  0  0  0  0
 19 20  1  0  0  0  0
 20 15  1  0  0  0  0
 21  3  2  0  0  0  0
 22 26  1  0  0  0  0
 23 27  1  0  0  0  0
 24 25  1  0  0  0  0
 24 23  2  0  0  0  0
 25 22  2  0  0  0  0
 27 26  2  0  0  0  0
M  END
>  <MODEL>
2

>  <REMARK>
 VINA RESULT:     -10.3      1.799      2.451
  Name = 
  1 active torsions:
  status: ('A' for Active; 'I' for Inactive)
    1  A    between atoms: C_9  and  C_15
                            x       y       z     vdW  Elec       q    Type
                         _______ _______ _______ _____ _____    ______ ____

>  <TORSDO>
F 1

$$$$
=
 OpenBabel11052413493D

 27 31  0  0  1  0  0  0  0  0999 V2000
  189.7450  178.4580  141.7810 N   0  0  0  0  0  0  0  0  0  0  0  0
  187.3260  178.1360  141.6400 C   0  0  0  0  0  0  0  0  0  0  0  0
  187.9270  177.3380  143.8860 N   0  0  0  0  0  0  0  0  0  0  0  0
  183.5140  179.3620  143.0950 C   0  0  0  0  0  3  0  0  0  0  0  0
  181.9020  179.3790  144.8510 F   0  0  0  0  0  0  0  0  0  0  0  0
  186.2820  178.6280  140.6540 C   0  0  0  0  0  2  0  0  0  0  0  0
  185.2350  177.8780  144.7250 C   0  0  0  0  0  3  0  0  0  0  0  0
  191.2290  177.1630  145.3260 C   0  0  0  0  0  0  0  0  0  0  0  0
  183.9780  178.2590  145.2000 C   0  0  0  0  0  3  0  0  0  0  0  0
  191.8360  176.6160  146.4060 F   0  0  0  0  0  0  0  0  0  0  0  0
  185.6380  178.2290  143.4280 C   0  0  0  0  0  0  0  0  0  0  0  0
  188.6790  177.7130  141.1240 C   0  0  1  0  0  3  0  0  0  0  0  0
  183.1180  179.0030  144.3870 C   0  0  0  0  0  0  0  0  0  0  0  0
  184.7660  178.9660  142.6160 C   0  0  0  0  0  0  0  0  0  0  0  0
  189.9960  178.3630  143.0480 C   0  0  0  0  0  0  0  0  0  0  0  0
  186.9980  177.9020  142.9360 C   0  0  0  0  0  0  0  0  0  0  0  0
  189.9280  176.9230  145.1170 C   0  0  0  0  0  3  0  0  0  0  0  0
  185.1810  179.3310  141.3040 N   0  0  0  0  0  2  0  0  0  0  0  0
  192.0550  177.9560  144.3430 C   0  0  0  0  0  2  0  0  0  0  0  0
  191.2230  179.0070  143.6030 C   0  0  0  0  0  2  0  0  0  0  0  0
  189.2190  177.4910  143.9600 C   0  0  0  0  0  0  0  0  0  0  0  0
  189.0770  177.8590  136.8420 C   0  0  0  0  0  3  0  0  0  0  0  0
  188.8350  177.7790  139.6320 C   0  0  0  0  0  0  0  0  0  0  0  0
  188.7290  176.6020  138.8820 C   0  0  0  0  0  3  0  0  0  0  0  0
  188.8520  176.6410  137.4900 C   0  0  0  0  0  3  0  0  0  0  0  0
  189.1780  179.0380  137.5850 C   0  0  0  0  0  3  0  0  0  0  0  0
  189.0560  179.0000  138.9770 C   0  0  0  0  0  3  0  0  0  0  0  0
  1 15  2  0  0  0  0
  2 16  2  0  0  0  0
  3 21  2  0  0  0  0
  4 13  1  0  0  0  0
  6 18  1  0  0  0  0
  6  2  1  0  0  0  0
  7  9  1  0  0  0  0
  8 10  1  0  0  0  0
 11  7  2  0  0  0  0
 12 23  1  6  0  0  0
 12  2  1  0  0  0  0
 12  1  1  0  0  0  0
 13  5  1  0  0  0  0
 13  9  2  0  0  0  0
 14  4  2  0  0  0  0
 14 11  1  0  0  0  0
 15 20  1  0  0  0  0
 15 21  1  0  0  0  0
 16 11  1  0  0  0  0
 16  3  1  0  0  0  0
 17  8  2  0  0  0  0
 18 14  1  0  0  0  0
 19  8  1  0  0  0  0
 20 19  1  0  0  0  0
 21 17  1  0  0  0  0
 22 25  2  0  0  0  0
 22 26  1  0  0  0  0
 24 23  2  0  0  0  0
 25 24  1  0  0  0  0
 26 27  2  0  0  0  0
 27 23  1  0  0  0  0
M  END
>  <MODEL>
3

>  <REMARK>
 VINA RESULT:      -9.8      2.654      5.428
  Name = 
  1 active torsions:
  status: ('A' for Active; 'I' for Inactive)
    1  A    between atoms: C_9  and  C_15
                            x       y       z     vdW  Elec       q    Type
                         _______ _______ _______ _____ _____    ______ ____

>  <TORSDO>
F 1

$$$$
=
 OpenBabel11052413493D

 27 31  0  0  1  0  0  0  0  0999 V2000
  189.5700  176.9250  140.5010 N   0  0  0  0  0  0  0  0  0  0  0  0
  187.7690  178.0600  141.7020 C   0  0  0  0  0  0  0  0  0  0  0  0
  187.4330  178.6860  139.3490 N   0  0  0  0  0  0  0  0  0  0  0  0
  183.5670  178.2890  142.3630 C   0  0  0  0  0  3  0  0  0  0  0  0
  181.4010  178.8990  141.5760 F   0  0  0  0  0  0  0  0  0  0  0  0
  187.2350  177.9240  143.1170 C   0  0  0  0  0  2  0  0  0  0  0  0
  184.6610  179.1450  139.9360 C   0  0  0  0  0  3  0  0  0  0  0  0
  189.4870  177.7590  136.5330 C   0  0  0  0  0  0  0  0  0  0  0  0
  183.2850  179.2420  140.1560 C   0  0  0  0  0  3  0  0  0  0  0  0
  189.6380  178.1020  135.2310 F   0  0  0  0  0  0  0  0  0  0  0  0
  185.5010  178.6270  140.9330 C   0  0  0  0  0  0  0  0  0  0  0  0
  189.2570  177.9680  141.4690 C   0  0  1  0  0  3  0  0  0  0  0  0
  182.7370  178.8120  141.3670 C   0  0  0  0  0  0  0  0  0  0  0  0
  184.9450  178.2080  142.1490 C   0  0  0  0  0  0  0  0  0  0  0  0
  189.1950  176.9760  139.2620 C   0  0  0  0  0  0  0  0  0  0  0  0
  186.9530  178.4430  140.6880 C   0  0  0  0  0  0  0  0  0  0  0  0
  188.6050  178.4270  137.2860 C   0  0  0  0  0  3  0  0  0  0  0  0
  185.7980  177.6720  143.1540 N   0  0  0  0  0  2  0  0  0  0  0  0
  190.3800  176.6920  137.1170 C   0  0  0  0  0  2  0  0  0  0  0  0
  189.7210  175.9680  138.2940 C   0  0  0  0  0  2  0  0  0  0  0  0
  188.4010  178.0970  138.7060 C   0  0  0  0  0  0  0  0  0  0  0  0
  191.6500  177.4270  145.0030 C   0  0  0  0  0  3  0  0  0  0  0  0
  190.0820  177.7950  142.7120 C   0  0  0  0  0  0  0  0  0  0  0  0
  190.3860  176.5030  143.1560 C   0  0  0  0  0  3  0  0  0  0  0  0
  191.1660  176.3190  144.3010 C   0  0  0  0  0  3  0  0  0  0  0  0
  191.3540  178.7190  144.5620 C   0  0  0  0  0  3  0  0  0  0  0  0
  190.5730  178.9050  143.4170 C   0  0  0  0  0  3  0  0  0  0  0  0
  1 12  1  0  0  0  0
  2  6  1  0  0  0  0
  3 16  1  0  0  0  0
  6 18  1  0  0  0  0
  7  9  2  0  0  0  0
  7 11  1  0  0  0  0
  8 19  1  0  0  0  0
  8 17  2  0  0  0  0
  9 13  1  0  0  0  0
 10  8  1  0  0  0  0
 11 14  2  0  0  0  0
 12  2  1  0  0  0  0
 12 23  1  1  0  0  0
 13  5  1  0  0  0  0
 13  4  2  0  0  0  0
 14  4  1  0  0  0  0
 14 18  1  0  0  0  0
 15  1  2  0  0  0  0
 16 11  1  0  0  0  0
 16  2  2  0  0  0  0
 17 21  1  0  0  0  0
 19 20  1  0  0  0  0
 20 15  1  0  0  0  0
 21 15  1  0  0  0  0
 21  3  2  0  0  0  0
 23 24  2  0  0  0  0
 23 27  1  0  0  0  0
 24 25  1  0  0  0  0
 25 22  2  0  0  0  0
 26 22  1  0  0  0  0
 27 26  2  0  0  0  0
M  END
>  <MODEL>
4

>  <REMARK>
 VINA RESULT:      -9.6      3.323      6.443
  Name = 
  1 active torsions:
  status: ('A' for Active; 'I' for Inactive)
    1  A    between atoms: C_9  and  C_15
                            x       y       z     vdW  Elec       q    Type
                         _______ _______ _______ _____ _____    ______ ____

>  <TORSDO>
F 1

$$$$
=
 OpenBabel11052413493D

 27 31  0  0  1  0  0  0  0  0999 V2000
  190.8470  177.7930  142.2850 N   0  0  0  0  0  0  0  0  0  0  0  0
  188.7350  177.5130  141.0880 C   0  0  0  0  0  0  0  0  0  0  0  0
  188.1650  177.1220  143.4470 N   0  0  0  0  0  0  0  0  0  0  0  0
  184.8320  179.0820  140.4070 C   0  0  0  0  0  3  0  0  0  0  0  0
  182.6120  179.4600  141.1900 F   0  0  0  0  0  0  0  0  0  0  0  0
  188.3080  177.8450  139.6690 C   0  0  0  0  0  2  0  0  0  0  0  0
  185.4610  177.8750  142.8500 C   0  0  0  0  0  3  0  0  0  0  0  0
  190.4190  177.1270  146.2630 C   0  0  0  0  0  0  0  0  0  0  0  0
  184.1730  178.3680  142.6250 C   0  0  0  0  0  3  0  0  0  0  0  0
  190.4100  176.7700  147.5700 F   0  0  0  0  0  0  0  0  0  0  0  0
  186.4410  177.9740  141.8520 C   0  0  0  0  0  0  0  0  0  0  0  0
  190.1210  176.9690  141.3290 C   0  0  1  0  0  3  0  0  0  0  0  0
  183.8590  178.9740  141.4050 C   0  0  0  0  0  0  0  0  0  0  0  0
  186.1150  178.5730  140.6280 C   0  0  0  0  0  0  0  0  0  0  0  0
  190.4860  177.9240  143.5230 C   0  0  0  0  0  0  0  0  0  0  0  0
  187.8330  177.5270  142.1020 C   0  0  0  0  0  0  0  0  0  0  0  0
  189.3360  176.8860  145.5130 C   0  0  0  0  0  3  0  0  0  0  0  0
  187.1140  178.6820  139.6210 N   0  0  0  0  0  2  0  0  0  0  0  0
  191.6800  177.7060  145.6700 C   0  0  0  0  0  2  0  0  0  0  0  0
  191.3910  178.6260  144.4810 C   0  0  0  0  0  2  0  0  0  0  0  0
  189.2920  177.2530  144.0890 C   0  0  0  0  0  0  0  0  0  0  0  0
  192.5190  176.3530  137.8100 C   0  0  0  0  0  3  0  0  0  0  0  0
  190.9400  176.7580  140.0880 C   0  0  0  0  0  0  0  0  0  0  0  0
  192.2490  177.2510  140.0420 C   0  0  0  0  0  3  0  0  0  0  0  0
  193.0370  177.0510  138.9050 C   0  0  0  0  0  3  0  0  0  0  0  0
  191.2140  175.8550  137.8510 C   0  0  0  0  0  3  0  0  0  0  0  0
  190.4250  176.0540  138.9880 C   0  0  0  0  0  3  0  0  0  0  0  0
  1 15  2  0  0  0  0
  2 12  1  0  0  0  0
  2 16  2  0  0  0  0
  3 21  2  0  0  0  0
  4 14  2  0  0  0  0
  4 13  1  0  0  0  0
  5 13  1  0  0  0  0
  6  2  1  0  0  0  0
  8 10  1  0  0  0  0
  9  7  1  0  0  0  0
 11 16  1  0  0  0  0
 11  7  2  0  0  0  0
 12 23  1  6  0  0  0
 12  1  1  0  0  0  0
 13  9  2  0  0  0  0
 14 11  1  0  0  0  0
 15 21  1  0  0  0  0
 15 20  1  0  0  0  0
 16  3  1  0  0  0  0
 17  8  2  0  0  0  0
 18  6  1  0  0  0  0
 18 14  1  0  0  0  0
 19  8  1  0  0  0  0
 20 19  1  0  0  0  0
 21 17  1  0  0  0  0
 22 26  2  0  0  0  0
 22 25  1  0  0  0  0
 24 23  1  0  0  0  0
 25 24  2  0  0  0  0
 26 27  1  0  0  0  0
 27 23  2  0  0  0  0
M  END
>  <MODEL>
5

>  <REMARK>
 VINA RESULT:      -9.1      2.743      7.009
  Name = 
  1 active torsions:
  status: ('A' for Active; 'I' for Inactive)
    1  A    between atoms: C_9  and  C_15
                            x       y       z     vdW  Elec       q    Type
                         _______ _______ _______ _____ _____    ______ ____

>  <TORSDO>
F 1

$$$$
=
 OpenBabel11052413493D

 27 31  0  0  1  0  0  0  0  0999 V2000
  186.7540  177.5160  143.0630 N   0  0  0  0  0  0  0  0  0  0  0  0
  186.2750  178.3810  140.8280 C   0  0  0  0  0  0  0  0  0  0  0  0
  188.7020  178.6670  141.0940 N   0  0  0  0  0  0  0  0  0  0  0  0
  186.8030  177.8130  136.6390 C   0  0  0  0  0  3  0  0  0  0  0  0
  188.2260  177.8780  134.7270 F   0  0  0  0  0  0  0  0  0  0  0  0
  185.0510  178.2920  139.9350 C   0  0  0  0  0  2  0  0  0  0  0  0
  188.9560  178.6090  138.2360 C   0  0  0  0  0  3  0  0  0  0  0  0
  190.6820  177.8830  144.0050 C   0  0  0  0  0  0  0  0  0  0  0  0
  189.1300  178.4450  136.8590 C   0  0  0  0  0  3  0  0  0  0  0  0
  191.9340  178.1070  144.4700 F   0  0  0  0  0  0  0  0  0  0  0  0
  187.7020  178.3850  138.8220 C   0  0  0  0  0  0  0  0  0  0  0  0
  186.0870  178.5710  142.3120 C   0  0  1  0  0  3  0  0  0  0  0  0
  188.0550  178.0450  136.0610 C   0  0  0  0  0  0  0  0  0  0  0  0
  186.6260  177.9940  138.0130 C   0  0  0  0  0  0  0  0  0  0  0  0
  188.0400  177.3550  143.0630 C   0  0  0  0  0  0  0  0  0  0  0  0
  187.5180  178.4770  140.2910 C   0  0  0  0  0  0  0  0  0  0  0  0
  190.3090  178.4330  142.8430 C   0  0  0  0  0  3  0  0  0  0  0  0
  185.3570  177.7560  138.6120 N   0  0  0  0  0  2  0  0  0  0  0  0
  189.7170  177.0900  144.8530 C   0  0  0  0  0  2  0  0  0  0  0  0
  188.6570  176.3780  144.0080 C   0  0  0  0  0  2  0  0  0  0  0  0
  188.9610  178.2230  142.2920 C   0  0  0  0  0  0  0  0  0  0  0  0
  182.0100  179.0030  143.6210 C   0  0  0  0  0  3  0  0  0  0  0  0
  184.6570  178.7060  142.7550 C   0  0  0  0  0  0  0  0  0  0  0  0
  184.3760  178.8580  144.1170 C   0  0  0  0  0  3  0  0  0  0  0  0
  183.0550  179.0040  144.5510 C   0  0  0  0  0  3  0  0  0  0  0  0
  182.2850  178.8560  142.2600 C   0  0  0  0  0  3  0  0  0  0  0  0
  183.6060  178.7100  141.8250 C   0  0  0  0  0  3  0  0  0  0  0  0
  2 12  1  0  0  0  0
  3 21  2  0  0  0  0
  4 14  1  0  0  0  0
  5 13  1  0  0  0  0
  6  2  1  0  0  0  0
  7 11  1  0  0  0  0
  8 10  1  0  0  0  0
  8 19  1  0  0  0  0
  9  7  2  0  0  0  0
 11 16  1  0  0  0  0
 12 23  1  6  0  0  0
 12  1  1  0  0  0  0
 13  4  2  0  0  0  0
 13  9  1  0  0  0  0
 14 18  1  0  0  0  0
 14 11  2  0  0  0  0
 15  1  2  0  0  0  0
 15 20  1  0  0  0  0
 16  2  2  0  0  0  0
 16  3  1  0  0  0  0
 17  8  2  0  0  0  0
 18  6  1  0  0  0  0
 20 19  1  0  0  0  0
 21 17  1  0  0  0  0
 21 15  1  0  0  0  0
 22 25  1  0  0  0  0
 23 24  1  0  0  0  0
 24 25  2  0  0  0  0
 26 22  2  0  0  0  0
 27 26  1  0  0  0  0
 27 23  2  0  0  0  0
M  END
>  <MODEL>
6

>  <REMARK>
 VINA RESULT:      -8.9      2.609      6.368
  Name = 
  1 active torsions:
  status: ('A' for Active; 'I' for Inactive)
    1  A    between atoms: C_9  and  C_15
                            x       y       z     vdW  Elec       q    Type
                         _______ _______ _______ _____ _____    ______ ____

>  <TORSDO>
F 1

$$$$
=
 OpenBabel11052413493D

 27 31  0  0  1  0  0  0  0  0999 V2000
  187.9140  177.2210  143.2490 N   0  0  0  0  0  0  0  0  0  0  0  0
  185.8050  178.4360  143.0320 C   0  0  0  0  0  0  0  0  0  0  0  0
  186.9680  178.8310  140.9030 N   0  0  0  0  0  0  0  0  0  0  0  0
  182.0540  178.6600  141.0230 C   0  0  0  0  0  3  0  0  0  0  0  0
  180.8160  179.1590  139.0480 F   0  0  0  0  0  0  0  0  0  0  0  0
  184.5260  178.4260  143.8500 C   0  0  0  0  0  2  0  0  0  0  0  0
  184.4180  179.3000  139.6730 C   0  0  0  0  0  3  0  0  0  0  0  0
  190.2540  177.6740  139.9680 C   0  0  0  0  0  0  0  0  0  0  0  0
  183.1880  179.3960  139.0150 C   0  0  0  0  0  3  0  0  0  0  0  0
  191.1670  177.8940  138.9920 F   0  0  0  0  0  0  0  0  0  0  0  0
  184.4730  178.8920  141.0130 C   0  0  0  0  0  0  0  0  0  0  0  0
  187.1320  178.3450  143.7440 C   0  0  1  0  0  3  0  0  0  0  0  0
  182.0070  179.0740  139.6880 C   0  0  0  0  0  0  0  0  0  0  0  0
  183.2830  178.5810  141.6850 C   0  0  0  0  0  0  0  0  0  0  0  0
  188.3550  177.1480  142.0340 C   0  0  0  0  0  0  0  0  0  0  0  0
  185.7730  178.7080  141.7030 C   0  0  0  0  0  0  0  0  0  0  0  0
  189.1270  178.3960  139.9830 C   0  0  0  0  0  3  0  0  0  0  0  0
  183.3420  178.1560  143.0420 N   0  0  0  0  0  2  0  0  0  0  0  0
  190.5730  176.6810  141.0590 C   0  0  0  0  0  2  0  0  0  0  0  0
  189.3100  176.0610  141.6640 C   0  0  0  0  0  2  0  0  0  0  0  0
  188.1020  178.1980  141.0200 C   0  0  0  0  0  0  0  0  0  0  0  0
  186.9380  178.2340  148.0410 C   0  0  0  0  0  3  0  0  0  0  0  0
  187.0420  178.3050  145.2430 C   0  0  0  0  0  0  0  0  0  0  0  0
  188.0030  177.5870  145.9650 C   0  0  0  0  0  3  0  0  0  0  0  0
  187.9500  177.5500  147.3610 C   0  0  0  0  0  3  0  0  0  0  0  0
  185.9790  178.9560  147.3260 C   0  0  0  0  0  3  0  0  0  0  0  0
  186.0310  178.9940  145.9290 C   0  0  0  0  0  3  0  0  0  0  0  0
  1 12  1  0  0  0  0
  2 12  1  0  0  0  0
  2  6  1  0  0  0  0
  3 21  2  0  0  0  0
  3 16  1  0  0  0  0
  4 14  1  0  0  0  0
  5 13  1  0  0  0  0
  7 11  1  0  0  0  0
  8 17  2  0  0  0  0
  8 19  1  0  0  0  0
  9  7  2  0  0  0  0
  9 13  1  0  0  0  0
 10  8  1  0  0  0  0
 11 14  2  0  0  0  0
 11 16  1  0  0  0  0
 12 23  1  1  0  0  0
 13  4  2  0  0  0  0
 14 18  1  0  0  0  0
 15  1  2  0  0  0  0
 16  2  2  0  0  0  0
 17 21  1  0  0  0  0
 18  6  1  0  0  0  0
 19 20  1  0  0  0  0
 20 15  1  0  0  0  0
 21 15  1  0  0  0  0
 23 27  2  0  0  0  0
 23 24  1  0  0  0  0
 24 25  2  0  0  0  0
 25 22  1  0  0  0  0
 26 22  2  0  0  0  0
 27 26  1  0  0  0  0
M  END
>  <MODEL>
7

>  <REMARK>
 VINA RESULT:      -8.6      2.496      6.001
  Name = 
  1 active torsions:
  status: ('A' for Active; 'I' for Inactive)
    1  A    between atoms: C_9  and  C_15
                            x       y       z     vdW  Elec       q    Type
                         _______ _______ _______ _____ _____    ______ ____

>  <TORSDO>
F 1

$$$$
=
 OpenBabel11052413493D

 27 31  0  0  1  0  0  0  0  0999 V2000
  186.8120  177.5240  142.7790 N   0  0  0  0  0  0  0  0  0  0  0  0
  188.0690  177.9180  140.7200 C   0  0  0  0  0  0  0  0  0  0  0  0
  189.7190  178.2150  142.5180 N   0  0  0  0  0  0  0  0  0  0  0  0
  191.1420  176.4930  138.1360 C   0  0  0  0  0  3  0  0  0  0  0  0
  193.4620  176.1410  137.7140 F   0  0  0  0  0  0  0  0  0  0  0  0
  187.7480  177.6660  139.2580 C   0  0  0  0  0  2  0  0  0  0  0  0
  191.7870  177.5660  140.6370 C   0  0  0  0  0  3  0  0  0  0  0  0
  189.1300  178.0150  146.0710 C   0  0  0  0  0  0  0  0  0  0  0  0
  192.8010  177.1200  139.7850 C   0  0  0  0  0  3  0  0  0  0  0  0
  189.7760  178.3110  147.2240 F   0  0  0  0  0  0  0  0  0  0  0  0
  190.4440  177.4870  140.2410 C   0  0  0  0  0  0  0  0  0  0  0  0
  186.9770  178.4120  141.6360 C   0  0  1  0  0  3  0  0  0  0  0  0
  192.4790  176.5810  138.5360 C   0  0  0  0  0  0  0  0  0  0  0  0
  190.1310  176.9550  138.9830 C   0  0  0  0  0  0  0  0  0  0  0  0
  187.7320  177.3460  143.6730 C   0  0  0  0  0  0  0  0  0  0  0  0
  189.3520  177.8820  141.1620 C   0  0  0  0  0  0  0  0  0  0  0  0
  189.7070  178.3210  144.9020 C   0  0  0  0  0  3  0  0  0  0  0  0
  188.7670  176.8650  138.5880 N   0  0  0  0  0  2  0  0  0  0  0  0
  187.7410  177.4290  146.1390 C   0  0  0  0  0  2  0  0  0  0  0  0
  187.4130  176.5750  144.9110 C   0  0  0  0  0  2  0  0  0  0  0  0
  189.0500  178.0220  143.6200 C   0  0  0  0  0  0  0  0  0  0  0  0
  183.1680  179.1400  139.7720 C   0  0  0  0  0  3  0  0  0  0  0  0
  185.6550  178.6570  140.9670 C   0  0  0  0  0  0  0  0  0  0  0  0
  184.4740  178.4240  141.6810 C   0  0  0  0  0  3  0  0  0  0  0  0
  183.2330  178.6630  141.0850 C   0  0  0  0  0  3  0  0  0  0  0  0
  184.3430  179.3800  139.0560 C   0  0  0  0  0  3  0  0  0  0  0  0
  185.5860  179.1410  139.6520 C   0  0  0  0  0  3  0  0  0  0  0  0
  1 15  2  0  0  0  0
  2 16  2  0  0  0  0
  2 12  1  0  0  0  0
  3 21  2  0  0  0  0
  4 13  2  0  0  0  0
  4 14  1  0  0  0  0
  5 13  1  0  0  0  0
  6  2  1  0  0  0  0
  8 19  1  0  0  0  0
  8 10  1  0  0  0  0
  9  7  2  0  0  0  0
 11  7  1  0  0  0  0
 11 16  1  0  0  0  0
 12 23  1  6  0  0  0
 12  1  1  0  0  0  0
 13  9  1  0  0  0  0
 14 11  2  0  0  0  0
 15 20  1  0  0  0  0
 16  3  1  0  0  0  0
 17  8  2  0  0  0  0
 18 14  1  0  0  0  0
 18  6  1  0  0  0  0
 20 19  1  0  0  0  0
 21 15  1  0  0  0  0
 21 17  1  0  0  0  0
 22 25  1  0  0  0  0
 23 24  1  0  0  0  0
 25 24  2  0  0  0  0
 26 27  1  0  0  0  0
 26 22  2  0  0  0  0
 27 23  2  0  0  0  0
M  END
>  <MODEL>
8

>  <REMARK>
 VINA RESULT:      -8.6      2.076      6.241
  Name = 
  1 active torsions:
  status: ('A' for Active; 'I' for Inactive)
    1  A    between atoms: C_9  and  C_15
                            x       y       z     vdW  Elec       q    Type
                         _______ _______ _______ _____ _____    ______ ____

>  <TORSDO>
F 1

$$$$
=
 OpenBabel11052413493D

 27 31  0  0  1  0  0  0  0  0999 V2000
  189.6100  176.7430  142.8630 N   0  0  0  0  0  0  0  0  0  0  0  0
  187.8660  177.8060  144.2050 C   0  0  0  0  0  0  0  0  0  0  0  0
  187.5840  178.7610  141.9580 N   0  0  0  0  0  0  0  0  0  0  0  0
  183.6770  178.1790  144.8890 C   0  0  0  0  0  3  0  0  0  0  0  0
  181.5550  179.0110  144.1900 F   0  0  0  0  0  0  0  0  0  0  0  0
  187.3140  177.5100  145.5880 C   0  0  0  0  0  2  0  0  0  0  0  0
  184.8370  179.2910  142.6010 C   0  0  0  0  0  3  0  0  0  0  0  0
  189.6060  178.1080  139.0430 C   0  0  0  0  0  0  0  0  0  0  0  0
  183.4660  179.4360  142.8300 C   0  0  0  0  0  3  0  0  0  0  0  0
  189.7850  178.6140  137.8000 F   0  0  0  0  0  0  0  0  0  0  0  0
  185.6390  178.5980  143.5180 C   0  0  0  0  0  0  0  0  0  0  0  0
  189.3480  177.6620  143.9620 C   0  0  1  0  0  3  0  0  0  0  0  0
  182.8860  178.8780  143.9720 C   0  0  0  0  0  0  0  0  0  0  0  0
  185.0510  178.0500  144.6660 C   0  0  0  0  0  0  0  0  0  0  0  0
  189.2480  176.9810  141.6420 C   0  0  0  0  0  0  0  0  0  0  0  0
  187.0800  178.3670  143.2520 C   0  0  0  0  0  0  0  0  0  0  0  0
  188.7560  178.7170  139.8800 C   0  0  0  0  0  3  0  0  0  0  0  0
  185.8650  177.3370  145.5910 N   0  0  0  0  0  2  0  0  0  0  0  0
  190.4330  176.9230  139.4790 C   0  0  0  0  0  2  0  0  0  0  0  0
  189.7250  176.0850  140.5470 C   0  0  0  0  0  2  0  0  0  0  0  0
  188.5230  178.2100  141.2410 C   0  0  0  0  0  0  0  0  0  0  0  0
  191.5970  176.5490  147.4580 C   0  0  0  0  0  3  0  0  0  0  0  0
  190.1520  177.2770  145.1710 C   0  0  0  0  0  0  0  0  0  0  0  0
  189.7150  177.6820  146.4380 C   0  0  0  0  0  3  0  0  0  0  0  0
  190.4370  177.3210  147.5790 C   0  0  0  0  0  3  0  0  0  0  0  0
  192.0350  176.1380  146.1960 C   0  0  0  0  0  3  0  0  0  0  0  0
  191.3130  176.4990  145.0540 C   0  0  0  0  0  3  0  0  0  0  0  0
  1 12  1  0  0  0  0
  2  6  1  0  0  0  0
  3 16  1  0  0  0  0
  6 18  1  0  0  0  0
  7  9  2  0  0  0  0
  7 11  1  0  0  0  0
  8 19  1  0  0  0  0
  8 17  2  0  0  0  0
  9 13  1  0  0  0  0
 10  8  1  0  0  0  0
 11 14  2  0  0  0  0
 12  2  1  0  0  0  0
 12 23  1  1  0  0  0
 13  5  1  0  0  0  0
 13  4  2  0  0  0  0
 14  4  1  0  0  0  0
 14 18  1  0  0  0  0
 15  1  2  0  0  0  0
 16 11  1  0  0  0  0
 16  2  2  0  0  0  0
 17 21  1  0  0  0  0
 19 20  1  0  0  0  0
 20 15  1  0  0  0  0
 21 15  1  0  0  0  0
 21  3  2  0  0  0  0
 22 25  1  0  0  0  0
 23 24  1  0  0  0  0
 24 25  2  0  0  0  0
 26 22  2  0  0  0  0
 27 23  2  0  0  0  0
 27 26  1  0  0  0  0
M  END
>  <MODEL>
9

>  <REMARK>
 VINA RESULT:      -8.5      2.397      5.866
  Name = 
  1 active torsions:
  status: ('A' for Active; 'I' for Inactive)
    1  A    between atoms: C_9  and  C_15
                            x       y       z     vdW  Elec       q    Type
                         _______ _______ _______ _____ _____    ______ ____

>  <TORSDO>
F 1

$$$$
