=
 OpenBabel11052416363D

 43 47  0  0  1  0  0  0  0  0999 V2000
  191.2750  176.8250  146.7380 C   0  0  0  0  0  0  0  0  0  0  0  0
  188.9350  177.8790  142.6360 C   0  0  1  0  0  3  0  0  0  0  0  0
  186.1230  178.1050  143.1160 C   0  0  0  0  0  0  0  0  0  0  0  0
  190.5650  176.1840  144.4080 C   0  0  2  0  0  3  0  0  0  0  0  0
  189.9700  177.4930  147.0590 C   0  0  0  0  0  2  0  0  0  0  0  0
  191.9950  176.4360  147.6430 O   0  0  0  0  0  0  0  0  0  0  0  0
  189.1490  176.6880  144.8390 C   0  0  1  0  0  3  0  0  0  0  0  0
  191.7130  176.6560  145.3130 C   0  0  0  0  0  2  0  0  0  0  0  0
  189.2280  177.8910  145.7870 C   0  0  0  0  0  2  0  0  0  0  0  0
  186.8750  177.4530  144.0120 C   0  0  0  0  0  3  0  0  0  0  0  0
  188.2390  176.9490  143.6340 C   0  0  1  0  0  3  0  0  0  0  0  0
  190.1880  177.2080  142.1440 C   0  0  0  0  0  3  0  0  0  0  0  0
  187.9900  178.2720  141.5190 C   0  0  0  0  0  0  0  0  0  0  0  0
  186.6840  178.4310  141.7830 C   0  0  0  0  0  3  0  0  0  0  0  0
  190.9310  176.4500  142.9620 C   0  0  0  0  0  3  0  0  0  0  0  0
  184.7650  178.5480  143.4770 C   0  0  0  0  0  0  0  0  0  0  0  0
  183.7260  178.5220  142.4970 N   0  0  0  0  0  2  0  0  0  0  0  0
  184.5170  178.9380  144.6510 O   0  0  0  0  0  0  0  0  0  0  0  0
  182.3570  178.9130  142.7910 C   0  0  0  0  0  2  0  0  0  0  0  0
  180.4650  179.6030  141.4060 C   0  0  0  0  0  3  0  0  0  0  0  0
  181.9960  177.9140  140.4320 C   0  0  0  0  0  2  0  0  0  0  0  0
  181.3020  179.6530  138.2780 C   0  0  0  0  0  2  0  0  0  0  0  0
  181.5390  178.8140  141.5470 C   0  0  0  0  0  0  0  0  0  0  0  0
  179.6140  179.6140  140.1660 C   0  0  0  0  0  2  0  0  0  0  0  0
  183.0820  178.5280  139.6620 N   0  0  0  0  0  0  0  0  0  0  0  0
  182.6590  179.7620  138.9770 C   0  0  0  0  0  2  0  0  0  0  0  0
  180.2480  180.4390  139.0460 C   0  0  0  0  0  2  0  0  0  0  0  0
  183.5130  177.5660  138.6570 C   0  0  0  0  0  2  0  0  0  0  0  0
  182.8850  176.2070  138.9320 C   0  0  0  0  0  2  0  0  0  0  0  0
  182.7870  175.3710  137.6630 C   0  0  0  0  0  2  0  0  0  0  0  0
  185.5270  175.2550  136.8130 O   0  0  0  0  0  0  0  0  0  0  0  0
  185.8750  173.0220  137.5470 C   0  0  0  0  0  1  0  0  0  0  0  0
  185.0300  174.2300  137.3490 C   0  0  0  0  0  0  0  0  0  0  0  0
  183.6580  174.2070  137.7530 N   0  0  0  0  0  2  0  0  0  0  0  0
  188.5100  178.7230  140.1920 C   0  0  0  0  0  2  0  0  0  0  0  0
  189.8750  176.9150  137.2940 C   0  0  0  0  0  2  0  0  0  0  0  0
  189.1240  177.8320  136.3250 C   0  0  2  0  0  3  0  0  0  0  0  0
  187.4680  177.8800  138.2410 C   0  0  0  0  0  2  0  0  0  0  0  0
  189.8720  177.5140  138.6990 C   0  0  0  0  0  2  0  0  0  0  0  0
  188.5110  177.6110  139.2520 N   0  0  0  0  0  0  0  0  0  0  0  0
  188.0010  178.6260  137.0130 C   0  0  0  0  0  2  0  0  0  0  0  0
  188.8150  175.2300  135.5040 S   0  0  0  0  0  1  0  0  0  0  0  0
  188.5700  177.0020  135.1780 C   0  0  0  0  0  2  0  0  0  0  0  0
  1  5  1  0  0  0  0
  1  6  2  0  0  0  0
  2 12  1  6  0  0  0
  2 11  1  0  0  0  0
  3 16  1  0  0  0  0
  3 10  2  0  0  0  0
  4 15  1  6  0  0  0
  4  7  1  0  0  0  0
  4  8  1  0  0  0  0
  7  9  1  6  0  0  0
  8  1  1  0  0  0  0
  9  5  1  0  0  0  0
 11 10  1  1  0  0  0
 11  7  1  0  0  0  0
 12 15  2  0  0  0  0
 13 14  2  0  0  0  0
 13  2  1  0  0  0  0
 14  3  1  0  0  0  0
 16 18  2  0  0  0  0
 17 19  1  0  0  0  0
 17 16  1  0  0  0  0
 20 23  2  0  0  0  0
 21 23  1  0  0  0  0
 22 26  1  0  0  0  0
 22 27  1  0  0  0  0
 23 19  1  0  0  0  0
 24 20  1  0  0  0  0
 25 21  1  0  0  0  0
 26 25  1  0  0  0  0
 27 24  1  0  0  0  0
 28 29  1  0  0  0  0
 28 25  1  0  0  0  0
 30 34  1  0  0  0  0
 30 29  1  0  0  0  0
 31 33  2  0  0  0  0
 33 32  1  0  0  0  0
 33 34  1  0  0  0  0
 35 13  1  0  0  0  0
 36 39  1  0  0  0  0
 37 43  1  6  0  0  0
 37 41  1  0  0  0  0
 37 36  1  0  0  0  0
 38 40  1  0  0  0  0
 39 40  1  0  0  0  0
 40 35  1  0  0  0  0
 41 38  1  0  0  0  0
 43 42  1  0  0  0  0
M  END
>  <MODEL>
1

>  <REMARK>
 VINA RESULT:      -9.1      0.000      0.000
  Name = 
  10 active torsions:
  status: ('A' for Active; 'I' for Inactive)
    1  A    between atoms: C_1  and  C_34
    2  A    between atoms: C_1  and  N_35
    3  A    between atoms: C_2  and  C_13
    4  A    between atoms: N_6  and  C_17
    5  A    between atoms: C_11  and  C_14
    6  A    between atoms: C_11  and  C_36
    7  A    between atoms: C_12  and  C_17
    8  A    between atoms: C_14  and  N_22
    9  A    between atoms: C_19  and  C_37
   10  A    between atoms: C_36  and  N_40
                            x       y       z     vdW  Elec       q    Type
                         _______ _______ _______ _____ _____    ______ ____

>  <TORSDO>
F 10

$$$$
=
 OpenBabel11052416363D

 43 47  0  0  1  0  0  0  0  0999 V2000
  191.4360  176.4300  147.0280 C   0  0  0  0  0  0  0  0  0  0  0  0
  187.6730  177.4570  144.1630 C   0  0  1  0  0  3  0  0  0  0  0  0
  188.5750  178.1820  141.5460 C   0  0  0  0  0  0  0  0  0  0  0  0
  189.4560  177.8830  146.4680 C   0  0  2  0  0  3  0  0  0  0  0  0
  191.8290  176.2400  145.5930 C   0  0  0  0  0  2  0  0  0  0  0  0
  192.2640  176.2670  147.9100 O   0  0  0  0  0  0  0  0  0  0  0  0
  190.0080  177.8510  145.0060 C   0  0  1  0  0  3  0  0  0  0  0  0
  190.0250  176.7940  147.3900 C   0  0  0  0  0  2  0  0  0  0  0  0
  190.6500  176.5020  144.6600 C   0  0  0  0  0  2  0  0  0  0  0  0
  189.4460  178.2420  142.5630 C   0  0  0  0  0  3  0  0  0  0  0  0
  188.9530  178.2800  143.9810 C   0  0  1  0  0  3  0  0  0  0  0  0
  187.1260  177.7130  145.5400 C   0  0  0  0  0  3  0  0  0  0  0  0
  186.6800  177.7570  143.0600 C   0  0  0  0  0  0  0  0  0  0  0  0
  187.1270  178.0350  141.8260 C   0  0  0  0  0  3  0  0  0  0  0  0
  187.9450  177.8930  146.5860 C   0  0  0  0  0  3  0  0  0  0  0  0
  189.0640  178.2010  140.1570 C   0  0  0  0  0  0  0  0  0  0  0  0
  190.2060  177.4220  139.7950 N   0  0  0  0  0  2  0  0  0  0  0  0
  188.4710  178.8950  139.2850 O   0  0  0  0  0  0  0  0  0  0  0  0
  190.7240  177.3680  138.4380 C   0  0  0  0  0  2  0  0  0  0  0  0
  189.6270  175.3640  137.5680 C   0  0  0  0  0  3  0  0  0  0  0  0
  192.0810  175.2360  137.8890 C   0  0  0  0  0  2  0  0  0  0  0  0
  191.5510  173.8390  135.4570 C   0  0  0  0  0  2  0  0  0  0  0  0
  190.7600  175.9480  137.9810 C   0  0  0  0  0  0  0  0  0  0  0  0
  189.5750  173.9580  137.0380 C   0  0  0  0  0  2  0  0  0  0  0  0
  192.8200  175.6360  136.6870 N   0  0  0  0  0  0  0  0  0  0  0  0
  192.1210  175.2590  135.4450 C   0  0  0  0  0  2  0  0  0  0  0  0
  190.0340  173.8800  135.5820 C   0  0  0  0  0  2  0  0  0  0  0  0
  194.1100  174.9610  136.7130 C   0  0  0  0  0  2  0  0  0  0  0  0
  194.1990  174.0520  137.9310 C   0  0  0  0  0  2  0  0  0  0  0  0
  195.6080  173.5050  138.1170 C   0  0  0  0  0  2  0  0  0  0  0  0
  197.7910  175.3400  138.4530 O   0  0  0  0  0  0  0  0  0  0  0  0
  197.6810  175.3570  140.8260 C   0  0  0  0  0  1  0  0  0  0  0  0
  197.2250  174.8980  139.4870 C   0  0  0  0  0  0  0  0  0  0  0  0
  196.1610  173.9470  139.3900 N   0  0  0  0  0  2  0  0  0  0  0  0
  185.2180  177.5130  143.2520 C   0  0  0  0  0  2  0  0  0  0  0  0
  182.1010  179.4570  143.0550 C   0  0  0  0  0  2  0  0  0  0  0  0
  181.6460  178.6680  141.8240 C   0  0  2  0  0  3  0  0  0  0  0  0
  184.1460  178.5710  141.4250 C   0  0  0  0  0  2  0  0  0  0  0  0
  183.2730  178.7500  143.7330 C   0  0  0  0  0  2  0  0  0  0  0  0
  184.4590  178.6940  142.8640 N   0  0  0  0  0  0  0  0  0  0  0  0
  182.7970  177.8930  141.1610 C   0  0  0  0  0  2  0  0  0  0  0  0
  179.6050  180.4910  141.6110 S   0  0  0  0  0  1  0  0  0  0  0  0
  180.9970  179.6180  140.8310 C   0  0  0  0  0  2  0  0  0  0  0  0
  1  8  1  0  0  0  0
  1  6  2  0  0  0  0
  2 12  1  1  0  0  0
  3 14  1  0  0  0  0
  3 10  2  0  0  0  0
  4 15  1  6  0  0  0
  4  8  1  0  0  0  0
  5  1  1  0  0  0  0
  7  9  1  6  0  0  0
  7  4  1  0  0  0  0
  9  5  1  0  0  0  0
 11 10  1  6  0  0  0
 11  2  1  0  0  0  0
 11  7  1  0  0  0  0
 12 15  2  0  0  0  0
 13 35  1  0  0  0  0
 13  2  1  0  0  0  0
 14 13  2  0  0  0  0
 16  3  1  0  0  0  0
 17 16  1  0  0  0  0
 18 16  2  0  0  0  0
 19 17  1  0  0  0  0
 20 23  2  0  0  0  0
 21 23  1  0  0  0  0
 22 27  1  0  0  0  0
 23 19  1  0  0  0  0
 24 20  1  0  0  0  0
 25 28  1  0  0  0  0
 25 21  1  0  0  0  0
 26 22  1  0  0  0  0
 26 25  1  0  0  0  0
 27 24  1  0  0  0  0
 28 29  1  0  0  0  0
 29 30  1  0  0  0  0
 30 34  1  0  0  0  0
 31 33  2  0  0  0  0
 33 32  1  0  0  0  0
 34 33  1  0  0  0  0
 36 39  1  0  0  0  0
 37 43  1  6  0  0  0
 37 36  1  0  0  0  0
 38 40  1  0  0  0  0
 40 35  1  0  0  0  0
 40 39  1  0  0  0  0
 41 38  1  0  0  0  0
 41 37  1  0  0  0  0
 43 42  1  0  0  0  0
M  END
>  <MODEL>
2

>  <REMARK>
 VINA RESULT:      -9.1      3.994      8.352
  Name = 
  10 active torsions:
  status: ('A' for Active; 'I' for Inactive)
    1  A    between atoms: C_1  and  C_34
    2  A    between atoms: C_1  and  N_35
    3  A    between atoms: C_2  and  C_13
    4  A    between atoms: N_6  and  C_17
    5  A    between atoms: C_11  and  C_14
    6  A    between atoms: C_11  and  C_36
    7  A    between atoms: C_12  and  C_17
    8  A    between atoms: C_14  and  N_22
    9  A    between atoms: C_19  and  C_37
   10  A    between atoms: C_36  and  N_40
                            x       y       z     vdW  Elec       q    Type
                         _______ _______ _______ _____ _____    ______ ____

>  <TORSDO>
F 10

$$$$
=
 OpenBabel11052416363D

 43 47  0  0  1  0  0  0  0  0999 V2000
  186.5370  177.9630  146.5710 C   0  0  0  0  0  0  0  0  0  0  0  0
  184.2720  178.2620  142.3060 C   0  0  1  0  0  3  0  0  0  0  0  0
  186.1700  178.5190  140.1790 C   0  0  0  0  0  0  0  0  0  0  0  0
  184.9980  179.1940  145.0030 C   0  0  2  0  0  3  0  0  0  0  0  0
  187.4640  177.5240  145.4770 C   0  0  0  0  0  2  0  0  0  0  0  0
  186.9380  178.0060  147.7240 O   0  0  0  0  0  0  0  0  0  0  0  0
  186.0870  178.9120  143.9180 C   0  0  1  0  0  3  0  0  0  0  0  0
  185.1130  178.3250  146.2640 C   0  0  0  0  0  2  0  0  0  0  0  0
  186.7660  177.5520  144.1200 C   0  0  0  0  0  2  0  0  0  0  0  0
  186.5630  178.8090  141.4270 C   0  0  0  0  0  3  0  0  0  0  0  0
  185.5460  179.0910  142.4950 C   0  0  1  0  0  3  0  0  0  0  0  0
  183.2290  178.7490  143.2730 C   0  0  0  0  0  3  0  0  0  0  0  0
  183.8140  178.3030  140.8620 C   0  0  0  0  0  0  0  0  0  0  0  0
  184.7260  178.3630  139.8810 C   0  0  0  0  0  3  0  0  0  0  0  0
  183.5680  179.1580  144.5040 C   0  0  0  0  0  3  0  0  0  0  0  0
  187.1730  178.2980  139.1240 C   0  0  0  0  0  0  0  0  0  0  0  0
  186.9660  177.2740  138.1500 N   0  0  0  0  0  2  0  0  0  0  0  0
  188.2080  179.0170  139.0730 O   0  0  0  0  0  0  0  0  0  0  0  0
  187.8960  177.0200  137.0630 C   0  0  0  0  0  2  0  0  0  0  0  0
  189.0520  174.9110  136.6310 C   0  0  0  0  0  3  0  0  0  0  0  0
  189.6190  176.0750  138.7440 C   0  0  0  0  0  2  0  0  0  0  0  0
  192.0840  175.0220  137.7630 C   0  0  0  0  0  2  0  0  0  0  0  0
  188.8410  175.9380  137.4650 C   0  0  0  0  0  0  0  0  0  0  0  0
  190.0270  173.8050  136.9240 C   0  0  0  0  0  2  0  0  0  0  0  0
  190.7500  176.9960  138.5850 N   0  0  0  0  0  0  0  0  0  0  0  0
  191.7410  176.5060  137.6110 C   0  0  0  0  0  2  0  0  0  0  0  0
  191.4680  174.2190  136.6250 C   0  0  0  0  0  2  0  0  0  0  0  0
  191.4000  177.1270  139.8810 C   0  0  0  0  0  2  0  0  0  0  0  0
  190.4910  176.5930  140.9790 C   0  0  0  0  0  2  0  0  0  0  0  0
  190.2440  177.6410  142.0560 C   0  0  0  0  0  2  0  0  0  0  0  0
  191.9000  178.7200  144.1380 O   0  0  0  0  0  0  0  0  0  0  0  0
  191.3200  177.0640  145.7410 C   0  0  0  0  0  1  0  0  0  0  0  0
  191.2410  177.6760  144.3870 C   0  0  0  0  0  0  0  0  0  0  0  0
  190.4330  177.0630  143.3800 N   0  0  0  0  0  2  0  0  0  0  0  0
  182.3890  178.0350  140.4980 C   0  0  0  0  0  2  0  0  0  0  0  0
  180.6320  176.9460  137.4550 C   0  0  0  0  0  2  0  0  0  0  0  0
  179.9160  175.8340  138.2260 C   0  0  2  0  0  3  0  0  0  0  0  0
  182.0670  175.8840  139.5620 C   0  0  0  0  0  2  0  0  0  0  0  0
  181.2730  177.9350  138.4270 C   0  0  0  0  0  2  0  0  0  0  0  0
  182.3240  177.3030  139.2410 N   0  0  0  0  0  0  0  0  0  0  0  0
  180.5750  175.5350  139.5820 C   0  0  0  0  0  2  0  0  0  0  0  0
  181.0250  174.7240  135.9730 S   0  0  0  0  0  1  0  0  0  0  0  0
  179.8650  174.5810  137.3660 C   0  0  0  0  0  2  0  0  0  0  0  0
  1  6  2  0  0  0  0
  2 11  1  0  0  0  0
  2 12  1  1  0  0  0
  3 10  2  0  0  0  0
  4 15  1  6  0  0  0
  4  8  1  0  0  0  0
  5  1  1  0  0  0  0
  7  9  1  6  0  0  0
  7  4  1  0  0  0  0
  8  1  1  0  0  0  0
  9  5  1  0  0  0  0
 11 10  1  6  0  0  0
 11  7  1  0  0  0  0
 12 15  2  0  0  0  0
 13  2  1  0  0  0  0
 14  3  1  0  0  0  0
 14 13  2  0  0  0  0
 16  3  1  0  0  0  0
 17 16  1  0  0  0  0
 18 16  2  0  0  0  0
 19 23  1  0  0  0  0
 19 17  1  0  0  0  0
 20 24  1  0  0  0  0
 20 23  2  0  0  0  0
 23 21  1  0  0  0  0
 25 21  1  0  0  0  0
 25 28  1  0  0  0  0
 26 22  1  0  0  0  0
 26 25  1  0  0  0  0
 27 24  1  0  0  0  0
 27 22  1  0  0  0  0
 28 29  1  0  0  0  0
 29 30  1  0  0  0  0
 30 34  1  0  0  0  0
 31 33  2  0  0  0  0
 33 32  1  0  0  0  0
 34 33  1  0  0  0  0
 35 13  1  0  0  0  0
 36 37  1  0  0  0  0
 36 39  1  0  0  0  0
 37 43  1  6  0  0  0
 37 41  1  0  0  0  0
 38 41  1  0  0  0  0
 39 40  1  0  0  0  0
 40 38  1  0  0  0  0
 40 35  1  0  0  0  0
 42 43  1  0  0  0  0
M  END
>  <MODEL>
3

>  <REMARK>
 VINA RESULT:      -9.0      2.564      7.786
  Name = 
  10 active torsions:
  status: ('A' for Active; 'I' for Inactive)
    1  A    between atoms: C_1  and  C_34
    2  A    between atoms: C_1  and  N_35
    3  A    between atoms: C_2  and  C_13
    4  A    between atoms: N_6  and  C_17
    5  A    between atoms: C_11  and  C_14
    6  A    between atoms: C_11  and  C_36
    7  A    between atoms: C_12  and  C_17
    8  A    between atoms: C_14  and  N_22
    9  A    between atoms: C_19  and  C_37
   10  A    between atoms: C_36  and  N_40
                            x       y       z     vdW  Elec       q    Type
                         _______ _______ _______ _____ _____    ______ ____

>  <TORSDO>
F 10

$$$$
=
 OpenBabel11052416363D

 43 47  0  0  1  0  0  0  0  0999 V2000
  193.4320  173.5720  136.6300 C   0  0  0  0  0  0  0  0  0  0  0  0
  190.6690  176.6790  139.1060 C   0  0  1  0  0  3  0  0  0  0  0  0
  188.1000  176.9380  137.8720 C   0  0  0  0  0  0  0  0  0  0  0  0
  192.9850  175.9080  137.4580 C   0  0  2  0  0  3  0  0  0  0  0  0
  191.9850  173.2820  136.3630 C   0  0  0  0  0  2  0  0  0  0  0  0
  194.2950  172.9240  136.0590 O   0  0  0  0  0  0  0  0  0  0  0  0
  191.5200  175.6630  136.9700 C   0  0  1  0  0  3  0  0  0  0  0  0
  193.8270  174.6330  137.6160 C   0  0  0  0  0  2  0  0  0  0  0  0
  191.0790  174.2080  137.1710 C   0  0  0  0  0  2  0  0  0  0  0  0
  189.1130  176.4450  137.1450 C   0  0  0  0  0  3  0  0  0  0  0  0
  190.5340  176.6640  137.5800 C   0  0  1  0  0  3  0  0  0  0  0  0
  192.0640  177.1130  139.4630 C   0  0  0  0  0  3  0  0  0  0  0  0
  189.5950  177.5440  139.7320 C   0  0  0  0  0  0  0  0  0  0  0  0
  188.3790  177.6010  139.1680 C   0  0  0  0  0  3  0  0  0  0  0  0
  193.1140  176.7450  138.7140 C   0  0  0  0  0  3  0  0  0  0  0  0
  186.7120  176.7660  137.4100 C   0  0  0  0  0  0  0  0  0  0  0  0
  185.7050  177.6890  137.8300 N   0  0  0  0  0  2  0  0  0  0  0  0
  186.4130  175.8150  136.6370 O   0  0  0  0  0  0  0  0  0  0  0  0
  184.3230  177.6010  137.3900 C   0  0  0  0  0  2  0  0  0  0  0  0
  182.1950  178.6990  137.8800 C   0  0  0  0  0  3  0  0  0  0  0  0
  184.0880  179.2220  139.3920 C   0  0  0  0  0  2  0  0  0  0  0  0
  181.7920  179.0250  141.0760 C   0  0  0  0  0  2  0  0  0  0  0  0
  183.4900  178.5450  138.1900 C   0  0  0  0  0  0  0  0  0  0  0  0
  181.2640  179.5830  138.6620 C   0  0  0  0  0  2  0  0  0  0  0  0
  184.1490  178.3120  140.5400 N   0  0  0  0  0  0  0  0  0  0  0  0
  182.8130  177.8880  140.9940 C   0  0  0  0  0  2  0  0  0  0  0  0
  180.7790  178.9080  139.9450 C   0  0  0  0  0  2  0  0  0  0  0  0
  184.8050  179.0180  141.6320 C   0  0  0  0  0  2  0  0  0  0  0  0
  184.4630  178.3600  142.9610 C   0  0  0  0  0  2  0  0  0  0  0  0
  184.2940  179.3930  144.0670 C   0  0  0  0  0  2  0  0  0  0  0  0
  184.1670  178.3890  146.7540 O   0  0  0  0  0  0  0  0  0  0  0  0
  186.4890  178.6620  147.1830 C   0  0  0  0  0  1  0  0  0  0  0  0
  185.2850  178.7710  146.3160 C   0  0  0  0  0  0  0  0  0  0  0  0
  185.4070  179.3230  145.0020 N   0  0  0  0  0  2  0  0  0  0  0  0
  189.7810  178.1400  141.0910 C   0  0  0  0  0  2  0  0  0  0  0  0
  188.1850  177.2280  144.2770 C   0  0  0  0  0  2  0  0  0  0  0  0
  189.4080  177.7060  145.0660 C   0  0  2  0  0  3  0  0  0  0  0  0
  190.5960  176.9420  142.9630 C   0  0  0  0  0  2  0  0  0  0  0  0
  188.2550  177.7310  142.8370 C   0  0  0  0  0  2  0  0  0  0  0  0
  189.4090  177.1730  142.1150 N   0  0  0  0  0  0  0  0  0  0  0  0
  190.6540  177.8720  144.1800 C   0  0  0  0  0  2  0  0  0  0  0  0
  191.4720  176.5920  146.4910 S   0  0  0  0  0  1  0  0  0  0  0  0
  189.6830  176.7340  146.2020 C   0  0  0  0  0  2  0  0  0  0  0  0
  1  8  1  0  0  0  0
  2 12  1  6  0  0  0
  2 13  1  0  0  0  0
  3 14  1  0  0  0  0
  4  8  1  1  0  0  0
  4 15  1  0  0  0  0
  5  1  1  0  0  0  0
  5  9  1  0  0  0  0
  6  1  2  0  0  0  0
  7  9  1  1  0  0  0
  7  4  1  0  0  0  0
  7 11  1  0  0  0  0
 10  3  2  0  0  0  0
 11 10  1  1  0  0  0
 11  2  1  0  0  0  0
 13 35  1  0  0  0  0
 14 13  2  0  0  0  0
 15 12  2  0  0  0  0
 16 17  1  0  0  0  0
 16  3  1  0  0  0  0
 18 16  2  0  0  0  0
 19 17  1  0  0  0  0
 19 23  1  0  0  0  0
 20 23  2  0  0  0  0
 20 24  1  0  0  0  0
 21 25  1  0  0  0  0
 23 21  1  0  0  0  0
 24 27  1  0  0  0  0
 25 26  1  0  0  0  0
 25 28  1  0  0  0  0
 26 22  1  0  0  0  0
 27 22  1  0  0  0  0
 28 29  1  0  0  0  0
 29 30  1  0  0  0  0
 30 34  1  0  0  0  0
 33 31  2  0  0  0  0
 33 32  1  0  0  0  0
 34 33  1  0  0  0  0
 35 40  1  0  0  0  0
 36 37  1  0  0  0  0
 37 43  1  1  0  0  0
 38 41  1  0  0  0  0
 39 36  1  0  0  0  0
 40 39  1  0  0  0  0
 40 38  1  0  0  0  0
 41 37  1  0  0  0  0
 43 42  1  0  0  0  0
M  END
>  <MODEL>
4

>  <REMARK>
 VINA RESULT:      -8.6      3.075      7.068
  Name = 
  10 active torsions:
  status: ('A' for Active; 'I' for Inactive)
    1  A    between atoms: C_1  and  C_34
    2  A    between atoms: C_1  and  N_35
    3  A    between atoms: C_2  and  C_13
    4  A    between atoms: N_6  and  C_17
    5  A    between atoms: C_11  and  C_14
    6  A    between atoms: C_11  and  C_36
    7  A    between atoms: C_12  and  C_17
    8  A    between atoms: C_14  and  N_22
    9  A    between atoms: C_19  and  C_37
   10  A    between atoms: C_36  and  N_40
                            x       y       z     vdW  Elec       q    Type
                         _______ _______ _______ _____ _____    ______ ____

>  <TORSDO>
F 10

$$$$
=
 OpenBabel11052416363D

 43 47  0  0  1  0  0  0  0  0999 V2000
  183.7860  177.0700  135.6250 C   0  0  0  0  0  0  0  0  0  0  0  0
  188.2880  176.4700  137.2940 C   0  0  1  0  0  3  0  0  0  0  0  0
  188.6490  177.9090  139.7420 C   0  0  0  0  0  0  0  0  0  0  0  0
  186.2700  177.4010  135.3630 C   0  0  2  0  0  3  0  0  0  0  0  0
  183.8100  177.3060  137.1060 C   0  0  0  0  0  2  0  0  0  0  0  0
  182.7460  177.2200  135.0040 O   0  0  0  0  0  0  0  0  0  0  0  0
  186.2370  177.8550  136.8590 C   0  0  1  0  0  3  0  0  0  0  0  0
  185.0260  176.6250  134.9050 C   0  0  0  0  0  2  0  0  0  0  0  0
  185.2050  177.0720  137.6790 C   0  0  0  0  0  2  0  0  0  0  0  0
  187.6310  178.2520  138.9410 C   0  0  0  0  0  3  0  0  0  0  0  0
  187.6300  177.8380  137.4980 C   0  0  1  0  0  3  0  0  0  0  0  0
  188.4430  176.2220  135.8190 C   0  0  0  0  0  3  0  0  0  0  0  0
  189.5960  176.3860  138.0550 C   0  0  0  0  0  0  0  0  0  0  0  0
  189.7200  177.0200  139.2300 C   0  0  0  0  0  3  0  0  0  0  0  0
  187.5110  176.6380  134.9490 C   0  0  0  0  0  3  0  0  0  0  0  0
  188.6710  178.3650  141.1420 C   0  0  0  0  0  0  0  0  0  0  0  0
  189.8780  178.2720  141.9010 N   0  0  0  0  0  2  0  0  0  0  0  0
  187.6300  178.8470  141.6680 O   0  0  0  0  0  0  0  0  0  0  0  0
  189.9810  178.7320  143.2750 C   0  0  0  0  0  2  0  0  0  0  0  0
  191.3670  177.0480  144.3790 C   0  0  0  0  0  3  0  0  0  0  0  0
  188.9500  177.0310  144.9290 C   0  0  0  0  0  2  0  0  0  0  0  0
  190.2990  176.4870  147.3840 C   0  0  0  0  0  2  0  0  0  0  0  0
  190.1430  177.5550  144.1780 C   0  0  0  0  0  0  0  0  0  0  0  0
  191.6360  175.9020  145.3140 C   0  0  0  0  0  2  0  0  0  0  0  0
  188.6380  177.8710  146.0890 N   0  0  0  0  0  0  0  0  0  0  0  0
  189.7200  177.8730  147.0890 C   0  0  0  0  0  2  0  0  0  0  0  0
  191.6870  176.3540  146.7730 C   0  0  0  0  0  2  0  0  0  0  0  0
  187.4340  177.3390  146.7110 C   0  0  0  0  0  2  0  0  0  0  0  0
  186.2200  177.6430  145.8440 C   0  0  0  0  0  2  0  0  0  0  0  0
  185.5780  178.9690  146.2290 C   0  0  0  0  0  2  0  0  0  0  0  0
  184.6660  179.1470  143.5130 O   0  0  0  0  0  0  0  0  0  0  0  0
  182.3580  179.0040  144.0620 C   0  0  0  0  0  1  0  0  0  0  0  0
  183.8010  179.0500  144.4230 C   0  0  0  0  0  0  0  0  0  0  0  0
  184.1870  179.0040  145.7990 N   0  0  0  0  0  2  0  0  0  0  0  0
  190.6620  175.4190  137.6490 C   0  0  0  0  0  2  0  0  0  0  0  0
  193.3200  175.5100  135.1070 C   0  0  0  0  0  2  0  0  0  0  0  0
  194.3270  174.9070  136.0900 C   0  0  2  0  0  3  0  0  0  0  0  0
  192.9010  176.1790  137.7540 C   0  0  0  0  0  2  0  0  0  0  0  0
  191.8990  175.3570  135.6460 C   0  0  0  0  0  2  0  0  0  0  0  0
  191.7010  176.1080  136.8960 N   0  0  0  0  0  0  0  0  0  0  0  0
  193.8540  174.9950  137.5500 C   0  0  0  0  0  2  0  0  0  0  0  0
  195.4760  177.1220  134.9440 S   0  0  0  0  0  1  0  0  0  0  0  0
  195.6700  175.5990  135.9190 C   0  0  0  0  0  2  0  0  0  0  0  0
  1  5  1  0  0  0  0
  2 12  1  6  0  0  0
  2 11  1  0  0  0  0
  2 13  1  0  0  0  0
  3 16  1  0  0  0  0
  4  8  1  1  0  0  0
  4  7  1  0  0  0  0
  5  9  1  0  0  0  0
  6  1  2  0  0  0  0
  7 11  1  0  0  0  0
  7  9  1  1  0  0  0
  8  1  1  0  0  0  0
 10  3  2  0  0  0  0
 11 10  1  1  0  0  0
 13 14  2  0  0  0  0
 14  3  1  0  0  0  0
 15  4  1  0  0  0  0
 15 12  2  0  0  0  0
 16 18  2  0  0  0  0
 16 17  1  0  0  0  0
 17 19  1  0  0  0  0
 19 23  1  0  0  0  0
 20 24  1  0  0  0  0
 21 25  1  0  0  0  0
 23 20  2  0  0  0  0
 23 21  1  0  0  0  0
 24 27  1  0  0  0  0
 25 28  1  0  0  0  0
 25 26  1  0  0  0  0
 26 22  1  0  0  0  0
 27 22  1  0  0  0  0
 29 30  1  0  0  0  0
 29 28  1  0  0  0  0
 31 33  2  0  0  0  0
 32 33  1  0  0  0  0
 33 34  1  0  0  0  0
 34 30  1  0  0  0  0
 35 13  1  0  0  0  0
 36 39  1  0  0  0  0
 36 37  1  0  0  0  0
 37 43  1  1  0  0  0
 37 41  1  0  0  0  0
 39 40  1  0  0  0  0
 40 35  1  0  0  0  0
 40 38  1  0  0  0  0
 41 38  1  0  0  0  0
 42 43  1  0  0  0  0
M  END
>  <MODEL>
5

>  <REMARK>
 VINA RESULT:      -8.4      3.203      8.717
  Name = 
  10 active torsions:
  status: ('A' for Active; 'I' for Inactive)
    1  A    between atoms: C_1  and  C_34
    2  A    between atoms: C_1  and  N_35
    3  A    between atoms: C_2  and  C_13
    4  A    between atoms: N_6  and  C_17
    5  A    between atoms: C_11  and  C_14
    6  A    between atoms: C_11  and  C_36
    7  A    between atoms: C_12  and  C_17
    8  A    between atoms: C_14  and  N_22
    9  A    between atoms: C_19  and  C_37
   10  A    between atoms: C_36  and  N_40
                            x       y       z     vdW  Elec       q    Type
                         _______ _______ _______ _____ _____    ______ ____

>  <TORSDO>
F 10

$$$$
=
 OpenBabel11052416363D

 43 47  0  0  1  0  0  0  0  0999 V2000
  194.3050  174.7840  136.7040 C   0  0  0  0  0  0  0  0  0  0  0  0
  189.9060  176.7630  137.0780 C   0  0  1  0  0  3  0  0  0  0  0  0
  189.3500  177.4630  139.7970 C   0  0  0  0  0  0  0  0  0  0  0  0
  191.8020  174.5820  136.5130 C   0  0  2  0  0  3  0  0  0  0  0  0
  194.2430  175.6440  137.9300 C   0  0  0  0  0  2  0  0  0  0  0  0
  195.3220  174.1550  136.4550 O   0  0  0  0  0  0  0  0  0  0  0  0
  191.7670  175.2910  137.9060 C   0  0  1  0  0  3  0  0  0  0  0  0
  193.1370  174.7110  135.7640 C   0  0  0  0  0  2  0  0  0  0  0  0
  192.8850  176.3310  138.0530 C   0  0  0  0  0  2  0  0  0  0  0  0
  190.3210  176.5730  139.5510 C   0  0  0  0  0  3  0  0  0  0  0  0
  190.3840  175.8680  138.2260 C   0  0  1  0  0  3  0  0  0  0  0  0
  189.7930  175.9300  135.8310 C   0  0  0  0  0  3  0  0  0  0  0  0
  188.6150  177.4640  137.4470 C   0  0  0  0  0  0  0  0  0  0  0  0
  188.4040  177.8370  138.7190 C   0  0  0  0  0  3  0  0  0  0  0  0
  190.6700  174.9480  135.5760 C   0  0  0  0  0  3  0  0  0  0  0  0
  189.2630  178.1100  141.1180 C   0  0  0  0  0  0  0  0  0  0  0  0
  190.3480  177.9920  142.0390 N   0  0  0  0  0  2  0  0  0  0  0  0
  188.2380  178.7750  141.4310 O   0  0  0  0  0  0  0  0  0  0  0  0
  190.3450  178.6300  143.3450 C   0  0  0  0  0  2  0  0  0  0  0  0
  191.3020  177.3160  145.1710 C   0  0  0  0  0  3  0  0  0  0  0  0
  188.9060  176.9310  144.6620 C   0  0  0  0  0  2  0  0  0  0  0  0
  189.1090  176.8510  147.5080 C   0  0  0  0  0  2  0  0  0  0  0  0
  190.2360  177.5840  144.4040 C   0  0  0  0  0  0  0  0  0  0  0  0
  191.2700  176.3220  146.2980 C   0  0  0  0  0  2  0  0  0  0  0  0
  188.0250  177.8060  145.4430 N   0  0  0  0  0  0  0  0  0  0  0  0
  188.5570  178.0840  146.7890 C   0  0  0  0  0  2  0  0  0  0  0  0
  190.6300  176.9050  147.5570 C   0  0  0  0  0  2  0  0  0  0  0  0
  186.7420  177.1320  145.5830 C   0  0  0  0  0  2  0  0  0  0  0  0
  185.6810  178.1210  146.0440 C   0  0  0  0  0  2  0  0  0  0  0  0
  185.3550  179.1360  144.9560 C   0  0  0  0  0  2  0  0  0  0  0  0
  185.3210  179.7520  142.1520 O   0  0  0  0  0  0  0  0  0  0  0  0
  183.6290  178.1720  141.6150 C   0  0  0  0  0  1  0  0  0  0  0  0
  184.5250  178.8720  142.5740 C   0  0  0  0  0  0  0  0  0  0  0  0
  184.4610  178.5510  143.9660 N   0  0  0  0  0  2  0  0  0  0  0  0
  187.6820  177.9670  136.3920 C   0  0  0  0  0  2  0  0  0  0  0  0
  184.5300  176.8060  134.8930 C   0  0  0  0  0  2  0  0  0  0  0  0
  183.7610  177.1270  136.1780 C   0  0  2  0  0  3  0  0  0  0  0  0
  185.9920  176.5310  137.2200 C   0  0  0  0  0  2  0  0  0  0  0  0
  185.9110  177.4570  134.9270 C   0  0  0  0  0  2  0  0  0  0  0  0
  186.7470  176.9170  136.0110 N   0  0  0  0  0  0  0  0  0  0  0  0
  184.6880  177.3190  137.3890 C   0  0  0  0  0  2  0  0  0  0  0  0
  182.6980  175.6330  138.2210 S   0  0  0  0  0  1  0  0  0  0  0  0
  182.7490  176.0250  136.4460 C   0  0  0  0  0  2  0  0  0  0  0  0
  1  5  1  0  0  0  0
  2 12  1  6  0  0  0
  2 13  1  0  0  0  0
  2 11  1  0  0  0  0
  3 16  1  0  0  0  0
  4 15  1  6  0  0  0
  4  7  1  0  0  0  0
  5  9  1  0  0  0  0
  6  1  2  0  0  0  0
  7  9  1  6  0  0  0
  7 11  1  0  0  0  0
  8  4  1  0  0  0  0
  8  1  1  0  0  0  0
 10  3  2  0  0  0  0
 11 10  1  1  0  0  0
 13 14  2  0  0  0  0
 14  3  1  0  0  0  0
 15 12  2  0  0  0  0
 16 18  2  0  0  0  0
 16 17  1  0  0  0  0
 17 19  1  0  0  0  0
 19 23  1  0  0  0  0
 20 24  1  0  0  0  0
 21 25  1  0  0  0  0
 22 27  1  0  0  0  0
 23 21  1  0  0  0  0
 23 20  2  0  0  0  0
 24 27  1  0  0  0  0
 25 28  1  0  0  0  0
 25 26  1  0  0  0  0
 26 22  1  0  0  0  0
 28 29  1  0  0  0  0
 30 29  1  0  0  0  0
 31 33  2  0  0  0  0
 32 33  1  0  0  0  0
 33 34  1  0  0  0  0
 34 30  1  0  0  0  0
 35 13  1  0  0  0  0
 36 39  1  0  0  0  0
 36 37  1  0  0  0  0
 37 43  1  1  0  0  0
 37 41  1  0  0  0  0
 38 41  1  0  0  0  0
 39 40  1  0  0  0  0
 40 35  1  0  0  0  0
 40 38  1  0  0  0  0
 43 42  1  0  0  0  0
M  END
>  <MODEL>
6

>  <REMARK>
 VINA RESULT:      -8.2      3.064      7.872
  Name = 
  10 active torsions:
  status: ('A' for Active; 'I' for Inactive)
    1  A    between atoms: C_1  and  C_34
    2  A    between atoms: C_1  and  N_35
    3  A    between atoms: C_2  and  C_13
    4  A    between atoms: N_6  and  C_17
    5  A    between atoms: C_11  and  C_14
    6  A    between atoms: C_11  and  C_36
    7  A    between atoms: C_12  and  C_17
    8  A    between atoms: C_14  and  N_22
    9  A    between atoms: C_19  and  C_37
   10  A    between atoms: C_36  and  N_40
                            x       y       z     vdW  Elec       q    Type
                         _______ _______ _______ _____ _____    ______ ____

>  <TORSDO>
F 10

$$$$
=
 OpenBabel11052416363D

 43 47  0  0  1  0  0  0  0  0999 V2000
  190.2490  177.1490  146.5660 C   0  0  0  0  0  0  0  0  0  0  0  0
  189.6180  177.5630  141.7860 C   0  0  1  0  0  3  0  0  0  0  0  0
  186.9170  178.2980  141.1920 C   0  0  0  0  0  0  0  0  0  0  0  0
  190.1970  176.1010  144.2760 C   0  0  2  0  0  3  0  0  0  0  0  0
  189.0860  178.0550  146.2880 C   0  0  0  0  0  2  0  0  0  0  0  0
  190.5430  176.8780  147.7190 O   0  0  0  0  0  0  0  0  0  0  0  0
  188.8610  176.8900  144.0860 C   0  0  1  0  0  3  0  0  0  0  0  0
  191.0710  176.5970  145.4380 C   0  0  0  0  0  2  0  0  0  0  0  0
  188.8890  178.2540  144.7870 C   0  0  0  0  0  2  0  0  0  0  0  0
  187.1870  177.7660  142.3920 C   0  0  0  0  0  3  0  0  0  0  0  0
  188.4580  176.9970  142.6120 C   0  0  1  0  0  3  0  0  0  0  0  0
  190.7880  176.6240  141.8890 C   0  0  0  0  0  3  0  0  0  0  0  0
  189.1850  177.8230  140.3580 C   0  0  0  0  0  0  0  0  0  0  0  0
  187.9290  178.2250  140.1110 C   0  0  0  0  0  3  0  0  0  0  0  0
  191.0520  175.9730  143.0320 C   0  0  0  0  0  3  0  0  0  0  0  0
  185.6430  179.0030  140.9690 C   0  0  0  0  0  0  0  0  0  0  0  0
  185.1350  179.1480  139.6420 N   0  0  0  0  0  2  0  0  0  0  0  0
  184.9970  179.4690  141.9470 O   0  0  0  0  0  0  0  0  0  0  0  0
  183.8710  179.8030  139.3500 C   0  0  0  0  0  2  0  0  0  0  0  0
  183.4640  177.7140  138.1470 C   0  0  0  0  0  3  0  0  0  0  0  0
  181.4700  179.0660  138.7310 C   0  0  0  0  0  2  0  0  0  0  0  0
  180.7010  176.3490  139.1410 C   0  0  0  0  0  2  0  0  0  0  0  0
  182.9540  178.8300  138.6860 C   0  0  0  0  0  0  0  0  0  0  0  0
  182.6140  176.6510  137.5090 C   0  0  0  0  0  2  0  0  0  0  0  0
  180.9100  178.6960  140.0340 N   0  0  0  0  0  0  0  0  0  0  0  0
  181.0540  177.2580  140.3210 C   0  0  0  0  0  2  0  0  0  0  0  0
  181.9630  175.7390  138.5480 C   0  0  0  0  0  2  0  0  0  0  0  0
  179.4910  179.0240  140.0170 C   0  0  0  0  0  2  0  0  0  0  0  0
  179.2580  180.3710  140.6850 C   0  0  0  0  0  2  0  0  0  0  0  0
  179.1210  180.2280  142.1960 C   0  0  0  0  0  2  0  0  0  0  0  0
  180.0390  178.0630  143.8430 O   0  0  0  0  0  0  0  0  0  0  0  0
  182.2300  178.9390  144.1310 C   0  0  0  0  0  1  0  0  0  0  0  0
  180.8430  179.0000  143.5940 C   0  0  0  0  0  0  0  0  0  0  0  0
  180.4340  180.1290  142.8180 N   0  0  0  0  0  2  0  0  0  0  0  0
  190.1840  177.8780  139.2470 C   0  0  0  0  0  2  0  0  0  0  0  0
  192.0360  175.4760  137.1660 C   0  0  0  0  0  2  0  0  0  0  0  0
  191.2990  175.9450  135.9080 C   0  0  2  0  0  3  0  0  0  0  0  0
  189.4520  176.3500  137.5940 C   0  0  0  0  0  2  0  0  0  0  0  0
  191.8180  176.4670  138.3080 C   0  0  0  0  0  2  0  0  0  0  0  0
  190.4040  176.5430  138.7070 N   0  0  0  0  0  0  0  0  0  0  0  0
  190.0310  176.7520  136.2330 C   0  0  0  0  0  2  0  0  0  0  0  0
  191.7010  173.2340  135.7480 S   0  0  0  0  0  1  0  0  0  0  0  0
  190.9630  174.7400  135.0450 C   0  0  0  0  0  2  0  0  0  0  0  0
  1  6  2  0  0  0  0
  2 12  1  6  0  0  0
  2 11  1  0  0  0  0
  3 10  2  0  0  0  0
  4 15  1  6  0  0  0
  4  8  1  0  0  0  0
  5  1  1  0  0  0  0
  7  4  1  0  0  0  0
  7  9  1  6  0  0  0
  8  1  1  0  0  0  0
  9  5  1  0  0  0  0
 11 10  1  1  0  0  0
 11  7  1  0  0  0  0
 12 15  2  0  0  0  0
 13  2  1  0  0  0  0
 14 13  2  0  0  0  0
 14  3  1  0  0  0  0
 16  3  1  0  0  0  0
 16 18  2  0  0  0  0
 17 16  1  0  0  0  0
 19 17  1  0  0  0  0
 20 23  2  0  0  0  0
 21 25  1  0  0  0  0
 22 26  1  0  0  0  0
 23 21  1  0  0  0  0
 23 19  1  0  0  0  0
 24 20  1  0  0  0  0
 24 27  1  0  0  0  0
 25 26  1  0  0  0  0
 27 22  1  0  0  0  0
 28 25  1  0  0  0  0
 28 29  1  0  0  0  0
 29 30  1  0  0  0  0
 30 34  1  0  0  0  0
 33 31  2  0  0  0  0
 33 32  1  0  0  0  0
 34 33  1  0  0  0  0
 35 13  1  0  0  0  0
 36 39  1  0  0  0  0
 37 43  1  1  0  0  0
 37 41  1  0  0  0  0
 37 36  1  0  0  0  0
 38 40  1  0  0  0  0
 39 40  1  0  0  0  0
 40 35  1  0  0  0  0
 41 38  1  0  0  0  0
 43 42  1  0  0  0  0
M  END
>  <MODEL>
7

>  <REMARK>
 VINA RESULT:      -8.1      2.202      4.007
  Name = 
  10 active torsions:
  status: ('A' for Active; 'I' for Inactive)
    1  A    between atoms: C_1  and  C_34
    2  A    between atoms: C_1  and  N_35
    3  A    between atoms: C_2  and  C_13
    4  A    between atoms: N_6  and  C_17
    5  A    between atoms: C_11  and  C_14
    6  A    between atoms: C_11  and  C_36
    7  A    between atoms: C_12  and  C_17
    8  A    between atoms: C_14  and  N_22
    9  A    between atoms: C_19  and  C_37
   10  A    between atoms: C_36  and  N_40
                            x       y       z     vdW  Elec       q    Type
                         _______ _______ _______ _____ _____    ______ ____

>  <TORSDO>
F 10

$$$$
=
 OpenBabel11052416363D

 43 47  0  0  1  0  0  0  0  0999 V2000
  190.8860  176.8760  146.6330 C   0  0  0  0  0  0  0  0  0  0  0  0
  189.4510  177.5610  142.0630 C   0  0  1  0  0  3  0  0  0  0  0  0
  186.7140  178.3930  141.9870 C   0  0  0  0  0  0  0  0  0  0  0  0
  190.4030  175.9540  144.3390 C   0  0  2  0  0  3  0  0  0  0  0  0
  189.7240  177.8230  146.6070 C   0  0  0  0  0  2  0  0  0  0  0  0
  191.3670  176.5350  147.7020 O   0  0  0  0  0  0  0  0  0  0  0  0
  189.0820  176.7850  144.4240 C   0  0  1  0  0  3  0  0  0  0  0  0
  191.4820  176.3650  145.3530 C   0  0  0  0  0  2  0  0  0  0  0  0
  189.2770  178.1070  145.1750 C   0  0  0  0  0  2  0  0  0  0  0  0
  187.1700  177.7920  143.0930 C   0  0  0  0  0  3  0  0  0  0  0  0
  188.4330  176.9810  143.0500 C   0  0  1  0  0  3  0  0  0  0  0  0
  190.5890  176.5890  141.9140 C   0  0  0  0  0  3  0  0  0  0  0  0
  188.7850  177.9080  140.7470 C   0  0  0  0  0  0  0  0  0  0  0  0
  187.5200  178.3540  140.7430 C   0  0  0  0  0  3  0  0  0  0  0  0
  191.0240  175.8720  142.9600 C   0  0  0  0  0  3  0  0  0  0  0  0
  185.4450  179.1410  142.0240 C   0  0  0  0  0  0  0  0  0  0  0  0
  184.6610  179.1480  143.2180 N   0  0  0  0  0  2  0  0  0  0  0  0
  185.0570  179.7820  141.0100 O   0  0  0  0  0  0  0  0  0  0  0  0
  183.4170  179.8890  143.3390 C   0  0  0  0  0  2  0  0  0  0  0  0
  181.3860  178.7200  144.0360 C   0  0  0  0  0  3  0  0  0  0  0  0
  182.0670  178.4480  141.6670 C   0  0  0  0  0  2  0  0  0  0  0  0
  179.2220  178.6650  141.6280 C   0  0  0  0  0  2  0  0  0  0  0  0
  182.2700  178.9750  143.0610 C   0  0  0  0  0  0  0  0  0  0  0  0
  180.1700  177.8590  143.8330 C   0  0  0  0  0  2  0  0  0  0  0  0
  181.4630  179.4620  140.7960 N   0  0  0  0  0  0  0  0  0  0  0  0
  180.1110  179.8480  141.2350 C   0  0  0  0  0  2  0  0  0  0  0  0
  179.0410  178.6190  143.1390 C   0  0  0  0  0  2  0  0  0  0  0  0
  181.3710  178.8980  139.4570 C   0  0  0  0  0  2  0  0  0  0  0  0
  182.6170  178.0800  139.1480 C   0  0  0  0  0  2  0  0  0  0  0  0
  182.5540  177.4760  137.7510 C   0  0  0  0  0  2  0  0  0  0  0  0
  183.3300  174.7200  137.9700 O   0  0  0  0  0  0  0  0  0  0  0  0
  185.4750  175.0330  136.9970 C   0  0  0  0  0  1  0  0  0  0  0  0
  184.1560  175.5300  137.4730 C   0  0  0  0  0  0  0  0  0  0  0  0
  183.8490  176.9230  137.3780 N   0  0  0  0  0  2  0  0  0  0  0  0
  189.5780  177.9980  139.4820 C   0  0  0  0  0  2  0  0  0  0  0  0
  190.7910  175.5740  136.9960 C   0  0  0  0  0  2  0  0  0  0  0  0
  190.2210  176.4130  135.8490 C   0  0  2  0  0  3  0  0  0  0  0  0
  188.5090  176.9970  137.6230 C   0  0  0  0  0  2  0  0  0  0  0  0
  190.8140  176.3890  138.2880 C   0  0  0  0  0  2  0  0  0  0  0  0
  189.4590  176.7580  138.7290 N   0  0  0  0  0  0  0  0  0  0  0  0
  189.1960  177.4530  136.3310 C   0  0  0  0  0  2  0  0  0  0  0  0
  189.2040  173.8800  135.5570 S   0  0  0  0  0  1  0  0  0  0  0  0
  189.6020  175.4900  134.8120 C   0  0  0  0  0  2  0  0  0  0  0  0
  1  6  2  0  0  0  0
  2 12  1  6  0  0  0
  2 11  1  0  0  0  0
  3 16  1  0  0  0  0
  3 10  2  0  0  0  0
  4 15  1  6  0  0  0
  4  7  1  0  0  0  0
  4  8  1  0  0  0  0
  5  1  1  0  0  0  0
  7  9  1  6  0  0  0
  8  1  1  0  0  0  0
  9  5  1  0  0  0  0
 11 10  1  1  0  0  0
 11  7  1  0  0  0  0
 12 15  2  0  0  0  0
 13  2  1  0  0  0  0
 14 13  2  0  0  0  0
 14  3  1  0  0  0  0
 16 17  1  0  0  0  0
 17 19  1  0  0  0  0
 18 16  2  0  0  0  0
 21 23  1  0  0  0  0
 22 27  1  0  0  0  0
 23 19  1  0  0  0  0
 23 20  2  0  0  0  0
 24 20  1  0  0  0  0
 25 26  1  0  0  0  0
 25 21  1  0  0  0  0
 26 22  1  0  0  0  0
 27 24  1  0  0  0  0
 28 25  1  0  0  0  0
 29 28  1  0  0  0  0
 30 29  1  0  0  0  0
 32 33  1  0  0  0  0
 33 31  2  0  0  0  0
 34 33  1  0  0  0  0
 34 30  1  0  0  0  0
 35 13  1  0  0  0  0
 36 39  1  0  0  0  0
 37 43  1  6  0  0  0
 37 41  1  0  0  0  0
 37 36  1  0  0  0  0
 38 40  1  0  0  0  0
 39 40  1  0  0  0  0
 40 35  1  0  0  0  0
 41 38  1  0  0  0  0
 43 42  1  0  0  0  0
M  END
>  <MODEL>
8

>  <REMARK>
 VINA RESULT:      -8.0      1.450      2.018
  Name = 
  10 active torsions:
  status: ('A' for Active; 'I' for Inactive)
    1  A    between atoms: C_1  and  C_34
    2  A    between atoms: C_1  and  N_35
    3  A    between atoms: C_2  and  C_13
    4  A    between atoms: N_6  and  C_17
    5  A    between atoms: C_11  and  C_14
    6  A    between atoms: C_11  and  C_36
    7  A    between atoms: C_12  and  C_17
    8  A    between atoms: C_14  and  N_22
    9  A    between atoms: C_19  and  C_37
   10  A    between atoms: C_36  and  N_40
                            x       y       z     vdW  Elec       q    Type
                         _______ _______ _______ _____ _____    ______ ____

>  <TORSDO>
F 10

$$$$
=
 OpenBabel11052416363D

 43 47  0  0  1  0  0  0  0  0999 V2000
  186.5750  177.7630  146.5360 C   0  0  0  0  0  0  0  0  0  0  0  0
  183.6340  178.4140  142.7490 C   0  0  1  0  0  3  0  0  0  0  0  0
  185.1480  178.6220  140.3290 C   0  0  0  0  0  0  0  0  0  0  0  0
  184.8910  179.1720  145.3020 C   0  0  2  0  0  3  0  0  0  0  0  0
  187.2590  177.3040  145.2830 C   0  0  0  0  0  2  0  0  0  0  0  0
  187.1720  177.7260  147.6010 O   0  0  0  0  0  0  0  0  0  0  0  0
  185.7490  178.8570  144.0330 C   0  0  1  0  0  3  0  0  0  0  0  0
  185.1530  178.2420  146.4970 C   0  0  0  0  0  2  0  0  0  0  0  0
  186.3400  177.4430  144.0720 C   0  0  0  0  0  2  0  0  0  0  0  0
  185.7740  178.8280  141.4960 C   0  0  0  0  0  3  0  0  0  0  0  0
  184.9840  179.1380  142.7350 C   0  0  1  0  0  3  0  0  0  0  0  0
  182.8180  178.9340  143.9000 C   0  0  0  0  0  3  0  0  0  0  0  0
  182.9370  178.5520  141.4110 C   0  0  0  0  0  0  0  0  0  0  0  0
  183.6670  178.5870  140.2860 C   0  0  0  0  0  3  0  0  0  0  0  0
  183.3980  179.2640  145.0630 C   0  0  0  0  0  3  0  0  0  0  0  0
  185.9320  178.3730  139.1070 C   0  0  0  0  0  0  0  0  0  0  0  0
  185.2830  177.8750  137.9370 N   0  0  0  0  0  2  0  0  0  0  0  0
  187.1710  178.6100  139.0900 O   0  0  0  0  0  0  0  0  0  0  0  0
  185.9850  177.6370  136.6870 C   0  0  0  0  0  2  0  0  0  0  0  0
  185.6760  175.2370  136.3390 C   0  0  0  0  0  3  0  0  0  0  0  0
  187.9650  175.9890  136.9210 C   0  0  0  0  0  2  0  0  0  0  0  0
  188.3050  173.9390  134.9650 C   0  0  0  0  0  2  0  0  0  0  0  0
  186.5030  176.2380  136.6720 C   0  0  0  0  0  0  0  0  0  0  0  0
  186.1210  173.8050  136.2400 C   0  0  0  0  0  2  0  0  0  0  0  0
  188.7690  176.2940  135.7330 N   0  0  0  0  0  0  0  0  0  0  0  0
  188.4440  175.4170  134.5940 C   0  0  0  0  0  2  0  0  0  0  0  0
  186.8420  173.5200  134.9230 C   0  0  0  0  0  2  0  0  0  0  0  0
  190.1690  176.0980  136.0820 C   0  0  0  0  0  2  0  0  0  0  0  0
  190.2800  175.4810  137.4690 C   0  0  0  0  0  2  0  0  0  0  0  0
  191.2680  176.2450  138.3410 C   0  0  0  0  0  2  0  0  0  0  0  0
  189.9000  178.1780  139.9650 O   0  0  0  0  0  0  0  0  0  0  0  0
  189.8320  176.8060  141.9040 C   0  0  0  0  0  1  0  0  0  0  0  0
  190.2080  177.0760  140.4900 C   0  0  0  0  0  0  0  0  0  0  0  0
  190.9300  176.0880  139.7490 N   0  0  0  0  0  2  0  0  0  0  0  0
  181.4540  178.4060  141.2970 C   0  0  0  0  0  2  0  0  0  0  0  0
  179.0370  177.1930  138.8030 C   0  0  0  0  0  2  0  0  0  0  0  0
  179.1960  175.7530  139.2990 C   0  0  2  0  0  3  0  0  0  0  0  0
  181.5400  176.5780  139.7940 C   0  0  0  0  0  2  0  0  0  0  0  0
  179.6440  178.1690  139.8090 C   0  0  0  0  0  2  0  0  0  0  0  0
  181.0960  177.9790  139.9510 N   0  0  0  0  0  0  0  0  0  0  0  0
  180.4540  175.5610  140.1630 C   0  0  0  0  0  2  0  0  0  0  0  0
  179.5770  175.7340  136.5800 S   0  0  0  0  0  1  0  0  0  0  0  0
  179.2170  174.8110  138.1060 C   0  0  0  0  0  2  0  0  0  0  0  0
  1  6  2  0  0  0  0
  2 12  1  1  0  0  0
  3 10  2  0  0  0  0
  4 15  1  6  0  0  0
  4  8  1  0  0  0  0
  5  1  1  0  0  0  0
  7  9  1  6  0  0  0
  7  4  1  0  0  0  0
  8  1  1  0  0  0  0
  9  5  1  0  0  0  0
 11 10  1  6  0  0  0
 11  2  1  0  0  0  0
 11  7  1  0  0  0  0
 12 15  2  0  0  0  0
 13  2  1  0  0  0  0
 14  3  1  0  0  0  0
 14 13  2  0  0  0  0
 16  3  1  0  0  0  0
 17 16  1  0  0  0  0
 18 16  2  0  0  0  0
 19 17  1  0  0  0  0
 20 23  2  0  0  0  0
 23 19  1  0  0  0  0
 23 21  1  0  0  0  0
 24 20  1  0  0  0  0
 25 28  1  0  0  0  0
 25 21  1  0  0  0  0
 26 22  1  0  0  0  0
 26 25  1  0  0  0  0
 27 22  1  0  0  0  0
 27 24  1  0  0  0  0
 28 29  1  0  0  0  0
 29 30  1  0  0  0  0
 30 34  1  0  0  0  0
 31 33  2  0  0  0  0
 33 32  1  0  0  0  0
 34 33  1  0  0  0  0
 35 13  1  0  0  0  0
 36 37  1  0  0  0  0
 36 39  1  0  0  0  0
 37 43  1  6  0  0  0
 37 41  1  0  0  0  0
 38 40  1  0  0  0  0
 38 41  1  0  0  0  0
 39 40  1  0  0  0  0
 40 35  1  0  0  0  0
 42 43  1  0  0  0  0
M  END
>  <MODEL>
9

>  <REMARK>
 VINA RESULT:      -8.0      2.819      7.246
  Name = 
  10 active torsions:
  status: ('A' for Active; 'I' for Inactive)
    1  A    between atoms: C_1  and  C_34
    2  A    between atoms: C_1  and  N_35
    3  A    between atoms: C_2  and  C_13
    4  A    between atoms: N_6  and  C_17
    5  A    between atoms: C_11  and  C_14
    6  A    between atoms: C_11  and  C_36
    7  A    between atoms: C_12  and  C_17
    8  A    between atoms: C_14  and  N_22
    9  A    between atoms: C_19  and  C_37
   10  A    between atoms: C_36  and  N_40
                            x       y       z     vdW  Elec       q    Type
                         _______ _______ _______ _____ _____    ______ ____

>  <TORSDO>
F 10

$$$$
