=
 OpenBabel11052415593D

 34 39  0  0  0  0  0  0  0  0999 V2000
  187.4050  177.8340  144.8940 C   0  0  0  0  0  0  0  0  0  0  0  0
  183.7720  178.8480  145.6780 C   0  0  0  0  0  3  0  0  0  0  0  0
  185.7260  178.4840  147.0490 C   0  0  0  0  0  3  0  0  0  0  0  0
  189.7230  177.1890  144.3790 C   0  0  0  0  0  0  0  0  0  0  0  0
  188.3990  177.4870  143.9470 C   0  0  0  0  0  3  0  0  0  0  0  0
  189.0530  177.5890  146.6480 C   0  0  0  0  0  0  0  0  0  0  0  0
  189.0940  177.7190  147.9930 N   0  0  0  0  0  0  0  0  0  0  0  0
  190.0660  177.2440  145.7550 C   0  0  0  0  0  3  0  0  0  0  0  0
  187.0280  178.1660  147.2230 N   0  0  0  0  0  0  0  0  0  0  0  0
  187.8120  177.8600  146.2090 C   0  0  0  0  0  0  0  0  0  0  0  0
  187.8130  178.0790  148.3220 C   0  0  0  0  0  3  0  0  0  0  0  0
  182.9500  178.9580  144.6420 C   0  0  0  0  0  3  0  0  0  0  0  0
  183.2070  178.7500  143.2120 C   0  0  0  0  0  0  0  0  0  0  0  0
  184.3810  178.3960  142.6910 C   0  0  0  0  0  3  0  0  0  0  0  0
  185.1940  178.4880  145.7350 C   0  0  0  0  0  0  0  0  0  0  0  0
  185.6670  178.1280  143.3410 C   0  0  0  0  0  3  0  0  0  0  0  0
  186.0480  178.1570  144.6240 C   0  0  0  0  0  0  0  0  0  0  0  0
  182.0710  178.9510  142.2860 C   0  0  0  0  0  0  0  0  0  0  0  0
  180.9300  179.7000  142.6970 N   0  0  0  0  0  1  0  0  0  0  0  0
  182.0960  178.4650  141.1230 O   0  0  0  0  0  0  0  0  0  0  0  0
  190.7680  176.8520  143.3710 C   0  0  0  0  0  2  0  0  0  0  0  0
  188.9340  178.4060  140.4500 C   0  0  0  0  0  3  0  0  0  0  0  0
  190.7130  176.3130  140.9270 C   0  0  0  0  0  3  0  0  0  0  0  0
  188.2390  176.8130  137.3790 N   0  0  0  0  0  0  0  0  0  0  0  0
  189.0790  175.7480  136.9320 C   0  0  0  0  0  0  0  0  0  0  0  0
  188.8410  177.9710  138.0230 C   0  0  0  0  0  2  0  0  0  0  0  0
  188.5970  174.7520  136.3280 O   0  0  0  0  0  0  0  0  0  0  0  0
  189.3640  177.6140  139.3800 C   0  0  0  0  0  0  0  0  0  0  0  0
  186.7940  176.7550  137.2220 C   0  0  0  0  0  1  0  0  0  0  0  0
  190.7700  175.6870  138.6210 O   0  0  0  0  0  0  0  0  0  0  0  0
  190.2780  176.5490  139.6180 C   0  0  0  0  0  0  0  0  0  0  0  0
  190.5400  175.8090  137.2200 C   0  0  0  0  0  2  0  0  0  0  0  0
  190.2690  177.1050  141.9880 C   0  0  0  0  0  0  0  0  0  0  0  0
  189.3820  178.1560  141.7470 C   0  0  0  0  0  3  0  0  0  0  0  0
  1 10  1  0  0  0  0
  2 15  1  0  0  0  0
  3  9  1  0  0  0  0
  4  8  2  0  0  0  0
  5  4  1  0  0  0  0
  5  1  2  0  0  0  0
  6  7  1  0  0  0  0
  7 11  2  0  0  0  0
  8  6  1  0  0  0  0
  9 11  1  0  0  0  0
 10  6  2  0  0  0  0
 10  9  1  0  0  0  0
 12  2  2  0  0  0  0
 13 12  1  0  0  0  0
 14 13  2  0  0  0  0
 14 16  1  0  0  0  0
 15  3  2  0  0  0  0
 16 17  2  0  0  0  0
 17  1  1  0  0  0  0
 17 15  1  0  0  0  0
 18 19  1  0  0  0  0
 18 13  1  0  0  0  0
 20 18  2  0  0  0  0
 21  4  1  0  0  0  0
 22 34  1  0  0  0  0
 23 33  1  0  0  0  0
 24 26  1  0  0  0  0
 25 32  1  0  0  0  0
 25 24  1  0  0  0  0
 26 28  1  0  0  0  0
 27 25  2  0  0  0  0
 28 31  1  0  0  0  0
 28 22  2  0  0  0  0
 29 24  1  0  0  0  0
 30 31  1  0  0  0  0
 31 23  2  0  0  0  0
 32 30  1  0  0  0  0
 33 21  1  0  0  0  0
 34 33  2  0  0  0  0
M  END
>  <MODEL>
1

>  <REMARK>
 VINA RESULT:     -11.9      0.000      0.000
  Name = 
  3 active torsions:
  status: ('A' for Active; 'I' for Inactive)
    1  A    between atoms: C_3  and  C_25
    2  A    between atoms: C_8  and  C_18
    3  A    between atoms: C_18  and  C_30
                            x       y       z     vdW  Elec       q    Type
                         _______ _______ _______ _____ _____    ______ ____

>  <TORSDO>
F 3

$$$$
=
 OpenBabel11052415593D

 34 39  0  0  0  0  0  0  0  0999 V2000
  187.3580  177.8840  144.7000 C   0  0  0  0  0  0  0  0  0  0  0  0
  190.6780  176.7610  143.1000 C   0  0  0  0  0  3  0  0  0  0  0  0
  189.9340  176.9990  145.3850 C   0  0  0  0  0  3  0  0  0  0  0  0
  185.2310  178.6010  145.7080 C   0  0  0  0  0  0  0  0  0  0  0  0
  186.0250  178.3370  144.5550 C   0  0  0  0  0  3  0  0  0  0  0  0
  187.0770  177.9610  147.1010 C   0  0  0  0  0  0  0  0  0  0  0  0
  187.8260  177.6930  148.1950 N   0  0  0  0  0  0  0  0  0  0  0  0
  185.7600  178.4060  147.0110 C   0  0  0  0  0  3  0  0  0  0  0  0
  189.0080  177.3090  146.3190 N   0  0  0  0  0  0  0  0  0  0  0  0
  187.8010  177.7250  145.9940 C   0  0  0  0  0  0  0  0  0  0  0  0
  189.0270  177.2880  147.6720 C   0  0  0  0  0  3  0  0  0  0  0  0
  190.7240  176.7520  141.7740 C   0  0  0  0  0  3  0  0  0  0  0  0
  189.6910  177.1090  140.7940 C   0  0  0  0  0  0  0  0  0  0  0  0
  188.4630  177.5270  141.0990 C   0  0  0  0  0  3  0  0  0  0  0  0
  189.5900  177.1260  144.0150 C   0  0  0  0  0  0  0  0  0  0  0  0
  187.8260  177.7370  142.4020 C   0  0  0  0  0  3  0  0  0  0  0  0
  188.2710  177.5790  143.6550 C   0  0  0  0  0  0  0  0  0  0  0  0
  190.0490  176.9950  139.3640 C   0  0  0  0  0  0  0  0  0  0  0  0
  190.6930  175.8220  138.8730 N   0  0  0  0  0  1  0  0  0  0  0  0
  189.7900  177.9310  138.5600 O   0  0  0  0  0  0  0  0  0  0  0  0
  183.8190  179.0500  145.5440 C   0  0  0  0  0  2  0  0  0  0  0  0
  181.6460  178.4810  142.5010 C   0  0  0  0  0  3  0  0  0  0  0  0
  184.2910  179.1370  143.0880 C   0  0  0  0  0  3  0  0  0  0  0  0
  182.8070  177.6480  139.2740 N   0  0  0  0  0  0  0  0  0  0  0  0
  184.1280  178.0260  138.8820 C   0  0  0  0  0  0  0  0  0  0  0  0
  182.0080  178.5750  140.0620 C   0  0  0  0  0  2  0  0  0  0  0  0
  184.8310  177.2680  138.1600 O   0  0  0  0  0  0  0  0  0  0  0  0
  182.5480  178.6960  141.4530 C   0  0  0  0  0  0  0  0  0  0  0  0
  182.2540  176.3510  138.9210 C   0  0  0  0  0  1  0  0  0  0  0  0
  184.8900  179.2680  140.7770 O   0  0  0  0  0  0  0  0  0  0  0  0
  183.8970  179.0380  141.7480 C   0  0  0  0  0  0  0  0  0  0  0  0
  184.6860  179.3190  139.3680 C   0  0  0  0  0  2  0  0  0  0  0  0
  183.3830  178.9110  144.1240 C   0  0  0  0  0  0  0  0  0  0  0  0
  182.0580  178.5870  143.8290 C   0  0  0  0  0  3  0  0  0  0  0  0
  1 10  1  0  0  0  0
  2 15  1  0  0  0  0
  3  9  1  0  0  0  0
  4  8  2  0  0  0  0
  5  1  2  0  0  0  0
  5  4  1  0  0  0  0
  6  7  1  0  0  0  0
  8  6  1  0  0  0  0
  9 11  1  0  0  0  0
 10  9  1  0  0  0  0
 10  6  2  0  0  0  0
 11  7  2  0  0  0  0
 12  2  2  0  0  0  0
 13 14  2  0  0  0  0
 13 12  1  0  0  0  0
 14 16  1  0  0  0  0
 15  3  2  0  0  0  0
 16 17  2  0  0  0  0
 17 15  1  0  0  0  0
 17  1  1  0  0  0  0
 18 13  1  0  0  0  0
 19 18  1  0  0  0  0
 20 18  2  0  0  0  0
 21  4  1  0  0  0  0
 22 34  1  0  0  0  0
 23 33  1  0  0  0  0
 24 26  1  0  0  0  0
 25 24  1  0  0  0  0
 25 32  1  0  0  0  0
 26 28  1  0  0  0  0
 27 25  2  0  0  0  0
 28 31  1  0  0  0  0
 28 22  2  0  0  0  0
 29 24  1  0  0  0  0
 30 31  1  0  0  0  0
 31 23  2  0  0  0  0
 32 30  1  0  0  0  0
 33 21  1  0  0  0  0
 34 33  2  0  0  0  0
M  END
>  <MODEL>
2

>  <REMARK>
 VINA RESULT:     -11.7      1.939      6.063
  Name = 
  3 active torsions:
  status: ('A' for Active; 'I' for Inactive)
    1  A    between atoms: C_3  and  C_25
    2  A    between atoms: C_8  and  C_18
    3  A    between atoms: C_18  and  C_30
                            x       y       z     vdW  Elec       q    Type
                         _______ _______ _______ _____ _____    ______ ____

>  <TORSDO>
F 3

$$$$
=
 OpenBabel11052415593D

 34 39  0  0  0  0  0  0  0  0999 V2000
  188.3990  177.7630  144.1460 C   0  0  0  0  0  0  0  0  0  0  0  0
  191.1630  177.0980  141.5460 C   0  0  0  0  0  3  0  0  0  0  0  0
  191.0470  176.8510  143.9450 C   0  0  0  0  0  3  0  0  0  0  0  0
  186.6240  178.1890  145.7950 C   0  0  0  0  0  0  0  0  0  0  0  0
  187.0830  178.1880  144.4470 C   0  0  0  0  0  3  0  0  0  0  0  0
  188.7580  177.3500  146.5030 C   0  0  0  0  0  0  0  0  0  0  0  0
  189.7620  176.8970  147.2860 N   0  0  0  0  0  0  0  0  0  0  0  0
  187.4710  177.7580  146.8490 C   0  0  0  0  0  3  0  0  0  0  0  0
  190.4040  176.9360  145.1300 N   0  0  0  0  0  0  0  0  0  0  0  0
  189.1620  177.3660  145.2210 C   0  0  0  0  0  0  0  0  0  0  0  0
  190.7770  176.6470  146.3990 C   0  0  0  0  0  3  0  0  0  0  0  0
  190.8600  177.3550  140.2800 C   0  0  0  0  0  3  0  0  0  0  0  0
  189.6140  177.8630  139.6950 C   0  0  0  0  0  0  0  0  0  0  0  0
  188.5160  178.1680  140.3860 C   0  0  0  0  0  3  0  0  0  0  0  0
  190.3600  177.2350  142.7660 C   0  0  0  0  0  0  0  0  0  0  0  0
  188.2460  178.0920  141.8250 C   0  0  0  0  0  3  0  0  0  0  0  0
  189.0010  177.7040  142.8600 C   0  0  0  0  0  0  0  0  0  0  0  0
  189.5820  178.0480  138.2280 C   0  0  0  0  0  0  0  0  0  0  0  0
  188.8770  179.1460  137.6550 N   0  0  0  0  0  1  0  0  0  0  0  0
  190.1780  177.2400  137.4660 O   0  0  0  0  0  0  0  0  0  0  0  0
  185.2270  178.6120  146.0980 C   0  0  0  0  0  2  0  0  0  0  0  0
  182.2630  178.7760  143.7530 C   0  0  0  0  0  3  0  0  0  0  0  0
  185.0480  178.7830  143.6080 C   0  0  0  0  0  3  0  0  0  0  0  0
  182.3130  177.9600  140.3200 N   0  0  0  0  0  0  0  0  0  0  0  0
  183.5360  178.0650  139.5890 C   0  0  0  0  0  0  0  0  0  0  0  0
  181.9870  178.9770  141.3090 C   0  0  0  0  0  2  0  0  0  0  0  0
  183.8280  177.2290  138.6920 O   0  0  0  0  0  0  0  0  0  0  0  0
  182.8840  178.8660  142.5030 C   0  0  0  0  0  0  0  0  0  0  0  0
  181.4000  176.8480  140.1110 C   0  0  0  0  0  1  0  0  0  0  0  0
  185.0350  178.9580  141.2230 O   0  0  0  0  0  0  0  0  0  0  0  0
  184.3060  178.8780  142.4250 C   0  0  0  0  0  0  0  0  0  0  0  0
  184.4880  179.1620  139.9240 C   0  0  0  0  0  2  0  0  0  0  0  0
  184.4150  178.6840  144.8490 C   0  0  0  0  0  0  0  0  0  0  0  0
  183.0210  178.6850  144.9200 C   0  0  0  0  0  3  0  0  0  0  0  0
  1  5  2  0  0  0  0
  1 10  1  0  0  0  0
  2 15  1  0  0  0  0
  3  9  1  0  0  0  0
  4 21  1  0  0  0  0
  4  8  2  0  0  0  0
  5  4  1  0  0  0  0
  6  8  1  0  0  0  0
  6  7  1  0  0  0  0
  9 10  1  0  0  0  0
  9 11  1  0  0  0  0
 10  6  2  0  0  0  0
 11  7  2  0  0  0  0
 12  2  2  0  0  0  0
 13 12  1  0  0  0  0
 13 14  2  0  0  0  0
 14 16  1  0  0  0  0
 15 17  1  0  0  0  0
 15  3  2  0  0  0  0
 16 17  2  0  0  0  0
 17  1  1  0  0  0  0
 18 13  1  0  0  0  0
 19 18  1  0  0  0  0
 20 18  2  0  0  0  0
 22 34  1  0  0  0  0
 23 33  1  0  0  0  0
 24 26  1  0  0  0  0
 25 32  1  0  0  0  0
 25 24  1  0  0  0  0
 26 28  1  0  0  0  0
 27 25  2  0  0  0  0
 28 22  2  0  0  0  0
 29 24  1  0  0  0  0
 30 31  1  0  0  0  0
 31 28  1  0  0  0  0
 31 23  2  0  0  0  0
 32 30  1  0  0  0  0
 33 34  2  0  0  0  0
 33 21  1  0  0  0  0
M  END
>  <MODEL>
3

>  <REMARK>
 VINA RESULT:     -11.6      1.698      6.191
  Name = 
  3 active torsions:
  status: ('A' for Active; 'I' for Inactive)
    1  A    between atoms: C_3  and  C_25
    2  A    between atoms: C_8  and  C_18
    3  A    between atoms: C_18  and  C_30
                            x       y       z     vdW  Elec       q    Type
                         _______ _______ _______ _____ _____    ______ ____

>  <TORSDO>
F 3

$$$$
=
 OpenBabel11052415593D

 34 39  0  0  0  0  0  0  0  0999 V2000
  187.6500  177.8520  144.7830 C   0  0  0  0  0  0  0  0  0  0  0  0
  190.9860  176.8950  143.1090 C   0  0  0  0  0  3  0  0  0  0  0  0
  190.2900  177.1280  145.4100 C   0  0  0  0  0  3  0  0  0  0  0  0
  185.5140  178.4620  145.8380 C   0  0  0  0  0  0  0  0  0  0  0  0
  186.2900  178.2250  144.6680 C   0  0  0  0  0  3  0  0  0  0  0  0
  187.4300  177.9520  147.1890 C   0  0  0  0  0  0  0  0  0  0  0  0
  188.2220  177.7460  148.2660 N   0  0  0  0  0  0  0  0  0  0  0  0
  186.0870  178.3200  147.1280 C   0  0  0  0  0  3  0  0  0  0  0  0
  189.3730  177.4000  146.3640 N   0  0  0  0  0  0  0  0  0  0  0  0
  188.1360  177.7410  146.0660 C   0  0  0  0  0  0  0  0  0  0  0  0
  189.4300  177.4030  147.7170 C   0  0  0  0  0  3  0  0  0  0  0  0
  190.9970  176.8660  141.7820 C   0  0  0  0  0  3  0  0  0  0  0  0
  189.9200  177.1470  140.8260 C   0  0  0  0  0  0  0  0  0  0  0  0
  188.6780  177.4980  141.1580 C   0  0  0  0  0  3  0  0  0  0  0  0
  189.9040  177.2120  144.0480 C   0  0  0  0  0  0  0  0  0  0  0  0
  188.0650  177.6930  142.4750 C   0  0  0  0  0  3  0  0  0  0  0  0
  188.5510  177.5820  143.7170 C   0  0  0  0  0  0  0  0  0  0  0  0
  190.2450  177.0290  139.3890 C   0  0  0  0  0  0  0  0  0  0  0  0
  190.9310  175.8810  138.8960 N   0  0  0  0  0  1  0  0  0  0  0  0
  189.9200  177.9410  138.5800 O   0  0  0  0  0  0  0  0  0  0  0  0
  184.0740  178.8270  145.7060 C   0  0  0  0  0  2  0  0  0  0  0  0
  184.1250  178.2530  141.9670 C   0  0  0  0  0  3  0  0  0  0  0  0
  182.3290  179.0840  143.9310 C   0  0  0  0  0  3  0  0  0  0  0  0
  181.8900  179.6810  139.6400 N   0  0  0  0  0  0  0  0  0  0  0  0
  180.5860  180.0760  140.0670 C   0  0  0  0  0  0  0  0  0  0  0  0
  182.4620  178.4450  140.1540 C   0  0  0  0  0  2  0  0  0  0  0  0
  180.0390  181.1140  139.6060 O   0  0  0  0  0  0  0  0  0  0  0  0
  182.8160  178.5850  141.6030 C   0  0  0  0  0  0  0  0  0  0  0  0
  182.6640  180.4970  138.7190 C   0  0  0  0  0  1  0  0  0  0  0  0
  180.5580  179.3670  142.3500 O   0  0  0  0  0  0  0  0  0  0  0  0
  181.8930  179.0030  142.6030 C   0  0  0  0  0  0  0  0  0  0  0  0
  179.8840  179.2620  141.1000 C   0  0  0  0  0  2  0  0  0  0  0  0
  183.6410  178.7590  144.2800 C   0  0  0  0  0  0  0  0  0  0  0  0
  184.5380  178.3390  143.2970 C   0  0  0  0  0  3  0  0  0  0  0  0
  1 10  1  0  0  0  0
  2 15  1  0  0  0  0
  3  9  1  0  0  0  0
  4  8  2  0  0  0  0
  5  1  2  0  0  0  0
  5  4  1  0  0  0  0
  6  7  1  0  0  0  0
  8  6  1  0  0  0  0
  9 11  1  0  0  0  0
 10  9  1  0  0  0  0
 10  6  2  0  0  0  0
 11  7  2  0  0  0  0
 12  2  2  0  0  0  0
 13 14  2  0  0  0  0
 13 12  1  0  0  0  0
 14 16  1  0  0  0  0
 15  3  2  0  0  0  0
 16 17  2  0  0  0  0
 17 15  1  0  0  0  0
 17  1  1  0  0  0  0
 18 13  1  0  0  0  0
 19 18  1  0  0  0  0
 20 18  2  0  0  0  0
 21  4  1  0  0  0  0
 22 34  1  0  0  0  0
 23 33  1  0  0  0  0
 24 25  1  0  0  0  0
 24 26  1  0  0  0  0
 25 32  1  0  0  0  0
 26 28  1  0  0  0  0
 27 25  2  0  0  0  0
 28 22  2  0  0  0  0
 28 31  1  0  0  0  0
 29 24  1  0  0  0  0
 30 31  1  0  0  0  0
 31 23  2  0  0  0  0
 32 30  1  0  0  0  0
 33 21  1  0  0  0  0
 34 33  2  0  0  0  0
M  END
>  <MODEL>
4

>  <REMARK>
 VINA RESULT:     -11.6      1.731      6.914
  Name = 
  3 active torsions:
  status: ('A' for Active; 'I' for Inactive)
    1  A    between atoms: C_3  and  C_25
    2  A    between atoms: C_8  and  C_18
    3  A    between atoms: C_18  and  C_30
                            x       y       z     vdW  Elec       q    Type
                         _______ _______ _______ _____ _____    ______ ____

>  <TORSDO>
F 3

$$$$
=
 OpenBabel11052415593D

 34 39  0  0  0  0  0  0  0  0999 V2000
  186.2430  178.1770  143.6000 C   0  0  0  0  0  0  0  0  0  0  0  0
  187.6590  177.6100  147.1380 C   0  0  0  0  0  3  0  0  0  0  0  0
  185.4840  178.2450  146.3030 C   0  0  0  0  0  3  0  0  0  0  0  0
  185.3520  178.5330  141.3350 C   0  0  0  0  0  0  0  0  0  0  0  0
  186.4330  178.1940  142.1970 C   0  0  0  0  0  3  0  0  0  0  0  0
  183.9380  178.8200  143.2510 C   0  0  0  0  0  0  0  0  0  0  0  0
  182.8530  179.0720  144.0190 N   0  0  0  0  0  0  0  0  0  0  0  0
  184.0740  178.8490  141.8650 C   0  0  0  0  0  3  0  0  0  0  0  0
  184.6190  178.5320  145.3050 N   0  0  0  0  0  0  0  0  0  0  0  0
  184.9790  178.5010  144.0380 C   0  0  0  0  0  0  0  0  0  0  0  0
  183.3110  178.8840  145.2970 C   0  0  0  0  0  3  0  0  0  0  0  0
  188.9350  177.2560  147.2160 C   0  0  0  0  0  3  0  0  0  0  0  0
  189.9190  177.0410  146.1490 C   0  0  0  0  0  0  0  0  0  0  0  0
  189.6720  177.1750  144.8460 C   0  0  0  0  0  3  0  0  0  0  0  0
  186.8180  177.8990  145.9700 C   0  0  0  0  0  0  0  0  0  0  0  0
  188.4410  177.5480  144.1450 C   0  0  0  0  0  3  0  0  0  0  0  0
  187.2160  177.8610  144.5870 C   0  0  0  0  0  0  0  0  0  0  0  0
  191.2840  176.6460  146.5580 C   0  0  0  0  0  0  0  0  0  0  0  0
  191.7690  176.9720  147.8580 N   0  0  0  0  0  1  0  0  0  0  0  0
  192.0360  176.0170  145.7660 O   0  0  0  0  0  0  0  0  0  0  0  0
  185.5560  178.5200  139.8580 C   0  0  0  0  0  2  0  0  0  0  0  0
  182.3790  177.9760  137.8760 C   0  0  0  0  0  3  0  0  0  0  0  0
  183.7280  180.0680  139.1320 C   0  0  0  0  0  3  0  0  0  0  0  0
  180.5860  180.4730  136.1440 N   0  0  0  0  0  0  0  0  0  0  0  0
  180.6820  181.8330  136.5700 C   0  0  0  0  0  0  0  0  0  0  0  0
  180.5160  179.4180  137.1450 C   0  0  0  0  0  2  0  0  0  0  0  0
  180.6970  182.7750  135.7330 O   0  0  0  0  0  0  0  0  0  0  0  0
  181.8290  179.2620  137.8470 C   0  0  0  0  0  0  0  0  0  0  0  0
  180.5770  180.1200  134.7340 C   0  0  0  0  0  1  0  0  0  0  0  0
  182.0540  181.6630  138.5200 O   0  0  0  0  0  0  0  0  0  0  0  0
  182.5100  180.3310  138.4930 C   0  0  0  0  0  0  0  0  0  0  0  0
  180.8030  182.1290  138.0260 C   0  0  0  0  0  2  0  0  0  0  0  0
  184.2710  178.7820  139.1460 C   0  0  0  0  0  0  0  0  0  0  0  0
  183.5920  177.7340  138.5210 C   0  0  0  0  0  3  0  0  0  0  0  0
  1 10  1  0  0  0  0
  1 17  1  0  0  0  0
  2 12  2  0  0  0  0
  4  8  2  0  0  0  0
  4  5  1  0  0  0  0
  5  1  2  0  0  0  0
  6  7  1  0  0  0  0
  6 10  2  0  0  0  0
  7 11  2  0  0  0  0
  8  6  1  0  0  0  0
  9  3  1  0  0  0  0
 10  9  1  0  0  0  0
 11  9  1  0  0  0  0
 13 18  1  0  0  0  0
 13 12  1  0  0  0  0
 14 13  2  0  0  0  0
 15  3  2  0  0  0  0
 15  2  1  0  0  0  0
 16 17  2  0  0  0  0
 16 14  1  0  0  0  0
 17 15  1  0  0  0  0
 18 19  1  0  0  0  0
 20 18  2  0  0  0  0
 21  4  1  0  0  0  0
 22 34  1  0  0  0  0
 23 33  1  0  0  0  0
 24 25  1  0  0  0  0
 24 26  1  0  0  0  0
 25 32  1  0  0  0  0
 26 28  1  0  0  0  0
 27 25  2  0  0  0  0
 28 22  2  0  0  0  0
 28 31  1  0  0  0  0
 29 24  1  0  0  0  0
 31 30  1  0  0  0  0
 31 23  2  0  0  0  0
 32 30  1  0  0  0  0
 33 21  1  0  0  0  0
 34 33  2  0  0  0  0
M  END
>  <MODEL>
5

>  <REMARK>
 VINA RESULT:     -11.3      3.695      7.414
  Name = 
  3 active torsions:
  status: ('A' for Active; 'I' for Inactive)
    1  A    between atoms: C_3  and  C_25
    2  A    between atoms: C_8  and  C_18
    3  A    between atoms: C_18  and  C_30
                            x       y       z     vdW  Elec       q    Type
                         _______ _______ _______ _____ _____    ______ ____

>  <TORSDO>
F 3

$$$$
=
 OpenBabel11052415593D

 34 39  0  0  0  0  0  0  0  0999 V2000
  188.8480  177.5450  143.5080 C   0  0  0  0  0  0  0  0  0  0  0  0
  185.9060  178.1350  145.9240 C   0  0  0  0  0  3  0  0  0  0  0  0
  188.2410  177.6100  146.2490 C   0  0  0  0  0  3  0  0  0  0  0  0
  190.7190  177.1740  141.9540 C   0  0  0  0  0  0  0  0  0  0  0  0
  189.3450  177.4730  142.1850 C   0  0  0  0  0  3  0  0  0  0  0  0
  191.0680  177.0360  144.3230 C   0  0  0  0  0  0  0  0  0  0  0  0
  191.6690  176.8760  145.5240 N   0  0  0  0  0  0  0  0  0  0  0  0
  191.6050  176.9550  143.0400 C   0  0  0  0  0  3  0  0  0  0  0  0
  189.4850  177.3460  145.7940 N   0  0  0  0  0  0  0  0  0  0  0  0
  189.7670  177.3150  144.5080 C   0  0  0  0  0  0  0  0  0  0  0  0
  190.6540  177.0760  146.4230 C   0  0  0  0  0  3  0  0  0  0  0  0
  184.7310  178.4110  145.3720 C   0  0  0  0  0  3  0  0  0  0  0  0
  184.3620  178.5320  143.9570 C   0  0  0  0  0  0  0  0  0  0  0  0
  185.2010  178.3720  142.9340 C   0  0  0  0  0  3  0  0  0  0  0  0
  187.2100  177.8620  145.3080 C   0  0  0  0  0  0  0  0  0  0  0  0
  186.6320  178.0540  142.9180 C   0  0  0  0  0  3  0  0  0  0  0  0
  187.5130  177.8320  143.9010 C   0  0  0  0  0  0  0  0  0  0  0  0
  182.9520  178.8530  143.6520 C   0  0  0  0  0  0  0  0  0  0  0  0
  182.5210  179.0020  142.3020 N   0  0  0  0  0  1  0  0  0  0  0  0
  182.1110  179.0010  144.5800 O   0  0  0  0  0  0  0  0  0  0  0  0
  191.2380  177.1280  140.5570 C   0  0  0  0  0  2  0  0  0  0  0  0
  188.4050  178.6270  138.5470 C   0  0  0  0  0  3  0  0  0  0  0  0
  189.7960  176.2170  138.7250 C   0  0  0  0  0  3  0  0  0  0  0  0
  185.9260  176.8060  136.8180 N   0  0  0  0  0  0  0  0  0  0  0  0
  186.2110  175.4810  136.3690 C   0  0  0  0  0  0  0  0  0  0  0  0
  186.9580  177.8280  136.7150 C   0  0  0  0  0  2  0  0  0  0  0  0
  185.3260  174.5830  136.3980 O   0  0  0  0  0  0  0  0  0  0  0  0
  188.0600  177.5720  137.6960 C   0  0  0  0  0  0  0  0  0  0  0  0
  184.6360  177.1510  137.3920 C   0  0  0  0  0  1  0  0  0  0  0  0
  188.5070  175.2140  136.9790 O   0  0  0  0  0  0  0  0  0  0  0  0
  188.7730  176.3420  137.7780 C   0  0  0  0  0  0  0  0  0  0  0  0
  187.5860  175.1560  135.8940 C   0  0  0  0  0  2  0  0  0  0  0  0
  190.1250  177.2750  139.5750 C   0  0  0  0  0  0  0  0  0  0  0  0
  189.4310  178.4830  139.4810 C   0  0  0  0  0  3  0  0  0  0  0  0
  1 17  1  0  0  0  0
  1 10  1  0  0  0  0
  4  5  1  0  0  0  0
  4  8  2  0  0  0  0
  5  1  2  0  0  0  0
  6 10  2  0  0  0  0
  6  7  1  0  0  0  0
  7 11  2  0  0  0  0
  8  6  1  0  0  0  0
  9  3  1  0  0  0  0
  9 11  1  0  0  0  0
 10  9  1  0  0  0  0
 12  2  2  0  0  0  0
 13 12  1  0  0  0  0
 14 13  2  0  0  0  0
 15  2  1  0  0  0  0
 15  3  2  0  0  0  0
 16 14  1  0  0  0  0
 16 17  2  0  0  0  0
 17 15  1  0  0  0  0
 18 13  1  0  0  0  0
 18 20  2  0  0  0  0
 19 18  1  0  0  0  0
 21  4  1  0  0  0  0
 22 34  1  0  0  0  0
 23 33  1  0  0  0  0
 24 29  1  0  0  0  0
 25 27  2  0  0  0  0
 25 24  1  0  0  0  0
 26 24  1  0  0  0  0
 26 28  1  0  0  0  0
 28 31  1  0  0  0  0
 28 22  2  0  0  0  0
 30 31  1  0  0  0  0
 31 23  2  0  0  0  0
 32 25  1  0  0  0  0
 32 30  1  0  0  0  0
 33 21  1  0  0  0  0
 34 33  2  0  0  0  0
M  END
>  <MODEL>
6

>  <REMARK>
 VINA RESULT:     -11.2      1.533      2.520
  Name = 
  3 active torsions:
  status: ('A' for Active; 'I' for Inactive)
    1  A    between atoms: C_3  and  C_25
    2  A    between atoms: C_8  and  C_18
    3  A    between atoms: C_18  and  C_30
                            x       y       z     vdW  Elec       q    Type
                         _______ _______ _______ _____ _____    ______ ____

>  <TORSDO>
F 3

$$$$
=
 OpenBabel11052415593D

 34 39  0  0  0  0  0  0  0  0999 V2000
  189.0740  177.6970  143.7870 C   0  0  0  0  0  0  0  0  0  0  0  0
  185.8760  177.9360  145.9230 C   0  0  0  0  0  3  0  0  0  0  0  0
  188.1900  177.4800  146.4440 C   0  0  0  0  0  3  0  0  0  0  0  0
  191.1080  177.5490  142.4120 C   0  0  0  0  0  0  0  0  0  0  0  0
  189.7050  177.7680  142.5220 C   0  0  0  0  0  3  0  0  0  0  0  0
  191.2230  177.2050  144.7830 C   0  0  0  0  0  0  0  0  0  0  0  0
  191.7070  176.9590  146.0220 N   0  0  0  0  0  0  0  0  0  0  0  0
  191.8900  177.2670  143.5620 C   0  0  0  0  0  3  0  0  0  0  0  0
  189.4860  177.3110  146.1010 N   0  0  0  0  0  0  0  0  0  0  0  0
  189.8970  177.4120  144.8540 C   0  0  0  0  0  0  0  0  0  0  0  0
  190.5970  177.0320  146.8230 C   0  0  0  0  0  3  0  0  0  0  0  0
  184.7510  178.2140  145.2770 C   0  0  0  0  0  3  0  0  0  0  0  0
  184.5210  178.4510  143.8470 C   0  0  0  0  0  0  0  0  0  0  0  0
  185.4660  178.4220  142.9080 C   0  0  0  0  0  3  0  0  0  0  0  0
  187.2480  177.7760  145.4260 C   0  0  0  0  0  0  0  0  0  0  0  0
  186.9050  178.1660  143.0140 C   0  0  0  0  0  3  0  0  0  0  0  0
  187.6920  177.8900  144.0610 C   0  0  0  0  0  0  0  0  0  0  0  0
  183.1340  178.7410  143.4250 C   0  0  0  0  0  0  0  0  0  0  0  0
  182.7960  178.7900  142.0410 N   0  0  0  0  0  1  0  0  0  0  0  0
  182.2320  178.9490  144.2810 O   0  0  0  0  0  0  0  0  0  0  0  0
  191.7680  177.6550  141.0790 C   0  0  0  0  0  2  0  0  0  0  0  0
  190.2390  175.6600  138.2510 C   0  0  0  0  0  3  0  0  0  0  0  0
  189.6690  177.9440  139.7460 C   0  0  0  0  0  3  0  0  0  0  0  0
  187.8820  176.8740  135.9210 N   0  0  0  0  0  0  0  0  0  0  0  0
  187.0310  177.9620  136.2830 C   0  0  0  0  0  0  0  0  0  0  0  0
  188.1770  175.8440  136.9080 C   0  0  0  0  0  2  0  0  0  0  0  0
  186.7160  178.8450  135.4410 O   0  0  0  0  0  0  0  0  0  0  0  0
  189.0680  176.3790  137.9860 C   0  0  0  0  0  0  0  0  0  0  0  0
  188.4760  176.7840  134.5970 C   0  0  0  0  0  1  0  0  0  0  0  0
  187.6280  178.3440  138.5660 O   0  0  0  0  0  0  0  0  0  0  0  0
  188.7700  177.5420  138.7510 C   0  0  0  0  0  0  0  0  0  0  0  0
  186.5430  178.0640  137.6870 C   0  0  0  0  0  2  0  0  0  0  0  0
  190.8380  177.2230  139.9950 C   0  0  0  0  0  0  0  0  0  0  0  0
  191.1200  176.0770  139.2490 C   0  0  0  0  0  3  0  0  0  0  0  0
  1 17  1  0  0  0  0
  1 10  1  0  0  0  0
  4  5  1  0  0  0  0
  4  8  2  0  0  0  0
  5  1  2  0  0  0  0
  6 10  2  0  0  0  0
  6  7  1  0  0  0  0
  7 11  2  0  0  0  0
  8  6  1  0  0  0  0
  9  3  1  0  0  0  0
  9 11  1  0  0  0  0
 10  9  1  0  0  0  0
 12  2  2  0  0  0  0
 13 12  1  0  0  0  0
 14 16  1  0  0  0  0
 14 13  2  0  0  0  0
 15  2  1  0  0  0  0
 15  3  2  0  0  0  0
 16 17  2  0  0  0  0
 17 15  1  0  0  0  0
 18 13  1  0  0  0  0
 18 20  2  0  0  0  0
 19 18  1  0  0  0  0
 21  4  1  0  0  0  0
 22 34  1  0  0  0  0
 23 33  1  0  0  0  0
 24 25  1  0  0  0  0
 24 26  1  0  0  0  0
 25 32  1  0  0  0  0
 26 28  1  0  0  0  0
 27 25  2  0  0  0  0
 28 22  2  0  0  0  0
 28 31  1  0  0  0  0
 29 24  1  0  0  0  0
 30 31  1  0  0  0  0
 31 23  2  0  0  0  0
 32 30  1  0  0  0  0
 33 21  1  0  0  0  0
 34 33  2  0  0  0  0
M  END
>  <MODEL>
7

>  <REMARK>
 VINA RESULT:     -11.2      1.759      2.728
  Name = 
  3 active torsions:
  status: ('A' for Active; 'I' for Inactive)
    1  A    between atoms: C_3  and  C_25
    2  A    between atoms: C_8  and  C_18
    3  A    between atoms: C_18  and  C_30
                            x       y       z     vdW  Elec       q    Type
                         _______ _______ _______ _____ _____    ______ ____

>  <TORSDO>
F 3

$$$$
=
 OpenBabel11052415593D

 34 39  0  0  0  0  0  0  0  0999 V2000
  184.3900  178.6580  142.3850 C   0  0  0  0  0  0  0  0  0  0  0  0
  184.5980  178.6260  138.5380 C   0  0  0  0  0  3  0  0  0  0  0  0
  182.7730  178.8830  140.1000 C   0  0  0  0  0  3  0  0  0  0  0  0
  184.2720  178.6780  144.8420 C   0  0  0  0  0  0  0  0  0  0  0  0
  185.0330  178.5720  143.6430 C   0  0  0  0  0  3  0  0  0  0  0  0
  182.2810  178.9570  143.5320 C   0  0  0  0  0  0  0  0  0  0  0  0
  180.9860  179.1430  143.1910 N   0  0  0  0  0  0  0  0  0  0  0  0
  182.8680  178.8810  144.7940 C   0  0  0  0  0  3  0  0  0  0  0  0
  182.2650  178.9550  141.3500 N   0  0  0  0  0  0  0  0  0  0  0  0
  183.0260  178.8470  142.4200 C   0  0  0  0  0  0  0  0  0  0  0  0
  181.0090  179.1360  141.8210 C   0  0  0  0  0  3  0  0  0  0  0  0
  185.8040  178.4580  138.0110 C   0  0  0  0  0  3  0  0  0  0  0  0
  187.1020  178.2790  138.6700 C   0  0  0  0  0  0  0  0  0  0  0  0
  187.2900  178.2530  139.9890 C   0  0  0  0  0  3  0  0  0  0  0  0
  184.1690  178.6870  139.9400 C   0  0  0  0  0  0  0  0  0  0  0  0
  186.3310  178.3870  141.0900 C   0  0  0  0  0  3  0  0  0  0  0  0
  185.0050  178.5710  141.1070 C   0  0  0  0  0  0  0  0  0  0  0  0
  188.2850  178.1140  137.7990 C   0  0  0  0  0  0  0  0  0  0  0  0
  189.0010  179.2540  137.3310 N   0  0  0  0  0  1  0  0  0  0  0  0
  188.6770  176.9650  137.4580 O   0  0  0  0  0  0  0  0  0  0  0  0
  184.9630  178.6150  146.1620 C   0  0  0  0  0  2  0  0  0  0  0  0
  188.6700  178.2230  146.8080 C   0  0  0  0  0  3  0  0  0  0  0  0
  186.7970  177.5010  144.8730 C   0  0  0  0  0  3  0  0  0  0  0  0
  191.1210  177.5480  144.3600 N   0  0  0  0  0  0  0  0  0  0  0  0
  190.7480  176.8710  143.1590 C   0  0  0  0  0  0  0  0  0  0  0  0
  190.5360  177.1240  145.6240 C   0  0  0  0  0  2  0  0  0  0  0  0
  191.2700  177.1790  142.0540 O   0  0  0  0  0  0  0  0  0  0  0  0
  189.0860  177.4920  145.6900 C   0  0  0  0  0  0  0  0  0  0  0  0
  192.0550  178.6610  144.3440 C   0  0  0  0  0  1  0  0  0  0  0  0
  188.4380  176.3880  143.5380 O   0  0  0  0  0  0  0  0  0  0  0  0
  188.1320  177.1150  144.7030 C   0  0  0  0  0  0  0  0  0  0  0  0
  189.7010  175.8120  143.2180 C   0  0  0  0  0  2  0  0  0  0  0  0
  186.3970  178.2390  145.9890 C   0  0  0  0  0  0  0  0  0  0  0  0
  187.3350  178.5950  146.9590 C   0  0  0  0  0  3  0  0  0  0  0  0
  1 10  2  0  0  0  0
  1  5  1  0  0  0  0
  2 15  1  0  0  0  0
  3  9  1  0  0  0  0
  4 21  1  0  0  0  0
  5  4  2  0  0  0  0
  6  8  2  0  0  0  0
  7  6  1  0  0  0  0
  8  4  1  0  0  0  0
  9 11  1  0  0  0  0
  9 10  1  0  0  0  0
 10  6  1  0  0  0  0
 11  7  2  0  0  0  0
 12  2  2  0  0  0  0
 12 13  1  0  0  0  0
 13 14  2  0  0  0  0
 14 16  1  0  0  0  0
 15  3  2  0  0  0  0
 15 17  1  0  0  0  0
 16 17  2  0  0  0  0
 17  1  1  0  0  0  0
 18 13  1  0  0  0  0
 19 18  1  0  0  0  0
 20 18  2  0  0  0  0
 22 34  1  0  0  0  0
 23 33  1  0  0  0  0
 24 26  1  0  0  0  0
 25 32  1  0  0  0  0
 25 24  1  0  0  0  0
 26 28  1  0  0  0  0
 27 25  2  0  0  0  0
 28 22  2  0  0  0  0
 29 24  1  0  0  0  0
 30 31  1  0  0  0  0
 31 23  2  0  0  0  0
 31 28  1  0  0  0  0
 32 30  1  0  0  0  0
 33 21  1  0  0  0  0
 33 34  2  0  0  0  0
M  END
>  <MODEL>
8

>  <REMARK>
 VINA RESULT:     -11.0      2.296      6.726
  Name = 
  3 active torsions:
  status: ('A' for Active; 'I' for Inactive)
    1  A    between atoms: C_3  and  C_25
    2  A    between atoms: C_8  and  C_18
    3  A    between atoms: C_18  and  C_30
                            x       y       z     vdW  Elec       q    Type
                         _______ _______ _______ _____ _____    ______ ____

>  <TORSDO>
F 3

$$$$
=
 OpenBabel11052415593D

 34 39  0  0  0  0  0  0  0  0999 V2000
  188.7300  177.8010  141.7820 C   0  0  0  0  0  0  0  0  0  0  0  0
  187.1920  177.8480  145.3140 C   0  0  0  0  0  3  0  0  0  0  0  0
  189.4030  177.3630  144.4730 C   0  0  0  0  0  3  0  0  0  0  0  0
  189.6990  177.7780  139.5210 C   0  0  0  0  0  0  0  0  0  0  0  0
  188.5850  177.9800  140.3850 C   0  0  0  0  0  3  0  0  0  0  0  0
  191.0560  177.2400  141.4260 C   0  0  0  0  0  0  0  0  0  0  0  0
  192.1190  176.8960  142.1870 N   0  0  0  0  0  0  0  0  0  0  0  0
  190.9640  177.4060  140.0450 C   0  0  0  0  0  3  0  0  0  0  0  0
  190.3040  177.2290  143.4750 N   0  0  0  0  0  0  0  0  0  0  0  0
  189.9850  177.4340  142.2140 C   0  0  0  0  0  0  0  0  0  0  0  0
  191.6170  176.8970  143.4620 C   0  0  0  0  0  3  0  0  0  0  0  0
  185.9080  178.1730  145.3980 C   0  0  0  0  0  3  0  0  0  0  0  0
  184.9560  178.5250  144.3390 C   0  0  0  0  0  0  0  0  0  0  0  0
  185.2460  178.5780  143.0390 C   0  0  0  0  0  3  0  0  0  0  0  0
  188.0750  177.7370  144.1470 C   0  0  0  0  0  0  0  0  0  0  0  0
  186.5060  178.3220  142.3350 C   0  0  0  0  0  3  0  0  0  0  0  0
  187.7210  177.9640  142.7700 C   0  0  0  0  0  0  0  0  0  0  0  0
  183.5730  178.8420  144.7520 C   0  0  0  0  0  0  0  0  0  0  0  0
  182.5270  178.9040  143.7860 N   0  0  0  0  0  1  0  0  0  0  0  0
  183.2980  179.0620  145.9630 O   0  0  0  0  0  0  0  0  0  0  0  0
  189.5430  177.9960  138.0540 C   0  0  0  0  0  2  0  0  0  0  0  0
  186.0240  177.5380  136.7440 C   0  0  0  0  0  3  0  0  0  0  0  0
  188.2400  175.9690  137.3790 C   0  0  0  0  0  3  0  0  0  0  0  0
  184.1520  174.5490  136.8870 N   0  0  0  0  0  0  0  0  0  0  0  0
  184.8330  173.2950  136.9420 C   0  0  0  0  0  0  0  0  0  0  0  0
  184.6730  175.6020  136.0260 C   0  0  0  0  0  2  0  0  0  0  0  0
  184.3840  172.3450  137.6390 O   0  0  0  0  0  0  0  0  0  0  0  0
  185.9540  176.1510  136.5720 C   0  0  0  0  0  0  0  0  0  0  0  0
  182.9650  174.8030  137.6860 C   0  0  0  0  0  1  0  0  0  0  0  0
  187.1260  173.9460  136.7610 O   0  0  0  0  0  0  0  0  0  0  0  0
  187.0860  175.3470  136.8880 C   0  0  0  0  0  0  0  0  0  0  0  0
  186.1090  173.1280  136.1900 C   0  0  0  0  0  2  0  0  0  0  0  0
  188.2920  177.3530  137.5550 C   0  0  0  0  0  0  0  0  0  0  0  0
  187.1840  178.1380  137.2320 C   0  0  0  0  0  3  0  0  0  0  0  0
  1 10  1  0  0  0  0
  1 17  1  0  0  0  0
  2 12  2  0  0  0  0
  4  8  2  0  0  0  0
  4  5  1  0  0  0  0
  5  1  2  0  0  0  0
  6  7  1  0  0  0  0
  6 10  2  0  0  0  0
  7 11  2  0  0  0  0
  8  6  1  0  0  0  0
  9  3  1  0  0  0  0
 10  9  1  0  0  0  0
 11  9  1  0  0  0  0
 13 18  1  0  0  0  0
 13 12  1  0  0  0  0
 14 13  2  0  0  0  0
 15  3  2  0  0  0  0
 15  2  1  0  0  0  0
 16 17  2  0  0  0  0
 16 14  1  0  0  0  0
 17 15  1  0  0  0  0
 18 20  2  0  0  0  0
 19 18  1  0  0  0  0
 21  4  1  0  0  0  0
 22 34  1  0  0  0  0
 23 33  1  0  0  0  0
 24 25  1  0  0  0  0
 24 29  1  0  0  0  0
 25 27  2  0  0  0  0
 26 28  1  0  0  0  0
 26 24  1  0  0  0  0
 28 22  2  0  0  0  0
 28 31  1  0  0  0  0
 30 31  1  0  0  0  0
 31 23  2  0  0  0  0
 32 30  1  0  0  0  0
 32 25  1  0  0  0  0
 33 21  1  0  0  0  0
 34 33  2  0  0  0  0
M  END
>  <MODEL>
9

>  <REMARK>
 VINA RESULT:     -11.0      2.532      4.461
  Name = 
  3 active torsions:
  status: ('A' for Active; 'I' for Inactive)
    1  A    between atoms: C_3  and  C_25
    2  A    between atoms: C_8  and  C_18
    3  A    between atoms: C_18  and  C_30
                            x       y       z     vdW  Elec       q    Type
                         _______ _______ _______ _____ _____    ______ ____

>  <TORSDO>
F 3

$$$$
