=
 OpenBabel11052413263D

 28 33  0  0  1  0  0  0  0  0999 V2000
  187.8090  177.3830  143.8110 C   0  0  0  0  0  0  0  0  0  0  0  0
  189.2200  176.8370  143.7290 C   0  0  1  0  0  3  0  0  0  0  0  0
  189.0120  177.2450  141.2070 C   0  0  2  0  0  3  0  0  0  0  0  0
  186.5880  177.6070  138.0170 C   0  0  0  0  0  3  0  0  0  0  0  0
  183.8480  178.8190  144.2560 N   0  0  0  0  0  1  0  0  0  0  0  0
  190.6920  178.6580  143.8970 C   0  0  1  0  0  3  0  0  0  0  0  0
  189.9450  177.1240  142.4110 C   0  0  1  0  0  3  0  0  0  0  0  0
  191.1380  176.5450  145.2380 C   0  0  0  0  0  1  0  0  0  0  0  0
  189.6070  177.7490  137.5660 C   0  0  0  0  0  3  0  0  0  0  0  0
  187.0810  178.6610  140.2030 C   0  0  2  0  0  3  0  0  0  0  0  0
  190.0930  177.5350  144.7320 C   0  0  2  0  0  3  0  0  0  0  0  0
  187.7830  177.6190  135.8680 C   0  0  0  0  0  0  0  0  0  0  0  0
  187.5100  177.9550  138.9260 C   0  0  0  0  0  0  0  0  0  0  0  0
  189.8280  177.5430  139.9520 C   0  0  0  0  0  2  0  0  0  0  0  0
  189.0160  177.9700  136.2320 C   0  0  0  0  0  3  0  0  0  0  0  0
  185.8800  178.5590  142.8910 C   0  0  0  0  0  0  0  0  0  0  0  0
  187.9630  178.3360  141.4530 C   0  0  1  0  0  3  0  0  0  0  0  0
  188.9630  177.6780  138.7410 C   0  0  0  0  0  0  0  0  0  0  0  0
  185.7840  177.6330  145.1280 C   0  0  0  0  0  3  0  0  0  0  0  0
  185.2280  179.2970  141.7660 C   0  0  0  0  0  2  0  0  0  0  0  0
  185.1800  178.3400  144.0900 C   0  0  0  0  0  0  0  0  0  0  0  0
  192.0330  179.1750  144.3990 C   0  0  0  0  0  1  0  0  0  0  0  0
  187.3380  177.9400  134.5940 O   0  0  0  0  0  1  0  0  0  0  0  0
  186.8890  176.8430  136.7720 C   0  0  0  0  0  2  0  0  0  0  0  0
  185.5670  178.6000  140.4630 C   0  0  0  0  0  2  0  0  0  0  0  0
  187.0850  177.1560  144.9880 C   0  0  0  0  0  3  0  0  0  0  0  0
  187.1970  178.0750  142.7400 C   0  0  0  0  0  0  0  0  0  0  0  0
  190.7750  178.2580  142.5520 O   0  0  0  0  0  0  0  0  0  0  0  0
  1 26  1  0  0  0  0
  2  1  1  6  0  0  0
  2 11  1  0  0  0  0
  3 14  1  6  0  0  0
  3 17  1  0  0  0  0
  3  7  1  0  0  0  0
  4 13  2  0  0  0  0
  6 22  1  1  0  0  0
  6 11  1  0  0  0  0
  7 28  1  1  0  0  0
  7  2  1  0  0  0  0
  9 18  2  0  0  0  0
 10 25  1  1  0  0  0
 10 17  1  0  0  0  0
 11  8  1  6  0  0  0
 12 15  2  0  0  0  0
 12 24  1  0  0  0  0
 13 10  1  0  0  0  0
 15  9  1  0  0  0  0
 16 21  2  0  0  0  0
 17 27  1  1  0  0  0
 18 13  1  0  0  0  0
 18 14  1  0  0  0  0
 20 16  1  0  0  0  0
 21  5  1  0  0  0  0
 21 19  1  0  0  0  0
 23 12  1  0  0  0  0
 24  4  1  0  0  0  0
 25 20  1  0  0  0  0
 26 19  2  0  0  0  0
 27 16  1  0  0  0  0
 27  1  2  0  0  0  0
 28  6  1  0  0  0  0
M  END
>  <MODEL>
1

>  <REMARK>
 VINA RESULT:     -10.2      0.000      0.000
  Name = 
  0 active torsions:
  status: ('A' for Active; 'I' for Inactive)
                            x       y       z     vdW  Elec       q    Type
                         _______ _______ _______ _____ _____    ______ ____

>  <TORSDO>
F 0

$$$$
=
 OpenBabel11052413263D

 28 33  0  0  1  0  0  0  0  0999 V2000
  184.8500  177.8210  138.3990 C   0  0  0  0  0  0  0  0  0  0  0  0
  183.3790  177.8480  138.7630 C   0  0  1  0  0  3  0  0  0  0  0  0
  184.1910  178.1540  141.1750 C   0  0  2  0  0  3  0  0  0  0  0  0
  187.1280  177.5850  143.8630 C   0  0  0  0  0  3  0  0  0  0  0  0
  188.9010  177.6580  137.1740 N   0  0  0  0  0  1  0  0  0  0  0  0
  182.6810  180.0880  138.7180 C   0  0  1  0  0  3  0  0  0  0  0  0
  183.0710  178.3910  140.1610 C   0  0  1  0  0  3  0  0  0  0  0  0
  181.2420  178.2960  137.6320 C   0  0  0  0  0  1  0  0  0  0  0  0
  184.5180  178.8560  144.8160 C   0  0  0  0  0  3  0  0  0  0  0  0
  186.6600  178.7410  141.7240 C   0  0  2  0  0  3  0  0  0  0  0  0
  182.6540  178.8200  137.8770 C   0  0  2  0  0  3  0  0  0  0  0  0
  186.4480  178.0540  146.1790 C   0  0  0  0  0  0  0  0  0  0  0  0
  186.2480  178.2530  143.1040 C   0  0  0  0  0  0  0  0  0  0  0  0
  183.7940  178.7420  142.5260 C   0  0  0  0  0  2  0  0  0  0  0  0
  185.3880  178.8420  146.0090 C   0  0  0  0  0  3  0  0  0  0  0  0
  187.2120  178.1860  138.8840 C   0  0  0  0  0  0  0  0  0  0  0  0
  185.5030  178.7690  140.6720 C   0  0  1  0  0  3  0  0  0  0  0  0
  184.8570  178.5440  143.5570 C   0  0  0  0  0  0  0  0  0  0  0  0
  186.5380  177.2850  136.7380 C   0  0  0  0  0  3  0  0  0  0  0  0
  188.2890  178.6280  139.8230 C   0  0  0  0  0  2  0  0  0  0  0  0
  187.5430  177.7160  137.6020 C   0  0  0  0  0  0  0  0  0  0  0  0
  181.5570  181.0710  138.4180 C   0  0  0  0  0  1  0  0  0  0  0  0
  187.2100  178.1870  147.3310 O   0  0  0  0  0  1  0  0  0  0  0  0
  186.8060  176.9950  145.1940 C   0  0  0  0  0  2  0  0  0  0  0  0
  187.9670  178.1130  141.2120 C   0  0  0  0  0  2  0  0  0  0  0  0
  185.2040  177.3350  137.1350 C   0  0  0  0  0  3  0  0  0  0  0  0
  185.8630  178.2350  139.2950 C   0  0  0  0  0  0  0  0  0  0  0  0
  182.7090  179.7530  140.0830 O   0  0  0  0  0  0  0  0  0  0  0  0
  1 27  1  0  0  0  0
  2  1  1  6  0  0  0
  2  7  1  0  0  0  0
  3 14  1  1  0  0  0
  4 24  1  0  0  0  0
  5 21  1  0  0  0  0
  6 22  1  1  0  0  0
  6 28  1  0  0  0  0
  7 28  1  6  0  0  0
  7  3  1  0  0  0  0
  9 15  1  0  0  0  0
 10 25  1  6  0  0  0
 10 13  1  0  0  0  0
 11  8  1  1  0  0  0
 11  6  1  0  0  0  0
 11  2  1  0  0  0  0
 12 23  1  0  0  0  0
 13 18  1  0  0  0  0
 13  4  2  0  0  0  0
 14 18  1  0  0  0  0
 15 12  2  0  0  0  0
 16 27  2  0  0  0  0
 16 20  1  0  0  0  0
 17 27  1  6  0  0  0
 17  3  1  0  0  0  0
 17 10  1  0  0  0  0
 18  9  2  0  0  0  0
 19 26  1  0  0  0  0
 19 21  2  0  0  0  0
 20 25  1  0  0  0  0
 21 16  1  0  0  0  0
 24 12  1  0  0  0  0
 26  1  2  0  0  0  0
M  END
>  <MODEL>
2

>  <REMARK>
 VINA RESULT:      -9.6      3.212      7.898
  Name = 
  0 active torsions:
  status: ('A' for Active; 'I' for Inactive)
                            x       y       z     vdW  Elec       q    Type
                         _______ _______ _______ _____ _____    ______ ____

>  <TORSDO>
F 0

$$$$
=
 OpenBabel11052413263D

 28 33  0  0  1  0  0  0  0  0999 V2000
  188.5100  176.9210  145.5340 C   0  0  0  0  0  0  0  0  0  0  0  0
  188.7890  176.3770  144.1470 C   0  0  1  0  0  3  0  0  0  0  0  0
  186.5340  177.4150  143.5090 C   0  0  2  0  0  3  0  0  0  0  0  0
  182.8970  178.6350  144.7190 C   0  0  0  0  0  3  0  0  0  0  0  0
  187.8970  178.2990  149.4920 N   0  0  0  0  0  1  0  0  0  0  0  0
  189.8990  178.0570  142.9400 C   0  0  1  0  0  3  0  0  0  0  0  0
  187.9180  176.9690  143.0360 C   0  0  1  0  0  3  0  0  0  0  0  0
  190.7480  175.6630  142.8440 C   0  0  0  0  0  1  0  0  0  0  0  0
  183.5680  178.8090  141.7420 C   0  0  0  0  0  3  0  0  0  0  0  0
  185.3060  179.0890  145.0690 C   0  0  2  0  0  3  0  0  0  0  0  0
  190.1710  176.7750  143.7150 C   0  0  2  0  0  3  0  0  0  0  0  0
  181.3680  179.1600  142.8660 C   0  0  0  0  0  0  0  0  0  0  0  0
  184.1250  178.7180  144.1860 C   0  0  0  0  0  0  0  0  0  0  0  0
  185.7540  178.0000  142.3350 C   0  0  0  0  0  2  0  0  0  0  0  0
  182.2100  179.3760  141.8560 C   0  0  0  0  0  3  0  0  0  0  0  0
  187.3000  178.3400  147.1050 C   0  0  0  0  0  0  0  0  0  0  0  0
  186.6630  178.4350  144.6460 C   0  0  1  0  0  3  0  0  0  0  0  0
  184.3920  178.4590  142.7420 C   0  0  0  0  0  0  0  0  0  0  0  0
  189.0640  176.8810  147.8980 C   0  0  0  0  0  3  0  0  0  0  0  0
  186.2370  179.3560  147.3800 C   0  0  0  0  0  2  0  0  0  0  0  0
  188.0890  177.8430  148.1560 C   0  0  0  0  0  0  0  0  0  0  0  0
  190.9450  178.3960  141.8870 C   0  0  0  0  0  1  0  0  0  0  0  0
  180.1390  179.8040  142.8700 O   0  0  0  0  0  1  0  0  0  0  0  0
  181.6860  178.2040  143.9630 C   0  0  0  0  0  2  0  0  0  0  0  0
  185.0030  179.0030  146.5730 C   0  0  0  0  0  2  0  0  0  0  0  0
  189.2700  176.4220  146.5990 C   0  0  0  0  0  3  0  0  0  0  0  0
  187.4990  177.8770  145.7870 C   0  0  0  0  0  0  0  0  0  0  0  0
  188.6120  178.0090  142.3780 O   0  0  0  0  0  0  0  0  0  0  0  0
  1 27  2  0  0  0  0
  1 26  1  0  0  0  0
  2  1  1  1  0  0  0
  3 14  1  6  0  0  0
  3 17  1  0  0  0  0
  6 22  1  6  0  0  0
  6 11  1  0  0  0  0
  7 28  1  1  0  0  0
  7  3  1  0  0  0  0
  7  2  1  0  0  0  0
  9 15  1  0  0  0  0
  9 18  2  0  0  0  0
 10 25  1  1  0  0  0
 11  8  1  6  0  0  0
 11  2  1  0  0  0  0
 12 23  1  0  0  0  0
 12 24  1  0  0  0  0
 13  4  2  0  0  0  0
 13 10  1  0  0  0  0
 14 18  1  0  0  0  0
 15 12  2  0  0  0  0
 16 20  1  0  0  0  0
 16 21  2  0  0  0  0
 17 10  1  0  0  0  0
 17 27  1  1  0  0  0
 18 13  1  0  0  0  0
 19 21  1  0  0  0  0
 21  5  1  0  0  0  0
 24  4  1  0  0  0  0
 25 20  1  0  0  0  0
 26 19  2  0  0  0  0
 27 16  1  0  0  0  0
 28  6  1  0  0  0  0
M  END
>  <MODEL>
3

>  <REMARK>
 VINA RESULT:      -9.3      3.521      5.571
  Name = 
  0 active torsions:
  status: ('A' for Active; 'I' for Inactive)
                            x       y       z     vdW  Elec       q    Type
                         _______ _______ _______ _____ _____    ______ ____

>  <TORSDO>
F 0

$$$$
=
 OpenBabel11052413263D

 28 33  0  0  1  0  0  0  0  0999 V2000
  182.6130  178.0060  139.9030 C   0  0  0  0  0  0  0  0  0  0  0  0
  181.3400  177.9340  140.7220 C   0  0  1  0  0  3  0  0  0  0  0  0
  182.8720  178.2420  142.7530 C   0  0  2  0  0  3  0  0  0  0  0  0
  186.5470  177.8050  144.3280 C   0  0  0  0  0  3  0  0  0  0  0  0
  186.0520  178.1220  137.4330 N   0  0  0  0  0  1  0  0  0  0  0  0
  180.5470  180.1260  140.9920 C   0  0  1  0  0  3  0  0  0  0  0  0
  181.4730  178.4280  142.1650 C   0  0  1  0  0  3  0  0  0  0  0  0
  178.9310  178.2690  140.3580 C   0  0  0  0  0  1  0  0  0  0  0  0
  184.3230  178.8900  146.1200 C   0  0  0  0  0  3  0  0  0  0  0  0
  185.3510  178.9720  142.5010 C   0  0  2  0  0  3  0  0  0  0  0  0
  180.3170  178.8760  140.1550 C   0  0  2  0  0  3  0  0  0  0  0  0
  186.6290  178.1830  146.7570 C   0  0  0  0  0  0  0  0  0  0  0  0
  185.4340  178.4310  143.9200 C   0  0  0  0  0  0  0  0  0  0  0  0
  182.9020  178.7760  144.1820 C   0  0  0  0  0  2  0  0  0  0  0  0
  185.5310  178.9070  146.9680 C   0  0  0  0  0  3  0  0  0  0  0  0
  184.9820  178.5090  139.6150 C   0  0  0  0  0  0  0  0  0  0  0  0
  183.9160  178.9480  141.8800 C   0  0  1  0  0  3  0  0  0  0  0  0
  184.2520  178.6260  144.8070 C   0  0  0  0  0  0  0  0  0  0  0  0
  183.6980  177.6110  137.7670 C   0  0  0  0  0  3  0  0  0  0  0  0
  186.2800  178.9990  140.1740 C   0  0  0  0  0  2  0  0  0  0  0  0
  184.9050  178.0860  138.2770 C   0  0  0  0  0  0  0  0  0  0  0  0
  179.3370  181.0430  141.1090 C   0  0  0  0  0  1  0  0  0  0  0  0
  187.7160  178.3410  147.6060 O   0  0  0  0  0  1  0  0  0  0  0  0
  186.7040  177.1690  145.6680 C   0  0  0  0  0  2  0  0  0  0  0  0
  186.4520  178.4380  141.5710 C   0  0  0  0  0  2  0  0  0  0  0  0
  182.5630  177.5690  138.5740 C   0  0  0  0  0  3  0  0  0  0  0  0
  183.8380  178.4650  140.4400 C   0  0  0  0  0  0  0  0  0  0  0  0
  181.0330  179.7670  142.2610 O   0  0  0  0  0  0  0  0  0  0  0  0
  1 27  1  0  0  0  0
  2  1  1  6  0  0  0
  2  7  1  0  0  0  0
  3 14  1  1  0  0  0
  4 24  1  0  0  0  0
  5 21  1  0  0  0  0
  6 22  1  1  0  0  0
  6 28  1  0  0  0  0
  7 28  1  6  0  0  0
  7  3  1  0  0  0  0
  9 15  1  0  0  0  0
 10 25  1  6  0  0  0
 10 13  1  0  0  0  0
 11  8  1  1  0  0  0
 11  2  1  0  0  0  0
 11  6  1  0  0  0  0
 12 15  2  0  0  0  0
 12 23  1  0  0  0  0
 13  4  2  0  0  0  0
 13 18  1  0  0  0  0
 14 18  1  0  0  0  0
 16 20  1  0  0  0  0
 16 27  2  0  0  0  0
 17 27  1  6  0  0  0
 17 10  1  0  0  0  0
 17  3  1  0  0  0  0
 18  9  2  0  0  0  0
 19 21  2  0  0  0  0
 19 26  1  0  0  0  0
 20 25  1  0  0  0  0
 21 16  1  0  0  0  0
 24 12  1  0  0  0  0
 26  1  2  0  0  0  0
M  END
>  <MODEL>
4

>  <REMARK>
 VINA RESULT:      -8.9      3.879      8.392
  Name = 
  0 active torsions:
  status: ('A' for Active; 'I' for Inactive)
                            x       y       z     vdW  Elec       q    Type
                         _______ _______ _______ _____ _____    ______ ____

>  <TORSDO>
F 0

$$$$
=
 OpenBabel11052413263D

 28 33  0  0  1  0  0  0  0  0999 V2000
  187.8310  177.4280  145.1830 C   0  0  0  0  0  0  0  0  0  0  0  0
  189.0020  176.9610  144.3430 C   0  0  1  0  0  3  0  0  0  0  0  0
  187.5270  177.5440  142.3290 C   0  0  2  0  0  3  0  0  0  0  0  0
  183.8080  178.0210  140.8740 C   0  0  0  0  0  3  0  0  0  0  0  0
  184.6540  178.6280  147.7150 N   0  0  0  0  0  1  0  0  0  0  0  0
  190.3440  178.8340  143.8970 C   0  0  1  0  0  3  0  0  0  0  0  0
  188.9470  177.3800  142.8710 C   0  0  1  0  0  3  0  0  0  0  0  0
  191.4250  176.6530  144.6270 C   0  0  0  0  0  1  0  0  0  0  0  0
  186.1660  178.3460  138.9580 C   0  0  0  0  0  3  0  0  0  0  0  0
  185.3480  178.9330  142.5850 C   0  0  2  0  0  3  0  0  0  0  0  0
  190.2630  177.6240  144.8160 C   0  0  2  0  0  3  0  0  0  0  0  0
  183.7300  178.2530  138.4270 C   0  0  0  0  0  0  0  0  0  0  0  0
  185.0640  178.3460  141.2110 C   0  0  0  0  0  0  0  0  0  0  0  0
  187.5820  177.9750  140.8670 C   0  0  0  0  0  2  0  0  0  0  0  0
  184.9730  178.6370  138.1390 C   0  0  0  0  0  3  0  0  0  0  0  0
  185.6980  178.5710  145.4880 C   0  0  0  0  0  0  0  0  0  0  0  0
  186.7480  178.5600  143.1730 C   0  0  1  0  0  3  0  0  0  0  0  0
  186.2170  178.1560  140.2850 C   0  0  0  0  0  0  0  0  0  0  0  0
  186.7680  177.4770  147.3660 C   0  0  0  0  0  3  0  0  0  0  0  0
  184.5580  179.3580  144.9240 C   0  0  0  0  0  2  0  0  0  0  0  0
  185.7140  178.2290  146.8500 C   0  0  0  0  0  0  0  0  0  0  0  0
  191.7500  179.3790  143.6870 C   0  0  0  0  0  1  0  0  0  0  0  0
  182.6920  178.6450  137.5940 O   0  0  0  0  0  1  0  0  0  0  0  0
  183.4300  177.3680  139.5880 C   0  0  0  0  0  2  0  0  0  0  0  0
  184.1830  178.7770  143.5750 C   0  0  0  0  0  2  0  0  0  0  0  0
  187.8150  177.0780  146.5380 C   0  0  0  0  0  3  0  0  0  0  0  0
  186.7530  178.1660  144.6410 C   0  0  0  0  0  0  0  0  0  0  0  0
  189.7270  178.5410  142.6690 O   0  0  0  0  0  0  0  0  0  0  0  0
  1 26  1  0  0  0  0
  2 11  1  0  0  0  0
  2  1  1  1  0  0  0
  3 14  1  6  0  0  0
  3  7  1  0  0  0  0
  3 17  1  0  0  0  0
  4 13  2  0  0  0  0
  6 22  1  6  0  0  0
  6 11  1  0  0  0  0
  7 28  1  1  0  0  0
  7  2  1  0  0  0  0
  9 18  2  0  0  0  0
 10 17  1  0  0  0  0
 10 25  1  1  0  0  0
 11  8  1  6  0  0  0
 12 24  1  0  0  0  0
 13 10  1  0  0  0  0
 15 12  2  0  0  0  0
 15  9  1  0  0  0  0
 16 21  2  0  0  0  0
 17 27  1  1  0  0  0
 18 14  1  0  0  0  0
 18 13  1  0  0  0  0
 20 16  1  0  0  0  0
 21 19  1  0  0  0  0
 21  5  1  0  0  0  0
 23 12  1  0  0  0  0
 24  4  1  0  0  0  0
 25 20  1  0  0  0  0
 26 19  2  0  0  0  0
 27  1  2  0  0  0  0
 27 16  1  0  0  0  0
 28  6  1  0  0  0  0
M  END
>  <MODEL>
5

>  <REMARK>
 VINA RESULT:      -8.5      2.122      2.915
  Name = 
  0 active torsions:
  status: ('A' for Active; 'I' for Inactive)
                            x       y       z     vdW  Elec       q    Type
                         _______ _______ _______ _____ _____    ______ ____

>  <TORSDO>
F 0

$$$$
=
 OpenBabel11052413263D

 28 33  0  0  1  0  0  0  0  0999 V2000
  187.8560  177.6980  142.9710 C   0  0  0  0  0  0  0  0  0  0  0  0
  189.1360  177.2060  143.6160 C   0  0  1  0  0  3  0  0  0  0  0  0
  189.9520  176.8160  141.2170 C   0  0  2  0  0  3  0  0  0  0  0  0
  188.9860  176.0980  137.3790 C   0  0  0  0  0  3  0  0  0  0  0  0
  184.1730  179.0540  141.3780 N   0  0  0  0  0  1  0  0  0  0  0  0
  190.5840  179.0440  143.8050 C   0  0  1  0  0  3  0  0  0  0  0  0
  190.3350  177.1030  142.6690 C   0  0  1  0  0  3  0  0  0  0  0  0
  190.2910  177.4590  145.7710 C   0  0  0  0  0  1  0  0  0  0  0  0
  191.9450  176.2070  138.1320 C   0  0  0  0  0  3  0  0  0  0  0  0
  188.6890  177.7860  139.1670 C   0  0  2  0  0  3  0  0  0  0  0  0
  189.6130  178.2080  144.6270 C   0  0  2  0  0  3  0  0  0  0  0  0
  190.9130  175.4980  135.9740 C   0  0  0  0  0  0  0  0  0  0  0  0
  189.5140  176.7410  138.4310 C   0  0  0  0  0  0  0  0  0  0  0  0
  191.2110  176.7470  140.3580 C   0  0  0  0  0  2  0  0  0  0  0  0
  191.9360  175.9890  136.6730 C   0  0  0  0  0  3  0  0  0  0  0  0
  186.5410  178.4650  141.0650 C   0  0  0  0  0  0  0  0  0  0  0  0
  188.9900  177.8910  140.6980 C   0  0  1  0  0  3  0  0  0  0  0  0
  190.8960  176.4740  138.9230 C   0  0  0  0  0  0  0  0  0  0  0  0
  185.5100  178.2620  143.2480 C   0  0  0  0  0  3  0  0  0  0  0  0
  186.4410  178.8000  139.6110 C   0  0  0  0  0  2  0  0  0  0  0  0
  185.4180  178.5960  141.8980 C   0  0  0  0  0  0  0  0  0  0  0  0
  191.6680  179.7390  144.6180 C   0  0  0  0  0  1  0  0  0  0  0  0
  191.0230  175.3980  134.5950 O   0  0  0  0  0  1  0  0  0  0  0  0
  189.6750  175.0030  136.6390 C   0  0  0  0  0  2  0  0  0  0  0  0
  187.1930  177.7520  138.8150 C   0  0  0  0  0  2  0  0  0  0  0  0
  186.7180  177.8140  143.7790 C   0  0  0  0  0  3  0  0  0  0  0  0
  187.7680  178.0070  141.5940 C   0  0  0  0  0  0  0  0  0  0  0  0
  191.1430  178.2560  142.7850 O   0  0  0  0  0  0  0  0  0  0  0  0
  1 26  1  0  0  0  0
  2  1  1  6  0  0  0
  2 11  1  0  0  0  0
  3 14  1  6  0  0  0
  3  7  1  0  0  0  0
  4 13  2  0  0  0  0
  5 21  1  0  0  0  0
  6 22  1  1  0  0  0
  6 11  1  0  0  0  0
  7 28  1  6  0  0  0
  7  2  1  0  0  0  0
  9 18  2  0  0  0  0
 10 25  1  1  0  0  0
 10 17  1  0  0  0  0
 11  8  1  1  0  0  0
 12 24  1  0  0  0  0
 12 15  2  0  0  0  0
 13 18  1  0  0  0  0
 13 10  1  0  0  0  0
 15  9  1  0  0  0  0
 16 27  1  0  0  0  0
 16 21  2  0  0  0  0
 17  3  1  0  0  0  0
 17 27  1  1  0  0  0
 18 14  1  0  0  0  0
 19 26  2  0  0  0  0
 20 16  1  0  0  0  0
 21 19  1  0  0  0  0
 23 12  1  0  0  0  0
 24  4  1  0  0  0  0
 25 20  1  0  0  0  0
 27  1  2  0  0  0  0
 28  6  1  0  0  0  0
M  END
>  <MODEL>
6

>  <REMARK>
 VINA RESULT:      -8.4      1.735      2.217
  Name = 
  0 active torsions:
  status: ('A' for Active; 'I' for Inactive)
                            x       y       z     vdW  Elec       q    Type
                         _______ _______ _______ _____ _____    ______ ____

>  <TORSDO>
F 0

$$$$
=
 OpenBabel11052413263D

 28 33  0  0  1  0  0  0  0  0999 V2000
  187.2550  178.6050  141.2120 C   0  0  0  0  0  0  0  0  0  0  0  0
  188.4920  178.6380  140.3390 C   0  0  1  0  0  3  0  0  0  0  0  0
  189.6920  177.6030  142.3530 C   0  0  2  0  0  3  0  0  0  0  0  0
  189.8100  177.1010  146.3420 C   0  0  0  0  0  3  0  0  0  0  0  0
  183.6930  178.6600  143.5050 N   0  0  0  0  0  1  0  0  0  0  0  0
  188.6180  176.5830  139.2130 C   0  0  1  0  0  3  0  0  0  0  0  0
  189.6540  177.7720  140.8340 C   0  0  1  0  0  3  0  0  0  0  0  0
  189.0110  178.7470  137.9380 C   0  0  0  0  0  1  0  0  0  0  0  0
  192.0670  175.9060  144.6650 C   0  0  0  0  0  3  0  0  0  0  0  0
  188.3850  176.6270  144.3730 C   0  0  2  0  0  3  0  0  0  0  0  0
  188.1870  178.0270  139.0020 C   0  0  2  0  0  3  0  0  0  0  0  0
  191.9050  176.0960  147.1470 C   0  0  0  0  0  0  0  0  0  0  0  0
  189.7420  176.7630  145.0460 C   0  0  0  0  0  0  0  0  0  0  0  0
  190.8720  176.7160  142.7410 C   0  0  0  0  0  2  0  0  0  0  0  0
  192.3740  175.5020  146.0510 C   0  0  0  0  0  3  0  0  0  0  0  0
  186.0000  177.8710  143.1710 C   0  0  0  0  0  0  0  0  0  0  0  0
  188.3710  177.0100  142.8570 C   0  0  1  0  0  3  0  0  0  0  0  0
  190.9560  176.5100  144.2180 C   0  0  0  0  0  0  0  0  0  0  0  0
  184.9850  179.3880  141.5780 C   0  0  0  0  0  3  0  0  0  0  0  0
  185.9210  177.0770  144.4360 C   0  0  0  0  0  2  0  0  0  0  0  0
  184.8990  178.6330  142.7460 C   0  0  0  0  0  0  0  0  0  0  0  0
  189.0060  175.8450  137.9390 C   0  0  0  0  0  1  0  0  0  0  0  0
  192.2320  175.5740  148.3910 O   0  0  0  0  0  1  0  0  0  0  0  0
  191.0850  177.3380  147.0780 C   0  0  0  0  0  2  0  0  0  0  0  0
  187.2280  177.2260  145.1890 C   0  0  0  0  0  2  0  0  0  0  0  0
  186.1540  179.3760  140.8200 C   0  0  0  0  0  3  0  0  0  0  0  0
  187.1900  177.8570  142.4110 C   0  0  0  0  0  0  0  0  0  0  0  0
  189.6510  176.5290  140.1630 O   0  0  0  0  0  0  0  0  0  0  0  0
  1 27  1  0  0  0  0
  2  7  1  0  0  0  0
  2  1  1  1  0  0  0
  3 14  1  6  0  0  0
  3 17  1  0  0  0  0
  4 24  1  0  0  0  0
  6 22  1  6  0  0  0
  6 28  1  0  0  0  0
  7 28  1  6  0  0  0
  7  3  1  0  0  0  0
  9 15  1  0  0  0  0
 10 13  1  0  0  0  0
 10 25  1  1  0  0  0
 11  8  1  6  0  0  0
 11  6  1  0  0  0  0
 11  2  1  0  0  0  0
 12 23  1  0  0  0  0
 13  4  2  0  0  0  0
 14 18  1  0  0  0  0
 15 12  2  0  0  0  0
 16 20  1  0  0  0  0
 17 27  1  1  0  0  0
 17 10  1  0  0  0  0
 18  9  2  0  0  0  0
 18 13  1  0  0  0  0
 19 21  2  0  0  0  0
 20 25  1  0  0  0  0
 21 16  1  0  0  0  0
 21  5  1  0  0  0  0
 24 12  1  0  0  0  0
 26  1  2  0  0  0  0
 26 19  1  0  0  0  0
 27 16  2  0  0  0  0
M  END
>  <MODEL>
7

>  <REMARK>
 VINA RESULT:      -8.4      1.871      6.472
  Name = 
  0 active torsions:
  status: ('A' for Active; 'I' for Inactive)
                            x       y       z     vdW  Elec       q    Type
                         _______ _______ _______ _____ _____    ______ ____

>  <TORSDO>
F 0

$$$$
=
 OpenBabel11052413263D

 28 33  0  0  1  0  0  0  0  0999 V2000
  184.3680  179.0300  143.0230 C   0  0  0  0  0  0  0  0  0  0  0  0
  184.0990  179.3780  141.5730 C   0  0  1  0  0  3  0  0  0  0  0  0
  186.5020  178.5920  141.1520 C   0  0  2  0  0  3  0  0  0  0  0  0
  190.1930  178.0130  142.6440 C   0  0  0  0  0  3  0  0  0  0  0  0
  184.9310  178.1830  147.1350 N   0  0  0  0  0  1  0  0  0  0  0  0
  183.2870  177.4430  140.5210 C   0  0  1  0  0  3  0  0  0  0  0  0
  185.1010  178.7930  140.5740 C   0  0  1  0  0  3  0  0  0  0  0  0
  182.1410  179.6760  140.1160 C   0  0  0  0  0  1  0  0  0  0  0  0
  189.7190  177.4300  139.6820 C   0  0  0  0  0  3  0  0  0  0  0  0
  187.8470  177.2780  142.9430 C   0  0  2  0  0  3  0  0  0  0  0  0
  182.8070  178.7520  141.1320 C   0  0  2  0  0  3  0  0  0  0  0  0
  191.8790  177.5030  140.9290 C   0  0  0  0  0  0  0  0  0  0  0  0
  189.0180  177.7080  142.0730 C   0  0  0  0  0  0  0  0  0  0  0  0
  187.4170  177.9950  140.0860 C   0  0  0  0  0  2  0  0  0  0  0  0
  191.1310  177.0670  139.9160 C   0  0  0  0  0  3  0  0  0  0  0  0
  185.6620  177.9660  144.7960 C   0  0  0  0  0  0  0  0  0  0  0  0
  186.4430  177.6930  142.3920 C   0  0  1  0  0  3  0  0  0  0  0  0
  188.8020  177.7710  140.6000 C   0  0  0  0  0  0  0  0  0  0  0  0
  183.6810  179.2500  145.3420 C   0  0  0  0  0  3  0  0  0  0  0  0
  186.8300  177.1380  145.2290 C   0  0  0  0  0  2  0  0  0  0  0  0
  184.7560  178.4620  145.7490 C   0  0  0  0  0  0  0  0  0  0  0  0
  182.3550  176.8540  139.4710 C   0  0  0  0  0  1  0  0  0  0  0  0
  193.1800  177.0350  141.0580 O   0  0  0  0  0  1  0  0  0  0  0  0
  191.3780  178.5200  141.8950 C   0  0  0  0  0  2  0  0  0  0  0  0
  188.0510  177.5660  144.4400 C   0  0  0  0  0  2  0  0  0  0  0  0
  183.4910  179.5340  143.9910 C   0  0  0  0  0  3  0  0  0  0  0  0
  185.4790  178.2530  143.4260 C   0  0  0  0  0  0  0  0  0  0  0  0
  184.5860  177.6040  140.0120 O   0  0  0  0  0  0  0  0  0  0  0  0
  1 27  2  0  0  0  0
  1 26  1  0  0  0  0
  2  1  1  1  0  0  0
  3 14  1  6  0  0  0
  3 17  1  0  0  0  0
  6 22  1  6  0  0  0
  6 11  1  0  0  0  0
  7 28  1  1  0  0  0
  7  3  1  0  0  0  0
  7  2  1  0  0  0  0
  9 15  1  0  0  0  0
  9 18  2  0  0  0  0
 10 25  1  1  0  0  0
 11  8  1  6  0  0  0
 11  2  1  0  0  0  0
 12 23  1  0  0  0  0
 12 24  1  0  0  0  0
 13  4  2  0  0  0  0
 13 10  1  0  0  0  0
 14 18  1  0  0  0  0
 15 12  2  0  0  0  0
 16 20  1  0  0  0  0
 16 21  2  0  0  0  0
 17 10  1  0  0  0  0
 17 27  1  1  0  0  0
 18 13  1  0  0  0  0
 19 21  1  0  0  0  0
 21  5  1  0  0  0  0
 24  4  1  0  0  0  0
 25 20  1  0  0  0  0
 26 19  2  0  0  0  0
 27 16  1  0  0  0  0
 28  6  1  0  0  0  0
M  END
>  <MODEL>
8

>  <REMARK>
 VINA RESULT:      -7.9      2.287      5.548
  Name = 
  0 active torsions:
  status: ('A' for Active; 'I' for Inactive)
                            x       y       z     vdW  Elec       q    Type
                         _______ _______ _______ _____ _____    ______ ____

>  <TORSDO>
F 0

$$$$
=
 OpenBabel11052413263D

 28 33  0  0  1  0  0  0  0  0999 V2000
  190.4110  176.2460  137.3240 C   0  0  0  0  0  0  0  0  0  0  0  0
  188.9030  176.3180  137.4620 C   0  0  1  0  0  3  0  0  0  0  0  0
  189.3610  176.8850  139.9190 C   0  0  2  0  0  3  0  0  0  0  0  0
  191.8620  176.6050  143.0570 C   0  0  0  0  0  3  0  0  0  0  0  0
  194.5940  175.9360  136.7340 N   0  0  0  0  0  1  0  0  0  0  0  0
  188.2620  178.5420  137.0730 C   0  0  1  0  0  3  0  0  0  0  0  0
  188.4060  177.0120  138.7330 C   0  0  1  0  0  3  0  0  0  0  0  0
  186.9640  176.6450  135.9870 C   0  0  0  0  0  1  0  0  0  0  0  0
  189.1660  177.9810  143.4720 C   0  0  0  0  0  3  0  0  0  0  0  0
  191.7340  177.5210  140.7590 C   0  0  2  0  0  3  0  0  0  0  0  0
  188.3350  177.1890  136.3790 C   0  0  2  0  0  3  0  0  0  0  0  0
  190.8600  177.3280  145.1830 C   0  0  0  0  0  0  0  0  0  0  0  0
  191.1150  177.1880  142.1080 C   0  0  0  0  0  0  0  0  0  0  0  0
  188.7810  177.6180  141.1250 C   0  0  0  0  0  2  0  0  0  0  0  0
  189.8510  178.0960  144.7740 C   0  0  0  0  0  3  0  0  0  0  0  0
  192.6840  176.6550  138.1080 C   0  0  0  0  0  0  0  0  0  0  0  0
  190.7430  177.4370  139.5520 C   0  0  1  0  0  3  0  0  0  0  0  0
  189.6790  177.5320  142.3170 C   0  0  0  0  0  0  0  0  0  0  0  0
  192.3130  175.5260  135.9970 C   0  0  0  0  0  3  0  0  0  0  0  0
  193.6200  177.1940  139.1430 C   0  0  0  0  0  2  0  0  0  0  0  0
  193.1890  176.0460  136.9480 C   0  0  0  0  0  0  0  0  0  0  0  0
  187.2140  179.4890  136.5060 C   0  0  0  0  0  1  0  0  0  0  0  0
  191.4490  177.5840  146.4130 O   0  0  0  0  0  1  0  0  0  0  0  0
  191.3370  176.1660  144.3810 C   0  0  0  0  0  2  0  0  0  0  0  0
  193.0890  176.8360  140.5160 C   0  0  0  0  0  2  0  0  0  0  0  0
  190.9360  175.6230  136.1850 C   0  0  0  0  0  3  0  0  0  0  0  0
  191.2900  176.7530  138.3090 C   0  0  0  0  0  0  0  0  0  0  0  0
  188.0850  178.3590  138.4540 O   0  0  0  0  0  0  0  0  0  0  0  0
  1 27  1  0  0  0  0
  2  1  1  1  0  0  0
  2  7  1  0  0  0  0
  3 14  1  1  0  0  0
  4 24  1  0  0  0  0
  5 21  1  0  0  0  0
  6 22  1  6  0  0  0
  6 28  1  0  0  0  0
  7 28  1  6  0  0  0
  7  3  1  0  0  0  0
  9 15  1  0  0  0  0
 10 25  1  6  0  0  0
 10 13  1  0  0  0  0
 11  8  1  1  0  0  0
 11  6  1  0  0  0  0
 11  2  1  0  0  0  0
 12 23  1  0  0  0  0
 13 18  1  0  0  0  0
 13  4  2  0  0  0  0
 14 18  1  0  0  0  0
 15 12  2  0  0  0  0
 16 27  2  0  0  0  0
 16 20  1  0  0  0  0
 17 27  1  6  0  0  0
 17  3  1  0  0  0  0
 17 10  1  0  0  0  0
 18  9  2  0  0  0  0
 19 26  1  0  0  0  0
 19 21  2  0  0  0  0
 20 25  1  0  0  0  0
 21 16  1  0  0  0  0
 24 12  1  0  0  0  0
 26  1  2  0  0  0  0
M  END
>  <MODEL>
9

>  <REMARK>
 VINA RESULT:      -7.5      3.403      8.002
  Name = 
  0 active torsions:
  status: ('A' for Active; 'I' for Inactive)
                            x       y       z     vdW  Elec       q    Type
                         _______ _______ _______ _____ _____    ______ ____

>  <TORSDO>
F 0

$$$$
