=
 OpenBabel11052415393D

 34 38  0  0  1  0  0  0  0  0999 V2000
  190.9160  176.3740  139.0280 C   0  0  1  0  0  3  0  0  0  0  0  0
  191.9120  174.3160  135.8210 C   0  0  0  0  0  2  0  0  0  0  0  0
  190.1220  175.9940  136.2420 C   0  0  0  0  0  2  0  0  0  0  0  0
  191.7160  177.0780  139.9330 O   0  0  0  0  0  1  0  0  0  0  0  0
  189.2070  178.3560  138.8370 C   0  0  2  0  0  3  0  0  0  0  0  0
  188.2490  178.7100  137.7120 C   0  0  0  0  0  2  0  0  0  0  0  0
  189.2590  176.5910  137.2510 N   0  0  1  0  0  0  0  0  0  0  0  0
  190.1070  177.3360  138.1600 C   0  0  2  0  0  3  0  0  0  0  0  0
  188.4330  177.6250  136.6510 C   0  0  0  0  0  2  0  0  0  0  0  0
  193.2890  173.9460  136.3720 C   0  0  0  0  0  2  0  0  0  0  0  0
  194.0140  175.1710  136.9570 C   0  0  2  0  0  3  0  0  0  0  0  0
  190.9970  174.9170  136.8980 C   0  0  2  0  0  3  0  0  0  0  0  0
  193.0710  176.1630  137.6530 C   0  0  0  0  0  2  0  0  0  0  0  0
  191.7830  175.4770  138.1190 C   0  0  1  0  0  3  0  0  0  0  0  0
  188.3930  177.7500  139.9780 C   0  0  0  0  0  2  0  0  0  0  0  0
  188.3880  178.6610  141.2000 C   0  0  0  0  0  2  0  0  0  0  0  0
  190.6270  177.5250  142.5920 O   0  0  0  0  0  0  0  0  0  0  0  0
  186.9310  177.9330  144.4870 C   0  0  0  0  0  2  0  0  0  0  0  0
  190.3980  176.5150  146.7600 C   0  0  2  0  0  3  0  0  0  0  0  0
  190.6340  177.0090  145.3340 C   0  0  0  0  0  2  0  0  0  0  0  0
  189.3250  176.9700  144.5420 C   0  0  1  0  0  3  0  0  0  0  0  0
  188.3170  177.8820  142.4290 N   0  0  0  0  0  0  0  0  0  0  0  0
  188.0320  177.3450  146.6700 C   0  0  0  0  0  2  0  0  0  0  0  0
  188.2670  177.8370  145.2450 C   0  0  2  0  0  3  0  0  0  0  0  0
  189.3400  177.3700  147.4570 C   0  0  0  0  0  2  0  0  0  0  0  0
  187.0090  177.5670  142.9970 C   0  0  0  0  0  2  0  0  0  0  0  0
  189.4920  177.4740  143.1410 C   0  0  0  0  0  0  0  0  0  0  0  0
  191.6730  176.5440  147.5320 C   0  0  0  0  0  0  0  0  0  0  0  0
  191.8710  177.4570  148.3740 O   0  0  0  0  0  1  0  0  0  0  0  0
  192.6440  175.5700  147.3290 O   0  0  0  0  0  0  0  0  0  0  0  0
  194.8030  175.9060  135.8830 C   0  0  0  0  0  2  0  0  0  0  0  0
  196.2540  175.4550  135.8590 C   0  0  1  0  0  3  0  0  0  0  0  0
  197.1000  176.5630  135.9060 O   0  0  0  0  0  1  0  0  0  0  0  0
  196.5230  174.5740  137.0620 C   0  0  0  0  0  1  0  0  0  0  0  0
  1  4  1  1  0  0  0
  2 10  1  0  0  0  0
  2 12  1  0  0  0  0
  3 12  1  0  0  0  0
  5 15  1  1  0  0  0
  6  5  1  0  0  0  0
  7  3  1  6  0  0  0
  7  8  1  0  0  0  0
  8  5  1  0  0  0  0
  8  1  1  0  0  0  0
  9  7  1  0  0  0  0
  9  6  1  0  0  0  0
 10 11  1  0  0  0  0
 11 13  1  0  0  0  0
 12 14  1  0  0  0  0
 13 14  1  0  0  0  0
 14  1  1  0  0  0  0
 15 16  1  0  0  0  0
 16 22  1  0  0  0  0
 17 27  2  0  0  0  0
 18 24  1  0  0  0  0
 19 25  1  0  0  0  0
 19 28  1  0  0  0  0
 20 19  1  0  0  0  0
 21 24  1  0  0  0  0
 21 20  1  0  0  0  0
 22 26  1  0  0  0  0
 22 27  1  0  0  0  0
 23 25  1  0  0  0  0
 24 23  1  0  0  0  0
 26 18  1  0  0  0  0
 27 21  1  0  0  0  0
 28 29  1  0  0  0  0
 30 28  2  0  0  0  0
 31 11  1  0  0  0  0
 32 31  1  0  0  0  0
 32 33  1  0  0  0  0
 32 34  1  0  0  0  0
M  END
>  <MODEL>
1

>  <REMARK>
 VINA RESULT:      -9.3      0.000      0.000
  Name = 
  6 active torsions:
  status: ('A' for Active; 'I' for Inactive)
    1  A    between atoms: C_3  and  C_25
    2  A    between atoms: C_7  and  C_11
    3  A    between atoms: C_8  and  C_17
    4  A    between atoms: C_8  and  N_18
    5  A    between atoms: C_10  and  C_17
    6  A    between atoms: C_25  and  C_27
                            x       y       z     vdW  Elec       q    Type
                         _______ _______ _______ _____ _____    ______ ____

>  <TORSDO>
F 6

$$$$
=
 OpenBabel11052415393D

 34 38  0  0  1  0  0  0  0  0999 V2000
  183.1600  179.1590  139.7690 C   0  0  1  0  0  3  0  0  0  0  0  0
  179.6110  178.9810  138.0710 C   0  0  0  0  0  2  0  0  0  0  0  0
  180.3470  178.7430  140.4370 C   0  0  0  0  0  2  0  0  0  0  0  0
  184.1990  180.0780  139.5930 O   0  0  0  0  0  1  0  0  0  0  0  0
  183.3600  179.2760  142.3840 C   0  0  2  0  0  3  0  0  0  0  0  0
  182.3210  178.9850  143.4520 C   0  0  0  0  0  2  0  0  0  0  0  0
  181.4470  178.3660  141.3130 N   0  0  1  0  0  0  0  0  0  0  0  0
  182.4990  179.3460  141.1330 C   0  0  2  0  0  3  0  0  0  0  0  0
  181.0630  178.5490  142.7030 C   0  0  0  0  0  2  0  0  0  0  0  0
  180.0900  179.6500  136.7840 C   0  0  0  0  0  2  0  0  0  0  0  0
  180.9220  180.9120  137.0760 C   0  0  2  0  0  3  0  0  0  0  0  0
  180.7780  178.5580  138.9760 C   0  0  2  0  0  3  0  0  0  0  0  0
  181.7960  180.7880  138.3320 C   0  0  0  0  0  2  0  0  0  0  0  0
  182.0970  179.3230  138.6630 C   0  0  1  0  0  3  0  0  0  0  0  0
  184.3440  178.1080  142.3490 C   0  0  0  0  0  2  0  0  0  0  0  0
  185.7550  178.5610  142.7020 C   0  0  0  0  0  2  0  0  0  0  0  0
  188.2410  177.1780  143.0920 O   0  0  0  0  0  0  0  0  0  0  0  0
  186.0070  178.4980  146.3610 C   0  0  0  0  0  2  0  0  0  0  0  0
  189.9510  176.7020  147.0020 C   0  0  2  0  0  3  0  0  0  0  0  0
  189.5190  176.9800  145.5640 C   0  0  0  0  0  2  0  0  0  0  0  0
  187.9960  177.1050  145.4880 C   0  0  1  0  0  3  0  0  0  0  0  0
  186.2010  177.9530  143.9480 N   0  0  0  0  0  0  0  0  0  0  0  0
  187.9530  177.9570  147.8570 C   0  0  0  0  0  2  0  0  0  0  0  0
  187.5220  178.2330  146.4200 C   0  0  2  0  0  3  0  0  0  0  0  0
  189.4720  177.8180  147.9320 C   0  0  0  0  0  2  0  0  0  0  0  0
  185.3080  177.9600  145.1030 C   0  0  0  0  0  2  0  0  0  0  0  0
  187.5180  177.4090  144.1010 C   0  0  0  0  0  0  0  0  0  0  0  0
  191.4350  176.5710  147.0780 C   0  0  0  0  0  0  0  0  0  0  0  0
  192.0630  176.0410  146.1270 O   0  0  0  0  0  0  0  0  0  0  0  0
  192.1280  177.0310  148.1920 O   0  0  0  0  0  1  0  0  0  0  0  0
  180.0310  182.1370  137.2090 C   0  0  0  0  0  2  0  0  0  0  0  0
  180.4870  183.2540  136.2840 C   0  0  1  0  0  3  0  0  0  0  0  0
  181.6000  183.8980  136.8250 O   0  0  0  0  0  1  0  0  0  0  0  0
  180.8580  182.6680  134.9380 C   0  0  0  0  0  1  0  0  0  0  0  0
  1  4  1  6  0  0  0
  1  8  1  0  0  0  0
  2 12  1  0  0  0  0
  5 15  1  6  0  0  0
  5  6  1  0  0  0  0
  7  3  1  6  0  0  0
  7  9  1  0  0  0  0
  8  7  1  0  0  0  0
  8  5  1  0  0  0  0
  9  6  1  0  0  0  0
 10 11  1  0  0  0  0
 10  2  1  0  0  0  0
 11 31  1  0  0  0  0
 11 13  1  0  0  0  0
 12  3  1  0  0  0  0
 13 14  1  0  0  0  0
 14 12  1  0  0  0  0
 14  1  1  0  0  0  0
 15 16  1  0  0  0  0
 16 22  1  0  0  0  0
 17 27  2  0  0  0  0
 18 24  1  0  0  0  0
 19 28  1  0  0  0  0
 19 25  1  0  0  0  0
 20 19  1  0  0  0  0
 21 20  1  0  0  0  0
 21 24  1  0  0  0  0
 22 27  1  0  0  0  0
 22 26  1  0  0  0  0
 23 25  1  0  0  0  0
 24 23  1  0  0  0  0
 26 18  1  0  0  0  0
 27 21  1  0  0  0  0
 28 30  1  0  0  0  0
 29 28  2  0  0  0  0
 32 33  1  0  0  0  0
 32 31  1  0  0  0  0
 34 32  1  0  0  0  0
M  END
>  <MODEL>
2

>  <REMARK>
 VINA RESULT:      -9.3      6.411      9.143
  Name = 
  6 active torsions:
  status: ('A' for Active; 'I' for Inactive)
    1  A    between atoms: C_3  and  C_25
    2  A    between atoms: C_7  and  C_11
    3  A    between atoms: C_8  and  C_17
    4  A    between atoms: C_8  and  N_18
    5  A    between atoms: C_10  and  C_17
    6  A    between atoms: C_25  and  C_27
                            x       y       z     vdW  Elec       q    Type
                         _______ _______ _______ _____ _____    ______ ____

>  <TORSDO>
F 6

$$$$
=
 OpenBabel11052415393D

 34 38  0  0  1  0  0  0  0  0999 V2000
  183.6120  179.0190  140.1490 C   0  0  1  0  0  3  0  0  0  0  0  0
  179.8750  179.2800  138.9330 C   0  0  0  0  0  2  0  0  0  0  0  0
  180.8880  179.1080  141.2010 C   0  0  0  0  0  2  0  0  0  0  0  0
  184.7410  179.7430  139.7560 O   0  0  0  0  0  1  0  0  0  0  0  0
  184.1870  179.3010  142.6940 C   0  0  2  0  0  3  0  0  0  0  0  0
  183.2750  179.2620  143.9070 C   0  0  0  0  0  2  0  0  0  0  0  0
  182.0300  178.6290  141.9640 N   0  0  1  0  0  0  0  0  0  0  0  0
  183.1810  179.4120  141.5600 C   0  0  2  0  0  3  0  0  0  0  0  0
  181.8740  178.9770  143.3660 C   0  0  0  0  0  2  0  0  0  0  0  0
  180.2650  179.7640  137.5370 C   0  0  0  0  0  2  0  0  0  0  0  0
  181.3070  180.8950  137.5990 C   0  0  2  0  0  3  0  0  0  0  0  0
  181.0800  178.7470  139.7210 C   0  0  2  0  0  3  0  0  0  0  0  0
  182.3190  180.7300  138.7420 C   0  0  0  0  0  2  0  0  0  0  0  0
  182.4410  179.2640  139.1730 C   0  0  1  0  0  3  0  0  0  0  0  0
  184.9730  177.9920  142.6500 C   0  0  0  0  0  2  0  0  0  0  0  0
  185.6120  177.6840  143.9980 C   0  0  0  0  0  2  0  0  0  0  0  0
  187.4010  177.8570  146.2370 O   0  0  0  0  0  0  0  0  0  0  0  0
  188.8280  176.8320  142.4510 C   0  0  0  0  0  2  0  0  0  0  0  0
  191.5350  176.7460  145.8950 C   0  0  2  0  0  3  0  0  0  0  0  0
  190.0500  176.9860  146.1610 C   0  0  0  0  0  2  0  0  0  0  0  0
  189.3640  177.4880  144.8890 C   0  0  1  0  0  3  0  0  0  0  0  0
  187.0640  177.7760  143.9190 N   0  0  0  0  0  0  0  0  0  0  0  0
  191.0320  176.2210  143.4930 C   0  0  0  0  0  2  0  0  0  0  0  0
  189.5500  176.4620  143.7590 C   0  0  2  0  0  3  0  0  0  0  0  0
  191.7210  175.7330  144.7650 C   0  0  0  0  0  2  0  0  0  0  0  0
  187.7010  177.8650  142.6090 C   0  0  0  0  0  2  0  0  0  0  0  0
  187.8950  177.7110  145.0850 C   0  0  0  0  0  0  0  0  0  0  0  0
  192.2090  176.2640  147.1340 C   0  0  0  0  0  0  0  0  0  0  0  0
  192.8000  175.1540  147.1310 O   0  0  0  0  0  0  0  0  0  0  0  0
  192.1900  177.0320  148.2930 O   0  0  0  0  0  1  0  0  0  0  0  0
  180.6340  182.2540  137.7230 C   0  0  0  0  0  2  0  0  0  0  0  0
  180.7860  183.0630  136.4460 C   0  0  1  0  0  3  0  0  0  0  0  0
  179.7970  182.7030  135.5300 O   0  0  0  0  0  1  0  0  0  0  0  0
  180.6510  184.5370  136.7700 C   0  0  0  0  0  1  0  0  0  0  0  0
  1  4  1  6  0  0  0
  1  8  1  0  0  0  0
  2 12  1  0  0  0  0
  5 15  1  6  0  0  0
  5  6  1  0  0  0  0
  7  3  1  6  0  0  0
  7  9  1  0  0  0  0
  8  7  1  0  0  0  0
  8  5  1  0  0  0  0
  9  6  1  0  0  0  0
 10 11  1  0  0  0  0
 10  2  1  0  0  0  0
 11 31  1  0  0  0  0
 11 13  1  0  0  0  0
 12  3  1  0  0  0  0
 13 14  1  0  0  0  0
 14 12  1  0  0  0  0
 14  1  1  0  0  0  0
 15 16  1  0  0  0  0
 18 26  1  0  0  0  0
 18 24  1  0  0  0  0
 19 20  1  0  0  0  0
 19 28  1  0  0  0  0
 21 27  1  0  0  0  0
 21 20  1  0  0  0  0
 22 16  1  0  0  0  0
 22 27  1  0  0  0  0
 23 24  1  0  0  0  0
 23 25  1  0  0  0  0
 24 21  1  0  0  0  0
 25 19  1  0  0  0  0
 26 22  1  0  0  0  0
 27 17  2  0  0  0  0
 28 30  1  0  0  0  0
 29 28  2  0  0  0  0
 32 34  1  0  0  0  0
 32 31  1  0  0  0  0
 33 32  1  0  0  0  0
M  END
>  <MODEL>
3

>  <REMARK>
 VINA RESULT:      -9.1      5.476      9.204
  Name = 
  6 active torsions:
  status: ('A' for Active; 'I' for Inactive)
    1  A    between atoms: C_3  and  C_25
    2  A    between atoms: C_7  and  C_11
    3  A    between atoms: C_8  and  C_17
    4  A    between atoms: C_8  and  N_18
    5  A    between atoms: C_10  and  C_17
    6  A    between atoms: C_25  and  C_27
                            x       y       z     vdW  Elec       q    Type
                         _______ _______ _______ _____ _____    ______ ____

>  <TORSDO>
F 6

$$$$
=
 OpenBabel11052415393D

 34 38  0  0  1  0  0  0  0  0999 V2000
  190.7710  176.2710  138.8530 C   0  0  1  0  0  3  0  0  0  0  0  0
  191.9640  174.1550  135.7530 C   0  0  0  0  0  2  0  0  0  0  0  0
  190.2790  175.9720  135.9890 C   0  0  0  0  0  2  0  0  0  0  0  0
  191.5140  176.9010  139.8550 O   0  0  0  0  0  1  0  0  0  0  0  0
  189.2620  178.3880  138.4950 C   0  0  2  0  0  3  0  0  0  0  0  0
  188.4740  178.8250  137.2730 C   0  0  0  0  0  2  0  0  0  0  0  0
  189.3560  176.6330  136.9000 N   0  0  1  0  0  0  0  0  0  0  0  0
  190.1490  177.3010  137.9120 C   0  0  2  0  0  3  0  0  0  0  0  0
  188.6920  177.7350  136.2240 C   0  0  0  0  0  2  0  0  0  0  0  0
  193.2320  173.6700  136.4540 C   0  0  0  0  0  2  0  0  0  0  0  0
  193.9820  174.8280  137.1370 C   0  0  2  0  0  3  0  0  0  0  0  0
  190.9810  174.8230  136.7250 C   0  0  2  0  0  3  0  0  0  0  0  0
  193.0470  175.8900  137.7340 C   0  0  0  0  0  2  0  0  0  0  0  0
  191.6620  175.3100  138.0370 C   0  0  1  0  0  3  0  0  0  0  0  0
  188.2750  177.8450  139.5260 C   0  0  0  0  0  2  0  0  0  0  0  0
  187.9620  178.8840  140.5950 C   0  0  0  0  0  2  0  0  0  0  0  0
  189.5380  177.9120  142.7890 O   0  0  0  0  0  0  0  0  0  0  0  0
  185.4350  178.5380  143.2330 C   0  0  0  0  0  2  0  0  0  0  0  0
  187.8490  177.3850  146.7020 C   0  0  2  0  0  3  0  0  0  0  0  0
  188.5800  177.7130  145.4020 C   0  0  0  0  0  2  0  0  0  0  0  0
  187.6230  177.5850  144.2150 C   0  0  1  0  0  3  0  0  0  0  0  0
  187.4410  178.2510  141.8000 N   0  0  0  0  0  0  0  0  0  0  0  0
  185.6940  178.2020  145.7110 C   0  0  0  0  0  2  0  0  0  0  0  0
  186.4240  178.5280  144.4120 C   0  0  2  0  0  3  0  0  0  0  0  0
  186.6510  178.3160  146.8940 C   0  0  0  0  0  2  0  0  0  0  0  0
  186.0060  178.0040  141.9100 C   0  0  0  0  0  2  0  0  0  0  0  0
  188.2820  177.9260  142.9130 C   0  0  0  0  0  0  0  0  0  0  0  0
  188.7810  177.5000  147.8610 C   0  0  0  0  0  0  0  0  0  0  0  0
  188.3440  177.8840  148.9760 O   0  0  0  0  0  1  0  0  0  0  0  0
  190.1280  177.1880  147.7170 O   0  0  0  0  0  0  0  0  0  0  0  0
  194.9470  175.5000  136.1730 C   0  0  0  0  0  2  0  0  0  0  0  0
  196.3640  174.9860  136.3630 C   0  0  1  0  0  3  0  0  0  0  0  0
  197.2810  176.0140  136.1380 O   0  0  0  0  0  1  0  0  0  0  0  0
  196.5260  174.4800  137.7820 C   0  0  0  0  0  1  0  0  0  0  0  0
  1  4  1  1  0  0  0
  2 10  1  0  0  0  0
  2 12  1  0  0  0  0
  3 12  1  0  0  0  0
  5 15  1  1  0  0  0
  6  5  1  0  0  0  0
  7  3  1  6  0  0  0
  7  8  1  0  0  0  0
  8  5  1  0  0  0  0
  8  1  1  0  0  0  0
  9  7  1  0  0  0  0
  9  6  1  0  0  0  0
 10 11  1  0  0  0  0
 11 13  1  0  0  0  0
 12 14  1  0  0  0  0
 13 14  1  0  0  0  0
 14  1  1  0  0  0  0
 15 16  1  0  0  0  0
 16 22  1  0  0  0  0
 17 27  2  0  0  0  0
 18 24  1  0  0  0  0
 19 25  1  0  0  0  0
 19 28  1  0  0  0  0
 20 19  1  0  0  0  0
 21 24  1  0  0  0  0
 21 20  1  0  0  0  0
 22 26  1  0  0  0  0
 22 27  1  0  0  0  0
 23 25  1  0  0  0  0
 24 23  1  0  0  0  0
 26 18  1  0  0  0  0
 27 21  1  0  0  0  0
 28 29  1  0  0  0  0
 30 28  2  0  0  0  0
 31 32  1  0  0  0  0
 31 11  1  0  0  0  0
 32 34  1  0  0  0  0
 33 32  1  0  0  0  0
M  END
>  <MODEL>
4

>  <REMARK>
 VINA RESULT:      -9.0      1.148      1.552
  Name = 
  6 active torsions:
  status: ('A' for Active; 'I' for Inactive)
    1  A    between atoms: C_3  and  C_25
    2  A    between atoms: C_7  and  C_11
    3  A    between atoms: C_8  and  C_17
    4  A    between atoms: C_8  and  N_18
    5  A    between atoms: C_10  and  C_17
    6  A    between atoms: C_25  and  C_27
                            x       y       z     vdW  Elec       q    Type
                         _______ _______ _______ _____ _____    ______ ____

>  <TORSDO>
F 6

$$$$
=
 OpenBabel11052415393D

 34 38  0  0  1  0  0  0  0  0999 V2000
  182.7580  178.2350  140.8930 C   0  0  1  0  0  3  0  0  0  0  0  0
  180.4310  176.5790  138.1820 C   0  0  0  0  0  2  0  0  0  0  0  0
  179.9660  177.5010  140.4470 C   0  0  0  0  0  2  0  0  0  0  0  0
  183.7500  179.2110  140.7570 O   0  0  0  0  0  1  0  0  0  0  0  0
  181.7010  179.4510  142.9650 C   0  0  2  0  0  3  0  0  0  0  0  0
  180.2830  179.3950  143.5060 C   0  0  0  0  0  2  0  0  0  0  0  0
  180.5260  177.7760  141.7620 N   0  0  1  0  0  0  0  0  0  0  0  0
  181.5310  178.8070  141.5980 C   0  0  2  0  0  3  0  0  0  0  0  0
  179.5300  178.4180  142.6030 C   0  0  0  0  0  2  0  0  0  0  0  0
  181.4560  176.7540  137.0610 C   0  0  0  0  0  2  0  0  0  0  0  0
  182.0410  178.1770  137.0440 C   0  0  2  0  0  3  0  0  0  0  0  0
  181.0370  176.8390  139.5680 C   0  0  2  0  0  3  0  0  0  0  0  0
  182.2200  178.7790  138.4450 C   0  0  0  0  0  2  0  0  0  0  0  0
  182.3410  177.6860  139.5120 C   0  0  1  0  0  3  0  0  0  0  0  0
  182.5940  178.6270  143.8900 C   0  0  0  0  0  2  0  0  0  0  0  0
  183.8070  179.4280  144.3460 C   0  0  0  0  0  2  0  0  0  0  0  0
  185.7410  177.9670  142.8060 O   0  0  0  0  0  0  0  0  0  0  0  0
  186.2830  178.5400  146.9040 C   0  0  0  0  0  2  0  0  0  0  0  0
  189.4250  176.6060  144.5420 C   0  0  2  0  0  3  0  0  0  0  0  0
  188.2360  177.2040  143.7930 C   0  0  0  0  0  2  0  0  0  0  0  0
  187.0440  177.3590  144.7400 C   0  0  1  0  0  3  0  0  0  0  0  0
  184.8360  178.5490  144.8880 N   0  0  0  0  0  0  0  0  0  0  0  0
  188.6250  177.6560  146.6760 C   0  0  0  0  0  2  0  0  0  0  0  0
  187.4370  178.2530  145.9280 C   0  0  2  0  0  3  0  0  0  0  0  0
  189.8110  177.4880  145.7300 C   0  0  0  0  0  2  0  0  0  0  0  0
  184.8780  178.3060  146.3270 C   0  0  0  0  0  2  0  0  0  0  0  0
  185.8560  177.9720  144.0620 C   0  0  0  0  0  0  0  0  0  0  0  0
  190.5870  176.4460  143.6210 C   0  0  0  0  0  0  0  0  0  0  0  0
  191.6780  177.0110  143.8900 O   0  0  0  0  0  1  0  0  0  0  0  0
  190.4730  175.6780  142.4680 O   0  0  0  0  0  0  0  0  0  0  0  0
  181.1820  179.1130  136.2070 C   0  0  0  0  0  2  0  0  0  0  0  0
  180.5280  180.1800  137.0700 C   0  0  1  0  0  3  0  0  0  0  0  0
  180.7780  181.4450  136.5380 O   0  0  0  0  0  1  0  0  0  0  0  0
  179.0320  179.9440  137.1080 C   0  0  0  0  0  1  0  0  0  0  0  0
  1  4  1  6  0  0  0
  1  8  1  0  0  0  0
  2 12  1  0  0  0  0
  5  6  1  0  0  0  0
  5 15  1  1  0  0  0
  7  3  1  6  0  0  0
  7  9  1  0  0  0  0
  8  7  1  0  0  0  0
  8  5  1  0  0  0  0
  9  6  1  0  0  0  0
 10  2  1  0  0  0  0
 11 10  1  0  0  0  0
 11 13  1  0  0  0  0
 12  3  1  0  0  0  0
 13 14  1  0  0  0  0
 14 12  1  0  0  0  0
 14  1  1  0  0  0  0
 15 16  1  0  0  0  0
 16 22  1  0  0  0  0
 17 27  2  0  0  0  0
 19 25  1  0  0  0  0
 20 19  1  0  0  0  0
 20 21  1  0  0  0  0
 21 24  1  0  0  0  0
 22 26  1  0  0  0  0
 24 23  1  0  0  0  0
 24 18  1  0  0  0  0
 25 23  1  0  0  0  0
 26 18  1  0  0  0  0
 27 21  1  0  0  0  0
 27 22  1  0  0  0  0
 28 29  1  0  0  0  0
 28 19  1  0  0  0  0
 30 28  2  0  0  0  0
 31 11  1  0  0  0  0
 31 32  1  0  0  0  0
 32 34  1  0  0  0  0
 33 32  1  0  0  0  0
M  END
>  <MODEL>
5

>  <REMARK>
 VINA RESULT:      -8.8      5.660      9.165
  Name = 
  6 active torsions:
  status: ('A' for Active; 'I' for Inactive)
    1  A    between atoms: C_3  and  C_25
    2  A    between atoms: C_7  and  C_11
    3  A    between atoms: C_8  and  C_17
    4  A    between atoms: C_8  and  N_18
    5  A    between atoms: C_10  and  C_17
    6  A    between atoms: C_25  and  C_27
                            x       y       z     vdW  Elec       q    Type
                         _______ _______ _______ _____ _____    ______ ____

>  <TORSDO>
F 6

$$$$
=
 OpenBabel11052415393D

 34 38  0  0  1  0  0  0  0  0999 V2000
  191.1530  175.8780  137.9800 C   0  0  1  0  0  3  0  0  0  0  0  0
  192.9160  173.5940  135.2980 C   0  0  0  0  0  2  0  0  0  0  0  0
  190.8940  175.0430  135.1920 C   0  0  0  0  0  2  0  0  0  0  0  0
  191.6990  176.7950  138.8820 O   0  0  0  0  0  1  0  0  0  0  0  0
  189.2790  177.5600  137.2430 C   0  0  2  0  0  3  0  0  0  0  0  0
  188.4910  177.6320  135.9460 C   0  0  0  0  0  2  0  0  0  0  0  0
  189.8080  175.6340  135.9590 N   0  0  1  0  0  0  0  0  0  0  0  0
  190.3950  176.5990  136.8680 C   0  0  2  0  0  3  0  0  0  0  0  0
  188.9800  176.4590  135.0960 C   0  0  0  0  0  2  0  0  0  0  0  0
  194.2130  173.4930  136.1000 C   0  0  0  0  0  2  0  0  0  0  0  0
  194.6780  174.8710  136.6020 C   0  0  2  0  0  3  0  0  0  0  0  0
  191.7670  174.1900  136.1240 C   0  0  2  0  0  3  0  0  0  0  0  0
  193.5200  175.8000  136.9940 C   0  0  0  0  0  2  0  0  0  0  0  0
  192.2620  175.0040  137.3540 C   0  0  1  0  0  3  0  0  0  0  0  0
  188.3610  176.9940  138.3240 C   0  0  0  0  0  2  0  0  0  0  0  0
  187.4220  178.0620  138.8690 C   0  0  0  0  0  2  0  0  0  0  0  0
  185.5790  179.2990  140.6910 O   0  0  0  0  0  0  0  0  0  0  0  0
  188.7850  177.0410  142.1190 C   0  0  0  0  0  2  0  0  0  0  0  0
  185.8120  178.6170  144.9240 C   0  0  2  0  0  3  0  0  0  0  0  0
  185.5360  178.7730  143.4300 C   0  0  0  0  0  2  0  0  0  0  0  0
  186.8410  178.6550  142.6400 C   0  0  1  0  0  3  0  0  0  0  0  0
  187.6510  178.2800  140.2920 N   0  0  0  0  0  0  0  0  0  0  0  0
  187.7760  177.1390  144.4190 C   0  0  0  0  0  2  0  0  0  0  0  0
  187.5010  177.2960  142.9270 C   0  0  2  0  0  3  0  0  0  0  0  0
  186.4770  177.2700  145.2100 C   0  0  0  0  0  2  0  0  0  0  0  0
  188.9430  177.9180  140.8670 C   0  0  0  0  0  2  0  0  0  0  0  0
  186.6240  178.7710  141.1620 C   0  0  0  0  0  0  0  0  0  0  0  0
  184.5430  178.7390  145.6980 C   0  0  0  0  0  0  0  0  0  0  0  0
  183.5150  179.2010  145.1400 O   0  0  0  0  0  0  0  0  0  0  0  0
  184.4880  178.3460  147.0300 O   0  0  0  0  0  1  0  0  0  0  0  0
  195.5450  175.5680  135.5640 C   0  0  0  0  0  2  0  0  0  0  0  0
  197.0120  175.5380  135.9610 C   0  0  1  0  0  3  0  0  0  0  0  0
  197.1380  175.1790  137.3030 O   0  0  0  0  0  1  0  0  0  0  0  0
  197.7400  174.5220  135.1050 C   0  0  0  0  0  1  0  0  0  0  0  0
  1  4  1  1  0  0  0
  2 10  1  0  0  0  0
  2 12  1  0  0  0  0
  3  7  1  0  0  0  0
  3 12  1  0  0  0  0
  5 15  1  1  0  0  0
  6  5  1  0  0  0  0
  7  9  1  6  0  0  0
  7  8  1  0  0  0  0
  8  5  1  0  0  0  0
  8  1  1  0  0  0  0
  9  6  1  0  0  0  0
 10 11  1  0  0  0  0
 11 13  1  0  0  0  0
 12 14  1  0  0  0  0
 13 14  1  0  0  0  0
 14  1  1  0  0  0  0
 15 16  1  0  0  0  0
 16 22  1  0  0  0  0
 17 27  2  0  0  0  0
 18 24  1  0  0  0  0
 19 25  1  0  0  0  0
 19 28  1  0  0  0  0
 20 19  1  0  0  0  0
 21 24  1  0  0  0  0
 21 20  1  0  0  0  0
 22 26  1  0  0  0  0
 22 27  1  0  0  0  0
 23 25  1  0  0  0  0
 24 23  1  0  0  0  0
 26 18  1  0  0  0  0
 27 21  1  0  0  0  0
 28 30  1  0  0  0  0
 29 28  2  0  0  0  0
 31 32  1  0  0  0  0
 31 11  1  0  0  0  0
 32 33  1  0  0  0  0
 34 32  1  0  0  0  0
M  END
>  <MODEL>
6

>  <REMARK>
 VINA RESULT:      -8.7      2.712      3.576
  Name = 
  6 active torsions:
  status: ('A' for Active; 'I' for Inactive)
    1  A    between atoms: C_3  and  C_25
    2  A    between atoms: C_7  and  C_11
    3  A    between atoms: C_8  and  C_17
    4  A    between atoms: C_8  and  N_18
    5  A    between atoms: C_10  and  C_17
    6  A    between atoms: C_25  and  C_27
                            x       y       z     vdW  Elec       q    Type
                         _______ _______ _______ _____ _____    ______ ____

>  <TORSDO>
F 6

$$$$
=
 OpenBabel11052415393D

 34 38  0  0  1  0  0  0  0  0999 V2000
  182.4470  177.8760  140.0970 C   0  0  1  0  0  3  0  0  0  0  0  0
  180.2210  176.4000  137.2010 C   0  0  0  0  0  2  0  0  0  0  0  0
  179.6560  177.3020  139.4520 C   0  0  0  0  0  2  0  0  0  0  0  0
  183.4950  178.7990  140.0480 O   0  0  0  0  0  1  0  0  0  0  0  0
  181.3190  179.1060  142.1220 C   0  0  2  0  0  3  0  0  0  0  0  0
  179.8670  179.1160  142.5680 C   0  0  0  0  0  2  0  0  0  0  0  0
  180.1400  177.5200  140.8070 N   0  0  1  0  0  0  0  0  0  0  0  0
  181.2060  178.4990  140.7330 C   0  0  2  0  0  3  0  0  0  0  0  0
  179.1260  178.1990  141.5960 C   0  0  0  0  0  2  0  0  0  0  0  0
  181.3260  176.5420  136.1540 C   0  0  0  0  0  2  0  0  0  0  0  0
  181.9840  177.9320  136.2080 C   0  0  2  0  0  3  0  0  0  0  0  0
  180.7460  176.6010  138.6300 C   0  0  2  0  0  3  0  0  0  0  0  0
  182.1020  178.4960  137.6320 C   0  0  0  0  0  2  0  0  0  0  0  0
  182.0940  177.3770  138.6790 C   0  0  1  0  0  3  0  0  0  0  0  0
  182.1040  178.2180  143.0850 C   0  0  0  0  0  2  0  0  0  0  0  0
  182.6110  179.0110  144.2820 C   0  0  0  0  0  2  0  0  0  0  0  0
  184.3170  178.8120  146.5830 O   0  0  0  0  0  0  0  0  0  0  0  0
  185.8770  178.3710  142.7370 C   0  0  0  0  0  2  0  0  0  0  0  0
  188.4540  177.7190  146.2200 C   0  0  2  0  0  3  0  0  0  0  0  0
  186.9620  177.9320  146.4670 C   0  0  0  0  0  2  0  0  0  0  0  0
  186.3260  178.6340  145.2650 C   0  0  1  0  0  3  0  0  0  0  0  0
  184.0660  179.0970  144.2710 N   0  0  0  0  0  0  0  0  0  0  0  0
  188.0380  177.5790  143.7490 C   0  0  0  0  0  2  0  0  0  0  0  0
  186.5480  177.7940  143.9960 C   0  0  2  0  0  3  0  0  0  0  0  0
  188.6760  176.8910  144.9530 C   0  0  0  0  0  2  0  0  0  0  0  0
  184.7520  179.3810  143.0130 C   0  0  0  0  0  2  0  0  0  0  0  0
  184.8530  178.8420  145.4410 C   0  0  0  0  0  0  0  0  0  0  0  0
  189.0780  177.0420  147.3920 C   0  0  0  0  0  0  0  0  0  0  0  0
  188.4760  177.0260  148.4970 O   0  0  0  0  0  1  0  0  0  0  0  0
  190.3190  176.4270  147.2750 O   0  0  0  0  0  0  0  0  0  0  0  0
  181.2330  178.9290  135.3390 C   0  0  0  0  0  2  0  0  0  0  0  0
  180.6000  180.0250  136.1800 C   0  0  1  0  0  3  0  0  0  0  0  0
  180.8530  181.2730  135.6080 O   0  0  0  0  0  1  0  0  0  0  0  0
  179.1030  179.8040  136.2440 C   0  0  0  0  0  1  0  0  0  0  0  0
  1  4  1  6  0  0  0
  1  8  1  0  0  0  0
  2 12  1  0  0  0  0
  5  6  1  0  0  0  0
  5 15  1  1  0  0  0
  7  3  1  6  0  0  0
  7  9  1  0  0  0  0
  8  7  1  0  0  0  0
  8  5  1  0  0  0  0
  9  6  1  0  0  0  0
 10 11  1  0  0  0  0
 10  2  1  0  0  0  0
 11 13  1  0  0  0  0
 12 14  1  0  0  0  0
 12  3  1  0  0  0  0
 13 14  1  0  0  0  0
 14  1  1  0  0  0  0
 15 16  1  0  0  0  0
 18 26  1  0  0  0  0
 18 24  1  0  0  0  0
 19 20  1  0  0  0  0
 19 28  1  0  0  0  0
 21 27  1  0  0  0  0
 21 20  1  0  0  0  0
 22 16  1  0  0  0  0
 22 27  1  0  0  0  0
 23 24  1  0  0  0  0
 23 25  1  0  0  0  0
 24 21  1  0  0  0  0
 25 19  1  0  0  0  0
 26 22  1  0  0  0  0
 27 17  2  0  0  0  0
 28 29  1  0  0  0  0
 30 28  2  0  0  0  0
 31 32  1  0  0  0  0
 31 11  1  0  0  0  0
 32 34  1  0  0  0  0
 33 32  1  0  0  0  0
M  END
>  <MODEL>
7

>  <REMARK>
 VINA RESULT:      -8.3      6.558      9.204
  Name = 
  6 active torsions:
  status: ('A' for Active; 'I' for Inactive)
    1  A    between atoms: C_3  and  C_25
    2  A    between atoms: C_7  and  C_11
    3  A    between atoms: C_8  and  C_17
    4  A    between atoms: C_8  and  N_18
    5  A    between atoms: C_10  and  C_17
    6  A    between atoms: C_25  and  C_27
                            x       y       z     vdW  Elec       q    Type
                         _______ _______ _______ _____ _____    ______ ____

>  <TORSDO>
F 6

$$$$
=
 OpenBabel11052415393D

 34 38  0  0  1  0  0  0  0  0999 V2000
  181.7930  177.0920  139.9110 C   0  0  1  0  0  3  0  0  0  0  0  0
  180.2210  178.4040  136.5460 C   0  0  0  0  0  2  0  0  0  0  0  0
  182.2260  179.1080  137.8410 C   0  0  0  0  0  2  0  0  0  0  0  0
  182.0370  175.7860  140.3430 O   0  0  0  0  0  1  0  0  0  0  0  0
  184.1830  177.8930  140.6420 C   0  0  2  0  0  3  0  0  0  0  0  0
  185.0180  179.0550  140.1330 C   0  0  0  0  0  2  0  0  0  0  0  0
  182.8340  179.1680  139.1620 N   0  0  1  0  0  0  0  0  0  0  0  0
  183.1020  177.8050  139.5770 C   0  0  2  0  0  3  0  0  0  0  0  0
  184.1620  179.7510  139.0750 C   0  0  0  0  0  2  0  0  0  0  0  0
  179.3640  177.1540  136.3500 C   0  0  0  0  0  2  0  0  0  0  0  0
  180.1820  175.8660  136.5580 C   0  0  2  0  0  3  0  0  0  0  0  0
  180.8330  178.4750  137.9520 C   0  0  2  0  0  3  0  0  0  0  0  0
  181.2440  175.9910  137.6600 C   0  0  0  0  0  2  0  0  0  0  0  0
  180.8840  177.0920  138.6630 C   0  0  1  0  0  3  0  0  0  0  0  0
  183.6240  178.2760  142.0110 C   0  0  0  0  0  2  0  0  0  0  0  0
  184.6000  179.1550  142.7820 C   0  0  0  0  0  2  0  0  0  0  0  0
  187.1510  177.8380  142.7940 O   0  0  0  0  0  0  0  0  0  0  0  0
  185.1860  178.6980  146.3750 C   0  0  0  0  0  2  0  0  0  0  0  0
  189.2240  177.0010  146.4600 C   0  0  2  0  0  3  0  0  0  0  0  0
  188.6550  177.4180  145.1060 C   0  0  0  0  0  2  0  0  0  0  0  0
  187.1280  177.4900  145.1790 C   0  0  1  0  0  3  0  0  0  0  0  0
  185.1760  178.4300  143.9070 N   0  0  0  0  0  0  0  0  0  0  0  0
  187.2760  178.0730  147.6240 C   0  0  0  0  0  2  0  0  0  0  0  0
  186.7070  178.4880  146.2710 C   0  0  2  0  0  3  0  0  0  0  0  0
  188.7980  177.9870  147.5490 C   0  0  0  0  0  2  0  0  0  0  0  0
  184.3920  178.2750  145.1290 C   0  0  0  0  0  2  0  0  0  0  0  0
  186.5170  177.9260  143.8820 C   0  0  0  0  0  0  0  0  0  0  0  0
  190.7120  176.9210  146.3920 C   0  0  0  0  0  0  0  0  0  0  0  0
  191.3680  176.6220  147.4220 O   0  0  0  0  0  1  0  0  0  0  0  0
  191.3780  177.1750  145.1990 O   0  0  0  0  0  0  0  0  0  0  0  0
  180.8550  175.4300  135.2660 C   0  0  0  0  0  2  0  0  0  0  0  0
  181.7220  174.2010  135.4840 C   0  0  1  0  0  3  0  0  0  0  0  0
  181.0070  173.0470  135.1650 O   0  0  0  0  0  1  0  0  0  0  0  0
  182.9450  174.2890  134.5940 C   0  0  0  0  0  1  0  0  0  0  0  0
  1  4  1  6  0  0  0
  2 12  1  0  0  0  0
  3 12  1  0  0  0  0
  5 15  1  1  0  0  0
  6  5  1  0  0  0  0
  7  3  1  6  0  0  0
  7  8  1  0  0  0  0
  8  1  1  0  0  0  0
  8  5  1  0  0  0  0
  9  7  1  0  0  0  0
  9  6  1  0  0  0  0
 10  2  1  0  0  0  0
 10 11  1  0  0  0  0
 11 13  1  0  0  0  0
 12 14  1  0  0  0  0
 13 14  1  0  0  0  0
 14  1  1  0  0  0  0
 15 16  1  0  0  0  0
 16 22  1  0  0  0  0
 17 27  2  0  0  0  0
 19 25  1  0  0  0  0
 20 21  1  0  0  0  0
 20 19  1  0  0  0  0
 21 24  1  0  0  0  0
 22 26  1  0  0  0  0
 24 18  1  0  0  0  0
 24 23  1  0  0  0  0
 25 23  1  0  0  0  0
 26 18  1  0  0  0  0
 27 22  1  0  0  0  0
 27 21  1  0  0  0  0
 28 19  1  0  0  0  0
 28 29  1  0  0  0  0
 30 28  2  0  0  0  0
 31 32  1  0  0  0  0
 31 11  1  0  0  0  0
 33 32  1  0  0  0  0
 34 32  1  0  0  0  0
M  END
>  <MODEL>
8

>  <REMARK>
 VINA RESULT:      -7.8      6.270      8.330
  Name = 
  6 active torsions:
  status: ('A' for Active; 'I' for Inactive)
    1  A    between atoms: C_3  and  C_25
    2  A    between atoms: C_7  and  C_11
    3  A    between atoms: C_8  and  C_17
    4  A    between atoms: C_8  and  N_18
    5  A    between atoms: C_10  and  C_17
    6  A    between atoms: C_25  and  C_27
                            x       y       z     vdW  Elec       q    Type
                         _______ _______ _______ _____ _____    ______ ____

>  <TORSDO>
F 6

$$$$
=
 OpenBabel11052415393D

 34 38  0  0  1  0  0  0  0  0999 V2000
  190.8960  175.5270  137.1960 C   0  0  1  0  0  3  0  0  0  0  0  0
  194.6020  175.1780  135.9080 C   0  0  0  0  0  2  0  0  0  0  0  0
  193.6120  176.3810  137.8500 C   0  0  0  0  0  2  0  0  0  0  0  0
  189.9020  174.5580  137.3560 O   0  0  0  0  0  1  0  0  0  0  0  0
  190.4200  176.5560  139.5630 C   0  0  2  0  0  3  0  0  0  0  0  0
  191.3330  177.3550  140.4770 C   0  0  0  0  0  2  0  0  0  0  0  0
  192.4170  177.0290  138.3700 N   0  0  1  0  0  0  0  0  0  0  0  0
  191.4120  176.0020  138.5530 C   0  0  2  0  0  3  0  0  0  0  0  0
  192.6540  177.5000  139.7240 C   0  0  0  0  0  2  0  0  0  0  0  0
  194.2770  173.9820  135.0150 C   0  0  0  0  0  2  0  0  0  0  0  0
  193.4460  172.9240  135.7630 C   0  0  2  0  0  3  0  0  0  0  0  0
  193.3360  175.8760  136.4270 C   0  0  2  0  0  3  0  0  0  0  0  0
  192.4400  173.5280  136.7530 C   0  0  0  0  0  2  0  0  0  0  0  0
  192.0750  174.9660  136.3720 C   0  0  1  0  0  3  0  0  0  0  0  0
  189.4210  177.5220  138.9300 C   0  0  0  0  0  2  0  0  0  0  0  0
  189.0240  178.6260  139.9020 C   0  0  0  0  0  2  0  0  0  0  0  0
  189.0050  177.7720  142.6440 O   0  0  0  0  0  0  0  0  0  0  0  0
  185.4810  179.0030  140.7760 C   0  0  0  0  0  2  0  0  0  0  0  0
  185.4580  178.0400  145.0500 C   0  0  2  0  0  3  0  0  0  0  0  0
  186.8080  178.0780  144.3350 C   0  0  0  0  0  2  0  0  0  0  0  0
  186.6060  177.9130  142.8270 C   0  0  1  0  0  3  0  0  0  0  0  0
  187.8420  178.2460  140.6650 N   0  0  0  0  0  0  0  0  0  0  0  0
  184.3390  178.9920  143.0160 C   0  0  0  0  0  2  0  0  0  0  0  0
  185.6860  179.0280  142.3010 C   0  0  2  0  0  3  0  0  0  0  0  0
  184.5390  179.1420  144.5220 C   0  0  0  0  0  2  0  0  0  0  0  0
  186.5440  178.2140  139.9970 C   0  0  0  0  0  2  0  0  0  0  0  0
  187.8990  177.9730  142.0710 C   0  0  0  0  0  0  0  0  0  0  0  0
  185.6510  178.1920  146.5210 C   0  0  0  0  0  0  0  0  0  0  0  0
  186.8150  178.2650  146.9930 O   0  0  0  0  0  0  0  0  0  0  0  0
  184.5550  178.2550  147.3740 O   0  0  0  0  0  1  0  0  0  0  0  0
  194.3440  171.9430  136.5020 C   0  0  0  0  0  2  0  0  0  0  0  0
  195.3300  172.6700  137.4020 C   0  0  1  0  0  3  0  0  0  0  0  0
  195.0560  172.3860  138.7400 O   0  0  0  0  0  1  0  0  0  0  0  0
  196.7360  172.2110  137.0760 C   0  0  0  0  0  1  0  0  0  0  0  0
  1  4  1  1  0  0  0
  1  8  1  0  0  0  0
  2 12  1  0  0  0  0
  5 15  1  6  0  0  0
  5  6  1  0  0  0  0
  7  3  1  1  0  0  0
  7  8  1  0  0  0  0
  7  9  1  0  0  0  0
  8  5  1  0  0  0  0
  9  6  1  0  0  0  0
 10 11  1  0  0  0  0
 10  2  1  0  0  0  0
 11 31  1  0  0  0  0
 11 13  1  0  0  0  0
 12  3  1  0  0  0  0
 14 12  1  0  0  0  0
 14 13  1  0  0  0  0
 14  1  1  0  0  0  0
 15 16  1  0  0  0  0
 16 22  1  0  0  0  0
 18 24  1  0  0  0  0
 19 28  1  0  0  0  0
 20 19  1  0  0  0  0
 21 20  1  0  0  0  0
 22 27  1  0  0  0  0
 23 25  1  0  0  0  0
 24 21  1  0  0  0  0
 24 23  1  0  0  0  0
 25 19  1  0  0  0  0
 26 22  1  0  0  0  0
 26 18  1  0  0  0  0
 27 17  2  0  0  0  0
 27 21  1  0  0  0  0
 28 29  2  0  0  0  0
 28 30  1  0  0  0  0
 31 32  1  0  0  0  0
 32 33  1  0  0  0  0
 34 32  1  0  0  0  0
M  END
>  <MODEL>
9

>  <REMARK>
 VINA RESULT:      -7.5      2.826      3.914
  Name = 
  6 active torsions:
  status: ('A' for Active; 'I' for Inactive)
    1  A    between atoms: C_3  and  C_25
    2  A    between atoms: C_7  and  C_11
    3  A    between atoms: C_8  and  C_17
    4  A    between atoms: C_8  and  N_18
    5  A    between atoms: C_10  and  C_17
    6  A    between atoms: C_25  and  C_27
                            x       y       z     vdW  Elec       q    Type
                         _______ _______ _______ _____ _____    ______ ____

>  <TORSDO>
F 6

$$$$
