=
 OpenBabel11052413253D

 28 30  0  0  1  0  0  0  0  0999 V2000
  190.0300  177.8350  145.0920 C   0  0  1  0  0  3  0  0  0  0  0  0
  192.4420  175.5100  146.5730 C   0  0  0  0  0  3  0  0  0  0  0  0
  190.9810  177.0280  145.9160 C   0  0  0  0  0  0  0  0  0  0  0  0
  192.2460  176.4170  147.7160 N   0  0  0  0  0  0  0  0  0  0  0  0
  191.6000  175.9930  145.4860 N   0  0  0  0  0  0  0  0  0  0  0  0
  191.3180  177.3520  147.2410 N   0  0  0  0  0  2  0  0  0  0  0  0
  190.7000  178.4400  143.8570 C   0  0  1  0  0  3  0  0  0  0  0  0
  191.8970  179.3140  144.2040 C   0  0  0  0  0  1  0  0  0  0  0  0
  191.1090  177.3790  142.9490 N   0  0  0  0  0  2  0  0  0  0  0  0
  190.1340  177.3140  141.8680 C   0  0  1  0  0  3  0  0  0  0  0  0
  189.3440  178.4480  141.8910 F   0  0  0  0  0  0  0  0  0  0  0  0
  192.1240  177.4450  140.4630 C   0  0  0  0  0  2  0  0  0  0  0  0
  190.8140  177.2000  140.5360 C   0  0  0  0  0  0  0  0  0  0  0  0
  190.0570  176.6910  139.3410 C   0  0  1  0  0  3  0  0  0  0  0  0
  189.7200  177.8210  138.3830 C   0  0  0  0  0  1  0  0  0  0  0  0
  190.8230  175.6700  138.6480 N   0  0  0  0  0  1  0  0  0  0  0  0
  188.7540  177.0610  144.7690 C   0  0  0  0  0  2  0  0  0  0  0  0
  186.0580  177.5030  143.7470 C   0  0  0  0  0  3  0  0  0  0  0  0
  185.2750  178.0840  146.1120 C   0  0  2  0  0  3  0  0  0  0  0  0
  187.6400  177.5290  145.6490 C   0  0  0  0  0  0  0  0  0  0  0  0
  184.0140  178.8100  144.1100 C   0  0  0  0  0  0  0  0  0  0  0  0
  186.3970  177.7090  145.1690 C   0  0  0  0  0  0  0  0  0  0  0  0
  187.0060  178.5410  147.7920 C   0  0  0  0  0  3  0  0  0  0  0  0
  184.2090  178.8970  145.4320 C   0  0  0  0  0  3  0  0  0  0  0  0
  185.7480  178.7160  147.3880 C   0  0  0  0  0  3  0  0  0  0  0  0
  182.7150  179.7160  143.3690 Cl  0  0  0  0  0  0  0  0  0  0  0  0
  184.9240  178.0150  143.2570 C   0  0  0  0  0  3  0  0  0  0  0  0
  187.9260  177.8570  146.9820 O   0  0  0  0  0  0  0  0  0  0  0  0
  1 17  1  6  0  0  0
  1  3  1  0  0  0  0
  2  4  2  0  0  0  0
  3  6  1  0  0  0  0
  5  3  2  0  0  0  0
  5  2  1  0  0  0  0
  6  4  1  0  0  0  0
  7  8  1  1  0  0  0
  7  1  1  0  0  0  0
  9  7  1  0  0  0  0
 10 11  1  6  0  0  0
 10  9  1  0  0  0  0
 12 13  2  0  0  0  0
 13 10  1  0  0  0  0
 14 15  1  6  0  0  0
 14 13  1  0  0  0  0
 16 14  1  0  0  0  0
 17 20  1  0  0  0  0
 18 22  1  0  0  0  0
 19 24  1  6  0  0  0
 19 25  1  0  0  0  0
 20 28  1  0  0  0  0
 21 24  2  0  0  0  0
 22 20  2  0  0  0  0
 22 19  1  0  0  0  0
 25 23  2  0  0  0  0
 26 21  1  0  0  0  0
 27 18  2  0  0  0  0
 27 21  1  0  0  0  0
 28 23  1  0  0  0  0
M  END
>  <MODEL>
1

>  <REMARK>
 VINA RESULT:      -8.4      0.000      0.000
  Name = 
  8 active torsions:
  status: ('A' for Active; 'I' for Inactive)
    1  A    between atoms: C_1  and  N_2
    2  A    between atoms: C_1  and  C_27
    3  A    between atoms: N_2  and  C_3
    4  A    between atoms: C_3  and  C_11
    5  A    between atoms: C_6  and  C_11
    6  A    between atoms: C_10  and  C_17
    7  A    between atoms: C_16  and  C_27
    8  A    between atoms: C_17  and  C_27
                            x       y       z     vdW  Elec       q    Type
                         _______ _______ _______ _____ _____    ______ ____

>  <TORSDO>
F 8

$$$$
=
 OpenBabel11052413253D

 28 30  0  0  1  0  0  0  0  0999 V2000
  187.1140  178.3430  142.3720 C   0  0  1  0  0  3  0  0  0  0  0  0
  189.6010  177.1960  139.9390 C   0  0  0  0  0  3  0  0  0  0  0  0
  188.0910  178.1100  141.2650 C   0  0  0  0  0  0  0  0  0  0  0  0
  189.2540  178.4950  139.3380 N   0  0  0  0  0  0  0  0  0  0  0  0
  188.8020  177.0510  141.1500 N   0  0  0  0  0  0  0  0  0  0  0  0
  188.2980  179.0210  140.2170 N   0  0  0  0  0  2  0  0  0  0  0  0
  185.7600  178.8360  141.8570 C   0  0  1  0  0  3  0  0  0  0  0  0
  185.6350  178.7400  140.3430 C   0  0  0  0  0  1  0  0  0  0  0  0
  184.6870  178.0830  142.4900 N   0  0  0  0  0  2  0  0  0  0  0  0
  183.4200  178.6270  142.0200 C   0  0  1  0  0  3  0  0  0  0  0  0
  182.8540  177.7550  141.1080 F   0  0  0  0  0  0  0  0  0  0  0  0
  182.9760  179.0920  144.3730 C   0  0  0  0  0  2  0  0  0  0  0  0
  182.4720  178.8470  143.1620 C   0  0  0  0  0  0  0  0  0  0  0  0
  180.9910  178.9200  142.9130 C   0  0  1  0  0  3  0  0  0  0  0  0
  180.2160  178.2010  144.0030 C   0  0  0  0  0  1  0  0  0  0  0  0
  180.5550  180.3030  142.8290 N   0  0  0  0  0  1  0  0  0  0  0  0
  187.0040  177.1360  143.3010 C   0  0  0  0  0  2  0  0  0  0  0  0
  189.6380  177.0200  144.5500 C   0  0  0  0  0  3  0  0  0  0  0  0
  188.6580  178.0600  146.6720 C   0  0  2  0  0  3  0  0  0  0  0  0
  187.2300  177.5630  144.7160 C   0  0  0  0  0  0  0  0  0  0  0  0
  190.7740  176.7760  146.7100 C   0  0  0  0  0  0  0  0  0  0  0  0
  188.4530  177.5230  145.2720 C   0  0  0  0  0  0  0  0  0  0  0  0
  186.2130  178.0990  146.8830 C   0  0  0  0  0  3  0  0  0  0  0  0
  189.7790  177.3620  147.3890 C   0  0  0  0  0  3  0  0  0  0  0  0
  187.4010  178.1090  147.4880 C   0  0  0  0  0  3  0  0  0  0  0  0
  192.0970  176.0380  147.5830 Cl  0  0  0  0  0  0  0  0  0  0  0  0
  190.7350  176.6810  145.2330 C   0  0  0  0  0  3  0  0  0  0  0  0
  186.1230  177.9370  145.4920 O   0  0  0  0  0  0  0  0  0  0  0  0
  1 17  1  6  0  0  0
  2  5  1  0  0  0  0
  3  1  1  0  0  0  0
  4  2  2  0  0  0  0
  4  6  1  0  0  0  0
  5  3  2  0  0  0  0
  6  3  1  0  0  0  0
  7  8  1  6  0  0  0
  7  1  1  0  0  0  0
  7  9  1  0  0  0  0
 10 11  1  6  0  0  0
 10  9  1  0  0  0  0
 10 13  1  0  0  0  0
 13 12  2  0  0  0  0
 14 13  1  0  0  0  0
 14 15  1  1  0  0  0
 16 14  1  0  0  0  0
 17 20  1  0  0  0  0
 18 27  2  0  0  0  0
 18 22  1  0  0  0  0
 19 24  1  1  0  0  0
 19 25  1  0  0  0  0
 20 22  2  0  0  0  0
 20 28  1  0  0  0  0
 21 24  2  0  0  0  0
 21 26  1  0  0  0  0
 22 19  1  0  0  0  0
 23 25  2  0  0  0  0
 27 21  1  0  0  0  0
 28 23  1  0  0  0  0
M  END
>  <MODEL>
2

>  <REMARK>
 VINA RESULT:      -8.2      3.948      6.907
  Name = 
  8 active torsions:
  status: ('A' for Active; 'I' for Inactive)
    1  A    between atoms: C_1  and  N_2
    2  A    between atoms: C_1  and  C_27
    3  A    between atoms: N_2  and  C_3
    4  A    between atoms: C_3  and  C_11
    5  A    between atoms: C_6  and  C_11
    6  A    between atoms: C_10  and  C_17
    7  A    between atoms: C_16  and  C_27
    8  A    between atoms: C_17  and  C_27
                            x       y       z     vdW  Elec       q    Type
                         _______ _______ _______ _____ _____    ______ ____

>  <TORSDO>
F 8

$$$$
=
 OpenBabel11052413253D

 28 30  0  0  1  0  0  0  0  0999 V2000
  188.8260  177.2250  141.4180 C   0  0  1  0  0  3  0  0  0  0  0  0
  191.6430  176.6630  139.1450 C   0  0  0  0  0  3  0  0  0  0  0  0
  190.1190  177.1150  140.6770 C   0  0  0  0  0  0  0  0  0  0  0  0
  192.3330  177.4150  140.2060 N   0  0  0  0  0  0  0  0  0  0  0  0
  190.2460  176.5360  139.5420 N   0  0  0  0  0  0  0  0  0  0  0  0
  191.3220  177.6720  141.1400 N   0  0  0  0  0  2  0  0  0  0  0  0
  188.9130  176.6360  142.8280 C   0  0  1  0  0  3  0  0  0  0  0  0
  190.0240  175.6050  142.9680 C   0  0  0  0  0  1  0  0  0  0  0  0
  189.1030  177.7040  143.7980 N   0  0  0  0  0  2  0  0  0  0  0  0
  188.0100  177.6360  144.7590 C   0  0  1  0  0  3  0  0  0  0  0  0
  187.1600  176.6010  144.4170 F   0  0  0  0  0  0  0  0  0  0  0  0
  189.8320  177.1990  146.3190 C   0  0  0  0  0  2  0  0  0  0  0  0
  188.5280  177.4250  146.1500 C   0  0  0  0  0  0  0  0  0  0  0  0
  187.6150  177.5980  147.3320 C   0  0  1  0  0  3  0  0  0  0  0  0
  188.3620  178.1720  148.5240 C   0  0  0  0  0  1  0  0  0  0  0  0
  186.4960  178.4600  146.9910 N   0  0  0  0  0  1  0  0  0  0  0  0
  188.2700  178.6470  141.3910 C   0  0  0  0  0  2  0  0  0  0  0  0
  185.6520  179.1840  142.5590 C   0  0  0  0  0  3  0  0  0  0  0  0
  184.6110  179.0950  140.2240 C   0  0  2  0  0  3  0  0  0  0  0  0
  187.0270  178.6900  140.5630 C   0  0  0  0  0  0  0  0  0  0  0  0
  183.2520  178.7680  142.2660 C   0  0  0  0  0  0  0  0  0  0  0  0
  185.8290  178.9590  141.1110 C   0  0  0  0  0  0  0  0  0  0  0  0
  185.9700  178.1320  138.4210 C   0  0  0  0  0  3  0  0  0  0  0  0
  183.3460  178.7000  140.9320 C   0  0  0  0  0  3  0  0  0  0  0  0
  184.7570  178.4170  138.8940 C   0  0  0  0  0  3  0  0  0  0  0  0
  181.7380  178.3700  143.0460 Cl  0  0  0  0  0  0  0  0  0  0  0  0
  184.4300  179.1050  143.0960 C   0  0  0  0  0  3  0  0  0  0  0  0
  187.1120  178.3660  139.2010 O   0  0  0  0  0  0  0  0  0  0  0  0
  1 17  1  1  0  0  0
  1  7  1  0  0  0  0
  2  5  1  0  0  0  0
  2  4  2  0  0  0  0
  3  6  1  0  0  0  0
  3  1  1  0  0  0  0
  4  6  1  0  0  0  0
  5  3  2  0  0  0  0
  7  8  1  6  0  0  0
  7  9  1  0  0  0  0
  9 10  1  0  0  0  0
 10 11  1  6  0  0  0
 10 13  1  0  0  0  0
 13 12  2  0  0  0  0
 13 14  1  0  0  0  0
 14 15  1  1  0  0  0
 16 14  1  0  0  0  0
 18 27  2  0  0  0  0
 19 25  1  6  0  0  0
 19 24  1  0  0  0  0
 19 22  1  0  0  0  0
 20 22  2  0  0  0  0
 20 17  1  0  0  0  0
 21 26  1  0  0  0  0
 21 27  1  0  0  0  0
 22 18  1  0  0  0  0
 23 25  2  0  0  0  0
 23 28  1  0  0  0  0
 24 21  2  0  0  0  0
 28 20  1  0  0  0  0
M  END
>  <MODEL>
3

>  <REMARK>
 VINA RESULT:      -8.1      2.832      5.956
  Name = 
  8 active torsions:
  status: ('A' for Active; 'I' for Inactive)
    1  A    between atoms: C_1  and  N_2
    2  A    between atoms: C_1  and  C_27
    3  A    between atoms: N_2  and  C_3
    4  A    between atoms: C_3  and  C_11
    5  A    between atoms: C_6  and  C_11
    6  A    between atoms: C_10  and  C_17
    7  A    between atoms: C_16  and  C_27
    8  A    between atoms: C_17  and  C_27
                            x       y       z     vdW  Elec       q    Type
                         _______ _______ _______ _____ _____    ______ ____

>  <TORSDO>
F 8

$$$$
=
 OpenBabel11052413253D

 28 30  0  0  1  0  0  0  0  0999 V2000
  184.4580  178.3480  141.1060 C   0  0  1  0  0  3  0  0  0  0  0  0
  181.2960  178.9900  142.8420 C   0  0  0  0  0  3  0  0  0  0  0  0
  183.0580  178.4790  141.6140 C   0  0  0  0  0  0  0  0  0  0  0  0
  180.7810  178.3140  141.6400 N   0  0  0  0  0  0  0  0  0  0  0  0
  182.7480  179.0470  142.7190 N   0  0  0  0  0  0  0  0  0  0  0  0
  181.9360  178.0190  140.9060 N   0  0  0  0  0  2  0  0  0  0  0  0
  184.5590  178.6290  139.6050 C   0  0  1  0  0  3  0  0  0  0  0  0
  183.7510  179.8460  139.1770 C   0  0  0  0  0  1  0  0  0  0  0  0
  185.9540  178.8030  139.2280 N   0  0  0  0  0  2  0  0  0  0  0  0
  186.2390  177.8890  138.1300 C   0  0  1  0  0  3  0  0  0  0  0  0
  185.9350  178.5030  136.9290 F   0  0  0  0  0  0  0  0  0  0  0  0
  188.0040  176.2740  137.6530 C   0  0  0  0  0  2  0  0  0  0  0  0
  187.6810  177.4760  138.1350 C   0  0  0  0  0  0  0  0  0  0  0  0
  188.7460  178.4520  138.5510 C   0  0  1  0  0  3  0  0  0  0  0  0
  190.0400  177.7370  138.8980 C   0  0  0  0  0  1  0  0  0  0  0  0
  188.9870  179.4240  137.4990 N   0  0  0  0  0  1  0  0  0  0  0  0
  185.4470  179.1600  141.9400 C   0  0  0  0  0  2  0  0  0  0  0  0
  185.5540  178.6280  144.8060 C   0  0  0  0  0  3  0  0  0  0  0  0
  187.4820  176.9930  144.4130 C   0  0  2  0  0  3  0  0  0  0  0  0
  186.4700  178.2510  142.5390 C   0  0  0  0  0  0  0  0  0  0  0  0
  187.0750  178.0150  146.6300 C   0  0  0  0  0  0  0  0  0  0  0  0
  186.4960  177.9990  143.8590 C   0  0  0  0  0  0  0  0  0  0  0  0
  188.6000  177.0730  142.2290 C   0  0  0  0  0  3  0  0  0  0  0  0
  187.8810  177.3090  145.8270 C   0  0  0  0  0  3  0  0  0  0  0  0
  188.6670  176.7610  143.5230 C   0  0  0  0  0  3  0  0  0  0  0  0
  187.5440  178.2970  148.2910 Cl  0  0  0  0  0  0  0  0  0  0  0  0
  185.8270  178.6210  146.1140 C   0  0  0  0  0  3  0  0  0  0  0  0
  187.4670  177.7170  141.7090 O   0  0  0  0  0  0  0  0  0  0  0  0
  1  3  1  0  0  0  0
  1 17  1  1  0  0  0
  3  5  2  0  0  0  0
  4  2  2  0  0  0  0
  5  2  1  0  0  0  0
  6  3  1  0  0  0  0
  6  4  1  0  0  0  0
  7  8  1  1  0  0  0
  7  1  1  0  0  0  0
  9  7  1  0  0  0  0
 10 11  1  6  0  0  0
 10 13  1  0  0  0  0
 10  9  1  0  0  0  0
 12 13  2  0  0  0  0
 13 14  1  0  0  0  0
 14 15  1  6  0  0  0
 16 14  1  0  0  0  0
 17 20  1  0  0  0  0
 18 27  2  0  0  0  0
 19 25  1  6  0  0  0
 19 24  1  0  0  0  0
 20 22  2  0  0  0  0
 21 26  1  0  0  0  0
 22 19  1  0  0  0  0
 22 18  1  0  0  0  0
 23 25  2  0  0  0  0
 24 21  2  0  0  0  0
 27 21  1  0  0  0  0
 28 23  1  0  0  0  0
 28 20  1  0  0  0  0
M  END
>  <MODEL>
4

>  <REMARK>
 VINA RESULT:      -7.9      4.460      6.627
  Name = 
  8 active torsions:
  status: ('A' for Active; 'I' for Inactive)
    1  A    between atoms: C_1  and  N_2
    2  A    between atoms: C_1  and  C_27
    3  A    between atoms: N_2  and  C_3
    4  A    between atoms: C_3  and  C_11
    5  A    between atoms: C_6  and  C_11
    6  A    between atoms: C_10  and  C_17
    7  A    between atoms: C_16  and  C_27
    8  A    between atoms: C_17  and  C_27
                            x       y       z     vdW  Elec       q    Type
                         _______ _______ _______ _____ _____    ______ ____

>  <TORSDO>
F 8

$$$$
=
 OpenBabel11052413253D

 28 30  0  0  1  0  0  0  0  0999 V2000
  188.6290  177.6440  141.9410 C   0  0  1  0  0  3  0  0  0  0  0  0
  191.9760  177.5280  140.4560 C   0  0  0  0  0  3  0  0  0  0  0  0
  189.8890  177.4210  141.1690 C   0  0  0  0  0  0  0  0  0  0  0  0
  191.3110  176.4990  139.6390 N   0  0  0  0  0  0  0  0  0  0  0  0
  190.9860  178.0410  141.3960 N   0  0  0  0  0  0  0  0  0  0  0  0
  190.0020  176.4760  140.1360 N   0  0  0  0  0  2  0  0  0  0  0  0
  187.4360  177.9470  141.0310 C   0  0  1  0  0  3  0  0  0  0  0  0
  186.3670  178.7830  141.7190 C   0  0  0  0  0  1  0  0  0  0  0  0
  187.8940  178.6220  139.8260 N   0  0  0  0  0  2  0  0  0  0  0  0
  187.2300  178.0030  138.6860 C   0  0  1  0  0  3  0  0  0  0  0  0
  186.0410  178.6610  138.4330 F   0  0  0  0  0  0  0  0  0  0  0  0
  189.0490  178.9870  137.3920 C   0  0  0  0  0  2  0  0  0  0  0  0
  188.1020  178.0500  137.4660 C   0  0  0  0  0  0  0  0  0  0  0  0
  187.9920  176.9790  136.4170 C   0  0  1  0  0  3  0  0  0  0  0  0
  188.1740  175.5980  137.0210 C   0  0  0  0  0  1  0  0  0  0  0  0
  186.7080  177.0560  135.7420 N   0  0  0  0  0  1  0  0  0  0  0  0
  188.3590  176.5160  142.9350 C   0  0  0  0  0  2  0  0  0  0  0  0
  190.7310  176.5650  144.6330 C   0  0  0  0  0  3  0  0  0  0  0  0
  189.3820  177.7520  146.4540 C   0  0  2  0  0  3  0  0  0  0  0  0
  188.3280  177.0630  144.3260 C   0  0  0  0  0  0  0  0  0  0  0  0
  191.4680  176.5250  146.9720 C   0  0  0  0  0  0  0  0  0  0  0  0
  189.4320  177.0980  145.0900 C   0  0  0  0  0  0  0  0  0  0  0  0
  186.9380  177.7510  146.2270 C   0  0  0  0  0  3  0  0  0  0  0  0
  190.3640  177.1410  147.4140 C   0  0  0  0  0  3  0  0  0  0  0  0
  187.9990  177.8380  147.0290 C   0  0  0  0  0  3  0  0  0  0  0  0
  192.6220  175.8920  148.1240 Cl  0  0  0  0  0  0  0  0  0  0  0  0
  191.6930  176.3090  145.5250 C   0  0  0  0  0  3  0  0  0  0  0  0
  187.0980  177.4730  144.8610 O   0  0  0  0  0  0  0  0  0  0  0  0
  1 17  1  6  0  0  0
  2  5  1  0  0  0  0
  3  5  2  0  0  0  0
  3  1  1  0  0  0  0
  4  6  1  0  0  0  0
  4  2  2  0  0  0  0
  6  3  1  0  0  0  0
  7  8  1  1  0  0  0
  7  1  1  0  0  0  0
  9  7  1  0  0  0  0
 10 11  1  6  0  0  0
 10  9  1  0  0  0  0
 12 13  2  0  0  0  0
 13 10  1  0  0  0  0
 14 15  1  1  0  0  0
 14 13  1  0  0  0  0
 16 14  1  0  0  0  0
 17 20  1  0  0  0  0
 18 22  1  0  0  0  0
 18 27  2  0  0  0  0
 19 25  1  1  0  0  0
 19 24  1  0  0  0  0
 20 28  1  0  0  0  0
 20 22  2  0  0  0  0
 21 24  2  0  0  0  0
 21 26  1  0  0  0  0
 22 19  1  0  0  0  0
 23 25  2  0  0  0  0
 27 21  1  0  0  0  0
 28 23  1  0  0  0  0
M  END
>  <MODEL>
5

>  <REMARK>
 VINA RESULT:      -7.8      3.471      5.344
  Name = 
  8 active torsions:
  status: ('A' for Active; 'I' for Inactive)
    1  A    between atoms: C_1  and  N_2
    2  A    between atoms: C_1  and  C_27
    3  A    between atoms: N_2  and  C_3
    4  A    between atoms: C_3  and  C_11
    5  A    between atoms: C_6  and  C_11
    6  A    between atoms: C_10  and  C_17
    7  A    between atoms: C_16  and  C_27
    8  A    between atoms: C_17  and  C_27
                            x       y       z     vdW  Elec       q    Type
                         _______ _______ _______ _____ _____    ______ ____

>  <TORSDO>
F 8

$$$$
=
 OpenBabel11052413253D

 28 30  0  0  1  0  0  0  0  0999 V2000
  189.5440  177.8040  139.7500 C   0  0  1  0  0  3  0  0  0  0  0  0
  192.3580  176.0020  138.2480 C   0  0  0  0  0  3  0  0  0  0  0  0
  190.5120  176.8880  139.0710 C   0  0  0  0  0  0  0  0  0  0  0  0
  191.2850  175.0240  138.0040 N   0  0  0  0  0  0  0  0  0  0  0  0
  191.7600  177.1400  138.9350 N   0  0  0  0  0  0  0  0  0  0  0  0
  190.1490  175.6370  138.5460 N   0  0  0  0  0  2  0  0  0  0  0  0
  188.6070  178.4960  138.7590 C   0  0  1  0  0  3  0  0  0  0  0  0
  189.3250  178.9760  137.5050 C   0  0  0  0  0  1  0  0  0  0  0  0
  187.5220  177.5970  138.3940 N   0  0  0  0  0  2  0  0  0  0  0  0
  186.4440  178.4000  137.8330 C   0  0  1  0  0  3  0  0  0  0  0  0
  186.4350  178.2610  136.4570 F   0  0  0  0  0  0  0  0  0  0  0  0
  184.5700  176.8440  137.9580 C   0  0  0  0  0  2  0  0  0  0  0  0
  185.1160  177.9820  138.3900 C   0  0  0  0  0  0  0  0  0  0  0  0
  184.4840  178.7660  139.5070 C   0  0  1  0  0  3  0  0  0  0  0  0
  185.3650  178.7640  140.7450 C   0  0  0  0  0  1  0  0  0  0  0  0
  184.2260  180.1330  139.0890 N   0  0  0  0  0  1  0  0  0  0  0  0
  188.8080  177.1110  140.8950 C   0  0  0  0  0  2  0  0  0  0  0  0
  187.5290  176.9070  143.5080 C   0  0  0  0  0  3  0  0  0  0  0  0
  189.8040  177.2420  144.6290 C   0  0  2  0  0  3  0  0  0  0  0  0
  189.5730  177.2810  142.1670 C   0  0  0  0  0  0  0  0  0  0  0  0
  187.6850  177.6760  145.8320 C   0  0  0  0  0  0  0  0  0  0  0  0
  188.9750  177.1650  143.3650 C   0  0  0  0  0  0  0  0  0  0  0  0
  191.6390  178.0730  143.2270 C   0  0  0  0  0  3  0  0  0  0  0  0
  189.0190  177.7850  145.7900 C   0  0  0  0  0  3  0  0  0  0  0  0
  191.1150  177.9470  144.4460 C   0  0  0  0  0  3  0  0  0  0  0  0
  186.8170  178.2550  147.2350 Cl  0  0  0  0  0  0  0  0  0  0  0  0
  186.9280  177.1390  144.6800 C   0  0  0  0  0  3  0  0  0  0  0  0
  190.9260  177.6460  142.0970 O   0  0  0  0  0  0  0  0  0  0  0  0
  1 17  1  1  0  0  0
  2  5  1  0  0  0  0
  3  1  1  0  0  0  0
  4  2  2  0  0  0  0
  4  6  1  0  0  0  0
  5  3  2  0  0  0  0
  6  3  1  0  0  0  0
  7  8  1  6  0  0  0
  7  1  1  0  0  0  0
  9  7  1  0  0  0  0
 10 11  1  6  0  0  0
 10 13  1  0  0  0  0
 10  9  1  0  0  0  0
 12 13  2  0  0  0  0
 13 14  1  0  0  0  0
 14 15  1  1  0  0  0
 16 14  1  0  0  0  0
 17 20  1  0  0  0  0
 18 27  2  0  0  0  0
 19 25  1  6  0  0  0
 19 24  1  0  0  0  0
 20 22  2  0  0  0  0
 21 26  1  0  0  0  0
 22 18  1  0  0  0  0
 22 19  1  0  0  0  0
 23 25  2  0  0  0  0
 24 21  2  0  0  0  0
 27 21  1  0  0  0  0
 28 20  1  0  0  0  0
 28 23  1  0  0  0  0
M  END
>  <MODEL>
6

>  <REMARK>
 VINA RESULT:      -7.8      3.749      6.097
  Name = 
  8 active torsions:
  status: ('A' for Active; 'I' for Inactive)
    1  A    between atoms: C_1  and  N_2
    2  A    between atoms: C_1  and  C_27
    3  A    between atoms: N_2  and  C_3
    4  A    between atoms: C_3  and  C_11
    5  A    between atoms: C_6  and  C_11
    6  A    between atoms: C_10  and  C_17
    7  A    between atoms: C_16  and  C_27
    8  A    between atoms: C_17  and  C_27
                            x       y       z     vdW  Elec       q    Type
                         _______ _______ _______ _____ _____    ______ ____

>  <TORSDO>
F 8

$$$$
=
 OpenBabel11052413253D

 28 30  0  0  1  0  0  0  0  0999 V2000
  187.4170  178.0720  142.1800 C   0  0  1  0  0  3  0  0  0  0  0  0
  189.9220  177.3180  139.6150 C   0  0  0  0  0  3  0  0  0  0  0  0
  188.3670  177.9950  141.0280 C   0  0  0  0  0  0  0  0  0  0  0  0
  189.3830  178.5740  139.0680 N   0  0  0  0  0  0  0  0  0  0  0  0
  189.2030  177.0410  140.8530 N   0  0  0  0  0  0  0  0  0  0  0  0
  188.4070  178.9500  139.9990 N   0  0  0  0  0  2  0  0  0  0  0  0
  185.9850  178.3720  141.7330 C   0  0  1  0  0  3  0  0  0  0  0  0
  185.2710  179.3480  142.6570 C   0  0  0  0  0  1  0  0  0  0  0  0
  185.9910  178.8910  140.3740 N   0  0  0  0  0  2  0  0  0  0  0  0
  184.6500  178.7320  139.8270 C   0  0  1  0  0  3  0  0  0  0  0  0
  184.1160  179.9760  139.5460 F   0  0  0  0  0  0  0  0  0  0  0  0
  185.7030  178.0310  137.7420 C   0  0  0  0  0  2  0  0  0  0  0  0
  184.6730  177.8990  138.5800 C   0  0  0  0  0  0  0  0  0  0  0  0
  183.6230  176.8470  138.3540 C   0  0  1  0  0  3  0  0  0  0  0  0
  182.5810  176.8650  139.4590 C   0  0  0  0  0  1  0  0  0  0  0  0
  182.9780  177.0380  137.0660 N   0  0  0  0  0  1  0  0  0  0  0  0
  187.5220  176.8500  143.0910 C   0  0  0  0  0  2  0  0  0  0  0  0
  190.0960  176.7980  144.4640 C   0  0  0  0  0  3  0  0  0  0  0  0
  188.9940  177.8260  146.5310 C   0  0  2  0  0  3  0  0  0  0  0  0
  187.6710  177.2880  144.5120 C   0  0  0  0  0  0  0  0  0  0  0  0
  191.1330  176.5890  146.6770 C   0  0  0  0  0  0  0  0  0  0  0  0
  188.8670  177.2780  145.1260 C   0  0  0  0  0  0  0  0  0  0  0  0
  186.5410  177.8120  146.6250 C   0  0  0  0  0  3  0  0  0  0  0  0
  190.0940  177.1550  147.3050 C   0  0  0  0  0  3  0  0  0  0  0  0
  187.6970  177.8510  147.2860 C   0  0  0  0  0  3  0  0  0  0  0  0
  192.4280  175.8840  147.6160 Cl  0  0  0  0  0  0  0  0  0  0  0  0
  191.1660  176.4870  145.2010 C   0  0  0  0  0  3  0  0  0  0  0  0
  186.5210  177.6410  145.2330 O   0  0  0  0  0  0  0  0  0  0  0  0
  1 17  1  6  0  0  0
  2  5  1  0  0  0  0
  3  1  1  0  0  0  0
  4  2  2  0  0  0  0
  4  6  1  0  0  0  0
  5  3  2  0  0  0  0
  6  3  1  0  0  0  0
  7  1  1  0  0  0  0
  7  8  1  1  0  0  0
  9  7  1  0  0  0  0
 10 11  1  6  0  0  0
 10  9  1  0  0  0  0
 12 13  2  0  0  0  0
 13 10  1  0  0  0  0
 14 13  1  0  0  0  0
 14 15  1  1  0  0  0
 16 14  1  0  0  0  0
 17 20  1  0  0  0  0
 18 22  1  0  0  0  0
 18 27  2  0  0  0  0
 19 25  1  1  0  0  0
 19 24  1  0  0  0  0
 20 22  2  0  0  0  0
 20 28  1  0  0  0  0
 21 24  2  0  0  0  0
 21 26  1  0  0  0  0
 22 19  1  0  0  0  0
 23 25  2  0  0  0  0
 27 21  1  0  0  0  0
 28 23  1  0  0  0  0
M  END
>  <MODEL>
7

>  <REMARK>
 VINA RESULT:      -7.7      3.947      6.115
  Name = 
  8 active torsions:
  status: ('A' for Active; 'I' for Inactive)
    1  A    between atoms: C_1  and  N_2
    2  A    between atoms: C_1  and  C_27
    3  A    between atoms: N_2  and  C_3
    4  A    between atoms: C_3  and  C_11
    5  A    between atoms: C_6  and  C_11
    6  A    between atoms: C_10  and  C_17
    7  A    between atoms: C_16  and  C_27
    8  A    between atoms: C_17  and  C_27
                            x       y       z     vdW  Elec       q    Type
                         _______ _______ _______ _____ _____    ______ ____

>  <TORSDO>
F 8

$$$$
=
 OpenBabel11052413253D

 28 30  0  0  1  0  0  0  0  0999 V2000
  187.6870  178.4580  141.3140 C   0  0  1  0  0  3  0  0  0  0  0  0
  188.9550  177.3160  138.0720 C   0  0  0  0  0  3  0  0  0  0  0  0
  188.2500  178.2470  139.9460 C   0  0  0  0  0  0  0  0  0  0  0  0
  189.0940  178.7710  137.8900 N   0  0  0  0  0  0  0  0  0  0  0  0
  188.4060  177.0970  139.4050 N   0  0  0  0  0  0  0  0  0  0  0  0
  188.6330  179.3020  139.1010 N   0  0  0  0  0  2  0  0  0  0  0  0
  186.2960  179.0960  141.2770 C   0  0  1  0  0  3  0  0  0  0  0  0
  185.4740  178.6490  140.0760 C   0  0  0  0  0  1  0  0  0  0  0  0
  185.5800  178.7900  142.5070 N   0  0  0  0  0  2  0  0  0  0  0  0
  184.1640  178.6790  142.1860 C   0  0  1  0  0  3  0  0  0  0  0  0
  183.8920  177.3980  141.7410 F   0  0  0  0  0  0  0  0  0  0  0  0
  183.9090  179.1350  144.5680 C   0  0  0  0  0  2  0  0  0  0  0  0
  183.3140  178.9880  143.3820 C   0  0  0  0  0  0  0  0  0  0  0  0
  181.8440  179.2560  143.2170 C   0  0  1  0  0  3  0  0  0  0  0  0
  181.4400  179.2150  141.7530 C   0  0  0  0  0  1  0  0  0  0  0  0
  181.0610  178.2930  143.9720 N   0  0  0  0  0  1  0  0  0  0  0  0
  187.7460  177.1870  142.1590 C   0  0  0  0  0  2  0  0  0  0  0  0
  187.4430  177.0640  145.0580 C   0  0  0  0  0  3  0  0  0  0  0  0
  189.9880  177.1270  145.3090 C   0  0  2  0  0  3  0  0  0  0  0  0
  188.9200  177.2450  143.0820 C   0  0  0  0  0  0  0  0  0  0  0  0
  188.4810  177.7590  147.1680 C   0  0  0  0  0  0  0  0  0  0  0  0
  188.7680  177.1670  144.4150 C   0  0  0  0  0  0  0  0  0  0  0  0
  191.2990  177.7860  143.3420 C   0  0  0  0  0  3  0  0  0  0  0  0
  189.7210  177.7250  146.6620 C   0  0  0  0  0  3  0  0  0  0  0  0
  191.2220  177.6900  144.6680 C   0  0  0  0  0  3  0  0  0  0  0  0
  188.2240  178.3970  148.7760 Cl  0  0  0  0  0  0  0  0  0  0  0  0
  187.3170  177.3330  146.3610 C   0  0  0  0  0  3  0  0  0  0  0  0
  190.1940  177.4640  142.5380 O   0  0  0  0  0  0  0  0  0  0  0  0
  1 17  1  6  0  0  0
  2  5  1  0  0  0  0
  3  1  1  0  0  0  0
  4  2  2  0  0  0  0
  4  6  1  0  0  0  0
  5  3  2  0  0  0  0
  6  3  1  0  0  0  0
  7  8  1  6  0  0  0
  7  1  1  0  0  0  0
  7  9  1  0  0  0  0
 10 11  1  1  0  0  0
 10  9  1  0  0  0  0
 10 13  1  0  0  0  0
 13 12  2  0  0  0  0
 14 15  1  6  0  0  0
 14 13  1  0  0  0  0
 14 16  1  0  0  0  0
 17 20  1  0  0  0  0
 18 27  2  0  0  0  0
 19 25  1  6  0  0  0
 19 24  1  0  0  0  0
 20 22  2  0  0  0  0
 21 26  1  0  0  0  0
 22 18  1  0  0  0  0
 22 19  1  0  0  0  0
 23 25  2  0  0  0  0
 24 21  2  0  0  0  0
 27 21  1  0  0  0  0
 28 20  1  0  0  0  0
 28 23  1  0  0  0  0
M  END
>  <MODEL>
8

>  <REMARK>
 VINA RESULT:      -7.6      3.741      6.882
  Name = 
  8 active torsions:
  status: ('A' for Active; 'I' for Inactive)
    1  A    between atoms: C_1  and  N_2
    2  A    between atoms: C_1  and  C_27
    3  A    between atoms: N_2  and  C_3
    4  A    between atoms: C_3  and  C_11
    5  A    between atoms: C_6  and  C_11
    6  A    between atoms: C_10  and  C_17
    7  A    between atoms: C_16  and  C_27
    8  A    between atoms: C_17  and  C_27
                            x       y       z     vdW  Elec       q    Type
                         _______ _______ _______ _____ _____    ______ ____

>  <TORSDO>
F 8

$$$$
=
 OpenBabel11052413253D

 28 30  0  0  1  0  0  0  0  0999 V2000
  189.7800  177.2850  141.1390 C   0  0  1  0  0  3  0  0  0  0  0  0
  193.0300  177.1610  139.4510 C   0  0  0  0  0  3  0  0  0  0  0  0
  190.9930  177.0540  140.2950 C   0  0  0  0  0  0  0  0  0  0  0  0
  192.3260  176.1070  138.7020 N   0  0  0  0  0  0  0  0  0  0  0  0
  192.0960  177.6880  140.4390 N   0  0  0  0  0  0  0  0  0  0  0  0
  191.0500  176.0850  139.2800 N   0  0  0  0  0  2  0  0  0  0  0  0
  188.5640  177.6990  140.3070 C   0  0  1  0  0  3  0  0  0  0  0  0
  187.6400  178.6540  141.0490 C   0  0  0  0  0  1  0  0  0  0  0  0
  189.0040  178.3050  139.0590 N   0  0  0  0  0  2  0  0  0  0  0  0
  188.4560  177.5190  137.9610 C   0  0  1  0  0  3  0  0  0  0  0  0
  188.1350  176.2540  138.4170 F   0  0  0  0  0  0  0  0  0  0  0  0
  187.3940  179.1950  136.5430 C   0  0  0  0  0  2  0  0  0  0  0  0
  187.2350  178.1740  137.3880 C   0  0  0  0  0  0  0  0  0  0  0  0
  185.8710  177.6020  137.6600 C   0  0  1  0  0  3  0  0  0  0  0  0
  185.0240  178.5670  138.4720 C   0  0  0  0  0  1  0  0  0  0  0  0
  185.1950  177.2800  136.4160 N   0  0  0  0  0  1  0  0  0  0  0  0
  189.5010  176.1090  142.0720 C   0  0  0  0  0  2  0  0  0  0  0  0
  187.4230  176.7410  144.0200 C   0  0  0  0  0  3  0  0  0  0  0  0
  189.2210  177.0430  145.8140 C   0  0  2  0  0  3  0  0  0  0  0  0
  189.8240  176.4910  143.4800 C   0  0  0  0  0  0  0  0  0  0  0  0
  186.9680  178.0420  146.0490 C   0  0  0  0  0  0  0  0  0  0  0  0
  188.8560  176.7600  144.3730 C   0  0  0  0  0  0  0  0  0  0  0  0
  191.5470  177.2440  145.0570 C   0  0  0  0  0  3  0  0  0  0  0  0
  188.2340  177.9600  146.4810 C   0  0  0  0  0  3  0  0  0  0  0  0
  190.6380  177.4990  145.9970 C   0  0  0  0  0  3  0  0  0  0  0  0
  185.8320  179.0660  146.8980 Cl  0  0  0  0  0  0  0  0  0  0  0  0
  186.5350  177.3370  144.8220 C   0  0  0  0  0  3  0  0  0  0  0  0
  191.1690  176.6440  143.8450 O   0  0  0  0  0  0  0  0  0  0  0  0
  1 17  1  6  0  0  0
  2  5  1  0  0  0  0
  3  5  2  0  0  0  0
  3  1  1  0  0  0  0
  4  6  1  0  0  0  0
  4  2  2  0  0  0  0
  6  3  1  0  0  0  0
  7  8  1  1  0  0  0
  7  1  1  0  0  0  0
  9  7  1  0  0  0  0
 10 11  1  1  0  0  0
 10  9  1  0  0  0  0
 12 13  2  0  0  0  0
 13 14  1  0  0  0  0
 13 10  1  0  0  0  0
 14 15  1  6  0  0  0
 16 14  1  0  0  0  0
 17 20  1  0  0  0  0
 18 22  1  0  0  0  0
 18 27  2  0  0  0  0
 19 25  1  6  0  0  0
 19 24  1  0  0  0  0
 20 28  1  0  0  0  0
 20 22  2  0  0  0  0
 21 24  2  0  0  0  0
 21 26  1  0  0  0  0
 22 19  1  0  0  0  0
 23 25  2  0  0  0  0
 27 21  1  0  0  0  0
 28 23  1  0  0  0  0
M  END
>  <MODEL>
9

>  <REMARK>
 VINA RESULT:      -7.6      3.041      5.041
  Name = 
  8 active torsions:
  status: ('A' for Active; 'I' for Inactive)
    1  A    between atoms: C_1  and  N_2
    2  A    between atoms: C_1  and  C_27
    3  A    between atoms: N_2  and  C_3
    4  A    between atoms: C_3  and  C_11
    5  A    between atoms: C_6  and  C_11
    6  A    between atoms: C_10  and  C_17
    7  A    between atoms: C_16  and  C_27
    8  A    between atoms: C_17  and  C_27
                            x       y       z     vdW  Elec       q    Type
                         _______ _______ _______ _____ _____    ______ ____

>  <TORSDO>
F 8

$$$$
