=
 OpenBabel11052413453D

 27 31  0  0  1  0  0  0  0  0999 V2000
  190.9510  177.8060  140.8130 C   0  0  0  0  0  2  0  0  0  0  0  0
  188.4290  177.6160  141.1100 C   0  0  0  0  0  0  0  0  0  0  0  0
  189.2120  176.5730  143.2490 N   0  0  0  0  0  2  0  0  0  0  0  0
  184.9280  178.9020  143.0180 C   0  0  0  0  0  3  0  0  0  0  0  0
  183.4350  179.0370  145.0160 C   0  0  0  0  0  1  0  0  0  0  0  0
  187.4590  178.3930  140.4550 C   0  0  0  0  0  3  0  0  0  0  0  0
  186.7910  177.3840  144.4540 C   0  0  0  0  0  3  0  0  0  0  0  0
  191.4490  176.4330  145.2370 C   0  0  0  0  0  2  0  0  0  0  0  0
  185.6140  177.8190  145.0720 C   0  0  0  0  0  3  0  0  0  0  0  0
  192.1470  177.6910  145.0140 N   0  0  0  0  0  2  0  0  0  0  0  0
  187.0440  177.7000  143.1110 C   0  0  0  0  0  0  0  0  0  0  0  0
  189.6510  177.1360  140.3550 C   0  0  1  0  0  3  0  0  0  0  0  0
  184.6840  178.5760  144.3550 C   0  0  0  0  0  0  0  0  0  0  0  0
  186.1000  178.4690  142.3930 C   0  0  0  0  0  0  0  0  0  0  0  0
  191.2970  177.5420  142.2810 C   0  0  1  0  0  3  0  0  0  0  0  0
  188.2250  177.2820  142.4730 C   0  0  0  0  0  0  0  0  0  0  0  0
  191.3830  175.6130  143.9500 C   0  0  0  0  0  2  0  0  0  0  0  0
  186.3350  178.7980  141.0990 N   0  0  0  0  0  0  0  0  0  0  0  0
  191.1370  178.6560  144.6110 C   0  0  0  0  0  2  0  0  0  0  0  0
  191.1110  178.8340  143.0930 C   0  0  0  0  0  2  0  0  0  0  0  0
  190.5850  176.2910  142.8340 C   0  0  1  0  0  3  0  0  0  0  0  0
  189.2160  177.0550  136.0740 C   0  0  0  0  0  3  0  0  0  0  0  0
  189.5150  177.1250  138.8590 C   0  0  0  0  0  0  0  0  0  0  0  0
  189.4300  175.8990  138.1910 C   0  0  0  0  0  3  0  0  0  0  0  0
  189.2830  175.8640  136.8010 C   0  0  0  0  0  3  0  0  0  0  0  0
  189.2950  178.2840  136.7360 C   0  0  0  0  0  3  0  0  0  0  0  0
  189.4420  178.3200  138.1250 C   0  0  0  0  0  3  0  0  0  0  0  0
  2 16  1  0  0  0  0
  4 13  2  0  0  0  0
  6 18  1  0  0  0  0
  6  2  2  0  0  0  0
  7  9  2  0  0  0  0
 10  8  1  0  0  0  0
 11  7  1  0  0  0  0
 12 23  1  6  0  0  0
 12  1  1  0  0  0  0
 12  2  1  0  0  0  0
 13  5  1  0  0  0  0
 13  9  1  0  0  0  0
 14  4  1  0  0  0  0
 14 11  1  0  0  0  0
 15  1  1  6  0  0  0
 15 21  1  0  0  0  0
 15 20  1  0  0  0  0
 16 11  2  0  0  0  0
 16  3  1  0  0  0  0
 17  8  1  0  0  0  0
 18 14  2  0  0  0  0
 19 10  1  0  0  0  0
 20 19  1  0  0  0  0
 21  3  1  0  0  0  0
 21 17  1  1  0  0  0
 22 26  2  0  0  0  0
 22 25  1  0  0  0  0
 24 23  1  0  0  0  0
 25 24  2  0  0  0  0
 26 27  1  0  0  0  0
 27 23  2  0  0  0  0
M  END
>  <MODEL>
1

>  <REMARK>
 VINA RESULT:      -9.4      0.000      0.000
  Name = 
  1 active torsions:
  status: ('A' for Active; 'I' for Inactive)
    1  A    between atoms: C_9  and  C_15
                            x       y       z     vdW  Elec       q    Type
                         _______ _______ _______ _____ _____    ______ ____

>  <TORSDO>
F 1

$$$$
=
 OpenBabel11052413453D

 27 31  0  0  1  0  0  0  0  0999 V2000
  189.9780  176.7630  140.3690 C   0  0  0  0  0  2  0  0  0  0  0  0
  188.0350  177.8970  141.5630 C   0  0  0  0  0  0  0  0  0  0  0  0
  187.7440  178.8230  139.2530 N   0  0  0  0  0  2  0  0  0  0  0  0
  183.9090  178.2160  142.2120 C   0  0  0  0  0  3  0  0  0  0  0  0
  181.6130  178.8720  141.4810 C   0  0  0  0  0  1  0  0  0  0  0  0
  187.4260  177.4590  142.7490 C   0  0  0  0  0  3  0  0  0  0  0  0
  184.9850  179.1020  139.7840 C   0  0  0  0  0  3  0  0  0  0  0  0
  188.2730  178.3650  136.3400 C   0  0  0  0  0  2  0  0  0  0  0  0
  183.6110  179.2040  140.0210 C   0  0  0  0  0  3  0  0  0  0  0  0
  188.4540  176.9220  136.2760 N   0  0  0  0  0  2  0  0  0  0  0  0
  185.8340  178.5610  140.7610 C   0  0  0  0  0  0  0  0  0  0  0  0
  189.5390  177.8040  141.4040 C   0  0  1  0  0  3  0  0  0  0  0  0
  183.0740  178.7620  141.2340 C   0  0  0  0  0  0  0  0  0  0  0  0
  185.2830  178.1120  141.9830 C   0  0  0  0  0  0  0  0  0  0  0  0
  189.4740  177.0520  138.9520 C   0  0  1  0  0  3  0  0  0  0  0  0
  187.2170  178.4400  140.5390 C   0  0  0  0  0  0  0  0  0  0  0  0
  189.2690  178.9960  137.3110 C   0  0  0  0  0  2  0  0  0  0  0  0
  186.0860  177.5720  142.9320 N   0  0  0  0  0  0  0  0  0  0  0  0
  187.6020  176.3550  137.3080 C   0  0  0  0  0  2  0  0  0  0  0  0
  188.3990  176.0220  138.5690 C   0  0  0  0  0  2  0  0  0  0  0  0
  189.0880  178.5320  138.7580 C   0  0  1  0  0  3  0  0  0  0  0  0
  191.7920  177.4290  145.0510 C   0  0  0  0  0  3  0  0  0  0  0  0
  190.3110  177.6890  142.6870 C   0  0  0  0  0  0  0  0  0  0  0  0
  190.7220  176.4250  143.1240 C   0  0  0  0  0  3  0  0  0  0  0  0
  191.4580  176.2950  144.3060 C   0  0  0  0  0  3  0  0  0  0  0  0
  191.3890  178.6950  144.6170 C   0  0  0  0  0  3  0  0  0  0  0  0
  190.6530  178.8260  143.4360 C   0  0  0  0  0  3  0  0  0  0  0  0
  1 12  1  0  0  0  0
  2  6  1  0  0  0  0
  3 16  1  0  0  0  0
  6 18  2  0  0  0  0
  7  9  2  0  0  0  0
  7 11  1  0  0  0  0
  8 17  1  0  0  0  0
  9 13  1  0  0  0  0
 10  8  1  0  0  0  0
 10 19  1  0  0  0  0
 11 14  2  0  0  0  0
 12  2  1  0  0  0  0
 12 23  1  1  0  0  0
 13  5  1  0  0  0  0
 13  4  2  0  0  0  0
 14  4  1  0  0  0  0
 14 18  1  0  0  0  0
 15 20  1  1  0  0  0
 15  1  1  0  0  0  0
 16 11  1  0  0  0  0
 16  2  2  0  0  0  0
 19 20  1  0  0  0  0
 21 17  1  6  0  0  0
 21 15  1  0  0  0  0
 21  3  1  0  0  0  0
 23 24  2  0  0  0  0
 23 27  1  0  0  0  0
 24 25  1  0  0  0  0
 25 22  2  0  0  0  0
 26 22  1  0  0  0  0
 27 26  2  0  0  0  0
M  END
>  <MODEL>
2

>  <REMARK>
 VINA RESULT:      -8.0      1.941      5.508
  Name = 
  1 active torsions:
  status: ('A' for Active; 'I' for Inactive)
    1  A    between atoms: C_9  and  C_15
                            x       y       z     vdW  Elec       q    Type
                         _______ _______ _______ _____ _____    ______ ____

>  <TORSDO>
F 1

$$$$
=
 OpenBabel11052413453D

 27 31  0  0  1  0  0  0  0  0999 V2000
  182.1110  179.0440  141.8200 C   0  0  0  0  0  2  0  0  0  0  0  0
  184.1780  178.1880  140.6030 C   0  0  0  0  0  0  0  0  0  0  0  0
  182.3770  177.0890  139.2530 N   0  0  0  0  0  2  0  0  0  0  0  0
  186.6570  178.2770  137.2260 C   0  0  0  0  0  3  0  0  0  0  0  0
  187.1270  177.7560  134.8300 C   0  0  0  0  0  1  0  0  0  0  0  0
  185.4520  178.7790  140.6220 C   0  0  0  0  0  3  0  0  0  0  0  0
  184.1280  177.0920  137.0370 C   0  0  0  0  0  3  0  0  0  0  0  0
  179.5090  177.2410  138.4010 C   0  0  0  0  0  2  0  0  0  0  0  0
  184.9710  177.1280  135.9220 C   0  0  0  0  0  3  0  0  0  0  0  0
  179.2010  178.6520  138.5830 N   0  0  0  0  0  2  0  0  0  0  0  0
  184.5440  177.6440  138.2580 C   0  0  0  0  0  0  0  0  0  0  0  0
  183.3470  178.1390  141.8690 C   0  0  1  0  0  3  0  0  0  0  0  0
  186.2340  177.7190  136.0170 C   0  0  0  0  0  0  0  0  0  0  0  0
  185.8200  178.2440  138.3450 C   0  0  0  0  0  0  0  0  0  0  0  0
  181.1200  178.6740  140.7120 C   0  0  1  0  0  3  0  0  0  0  0  0
  183.7080  177.6270  139.3880 C   0  0  0  0  0  0  0  0  0  0  0  0
  179.9900  176.6170  139.7100 C   0  0  0  0  0  2  0  0  0  0  0  0
  186.2330  178.7970  139.5120 N   0  0  0  0  0  0  0  0  0  0  0  0
  180.4320  179.3780  138.3190 C   0  0  0  0  0  2  0  0  0  0  0  0
  181.1470  179.7530  139.6170 C   0  0  0  0  0  2  0  0  0  0  0  0
  181.2970  177.2210  140.2280 C   0  0  1  0  0  3  0  0  0  0  0  0
  185.5030  178.5840  145.5660 C   0  0  0  0  0  3  0  0  0  0  0  0
  184.1180  178.3010  143.1470 C   0  0  0  0  0  0  0  0  0  0  0  0
  183.4810  178.8590  144.2610 C   0  0  0  0  0  3  0  0  0  0  0  0
  184.1740  179.0030  145.4680 C   0  0  0  0  0  3  0  0  0  0  0  0
  186.1430  178.0220  144.4580 C   0  0  0  0  0  3  0  0  0  0  0  0
  185.4530  177.8780  143.2520 C   0  0  0  0  0  3  0  0  0  0  0  0
  1 12  1  0  0  0  0
  2  6  1  0  0  0  0
  2 12  1  0  0  0  0
  3 16  1  0  0  0  0
  3 21  1  0  0  0  0
  4 14  1  0  0  0  0
  5 13  1  0  0  0  0
  7 11  1  0  0  0  0
  8 10  1  0  0  0  0
  8 17  1  0  0  0  0
  9 13  1  0  0  0  0
  9  7  2  0  0  0  0
 11 14  2  0  0  0  0
 11 16  1  0  0  0  0
 12 23  1  1  0  0  0
 13  4  2  0  0  0  0
 14 18  1  0  0  0  0
 15 20  1  6  0  0  0
 15  1  1  0  0  0  0
 16  2  2  0  0  0  0
 18  6  2  0  0  0  0
 19 10  1  0  0  0  0
 19 20  1  0  0  0  0
 21 17  1  6  0  0  0
 21 15  1  0  0  0  0
 23 27  2  0  0  0  0
 23 24  1  0  0  0  0
 24 25  2  0  0  0  0
 25 22  1  0  0  0  0
 26 22  2  0  0  0  0
 27 26  1  0  0  0  0
M  END
>  <MODEL>
3

>  <REMARK>
 VINA RESULT:      -7.6      3.945      8.902
  Name = 
  1 active torsions:
  status: ('A' for Active; 'I' for Inactive)
    1  A    between atoms: C_9  and  C_15
                            x       y       z     vdW  Elec       q    Type
                         _______ _______ _______ _____ _____    ______ ____

>  <TORSDO>
F 1

$$$$
=
 OpenBabel11052413453D

 27 31  0  0  1  0  0  0  0  0999 V2000
  187.0880  177.1480  144.1650 C   0  0  0  0  0  2  0  0  0  0  0  0
  186.7270  178.1950  141.8710 C   0  0  0  0  0  0  0  0  0  0  0  0
  189.1980  178.5180  142.1270 N   0  0  0  0  0  2  0  0  0  0  0  0
  187.1850  177.9860  137.7120 C   0  0  0  0  0  3  0  0  0  0  0  0
  188.5860  178.0820  135.6470 C   0  0  0  0  0  1  0  0  0  0  0  0
  185.6480  177.9430  141.0090 C   0  0  0  0  0  3  0  0  0  0  0  0
  189.4310  178.4630  139.3140 C   0  0  0  0  0  3  0  0  0  0  0  0
  191.6810  177.5080  143.4670 C   0  0  0  0  0  2  0  0  0  0  0  0
  189.5630  178.3940  137.9240 C   0  0  0  0  0  3  0  0  0  0  0  0
  191.3230  176.1350  143.7970 N   0  0  0  0  0  2  0  0  0  0  0  0
  188.1740  178.2990  139.9150 C   0  0  0  0  0  0  0  0  0  0  0  0
  186.4940  178.3110  143.3640 C   0  0  1  0  0  3  0  0  0  0  0  0
  188.4410  178.1560  137.1240 C   0  0  0  0  0  0  0  0  0  0  0  0
  187.0450  178.0550  139.1010 C   0  0  0  0  0  0  0  0  0  0  0  0
  188.6100  177.0260  144.0370 C   0  0  1  0  0  3  0  0  0  0  0  0
  188.0210  178.3550  141.3120 C   0  0  0  0  0  0  0  0  0  0  0  0
  190.6980  178.4920  144.0970 C   0  0  0  0  0  2  0  0  0  0  0  0
  185.8250  177.8780  139.6650 N   0  0  0  0  0  0  0  0  0  0  0  0
  190.4140  175.6860  142.7560 C   0  0  0  0  0  2  0  0  0  0  0  0
  188.9570  175.7780  143.2100 C   0  0  0  0  0  2  0  0  0  0  0  0
  189.2660  178.3430  143.5770 C   0  0  1  0  0  3  0  0  0  0  0  0
  182.4180  179.1340  144.4740 C   0  0  0  0  0  3  0  0  0  0  0  0
  185.0790  178.6140  143.7670 C   0  0  0  0  0  0  0  0  0  0  0  0
  184.0990  178.7400  142.7760 C   0  0  0  0  0  3  0  0  0  0  0  0
  182.7720  179.0030  143.1290 C   0  0  0  0  0  3  0  0  0  0  0  0
  183.3910  179.0030  145.4690 C   0  0  0  0  0  3  0  0  0  0  0  0
  184.7180  178.7410  145.1190 C   0  0  0  0  0  3  0  0  0  0  0  0
  2 12  1  0  0  0  0
  3 21  1  0  0  0  0
  4 14  1  0  0  0  0
  5 13  1  0  0  0  0
  6  2  2  0  0  0  0
  7 11  1  0  0  0  0
  8 10  1  0  0  0  0
  8 17  1  0  0  0  0
  9  7  2  0  0  0  0
 11 16  2  0  0  0  0
 12 23  1  6  0  0  0
 12  1  1  0  0  0  0
 13  4  2  0  0  0  0
 13  9  1  0  0  0  0
 14 18  2  0  0  0  0
 14 11  1  0  0  0  0
 15 20  1  6  0  0  0
 15  1  1  0  0  0  0
 16  2  1  0  0  0  0
 16  3  1  0  0  0  0
 18  6  1  0  0  0  0
 19 20  1  0  0  0  0
 19 10  1  0  0  0  0
 21 15  1  0  0  0  0
 21 17  1  6  0  0  0
 22 26  1  0  0  0  0
 23 27  1  0  0  0  0
 24 25  1  0  0  0  0
 24 23  2  0  0  0  0
 25 22  2  0  0  0  0
 27 26  2  0  0  0  0
M  END
>  <MODEL>
4

>  <REMARK>
 VINA RESULT:      -7.6      1.451      5.988
  Name = 
  1 active torsions:
  status: ('A' for Active; 'I' for Inactive)
    1  A    between atoms: C_9  and  C_15
                            x       y       z     vdW  Elec       q    Type
                         _______ _______ _______ _____ _____    ______ ____

>  <TORSDO>
F 1

$$$$
=
 OpenBabel11052413453D

 27 31  0  0  1  0  0  0  0  0999 V2000
  188.9490  178.2840  140.0100 C   0  0  0  0  0  2  0  0  0  0  0  0
  190.9940  176.8490  139.5160 C   0  0  0  0  0  0  0  0  0  0  0  0
  189.4480  176.0620  137.7090 N   0  0  0  0  0  2  0  0  0  0  0  0
  194.2860  176.0050  137.0660 C   0  0  0  0  0  3  0  0  0  0  0  0
  195.2860  175.1400  134.9480 C   0  0  0  0  0  1  0  0  0  0  0  0
  192.3130  177.1280  139.9090 C   0  0  0  0  0  3  0  0  0  0  0  0
  191.7080  175.4250  136.1420 C   0  0  0  0  0  3  0  0  0  0  0  0
  187.0870  176.7830  136.0110 C   0  0  0  0  0  2  0  0  0  0  0  0
  192.8200  175.1470  135.3410 C   0  0  0  0  0  3  0  0  0  0  0  0
  187.1070  178.2390  136.0470 N   0  0  0  0  0  2  0  0  0  0  0  0
  191.8760  175.9910  137.4150 C   0  0  0  0  0  0  0  0  0  0  0  0
  189.8460  177.1280  140.4640 C   0  0  1  0  0  3  0  0  0  0  0  0
  194.1070  175.4360  135.8030 C   0  0  0  0  0  0  0  0  0  0  0  0
  193.1810  176.2840  137.8730 C   0  0  0  0  0  0  0  0  0  0  0  0
  188.2630  178.0390  138.6620 C   0  0  1  0  0  3  0  0  0  0  0  0
  190.7720  176.2880  138.2320 C   0  0  0  0  0  0  0  0  0  0  0  0
  186.9930  176.2060  137.4220 C   0  0  0  0  0  2  0  0  0  0  0  0
  193.3610  176.8470  139.0940 N   0  0  0  0  0  0  0  0  0  0  0  0
  188.5040  178.6280  136.1540 C   0  0  0  0  0  2  0  0  0  0  0  0
  188.8800  178.9610  137.5980 C   0  0  0  0  0  2  0  0  0  0  0  0
  188.2000  176.5420  138.3000 C   0  0  1  0  0  3  0  0  0  0  0  0
  190.8870  177.4960  144.6240 C   0  0  0  0  0  3  0  0  0  0  0  0
  190.2260  177.2410  141.9120 C   0  0  0  0  0  0  0  0  0  0  0  0
  190.2230  178.5000  142.5220 C   0  0  0  0  0  3  0  0  0  0  0  0
  190.5550  178.6280  143.8740 C   0  0  0  0  0  3  0  0  0  0  0  0
  190.8870  176.2340  144.0220 C   0  0  0  0  0  3  0  0  0  0  0  0
  190.5550  176.1050  142.6710 C   0  0  0  0  0  3  0  0  0  0  0  0
  1 12  1  0  0  0  0
  2  6  1  0  0  0  0
  2 12  1  0  0  0  0
  3 16  1  0  0  0  0
  3 21  1  0  0  0  0
  4 14  1  0  0  0  0
  5 13  1  0  0  0  0
  7 11  1  0  0  0  0
  8 10  1  0  0  0  0
  8 17  1  0  0  0  0
  9 13  1  0  0  0  0
  9  7  2  0  0  0  0
 10 19  1  0  0  0  0
 11 14  2  0  0  0  0
 11 16  1  0  0  0  0
 12 23  1  1  0  0  0
 13  4  2  0  0  0  0
 14 18  1  0  0  0  0
 15 20  1  6  0  0  0
 15  1  1  0  0  0  0
 16  2  2  0  0  0  0
 18  6  2  0  0  0  0
 19 20  1  0  0  0  0
 21 17  1  6  0  0  0
 21 15  1  0  0  0  0
 23 24  2  0  0  0  0
 23 27  1  0  0  0  0
 24 25  1  0  0  0  0
 25 22  2  0  0  0  0
 26 22  1  0  0  0  0
 27 26  2  0  0  0  0
M  END
>  <MODEL>
5

>  <REMARK>
 VINA RESULT:      -7.4      3.353      8.147
  Name = 
  1 active torsions:
  status: ('A' for Active; 'I' for Inactive)
    1  A    between atoms: C_9  and  C_15
                            x       y       z     vdW  Elec       q    Type
                         _______ _______ _______ _____ _____    ______ ____

>  <TORSDO>
F 1

$$$$
=
 OpenBabel11052413453D

 27 31  0  0  1  0  0  0  0  0999 V2000
  184.9640  177.5090  138.0840 C   0  0  0  0  0  2  0  0  0  0  0  0
  186.1960  178.2380  140.1920 C   0  0  0  0  0  0  0  0  0  0  0  0
  184.0600  179.5200  140.4550 N   0  0  0  0  0  2  0  0  0  0  0  0
  186.6050  178.0630  144.3570 C   0  0  0  0  0  3  0  0  0  0  0  0
  185.8400  178.6230  146.6670 C   0  0  0  0  0  1  0  0  0  0  0  0
  187.2480  177.5470  140.8140 C   0  0  0  0  0  3  0  0  0  0  0  0
  184.4400  179.4500  143.2520 C   0  0  0  0  0  3  0  0  0  0  0  0
  181.1540  179.6240  139.7320 C   0  0  0  0  0  2  0  0  0  0  0  0
  184.5960  179.3840  144.6400 C   0  0  0  0  0  3  0  0  0  0  0  0
  180.8620  178.2360  139.4030 N   0  0  0  0  0  2  0  0  0  0  0  0
  185.3680  178.8270  142.4040 C   0  0  0  0  0  0  0  0  0  0  0  0
  186.1270  178.3110  138.6800 C   0  0  1  0  0  3  0  0  0  0  0  0
  185.6780  178.6920  145.1920 C   0  0  0  0  0  0  0  0  0  0  0  0
  186.4570  178.1260  142.9690 C   0  0  0  0  0  0  0  0  0  0  0  0
  183.5850  177.9930  138.5410 C   0  0  1  0  0  3  0  0  0  0  0  0
  185.2240  178.8730  141.0060 C   0  0  0  0  0  0  0  0  0  0  0  0
  182.2830  180.1650  138.8570 C   0  0  0  0  0  2  0  0  0  0  0  0
  187.3550  177.5040  142.1660 N   0  0  0  0  0  0  0  0  0  0  0  0
  181.7230  177.4240  140.2460 C   0  0  0  0  0  2  0  0  0  0  0  0
  182.9620  176.9520  139.4850 C   0  0  0  0  0  2  0  0  0  0  0  0
  183.6160  179.4420  139.0650 C   0  0  1  0  0  3  0  0  0  0  0  0
  189.8080  177.5040  136.6030 C   0  0  0  0  0  3  0  0  0  0  0  0
  187.4220  178.0460  137.9680 C   0  0  0  0  0  0  0  0  0  0  0  0
  187.8020  176.7240  137.7120 C   0  0  0  0  0  3  0  0  0  0  0  0
  188.9940  176.4530  137.0340 C   0  0  0  0  0  3  0  0  0  0  0  0
  189.4320  178.8270  136.8500 C   0  0  0  0  0  3  0  0  0  0  0  0
  188.2410  179.0990  137.5280 C   0  0  0  0  0  3  0  0  0  0  0  0
  1 12  1  0  0  0  0
  2  6  2  0  0  0  0
  2 16  1  0  0  0  0
  3 16  1  0  0  0  0
  4 13  2  0  0  0  0
  6 18  1  0  0  0  0
  7  9  2  0  0  0  0
  9 13  1  0  0  0  0
 10  8  1  0  0  0  0
 10 19  1  0  0  0  0
 11 14  1  0  0  0  0
 11  7  1  0  0  0  0
 12 23  1  6  0  0  0
 12  2  1  0  0  0  0
 13  5  1  0  0  0  0
 14  4  1  0  0  0  0
 15  1  1  1  0  0  0
 15 21  1  0  0  0  0
 15 20  1  0  0  0  0
 16 11  2  0  0  0  0
 17  8  1  0  0  0  0
 18 14  2  0  0  0  0
 20 19  1  0  0  0  0
 21 17  1  1  0  0  0
 21  3  1  0  0  0  0
 22 26  2  0  0  0  0
 22 25  1  0  0  0  0
 24 23  1  0  0  0  0
 25 24  2  0  0  0  0
 26 27  1  0  0  0  0
 27 23  2  0  0  0  0
M  END
>  <MODEL>
6

>  <REMARK>
 VINA RESULT:      -6.8      2.823      5.934
  Name = 
  1 active torsions:
  status: ('A' for Active; 'I' for Inactive)
    1  A    between atoms: C_9  and  C_15
                            x       y       z     vdW  Elec       q    Type
                         _______ _______ _______ _____ _____    ______ ____

>  <TORSDO>
F 1

$$$$
=
 OpenBabel11052413453D

 27 31  0  0  1  0  0  0  0  0999 V2000
  187.5750  177.4440  142.4950 C   0  0  0  0  0  2  0  0  0  0  0  0
  188.6500  177.6330  140.1940 C   0  0  0  0  0  0  0  0  0  0  0  0
  190.5980  178.2360  141.6490 N   0  0  0  0  0  2  0  0  0  0  0  0
  191.2760  176.0920  137.3160 C   0  0  0  0  0  3  0  0  0  0  0  0
  193.5770  175.6170  136.4700 C   0  0  0  0  0  1  0  0  0  0  0  0
  188.1960  177.0160  139.0170 C   0  0  0  0  0  3  0  0  0  0  0  0
  192.3200  177.2690  139.6320 C   0  0  0  0  0  3  0  0  0  0  0  0
  191.8080  177.9490  144.3750 C   0  0  0  0  0  2  0  0  0  0  0  0
  193.1810  176.7520  138.6580 C   0  0  0  0  0  3  0  0  0  0  0  0
  191.1710  176.7390  144.8750 N   0  0  0  0  0  2  0  0  0  0  0  0
  190.9300  177.2060  139.4540 C   0  0  0  0  0  0  0  0  0  0  0  0
  187.6550  178.2190  141.1750 C   0  0  1  0  0  3  0  0  0  0  0  0
  192.6590  176.1660  137.5020 C   0  0  0  0  0  0  0  0  0  0  0  0
  190.4100  176.6070  138.2840 C   0  0  0  0  0  0  0  0  0  0  0  0
  188.8930  177.4200  143.2760 C   0  0  1  0  0  3  0  0  0  0  0  0
  190.0470  177.7100  140.4250 C   0  0  0  0  0  0  0  0  0  0  0  0
  190.7630  178.9980  143.9990 C   0  0  0  0  0  2  0  0  0  0  0  0
  189.0690  176.5230  138.1030 N   0  0  0  0  0  0  0  0  0  0  0  0
  190.9330  175.8910  143.7190 C   0  0  0  0  0  2  0  0  0  0  0  0
  189.4870  176.0030  143.2350 C   0  0  0  0  0  2  0  0  0  0  0  0
  189.8430  178.5600  142.8570 C   0  0  1  0  0  3  0  0  0  0  0  0
  183.7520  179.1100  139.5970 C   0  0  0  0  0  3  0  0  0  0  0  0
  186.2960  178.5140  140.6070 C   0  0  0  0  0  0  0  0  0  0  0  0
  185.2200  178.7080  141.4800 C   0  0  0  0  0  3  0  0  0  0  0  0
  183.9500  179.0030  140.9760 C   0  0  0  0  0  3  0  0  0  0  0  0
  184.8240  178.9230  138.7200 C   0  0  0  0  0  3  0  0  0  0  0  0
  186.0940  178.6280  139.2220 C   0  0  0  0  0  3  0  0  0  0  0  0
  2 16  1  0  0  0  0
  2 12  1  0  0  0  0
  3 21  1  0  0  0  0
  4 13  2  0  0  0  0
  4 14  1  0  0  0  0
  5 13  1  0  0  0  0
  6  2  2  0  0  0  0
  8 10  1  0  0  0  0
  9  7  2  0  0  0  0
 11  7  1  0  0  0  0
 11 16  2  0  0  0  0
 12 23  1  6  0  0  0
 12  1  1  0  0  0  0
 13  9  1  0  0  0  0
 14 11  1  0  0  0  0
 15  1  1  6  0  0  0
 16  3  1  0  0  0  0
 17  8  1  0  0  0  0
 18 14  2  0  0  0  0
 18  6  1  0  0  0  0
 19 10  1  0  0  0  0
 20 15  1  0  0  0  0
 20 19  1  0  0  0  0
 21 15  1  0  0  0  0
 21 17  1  1  0  0  0
 22 25  1  0  0  0  0
 23 24  1  0  0  0  0
 25 24  2  0  0  0  0
 26 27  1  0  0  0  0
 26 22  2  0  0  0  0
 27 23  2  0  0  0  0
M  END
>  <MODEL>
7

>  <REMARK>
 VINA RESULT:      -6.8      2.177      5.797
  Name = 
  1 active torsions:
  status: ('A' for Active; 'I' for Inactive)
    1  A    between atoms: C_9  and  C_15
                            x       y       z     vdW  Elec       q    Type
                         _______ _______ _______ _____ _____    ______ ____

>  <TORSDO>
F 1

$$$$
