=
 OpenBabel11052415363D

 37 41  0  0  1  0  0  0  0  0999 V2000
  186.3990  179.5080  142.8900 O   0  0  0  0  0  0  0  0  0  0  0  0
  182.8920  178.9370  142.9910 O   0  0  0  0  0  0  0  0  0  0  0  0
  187.7240  177.5690  143.9750 C   0  0  2  0  0  0  0  0  0  0  0  0
  185.2520  178.6890  142.8660 C   0  0  1  0  0  0  0  0  0  0  0  0
  187.5620  178.6960  142.9000 C   0  0  1  0  0  3  0  0  0  0  0  0
  184.0990  179.3440  143.5860 C   0  0  2  0  0  3  0  0  0  0  0  0
  187.1010  176.2760  143.4610 C   0  0  0  0  0  1  0  0  0  0  0  0
  188.2830  178.5760  141.5350 C   0  0  2  0  0  3  0  0  0  0  0  0
  185.0120  178.4210  146.6660 C   0  0  0  0  0  1  0  0  0  0  0  0
  187.0490  177.9010  145.3380 C   0  0  0  0  0  2  0  0  0  0  0  0
  187.6080  179.2550  140.4920 O   0  0  0  0  0  0  0  0  0  0  0  0
  185.6910  178.6070  145.3240 C   0  0  1  0  0  3  0  0  0  0  0  0
  184.6550  178.2410  141.5500 C   0  0  1  0  0  3  0  0  0  0  0  0
  183.1870  178.6020  141.6570 C   0  0  1  0  0  3  0  0  0  0  0  0
  185.2350  178.9860  140.3550 C   0  0  0  0  0  2  0  0  0  0  0  0
  186.5930  178.4260  139.9880 C   0  0  0  0  0  2  0  0  0  0  0  0
  184.7730  178.1340  144.2050 C   0  0  2  0  0  3  0  0  0  0  0  0
  189.7450  177.2110  145.5630 C   0  0  0  0  0  2  0  0  0  0  0  0
  189.2430  177.2810  144.1280 C   0  0  0  0  0  3  0  0  0  0  0  0
  190.0090  178.4500  144.7250 C   0  0  0  0  0  2  0  0  0  0  0  0
  182.3110  177.4350  141.2080 C   0  0  2  0  0  3  0  0  0  0  0  0
  182.8180  176.8780  140.0290 O   0  0  0  0  0  0  0  0  0  0  0  0
  182.0870  177.4770  139.0010 C   0  0  0  0  0  1  0  0  0  0  0  0
  180.9880  177.9040  140.9760 O   0  0  0  0  0  0  0  0  0  0  0  0
  179.4530  178.2280  142.8650 N   0  0  0  0  0  1  0  0  0  0  0  0
  179.2930  176.4230  141.4180 O   0  0  0  0  0  0  0  0  0  0  0  0
  179.8980  177.4780  141.7380 C   0  0  0  0  0  0  0  0  0  0  0  0
  188.6280  177.2530  141.1980 O   0  0  0  0  0  0  0  0  0  0  0  0
  190.9560  176.7790  141.4720 C   0  0  0  0  0  1  0  0  0  0  0  0
  189.8740  177.3360  140.5640 C   0  0  1  0  0  3  0  0  0  0  0  0
  189.8630  176.5780  139.2660 C   0  0  0  0  0  0  0  0  0  0  0  0
  190.6610  175.6670  139.1000 O   0  0  0  0  0  0  0  0  0  0  0  0
  188.8870  176.9320  138.1800 C   0  0  2  0  0  3  0  0  0  0  0  0
  188.5180  175.7000  137.3710 C   0  0  0  0  0  1  0  0  0  0  0  0
  189.4550  178.0140  137.2780 C   0  0  0  0  0  2  0  0  0  0  0  0
  188.7030  179.1820  137.4070 O   0  0  0  0  0  0  0  0  0  0  0  0
  187.6190  178.9950  136.5510 C   0  0  0  0  0  1  0  0  0  0  0  0
  3  7  1  6  0  0  0
  3 19  1  0  0  0  0
  3 10  1  0  0  0  0
  4  1  1  6  0  0  0
  4  6  1  0  0  0  0
  4 17  1  0  0  0  0
  5  1  1  6  0  0  0
  5  3  1  0  0  0  0
  6  2  1  6  0  0  0
  6 17  1  0  0  0  0
  8 28  1  6  0  0  0
  8  5  1  0  0  0  0
 11  8  1  0  0  0  0
 12 10  1  0  0  0  0
 12  9  1  1  0  0  0
 13 15  1  6  0  0  0
 13 14  1  0  0  0  0
 13  4  1  0  0  0  0
 14 21  1  1  0  0  0
 14  2  1  0  0  0  0
 16 15  1  0  0  0  0
 16 11  1  0  0  0  0
 17 12  1  0  0  0  0
 19 20  1  0  0  0  0
 19 18  1  0  0  0  0
 20 18  1  0  0  0  0
 22 21  1  0  0  0  0
 23 22  1  0  0  0  0
 24 21  1  0  0  0  0
 24 27  1  0  0  0  0
 26 27  2  0  0  0  0
 27 25  1  0  0  0  0
 30 28  1  0  0  0  0
 30 29  1  0  0  0  0
 31 30  1  0  0  0  0
 32 31  2  0  0  0  0
 33 31  1  0  0  0  0
 34 33  1  0  0  0  0
 35 36  1  0  0  0  0
 35 33  1  0  0  0  0
 37 36  1  0  0  0  0
M  END
>  <MODEL>
1

>  <REMARK>
 VINA RESULT:      -6.7      0.000      0.000
  Name = 
  11 active torsions:
  status: ('A' for Active; 'I' for Inactive)
    1  A    between atoms: C_1  and  C_5
    2  A    between atoms: C_1  and  C_23
    3  A    between atoms: O_2  and  C_6
    4  A    between atoms: C_5  and  C_26
    5  A    between atoms: C_6  and  O_8
    6  A    between atoms: C_6  and  C_31
    7  A    between atoms: O_8  and  C_19
    8  A    between atoms: C_9  and  C_30
    9  A    between atoms: O_11  and  C_26
   10  A    between atoms: C_20  and  O_25
   11  A    between atoms: C_23  and  O_25
                            x       y       z     vdW  Elec       q    Type
                         _______ _______ _______ _____ _____    ______ ____

>  <TORSDO>
F 11

$$$$
=
 OpenBabel11052415363D

 37 41  0  0  1  0  0  0  0  0999 V2000
  186.3860  179.5060  142.8400 O   0  0  0  0  0  0  0  0  0  0  0  0
  182.8860  178.8830  142.8840 O   0  0  0  0  0  0  0  0  0  0  0  0
  187.7220  177.5850  143.9450 C   0  0  2  0  0  0  0  0  0  0  0  0
  185.2520  178.6690  142.7970 C   0  0  1  0  0  0  0  0  0  0  0  0
  187.5600  178.7110  142.8680 C   0  0  1  0  0  3  0  0  0  0  0  0
  184.0780  179.3070  143.4990 C   0  0  2  0  0  3  0  0  0  0  0  0
  187.1260  176.2840  143.4200 C   0  0  0  0  0  1  0  0  0  0  0  0
  188.3040  178.6030  141.5160 C   0  0  2  0  0  3  0  0  0  0  0  0
  184.9540  178.3940  146.5920 C   0  0  0  0  0  1  0  0  0  0  0  0
  187.0200  177.9050  145.2970 C   0  0  0  0  0  2  0  0  0  0  0  0
  187.6370  179.2730  140.4620 O   0  0  0  0  0  0  0  0  0  0  0  0
  185.6520  178.5920  145.2620 C   0  0  1  0  0  3  0  0  0  0  0  0
  184.6830  178.2150  141.4710 C   0  0  1  0  0  3  0  0  0  0  0  0
  183.2080  178.5540  141.5540 C   0  0  1  0  0  3  0  0  0  0  0  0
  185.2710  178.9690  140.2860 C   0  0  0  0  0  2  0  0  0  0  0  0
  186.6420  178.4290  139.9410 C   0  0  0  0  0  2  0  0  0  0  0  0
  184.7590  178.1070  144.1280 C   0  0  2  0  0  3  0  0  0  0  0  0
  189.7210  177.2490  145.5650 C   0  0  0  0  0  2  0  0  0  0  0  0
  189.2410  177.3200  144.1230 C   0  0  0  0  0  3  0  0  0  0  0  0
  189.9800  178.4970  144.7400 C   0  0  0  0  0  2  0  0  0  0  0  0
  182.3560  177.3740  141.0910 C   0  0  2  0  0  3  0  0  0  0  0  0
  182.9630  176.7430  140.0000 O   0  0  0  0  0  0  0  0  0  0  0  0
  182.2280  177.1570  138.8870 C   0  0  0  0  0  1  0  0  0  0  0  0
  181.0700  177.8470  140.7070 O   0  0  0  0  0  0  0  0  0  0  0  0
  179.2090  176.3980  141.3880 N   0  0  0  0  0  1  0  0  0  0  0  0
  179.5370  178.5150  142.2760 O   0  0  0  0  0  0  0  0  0  0  0  0
  179.9290  177.6250  141.4790 C   0  0  0  0  0  0  0  0  0  0  0  0
  188.6750  177.2850  141.1830 O   0  0  0  0  0  0  0  0  0  0  0  0
  190.8380  176.3210  141.5130 C   0  0  0  0  0  1  0  0  0  0  0  0
  190.0120  177.3580  140.7730 C   0  0  1  0  0  3  0  0  0  0  0  0
  190.1280  177.1360  139.2920 C   0  0  0  0  0  0  0  0  0  0  0  0
  189.5930  177.9240  138.5260 O   0  0  0  0  0  0  0  0  0  0  0  0
  190.8890  175.9590  138.7510 C   0  0  2  0  0  3  0  0  0  0  0  0
  192.2400  176.3980  138.2120 C   0  0  0  0  0  1  0  0  0  0  0  0
  190.0880  175.2500  137.6720 C   0  0  0  0  0  2  0  0  0  0  0  0
  190.4380  173.9000  137.6310 O   0  0  0  0  0  0  0  0  0  0  0  0
  190.5030  173.6000  136.2710 C   0  0  0  0  0  1  0  0  0  0  0  0
  3  7  1  6  0  0  0
  3 19  1  0  0  0  0
  3 10  1  0  0  0  0
  4  1  1  6  0  0  0
  4  6  1  0  0  0  0
  4 17  1  0  0  0  0
  5  1  1  6  0  0  0
  5  3  1  0  0  0  0
  6  2  1  6  0  0  0
  6 17  1  0  0  0  0
  8 28  1  6  0  0  0
  8  5  1  0  0  0  0
 11  8  1  0  0  0  0
 12 10  1  0  0  0  0
 12  9  1  1  0  0  0
 13 15  1  6  0  0  0
 13 14  1  0  0  0  0
 13  4  1  0  0  0  0
 14 21  1  1  0  0  0
 14  2  1  0  0  0  0
 16 15  1  0  0  0  0
 16 11  1  0  0  0  0
 17 12  1  0  0  0  0
 19 20  1  0  0  0  0
 19 18  1  0  0  0  0
 20 18  1  0  0  0  0
 22 21  1  0  0  0  0
 23 22  1  0  0  0  0
 24 21  1  0  0  0  0
 24 27  1  0  0  0  0
 25 27  1  0  0  0  0
 27 26  2  0  0  0  0
 30 28  1  0  0  0  0
 30 29  1  0  0  0  0
 31 30  1  0  0  0  0
 32 31  2  0  0  0  0
 33 31  1  0  0  0  0
 34 33  1  0  0  0  0
 35 33  1  0  0  0  0
 36 35  1  0  0  0  0
 37 36  1  0  0  0  0
M  END
>  <MODEL>
2

>  <REMARK>
 VINA RESULT:      -6.2      1.096      1.766
  Name = 
  11 active torsions:
  status: ('A' for Active; 'I' for Inactive)
    1  A    between atoms: C_1  and  C_5
    2  A    between atoms: C_1  and  C_23
    3  A    between atoms: O_2  and  C_6
    4  A    between atoms: C_5  and  C_26
    5  A    between atoms: C_6  and  O_8
    6  A    between atoms: C_6  and  C_31
    7  A    between atoms: O_8  and  C_19
    8  A    between atoms: C_9  and  C_30
    9  A    between atoms: O_11  and  C_26
   10  A    between atoms: C_20  and  O_25
   11  A    between atoms: C_23  and  O_25
                            x       y       z     vdW  Elec       q    Type
                         _______ _______ _______ _____ _____    ______ ____

>  <TORSDO>
F 11

$$$$
=
 OpenBabel11052415363D

 37 41  0  0  1  0  0  0  0  0999 V2000
  189.8180  178.0840  138.1900 O   0  0  0  0  0  0  0  0  0  0  0  0
  191.4520  177.2890  141.2460 O   0  0  0  0  0  0  0  0  0  0  0  0
  189.4000  175.9800  136.7440 C   0  0  2  0  0  0  0  0  0  0  0  0
  190.1000  177.2500  139.2920 C   0  0  1  0  0  0  0  0  0  0  0  0
  188.9840  177.3940  137.2750 C   0  0  1  0  0  3  0  0  0  0  0  0
  191.4660  177.5450  139.8630 C   0  0  2  0  0  3  0  0  0  0  0  0
  188.8730  174.9030  137.6860 C   0  0  0  0  0  1  0  0  0  0  0  0
  187.4900  177.7940  137.3280 C   0  0  2  0  0  3  0  0  0  0  0  0
  193.1890  175.6860  137.6850 C   0  0  0  0  0  1  0  0  0  0  0  0
  190.9400  175.7820  136.6280 C   0  0  0  0  0  2  0  0  0  0  0  0
  187.2070  178.7430  138.3390 O   0  0  0  0  0  0  0  0  0  0  0  0
  191.8330  176.3620  137.7270 C   0  0  1  0  0  3  0  0  0  0  0  0
  189.1910  177.2420  140.5010 C   0  0  1  0  0  3  0  0  0  0  0  0
  190.1230  177.4500  141.6780 C   0  0  1  0  0  3  0  0  0  0  0  0
  188.1860  178.3860  140.4930 C   0  0  0  0  0  2  0  0  0  0  0  0
  187.0340  178.0730  139.5610 C   0  0  0  0  0  2  0  0  0  0  0  0
  191.2340  176.2420  139.1220 C   0  0  2  0  0  3  0  0  0  0  0  0
  187.9040  174.4490  135.2770 C   0  0  0  0  0  2  0  0  0  0  0  0
  188.6770  175.7550  135.3890 C   0  0  0  0  0  3  0  0  0  0  0  0
  189.2530  174.5940  134.5950 C   0  0  0  0  0  2  0  0  0  0  0  0
  189.8150  176.4520  142.7930 C   0  0  2  0  0  3  0  0  0  0  0  0
  188.4350  176.2490  142.8880 O   0  0  0  0  0  0  0  0  0  0  0  0
  188.0580  176.8730  144.0790 C   0  0  0  0  0  1  0  0  0  0  0  0
  190.3030  176.9640  144.0280 O   0  0  0  0  0  0  0  0  0  0  0  0
  191.8120  176.8970  145.9630 N   0  0  0  0  0  1  0  0  0  0  0  0
  191.9770  175.4050  144.1950 O   0  0  0  0  0  0  0  0  0  0  0  0
  191.3820  176.3910  144.7020 C   0  0  0  0  0  0  0  0  0  0  0  0
  186.6150  176.6900  137.3490 O   0  0  0  0  0  0  0  0  0  0  0  0
  185.2040  177.0620  135.4540 C   0  0  0  0  0  1  0  0  0  0  0  0
  185.3650  177.1890  136.9590 C   0  0  1  0  0  3  0  0  0  0  0  0
  184.2560  176.4490  137.6520 C   0  0  0  0  0  0  0  0  0  0  0  0
  184.1010  175.2580  137.4250 O   0  0  0  0  0  0  0  0  0  0  0  0
  183.3430  177.1590  138.6100 C   0  0  2  0  0  3  0  0  0  0  0  0
  182.4110  176.1700  139.2900 C   0  0  0  0  0  1  0  0  0  0  0  0
  182.5490  178.2390  137.8980 C   0  0  0  0  0  2  0  0  0  0  0  0
  182.3400  179.3190  138.7560 O   0  0  0  0  0  0  0  0  0  0  0  0
  183.6190  179.6960  139.1590 C   0  0  0  0  0  1  0  0  0  0  0  0
  2 14  1  0  0  0  0
  3  5  1  0  0  0  0
  3  7  1  1  0  0  0
  4  1  1  6  0  0  0
  4  6  1  0  0  0  0
  4 13  1  0  0  0  0
  5  8  1  0  0  0  0
  5  1  1  1  0  0  0
  6  2  1  1  0  0  0
  8 28  1  1  0  0  0
  8 11  1  0  0  0  0
 10  3  1  0  0  0  0
 10 12  1  0  0  0  0
 11 16  1  0  0  0  0
 12  9  1  1  0  0  0
 12 17  1  0  0  0  0
 13 15  1  6  0  0  0
 13 14  1  0  0  0  0
 14 21  1  1  0  0  0
 16 15  1  0  0  0  0
 17  4  1  0  0  0  0
 17  6  1  0  0  0  0
 18 19  1  0  0  0  0
 19  3  1  0  0  0  0
 20 18  1  0  0  0  0
 20 19  1  0  0  0  0
 21 22  1  0  0  0  0
 21 24  1  0  0  0  0
 22 23  1  0  0  0  0
 24 27  1  0  0  0  0
 26 27  2  0  0  0  0
 27 25  1  0  0  0  0
 29 30  1  0  0  0  0
 30 28  1  0  0  0  0
 30 31  1  0  0  0  0
 31 33  1  0  0  0  0
 32 31  2  0  0  0  0
 33 34  1  0  0  0  0
 35 33  1  0  0  0  0
 35 36  1  0  0  0  0
 36 37  1  0  0  0  0
M  END
>  <MODEL>
3

>  <REMARK>
 VINA RESULT:      -6.1      3.307      7.918
  Name = 
  11 active torsions:
  status: ('A' for Active; 'I' for Inactive)
    1  A    between atoms: C_1  and  C_5
    2  A    between atoms: C_1  and  C_23
    3  A    between atoms: O_2  and  C_6
    4  A    between atoms: C_5  and  C_26
    5  A    between atoms: C_6  and  O_8
    6  A    between atoms: C_6  and  C_31
    7  A    between atoms: O_8  and  C_19
    8  A    between atoms: C_9  and  C_30
    9  A    between atoms: O_11  and  C_26
   10  A    between atoms: C_20  and  O_25
   11  A    between atoms: C_23  and  O_25
                            x       y       z     vdW  Elec       q    Type
                         _______ _______ _______ _____ _____    ______ ____

>  <TORSDO>
F 11

$$$$
=
 OpenBabel11052415363D

 37 41  0  0  1  0  0  0  0  0999 V2000
  183.0100  178.6440  137.8120 O   0  0  0  0  0  0  0  0  0  0  0  0
  184.2560  176.5670  135.2090 O   0  0  0  0  0  0  0  0  0  0  0  0
  181.6710  177.2930  139.5660 C   0  0  2  0  0  0  0  0  0  0  0  0
  183.5200  177.4350  137.2960 C   0  0  1  0  0  0  0  0  0  0  0  0
  182.6370  178.4600  139.1670 C   0  0  1  0  0  3  0  0  0  0  0  0
  183.2270  177.3040  135.8210 C   0  0  2  0  0  3  0  0  0  0  0  0
  182.4800  176.0330  139.8540 C   0  0  0  0  0  1  0  0  0  0  0  0
  183.6440  179.0200  140.2000 C   0  0  2  0  0  3  0  0  0  0  0  0
  180.1120  176.1440  136.1640 C   0  0  0  0  0  1  0  0  0  0  0  0
  180.6320  176.9360  138.4630 C   0  0  0  0  0  2  0  0  0  0  0  0
  184.8050  179.5650  139.6010 O   0  0  0  0  0  0  0  0  0  0  0  0
  181.0890  176.9420  137.0020 C   0  0  1  0  0  3  0  0  0  0  0  0
  184.9950  177.1150  137.4050 C   0  0  1  0  0  3  0  0  0  0  0  0
  185.4090  176.7460  135.9950 C   0  0  1  0  0  3  0  0  0  0  0  0
  185.8290  178.3130  137.8390 C   0  0  0  0  0  2  0  0  0  0  0  0
  185.7120  178.5270  139.3330 C   0  0  0  0  0  2  0  0  0  0  0  0
  182.5010  176.4080  136.8070 C   0  0  2  0  0  3  0  0  0  0  0  0
  179.4940  177.4220  140.9720 C   0  0  0  0  0  2  0  0  0  0  0  0
  180.9920  177.6830  140.9070 C   0  0  0  0  0  3  0  0  0  0  0  0
  180.0100  178.8340  140.7600 C   0  0  0  0  0  2  0  0  0  0  0  0
  186.2410  175.4650  135.9950 C   0  0  2  0  0  3  0  0  0  0  0  0
  185.9560  174.7060  137.1340 O   0  0  0  0  0  0  0  0  0  0  0  0
  185.4140  173.5140  136.6500 C   0  0  0  0  0  1  0  0  0  0  0  0
  187.6230  175.8040  135.9870 O   0  0  0  0  0  0  0  0  0  0  0  0
  189.2350  174.2860  137.0480 N   0  0  0  0  0  1  0  0  0  0  0  0
  188.5860  176.2930  138.0100 O   0  0  0  0  0  0  0  0  0  0  0  0
  188.4760  175.4920  137.0470 C   0  0  0  0  0  0  0  0  0  0  0  0
  183.9340  178.1200  141.2450 O   0  0  0  0  0  0  0  0  0  0  0  0
  182.9800  178.7550  143.3440 C   0  0  0  0  0  1  0  0  0  0  0  0
  184.1440  178.9130  142.3810 C   0  0  1  0  0  3  0  0  0  0  0  0
  185.4240  178.5310  143.0680 C   0  0  0  0  0  0  0  0  0  0  0  0
  186.4680  178.5370  142.4310 O   0  0  0  0  0  0  0  0  0  0  0  0
  185.4300  178.1430  144.5190 C   0  0  2  0  0  3  0  0  0  0  0  0
  185.4810  179.3790  145.4020 C   0  0  0  0  0  1  0  0  0  0  0  0
  186.5960  177.2190  144.8240 C   0  0  0  0  0  2  0  0  0  0  0  0
  187.4870  177.8500  145.6940 O   0  0  0  0  0  0  0  0  0  0  0  0
  188.7480  177.4950  145.2180 C   0  0  0  0  0  1  0  0  0  0  0  0
  2 14  1  0  0  0  0
  3  7  1  1  0  0  0
  3 19  1  0  0  0  0
  4 13  1  0  0  0  0
  4  1  1  1  0  0  0
  5  1  1  6  0  0  0
  5  3  1  0  0  0  0
  5  8  1  0  0  0  0
  6  2  1  6  0  0  0
  6 17  1  0  0  0  0
  6  4  1  0  0  0  0
  8 28  1  1  0  0  0
 10  3  1  0  0  0  0
 11  8  1  0  0  0  0
 12  9  1  6  0  0  0
 12 10  1  0  0  0  0
 13 15  1  6  0  0  0
 14 21  1  1  0  0  0
 14 13  1  0  0  0  0
 15 16  1  0  0  0  0
 16 11  1  0  0  0  0
 17 12  1  0  0  0  0
 17  4  1  0  0  0  0
 19 18  1  0  0  0  0
 20 19  1  0  0  0  0
 20 18  1  0  0  0  0
 21 22  1  0  0  0  0
 23 22  1  0  0  0  0
 24 21  1  0  0  0  0
 24 27  1  0  0  0  0
 27 25  1  0  0  0  0
 27 26  2  0  0  0  0
 28 30  1  0  0  0  0
 30 31  1  0  0  0  0
 30 29  1  0  0  0  0
 31 33  1  0  0  0  0
 32 31  2  0  0  0  0
 33 35  1  0  0  0  0
 33 34  1  0  0  0  0
 35 36  1  0  0  0  0
 37 36  1  0  0  0  0
M  END
>  <MODEL>
4

>  <REMARK>
 VINA RESULT:      -6.0      3.125      7.751
  Name = 
  11 active torsions:
  status: ('A' for Active; 'I' for Inactive)
    1  A    between atoms: C_1  and  C_5
    2  A    between atoms: C_1  and  C_23
    3  A    between atoms: O_2  and  C_6
    4  A    between atoms: C_5  and  C_26
    5  A    between atoms: C_6  and  O_8
    6  A    between atoms: C_6  and  C_31
    7  A    between atoms: O_8  and  C_19
    8  A    between atoms: C_9  and  C_30
    9  A    between atoms: O_11  and  C_26
   10  A    between atoms: C_20  and  O_25
   11  A    between atoms: C_23  and  O_25
                            x       y       z     vdW  Elec       q    Type
                         _______ _______ _______ _____ _____    ______ ____

>  <TORSDO>
F 11

$$$$
=
 OpenBabel11052415363D

 37 41  0  0  1  0  0  0  0  0999 V2000
  187.3310  178.8940  138.1990 O   0  0  0  0  0  0  0  0  0  0  0  0
  190.0730  177.7560  140.1550 O   0  0  0  0  0  0  0  0  0  0  0  0
  186.2770  176.9810  136.8110 C   0  0  2  0  0  0  0  0  0  0  0  0
  188.0240  177.9330  138.9640 C   0  0  1  0  0  0  0  0  0  0  0  0
  186.1680  178.3050  137.6410 C   0  0  1  0  0  3  0  0  0  0  0  0
  189.5120  178.1860  138.9390 C   0  0  2  0  0  3  0  0  0  0  0  0
  186.1610  175.7800  137.7440 C   0  0  0  0  0  1  0  0  0  0  0  0
  184.8480  178.6580  138.3680 C   0  0  2  0  0  3  0  0  0  0  0  0
  190.0980  176.6620  136.0240 C   0  0  0  0  0  1  0  0  0  0  0  0
  187.6170  176.8370  136.0330 C   0  0  0  0  0  2  0  0  0  0  0  0
  185.0470  179.4640  139.5150 O   0  0  0  0  0  0  0  0  0  0  0  0
  188.9090  177.2940  136.7170 C   0  0  1  0  0  3  0  0  0  0  0  0
  187.7080  177.7490  140.4320 C   0  0  1  0  0  3  0  0  0  0  0  0
  189.0550  177.8280  141.1230 C   0  0  1  0  0  3  0  0  0  0  0  0
  186.8290  178.8590  140.9920 C   0  0  0  0  0  2  0  0  0  0  0  0
  185.3830  178.6390  140.6010 C   0  0  0  0  0  2  0  0  0  0  0  0
  188.9480  176.9830  138.2070 C   0  0  2  0  0  3  0  0  0  0  0  0
  184.4480  175.5250  135.6840 C   0  0  0  0  0  2  0  0  0  0  0  0
  185.0440  176.9130  135.8700 C   0  0  0  0  0  3  0  0  0  0  0  0
  185.3140  176.1320  134.5940 C   0  0  0  0  0  2  0  0  0  0  0  0
  189.2130  176.6900  142.1290 C   0  0  2  0  0  3  0  0  0  0  0  0
  188.8620  177.1270  143.4100 O   0  0  0  0  0  0  0  0  0  0  0  0
  187.6880  176.4360  143.7200 C   0  0  0  0  0  1  0  0  0  0  0  0
  190.5670  176.2540  142.1340 O   0  0  0  0  0  0  0  0  0  0  0  0
  191.9130  177.8550  143.4200 N   0  0  0  0  0  1  0  0  0  0  0  0
  191.8050  175.6000  143.9510 O   0  0  0  0  0  0  0  0  0  0  0  0
  191.4390  176.5310  143.1880 C   0  0  0  0  0  0  0  0  0  0  0  0
  184.0280  177.5400  138.6160 O   0  0  0  0  0  0  0  0  0  0  0  0
  182.0930  178.1890  137.3720 C   0  0  0  0  0  1  0  0  0  0  0  0
  182.7270  178.0430  138.7430 C   0  0  1  0  0  3  0  0  0  0  0  0
  181.8860  177.1370  139.5970 C   0  0  0  0  0  0  0  0  0  0  0  0
  181.9850  175.9260  139.4590 O   0  0  0  0  0  0  0  0  0  0  0  0
  180.9310  177.7040  140.6080 C   0  0  2  0  0  3  0  0  0  0  0  0
  179.4960  177.5390  140.1380 C   0  0  0  0  0  1  0  0  0  0  0  0
  181.2400  179.1660  140.8790 C   0  0  0  0  0  2  0  0  0  0  0  0
  180.9550  179.4730  142.2100 O   0  0  0  0  0  0  0  0  0  0  0  0
  182.0480  178.9810  142.9220 C   0  0  0  0  0  1  0  0  0  0  0  0
  2 14  1  0  0  0  0
  3  5  1  0  0  0  0
  3  7  1  1  0  0  0
  4  1  1  6  0  0  0
  4 13  1  0  0  0  0
  5  1  1  1  0  0  0
  5  8  1  0  0  0  0
  6  4  1  0  0  0  0
  6  2  1  1  0  0  0
  8 28  1  1  0  0  0
  8 11  1  0  0  0  0
 10 12  1  0  0  0  0
 10  3  1  0  0  0  0
 11 16  1  0  0  0  0
 12  9  1  6  0  0  0
 12 17  1  0  0  0  0
 13 15  1  1  0  0  0
 13 14  1  0  0  0  0
 14 21  1  1  0  0  0
 16 15  1  0  0  0  0
 17  6  1  0  0  0  0
 17  4  1  0  0  0  0
 18 19  1  0  0  0  0
 19  3  1  0  0  0  0
 20 18  1  0  0  0  0
 20 19  1  0  0  0  0
 21 24  1  0  0  0  0
 21 22  1  0  0  0  0
 22 23  1  0  0  0  0
 24 27  1  0  0  0  0
 27 25  1  0  0  0  0
 27 26  2  0  0  0  0
 28 30  1  0  0  0  0
 29 30  1  0  0  0  0
 30 31  1  0  0  0  0
 31 33  1  0  0  0  0
 32 31  2  0  0  0  0
 33 35  1  0  0  0  0
 34 33  1  0  0  0  0
 35 36  1  0  0  0  0
 36 37  1  0  0  0  0
M  END
>  <MODEL>
5

>  <REMARK>
 VINA RESULT:      -6.0      2.941      8.212
  Name = 
  11 active torsions:
  status: ('A' for Active; 'I' for Inactive)
    1  A    between atoms: C_1  and  C_5
    2  A    between atoms: C_1  and  C_23
    3  A    between atoms: O_2  and  C_6
    4  A    between atoms: C_5  and  C_26
    5  A    between atoms: C_6  and  O_8
    6  A    between atoms: C_6  and  C_31
    7  A    between atoms: O_8  and  C_19
    8  A    between atoms: C_9  and  C_30
    9  A    between atoms: O_11  and  C_26
   10  A    between atoms: C_20  and  O_25
   11  A    between atoms: C_23  and  O_25
                            x       y       z     vdW  Elec       q    Type
                         _______ _______ _______ _____ _____    ______ ____

>  <TORSDO>
F 11

$$$$
=
 OpenBabel11052415363D

 37 41  0  0  1  0  0  0  0  0999 V2000
  184.9310  179.5030  139.2380 O   0  0  0  0  0  0  0  0  0  0  0  0
  185.8650  177.5190  136.4390 O   0  0  0  0  0  0  0  0  0  0  0  0
  182.9830  178.4380  140.5670 C   0  0  2  0  0  0  0  0  0  0  0  0
  185.1160  178.2780  138.5630 C   0  0  1  0  0  0  0  0  0  0  0  0
  184.3120  179.2630  140.4910 C   0  0  1  0  0  3  0  0  0  0  0  0
  185.0310  178.4620  137.0670 C   0  0  2  0  0  3  0  0  0  0  0  0
  183.3070  176.9540  140.7000 C   0  0  0  0  0  1  0  0  0  0  0  0
  185.2680  179.3070  141.7070 C   0  0  2  0  0  3  0  0  0  0  0  0
  181.6970  178.3610  136.8700 C   0  0  0  0  0  1  0  0  0  0  0  0
  182.0700  178.6040  139.3170 C   0  0  0  0  0  2  0  0  0  0  0  0
  186.6200  179.5160  141.3410 O   0  0  0  0  0  0  0  0  0  0  0  0
  182.7290  178.6650  137.9370 C   0  0  1  0  0  3  0  0  0  0  0  0
  186.3840  177.4770  138.7620 C   0  0  1  0  0  3  0  0  0  0  0  0
  186.8790  177.1940  137.3570 C   0  0  1  0  0  3  0  0  0  0  0  0
  187.4690  178.2570  139.4920 C   0  0  0  0  0  2  0  0  0  0  0  0
  187.1920  178.2850  140.9800 C   0  0  0  0  0  2  0  0  0  0  0  0
  183.9200  177.7270  137.7920 C   0  0  2  0  0  3  0  0  0  0  0  0
  180.9090  178.1660  142.1030 C   0  0  0  0  0  2  0  0  0  0  0  0
  182.2560  178.8370  141.8800 C   0  0  0  0  0  3  0  0  0  0  0  0
  180.9700  179.6090  141.6340 C   0  0  0  0  0  2  0  0  0  0  0  0
  187.2630  175.7230  137.2070 C   0  0  2  0  0  3  0  0  0  0  0  0
  188.3440  175.5960  136.3290 O   0  0  0  0  0  0  0  0  0  0  0  0
  189.4180  175.2000  137.1300 C   0  0  0  0  0  1  0  0  0  0  0  0
  186.1510  174.9980  136.6950 O   0  0  0  0  0  0  0  0  0  0  0  0
  186.4500  172.6230  137.2400 N   0  0  0  0  0  1  0  0  0  0  0  0
  184.5780  173.8290  137.8850 O   0  0  0  0  0  0  0  0  0  0  0  0
  185.6850  173.8240  137.2880 C   0  0  0  0  0  0  0  0  0  0  0  0
  185.0990  178.2240  142.5920 O   0  0  0  0  0  0  0  0  0  0  0  0
  184.1690  178.9100  144.6860 C   0  0  0  0  0  1  0  0  0  0  0  0
  185.4300  178.7160  143.8610 C   0  0  1  0  0  3  0  0  0  0  0  0
  186.3600  177.7750  144.5720 C   0  0  0  0  0  0  0  0  0  0  0  0
  185.9290  177.0860  145.4850 O   0  0  0  0  0  0  0  0  0  0  0  0
  187.8050  177.6790  144.1730 C   0  0  2  0  0  3  0  0  0  0  0  0
  188.1210  176.2920  143.6410 C   0  0  0  0  0  1  0  0  0  0  0  0
  188.7100  178.0220  145.3440 C   0  0  0  0  0  2  0  0  0  0  0  0
  188.9360  176.8830  146.1180 O   0  0  0  0  0  0  0  0  0  0  0  0
  189.2670  177.3800  147.3780 C   0  0  0  0  0  1  0  0  0  0  0  0
  2 14  1  0  0  0  0
  3  7  1  1  0  0  0
  3 19  1  0  0  0  0
  4 13  1  0  0  0  0
  4  1  1  1  0  0  0
  5  1  1  6  0  0  0
  5  3  1  0  0  0  0
  5  8  1  0  0  0  0
  6  2  1  6  0  0  0
  6 17  1  0  0  0  0
  6  4  1  0  0  0  0
  8 28  1  6  0  0  0
 10  3  1  0  0  0  0
 11  8  1  0  0  0  0
 12  9  1  6  0  0  0
 12 10  1  0  0  0  0
 13 15  1  1  0  0  0
 14 21  1  1  0  0  0
 14 13  1  0  0  0  0
 15 16  1  0  0  0  0
 16 11  1  0  0  0  0
 17 12  1  0  0  0  0
 17  4  1  0  0  0  0
 19 18  1  0  0  0  0
 20 19  1  0  0  0  0
 20 18  1  0  0  0  0
 22 23  1  0  0  0  0
 22 21  1  0  0  0  0
 24 21  1  0  0  0  0
 24 27  1  0  0  0  0
 25 27  1  0  0  0  0
 27 26  2  0  0  0  0
 28 30  1  0  0  0  0
 30 31  1  0  0  0  0
 30 29  1  0  0  0  0
 31 32  2  0  0  0  0
 33 31  1  0  0  0  0
 33 35  1  0  0  0  0
 34 33  1  0  0  0  0
 35 36  1  0  0  0  0
 36 37  1  0  0  0  0
M  END
>  <MODEL>
6

>  <REMARK>
 VINA RESULT:      -5.6      2.857      6.932
  Name = 
  11 active torsions:
  status: ('A' for Active; 'I' for Inactive)
    1  A    between atoms: C_1  and  C_5
    2  A    between atoms: C_1  and  C_23
    3  A    between atoms: O_2  and  C_6
    4  A    between atoms: C_5  and  C_26
    5  A    between atoms: C_6  and  O_8
    6  A    between atoms: C_6  and  C_31
    7  A    between atoms: O_8  and  C_19
    8  A    between atoms: C_9  and  C_30
    9  A    between atoms: O_11  and  C_26
   10  A    between atoms: C_20  and  O_25
   11  A    between atoms: C_23  and  O_25
                            x       y       z     vdW  Elec       q    Type
                         _______ _______ _______ _____ _____    ______ ____

>  <TORSDO>
F 11

$$$$
=
 OpenBabel11052415363D

 37 41  0  0  1  0  0  0  0  0999 V2000
  188.7000  179.0030  141.0150 O   0  0  0  0  0  0  0  0  0  0  0  0
  187.3950  177.6110  138.0160 O   0  0  0  0  0  0  0  0  0  0  0  0
  187.7180  177.8560  143.1170 C   0  0  2  0  0  0  0  0  0  0  0  0
  188.1990  177.9470  140.2270 C   0  0  1  0  0  0  0  0  0  0  0  0
  188.8920  178.5500  142.3460 C   0  0  1  0  0  3  0  0  0  0  0  0
  187.3010  178.4640  139.1300 C   0  0  2  0  0  3  0  0  0  0  0  0
  187.7420  176.3560  142.8450 C   0  0  0  0  0  1  0  0  0  0  0  0
  190.3600  178.2340  142.7190 C   0  0  2  0  0  3  0  0  0  0  0  0
  184.5420  178.7200  140.9990 C   0  0  0  0  0  1  0  0  0  0  0  0
  186.3090  178.3790  142.7160 C   0  0  0  0  0  2  0  0  0  0  0  0
  191.2540  178.3930  141.6330 O   0  0  0  0  0  0  0  0  0  0  0  0
  186.0380  178.6830  141.2400 C   0  0  1  0  0  3  0  0  0  0  0  0
  189.1450  177.0060  139.5120 C   0  0  1  0  0  3  0  0  0  0  0  0
  188.6590  176.9970  138.0770 C   0  0  1  0  0  3  0  0  0  0  0  0
  190.5850  177.5020  139.5160 C   0  0  0  0  0  2  0  0  0  0  0  0
  191.2380  177.2250  140.8530 C   0  0  0  0  0  2  0  0  0  0  0  0
  186.6950  177.6930  140.2870 C   0  0  2  0  0  3  0  0  0  0  0  0
  187.1610  177.1260  145.5440 C   0  0  0  0  0  2  0  0  0  0  0  0
  187.9940  178.0200  144.6370 C   0  0  0  0  0  3  0  0  0  0  0  0
  186.8080  178.5960  145.3940 C   0  0  0  0  0  2  0  0  0  0  0  0
  188.5680  175.5670  137.5470 C   0  0  2  0  0  3  0  0  0  0  0  0
  189.6470  175.2990  136.6990 O   0  0  0  0  0  0  0  0  0  0  0  0
  190.2370  174.1430  137.2170 C   0  0  0  0  0  1  0  0  0  0  0  0
  187.3510  175.4110  136.8270 O   0  0  0  0  0  0  0  0  0  0  0  0
  186.8450  173.1150  137.5330 N   0  0  0  0  0  1  0  0  0  0  0  0
  185.1930  174.6730  137.0660 O   0  0  0  0  0  0  0  0  0  0  0  0
  186.4220  174.4160  137.1330 C   0  0  0  0  0  0  0  0  0  0  0  0
  190.5160  177.0030  143.3860 O   0  0  0  0  0  0  0  0  0  0  0  0
  191.7310  178.5430  144.7530 C   0  0  0  0  0  1  0  0  0  0  0  0
  191.6660  177.1410  144.1740 C   0  0  1  0  0  3  0  0  0  0  0  0
  191.6730  176.1320  145.2870 C   0  0  0  0  0  0  0  0  0  0  0  0
  191.7140  174.9410  145.0130 O   0  0  0  0  0  0  0  0  0  0  0  0
  191.6270  176.5730  146.7220 C   0  0  2  0  0  3  0  0  0  0  0  0
  192.4320  175.6280  147.5980 C   0  0  0  0  0  1  0  0  0  0  0  0
  190.1920  176.6640  147.2120 C   0  0  0  0  0  2  0  0  0  0  0  0
  189.8870  177.9840  147.5460 O   0  0  0  0  0  0  0  0  0  0  0  0
  188.8770  177.8770  148.5000 C   0  0  0  0  0  1  0  0  0  0  0  0
  2 14  1  0  0  0  0
  3  7  1  6  0  0  0
  3 19  1  0  0  0  0
  4 17  1  0  0  0  0
  4  1  1  1  0  0  0
  5  1  1  6  0  0  0
  5  8  1  0  0  0  0
  5  3  1  0  0  0  0
  6  2  1  6  0  0  0
  6  4  1  0  0  0  0
  6 17  1  0  0  0  0
  8 28  1  6  0  0  0
 10  3  1  0  0  0  0
 11  8  1  0  0  0  0
 12  9  1  1  0  0  0
 12 10  1  0  0  0  0
 13 15  1  6  0  0  0
 13  4  1  0  0  0  0
 14 21  1  1  0  0  0
 14 13  1  0  0  0  0
 15 16  1  0  0  0  0
 16 11  1  0  0  0  0
 17 12  1  0  0  0  0
 19 20  1  0  0  0  0
 19 18  1  0  0  0  0
 20 18  1  0  0  0  0
 22 23  1  0  0  0  0
 22 21  1  0  0  0  0
 24 27  1  0  0  0  0
 24 21  1  0  0  0  0
 26 27  2  0  0  0  0
 27 25  1  0  0  0  0
 28 30  1  0  0  0  0
 30 29  1  0  0  0  0
 30 31  1  0  0  0  0
 31 33  1  0  0  0  0
 32 31  2  0  0  0  0
 33 35  1  0  0  0  0
 33 34  1  0  0  0  0
 35 36  1  0  0  0  0
 36 37  1  0  0  0  0
M  END
>  <MODEL>
7

>  <REMARK>
 VINA RESULT:      -5.5      3.210      6.406
  Name = 
  11 active torsions:
  status: ('A' for Active; 'I' for Inactive)
    1  A    between atoms: C_1  and  C_5
    2  A    between atoms: C_1  and  C_23
    3  A    between atoms: O_2  and  C_6
    4  A    between atoms: C_5  and  C_26
    5  A    between atoms: C_6  and  O_8
    6  A    between atoms: C_6  and  C_31
    7  A    between atoms: O_8  and  C_19
    8  A    between atoms: C_9  and  C_30
    9  A    between atoms: O_11  and  C_26
   10  A    between atoms: C_20  and  O_25
   11  A    between atoms: C_23  and  O_25
                            x       y       z     vdW  Elec       q    Type
                         _______ _______ _______ _____ _____    ______ ____

>  <TORSDO>
F 11

$$$$
=
 OpenBabel11052415363D

 37 41  0  0  1  0  0  0  0  0999 V2000
  185.9440  174.5690  134.9410 O   0  0  0  0  0  0  0  0  0  0  0  0
  189.4190  174.8710  135.6300 O   0  0  0  0  0  0  0  0  0  0  0  0
  184.8080  172.8120  136.4640 C   0  0  2  0  0  0  0  0  0  0  0  0
  187.0690  174.5530  135.7920 C   0  0  1  0  0  0  0  0  0  0  0  0
  184.7970  174.1600  135.6670 C   0  0  1  0  0  3  0  0  0  0  0  0
  188.3270  174.2240  135.0250 C   0  0  2  0  0  3  0  0  0  0  0  0
  185.3350  173.0540  137.8740 C   0  0  0  0  0  1  0  0  0  0  0  0
  183.8620  175.3130  136.1070 C   0  0  2  0  0  3  0  0  0  0  0  0
  187.9280  170.9060  135.0630 C   0  0  0  0  0  1  0  0  0  0  0  0
  185.6990  171.7110  135.8170 C   0  0  0  0  0  2  0  0  0  0  0  0
  184.3580  176.5920  135.7590 O   0  0  0  0  0  0  0  0  0  0  0  0
  187.0390  172.1250  135.2040 C   0  0  1  0  0  3  0  0  0  0  0  0
  187.4410  175.7790  136.5960 C   0  0  1  0  0  3  0  0  0  0  0  0
  188.9080  176.0040  136.2890 C   0  0  1  0  0  3  0  0  0  0  0  0
  186.6760  177.0230  136.1650 C   0  0  0  0  0  2  0  0  0  0  0  0
  185.2750  177.0090  136.7380 C   0  0  0  0  0  2  0  0  0  0  0  0
  187.7600  173.2070  135.9970 C   0  0  2  0  0  3  0  0  0  0  0  0
  183.0990  170.8600  136.4390 C   0  0  0  0  0  2  0  0  0  0  0  0
  183.3350  172.3510  136.6290 C   0  0  0  0  0  3  0  0  0  0  0  0
  182.7270  171.8350  135.3350 C   0  0  0  0  0  2  0  0  0  0  0  0
  189.6950  176.2570  137.5730 C   0  0  2  0  0  3  0  0  0  0  0  0
  190.3920  175.1030  137.9450 O   0  0  0  0  0  0  0  0  0  0  0  0
  191.7120  175.5200  138.1290 C   0  0  0  0  0  1  0  0  0  0  0  0
  188.7930  176.6190  138.6120 O   0  0  0  0  0  0  0  0  0  0  0  0
  188.9680  179.0680  138.5720 N   0  0  0  0  0  1  0  0  0  0  0  0
  188.8630  177.8530  140.5450 O   0  0  0  0  0  0  0  0  0  0  0  0
  188.8780  177.8380  139.2870 C   0  0  0  0  0  0  0  0  0  0  0  0
  183.4610  175.2260  137.4550 O   0  0  0  0  0  0  0  0  0  0  0  0
  181.1120  175.0880  137.0280 C   0  0  0  0  0  1  0  0  0  0  0  0
  182.2590  175.9400  137.5410 C   0  0  1  0  0  3  0  0  0  0  0  0
  181.9870  176.3570  138.9590 C   0  0  0  0  0  0  0  0  0  0  0  0
  181.5920  175.5220  139.7600 O   0  0  0  0  0  0  0  0  0  0  0  0
  182.1910  177.7800  139.3930 C   0  0  2  0  0  3  0  0  0  0  0  0
  182.3180  178.6930  138.1860 C   0  0  0  0  0  1  0  0  0  0  0  0
  183.4140  177.9000  140.2850 C   0  0  0  0  0  2  0  0  0  0  0  0
  184.3470  178.7560  139.6990 O   0  0  0  0  0  0  0  0  0  0  0  0
  185.3130  178.9470  140.6860 C   0  0  0  0  0  1  0  0  0  0  0  0
  2 14  1  0  0  0  0
  3 19  1  0  0  0  0
  3  7  1  1  0  0  0
  4  1  1  6  0  0  0
  4 17  1  0  0  0  0
  4 13  1  0  0  0  0
  5  1  1  1  0  0  0
  5  8  1  0  0  0  0
  5  3  1  0  0  0  0
  6  2  1  1  0  0  0
  6  4  1  0  0  0  0
  6 17  1  0  0  0  0
  8 28  1  1  0  0  0
 10  3  1  0  0  0  0
 11  8  1  0  0  0  0
 11 16  1  0  0  0  0
 12  9  1  1  0  0  0
 12 10  1  0  0  0  0
 12 17  1  0  0  0  0
 13 15  1  6  0  0  0
 14 13  1  0  0  0  0
 14 21  1  1  0  0  0
 15 16  1  0  0  0  0
 18 19  1  0  0  0  0
 20 18  1  0  0  0  0
 20 19  1  0  0  0  0
 21 22  1  0  0  0  0
 21 24  1  0  0  0  0
 22 23  1  0  0  0  0
 24 27  1  0  0  0  0
 25 27  1  0  0  0  0
 27 26  2  0  0  0  0
 28 30  1  0  0  0  0
 29 30  1  0  0  0  0
 30 31  1  0  0  0  0
 31 33  1  0  0  0  0
 31 32  2  0  0  0  0
 33 35  1  0  0  0  0
 34 33  1  0  0  0  0
 36 35  1  0  0  0  0
 36 37  1  0  0  0  0
M  END
>  <MODEL>
8

>  <REMARK>
 VINA RESULT:      -5.5      3.880      9.075
  Name = 
  11 active torsions:
  status: ('A' for Active; 'I' for Inactive)
    1  A    between atoms: C_1  and  C_5
    2  A    between atoms: C_1  and  C_23
    3  A    between atoms: O_2  and  C_6
    4  A    between atoms: C_5  and  C_26
    5  A    between atoms: C_6  and  O_8
    6  A    between atoms: C_6  and  C_31
    7  A    between atoms: O_8  and  C_19
    8  A    between atoms: C_9  and  C_30
    9  A    between atoms: O_11  and  C_26
   10  A    between atoms: C_20  and  O_25
   11  A    between atoms: C_23  and  O_25
                            x       y       z     vdW  Elec       q    Type
                         _______ _______ _______ _____ _____    ______ ____

>  <TORSDO>
F 11

$$$$
=
 OpenBabel11052415363D

 37 41  0  0  1  0  0  0  0  0999 V2000
  189.2620  179.0670  142.2240 O   0  0  0  0  0  0  0  0  0  0  0  0
  189.1870  178.0480  138.8190 O   0  0  0  0  0  0  0  0  0  0  0  0
  187.6690  177.6490  143.6900 C   0  0  2  0  0  0  0  0  0  0  0  0
  189.1350  178.1120  141.1940 C   0  0  1  0  0  0  0  0  0  0  0  0
  188.9960  178.4520  143.4740 C   0  0  1  0  0  3  0  0  0  0  0  0
  188.6550  178.7520  139.9140 C   0  0  2  0  0  3  0  0  0  0  0  0
  187.8750  176.1970  143.2760 C   0  0  0  0  0  1  0  0  0  0  0  0
  190.2530  178.1130  144.3110 C   0  0  2  0  0  3  0  0  0  0  0  0
  185.4030  178.7300  140.6860 C   0  0  0  0  0  1  0  0  0  0  0  0
  186.4640  178.1990  142.8720 C   0  0  0  0  0  2  0  0  0  0  0  0
  191.4630  178.4200  143.6430 O   0  0  0  0  0  0  0  0  0  0  0  0
  186.7160  178.6830  141.4420 C   0  0  1  0  0  3  0  0  0  0  0  0
  190.3260  177.2830  140.7650 C   0  0  1  0  0  3  0  0  0  0  0  0
  190.3810  177.4490  139.2590 C   0  0  1  0  0  3  0  0  0  0  0  0
  191.6400  177.7940  141.3400 C   0  0  0  0  0  2  0  0  0  0  0  0
  191.7920  177.3590  142.7820 C   0  0  0  0  0  2  0  0  0  0  0  0
  187.7240  177.8320  140.6820 C   0  0  2  0  0  3  0  0  0  0  0  0
  185.9570  177.2340  145.5960 C   0  0  0  0  0  2  0  0  0  0  0  0
  187.3780  177.6240  145.2150 C   0  0  0  0  0  3  0  0  0  0  0  0
  186.3850  178.6910  145.6470 C   0  0  0  0  0  2  0  0  0  0  0  0
  190.5670  176.0960  138.5750 C   0  0  2  0  0  3  0  0  0  0  0  0
  191.5260  176.1980  137.5620 O   0  0  0  0  0  0  0  0  0  0  0  0
  192.7550  176.2150  138.2270 C   0  0  0  0  0  1  0  0  0  0  0  0
  189.3280  175.6820  138.0110 O   0  0  0  0  0  0  0  0  0  0  0  0
  190.0100  173.4350  137.2940 N   0  0  0  0  0  1  0  0  0  0  0  0
  188.4380  174.6920  136.1430 O   0  0  0  0  0  0  0  0  0  0  0  0
  189.2320  174.6160  137.1160 C   0  0  0  0  0  0  0  0  0  0  0  0
  190.2350  176.8090  144.8450 O   0  0  0  0  0  0  0  0  0  0  0  0
  189.7780  176.7100  147.1900 C   0  0  0  0  0  1  0  0  0  0  0  0
  190.8270  176.9090  146.1110 C   0  0  1  0  0  3  0  0  0  0  0  0
  191.9190  175.8890  146.2710 C   0  0  0  0  0  0  0  0  0  0  0  0
  192.2670  175.2310  145.3010 O   0  0  0  0  0  0  0  0  0  0  0  0
  192.5760  175.6720  147.6040 C   0  0  2  0  0  3  0  0  0  0  0  0
  191.8790  174.5580  148.3670 C   0  0  0  0  0  1  0  0  0  0  0  0
  192.5830  176.9550  148.4160 C   0  0  0  0  0  2  0  0  0  0  0  0
  193.6760  176.9620  149.2830 O   0  0  0  0  0  0  0  0  0  0  0  0
  193.3150  177.8550  150.2900 C   0  0  0  0  0  1  0  0  0  0  0  0
  2 14  1  0  0  0  0
  3  7  1  6  0  0  0
  3 19  1  0  0  0  0
  4  1  1  1  0  0  0
  5  1  1  6  0  0  0
  5  3  1  0  0  0  0
  5  8  1  0  0  0  0
  6  2  1  6  0  0  0
  6 17  1  0  0  0  0
  6  4  1  0  0  0  0
  8 28  1  6  0  0  0
 10  3  1  0  0  0  0
 11  8  1  0  0  0  0
 12  9  1  6  0  0  0
 12 10  1  0  0  0  0
 13  4  1  0  0  0  0
 13 15  1  1  0  0  0
 14 21  1  6  0  0  0
 14 13  1  0  0  0  0
 15 16  1  0  0  0  0
 16 11  1  0  0  0  0
 17  4  1  0  0  0  0
 17 12  1  0  0  0  0
 18 20  1  0  0  0  0
 19 18  1  0  0  0  0
 19 20  1  0  0  0  0
 22 23  1  0  0  0  0
 22 21  1  0  0  0  0
 24 21  1  0  0  0  0
 26 27  2  0  0  0  0
 27 25  1  0  0  0  0
 27 24  1  0  0  0  0
 28 30  1  0  0  0  0
 30 31  1  0  0  0  0
 30 29  1  0  0  0  0
 31 33  1  0  0  0  0
 32 31  2  0  0  0  0
 33 34  1  0  0  0  0
 33 35  1  0  0  0  0
 35 36  1  0  0  0  0
 36 37  1  0  0  0  0
M  END
>  <MODEL>
9

>  <REMARK>
 VINA RESULT:      -5.5      3.936      7.610
  Name = 
  11 active torsions:
  status: ('A' for Active; 'I' for Inactive)
    1  A    between atoms: C_1  and  C_5
    2  A    between atoms: C_1  and  C_23
    3  A    between atoms: O_2  and  C_6
    4  A    between atoms: C_5  and  C_26
    5  A    between atoms: C_6  and  O_8
    6  A    between atoms: C_6  and  C_31
    7  A    between atoms: O_8  and  C_19
    8  A    between atoms: C_9  and  C_30
    9  A    between atoms: O_11  and  C_26
   10  A    between atoms: C_20  and  O_25
   11  A    between atoms: C_23  and  O_25
                            x       y       z     vdW  Elec       q    Type
                         _______ _______ _______ _____ _____    ______ ____

>  <TORSDO>
F 11

$$$$
