=
 OpenBabel11052413123D

 31 35  0  0  1  0  0  0  0  0999 V2000
  186.8900  177.9850  147.4410 C   0  0  0  0  0  0  0  0  0  0  0  0
  187.4900  178.3150  143.6750 C   0  0  2  0  0  3  0  0  0  0  0  0
  188.9260  177.7480  143.6020 C   0  0  2  0  0  3  0  0  0  0  0  0
  182.4440  179.3280  142.5330 O   0  0  0  0  0  0  0  0  0  0  0  0
  183.0180  178.9320  141.4820 C   0  0  0  0  0  0  0  0  0  0  0  0
  191.3280  178.7490  143.6520 C   0  0  0  0  0  2  0  0  0  0  0  0
  186.8210  178.1690  145.0210 C   0  0  0  0  0  0  0  0  0  0  0  0
  185.5010  178.1260  147.4950 C   0  0  0  0  0  3  0  0  0  0  0  0
  189.8980  178.7850  144.1990 C   0  0  0  0  0  2  0  0  0  0  0  0
  185.1780  178.3060  142.6910 C   0  0  0  0  0  0  0  0  0  0  0  0
  187.6350  177.8220  148.6420 N   0  0  0  0  0  1  0  0  0  0  0  0
  188.5490  177.4010  141.1400 C   0  0  0  0  0  3  0  0  0  0  0  0
  192.0480  177.4240  143.9130 C   0  0  0  0  0  2  0  0  0  0  0  0
  184.6630  178.4880  143.8750 N   0  0  0  0  0  0  0  0  0  0  0  0
  186.5840  177.7690  142.5620 C   0  0  1  0  0  3  0  0  0  0  0  0
  184.3660  178.4500  141.5170 N   0  0  0  0  0  2  0  0  0  0  0  0
  187.5500  178.0190  146.2090 C   0  0  0  0  0  3  0  0  0  0  0  0
  191.3290  176.1940  143.3510 C   0  0  0  0  0  2  0  0  0  0  0  0
  185.4220  178.3160  145.0820 C   0  0  0  0  0  0  0  0  0  0  0  0
  184.7670  178.2950  146.3170 C   0  0  0  0  0  3  0  0  0  0  0  0
  187.2270  178.1020  141.2240 C   0  0  0  0  0  2  0  0  0  0  0  0
  189.3440  177.2510  142.2120 C   0  0  0  0  0  0  0  0  0  0  0  0
  190.6180  176.4660  142.0250 C   0  0  0  0  0  2  0  0  0  0  0  0
  182.8090  176.7380  138.4850 C   0  0  1  0  0  3  0  0  0  0  0  0
  181.3560  177.9510  139.9960 O   0  0  0  0  0  0  0  0  0  0  0  0
  184.1820  180.1320  139.1370 O   0  0  0  0  0  1  0  0  0  0  0  0
  183.4810  175.3960  138.2800 C   0  0  0  0  0  1  0  0  0  0  0  0
  182.0280  176.7240  139.7960 C   0  0  0  0  0  2  0  0  0  0  0  0
  183.2110  179.1540  138.9230 C   0  0  2  0  0  3  0  0  0  0  0  0
  182.3030  178.9920  140.1580 C   0  0  2  0  0  3  0  0  0  0  0  0
  183.8680  177.8290  138.5540 C   0  0  0  0  0  2  0  0  0  0  0  0
  1  8  1  0  0  0  0
  1 11  1  0  0  0  0
  2  7  1  1  0  0  0
  3  2  1  0  0  0  0
  3  9  1  6  0  0  0
  5 16  1  0  0  0  0
  5  4  2  0  0  0  0
  6 13  1  0  0  0  0
  6  9  1  0  0  0  0
  7 19  2  0  0  0  0
  7 17  1  0  0  0  0
 10 14  2  0  0  0  0
 12 21  1  0  0  0  0
 12 22  2  0  0  0  0
 14 19  1  0  0  0  0
 15 21  1  6  0  0  0
 15 10  1  0  0  0  0
 15  2  1  0  0  0  0
 16 10  1  0  0  0  0
 17  1  2  0  0  0  0
 18 13  1  0  0  0  0
 19 20  1  0  0  0  0
 20  8  2  0  0  0  0
 22  3  1  0  0  0  0
 23 22  1  0  0  0  0
 23 18  1  0  0  0  0
 24 27  1  1  0  0  0
 24 31  1  0  0  0  0
 24 28  1  0  0  0  0
 25 30  1  0  0  0  0
 28 25  1  0  0  0  0
 29 26  1  1  0  0  0
 29 30  1  0  0  0  0
 30  5  1  1  0  0  0
 31 29  1  0  0  0  0
M  END
>  <MODEL>
1

>  <REMARK>
 VINA RESULT:      -9.5      0.000      0.000
  Name = 
  1 active torsions:
  status: ('A' for Active; 'I' for Inactive)
    1  A    between atoms: C_9  and  C_22
                            x       y       z     vdW  Elec       q    Type
                         _______ _______ _______ _____ _____    ______ ____

>  <TORSDO>
F 1

$$$$
=
 OpenBabel11052413123D

 31 35  0  0  1  0  0  0  0  0999 V2000
  185.6670  178.2940  145.5190 C   0  0  0  0  0  0  0  0  0  0  0  0
  188.4870  178.0080  142.9460 C   0  0  2  0  0  3  0  0  0  0  0  0
  189.5610  177.3330  143.8300 C   0  0  2  0  0  3  0  0  0  0  0  0
  185.4220  179.2020  138.8270 O   0  0  0  0  0  0  0  0  0  0  0  0
  186.4500  178.6110  138.3990 C   0  0  0  0  0  0  0  0  0  0  0  0
  191.5460  178.1520  145.3000 C   0  0  0  0  0  2  0  0  0  0  0  0
  187.1220  178.1150  143.5830 C   0  0  0  0  0  0  0  0  0  0  0  0
  184.5770  178.5420  144.6800 C   0  0  0  0  0  3  0  0  0  0  0  0
  190.1070  178.3740  144.8270 C   0  0  0  0  0  2  0  0  0  0  0  0
  187.2930  178.0190  140.7350 C   0  0  0  0  0  0  0  0  0  0  0  0
  185.4860  178.2600  146.9290 N   0  0  0  0  0  1  0  0  0  0  0  0
  190.7230  176.6470  141.7070 C   0  0  0  0  0  3  0  0  0  0  0  0
  191.7460  176.8330  146.0500 C   0  0  0  0  0  2  0  0  0  0  0  0
  186.1960  178.4140  141.3190 N   0  0  0  0  0  0  0  0  0  0  0  0
  188.3830  177.3680  141.5540 C   0  0  1  0  0  3  0  0  0  0  0  0
  187.4030  178.0430  139.3050 N   0  0  0  0  0  2  0  0  0  0  0  0
  186.9380  178.0940  144.9730 C   0  0  0  0  0  3  0  0  0  0  0  0
  191.3450  175.5880  145.2520 C   0  0  0  0  0  2  0  0  0  0  0  0
  186.0210  178.3720  142.7440 C   0  0  0  0  0  0  0  0  0  0  0  0
  184.7530  178.5840  143.2950 C   0  0  0  0  0  3  0  0  0  0  0  0
  189.7500  177.4470  140.8940 C   0  0  0  0  0  2  0  0  0  0  0  0
  190.6610  176.6030  143.0480 C   0  0  0  0  0  0  0  0  0  0  0  0
  191.6460  175.7080  143.7580 C   0  0  0  0  0  2  0  0  0  0  0  0
  188.0140  176.1070  136.1350 C   0  0  1  0  0  3  0  0  0  0  0  0
  186.0120  177.4610  136.2970 O   0  0  0  0  0  0  0  0  0  0  0  0
  188.8850  179.5650  137.1930 O   0  0  0  0  0  1  0  0  0  0  0  0
  188.5870  174.7580  136.5130 C   0  0  0  0  0  1  0  0  0  0  0  0
  186.5890  176.2270  136.6690 C   0  0  0  0  0  2  0  0  0  0  0  0
  188.1990  178.5600  136.5090 C   0  0  2  0  0  3  0  0  0  0  0  0
  186.7140  178.5230  136.9190 C   0  0  2  0  0  3  0  0  0  0  0  0
  188.8640  177.2100  136.7500 C   0  0  0  0  0  2  0  0  0  0  0  0
  1 11  1  0  0  0  0
  2  7  1  1  0  0  0
  2  3  1  0  0  0  0
  3  9  1  6  0  0  0
  5  4  2  0  0  0  0
  5 16  1  0  0  0  0
  6 13  1  0  0  0  0
  7 17  2  0  0  0  0
  8  1  2  0  0  0  0
  9  6  1  0  0  0  0
 10 14  2  0  0  0  0
 10 15  1  0  0  0  0
 12 22  2  0  0  0  0
 14 19  1  0  0  0  0
 15 21  1  6  0  0  0
 15  2  1  0  0  0  0
 16 10  1  0  0  0  0
 17  1  1  0  0  0  0
 18 13  1  0  0  0  0
 19 20  2  0  0  0  0
 19  7  1  0  0  0  0
 20  8  1  0  0  0  0
 21 12  1  0  0  0  0
 22 23  1  0  0  0  0
 22  3  1  0  0  0  0
 23 18  1  0  0  0  0
 24 27  1  1  0  0  0
 24 28  1  0  0  0  0
 24 31  1  0  0  0  0
 25 28  1  0  0  0  0
 25 30  1  0  0  0  0
 29 31  1  0  0  0  0
 29 30  1  0  0  0  0
 29 26  1  1  0  0  0
 30  5  1  1  0  0  0
M  END
>  <MODEL>
2

>  <REMARK>
 VINA RESULT:      -9.5      2.665      3.597
  Name = 
  1 active torsions:
  status: ('A' for Active; 'I' for Inactive)
    1  A    between atoms: C_9  and  C_22
                            x       y       z     vdW  Elec       q    Type
                         _______ _______ _______ _____ _____    ______ ____

>  <TORSDO>
F 1

$$$$
=
 OpenBabel11052413123D

 31 35  0  0  1  0  0  0  0  0999 V2000
  189.2760  177.9480  141.8220 C   0  0  0  0  0  0  0  0  0  0  0  0
  186.4250  177.8910  144.3760 C   0  0  2  0  0  3  0  0  0  0  0  0
  187.2490  178.0590  145.6730 C   0  0  2  0  0  3  0  0  0  0  0  0
  182.6170  178.3960  140.7660 O   0  0  0  0  0  0  0  0  0  0  0  0
  182.1500  178.7400  141.8860 C   0  0  0  0  0  0  0  0  0  0  0  0
  188.3010  176.4540  147.4300 C   0  0  0  0  0  2  0  0  0  0  0  0
  187.2140  178.0610  143.0990 C   0  0  0  0  0  0  0  0  0  0  0  0
  188.5620  178.1780  140.6430 C   0  0  0  0  0  3  0  0  0  0  0  0
  187.9960  176.7410  145.9580 C   0  0  0  0  0  2  0  0  0  0  0  0
  184.4160  178.6270  143.0570 C   0  0  0  0  0  0  0  0  0  0  0  0
  190.6870  177.7710  141.7760 N   0  0  0  0  0  1  0  0  0  0  0  0
  185.1200  178.7660  146.8090 C   0  0  0  0  0  3  0  0  0  0  0  0
  189.2090  177.5010  148.0810 C   0  0  0  0  0  2  0  0  0  0  0  0
  185.0740  178.4590  141.9440 N   0  0  0  0  0  0  0  0  0  0  0  0
  185.1720  178.7800  144.3560 C   0  0  1  0  0  3  0  0  0  0  0  0
  182.9970  178.8370  143.0360 N   0  0  0  0  0  2  0  0  0  0  0  0
  188.6030  177.8760  143.0450 C   0  0  0  0  0  3  0  0  0  0  0  0
  188.6700  178.9330  148.0110 C   0  0  0  0  0  2  0  0  0  0  0  0
  186.4990  178.2860  141.9070 C   0  0  0  0  0  0  0  0  0  0  0  0
  187.1750  178.3440  140.6840 C   0  0  0  0  0  3  0  0  0  0  0  0
  184.3320  178.4390  145.5760 C   0  0  0  0  0  2  0  0  0  0  0  0
  186.4480  178.5780  146.8730 C   0  0  0  0  0  0  0  0  0  0  0  0
  187.1480  179.0100  148.1370 C   0  0  0  0  0  2  0  0  0  0  0  0
  179.0440  177.5830  140.1980 C   0  0  1  0  0  3  0  0  0  0  0  0
  179.9390  177.8750  142.4300 O   0  0  0  0  0  0  0  0  0  0  0  0
  180.8070  180.8480  140.4560 O   0  0  0  0  0  1  0  0  0  0  0  0
  178.9310  176.5810  139.0690 C   0  0  0  0  0  1  0  0  0  0  0  0
  179.8500  176.9770  141.3430 C   0  0  0  0  0  2  0  0  0  0  0  0
  180.0210  179.7710  140.8680 C   0  0  2  0  0  3  0  0  0  0  0  0
  180.6790  179.0200  142.0420 C   0  0  2  0  0  3  0  0  0  0  0  0
  179.7600  178.8300  139.6980 C   0  0  0  0  0  2  0  0  0  0  0  0
  1 17  1  0  0  0  0
  2  7  1  6  0  0  0
  2  3  1  0  0  0  0
  3  9  1  1  0  0  0
  3 22  1  0  0  0  0
  4  5  2  0  0  0  0
  5 16  1  0  0  0  0
  6 13  1  0  0  0  0
  8 20  1  0  0  0  0
  8  1  2  0  0  0  0
  9  6  1  0  0  0  0
 10 15  1  0  0  0  0
 11  1  1  0  0  0  0
 12 22  2  0  0  0  0
 14 10  2  0  0  0  0
 15  2  1  0  0  0  0
 15 21  1  1  0  0  0
 16 10  1  0  0  0  0
 17  7  2  0  0  0  0
 18 13  1  0  0  0  0
 18 23  1  0  0  0  0
 19 14  1  0  0  0  0
 19  7  1  0  0  0  0
 20 19  2  0  0  0  0
 21 12  1  0  0  0  0
 22 23  1  0  0  0  0
 24 27  1  6  0  0  0
 24 28  1  0  0  0  0
 28 25  1  0  0  0  0
 29 26  1  6  0  0  0
 29 30  1  0  0  0  0
 30  5  1  6  0  0  0
 30 25  1  0  0  0  0
 31 24  1  0  0  0  0
 31 29  1  0  0  0  0
M  END
>  <MODEL>
3

>  <REMARK>
 VINA RESULT:      -9.4      2.484      4.452
  Name = 
  1 active torsions:
  status: ('A' for Active; 'I' for Inactive)
    1  A    between atoms: C_9  and  C_22
                            x       y       z     vdW  Elec       q    Type
                         _______ _______ _______ _____ _____    ______ ____

>  <TORSDO>
F 1

$$$$
=
 OpenBabel11052413123D

 31 35  0  0  1  0  0  0  0  0999 V2000
  191.1050  177.4260  144.3090 C   0  0  0  0  0  0  0  0  0  0  0  0
  187.5910  177.7670  142.8280 C   0  0  2  0  0  3  0  0  0  0  0  0
  186.8350  178.2400  144.0900 C   0  0  2  0  0  3  0  0  0  0  0  0
  189.1990  177.3270  137.8260 O   0  0  0  0  0  0  0  0  0  0  0  0
  188.0620  177.8740  137.8320 C   0  0  0  0  0  0  0  0  0  0  0  0
  185.4750  177.0890  145.9860 C   0  0  0  0  0  2  0  0  0  0  0  0
  189.0930  177.7040  142.9780 C   0  0  0  0  0  0  0  0  0  0  0  0
  191.8730  177.3710  143.1420 C   0  0  0  0  0  3  0  0  0  0  0  0
  186.6900  177.0470  145.0550 C   0  0  0  0  0  2  0  0  0  0  0  0
  188.0010  178.1150  140.3730 C   0  0  0  0  0  0  0  0  0  0  0  0
  191.7340  177.3100  145.5790 N   0  0  0  0  0  1  0  0  0  0  0  0
  185.0180  179.0670  142.5610 C   0  0  0  0  0  3  0  0  0  0  0  0
  185.4720  178.2900  146.9340 C   0  0  0  0  0  2  0  0  0  0  0  0
  189.2440  177.7510  140.5190 N   0  0  0  0  0  0  0  0  0  0  0  0
  187.2100  178.5710  141.5760 C   0  0  1  0  0  3  0  0  0  0  0  0
  187.4330  178.2490  139.0620 N   0  0  0  0  0  2  0  0  0  0  0  0
  189.7180  177.5780  144.2270 C   0  0  0  0  0  3  0  0  0  0  0  0
  185.5380  179.6480  146.2300 C   0  0  0  0  0  2  0  0  0  0  0  0
  189.8710  177.6420  141.8060 C   0  0  0  0  0  0  0  0  0  0  0  0
  191.2570  177.4750  141.8910 C   0  0  0  0  0  3  0  0  0  0  0  0
  185.7070  178.4530  141.3790 C   0  0  0  0  0  2  0  0  0  0  0  0
  185.5100  178.9590  143.8050 C   0  0  0  0  0  0  0  0  0  0  0  0
  184.7730  179.6780  144.9070 C   0  0  0  0  0  2  0  0  0  0  0  0
  186.2770  175.7280  135.3720 C   0  0  1  0  0  3  0  0  0  0  0  0
  185.9520  177.7790  136.6200 O   0  0  0  0  0  0  0  0  0  0  0  0
  189.3650  177.7990  135.2650 O   0  0  0  0  0  1  0  0  0  0  0  0
  186.0650  174.2310  135.4440 C   0  0  0  0  0  1  0  0  0  0  0  0
  185.8040  176.3750  136.6710 C   0  0  0  0  0  2  0  0  0  0  0  0
  187.9970  177.5240  135.2810 C   0  0  2  0  0  3  0  0  0  0  0  0
  187.3270  178.1110  136.5390 C   0  0  2  0  0  3  0  0  0  0  0  0
  187.7590  176.0210  135.1890 C   0  0  0  0  0  2  0  0  0  0  0  0
  1 11  1  0  0  0  0
  2  7  1  1  0  0  0
  2  3  1  0  0  0  0
  3  9  1  1  0  0  0
  4  5  2  0  0  0  0
  5 16  1  0  0  0  0
  6 13  1  0  0  0  0
  7 17  2  0  0  0  0
  8  1  2  0  0  0  0
  9  6  1  0  0  0  0
 10 14  2  0  0  0  0
 10 15  1  0  0  0  0
 12 22  2  0  0  0  0
 14 19  1  0  0  0  0
 15 21  1  6  0  0  0
 15  2  1  0  0  0  0
 16 10  1  0  0  0  0
 17  1  1  0  0  0  0
 18 13  1  0  0  0  0
 19 20  2  0  0  0  0
 19  7  1  0  0  0  0
 20  8  1  0  0  0  0
 21 12  1  0  0  0  0
 22  3  1  0  0  0  0
 22 23  1  0  0  0  0
 23 18  1  0  0  0  0
 24 27  1  1  0  0  0
 24 28  1  0  0  0  0
 25 28  1  0  0  0  0
 29 26  1  1  0  0  0
 29 30  1  0  0  0  0
 30 25  1  0  0  0  0
 30  5  1  1  0  0  0
 31 29  1  0  0  0  0
 31 24  1  0  0  0  0
M  END
>  <MODEL>
4

>  <REMARK>
 VINA RESULT:      -9.3      3.165      5.430
  Name = 
  1 active torsions:
  status: ('A' for Active; 'I' for Inactive)
    1  A    between atoms: C_9  and  C_22
                            x       y       z     vdW  Elec       q    Type
                         _______ _______ _______ _____ _____    ______ ____

>  <TORSDO>
F 1

$$$$
=
 OpenBabel11052413123D

 31 35  0  0  1  0  0  0  0  0999 V2000
  189.6300  177.8760  141.9360 C   0  0  0  0  0  0  0  0  0  0  0  0
  186.3360  177.9090  143.8870 C   0  0  2  0  0  3  0  0  0  0  0  0
  186.8960  178.0950  145.3160 C   0  0  2  0  0  3  0  0  0  0  0  0
  183.3090  178.3800  139.5970 O   0  0  0  0  0  0  0  0  0  0  0  0
  182.6400  178.7540  140.5990 C   0  0  0  0  0  0  0  0  0  0  0  0
  187.5620  176.5170  147.2740 C   0  0  0  0  0  2  0  0  0  0  0  0
  187.3610  178.0410  142.7850 C   0  0  0  0  0  0  0  0  0  0  0  0
  189.1610  178.0890  140.6360 C   0  0  0  0  0  3  0  0  0  0  0  0
  187.5520  176.7750  145.7650 C   0  0  0  0  0  2  0  0  0  0  0  0
  184.6340  178.6400  142.1890 C   0  0  0  0  0  0  0  0  0  0  0  0
  191.0190  177.6810  142.1680 N   0  0  0  0  0  1  0  0  0  0  0  0
  184.5990  178.8520  146.0030 C   0  0  0  0  0  3  0  0  0  0  0  0
  188.3430  177.5670  148.0690 C   0  0  0  0  0  2  0  0  0  0  0  0
  185.4930  178.4390  141.2290 N   0  0  0  0  0  0  0  0  0  0  0  0
  185.1260  178.8120  143.6070 C   0  0  1  0  0  3  0  0  0  0  0  0
  183.2490  178.8660  141.8900 N   0  0  0  0  0  2  0  0  0  0  0  0
  188.7310  177.8390  143.0050 C   0  0  0  0  0  3  0  0  0  0  0  0
  187.8510  179.0030  147.8680 C   0  0  0  0  0  2  0  0  0  0  0  0
  186.8940  178.2490  141.4730 C   0  0  0  0  0  0  0  0  0  0  0  0
  187.7950  178.2720  140.4030 C   0  0  0  0  0  3  0  0  0  0  0  0
  184.0590  178.5080  144.6470 C   0  0  0  0  0  2  0  0  0  0  0  0
  185.8860  178.6500  146.3280 C   0  0  0  0  0  0  0  0  0  0  0  0
  186.3350  179.1010  147.6950 C   0  0  0  0  0  2  0  0  0  0  0  0
  179.6970  178.6710  142.8730 C   0  0  1  0  0  3  0  0  0  0  0  0
  180.7550  180.1440  141.2670 O   0  0  0  0  0  0  0  0  0  0  0  0
  180.7060  176.7570  139.8470 O   0  0  0  0  0  1  0  0  0  0  0  0
  179.6820  178.3070  144.3420 C   0  0  0  0  0  1  0  0  0  0  0  0
  180.7440  179.7530  142.6250 C   0  0  0  0  0  2  0  0  0  0  0  0
  180.2320  177.8400  140.5900 C   0  0  2  0  0  3  0  0  0  0  0  0
  181.1710  179.0550  140.4610 C   0  0  2  0  0  3  0  0  0  0  0  0
  180.0550  177.4410  142.0500 C   0  0  0  0  0  2  0  0  0  0  0  0
  1 11  1  0  0  0  0
  1 17  1  0  0  0  0
  2  7  1  6  0  0  0
  2  3  1  0  0  0  0
  3  9  1  1  0  0  0
  3 22  1  0  0  0  0
  4  5  2  0  0  0  0
  5 16  1  0  0  0  0
  6 13  1  0  0  0  0
  7 17  2  0  0  0  0
  8  1  2  0  0  0  0
  9  6  1  0  0  0  0
 10 15  1  0  0  0  0
 12 22  2  0  0  0  0
 14 19  1  0  0  0  0
 14 10  2  0  0  0  0
 15  2  1  0  0  0  0
 15 21  1  1  0  0  0
 16 10  1  0  0  0  0
 18 13  1  0  0  0  0
 19  7  1  0  0  0  0
 20  8  1  0  0  0  0
 20 19  2  0  0  0  0
 21 12  1  0  0  0  0
 22 23  1  0  0  0  0
 23 18  1  0  0  0  0
 24 27  1  1  0  0  0
 25 28  1  0  0  0  0
 28 24  1  0  0  0  0
 29 26  1  6  0  0  0
 29 31  1  0  0  0  0
 30 29  1  0  0  0  0
 30  5  1  1  0  0  0
 30 25  1  0  0  0  0
 31 24  1  0  0  0  0
M  END
>  <MODEL>
5

>  <REMARK>
 VINA RESULT:      -9.0      2.246      4.796
  Name = 
  1 active torsions:
  status: ('A' for Active; 'I' for Inactive)
    1  A    between atoms: C_9  and  C_22
                            x       y       z     vdW  Elec       q    Type
                         _______ _______ _______ _____ _____    ______ ____

>  <TORSDO>
F 1

$$$$
=
 OpenBabel11052413123D

 31 35  0  0  1  0  0  0  0  0999 V2000
  183.7750  178.6030  144.4770 C   0  0  0  0  0  0  0  0  0  0  0  0
  187.5780  178.2640  144.1980 C   0  0  2  0  0  3  0  0  0  0  0  0
  187.8920  177.8030  145.6400 C   0  0  2  0  0  3  0  0  0  0  0  0
  187.6520  178.6610  138.9420 O   0  0  0  0  0  0  0  0  0  0  0  0
  188.7280  178.1180  139.3150 C   0  0  0  0  0  0  0  0  0  0  0  0
  188.5750  178.9730  147.8610 C   0  0  0  0  0  2  0  0  0  0  0  0
  186.1070  178.3230  143.8600 C   0  0  0  0  0  0  0  0  0  0  0  0
  183.4200  178.6470  143.1260 C   0  0  0  0  0  3  0  0  0  0  0  0
  187.7200  179.0030  146.5910 C   0  0  0  0  0  2  0  0  0  0  0  0
  187.9740  177.8960  141.7440 C   0  0  0  0  0  0  0  0  0  0  0  0
  182.7740  178.7260  145.4790 N   0  0  0  0  0  1  0  0  0  0  0  0
  190.1040  176.9710  144.7780 C   0  0  0  0  0  3  0  0  0  0  0  0
  188.2750  177.7790  148.7710 C   0  0  0  0  0  2  0  0  0  0  0  0
  186.7490  178.2580  141.4820 N   0  0  0  0  0  0  0  0  0  0  0  0
  188.3400  177.4520  143.1410 C   0  0  1  0  0  3  0  0  0  0  0  0
  188.9310  177.7550  140.6840 N   0  0  0  0  0  2  0  0  0  0  0  0
  185.1160  178.4550  144.8430 C   0  0  0  0  0  3  0  0  0  0  0  0
  188.4400  176.4150  148.0940 C   0  0  0  0  0  2  0  0  0  0  0  0
  185.7440  178.3740  142.5010 C   0  0  0  0  0  0  0  0  0  0  0  0
  184.4030  178.5360  142.1380 C   0  0  0  0  0  3  0  0  0  0  0  0
  189.8270  177.5740  143.4330 C   0  0  0  0  0  2  0  0  0  0  0  0
  189.2390  177.0860  145.7990 C   0  0  0  0  0  0  0  0  0  0  0  0
  189.5870  176.3780  147.0840 C   0  0  0  0  0  2  0  0  0  0  0  0
  189.1260  176.0650  136.2380 C   0  0  1  0  0  3  0  0  0  0  0  0
  189.5180  178.3240  137.0200 O   0  0  0  0  0  0  0  0  0  0  0  0
  190.6550  176.0020  139.6280 O   0  0  0  0  0  1  0  0  0  0  0  0
  188.0850  175.1840  135.5810 C   0  0  0  0  0  1  0  0  0  0  0  0
  188.5550  177.4650  136.4440 C   0  0  0  0  0  2  0  0  0  0  0  0
  190.4220  176.4500  138.3270 C   0  0  2  0  0  3  0  0  0  0  0  0
  189.8370  177.8750  138.3260 C   0  0  2  0  0  3  0  0  0  0  0  0
  189.5010  175.4820  137.5940 C   0  0  0  0  0  2  0  0  0  0  0  0
  1 17  1  0  0  0  0
  1 11  1  0  0  0  0
  2  7  1  6  0  0  0
  2  3  1  0  0  0  0
  3 22  1  0  0  0  0
  3  9  1  1  0  0  0
  4  5  2  0  0  0  0
  5 16  1  0  0  0  0
  6 13  1  0  0  0  0
  7 17  2  0  0  0  0
  8  1  2  0  0  0  0
  9  6  1  0  0  0  0
 10 15  1  0  0  0  0
 12 22  2  0  0  0  0
 14 10  2  0  0  0  0
 14 19  1  0  0  0  0
 15 21  1  1  0  0  0
 15  2  1  0  0  0  0
 16 10  1  0  0  0  0
 18 13  1  0  0  0  0
 19  7  1  0  0  0  0
 20 19  2  0  0  0  0
 20  8  1  0  0  0  0
 21 12  1  0  0  0  0
 22 23  1  0  0  0  0
 23 18  1  0  0  0  0
 24 27  1  1  0  0  0
 24 28  1  0  0  0  0
 24 31  1  0  0  0  0
 25 30  1  0  0  0  0
 28 25  1  0  0  0  0
 29 26  1  1  0  0  0
 30 29  1  0  0  0  0
 30  5  1  1  0  0  0
 31 29  1  0  0  0  0
M  END
>  <MODEL>
6

>  <REMARK>
 VINA RESULT:      -8.9      3.137      5.187
  Name = 
  1 active torsions:
  status: ('A' for Active; 'I' for Inactive)
    1  A    between atoms: C_9  and  C_22
                            x       y       z     vdW  Elec       q    Type
                         _______ _______ _______ _____ _____    ______ ____

>  <TORSDO>
F 1

$$$$
=
 OpenBabel11052413123D

 31 35  0  0  1  0  0  0  0  0999 V2000
  190.8030  176.8570  145.8260 C   0  0  0  0  0  0  0  0  0  0  0  0
  187.9130  177.3360  143.3610 C   0  0  2  0  0  3  0  0  0  0  0  0
  186.9140  178.0640  144.2890 C   0  0  2  0  0  3  0  0  0  0  0  0
  190.7520  176.0060  139.1220 O   0  0  0  0  0  0  0  0  0  0  0  0
  189.7450  176.6620  138.7370 C   0  0  0  0  0  0  0  0  0  0  0  0
  184.9390  177.3480  145.8240 C   0  0  0  0  0  2  0  0  0  0  0  0
  189.2920  177.1420  143.9460 C   0  0  0  0  0  0  0  0  0  0  0  0
  191.8450  176.5540  144.9460 C   0  0  0  0  0  3  0  0  0  0  0  0
  186.3440  177.0460  145.2970 C   0  0  0  0  0  2  0  0  0  0  0  0
  189.0250  177.2770  141.1080 C   0  0  0  0  0  0  0  0  0  0  0  0
  191.0370  176.8650  147.2290 N   0  0  0  0  0  1  0  0  0  0  0  0
  185.7190  178.8390  142.2160 C   0  0  0  0  0  3  0  0  0  0  0  0
  184.8450  178.6690  146.5910 C   0  0  0  0  0  2  0  0  0  0  0  0
  190.1160  176.8120  141.6480 N   0  0  0  0  0  0  0  0  0  0  0  0
  188.0060  177.9830  141.9710 C   0  0  1  0  0  3  0  0  0  0  0  0
  188.8620  177.2750  139.6820 N   0  0  0  0  0  2  0  0  0  0  0  0
  189.5270  177.1380  145.3290 C   0  0  0  0  0  3  0  0  0  0  0  0
  185.2900  179.8960  145.7900 C   0  0  0  0  0  2  0  0  0  0  0  0
  190.3450  176.8300  143.0650 C   0  0  0  0  0  0  0  0  0  0  0  0
  191.6170  176.5370  143.5670 C   0  0  0  0  0  3  0  0  0  0  0  0
  186.6130  177.9920  141.3610 C   0  0  0  0  0  2  0  0  0  0  0  0
  185.8320  178.8650  143.5540 C   0  0  0  0  0  0  0  0  0  0  0  0
  184.9290  179.8100  144.3070 C   0  0  0  0  0  2  0  0  0  0  0  0
  186.6790  177.2860  136.7260 C   0  0  1  0  0  3  0  0  0  0  0  0
  188.9650  178.0680  136.9090 O   0  0  0  0  0  0  0  0  0  0  0  0
  188.9940  174.4020  137.1180 O   0  0  0  0  0  1  0  0  0  0  0  0
  185.2780  177.5370  137.2420 C   0  0  0  0  0  1  0  0  0  0  0  0
  187.6520  178.2500  137.3990 C   0  0  0  0  0  2  0  0  0  0  0  0
  188.5570  175.6550  136.6860 C   0  0  2  0  0  3  0  0  0  0  0  0
  189.4340  176.7800  137.2690 C   0  0  2  0  0  3  0  0  0  0  0  0
  187.0920  175.8590  137.0560 C   0  0  0  0  0  2  0  0  0  0  0  0
  1 11  1  0  0  0  0
  2  7  1  1  0  0  0
  2  3  1  0  0  0  0
  3  9  1  6  0  0  0
  5  4  2  0  0  0  0
  5 16  1  0  0  0  0
  6 13  1  0  0  0  0
  7 17  2  0  0  0  0
  8  1  2  0  0  0  0
  9  6  1  0  0  0  0
 10 14  2  0  0  0  0
 10 15  1  0  0  0  0
 12 22  2  0  0  0  0
 14 19  1  0  0  0  0
 15 21  1  6  0  0  0
 15  2  1  0  0  0  0
 16 10  1  0  0  0  0
 17  1  1  0  0  0  0
 18 13  1  0  0  0  0
 19 20  2  0  0  0  0
 19  7  1  0  0  0  0
 20  8  1  0  0  0  0
 21 12  1  0  0  0  0
 22  3  1  0  0  0  0
 22 23  1  0  0  0  0
 23 18  1  0  0  0  0
 24 31  1  0  0  0  0
 24 27  1  1  0  0  0
 24 28  1  0  0  0  0
 25 30  1  0  0  0  0
 25 28  1  0  0  0  0
 29 31  1  0  0  0  0
 29 26  1  1  0  0  0
 29 30  1  0  0  0  0
 30  5  1  1  0  0  0
M  END
>  <MODEL>
7

>  <REMARK>
 VINA RESULT:      -8.9      3.373      5.687
  Name = 
  1 active torsions:
  status: ('A' for Active; 'I' for Inactive)
    1  A    between atoms: C_9  and  C_22
                            x       y       z     vdW  Elec       q    Type
                         _______ _______ _______ _____ _____    ______ ____

>  <TORSDO>
F 1

$$$$
=
 OpenBabel11052413123D

 31 35  0  0  1  0  0  0  0  0999 V2000
  184.9280  178.5990  145.5070 C   0  0  0  0  0  0  0  0  0  0  0  0
  183.2650  178.5130  142.0600 C   0  0  2  0  0  3  0  0  0  0  0  0
  181.8690  179.0550  142.4440 C   0  0  2  0  0  3  0  0  0  0  0  0
  187.7650  177.6820  139.4430 O   0  0  0  0  0  0  0  0  0  0  0  0
  186.9120  178.1380  138.6330 C   0  0  0  0  0  0  0  0  0  0  0  0
  179.5850  178.0050  143.1140 C   0  0  0  0  0  2  0  0  0  0  0  0
  184.2950  178.5820  143.1630 C   0  0  0  0  0  0  0  0  0  0  0  0
  186.2730  178.4820  145.1470 C   0  0  0  0  0  3  0  0  0  0  0  0
  181.1110  177.9610  143.2220 C   0  0  0  0  0  2  0  0  0  0  0  0
  185.1950  178.6360  140.4540 C   0  0  0  0  0  0  0  0  0  0  0  0
  184.5620  178.6640  146.8800 N   0  0  0  0  0  1  0  0  0  0  0  0
  181.5190  179.5770  140.0090 C   0  0  0  0  0  3  0  0  0  0  0  0
  178.9700  179.2950  143.6650 C   0  0  0  0  0  2  0  0  0  0  0  0
  186.0290  178.3850  141.4240 N   0  0  0  0  0  0  0  0  0  0  0  0
  183.8110  179.1520  140.7740 C   0  0  1  0  0  3  0  0  0  0  0  0
  185.6320  178.5890  139.0890 N   0  0  0  0  0  2  0  0  0  0  0  0
  183.9400  178.6350  144.5190 C   0  0  0  0  0  3  0  0  0  0  0  0
  179.4980  180.5740  143.0080 C   0  0  0  0  0  2  0  0  0  0  0  0
  185.6510  178.4580  142.8070 C   0  0  0  0  0  0  0  0  0  0  0  0
  186.6360  178.4090  143.8000 C   0  0  0  0  0  3  0  0  0  0  0  0
  182.8090  178.8980  139.6590 C   0  0  0  0  0  2  0  0  0  0  0  0
  181.0680  179.6370  141.2720 C   0  0  0  0  0  0  0  0  0  0  0  0
  179.7950  180.4070  141.5180 C   0  0  0  0  0  2  0  0  0  0  0  0
  189.0930  176.2050  136.3200 C   0  0  1  0  0  3  0  0  0  0  0  0
  186.8120  177.0050  136.4790 O   0  0  0  0  0  0  0  0  0  0  0  0
  189.0480  179.7220  137.5280 O   0  0  0  0  0  1  0  0  0  0  0  0
  189.9810  175.0280  136.6640 C   0  0  0  0  0  1  0  0  0  0  0  0
  187.6760  175.9400  136.8210 C   0  0  0  0  0  2  0  0  0  0  0  0
  188.6490  178.6070  136.7890 C   0  0  2  0  0  3  0  0  0  0  0  0
  187.2140  178.1820  137.1580 C   0  0  2  0  0  3  0  0  0  0  0  0
  189.6280  177.4580  136.9980 C   0  0  0  0  0  2  0  0  0  0  0  0
  1 11  1  0  0  0  0
  2  3  1  0  0  0  0
  2  7  1  1  0  0  0
  3  9  1  6  0  0  0
  5 16  1  0  0  0  0
  5  4  2  0  0  0  0
  6  9  1  0  0  0  0
  6 13  1  0  0  0  0
  7 17  1  0  0  0  0
  8  1  1  0  0  0  0
 10 15  1  0  0  0  0
 10 14  2  0  0  0  0
 12 22  2  0  0  0  0
 14 19  1  0  0  0  0
 15 21  1  6  0  0  0
 15  2  1  0  0  0  0
 16 10  1  0  0  0  0
 17  1  2  0  0  0  0
 18 13  1  0  0  0  0
 19  7  2  0  0  0  0
 19 20  1  0  0  0  0
 20  8  2  0  0  0  0
 21 12  1  0  0  0  0
 22 23  1  0  0  0  0
 22  3  1  0  0  0  0
 23 18  1  0  0  0  0
 24 27  1  1  0  0  0
 24 28  1  0  0  0  0
 24 31  1  0  0  0  0
 25 28  1  0  0  0  0
 25 30  1  0  0  0  0
 29 31  1  0  0  0  0
 29 30  1  0  0  0  0
 29 26  1  1  0  0  0
 30  5  1  1  0  0  0
M  END
>  <MODEL>
8

>  <REMARK>
 VINA RESULT:      -8.7      3.205      6.676
  Name = 
  1 active torsions:
  status: ('A' for Active; 'I' for Inactive)
    1  A    between atoms: C_9  and  C_22
                            x       y       z     vdW  Elec       q    Type
                         _______ _______ _______ _____ _____    ______ ____

>  <TORSDO>
F 1

$$$$
=
 OpenBabel11052413123D

 31 35  0  0  1  0  0  0  0  0999 V2000
  189.3020  177.8870  141.2490 C   0  0  0  0  0  0  0  0  0  0  0  0
  185.8850  178.0750  142.9660 C   0  0  2  0  0  3  0  0  0  0  0  0
  186.3530  178.2210  144.4320 C   0  0  2  0  0  3  0  0  0  0  0  0
  183.1950  178.7330  138.4810 O   0  0  0  0  0  0  0  0  0  0  0  0
  182.4770  179.1330  139.4370 C   0  0  0  0  0  0  0  0  0  0  0  0
  186.7980  176.5960  146.4150 C   0  0  0  0  0  2  0  0  0  0  0  0
  186.9900  178.1620  141.9400 C   0  0  0  0  0  0  0  0  0  0  0  0
  188.9370  178.1330  139.9220 C   0  0  0  0  0  3  0  0  0  0  0  0
  186.9070  176.8660  144.9120 C   0  0  0  0  0  2  0  0  0  0  0  0
  184.3460  178.9050  141.1610 C   0  0  0  0  0  0  0  0  0  0  0  0
  190.6600  177.6200  141.5750 N   0  0  0  0  0  1  0  0  0  0  0  0
  184.0540  179.0900  144.9660 C   0  0  0  0  0  3  0  0  0  0  0  0
  187.5730  177.5990  147.2740 C   0  0  0  0  0  2  0  0  0  0  0  0
  185.2590  178.6680  140.2610 N   0  0  0  0  0  0  0  0  0  0  0  0
  184.7450  179.0410  142.6120 C   0  0  1  0  0  3  0  0  0  0  0  0
  182.9990  179.2040  140.7680 N   0  0  0  0  0  2  0  0  0  0  0  0
  188.3290  177.8890  142.2530 C   0  0  0  0  0  3  0  0  0  0  0  0
  187.1700  179.0600  147.0550 C   0  0  0  0  0  2  0  0  0  0  0  0
  186.6280  178.4040  140.6000 C   0  0  0  0  0  0  0  0  0  0  0  0
  187.6020  178.3880  139.5970 C   0  0  0  0  0  3  0  0  0  0  0  0
  183.5940  178.7840  143.5720 C   0  0  0  0  0  2  0  0  0  0  0  0
  185.3030  178.8200  145.3770 C   0  0  0  0  0  0  0  0  0  0  0  0
  185.6770  179.2370  146.7780 C   0  0  0  0  0  2  0  0  0  0  0  0
  180.1320  178.9410  136.5560 C   0  0  1  0  0  3  0  0  0  0  0  0
  180.2170  178.3920  138.9140 O   0  0  0  0  0  0  0  0  0  0  0  0
  181.6880  181.7270  138.4660 O   0  0  0  0  0  1  0  0  0  0  0  0
  180.4130  178.3760  135.1790 C   0  0  0  0  0  1  0  0  0  0  0  0
  180.5060  177.9100  137.6170 C   0  0  0  0  0  2  0  0  0  0  0  0
  180.8140  180.6690  138.2100 C   0  0  2  0  0  3  0  0  0  0  0  0
  181.0390  179.5100  139.2000 C   0  0  2  0  0  3  0  0  0  0  0  0
  180.9700  180.1930  136.7700 C   0  0  0  0  0  2  0  0  0  0  0  0
  1 11  1  0  0  0  0
  1 17  1  0  0  0  0
  2  7  1  6  0  0  0
  2  3  1  0  0  0  0
  3  9  1  1  0  0  0
  3 22  1  0  0  0  0
  4  5  2  0  0  0  0
  5 16  1  0  0  0  0
  6 13  1  0  0  0  0
  7 17  2  0  0  0  0
  8  1  2  0  0  0  0
  9  6  1  0  0  0  0
 10 15  1  0  0  0  0
 12 22  2  0  0  0  0
 14 19  1  0  0  0  0
 14 10  2  0  0  0  0
 15  2  1  0  0  0  0
 15 21  1  1  0  0  0
 16 10  1  0  0  0  0
 18 13  1  0  0  0  0
 19  7  1  0  0  0  0
 20  8  1  0  0  0  0
 20 19  2  0  0  0  0
 21 12  1  0  0  0  0
 22 23  1  0  0  0  0
 23 18  1  0  0  0  0
 24 27  1  6  0  0  0
 24 31  1  0  0  0  0
 24 28  1  0  0  0  0
 25 30  1  0  0  0  0
 28 25  1  0  0  0  0
 29 26  1  1  0  0  0
 29 30  1  0  0  0  0
 30  5  1  6  0  0  0
 31 29  1  0  0  0  0
M  END
>  <MODEL>
9

>  <REMARK>
 VINA RESULT:      -8.6      2.518      4.683
  Name = 
  1 active torsions:
  status: ('A' for Active; 'I' for Inactive)
    1  A    between atoms: C_9  and  C_22
                            x       y       z     vdW  Elec       q    Type
                         _______ _______ _______ _____ _____    ______ ____

>  <TORSDO>
F 1

$$$$
