=
 OpenBabel11052414283D

 32 35  0  0  1  0  0  0  0  0999 V2000
  189.1750  175.8530  136.6790 C   0  0  1  0  0  3  0  0  0  0  0  0
  189.4510  176.3660  139.1640 C   0  0  2  0  0  3  0  0  0  0  0  0
  189.6130  176.9630  135.7170 C   0  0  0  0  0  2  0  0  0  0  0  0
  188.4980  176.3880  137.9570 C   0  0  1  0  0  3  0  0  0  0  0  0
  188.7440  176.8990  140.4210 C   0  0  1  0  0  3  0  0  0  0  0  0
  191.6160  177.2560  140.1010 C   0  0  0  0  0  0  0  0  0  0  0  0
  191.1210  177.2270  141.3620 C   0  0  0  0  0  0  0  0  0  0  0  0
  187.8340  177.7460  137.8140 C   0  0  0  0  0  0  0  0  0  0  0  0
  189.6880  176.8240  141.6310 C   0  0  0  0  0  2  0  0  0  0  0  0
  187.1990  178.3460  139.0280 C   0  0  0  0  0  2  0  0  0  0  0  0
  187.8550  178.4460  136.6720 C   0  0  0  0  0  3  0  0  0  0  0  0
  190.7150  177.1880  138.9040 C   0  0  0  0  0  2  0  0  0  0  0  0
  188.1790  178.3210  140.2070 C   0  0  1  0  0  3  0  0  0  0  0  0
  188.4470  177.8940  135.4090 C   0  0  0  0  0  2  0  0  0  0  0  0
  193.3770  177.3420  139.7430 S   0  0  0  0  0  1  0  0  0  0  0  0
  187.4920  178.8630  141.4590 C   0  0  0  0  0  2  0  0  0  0  0  0
  186.1790  179.2470  141.1840 O   0  0  0  0  0  1  0  0  0  0  0  0
  188.8040  174.1480  135.0790 O   0  0  0  0  0  0  0  0  0  0  0  0
  188.3420  174.8050  136.0010 C   0  0  0  0  0  0  0  0  0  0  0  0
  184.1790  174.3280  137.4870 S   0  0  0  0  0  0  0  0  0  0  0  0
  185.3900  172.9750  137.7580 C   0  0  0  0  0  2  0  0  0  0  0  0
  184.4810  174.4990  135.6910 C   0  0  1  0  0  3  0  0  0  0  0  0
  186.9350  174.5700  136.4670 C   0  0  1  0  0  3  0  0  0  0  0  0
  185.9220  174.9240  135.3700 C   0  0  0  0  0  2  0  0  0  0  0  0
  186.7420  173.1640  137.0600 C   0  0  2  0  0  3  0  0  0  0  0  0
  186.9620  172.0480  136.0460 C   0  0  0  0  0  1  0  0  0  0  0  0
  184.0850  173.2290  134.9420 C   0  0  0  0  0  2  0  0  0  0  0  0
  182.8290  171.5240  136.0360 F   0  0  0  0  0  0  0  0  0  0  0  0
  182.7160  172.7390  135.3850 C   0  0  0  0  0  2  0  0  0  0  0  0
  191.8970  177.4770  142.5050 O   0  0  0  0  0  0  0  0  0  0  0  0
  191.3730  177.7730  143.7950 C   0  0  0  0  0  2  0  0  0  0  0  0
  191.1930  179.2700  143.9570 C   0  0  0  0  0  1  0  0  0  0  0  0
  1 19  1  6  0  0  0
  1  4  1  0  0  0  0
  2 12  1  6  0  0  0
  2  5  1  0  0  0  0
  3  1  1  0  0  0  0
  4  8  1  6  0  0  0
  4  2  1  0  0  0  0
  5  9  1  1  0  0  0
  6  7  2  0  0  0  0
  7  9  1  0  0  0  0
  7 30  1  0  0  0  0
  8 10  1  0  0  0  0
 10 13  1  0  0  0  0
 11  8  2  0  0  0  0
 12  6  1  0  0  0  0
 13  5  1  0  0  0  0
 13 16  1  1  0  0  0
 14  3  1  0  0  0  0
 14 11  1  0  0  0  0
 15  6  1  0  0  0  0
 17 16  1  0  0  0  0
 18 19  2  0  0  0  0
 20 21  1  0  0  0  0
 22 27  1  6  0  0  0
 22 20  1  0  0  0  0
 23 19  1  6  0  0  0
 23 25  1  0  0  0  0
 24 22  1  0  0  0  0
 24 23  1  0  0  0  0
 25 26  1  6  0  0  0
 25 21  1  0  0  0  0
 27 29  1  0  0  0  0
 29 28  1  0  0  0  0
 30 31  1  0  0  0  0
 31 32  1  0  0  0  0
M  END
>  <MODEL>
1

>  <REMARK>
 VINA RESULT:      -5.4      0.000      0.000
  Name = 
  7 active torsions:
  status: ('A' for Active; 'I' for Inactive)
    1  A    between atoms: C_1  and  C_27
    2  A    between atoms: C_7  and  C_15
    3  A    between atoms: C_7  and  C_26
    4  A    between atoms: C_9  and  O_11
    5  A    between atoms: O_11  and  C_12
    6  A    between atoms: C_13  and  C_29
    7  A    between atoms: C_16  and  C_27
                            x       y       z     vdW  Elec       q    Type
                         _______ _______ _______ _____ _____    ______ ____

>  <TORSDO>
F 7

$$$$
=
 OpenBabel11052414283D

 32 35  0  0  1  0  0  0  0  0999 V2000
  188.1900  177.0320  138.0260 C   0  0  1  0  0  3  0  0  0  0  0  0
  187.2180  174.7120  137.5930 C   0  0  2  0  0  3  0  0  0  0  0  0
  187.6790  178.1500  137.1110 C   0  0  0  0  0  2  0  0  0  0  0  0
  188.3720  175.6850  137.2980 C   0  0  1  0  0  3  0  0  0  0  0  0
  187.4320  173.3790  136.8580 C   0  0  1  0  0  3  0  0  0  0  0  0
  184.7340  174.3340  137.3900 C   0  0  0  0  0  0  0  0  0  0  0  0
  184.9150  172.9980  137.2540 C   0  0  0  0  0  0  0  0  0  0  0  0
  188.6250  175.7890  135.8040 C   0  0  0  0  0  0  0  0  0  0  0  0
  186.3020  172.3970  137.2020 C   0  0  0  0  0  2  0  0  0  0  0  0
  188.7620  174.5190  135.0270 C   0  0  0  0  0  2  0  0  0  0  0  0
  188.6610  176.9610  135.1560 C   0  0  0  0  0  3  0  0  0  0  0  0
  185.8630  175.3010  137.1950 C   0  0  0  0  0  2  0  0  0  0  0  0
  187.5900  173.5790  135.3340 C   0  0  1  0  0  3  0  0  0  0  0  0
  188.5600  178.2740  135.8740 C   0  0  0  0  0  2  0  0  0  0  0  0
  183.1550  175.0660  137.8430 S   0  0  0  0  0  1  0  0  0  0  0  0
  187.7850  172.2560  134.5960 C   0  0  0  0  0  2  0  0  0  0  0  0
  189.0730  171.7570  134.7930 O   0  0  0  0  0  1  0  0  0  0  0  0
  190.2760  178.1310  138.2490 O   0  0  0  0  0  0  0  0  0  0  0  0
  189.4250  177.4310  138.7800 C   0  0  0  0  0  0  0  0  0  0  0  0
  190.0200  175.8300  142.8840 S   0  0  0  0  0  0  0  0  0  0  0  0
  188.4770  176.7430  142.4930 C   0  0  0  0  0  2  0  0  0  0  0  0
  191.1650  177.1010  142.2380 C   0  0  1  0  0  3  0  0  0  0  0  0
  189.6050  176.9650  140.1940 C   0  0  1  0  0  3  0  0  0  0  0  0
  190.9910  177.3450  140.7310 C   0  0  0  0  0  2  0  0  0  0  0  0
  188.4450  177.4000  141.1070 C   0  0  2  0  0  3  0  0  0  0  0  0
  188.3290  178.9120  141.2530 C   0  0  0  0  0  1  0  0  0  0  0  0
  191.0570  178.3990  143.0370 C   0  0  0  0  0  2  0  0  0  0  0  0
  190.1250  178.4840  145.2290 F   0  0  0  0  0  0  0  0  0  0  0  0
  191.2630  178.1420  144.5220 C   0  0  0  0  0  2  0  0  0  0  0  0
  183.8600  172.0710  137.2380 O   0  0  0  0  0  0  0  0  0  0  0  0
  183.5650  171.1950  136.1560 C   0  0  0  0  0  2  0  0  0  0  0  0
  182.3490  171.6900  135.3960 C   0  0  0  0  0  1  0  0  0  0  0  0
  1 19  1  6  0  0  0
  2 12  1  6  0  0  0
  3  1  1  0  0  0  0
  4  8  1  6  0  0  0
  4  2  1  0  0  0  0
  4  1  1  0  0  0  0
  5  9  1  6  0  0  0
  5  2  1  0  0  0  0
  6 15  1  0  0  0  0
  7  6  2  0  0  0  0
  9  7  1  0  0  0  0
 10 13  1  0  0  0  0
 10  8  1  0  0  0  0
 11  8  2  0  0  0  0
 11 14  1  0  0  0  0
 12  6  1  0  0  0  0
 13 16  1  6  0  0  0
 13  5  1  0  0  0  0
 14  3  1  0  0  0  0
 16 17  1  0  0  0  0
 18 19  2  0  0  0  0
 21 20  1  0  0  0  0
 22 20  1  0  0  0  0
 22 27  1  1  0  0  0
 23 19  1  6  0  0  0
 23 24  1  0  0  0  0
 23 25  1  0  0  0  0
 24 22  1  0  0  0  0
 25 26  1  1  0  0  0
 25 21  1  0  0  0  0
 27 29  1  0  0  0  0
 29 28  1  0  0  0  0
 30  7  1  0  0  0  0
 31 30  1  0  0  0  0
 32 31  1  0  0  0  0
M  END
>  <MODEL>
2

>  <REMARK>
 VINA RESULT:      -5.1      3.083      8.150
  Name = 
  7 active torsions:
  status: ('A' for Active; 'I' for Inactive)
    1  A    between atoms: C_1  and  C_27
    2  A    between atoms: C_7  and  C_15
    3  A    between atoms: C_7  and  C_26
    4  A    between atoms: C_9  and  O_11
    5  A    between atoms: O_11  and  C_12
    6  A    between atoms: C_13  and  C_29
    7  A    between atoms: C_16  and  C_27
                            x       y       z     vdW  Elec       q    Type
                         _______ _______ _______ _____ _____    ______ ____

>  <TORSDO>
F 7

$$$$
=
 OpenBabel11052414283D

 32 35  0  0  1  0  0  0  0  0999 V2000
  182.0410  176.7210  138.1660 C   0  0  1  0  0  3  0  0  0  0  0  0
  181.8960  177.7250  140.5080 C   0  0  2  0  0  3  0  0  0  0  0  0
  182.6430  177.6290  137.0880 C   0  0  0  0  0  2  0  0  0  0  0  0
  181.1610  177.4800  139.1790 C   0  0  1  0  0  3  0  0  0  0  0  0
  180.9900  178.4770  141.4960 C   0  0  1  0  0  3  0  0  0  0  0  0
  183.8770  178.8420  141.5960 C   0  0  0  0  0  0  0  0  0  0  0  0
  183.1750  179.0500  142.7360 C   0  0  0  0  0  0  0  0  0  0  0  0
  180.5400  178.7650  138.6580 C   0  0  0  0  0  0  0  0  0  0  0  0
  181.7150  178.6700  142.8370 C   0  0  0  0  0  2  0  0  0  0  0  0
  179.7130  179.5760  139.6040 C   0  0  0  0  0  2  0  0  0  0  0  0
  180.7580  179.2240  137.4180 C   0  0  0  0  0  3  0  0  0  0  0  0
  183.1910  178.5130  140.3030 C   0  0  0  0  0  2  0  0  0  0  0  0
  180.4790  179.8130  140.9100 C   0  0  1  0  0  3  0  0  0  0  0  0
  181.5520  178.4480  136.4090 C   0  0  0  0  0  2  0  0  0  0  0  0
  185.6730  178.9040  141.5270 S   0  0  0  0  0  1  0  0  0  0  0  0
  179.5940  180.5730  141.8950 C   0  0  0  0  0  2  0  0  0  0  0  0
  178.9350  181.6300  141.2650 O   0  0  0  0  0  1  0  0  0  0  0  0
  180.1280  175.5900  137.3500 O   0  0  0  0  0  0  0  0  0  0  0  0
  181.3270  175.5370  137.5820 C   0  0  0  0  0  0  0  0  0  0  0  0
  183.6900  171.8290  136.9280 S   0  0  0  0  0  0  0  0  0  0  0  0
  183.8970  173.2400  135.7720 C   0  0  0  0  0  2  0  0  0  0  0  0
  181.8650  171.7640  136.8280 C   0  0  1  0  0  3  0  0  0  0  0  0
  182.1010  174.2870  137.2820 C   0  0  1  0  0  3  0  0  0  0  0  0
  181.1970  173.0490  137.3410 C   0  0  0  0  0  2  0  0  0  0  0  0
  182.9150  174.4000  135.9820 C   0  0  2  0  0  3  0  0  0  0  0  0
  182.0480  174.5760  134.7420 C   0  0  0  0  0  1  0  0  0  0  0  0
  181.4020  171.4100  135.4160 C   0  0  0  0  0  2  0  0  0  0  0  0
  179.5890  170.0390  136.1330 F   0  0  0  0  0  0  0  0  0  0  0  0
  180.7520  170.0360  135.3840 C   0  0  0  0  0  2  0  0  0  0  0  0
  183.7490  179.5440  143.9190 O   0  0  0  0  0  0  0  0  0  0  0  0
  183.7180  178.8780  145.1760 C   0  0  0  0  0  2  0  0  0  0  0  0
  185.1170  178.7910  145.7580 C   0  0  0  0  0  1  0  0  0  0  0  0
  1 19  1  6  0  0  0
  1  4  1  0  0  0  0
  2 12  1  6  0  0  0
  2  5  1  0  0  0  0
  3  1  1  0  0  0  0
  4  8  1  6  0  0  0
  4  2  1  0  0  0  0
  5  9  1  1  0  0  0
  6  7  2  0  0  0  0
  7  9  1  0  0  0  0
  7 30  1  0  0  0  0
  8 10  1  0  0  0  0
 10 13  1  0  0  0  0
 11  8  2  0  0  0  0
 12  6  1  0  0  0  0
 13  5  1  0  0  0  0
 13 16  1  1  0  0  0
 14  3  1  0  0  0  0
 14 11  1  0  0  0  0
 15  6  1  0  0  0  0
 17 16  1  0  0  0  0
 18 19  2  0  0  0  0
 21 25  1  0  0  0  0
 21 20  1  0  0  0  0
 22 27  1  6  0  0  0
 22 20  1  0  0  0  0
 22 24  1  0  0  0  0
 23 24  1  0  0  0  0
 23 19  1  6  0  0  0
 25 26  1  6  0  0  0
 25 23  1  0  0  0  0
 29 27  1  0  0  0  0
 29 28  1  0  0  0  0
 30 31  1  0  0  0  0
 31 32  1  0  0  0  0
M  END
>  <MODEL>
3

>  <REMARK>
 VINA RESULT:      -5.1      5.470      6.818
  Name = 
  7 active torsions:
  status: ('A' for Active; 'I' for Inactive)
    1  A    between atoms: C_1  and  C_27
    2  A    between atoms: C_7  and  C_15
    3  A    between atoms: C_7  and  C_26
    4  A    between atoms: C_9  and  O_11
    5  A    between atoms: O_11  and  C_12
    6  A    between atoms: C_13  and  C_29
    7  A    between atoms: C_16  and  C_27
                            x       y       z     vdW  Elec       q    Type
                         _______ _______ _______ _____ _____    ______ ____

>  <TORSDO>
F 7

$$$$
=
 OpenBabel11052414283D

 32 35  0  0  1  0  0  0  0  0999 V2000
  184.0280  176.3410  136.2290 C   0  0  1  0  0  3  0  0  0  0  0  0
  183.0940  178.3810  137.4460 C   0  0  2  0  0  3  0  0  0  0  0  0
  183.0010  175.2800  135.8210 C   0  0  0  0  0  2  0  0  0  0  0  0
  183.7260  176.9870  137.5960 C   0  0  1  0  0  3  0  0  0  0  0  0
  182.8110  178.9980  138.8250 C   0  0  1  0  0  3  0  0  0  0  0  0
  181.1160  179.6650  136.5540 C   0  0  0  0  0  0  0  0  0  0  0  0
  181.2060  180.5680  137.5590 C   0  0  0  0  0  0  0  0  0  0  0  0
  182.9190  176.1250  138.5520 C   0  0  0  0  0  0  0  0  0  0  0  0
  182.2280  180.4100  138.6630 C   0  0  0  0  0  2  0  0  0  0  0  0
  182.5500  176.7090  139.8780 C   0  0  0  0  0  2  0  0  0  0  0  0
  182.4760  174.9030  138.2260 C   0  0  0  0  0  3  0  0  0  0  0  0
  181.7970  178.3310  136.6350 C   0  0  0  0  0  2  0  0  0  0  0  0
  181.9100  178.0890  139.6910 C   0  0  1  0  0  3  0  0  0  0  0  0
  182.8340  174.2450  136.9270 C   0  0  0  0  0  2  0  0  0  0  0  0
  180.2130  179.9830  135.0310 S   0  0  0  0  0  1  0  0  0  0  0  0
  181.6110  178.7070  141.0550 C   0  0  0  0  0  2  0  0  0  0  0  0
  182.7480  178.7110  141.8640 O   0  0  0  0  0  1  0  0  0  0  0  0
  185.7000  174.8380  135.4880 O   0  0  0  0  0  0  0  0  0  0  0  0
  185.4380  175.8310  136.1500 C   0  0  0  0  0  0  0  0  0  0  0  0
  188.5340  177.9310  138.5520 S   0  0  0  0  0  0  0  0  0  0  0  0
  187.8390  178.7550  137.0660 C   0  0  0  0  0  2  0  0  0  0  0  0
  188.9520  176.3560  137.7220 C   0  0  1  0  0  3  0  0  0  0  0  0
  186.5230  176.5550  136.8910 C   0  0  1  0  0  3  0  0  0  0  0  0
  187.7160  175.6310  137.1680 C   0  0  0  0  0  2  0  0  0  0  0  0
  186.9100  177.8810  136.2140 C   0  0  2  0  0  3  0  0  0  0  0  0
  187.5040  177.6960  134.8230 C   0  0  0  0  0  1  0  0  0  0  0  0
  190.0140  176.5660  136.6440 C   0  0  0  0  0  2  0  0  0  0  0  0
  191.2330  175.3600  138.2990 F   0  0  0  0  0  0  0  0  0  0  0  0
  191.3640  176.0330  137.0980 C   0  0  0  0  0  2  0  0  0  0  0  0
  180.4390  181.7430  137.6160 O   0  0  0  0  0  0  0  0  0  0  0  0
  180.9680  183.0630  137.5480 C   0  0  0  0  0  2  0  0  0  0  0  0
  180.8280  183.6110  136.1400 C   0  0  0  0  0  1  0  0  0  0  0  0
  1 19  1  1  0  0  0
  1  4  1  0  0  0  0
  2 12  1  6  0  0  0
  2  4  1  0  0  0  0
  2  5  1  0  0  0  0
  3  1  1  0  0  0  0
  3 14  1  0  0  0  0
  4  8  1  6  0  0  0
  5  9  1  6  0  0  0
  5 13  1  0  0  0  0
  6 12  1  0  0  0  0
  6  7  2  0  0  0  0
  7 30  1  0  0  0  0
  7  9  1  0  0  0  0
  8 10  1  0  0  0  0
 11  8  2  0  0  0  0
 13 10  1  0  0  0  0
 13 16  1  1  0  0  0
 14 11  1  0  0  0  0
 15  6  1  0  0  0  0
 16 17  1  0  0  0  0
 18 19  2  0  0  0  0
 21 20  1  0  0  0  0
 22 27  1  6  0  0  0
 22 20  1  0  0  0  0
 23 19  1  6  0  0  0
 23 24  1  0  0  0  0
 24 22  1  0  0  0  0
 25 26  1  6  0  0  0
 25 23  1  0  0  0  0
 25 21  1  0  0  0  0
 27 29  1  0  0  0  0
 29 28  1  0  0  0  0
 31 30  1  0  0  0  0
 32 31  1  0  0  0  0
M  END
>  <MODEL>
4

>  <REMARK>
 VINA RESULT:      -5.1      4.700      7.881
  Name = 
  7 active torsions:
  status: ('A' for Active; 'I' for Inactive)
    1  A    between atoms: C_1  and  C_27
    2  A    between atoms: C_7  and  C_15
    3  A    between atoms: C_7  and  C_26
    4  A    between atoms: C_9  and  O_11
    5  A    between atoms: O_11  and  C_12
    6  A    between atoms: C_13  and  C_29
    7  A    between atoms: C_16  and  C_27
                            x       y       z     vdW  Elec       q    Type
                         _______ _______ _______ _____ _____    ______ ____

>  <TORSDO>
F 7

$$$$
=
 OpenBabel11052414283D

 32 35  0  0  1  0  0  0  0  0999 V2000
  189.7720  176.9260  139.2900 C   0  0  1  0  0  3  0  0  0  0  0  0
  188.8420  177.0440  141.6650 C   0  0  2  0  0  3  0  0  0  0  0  0
  190.2130  178.2610  138.6810 C   0  0  0  0  0  2  0  0  0  0  0  0
  188.5060  177.0450  140.1640 C   0  0  1  0  0  3  0  0  0  0  0  0
  187.5610  177.1570  142.5060 C   0  0  1  0  0  3  0  0  0  0  0  0
  190.0640  178.2550  143.5070 C   0  0  0  0  0  0  0  0  0  0  0  0
  189.1310  177.8840  144.4160 C   0  0  0  0  0  0  0  0  0  0  0  0
  187.5880  178.2030  139.8140 C   0  0  0  0  0  0  0  0  0  0  0  0
  187.9040  177.1020  144.0020 C   0  0  0  0  0  2  0  0  0  0  0  0
  186.3670  178.4060  140.6530 C   0  0  0  0  0  2  0  0  0  0  0  0
  187.8650  179.0770  138.8370 C   0  0  0  0  0  3  0  0  0  0  0  0
  189.7960  178.1820  142.0340 C   0  0  0  0  0  2  0  0  0  0  0  0
  186.7390  178.4130  142.1400 C   0  0  1  0  0  3  0  0  0  0  0  0
  189.0560  178.9190  137.9390 C   0  0  0  0  0  2  0  0  0  0  0  0
  191.7050  178.8310  143.9690 S   0  0  0  0  0  1  0  0  0  0  0  0
  185.4740  178.5410  142.9860 C   0  0  0  0  0  2  0  0  0  0  0  0
  184.4000  177.8810  142.3860 O   0  0  0  0  0  1  0  0  0  0  0  0
  188.5350  175.4570  137.9050 O   0  0  0  0  0  0  0  0  0  0  0  0
  189.6400  175.8430  138.2600 C   0  0  0  0  0  0  0  0  0  0  0  0
  193.3820  173.9980  136.7250 S   0  0  0  0  0  0  0  0  0  0  0  0
  192.9060  175.6740  136.1470 C   0  0  0  0  0  2  0  0  0  0  0  0
  191.7730  173.2060  136.3660 C   0  0  1  0  0  3  0  0  0  0  0  0
  190.8780  175.2400  137.6660 C   0  0  1  0  0  3  0  0  0  0  0  0
  190.6200  173.8060  137.1850 C   0  0  0  0  0  2  0  0  0  0  0  0
  191.5180  176.1460  136.6000 C   0  0  2  0  0  3  0  0  0  0  0  0
  190.6260  176.3710  135.3860 C   0  0  0  0  0  1  0  0  0  0  0  0
  191.4720  173.2230  134.8680 C   0  0  0  0  0  2  0  0  0  0  0  0
  189.8390  171.4880  134.7850 F   0  0  0  0  0  0  0  0  0  0  0  0
  190.0240  172.8470  134.6000 C   0  0  0  0  0  2  0  0  0  0  0  0
  189.2600  178.1100  145.7960 O   0  0  0  0  0  0  0  0  0  0  0  0
  189.0670  177.1230  146.8030 C   0  0  0  0  0  2  0  0  0  0  0  0
  188.1240  177.6410  147.8720 C   0  0  0  0  0  1  0  0  0  0  0  0
  1 19  1  6  0  0  0
  1  4  1  0  0  0  0
  2 12  1  6  0  0  0
  2  5  1  0  0  0  0
  3  1  1  0  0  0  0
  4  8  1  6  0  0  0
  4  2  1  0  0  0  0
  5  9  1  1  0  0  0
  6 15  1  0  0  0  0
  6  7  2  0  0  0  0
  7 30  1  0  0  0  0
  8 10  1  0  0  0  0
  9  7  1  0  0  0  0
 10 13  1  0  0  0  0
 11  8  2  0  0  0  0
 12  6  1  0  0  0  0
 13  5  1  0  0  0  0
 13 16  1  1  0  0  0
 14  3  1  0  0  0  0
 14 11  1  0  0  0  0
 17 16  1  0  0  0  0
 18 19  2  0  0  0  0
 21 25  1  0  0  0  0
 21 20  1  0  0  0  0
 22 27  1  6  0  0  0
 22 20  1  0  0  0  0
 22 24  1  0  0  0  0
 23 19  1  6  0  0  0
 24 23  1  0  0  0  0
 25 26  1  6  0  0  0
 25 23  1  0  0  0  0
 29 28  1  0  0  0  0
 29 27  1  0  0  0  0
 30 31  1  0  0  0  0
 31 32  1  0  0  0  0
M  END
>  <MODEL>
5

>  <REMARK>
 VINA RESULT:      -4.9      3.735      4.683
  Name = 
  7 active torsions:
  status: ('A' for Active; 'I' for Inactive)
    1  A    between atoms: C_1  and  C_27
    2  A    between atoms: C_7  and  C_15
    3  A    between atoms: C_7  and  C_26
    4  A    between atoms: C_9  and  O_11
    5  A    between atoms: O_11  and  C_12
    6  A    between atoms: C_13  and  C_29
    7  A    between atoms: C_16  and  C_27
                            x       y       z     vdW  Elec       q    Type
                         _______ _______ _______ _____ _____    ______ ____

>  <TORSDO>
F 7

$$$$
=
 OpenBabel11052414283D

 32 35  0  0  1  0  0  0  0  0999 V2000
  188.4750  177.2810  138.0380 C   0  0  1  0  0  3  0  0  0  0  0  0
  186.7840  175.4220  137.5920 C   0  0  2  0  0  3  0  0  0  0  0  0
  188.3910  178.4960  137.1090 C   0  0  0  0  0  2  0  0  0  0  0  0
  188.2050  175.9440  137.3190 C   0  0  1  0  0  3  0  0  0  0  0  0
  186.5490  174.0880  136.8660 C   0  0  1  0  0  3  0  0  0  0  0  0
  184.3230  175.9040  137.3340 C   0  0  0  0  0  0  0  0  0  0  0  0
  184.0440  174.5850  137.2070 C   0  0  0  0  0  0  0  0  0  0  0  0
  188.5070  175.9410  135.8300 C   0  0  0  0  0  0  0  0  0  0  0  0
  185.1470  173.5500  137.1870 C   0  0  0  0  0  2  0  0  0  0  0  0
  188.2220  174.6910  135.0610 C   0  0  0  0  0  2  0  0  0  0  0  0
  188.9510  177.0250  135.1790 C   0  0  0  0  0  3  0  0  0  0  0  0
  185.7170  176.4300  137.1620 C   0  0  0  0  0  2  0  0  0  0  0  0
  186.7960  174.2060  135.3450 C   0  0  1  0  0  3  0  0  0  0  0  0
  189.2860  178.3020  135.8910 C   0  0  0  0  0  2  0  0  0  0  0  0
  183.0760  177.1320  137.7500 S   0  0  0  0  0  1  0  0  0  0  0  0
  186.5460  172.8880  134.6160 C   0  0  0  0  0  2  0  0  0  0  0  0
  187.4710  171.9170  135.0040 O   0  0  0  0  0  1  0  0  0  0  0  0
  190.8220  177.4960  138.2700 O   0  0  0  0  0  0  0  0  0  0  0  0
  189.7570  177.2470  138.8180 C   0  0  0  0  0  0  0  0  0  0  0  0
  189.7060  176.0100  143.0880 S   0  0  0  0  0  0  0  0  0  0  0  0
  188.2840  176.9510  142.4090 C   0  0  0  0  0  2  0  0  0  0  0  0
  190.9980  177.1620  142.4990 C   0  0  1  0  0  3  0  0  0  0  0  0
  189.7200  176.9060  140.2790 C   0  0  1  0  0  3  0  0  0  0  0  0
  191.0410  177.2720  140.9670 C   0  0  0  0  0  2  0  0  0  0  0  0
  188.4760  177.4770  140.9810 C   0  0  2  0  0  3  0  0  0  0  0  0
  188.4280  178.9990  140.9790 C   0  0  0  0  0  1  0  0  0  0  0  0
  190.8600  178.5310  143.1610 C   0  0  0  0  0  2  0  0  0  0  0  0
  191.9280  177.7470  145.1420 F   0  0  0  0  0  0  0  0  0  0  0  0
  190.8020  178.4010  144.6750 C   0  0  0  0  0  2  0  0  0  0  0  0
  182.7380  174.0690  137.1700 O   0  0  0  0  0  0  0  0  0  0  0  0
  182.3720  172.8250  136.5830 C   0  0  0  0  0  2  0  0  0  0  0  0
  180.9850  172.4160  137.0430 C   0  0  0  0  0  1  0  0  0  0  0  0
  1 19  1  6  0  0  0
  2 12  1  6  0  0  0
  3  1  1  0  0  0  0
  4  8  1  6  0  0  0
  4  2  1  0  0  0  0
  4  1  1  0  0  0  0
  5  9  1  6  0  0  0
  5  2  1  0  0  0  0
  6 15  1  0  0  0  0
  7  6  2  0  0  0  0
  9  7  1  0  0  0  0
 10 13  1  0  0  0  0
 10  8  1  0  0  0  0
 11  8  2  0  0  0  0
 11 14  1  0  0  0  0
 12  6  1  0  0  0  0
 13 16  1  6  0  0  0
 13  5  1  0  0  0  0
 14  3  1  0  0  0  0
 16 17  1  0  0  0  0
 18 19  2  0  0  0  0
 21 20  1  0  0  0  0
 22 20  1  0  0  0  0
 22 27  1  1  0  0  0
 23 19  1  6  0  0  0
 23 24  1  0  0  0  0
 23 25  1  0  0  0  0
 24 22  1  0  0  0  0
 25 26  1  1  0  0  0
 25 21  1  0  0  0  0
 27 29  1  0  0  0  0
 29 28  1  0  0  0  0
 30  7  1  0  0  0  0
 31 32  1  0  0  0  0
 31 30  1  0  0  0  0
M  END
>  <MODEL>
6

>  <REMARK>
 VINA RESULT:      -4.8      3.311      8.097
  Name = 
  7 active torsions:
  status: ('A' for Active; 'I' for Inactive)
    1  A    between atoms: C_1  and  C_27
    2  A    between atoms: C_7  and  C_15
    3  A    between atoms: C_7  and  C_26
    4  A    between atoms: C_9  and  O_11
    5  A    between atoms: O_11  and  C_12
    6  A    between atoms: C_13  and  C_29
    7  A    between atoms: C_16  and  C_27
                            x       y       z     vdW  Elec       q    Type
                         _______ _______ _______ _____ _____    ______ ____

>  <TORSDO>
F 7

$$$$
=
 OpenBabel11052414283D

 32 35  0  0  1  0  0  0  0  0999 V2000
  182.7270  177.0260  136.9330 C   0  0  1  0  0  3  0  0  0  0  0  0
  182.0400  179.3340  137.7780 C   0  0  2  0  0  3  0  0  0  0  0  0
  181.6020  176.1710  136.3400 C   0  0  0  0  0  2  0  0  0  0  0  0
  182.2800  177.8610  138.1490 C   0  0  1  0  0  3  0  0  0  0  0  0
  181.6020  180.1390  139.0120 C   0  0  1  0  0  3  0  0  0  0  0  0
  180.6710  180.9090  136.3630 C   0  0  0  0  0  0  0  0  0  0  0  0
  180.7380  181.8730  137.3130 C   0  0  0  0  0  0  0  0  0  0  0  0
  181.0990  177.2960  138.9200 C   0  0  0  0  0  0  0  0  0  0  0  0
  181.4160  181.6180  138.6400 C   0  0  0  0  0  2  0  0  0  0  0  0
  180.5830  178.0820  140.0840 C   0  0  0  0  0  2  0  0  0  0  0  0
  180.4710  176.1700  138.5580 C   0  0  0  0  0  3  0  0  0  0  0  0
  180.9870  179.4770  136.6770 C   0  0  0  0  0  2  0  0  0  0  0  0
  180.3420  179.5390  139.6750 C   0  0  1  0  0  3  0  0  0  0  0  0
  180.9510  175.3180  137.4220 C   0  0  0  0  0  2  0  0  0  0  0  0
  180.2370  181.2510  134.6510 S   0  0  0  0  0  1  0  0  0  0  0  0
  179.8920  180.3460  140.8920 C   0  0  0  0  0  2  0  0  0  0  0  0
  180.6720  180.0460  142.0090 O   0  0  0  0  0  1  0  0  0  0  0  0
  183.8890  175.2120  137.9150 O   0  0  0  0  0  0  0  0  0  0  0  0
  183.9590  176.2220  137.2290 C   0  0  0  0  0  0  0  0  0  0  0  0
  187.7530  177.7260  135.4660 S   0  0  0  0  0  0  0  0  0  0  0  0
  187.3380  175.9440  135.3160 C   0  0  0  0  0  2  0  0  0  0  0  0
  187.4950  177.8320  137.2730 C   0  0  1  0  0  3  0  0  0  0  0  0
  185.2790  176.6670  136.6710 C   0  0  1  0  0  3  0  0  0  0  0  0
  186.0460  177.5270  137.6840 C   0  0  0  0  0  2  0  0  0  0  0  0
  186.1000  175.4970  136.1030 C   0  0  2  0  0  3  0  0  0  0  0  0
  186.4980  174.4730  137.1570 C   0  0  0  0  0  1  0  0  0  0  0  0
  188.4930  176.9540  138.0260 C   0  0  0  0  0  2  0  0  0  0  0  0
  189.2420  179.0990  138.7470 F   0  0  0  0  0  0  0  0  0  0  0  0
  189.6400  177.7850  138.5780 C   0  0  0  0  0  2  0  0  0  0  0  0
  180.2720  183.1840  137.1200 O   0  0  0  0  0  0  0  0  0  0  0  0
  181.1050  184.3210  136.9230 C   0  0  0  0  0  2  0  0  0  0  0  0
  180.8800  184.9020  135.5400 C   0  0  0  0  0  1  0  0  0  0  0  0
  1 19  1  1  0  0  0
  1  4  1  0  0  0  0
  2 12  1  6  0  0  0
  2  4  1  0  0  0  0
  2  5  1  0  0  0  0
  3  1  1  0  0  0  0
  3 14  1  0  0  0  0
  4  8  1  6  0  0  0
  5  9  1  6  0  0  0
  5 13  1  0  0  0  0
  6 12  1  0  0  0  0
  6  7  2  0  0  0  0
  7  9  1  0  0  0  0
  8 10  1  0  0  0  0
 11  8  2  0  0  0  0
 13 10  1  0  0  0  0
 13 16  1  1  0  0  0
 14 11  1  0  0  0  0
 15  6  1  0  0  0  0
 16 17  1  0  0  0  0
 19 18  2  0  0  0  0
 20 22  1  0  0  0  0
 21 20  1  0  0  0  0
 21 25  1  0  0  0  0
 22 24  1  0  0  0  0
 22 27  1  1  0  0  0
 23 19  1  1  0  0  0
 23 24  1  0  0  0  0
 25 23  1  0  0  0  0
 25 26  1  1  0  0  0
 27 29  1  0  0  0  0
 29 28  1  0  0  0  0
 30  7  1  0  0  0  0
 31 30  1  0  0  0  0
 32 31  1  0  0  0  0
M  END
>  <MODEL>
7

>  <REMARK>
 VINA RESULT:      -4.7      5.741      8.587
  Name = 
  7 active torsions:
  status: ('A' for Active; 'I' for Inactive)
    1  A    between atoms: C_1  and  C_27
    2  A    between atoms: C_7  and  C_15
    3  A    between atoms: C_7  and  C_26
    4  A    between atoms: C_9  and  O_11
    5  A    between atoms: O_11  and  C_12
    6  A    between atoms: C_13  and  C_29
    7  A    between atoms: C_16  and  C_27
                            x       y       z     vdW  Elec       q    Type
                         _______ _______ _______ _____ _____    ______ ____

>  <TORSDO>
F 7

$$$$
=
 OpenBabel11052414283D

 32 35  0  0  1  0  0  0  0  0999 V2000
  184.6290  176.9790  136.7870 C   0  0  1  0  0  3  0  0  0  0  0  0
  183.0130  177.3970  138.7180 C   0  0  2  0  0  3  0  0  0  0  0  0
  184.0510  177.1700  135.3810 C   0  0  0  0  0  2  0  0  0  0  0  0
  183.6280  176.3480  137.7760 C   0  0  1  0  0  3  0  0  0  0  0  0
  182.0260  176.7360  139.6930 C   0  0  1  0  0  3  0  0  0  0  0  0
  181.6130  179.4900  138.8430 C   0  0  0  0  0  0  0  0  0  0  0  0
  181.1030  179.1170  140.0420 C   0  0  0  0  0  0  0  0  0  0  0  0
  182.5480  175.4900  137.1400 C   0  0  0  0  0  0  0  0  0  0  0  0
  181.4580  177.7840  140.6630 C   0  0  0  0  0  2  0  0  0  0  0  0
  181.5150  174.8870  138.0380 C   0  0  0  0  0  2  0  0  0  0  0  0
  182.4510  175.3120  135.8160 C   0  0  0  0  0  3  0  0  0  0  0  0
  182.2980  178.5060  137.9430 C   0  0  0  0  0  2  0  0  0  0  0  0
  180.9140  175.9610  138.9520 C   0  0  1  0  0  3  0  0  0  0  0  0
  183.4670  175.8620  134.8600 C   0  0  0  0  0  2  0  0  0  0  0  0
  181.5500  181.1830  138.2380 S   0  0  0  0  0  1  0  0  0  0  0  0
  179.9190  175.3170  139.9170 C   0  0  0  0  0  2  0  0  0  0  0  0
  179.2640  174.2410  139.3170 O   0  0  0  0  0  1  0  0  0  0  0  0
  186.0120  175.1220  136.2920 O   0  0  0  0  0  0  0  0  0  0  0  0
  185.9380  176.2440  136.7710 C   0  0  0  0  0  0  0  0  0  0  0  0
  189.4450  178.1790  138.6990 S   0  0  0  0  0  0  0  0  0  0  0  0
  188.7020  178.9500  137.2080 C   0  0  0  0  0  2  0  0  0  0  0  0
  189.6200  176.5050  137.9840 C   0  0  1  0  0  3  0  0  0  0  0  0
  187.1570  176.9020  137.3480 C   0  0  1  0  0  3  0  0  0  0  0  0
  188.2690  175.8780  137.6060 C   0  0  0  0  0  2  0  0  0  0  0  0
  187.6120  178.1170  136.5220 C   0  0  2  0  0  3  0  0  0  0  0  0
  188.0500  177.7550  135.1090 C   0  0  0  0  0  1  0  0  0  0  0  0
  190.5910  176.5080  136.8050 C   0  0  0  0  0  2  0  0  0  0  0  0
  192.1030  175.4910  138.3420 F   0  0  0  0  0  0  0  0  0  0  0  0
  192.0290  176.3790  137.2840 C   0  0  0  0  0  2  0  0  0  0  0  0
  180.2910  179.9480  140.8310 O   0  0  0  0  0  0  0  0  0  0  0  0
  179.4570  179.4980  141.8930 C   0  0  0  0  0  2  0  0  0  0  0  0
  180.0130  179.9570  143.2270 C   0  0  0  0  0  1  0  0  0  0  0  0
  1 19  1  6  0  0  0
  1  4  1  0  0  0  0
  2 12  1  6  0  0  0
  2  5  1  0  0  0  0
  3  1  1  0  0  0  0
  4  8  1  6  0  0  0
  4  2  1  0  0  0  0
  5  9  1  6  0  0  0
  6  7  2  0  0  0  0
  7  9  1  0  0  0  0
  7 30  1  0  0  0  0
  8 10  1  0  0  0  0
 10 13  1  0  0  0  0
 11  8  2  0  0  0  0
 12  6  1  0  0  0  0
 13  5  1  0  0  0  0
 13 16  1  1  0  0  0
 14  3  1  0  0  0  0
 14 11  1  0  0  0  0
 15  6  1  0  0  0  0
 17 16  1  0  0  0  0
 18 19  2  0  0  0  0
 21 20  1  0  0  0  0
 22 27  1  6  0  0  0
 22 20  1  0  0  0  0
 23 19  1  6  0  0  0
 23 24  1  0  0  0  0
 24 22  1  0  0  0  0
 25 26  1  6  0  0  0
 25 21  1  0  0  0  0
 25 23  1  0  0  0  0
 27 29  1  0  0  0  0
 29 28  1  0  0  0  0
 30 31  1  0  0  0  0
 31 32  1  0  0  0  0
M  END
>  <MODEL>
8

>  <REMARK>
 VINA RESULT:      -4.6      4.783      7.791
  Name = 
  7 active torsions:
  status: ('A' for Active; 'I' for Inactive)
    1  A    between atoms: C_1  and  C_27
    2  A    between atoms: C_7  and  C_15
    3  A    between atoms: C_7  and  C_26
    4  A    between atoms: C_9  and  O_11
    5  A    between atoms: O_11  and  C_12
    6  A    between atoms: C_13  and  C_29
    7  A    between atoms: C_16  and  C_27
                            x       y       z     vdW  Elec       q    Type
                         _______ _______ _______ _____ _____    ______ ____

>  <TORSDO>
F 7

$$$$
=
 OpenBabel11052414283D

 32 35  0  0  1  0  0  0  0  0999 V2000
  184.5700  175.2740  136.7110 C   0  0  1  0  0  3  0  0  0  0  0  0
  187.0210  175.5550  137.3640 C   0  0  2  0  0  3  0  0  0  0  0  0
  184.2910  175.1480  135.2100 C   0  0  0  0  0  2  0  0  0  0  0  0
  185.7000  176.2710  137.0380 C   0  0  1  0  0  3  0  0  0  0  0  0
  188.1230  176.5750  137.6910 C   0  0  1  0  0  3  0  0  0  0  0  0
  188.8140  174.0240  136.4710 C   0  0  0  0  0  0  0  0  0  0  0  0
  189.7610  174.6430  137.2170 C   0  0  0  0  0  0  0  0  0  0  0  0
  185.9150  177.3630  136.0050 C   0  0  0  0  0  0  0  0  0  0  0  0
  189.4240  175.8480  138.0660 C   0  0  0  0  0  2  0  0  0  0  0  0
  187.0270  178.3360  136.2360 C   0  0  0  0  0  2  0  0  0  0  0  0
  185.1970  177.4430  134.8770 C   0  0  0  0  0  3  0  0  0  0  0  0
  187.4810  174.6600  136.2120 C   0  0  0  0  0  2  0  0  0  0  0  0
  188.3300  177.5890  136.5440 C   0  0  1  0  0  3  0  0  0  0  0  0
  184.0490  176.5200  134.5940 C   0  0  0  0  0  2  0  0  0  0  0  0
  189.0450  172.3880  135.7590 S   0  0  0  0  0  1  0  0  0  0  0  0
  189.4370  178.5950  136.8560 C   0  0  0  0  0  2  0  0  0  0  0  0
  189.0640  179.4430  137.9000 O   0  0  0  0  0  1  0  0  0  0  0  0
  182.4000  174.7600  137.5070 O   0  0  0  0  0  0  0  0  0  0  0  0
  183.3260  175.5590  137.5010 C   0  0  0  0  0  0  0  0  0  0  0  0
  183.2640  179.3950  139.7460 S   0  0  0  0  0  0  0  0  0  0  0  0
  182.8340  177.8380  140.6180 C   0  0  0  0  0  2  0  0  0  0  0  0
  182.1160  179.1530  138.3430 C   0  0  1  0  0  3  0  0  0  0  0  0
  183.2310  176.8330  138.2870 C   0  0  1  0  0  3  0  0  0  0  0  0
  182.4480  177.9020  137.5140 C   0  0  0  0  0  2  0  0  0  0  0  0
  182.7170  176.6010  139.7180 C   0  0  2  0  0  3  0  0  0  0  0  0
  181.2950  176.0570  139.7670 C   0  0  0  0  0  1  0  0  0  0  0  0
  180.6630  179.1520  138.8130 C   0  0  0  0  0  2  0  0  0  0  0  0
  180.0690  180.1450  140.8970 F   0  0  0  0  0  0  0  0  0  0  0  0
  180.3340  180.4290  139.5690 C   0  0  0  0  0  2  0  0  0  0  0  0
  191.0820  174.1800  137.3310 O   0  0  0  0  0  0  0  0  0  0  0  0
  192.2070  175.0000  137.6290 C   0  0  0  0  0  2  0  0  0  0  0  0
  193.4810  174.1780  137.5830 C   0  0  0  0  0  1  0  0  0  0  0  0
  1  4  1  0  0  0  0
  1 19  1  1  0  0  0
  2 12  1  6  0  0  0
  2  5  1  0  0  0  0
  3  1  1  0  0  0  0
  4  8  1  6  0  0  0
  4  2  1  0  0  0  0
  5  9  1  6  0  0  0
  6  7  2  0  0  0  0
  7 30  1  0  0  0  0
  7  9  1  0  0  0  0
  8 10  1  0  0  0  0
 10 13  1  0  0  0  0
 11  8  2  0  0  0  0
 12  6  1  0  0  0  0
 13 16  1  1  0  0  0
 13  5  1  0  0  0  0
 14 11  1  0  0  0  0
 14  3  1  0  0  0  0
 15  6  1  0  0  0  0
 16 17  1  0  0  0  0
 19 18  2  0  0  0  0
 20 21  1  0  0  0  0
 22 27  1  1  0  0  0
 22 20  1  0  0  0  0
 23 19  1  6  0  0  0
 23 25  1  0  0  0  0
 24 23  1  0  0  0  0
 24 22  1  0  0  0  0
 25 26  1  6  0  0  0
 25 21  1  0  0  0  0
 27 29  1  0  0  0  0
 29 28  1  0  0  0  0
 30 31  1  0  0  0  0
 32 31  1  0  0  0  0
M  END
>  <MODEL>
9

>  <REMARK>
 VINA RESULT:      -4.6      4.118      5.785
  Name = 
  7 active torsions:
  status: ('A' for Active; 'I' for Inactive)
    1  A    between atoms: C_1  and  C_27
    2  A    between atoms: C_7  and  C_15
    3  A    between atoms: C_7  and  C_26
    4  A    between atoms: C_9  and  O_11
    5  A    between atoms: O_11  and  C_12
    6  A    between atoms: C_13  and  C_29
    7  A    between atoms: C_16  and  C_27
                            x       y       z     vdW  Elec       q    Type
                         _______ _______ _______ _____ _____    ______ ____

>  <TORSDO>
F 7

$$$$
