=
 OpenBabel11052413253D

 28 31  0  0  1  0  0  0  0  0999 V2000
  187.8410  177.5580  145.2960 C   0  0  0  0  0  0  0  0  0  0  0  0
  191.4930  176.5930  147.3570 C   0  0  0  0  0  1  0  0  0  0  0  0
  190.2140  177.0370  142.3350 C   0  0  2  0  0  3  0  0  0  0  0  0
  190.2450  177.1000  145.2130 C   0  0  0  0  0  0  0  0  0  0  0  0
  189.0020  177.6260  143.0510 C   0  0  0  0  0  2  0  0  0  0  0  0
  189.0660  177.0880  147.3360 C   0  0  0  0  0  3  0  0  0  0  0  0
  191.5150  176.8410  144.4370 C   0  0  0  0  0  2  0  0  0  0  0  0
  190.2470  176.9350  146.6120 C   0  0  0  0  0  0  0  0  0  0  0  0
  191.4940  177.4580  143.0450 C   0  0  0  0  0  2  0  0  0  0  0  0
  187.8750  177.3980  146.6850 C   0  0  0  0  0  3  0  0  0  0  0  0
  189.0280  177.3990  144.5450 C   0  0  0  0  0  0  0  0  0  0  0  0
  189.1440  177.9900  140.3440 C   0  0  0  0  0  3  0  0  0  0  0  0
  191.5520  176.8250  138.8460 C   0  0  0  0  0  3  0  0  0  0  0  0
  189.2810  177.3720  137.9670 C   0  0  0  0  0  0  0  0  0  0  0  0
  190.2320  177.4250  140.8860 C   0  0  0  0  0  0  0  0  0  0  0  0
  192.6560  177.2080  140.8280 F   0  0  0  0  0  0  0  0  0  0  0  0
  190.4230  176.6880  137.9050 C   0  0  0  0  0  3  0  0  0  0  0  0
  191.4900  177.1940  140.1340 C   0  0  0  0  0  0  0  0  0  0  0  0
  188.2260  177.1070  136.9550 C   0  0  0  0  0  1  0  0  0  0  0  0
  189.0790  178.4850  138.9390 C   0  0  0  0  0  2  0  0  0  0  0  0
  186.5560  177.9150  144.6580 C   0  0  0  0  0  0  0  0  0  0  0  0
  186.4170  177.7370  143.2740 C   0  0  0  0  0  3  0  0  0  0  0  0
  184.2830  178.7830  144.7470 C   0  0  0  0  0  0  0  0  0  0  0  0
  185.2250  178.0760  142.6320 C   0  0  0  0  0  3  0  0  0  0  0  0
  185.5880  178.6490  147.1490 Cl  0  0  0  0  0  0  0  0  0  0  0  0
  185.4790  178.4450  145.4020 C   0  0  0  0  0  0  0  0  0  0  0  0
  183.2090  179.3000  145.4600 O   0  0  0  0  0  1  0  0  0  0  0  0
  184.1610  178.5980  143.3680 C   0  0  0  0  0  3  0  0  0  0  0  0
  1 10  1  0  0  0  0
  3 15  1  6  0  0  0
  3  9  1  0  0  0  0
  3  5  1  0  0  0  0
  4  8  2  0  0  0  0
  5 11  1  0  0  0  0
  7  4  1  0  0  0  0
  8  6  1  0  0  0  0
  8  2  1  0  0  0  0
  9  7  1  0  0  0  0
 10  6  2  0  0  0  0
 11  4  1  0  0  0  0
 11  1  2  0  0  0  0
 12 15  2  0  0  0  0
 13 18  2  0  0  0  0
 14 20  1  0  0  0  0
 17 14  2  0  0  0  0
 17 13  1  0  0  0  0
 18 16  1  0  0  0  0
 18 15  1  0  0  0  0
 19 14  1  0  0  0  0
 20 12  1  0  0  0  0
 21  1  1  0  0  0  0
 21 26  1  0  0  0  0
 22 21  2  0  0  0  0
 23 26  2  0  0  0  0
 23 27  1  0  0  0  0
 24 22  1  0  0  0  0
 24 28  2  0  0  0  0
 26 25  1  0  0  0  0
 28 23  1  0  0  0  0
M  END
>  <MODEL>
1

>  <REMARK>
 VINA RESULT:     -12.3      0.000      0.000
  Name = 
  2 active torsions:
  status: ('A' for Active; 'I' for Inactive)
    1  A    between atoms: C_1  and  C_2
    2  A    between atoms: C_10  and  C_13
                            x       y       z     vdW  Elec       q    Type
                         _______ _______ _______ _____ _____    ______ ____

>  <TORSDO>
F 2

$$$$
=
 OpenBabel11052413253D

 28 31  0  0  1  0  0  0  0  0999 V2000
  187.7080  177.6750  145.2910 C   0  0  0  0  0  0  0  0  0  0  0  0
  183.5910  178.9100  145.0900 C   0  0  0  0  0  1  0  0  0  0  0  0
  187.3930  178.5070  141.5650 C   0  0  2  0  0  3  0  0  0  0  0  0
  185.7790  178.3570  143.9440 C   0  0  0  0  0  0  0  0  0  0  0  0
  187.9730  177.7850  142.7790 C   0  0  0  0  0  2  0  0  0  0  0  0
  185.5930  178.1920  146.3600 C   0  0  0  0  0  3  0  0  0  0  0  0
  185.1650  178.7570  142.6230 C   0  0  0  0  0  2  0  0  0  0  0  0
  185.0180  178.4770  145.1230 C   0  0  0  0  0  0  0  0  0  0  0  0
  185.9120  178.1840  141.4260 C   0  0  0  0  0  2  0  0  0  0  0  0
  186.9240  177.7940  146.4440 C   0  0  0  0  0  3  0  0  0  0  0  0
  187.1420  177.9670  144.0280 C   0  0  0  0  0  0  0  0  0  0  0  0
  187.5430  178.2690  139.1280 C   0  0  0  0  0  3  0  0  0  0  0  0
  190.1960  176.8510  139.7190 C   0  0  0  0  0  3  0  0  0  0  0  0
  188.7190  176.6290  137.7200 C   0  0  0  0  0  0  0  0  0  0  0  0
  188.1530  178.1670  140.3170 C   0  0  0  0  0  0  0  0  0  0  0  0
  190.2560  178.2560  141.5390 F   0  0  0  0  0  0  0  0  0  0  0  0
  189.6480  176.1460  138.5430 C   0  0  0  0  0  3  0  0  0  0  0  0
  189.5750  177.7710  140.4710 C   0  0  0  0  0  0  0  0  0  0  0  0
  188.2520  175.7880  136.5870 C   0  0  0  0  0  1  0  0  0  0  0  0
  188.2250  178.0330  137.8230 C   0  0  0  0  0  2  0  0  0  0  0  0
  189.1070  177.2210  145.4330 C   0  0  0  0  0  0  0  0  0  0  0  0
  189.7520  176.6630  144.3200 C   0  0  0  0  0  3  0  0  0  0  0  0
  191.1230  176.8570  146.7490 C   0  0  0  0  0  0  0  0  0  0  0  0
  191.0690  176.2080  144.4170 C   0  0  0  0  0  3  0  0  0  0  0  0
  189.0470  178.0490  148.0770 Cl  0  0  0  0  0  0  0  0  0  0  0  0
  189.7990  177.3170  146.6600 C   0  0  0  0  0  0  0  0  0  0  0  0
  191.8240  176.9490  147.9450 O   0  0  0  0  0  1  0  0  0  0  0  0
  191.7510  176.3050  145.6300 C   0  0  0  0  0  3  0  0  0  0  0  0
  1 21  1  0  0  0  0
  1 10  1  0  0  0  0
  2  8  1  0  0  0  0
  3 15  1  6  0  0  0
  3  5  1  0  0  0  0
  4 11  1  0  0  0  0
  4  8  2  0  0  0  0
  5 11  1  0  0  0  0
  6 10  2  0  0  0  0
  7  4  1  0  0  0  0
  8  6  1  0  0  0  0
  9  3  1  0  0  0  0
  9  7  1  0  0  0  0
 11  1  2  0  0  0  0
 12 15  2  0  0  0  0
 13 18  2  0  0  0  0
 14 20  1  0  0  0  0
 14 17  2  0  0  0  0
 15 18  1  0  0  0  0
 17 13  1  0  0  0  0
 18 16  1  0  0  0  0
 19 14  1  0  0  0  0
 20 12  1  0  0  0  0
 21 26  1  0  0  0  0
 22 24  1  0  0  0  0
 22 21  2  0  0  0  0
 23 27  1  0  0  0  0
 24 28  2  0  0  0  0
 26 23  2  0  0  0  0
 26 25  1  0  0  0  0
 28 23  1  0  0  0  0
M  END
>  <MODEL>
2

>  <REMARK>
 VINA RESULT:     -11.8      2.213      4.534
  Name = 
  2 active torsions:
  status: ('A' for Active; 'I' for Inactive)
    1  A    between atoms: C_1  and  C_2
    2  A    between atoms: C_10  and  C_13
                            x       y       z     vdW  Elec       q    Type
                         _______ _______ _______ _____ _____    ______ ____

>  <TORSDO>
F 2

$$$$
=
 OpenBabel11052413253D

 28 31  0  0  1  0  0  0  0  0999 V2000
  188.4750  177.6320  143.9310 C   0  0  0  0  0  0  0  0  0  0  0  0
  187.7920  177.5050  148.1770 C   0  0  0  0  0  1  0  0  0  0  0  0
  184.8650  178.9000  144.1100 C   0  0  2  0  0  3  0  0  0  0  0  0
  186.9370  177.8680  145.8220 C   0  0  0  0  0  0  0  0  0  0  0  0
  186.0630  178.2180  143.4540 C   0  0  0  0  0  2  0  0  0  0  0  0
  189.2620  177.2710  146.1970 C   0  0  0  0  0  3  0  0  0  0  0  0
  185.5930  178.2550  146.3910 C   0  0  0  0  0  2  0  0  0  0  0  0
  187.9920  177.5500  146.6990 C   0  0  0  0  0  0  0  0  0  0  0  0
  184.4660  178.1480  145.3720 C   0  0  0  0  0  2  0  0  0  0  0  0
  189.5010  177.3100  144.8260 C   0  0  0  0  0  3  0  0  0  0  0  0
  187.1830  177.9250  144.4240 C   0  0  0  0  0  0  0  0  0  0  0  0
  182.4650  179.0710  143.6290 C   0  0  0  0  0  3  0  0  0  0  0  0
  183.3080  178.5930  140.7210 C   0  0  0  0  0  3  0  0  0  0  0  0
  181.1010  178.1550  141.7990 C   0  0  0  0  0  0  0  0  0  0  0  0
  183.7170  179.0230  143.1530 C   0  0  0  0  0  0  0  0  0  0  0  0
  185.2400  179.6630  141.3650 F   0  0  0  0  0  0  0  0  0  0  0  0
  182.0040  177.9140  140.8500 C   0  0  0  0  0  3  0  0  0  0  0  0
  184.0420  179.1260  141.7080 C   0  0  0  0  0  0  0  0  0  0  0  0
  179.8380  177.3720  141.8080 C   0  0  0  0  0  1  0  0  0  0  0  0
  181.2600  179.2710  142.7760 C   0  0  0  0  0  2  0  0  0  0  0  0
  188.7760  177.6320  142.4840 C   0  0  0  0  0  0  0  0  0  0  0  0
  188.1360  178.5690  141.6600 C   0  0  0  0  0  3  0  0  0  0  0  0
  189.9140  176.7320  140.5270 C   0  0  0  0  0  0  0  0  0  0  0  0
  188.3820  178.5910  140.2860 C   0  0  0  0  0  3  0  0  0  0  0  0
  190.5340  175.5310  142.9080 Cl  0  0  0  0  0  0  0  0  0  0  0  0
  189.6730  176.7020  141.9110 C   0  0  0  0  0  0  0  0  0  0  0  0
  190.7960  175.8320  139.9450 O   0  0  0  0  0  1  0  0  0  0  0  0
  189.2690  177.6740  139.7220 C   0  0  0  0  0  3  0  0  0  0  0  0
  1 11  2  0  0  0  0
  1 10  1  0  0  0  0
  3 15  1  6  0  0  0
  3  9  1  0  0  0  0
  4  7  1  0  0  0  0
  4  8  2  0  0  0  0
  5  3  1  0  0  0  0
  5 11  1  0  0  0  0
  6  8  1  0  0  0  0
  8  2  1  0  0  0  0
  9  7  1  0  0  0  0
 10  6  2  0  0  0  0
 11  4  1  0  0  0  0
 13 17  1  0  0  0  0
 13 18  2  0  0  0  0
 14 19  1  0  0  0  0
 14 20  1  0  0  0  0
 15 12  2  0  0  0  0
 16 18  1  0  0  0  0
 17 14  2  0  0  0  0
 18 15  1  0  0  0  0
 20 12  1  0  0  0  0
 21  1  1  0  0  0  0
 22 21  2  0  0  0  0
 23 26  2  0  0  0  0
 24 22  1  0  0  0  0
 26 21  1  0  0  0  0
 26 25  1  0  0  0  0
 27 23  1  0  0  0  0
 28 24  2  0  0  0  0
 28 23  1  0  0  0  0
M  END
>  <MODEL>
3

>  <REMARK>
 VINA RESULT:     -11.8      3.265      6.368
  Name = 
  2 active torsions:
  status: ('A' for Active; 'I' for Inactive)
    1  A    between atoms: C_1  and  C_2
    2  A    between atoms: C_10  and  C_13
                            x       y       z     vdW  Elec       q    Type
                         _______ _______ _______ _____ _____    ______ ____

>  <TORSDO>
F 2

$$$$
=
 OpenBabel11052413253D

 28 31  0  0  1  0  0  0  0  0999 V2000
  186.2180  177.9710  144.4040 C   0  0  0  0  0  0  0  0  0  0  0  0
  189.2720  177.3000  147.3600 C   0  0  0  0  0  1  0  0  0  0  0  0
  189.2580  177.3480  142.1590 C   0  0  2  0  0  3  0  0  0  0  0  0
  188.5780  177.6080  144.9450 C   0  0  0  0  0  0  0  0  0  0  0  0
  187.8930  177.9340  142.5120 C   0  0  0  0  0  2  0  0  0  0  0  0
  186.9140  177.6920  146.7110 C   0  0  0  0  0  3  0  0  0  0  0  0
  190.0060  177.3490  144.5230 C   0  0  0  0  0  2  0  0  0  0  0  0
  188.2400  177.5390  146.3100 C   0  0  0  0  0  0  0  0  0  0  0  0
  190.3130  177.8690  143.1250 C   0  0  0  0  0  2  0  0  0  0  0  0
  185.9120  177.9070  145.7680 C   0  0  0  0  0  3  0  0  0  0  0  0
  187.5570  177.8100  143.9790 C   0  0  0  0  0  0  0  0  0  0  0  0
  188.7580  178.3060  139.9570 C   0  0  0  0  0  3  0  0  0  0  0  0
  191.2250  176.7380  139.0340 C   0  0  0  0  0  3  0  0  0  0  0  0
  189.2800  177.5250  137.6830 C   0  0  0  0  0  0  0  0  0  0  0  0
  189.6220  177.6370  140.7330 C   0  0  0  0  0  0  0  0  0  0  0  0
  191.9510  177.0960  141.1880 F   0  0  0  0  0  0  0  0  0  0  0  0
  190.3010  176.6920  137.8840 C   0  0  0  0  0  3  0  0  0  0  0  0
  190.9590  177.1930  140.2670 C   0  0  0  0  0  0  0  0  0  0  0  0
  188.4230  177.3380  136.4840 C   0  0  0  0  0  1  0  0  0  0  0  0
  189.0480  178.7140  138.5530 C   0  0  0  0  0  2  0  0  0  0  0  0
  185.1210  178.2290  143.4480 C   0  0  0  0  0  0  0  0  0  0  0  0
  185.3640  178.0540  142.0780 C   0  0  0  0  0  3  0  0  0  0  0  0
  182.8430  178.9130  142.9270 C   0  0  0  0  0  0  0  0  0  0  0  0
  184.3590  178.3020  141.1420 C   0  0  0  0  0  3  0  0  0  0  0  0
  183.4790  178.8610  145.5890 Cl  0  0  0  0  0  0  0  0  0  0  0  0
  183.8480  178.6650  143.8760 C   0  0  0  0  0  0  0  0  0  0  0  0
  181.5820  179.3360  143.3270 O   0  0  0  0  0  1  0  0  0  0  0  0
  183.1020  178.7310  141.5660 C   0  0  0  0  0  3  0  0  0  0  0  0
  1 10  1  0  0  0  0
  3 15  1  6  0  0  0
  3  5  1  0  0  0  0
  3  9  1  0  0  0  0
  4  8  2  0  0  0  0
  5 11  1  0  0  0  0
  7  4  1  0  0  0  0
  8  6  1  0  0  0  0
  8  2  1  0  0  0  0
  9  7  1  0  0  0  0
 10  6  2  0  0  0  0
 11  1  2  0  0  0  0
 11  4  1  0  0  0  0
 12 15  2  0  0  0  0
 13 18  2  0  0  0  0
 14 17  2  0  0  0  0
 14 20  1  0  0  0  0
 17 13  1  0  0  0  0
 18 15  1  0  0  0  0
 18 16  1  0  0  0  0
 19 14  1  0  0  0  0
 20 12  1  0  0  0  0
 21 26  1  0  0  0  0
 21  1  1  0  0  0  0
 22 21  2  0  0  0  0
 23 27  1  0  0  0  0
 23 26  2  0  0  0  0
 24 28  2  0  0  0  0
 24 22  1  0  0  0  0
 26 25  1  0  0  0  0
 28 23  1  0  0  0  0
M  END
>  <MODEL>
4

>  <REMARK>
 VINA RESULT:     -11.3      1.135      1.660
  Name = 
  2 active torsions:
  status: ('A' for Active; 'I' for Inactive)
    1  A    between atoms: C_1  and  C_2
    2  A    between atoms: C_10  and  C_13
                            x       y       z     vdW  Elec       q    Type
                         _______ _______ _______ _____ _____    ______ ____

>  <TORSDO>
F 2

$$$$
=
 OpenBabel11052413253D

 28 31  0  0  1  0  0  0  0  0999 V2000
  188.3890  177.8800  143.7120 C   0  0  0  0  0  0  0  0  0  0  0  0
  187.6210  178.0680  147.9410 C   0  0  0  0  0  1  0  0  0  0  0  0
  184.6340  178.6380  143.7220 C   0  0  2  0  0  3  0  0  0  0  0  0
  186.7850  178.0780  145.5520 C   0  0  0  0  0  0  0  0  0  0  0  0
  185.9310  178.0710  143.1500 C   0  0  0  0  0  2  0  0  0  0  0  0
  189.1590  177.8540  146.0110 C   0  0  0  0  0  3  0  0  0  0  0  0
  185.3850  178.3250  146.0640 C   0  0  0  0  0  2  0  0  0  0  0  0
  187.8510  177.9980  146.4690 C   0  0  0  0  0  0  0  0  0  0  0  0
  184.3110  177.9620  145.0480 C   0  0  0  0  0  2  0  0  0  0  0  0
  189.4260  177.7940  144.6460 C   0  0  0  0  0  3  0  0  0  0  0  0
  187.0560  178.0340  144.1580 C   0  0  0  0  0  0  0  0  0  0  0  0
  183.7580  178.0650  141.5030 C   0  0  0  0  0  3  0  0  0  0  0  0
  181.1900  179.4190  142.4840 C   0  0  0  0  0  3  0  0  0  0  0  0
  181.9790  179.0800  140.1410 C   0  0  0  0  0  0  0  0  0  0  0  0
  183.5050  178.5050  142.7430 C   0  0  0  0  0  0  0  0  0  0  0  0
  181.8810  178.6780  144.5490 F   0  0  0  0  0  0  0  0  0  0  0  0
  181.2560  179.7410  141.0450 C   0  0  0  0  0  3  0  0  0  0  0  0
  182.1410  178.8350  143.2270 C   0  0  0  0  0  0  0  0  0  0  0  0
  181.9590  179.5380  138.7280 C   0  0  0  0  0  1  0  0  0  0  0  0
  182.7040  177.8200  140.4780 C   0  0  0  0  0  2  0  0  0  0  0  0
  188.7240  177.7830  142.2750 C   0  0  0  0  0  0  0  0  0  0  0  0
  188.1150  178.6720  141.3780 C   0  0  0  0  0  3  0  0  0  0  0  0
  189.8970  176.7480  140.4100 C   0  0  0  0  0  0  0  0  0  0  0  0
  188.3930  178.6030  140.0120 C   0  0  0  0  0  3  0  0  0  0  0  0
  190.4460  175.6970  142.8770 Cl  0  0  0  0  0  0  0  0  0  0  0  0
  189.6230  176.8100  141.7860 C   0  0  0  0  0  0  0  0  0  0  0  0
  190.7820  175.8020  139.9080 O   0  0  0  0  0  1  0  0  0  0  0  0
  189.2820  177.6420  139.5300 C   0  0  0  0  0  3  0  0  0  0  0  0
  1 11  2  0  0  0  0
  1 10  1  0  0  0  0
  3 15  1  6  0  0  0
  3  9  1  0  0  0  0
  4  7  1  0  0  0  0
  4  8  2  0  0  0  0
  5  3  1  0  0  0  0
  5 11  1  0  0  0  0
  6  8  1  0  0  0  0
  8  2  1  0  0  0  0
  9  7  1  0  0  0  0
 10  6  2  0  0  0  0
 11  4  1  0  0  0  0
 12 15  2  0  0  0  0
 13 18  2  0  0  0  0
 14 20  1  0  0  0  0
 14 17  2  0  0  0  0
 15 18  1  0  0  0  0
 17 13  1  0  0  0  0
 18 16  1  0  0  0  0
 19 14  1  0  0  0  0
 20 12  1  0  0  0  0
 21  1  1  0  0  0  0
 22 21  2  0  0  0  0
 23 26  2  0  0  0  0
 24 22  1  0  0  0  0
 26 21  1  0  0  0  0
 26 25  1  0  0  0  0
 27 23  1  0  0  0  0
 28 24  2  0  0  0  0
 28 23  1  0  0  0  0
M  END
>  <MODEL>
5

>  <REMARK>
 VINA RESULT:     -11.2      3.716      6.568
  Name = 
  2 active torsions:
  status: ('A' for Active; 'I' for Inactive)
    1  A    between atoms: C_1  and  C_2
    2  A    between atoms: C_10  and  C_13
                            x       y       z     vdW  Elec       q    Type
                         _______ _______ _______ _____ _____    ______ ____

>  <TORSDO>
F 2

$$$$
=
 OpenBabel11052413253D

 28 31  0  0  1  0  0  0  0  0999 V2000
  182.1200  177.8920  140.4660 C   0  0  0  0  0  0  0  0  0  0  0  0
  179.6170  179.8570  143.3630 C   0  0  0  0  0  1  0  0  0  0  0  0
  184.5460  178.1980  143.4140 C   0  0  2  0  0  3  0  0  0  0  0  0
  181.8790  178.9680  142.6520 C   0  0  0  0  0  0  0  0  0  0  0  0
  184.1640  178.0930  141.9400 C   0  0  0  0  0  2  0  0  0  0  0  0
  179.9690  178.7690  141.1650 C   0  0  0  0  0  3  0  0  0  0  0  0
  182.4290  179.3450  144.0080 C   0  0  0  0  0  2  0  0  0  0  0  0
  180.5140  179.1860  142.3780 C   0  0  0  0  0  0  0  0  0  0  0  0
  183.9470  179.4610  144.0180 C   0  0  0  0  0  2  0  0  0  0  0  0
  180.7640  178.1300  140.2170 C   0  0  0  0  0  3  0  0  0  0  0  0
  182.6870  178.3010  141.6950 C   0  0  0  0  0  0  0  0  0  0  0  0
  186.8240  178.0440  142.5170 C   0  0  0  0  0  3  0  0  0  0  0  0
  187.6390  177.6210  145.4420 C   0  0  0  0  0  3  0  0  0  0  0  0
  188.8390  176.9200  143.3700 C   0  0  0  0  0  0  0  0  0  0  0  0
  186.0350  178.1500  143.5950 C   0  0  0  0  0  0  0  0  0  0  0  0
  185.8120  178.9480  145.8840 F   0  0  0  0  0  0  0  0  0  0  0  0
  188.5720  176.7800  144.6680 C   0  0  0  0  0  3  0  0  0  0  0  0
  186.5580  178.2660  144.9790 C   0  0  0  0  0  0  0  0  0  0  0  0
  189.7900  175.9780  142.7240 C   0  0  0  0  0  1  0  0  0  0  0  0
  188.3140  178.0670  142.5740 C   0  0  0  0  0  2  0  0  0  0  0  0
  182.9240  177.2340  139.4150 C   0  0  0  0  0  0  0  0  0  0  0  0
  182.7370  175.8650  139.1790 C   0  0  0  0  0  3  0  0  0  0  0  0
  184.6370  177.2700  137.6850 C   0  0  0  0  0  0  0  0  0  0  0  0
  183.4880  175.2040  138.2050 C   0  0  0  0  0  3  0  0  0  0  0  0
  184.1300  179.6740  138.8910 Cl  0  0  0  0  0  0  0  0  0  0  0  0
  183.8860  177.9440  138.6620 C   0  0  0  0  0  0  0  0  0  0  0  0
  185.5820  177.9500  136.9280 O   0  0  0  0  0  1  0  0  0  0  0  0
  184.4360  175.9060  137.4610 C   0  0  0  0  0  3  0  0  0  0  0  0
  1 11  1  0  0  0  0
  3 15  1  6  0  0  0
  3  9  1  0  0  0  0
  4  7  1  0  0  0  0
  5  3  1  0  0  0  0
  6  8  2  0  0  0  0
  7  9  1  0  0  0  0
  8  4  1  0  0  0  0
  8  2  1  0  0  0  0
 10  1  2  0  0  0  0
 10  6  1  0  0  0  0
 11  5  1  0  0  0  0
 11  4  2  0  0  0  0
 12 20  1  0  0  0  0
 12 15  2  0  0  0  0
 14 17  2  0  0  0  0
 15 18  1  0  0  0  0
 17 13  1  0  0  0  0
 18 13  2  0  0  0  0
 18 16  1  0  0  0  0
 19 14  1  0  0  0  0
 20 14  1  0  0  0  0
 21  1  1  0  0  0  0
 22 21  1  0  0  0  0
 23 26  1  0  0  0  0
 24 22  2  0  0  0  0
 26 25  1  0  0  0  0
 26 21  2  0  0  0  0
 27 23  1  0  0  0  0
 28 23  2  0  0  0  0
 28 24  1  0  0  0  0
M  END
>  <MODEL>
6

>  <REMARK>
 VINA RESULT:     -11.1      4.045      7.670
  Name = 
  2 active torsions:
  status: ('A' for Active; 'I' for Inactive)
    1  A    between atoms: C_1  and  C_2
    2  A    between atoms: C_10  and  C_13
                            x       y       z     vdW  Elec       q    Type
                         _______ _______ _______ _____ _____    ______ ____

>  <TORSDO>
F 2

$$$$
=
 OpenBabel11052413253D

 28 31  0  0  1  0  0  0  0  0999 V2000
  185.0240  178.5580  141.3880 C   0  0  0  0  0  0  0  0  0  0  0  0
  181.4160  179.0030  143.6900 C   0  0  0  0  0  1  0  0  0  0  0  0
  186.3420  177.8740  144.9190 C   0  0  2  0  0  3  0  0  0  0  0  0
  183.9220  178.6580  143.5720 C   0  0  0  0  0  0  0  0  0  0  0  0
  186.4460  178.3280  143.4650 C   0  0  0  0  0  2  0  0  0  0  0  0
  182.6280  178.9060  141.5310 C   0  0  0  0  0  3  0  0  0  0  0  0
  183.9510  178.5120  145.0750 C   0  0  0  0  0  2  0  0  0  0  0  0
  182.6870  178.8530  142.9230 C   0  0  0  0  0  0  0  0  0  0  0  0
  185.3370  178.7410  145.6640 C   0  0  0  0  0  2  0  0  0  0  0  0
  183.7850  178.7620  140.7710 C   0  0  0  0  0  3  0  0  0  0  0  0
  185.1010  178.4940  142.7980 C   0  0  0  0  0  0  0  0  0  0  0  0
  188.7930  177.9280  144.8380 C   0  0  0  0  0  3  0  0  0  0  0  0
  188.6200  177.2440  147.8210 C   0  0  0  0  0  3  0  0  0  0  0  0
  190.4950  176.8230  146.2290 C   0  0  0  0  0  0  0  0  0  0  0  0
  187.6840  177.8810  145.5890 C   0  0  0  0  0  0  0  0  0  0  0  0
  186.6470  178.4240  147.7230 F   0  0  0  0  0  0  0  0  0  0  0  0
  189.8230  176.5350  147.3430 C   0  0  0  0  0  3  0  0  0  0  0  0
  187.7050  177.8780  147.0730 C   0  0  0  0  0  0  0  0  0  0  0  0
  191.6810  176.0030  145.8700 C   0  0  0  0  0  1  0  0  0  0  0  0
  190.1720  178.0190  145.3990 C   0  0  0  0  0  2  0  0  0  0  0  0
  186.2260  178.4390  140.5350 C   0  0  0  0  0  0  0  0  0  0  0  0
  187.4900  178.5340  141.1330 C   0  0  0  0  0  3  0  0  0  0  0  0
  187.3020  178.1610  138.3690 C   0  0  0  0  0  0  0  0  0  0  0  0
  188.6490  178.4420  140.3600 C   0  0  0  0  0  3  0  0  0  0  0  0
  184.5660  178.0860  138.3440 Cl  0  0  0  0  0  0  0  0  0  0  0  0
  186.1300  178.2530  139.1380 C   0  0  0  0  0  0  0  0  0  0  0  0
  187.2310  177.9720  136.9940 O   0  0  0  0  0  1  0  0  0  0  0  0
  188.5540  178.2570  138.9800 C   0  0  0  0  0  3  0  0  0  0  0  0
  1 11  1  0  0  0  0
  3 15  1  1  0  0  0
  3  9  1  0  0  0  0
  4  7  1  0  0  0  0
  5  3  1  0  0  0  0
  6  8  2  0  0  0  0
  7  9  1  0  0  0  0
  8  4  1  0  0  0  0
  8  2  1  0  0  0  0
 10  1  2  0  0  0  0
 10  6  1  0  0  0  0
 11  5  1  0  0  0  0
 11  4  2  0  0  0  0
 12 20  1  0  0  0  0
 12 15  2  0  0  0  0
 14 17  2  0  0  0  0
 15 18  1  0  0  0  0
 17 13  1  0  0  0  0
 18 16  1  0  0  0  0
 18 13  2  0  0  0  0
 19 14  1  0  0  0  0
 20 14  1  0  0  0  0
 21 22  1  0  0  0  0
 21  1  1  0  0  0  0
 23 28  2  0  0  0  0
 23 26  1  0  0  0  0
 24 22  2  0  0  0  0
 25 26  1  0  0  0  0
 26 21  2  0  0  0  0
 27 23  1  0  0  0  0
 28 24  1  0  0  0  0
M  END
>  <MODEL>
7

>  <REMARK>
 VINA RESULT:     -11.0      3.384      7.251
  Name = 
  2 active torsions:
  status: ('A' for Active; 'I' for Inactive)
    1  A    between atoms: C_1  and  C_2
    2  A    between atoms: C_10  and  C_13
                            x       y       z     vdW  Elec       q    Type
                         _______ _______ _______ _____ _____    ______ ____

>  <TORSDO>
F 2

$$$$
=
 OpenBabel11052413253D

 28 31  0  0  1  0  0  0  0  0999 V2000
  186.0720  178.1140  144.7880 C   0  0  0  0  0  0  0  0  0  0  0  0
  181.9170  179.0950  144.2550 C   0  0  0  0  0  1  0  0  0  0  0  0
  185.9720  178.7630  141.0150 C   0  0  2  0  0  3  0  0  0  0  0  0
  184.2070  178.6220  143.2850 C   0  0  0  0  0  0  0  0  0  0  0  0
  186.5050  178.1300  142.2980 C   0  0  0  0  0  2  0  0  0  0  0  0
  183.8630  178.5520  145.6880 C   0  0  0  0  0  3  0  0  0  0  0  0
  183.6650  178.9280  141.9080 C   0  0  0  0  0  2  0  0  0  0  0  0
  183.3600  178.7490  144.4030 C   0  0  0  0  0  0  0  0  0  0  0  0
  184.5240  178.3480  140.7930 C   0  0  0  0  0  2  0  0  0  0  0  0
  185.2050  178.2370  145.8800 C   0  0  0  0  0  3  0  0  0  0  0  0
  185.5810  178.3170  143.4780 C   0  0  0  0  0  0  0  0  0  0  0  0
  186.2660  178.2260  138.6390 C   0  0  0  0  0  3  0  0  0  0  0  0
  189.1200  177.4680  139.4600 C   0  0  0  0  0  3  0  0  0  0  0  0
  187.7990  176.6790  137.4960 C   0  0  0  0  0  0  0  0  0  0  0  0
  186.8340  178.4150  139.8380 C   0  0  0  0  0  0  0  0  0  0  0  0
  188.8270  179.0940  141.0610 F   0  0  0  0  0  0  0  0  0  0  0  0
  188.7720  176.5110  138.3910 C   0  0  0  0  0  3  0  0  0  0  0  0
  188.2990  178.3390  140.0650 C   0  0  0  0  0  0  0  0  0  0  0  0
  187.5550  175.6130  136.4900 C   0  0  0  0  0  1  0  0  0  0  0  0
  187.0330  177.9540  137.3900 C   0  0  0  0  0  2  0  0  0  0  0  0
  187.4820  177.7500  145.0450 C   0  0  0  0  0  0  0  0  0  0  0  0
  188.2750  177.3210  143.9710 C   0  0  0  0  0  3  0  0  0  0  0  0
  189.3790  177.4320  146.5370 C   0  0  0  0  0  0  0  0  0  0  0  0
  189.6060  176.9530  144.1750 C   0  0  0  0  0  3  0  0  0  0  0  0
  187.0970  178.3740  147.7180 Cl  0  0  0  0  0  0  0  0  0  0  0  0
  188.0390  177.8030  146.3420 C   0  0  0  0  0  0  0  0  0  0  0  0
  189.9490  177.4840  147.8030 O   0  0  0  0  0  1  0  0  0  0  0  0
  190.1560  177.0080  145.4560 C   0  0  0  0  0  3  0  0  0  0  0  0
  1 21  1  0  0  0  0
  1 10  1  0  0  0  0
  2  8  1  0  0  0  0
  3 15  1  6  0  0  0
  3  5  1  0  0  0  0
  4 11  1  0  0  0  0
  4  8  2  0  0  0  0
  5 11  1  0  0  0  0
  6 10  2  0  0  0  0
  7  4  1  0  0  0  0
  8  6  1  0  0  0  0
  9  3  1  0  0  0  0
  9  7  1  0  0  0  0
 11  1  2  0  0  0  0
 12 15  2  0  0  0  0
 13 18  2  0  0  0  0
 14 17  2  0  0  0  0
 15 18  1  0  0  0  0
 17 13  1  0  0  0  0
 18 16  1  0  0  0  0
 19 14  1  0  0  0  0
 20 14  1  0  0  0  0
 20 12  1  0  0  0  0
 21 26  1  0  0  0  0
 22 24  1  0  0  0  0
 22 21  2  0  0  0  0
 23 27  1  0  0  0  0
 24 28  2  0  0  0  0
 26 23  2  0  0  0  0
 26 25  1  0  0  0  0
 28 23  1  0  0  0  0
M  END
>  <MODEL>
8

>  <REMARK>
 VINA RESULT:     -11.0      2.103      4.869
  Name = 
  2 active torsions:
  status: ('A' for Active; 'I' for Inactive)
    1  A    between atoms: C_1  and  C_2
    2  A    between atoms: C_10  and  C_13
                            x       y       z     vdW  Elec       q    Type
                         _______ _______ _______ _____ _____    ______ ____

>  <TORSDO>
F 2

$$$$
=
 OpenBabel11052413253D

 28 31  0  0  1  0  0  0  0  0999 V2000
  182.6490  178.3900  140.7310 C   0  0  0  0  0  0  0  0  0  0  0  0
  179.9940  179.5400  143.9160 C   0  0  0  0  0  1  0  0  0  0  0  0
  184.9910  178.1070  143.7480 C   0  0  2  0  0  3  0  0  0  0  0  0
  182.3100  178.9260  143.0960 C   0  0  0  0  0  0  0  0  0  0  0  0
  184.6470  178.3270  142.2770 C   0  0  0  0  0  2  0  0  0  0  0  0
  180.4450  178.9990  141.5410 C   0  0  0  0  0  3  0  0  0  0  0  0
  182.8120  179.0030  144.5190 C   0  0  0  0  0  2  0  0  0  0  0  0
  180.9430  179.1480  142.8340 C   0  0  0  0  0  0  0  0  0  0  0  0
  184.3220  179.1730  144.6040 C   0  0  0  0  0  2  0  0  0  0  0  0
  181.2890  178.6260  140.4990 C   0  0  0  0  0  3  0  0  0  0  0  0
  183.1690  178.5280  142.0380 C   0  0  0  0  0  0  0  0  0  0  0  0
  187.2890  177.9550  142.9030 C   0  0  0  0  0  3  0  0  0  0  0  0
  188.0440  177.6020  145.8530 C   0  0  0  0  0  3  0  0  0  0  0  0
  189.2950  176.8680  143.8230 C   0  0  0  0  0  0  0  0  0  0  0  0
  186.4760  178.0760  143.9610 C   0  0  0  0  0  0  0  0  0  0  0  0
  186.1960  178.9200  146.2280 F   0  0  0  0  0  0  0  0  0  0  0  0
  189.0020  176.7530  145.1170 C   0  0  0  0  0  3  0  0  0  0  0  0
  186.9680  178.2260  145.3530 C   0  0  0  0  0  0  0  0  0  0  0  0
  190.2680  175.9220  143.2180 C   0  0  0  0  0  1  0  0  0  0  0  0
  188.7770  177.9930  142.9920 C   0  0  0  0  0  2  0  0  0  0  0  0
  183.5060  178.0230  139.5840 C   0  0  0  0  0  0  0  0  0  0  0  0
  184.4860  178.9300  139.1560 C   0  0  0  0  0  3  0  0  0  0  0  0
  184.1800  176.5010  137.8070 C   0  0  0  0  0  0  0  0  0  0  0  0
  185.3060  178.6280  138.0670 C   0  0  0  0  0  3  0  0  0  0  0  0
  182.1630  175.6040  139.4260 Cl  0  0  0  0  0  0  0  0  0  0  0  0
  183.3500  176.7960  138.9010 C   0  0  0  0  0  0  0  0  0  0  0  0
  184.0480  175.2980  137.1260 O   0  0  0  0  0  1  0  0  0  0  0  0
  185.1510  177.4150  137.3950 C   0  0  0  0  0  3  0  0  0  0  0  0
  1 11  1  0  0  0  0
  3 15  1  6  0  0  0
  3  9  1  0  0  0  0
  4  7  1  0  0  0  0
  5  3  1  0  0  0  0
  6  8  2  0  0  0  0
  7  9  1  0  0  0  0
  8  4  1  0  0  0  0
  8  2  1  0  0  0  0
 10  1  2  0  0  0  0
 10  6  1  0  0  0  0
 11  5  1  0  0  0  0
 11  4  2  0  0  0  0
 12 20  1  0  0  0  0
 12 15  2  0  0  0  0
 14 17  2  0  0  0  0
 15 18  1  0  0  0  0
 17 13  1  0  0  0  0
 18 13  2  0  0  0  0
 18 16  1  0  0  0  0
 19 14  1  0  0  0  0
 20 14  1  0  0  0  0
 21  1  1  0  0  0  0
 22 21  1  0  0  0  0
 23 26  1  0  0  0  0
 24 22  2  0  0  0  0
 26 25  1  0  0  0  0
 26 21  2  0  0  0  0
 27 23  1  0  0  0  0
 28 23  2  0  0  0  0
 28 24  1  0  0  0  0
M  END
>  <MODEL>
9

>  <REMARK>
 VINA RESULT:     -10.8      3.845      7.457
  Name = 
  2 active torsions:
  status: ('A' for Active; 'I' for Inactive)
    1  A    between atoms: C_1  and  C_2
    2  A    between atoms: C_10  and  C_13
                            x       y       z     vdW  Elec       q    Type
                         _______ _______ _______ _____ _____    ______ ____

>  <TORSDO>
F 2

$$$$
