=
 OpenBabel11052412593D

 31 34  0  0  1  0  0  0  0  0999 V2000
  188.6430  177.9890  142.8410 C   0  0  0  0  0  0  0  0  0  0  0  0
  187.6900  178.0270  143.8940 C   0  0  0  0  0  0  0  0  0  0  0  0
  187.1110  177.8960  146.2580 C   0  0  0  0  0  3  0  0  0  0  0  0
  188.0640  177.8550  145.2380 C   0  0  0  0  0  3  0  0  0  0  0  0
  185.9110  178.4320  142.2780 C   0  0  0  0  0  3  0  0  0  0  0  0
  185.7660  178.1100  145.9490 C   0  0  0  0  0  0  0  0  0  0  0  0
  188.2030  178.1800  141.5100 C   0  0  0  0  0  0  0  0  0  0  0  0
  184.7540  178.1530  147.0360 C   0  0  0  0  0  1  0  0  0  0  0  0
  186.8440  178.4050  141.2460 C   0  0  0  0  0  3  0  0  0  0  0  0
  186.3210  178.2450  143.5950 C   0  0  0  0  0  0  0  0  0  0  0  0
  185.3720  178.2840  144.6210 C   0  0  0  0  0  3  0  0  0  0  0  0
  191.8210  178.5740  144.5080 O   0  0  0  0  0  0  0  0  0  0  0  0
  190.1220  177.7700  143.0860 C   0  0  1  0  0  3  0  0  0  0  0  0
  191.3480  177.3790  145.0770 C   0  0  0  0  0  2  0  0  0  0  0  0
  190.8080  178.9990  143.6340 C   0  0  0  0  0  2  0  0  0  0  0  0
  190.4040  176.7000  144.1000 C   0  0  2  0  0  3  0  0  0  0  0  0
  192.0880  174.8940  144.3750 C   0  0  0  0  0  1  0  0  0  0  0  0
  191.0970  175.5330  143.4210 C   0  0  0  0  0  2  0  0  0  0  0  0
  189.1830  178.2070  140.3670 C   0  0  2  0  0  3  0  0  0  0  0  0
  188.5680  178.8170  139.2010 N   0  0  0  0  0  1  0  0  0  0  0  0
  189.6770  176.8080  140.0160 C   0  0  0  0  0  2  0  0  0  0  0  0
  192.0900  177.2880  140.1550 C   0  0  0  0  0  1  0  0  0  0  0  0
  190.9660  176.8830  139.2200 C   0  0  1  0  0  3  0  0  0  0  0  0
  191.2380  175.6020  138.6530 O   0  0  0  0  0  0  0  0  0  0  0  0
  194.3380  175.2420  136.6460 C   0  0  0  0  0  0  0  0  0  0  0  0
  192.4200  175.4850  135.0630 C   0  0  0  0  0  2  0  0  0  0  0  0
  195.5720  175.2930  136.8890 O   0  0  0  0  0  0  0  0  0  0  0  0
  193.3770  174.7590  137.6930 C   0  0  0  0  0  2  0  0  0  0  0  0
  191.5900  175.7450  136.2890 C   0  0  0  0  0  3  0  0  0  0  0  0
  192.0240  175.3970  137.5120 C   0  0  0  0  0  0  0  0  0  0  0  0
  193.8380  175.6510  135.3700 N   0  0  0  0  0  2  0  0  0  0  0  0
  1  2  1  0  0  0  0
  2  4  1  0  0  0  0
  4  3  2  0  0  0  0
  5 10  1  0  0  0  0
  6  3  1  0  0  0  0
  6  8  1  0  0  0  0
  7  1  2  0  0  0  0
  9  7  1  0  0  0  0
  9  5  2  0  0  0  0
 10  2  2  0  0  0  0
 10 11  1  0  0  0  0
 11  6  2  0  0  0  0
 12 14  1  0  0  0  0
 13  1  1  1  0  0  0
 13 15  1  0  0  0  0
 13 16  1  0  0  0  0
 15 12  1  0  0  0  0
 16 18  1  6  0  0  0
 16 14  1  0  0  0  0
 18 17  1  0  0  0  0
 19 20  1  6  0  0  0
 19  7  1  0  0  0  0
 21 19  1  0  0  0  0
 23 21  1  0  0  0  0
 23 22  1  1  0  0  0
 24 23  1  0  0  0  0
 25 27  2  0  0  0  0
 25 28  1  0  0  0  0
 26 31  1  0  0  0  0
 26 29  1  0  0  0  0
 29 30  2  0  0  0  0
 30 28  1  0  0  0  0
 30 24  1  0  0  0  0
 31 25  1  0  0  0  0
M  END
>  <MODEL>
1

>  <REMARK>
 VINA RESULT:      -8.4      0.000      0.000
  Name = 
  7 active torsions:
  status: ('A' for Active; 'I' for Inactive)
    1  A    between atoms: O_3  and  C_9
    2  A    between atoms: O_3  and  C_22
    3  A    between atoms: C_4  and  C_12
    4  A    between atoms: C_9  and  C_23
    5  A    between atoms: C_15  and  C_21
    6  A    between atoms: C_15  and  C_23
    7  A    between atoms: C_27  and  C_28
                            x       y       z     vdW  Elec       q    Type
                         _______ _______ _______ _____ _____    ______ ____

>  <TORSDO>
F 7

$$$$
=
 OpenBabel11052412593D

 31 34  0  0  1  0  0  0  0  0999 V2000
  188.7550  177.9380  142.7460 C   0  0  0  0  0  0  0  0  0  0  0  0
  187.7740  178.0100  143.7720 C   0  0  0  0  0  0  0  0  0  0  0  0
  187.1330  177.9500  146.1230 C   0  0  0  0  0  3  0  0  0  0  0  0
  188.1120  177.8770  145.1310 C   0  0  0  0  0  3  0  0  0  0  0  0
  186.0390  178.3690  142.0990 C   0  0  0  0  0  3  0  0  0  0  0  0
  185.7970  178.1580  145.7730 C   0  0  0  0  0  0  0  0  0  0  0  0
  188.3510  178.0900  141.3990 C   0  0  0  0  0  0  0  0  0  0  0  0
  184.7560  178.2350  146.8310 C   0  0  0  0  0  1  0  0  0  0  0  0
  186.9990  178.3090  141.0930 C   0  0  0  0  0  3  0  0  0  0  0  0
  186.4140  178.2210  143.4310 C   0  0  0  0  0  0  0  0  0  0  0  0
  185.4380  178.2930  144.4300 C   0  0  0  0  0  3  0  0  0  0  0  0
  191.8830  178.5480  144.4970 O   0  0  0  0  0  0  0  0  0  0  0  0
  190.2260  177.7240  143.0380 C   0  0  1  0  0  3  0  0  0  0  0  0
  191.3940  177.3590  145.0680 C   0  0  0  0  0  2  0  0  0  0  0  0
  190.8950  178.9610  143.5890 C   0  0  0  0  0  2  0  0  0  0  0  0
  190.4790  176.6670  144.0730 C   0  0  2  0  0  3  0  0  0  0  0  0
  192.1010  174.8210  144.4420 C   0  0  0  0  0  1  0  0  0  0  0  0
  191.1920  175.4920  143.4300 C   0  0  0  0  0  2  0  0  0  0  0  0
  189.3610  178.0810  140.2830 C   0  0  2  0  0  3  0  0  0  0  0  0
  189.0270  179.1010  139.3040 N   0  0  0  0  0  1  0  0  0  0  0  0
  189.4340  176.7190  139.6010 C   0  0  0  0  0  2  0  0  0  0  0  0
  191.0810  176.4950  137.7820 C   0  0  0  0  0  1  0  0  0  0  0  0
  189.6500  176.8810  138.1080 C   0  0  1  0  0  3  0  0  0  0  0  0
  188.7420  176.0300  137.4120 O   0  0  0  0  0  0  0  0  0  0  0  0
  185.5580  177.9060  137.7370 C   0  0  0  0  0  0  0  0  0  0  0  0
  185.0150  175.6030  136.9390 C   0  0  0  0  0  2  0  0  0  0  0  0
  185.2110  178.9930  138.2710 O   0  0  0  0  0  0  0  0  0  0  0  0
  186.9450  177.7410  137.1880 C   0  0  0  0  0  2  0  0  0  0  0  0
  186.4730  175.3080  137.1510 C   0  0  0  0  0  3  0  0  0  0  0  0
  187.3760  176.2980  137.2530 C   0  0  0  0  0  0  0  0  0  0  0  0
  184.6360  176.8170  137.6560 N   0  0  0  0  0  2  0  0  0  0  0  0
  1  2  1  0  0  0  0
  2  4  1  0  0  0  0
  4  3  2  0  0  0  0
  5 10  1  0  0  0  0
  6  3  1  0  0  0  0
  6  8  1  0  0  0  0
  7  1  2  0  0  0  0
  9  7  1  0  0  0  0
  9  5  2  0  0  0  0
 10  2  2  0  0  0  0
 10 11  1  0  0  0  0
 11  6  2  0  0  0  0
 12 14  1  0  0  0  0
 13  1  1  1  0  0  0
 13 15  1  0  0  0  0
 13 16  1  0  0  0  0
 15 12  1  0  0  0  0
 16 18  1  6  0  0  0
 16 14  1  0  0  0  0
 18 17  1  0  0  0  0
 19 20  1  6  0  0  0
 19  7  1  0  0  0  0
 21 19  1  0  0  0  0
 23 22  1  1  0  0  0
 23 21  1  0  0  0  0
 24 23  1  0  0  0  0
 25 27  2  0  0  0  0
 26 29  1  0  0  0  0
 26 31  1  0  0  0  0
 28 30  1  0  0  0  0
 28 25  1  0  0  0  0
 29 30  2  0  0  0  0
 30 24  1  0  0  0  0
 31 25  1  0  0  0  0
M  END
>  <MODEL>
2

>  <REMARK>
 VINA RESULT:      -8.3      2.391      3.924
  Name = 
  7 active torsions:
  status: ('A' for Active; 'I' for Inactive)
    1  A    between atoms: O_3  and  C_9
    2  A    between atoms: O_3  and  C_22
    3  A    between atoms: C_4  and  C_12
    4  A    between atoms: C_9  and  C_23
    5  A    between atoms: C_15  and  C_21
    6  A    between atoms: C_15  and  C_23
    7  A    between atoms: C_27  and  C_28
                            x       y       z     vdW  Elec       q    Type
                         _______ _______ _______ _____ _____    ______ ____

>  <TORSDO>
F 7

$$$$
=
 OpenBabel11052412593D

 31 34  0  0  1  0  0  0  0  0999 V2000
  188.6600  177.9900  142.8330 C   0  0  0  0  0  0  0  0  0  0  0  0
  187.7010  178.0320  143.8810 C   0  0  0  0  0  0  0  0  0  0  0  0
  187.1070  177.8900  146.2410 C   0  0  0  0  0  3  0  0  0  0  0  0
  188.0650  177.8450  145.2260 C   0  0  0  0  0  3  0  0  0  0  0  0
  185.9370  178.4710  142.2590 C   0  0  0  0  0  3  0  0  0  0  0  0
  185.7670  178.1230  145.9260 C   0  0  0  0  0  0  0  0  0  0  0  0
  188.2310  178.1960  141.5020 C   0  0  0  0  0  0  0  0  0  0  0  0
  184.7490  178.1710  147.0080 C   0  0  0  0  0  1  0  0  0  0  0  0
  186.8760  178.4390  141.2320 C   0  0  0  0  0  3  0  0  0  0  0  0
  186.3370  178.2690  143.5760 C   0  0  0  0  0  0  0  0  0  0  0  0
  185.3830  178.3120  144.5970 C   0  0  0  0  0  3  0  0  0  0  0  0
  191.8390  178.5340  144.5140 O   0  0  0  0  0  0  0  0  0  0  0  0
  190.1350  177.7520  143.0860 C   0  0  1  0  0  3  0  0  0  0  0  0
  191.3460  177.3460  145.0830 C   0  0  0  0  0  2  0  0  0  0  0  0
  190.8350  178.9720  143.6350 C   0  0  0  0  0  2  0  0  0  0  0  0
  190.3980  176.6790  144.1030 C   0  0  2  0  0  3  0  0  0  0  0  0
  192.0800  174.8720  144.3760 C   0  0  0  0  0  1  0  0  0  0  0  0
  191.0780  175.5020  143.4290 C   0  0  0  0  0  2  0  0  0  0  0  0
  189.2180  178.2200  140.3650 C   0  0  2  0  0  3  0  0  0  0  0  0
  188.6120  178.8330  139.1950 N   0  0  0  0  0  1  0  0  0  0  0  0
  189.7080  176.8190  140.0160 C   0  0  0  0  0  2  0  0  0  0  0  0
  192.1330  177.2260  140.1780 C   0  0  0  0  0  1  0  0  0  0  0  0
  191.0010  176.8890  139.2250 C   0  0  1  0  0  3  0  0  0  0  0  0
  191.2390  175.6240  138.6100 O   0  0  0  0  0  0  0  0  0  0  0  0
  189.3180  175.9520  135.4530 C   0  0  0  0  0  0  0  0  0  0  0  0
  189.8890  173.5400  135.7580 C   0  0  0  0  0  2  0  0  0  0  0  0
  188.6220  176.8560  134.9200 O   0  0  0  0  0  0  0  0  0  0  0  0
  190.4740  176.3100  136.3410 C   0  0  0  0  0  2  0  0  0  0  0  0
  190.4200  173.9530  137.1020 C   0  0  0  0  0  3  0  0  0  0  0  0
  190.7070  175.2370  137.3740 C   0  0  0  0  0  0  0  0  0  0  0  0
  189.0100  174.5750  135.2240 N   0  0  0  0  0  2  0  0  0  0  0  0
  1  2  1  0  0  0  0
  2  4  1  0  0  0  0
  4  3  2  0  0  0  0
  5 10  1  0  0  0  0
  6  3  1  0  0  0  0
  6  8  1  0  0  0  0
  7  1  2  0  0  0  0
  9  7  1  0  0  0  0
  9  5  2  0  0  0  0
 10  2  2  0  0  0  0
 10 11  1  0  0  0  0
 11  6  2  0  0  0  0
 12 14  1  0  0  0  0
 13  1  1  1  0  0  0
 13 15  1  0  0  0  0
 13 16  1  0  0  0  0
 15 12  1  0  0  0  0
 16 18  1  6  0  0  0
 16 14  1  0  0  0  0
 18 17  1  0  0  0  0
 19 20  1  6  0  0  0
 19  7  1  0  0  0  0
 21 19  1  0  0  0  0
 23 21  1  0  0  0  0
 23 22  1  1  0  0  0
 24 23  1  0  0  0  0
 25 28  1  0  0  0  0
 26 29  1  0  0  0  0
 27 25  2  0  0  0  0
 28 30  1  0  0  0  0
 29 30  2  0  0  0  0
 30 24  1  0  0  0  0
 31 25  1  0  0  0  0
 31 26  1  0  0  0  0
M  END
>  <MODEL>
3

>  <REMARK>
 VINA RESULT:      -8.3      1.576      2.099
  Name = 
  7 active torsions:
  status: ('A' for Active; 'I' for Inactive)
    1  A    between atoms: O_3  and  C_9
    2  A    between atoms: O_3  and  C_22
    3  A    between atoms: C_4  and  C_12
    4  A    between atoms: C_9  and  C_23
    5  A    between atoms: C_15  and  C_21
    6  A    between atoms: C_15  and  C_23
    7  A    between atoms: C_27  and  C_28
                            x       y       z     vdW  Elec       q    Type
                         _______ _______ _______ _____ _____    ______ ____

>  <TORSDO>
F 7

$$$$
=
 OpenBabel11052412593D

 31 34  0  0  1  0  0  0  0  0999 V2000
  188.0620  177.8970  145.0880 C   0  0  0  0  0  0  0  0  0  0  0  0
  186.6660  178.1340  144.9620 C   0  0  0  0  0  0  0  0  0  0  0  0
  184.4850  178.6170  145.9380 C   0  0  0  0  0  3  0  0  0  0  0  0
  185.8550  178.3870  146.0820 C   0  0  0  0  0  3  0  0  0  0  0  0
  186.8330  177.8830  142.5440 C   0  0  0  0  0  3  0  0  0  0  0  0
  183.9040  178.5980  144.6680 C   0  0  0  0  0  0  0  0  0  0  0  0
  188.8240  177.6590  143.9200 C   0  0  0  0  0  0  0  0  0  0  0  0
  182.4460  178.8420  144.5170 C   0  0  0  0  0  1  0  0  0  0  0  0
  188.2010  177.6610  142.6630 C   0  0  0  0  0  3  0  0  0  0  0  0
  186.0620  178.1180  143.6790 C   0  0  0  0  0  0  0  0  0  0  0  0
  184.6900  178.3490  143.5420 C   0  0  0  0  0  3  0  0  0  0  0  0
  188.3120  178.4230  148.6770 O   0  0  0  0  0  0  0  0  0  0  0  0
  188.7750  177.9090  146.4240 C   0  0  1  0  0  3  0  0  0  0  0  0
  188.1690  177.0310  148.5410 C   0  0  0  0  0  2  0  0  0  0  0  0
  188.2110  178.9390  147.3740 C   0  0  0  0  0  2  0  0  0  0  0  0
  188.6630  176.6100  147.1680 C   0  0  2  0  0  3  0  0  0  0  0  0
  191.0870  177.0390  147.5000 C   0  0  0  0  0  1  0  0  0  0  0  0
  190.0350  175.9710  147.2750 C   0  0  0  0  0  2  0  0  0  0  0  0
  190.3150  177.4630  143.9960 C   0  0  2  0  0  3  0  0  0  0  0  0
  190.9920  178.7390  143.8450 N   0  0  0  0  0  1  0  0  0  0  0  0
  190.8090  176.4890  142.9320 C   0  0  0  0  0  2  0  0  0  0  0  0
  192.4380  177.3840  141.3130 C   0  0  0  0  0  1  0  0  0  0  0  0
  190.9590  177.1930  141.5960 C   0  0  1  0  0  3  0  0  0  0  0  0
  190.3660  176.3880  140.5770 O   0  0  0  0  0  0  0  0  0  0  0  0
  188.6590  178.1290  137.7800 C   0  0  0  0  0  0  0  0  0  0  0  0
  190.3580  176.5810  136.8010 C   0  0  0  0  0  2  0  0  0  0  0  0
  187.6220  178.8340  137.6650 O   0  0  0  0  0  0  0  0  0  0  0  0
  189.4430  178.1360  139.0600 C   0  0  0  0  0  2  0  0  0  0  0  0
  190.5580  176.0930  138.2080 C   0  0  0  0  0  3  0  0  0  0  0  0
  190.1470  176.8190  139.2630 C   0  0  0  0  0  0  0  0  0  0  0  0
  189.0970  177.3090  136.6940 N   0  0  0  0  0  2  0  0  0  0  0  0
  2  1  1  0  0  0  0
  2  4  1  0  0  0  0
  3  4  2  0  0  0  0
  5  9  2  0  0  0  0
  5 10  1  0  0  0  0
  6  3  1  0  0  0  0
  7 19  1  0  0  0  0
  7  1  2  0  0  0  0
  8  6  1  0  0  0  0
  9  7  1  0  0  0  0
 10  2  2  0  0  0  0
 11 10  1  0  0  0  0
 11  6  2  0  0  0  0
 13  1  1  6  0  0  0
 13 16  1  0  0  0  0
 13 15  1  0  0  0  0
 14 12  1  0  0  0  0
 15 12  1  0  0  0  0
 16 18  1  1  0  0  0
 16 14  1  0  0  0  0
 18 17  1  0  0  0  0
 19 20  1  6  0  0  0
 21 19  1  0  0  0  0
 23 22  1  6  0  0  0
 23 21  1  0  0  0  0
 24 23  1  0  0  0  0
 25 28  1  0  0  0  0
 26 29  1  0  0  0  0
 27 25  2  0  0  0  0
 28 30  1  0  0  0  0
 29 30  2  0  0  0  0
 30 24  1  0  0  0  0
 31 26  1  0  0  0  0
 31 25  1  0  0  0  0
M  END
>  <MODEL>
4

>  <REMARK>
 VINA RESULT:      -8.3      2.389      3.778
  Name = 
  7 active torsions:
  status: ('A' for Active; 'I' for Inactive)
    1  A    between atoms: O_3  and  C_9
    2  A    between atoms: O_3  and  C_22
    3  A    between atoms: C_4  and  C_12
    4  A    between atoms: C_9  and  C_23
    5  A    between atoms: C_15  and  C_21
    6  A    between atoms: C_15  and  C_23
    7  A    between atoms: C_27  and  C_28
                            x       y       z     vdW  Elec       q    Type
                         _______ _______ _______ _____ _____    ______ ____

>  <TORSDO>
F 7

$$$$
=
 OpenBabel11052412593D

 31 34  0  0  1  0  0  0  0  0999 V2000
  188.3970  177.1800  142.9350 C   0  0  0  0  0  0  0  0  0  0  0  0
  187.1580  177.6780  143.4220 C   0  0  0  0  0  0  0  0  0  0  0  0
  185.5220  177.9630  145.2060 C   0  0  0  0  0  3  0  0  0  0  0  0
  186.7440  177.4650  144.7490 C   0  0  0  0  0  3  0  0  0  0  0  0
  186.6840  178.6520  141.2390 C   0  0  0  0  0  3  0  0  0  0  0  0
  184.6930  178.6810  144.3430 C   0  0  0  0  0  0  0  0  0  0  0  0
  188.7600  177.4360  141.5930 C   0  0  0  0  0  0  0  0  0  0  0  0
  183.3930  179.2090  144.8320 C   0  0  0  0  0  1  0  0  0  0  0  0
  187.9010  178.1740  140.7630 C   0  0  0  0  0  3  0  0  0  0  0  0
  186.3060  178.4100  142.5560 C   0  0  0  0  0  0  0  0  0  0  0  0
  185.0840  178.9040  143.0210 C   0  0  0  0  0  3  0  0  0  0  0  0
  191.4800  175.3820  143.6340 O   0  0  0  0  0  0  0  0  0  0  0  0
  189.3610  176.3990  143.8060 C   0  0  1  0  0  3  0  0  0  0  0  0
  191.6840  176.6510  144.2030 C   0  0  0  0  0  2  0  0  0  0  0  0
  190.2240  175.4500  143.0090 C   0  0  0  0  0  2  0  0  0  0  0  0
  190.3380  177.2700  144.5390 C   0  0  2  0  0  3  0  0  0  0  0  0
  191.3270  176.7250  146.7520 C   0  0  0  0  0  1  0  0  0  0  0  0
  190.0730  177.1790  146.0300 C   0  0  0  0  0  2  0  0  0  0  0  0
  190.0880  176.9820  141.0490 C   0  0  2  0  0  3  0  0  0  0  0  0
  191.0250  178.0920  141.0350 N   0  0  0  0  0  1  0  0  0  0  0  0
  189.9540  176.4050  139.6440 C   0  0  0  0  0  2  0  0  0  0  0  0
  191.9160  175.8700  138.2530 C   0  0  0  0  0  1  0  0  0  0  0  0
  191.0080  176.9910  138.7250 C   0  0  1  0  0  3  0  0  0  0  0  0
  190.3640  177.6020  137.6080 O   0  0  0  0  0  0  0  0  0  0  0  0
  186.6770  177.9660  137.4010 C   0  0  0  0  0  0  0  0  0  0  0  0
  187.2910  175.7670  136.3890 C   0  0  0  0  0  2  0  0  0  0  0  0
  185.8250  178.7380  137.9130 O   0  0  0  0  0  0  0  0  0  0  0  0
  188.0710  178.4500  137.1270 C   0  0  0  0  0  2  0  0  0  0  0  0
  188.6850  176.0640  136.8670 C   0  0  0  0  0  3  0  0  0  0  0  0
  189.0560  177.3120  137.1980 C   0  0  0  0  0  0  0  0  0  0  0  0
  186.3280  176.6170  137.0810 N   0  0  0  0  0  2  0  0  0  0  0  0
  1  2  1  0  0  0  0
  2  4  1  0  0  0  0
  4  3  2  0  0  0  0
  5 10  1  0  0  0  0
  6  8  1  0  0  0  0
  6  3  1  0  0  0  0
  7  1  2  0  0  0  0
  9  5  2  0  0  0  0
  9  7  1  0  0  0  0
 10 11  1  0  0  0  0
 10  2  2  0  0  0  0
 11  6  2  0  0  0  0
 12 14  1  0  0  0  0
 13  1  1  6  0  0  0
 13 16  1  0  0  0  0
 14 16  1  0  0  0  0
 15 12  1  0  0  0  0
 15 13  1  0  0  0  0
 16 18  1  1  0  0  0
 18 17  1  0  0  0  0
 19 20  1  6  0  0  0
 19  7  1  0  0  0  0
 21 19  1  0  0  0  0
 23 22  1  6  0  0  0
 23 21  1  0  0  0  0
 24 23  1  0  0  0  0
 25 27  2  0  0  0  0
 26 29  1  0  0  0  0
 26 31  1  0  0  0  0
 28 30  1  0  0  0  0
 28 25  1  0  0  0  0
 29 30  2  0  0  0  0
 30 24  1  0  0  0  0
 31 25  1  0  0  0  0
M  END
>  <MODEL>
5

>  <REMARK>
 VINA RESULT:      -8.1      2.329      3.716
  Name = 
  7 active torsions:
  status: ('A' for Active; 'I' for Inactive)
    1  A    between atoms: O_3  and  C_9
    2  A    between atoms: O_3  and  C_22
    3  A    between atoms: C_4  and  C_12
    4  A    between atoms: C_9  and  C_23
    5  A    between atoms: C_15  and  C_21
    6  A    between atoms: C_15  and  C_23
    7  A    between atoms: C_27  and  C_28
                            x       y       z     vdW  Elec       q    Type
                         _______ _______ _______ _____ _____    ______ ____

>  <TORSDO>
F 7

$$$$
=
 OpenBabel11052412593D

 31 34  0  0  1  0  0  0  0  0999 V2000
  186.6970  177.8580  143.4640 C   0  0  0  0  0  0  0  0  0  0  0  0
  187.0170  177.9220  144.8470 C   0  0  0  0  0  0  0  0  0  0  0  0
  188.5680  177.5880  146.6990 C   0  0  0  0  0  3  0  0  0  0  0  0
  188.2730  177.5180  145.3360 C   0  0  0  0  0  3  0  0  0  0  0  0
  184.8040  178.8220  145.3260 C   0  0  0  0  0  3  0  0  0  0  0  0
  187.6100  178.0630  147.5970 C   0  0  0  0  0  0  0  0  0  0  0  0
  185.4190  178.2890  143.0360 C   0  0  0  0  0  0  0  0  0  0  0  0
  187.9250  178.1360  149.0470 C   0  0  0  0  0  1  0  0  0  0  0  0
  184.4920  178.7700  143.9720 C   0  0  0  0  0  3  0  0  0  0  0  0
  186.0550  178.4020  145.7710 C   0  0  0  0  0  0  0  0  0  0  0  0
  186.3560  178.4690  147.1340 C   0  0  0  0  0  3  0  0  0  0  0  0
  189.1410  178.2540  140.8010 O   0  0  0  0  0  0  0  0  0  0  0  0
  187.6780  177.3650  142.4210 C   0  0  1  0  0  3  0  0  0  0  0  0
  189.9160  177.9870  141.9430 C   0  0  0  0  0  2  0  0  0  0  0  0
  187.8130  178.3150  141.2550 C   0  0  0  0  0  2  0  0  0  0  0  0
  189.0770  177.2140  142.9450 C   0  0  2  0  0  3  0  0  0  0  0  0
  190.9450  175.5990  143.2160 C   0  0  0  0  0  1  0  0  0  0  0  0
  189.4620  175.7460  142.9350 C   0  0  0  0  0  2  0  0  0  0  0  0
  185.0550  178.2970  141.5750 C   0  0  2  0  0  3  0  0  0  0  0  0
  184.9240  179.6650  141.1040 N   0  0  0  0  0  1  0  0  0  0  0  0
  183.7590  177.5370  141.3140 C   0  0  0  0  0  2  0  0  0  0  0  0
  183.3070  177.3280  138.9010 C   0  0  0  0  0  1  0  0  0  0  0  0
  183.0100  178.1460  140.1440 C   0  0  1  0  0  3  0  0  0  0  0  0
  181.6110  178.1230  140.4230 O   0  0  0  0  0  0  0  0  0  0  0  0
  179.6370  179.9880  142.9500 C   0  0  0  0  0  0  0  0  0  0  0  0
  179.5140  181.2470  140.7970 C   0  0  0  0  0  2  0  0  0  0  0  0
  179.1910  179.7360  144.1010 O   0  0  0  0  0  0  0  0  0  0  0  0
  180.9090  179.3510  142.4740 C   0  0  0  0  0  2  0  0  0  0  0  0
  180.2390  180.0730  140.2010 C   0  0  0  0  0  3  0  0  0  0  0  0
  180.9010  179.1970  140.9750 C   0  0  0  0  0  0  0  0  0  0  0  0
  178.9310  180.8790  142.0840 N   0  0  0  0  0  2  0  0  0  0  0  0
  1  2  1  0  0  0  0
  2  4  2  0  0  0  0
  2 10  1  0  0  0  0
  3  6  2  0  0  0  0
  4  3  1  0  0  0  0
  5 10  1  0  0  0  0
  6  8  1  0  0  0  0
  7  1  2  0  0  0  0
  7  9  1  0  0  0  0
  9  5  2  0  0  0  0
 10 11  2  0  0  0  0
 11  6  1  0  0  0  0
 12 15  1  0  0  0  0
 12 14  1  0  0  0  0
 13 16  1  0  0  0  0
 13  1  1  1  0  0  0
 14 16  1  0  0  0  0
 15 13  1  0  0  0  0
 16 18  1  6  0  0  0
 18 17  1  0  0  0  0
 19 20  1  1  0  0  0
 19  7  1  0  0  0  0
 21 19  1  0  0  0  0
 23 22  1  6  0  0  0
 23 24  1  0  0  0  0
 23 21  1  0  0  0  0
 24 30  1  0  0  0  0
 25 27  2  0  0  0  0
 26 31  1  0  0  0  0
 28 25  1  0  0  0  0
 29 26  1  0  0  0  0
 29 30  2  0  0  0  0
 30 28  1  0  0  0  0
 31 25  1  0  0  0  0
M  END
>  <MODEL>
6

>  <REMARK>
 VINA RESULT:      -7.9      4.582      8.264
  Name = 
  7 active torsions:
  status: ('A' for Active; 'I' for Inactive)
    1  A    between atoms: O_3  and  C_9
    2  A    between atoms: O_3  and  C_22
    3  A    between atoms: C_4  and  C_12
    4  A    between atoms: C_9  and  C_23
    5  A    between atoms: C_15  and  C_21
    6  A    between atoms: C_15  and  C_23
    7  A    between atoms: C_27  and  C_28
                            x       y       z     vdW  Elec       q    Type
                         _______ _______ _______ _____ _____    ______ ____

>  <TORSDO>
F 7

$$$$
=
 OpenBabel11052412593D

 31 34  0  0  1  0  0  0  0  0999 V2000
  186.6630  177.8840  143.4730 C   0  0  0  0  0  0  0  0  0  0  0  0
  186.9930  177.8780  144.8560 C   0  0  0  0  0  0  0  0  0  0  0  0
  188.5690  177.4900  146.6740 C   0  0  0  0  0  3  0  0  0  0  0  0
  188.2650  177.4900  145.3110 C   0  0  0  0  0  3  0  0  0  0  0  0
  184.7550  178.6740  145.4010 C   0  0  0  0  0  3  0  0  0  0  0  0
  187.6040  177.8790  147.6050 C   0  0  0  0  0  0  0  0  0  0  0  0
  185.3680  178.2950  143.0790 C   0  0  0  0  0  0  0  0  0  0  0  0
  187.9290  177.8780  149.0550 C   0  0  0  0  0  1  0  0  0  0  0  0
  184.4330  178.6900  144.0480 C   0  0  0  0  0  3  0  0  0  0  0  0
  186.0230  178.2710  145.8120 C   0  0  0  0  0  0  0  0  0  0  0  0
  186.3340  178.2690  147.1750 C   0  0  0  0  0  3  0  0  0  0  0  0
  189.1240  178.5160  140.8720 O   0  0  0  0  0  0  0  0  0  0  0  0
  187.6510  177.4860  142.3960 C   0  0  1  0  0  3  0  0  0  0  0  0
  189.8910  178.1480  141.9910 C   0  0  0  0  0  2  0  0  0  0  0  0
  187.7930  178.5370  141.3210 C   0  0  0  0  0  2  0  0  0  0  0  0
  189.0460  177.2890  142.9140 C   0  0  2  0  0  3  0  0  0  0  0  0
  190.8690  175.6280  143.2180 C   0  0  0  0  0  1  0  0  0  0  0  0
  189.4330  175.8270  142.7760 C   0  0  0  0  0  2  0  0  0  0  0  0
  184.9910  178.3760  141.6240 C   0  0  2  0  0  3  0  0  0  0  0  0
  185.1380  179.7410  141.1490 N   0  0  0  0  0  1  0  0  0  0  0  0
  183.5630  177.8990  141.3860 C   0  0  0  0  0  2  0  0  0  0  0  0
  182.0370  176.6620  139.8980 C   0  0  0  0  0  1  0  0  0  0  0  0
  183.4640  177.1490  140.0710 C   0  0  1  0  0  3  0  0  0  0  0  0
  183.8130  178.0310  139.0050 O   0  0  0  0  0  0  0  0  0  0  0  0
  186.8440  178.3160  136.8840 C   0  0  0  0  0  0  0  0  0  0  0  0
  185.2620  176.7460  135.7570 C   0  0  0  0  0  2  0  0  0  0  0  0
  187.8380  179.0880  136.8440 O   0  0  0  0  0  0  0  0  0  0  0  0
  186.1680  178.0180  138.1900 C   0  0  0  0  0  2  0  0  0  0  0  0
  184.2910  177.1280  136.8380 C   0  0  0  0  0  3  0  0  0  0  0  0
  184.7080  177.7070  137.9770 C   0  0  0  0  0  0  0  0  0  0  0  0
  186.3450  177.7210  135.6830 N   0  0  0  0  0  2  0  0  0  0  0  0
  1  2  1  0  0  0  0
  2  4  2  0  0  0  0
  2 10  1  0  0  0  0
  3  6  2  0  0  0  0
  4  3  1  0  0  0  0
  5 10  1  0  0  0  0
  6  8  1  0  0  0  0
  7  1  2  0  0  0  0
  7  9  1  0  0  0  0
  9  5  2  0  0  0  0
 10 11  2  0  0  0  0
 11  6  1  0  0  0  0
 12 15  1  0  0  0  0
 12 14  1  0  0  0  0
 13 16  1  0  0  0  0
 13  1  1  1  0  0  0
 14 16  1  0  0  0  0
 15 13  1  0  0  0  0
 16 18  1  6  0  0  0
 18 17  1  0  0  0  0
 19 20  1  1  0  0  0
 19  7  1  0  0  0  0
 21 19  1  0  0  0  0
 23 22  1  6  0  0  0
 23 21  1  0  0  0  0
 24 23  1  0  0  0  0
 25 28  1  0  0  0  0
 26 29  1  0  0  0  0
 27 25  2  0  0  0  0
 29 30  2  0  0  0  0
 30 28  1  0  0  0  0
 30 24  1  0  0  0  0
 31 26  1  0  0  0  0
 31 25  1  0  0  0  0
M  END
>  <MODEL>
7

>  <REMARK>
 VINA RESULT:      -7.8      3.751      5.291
  Name = 
  7 active torsions:
  status: ('A' for Active; 'I' for Inactive)
    1  A    between atoms: O_3  and  C_9
    2  A    between atoms: O_3  and  C_22
    3  A    between atoms: C_4  and  C_12
    4  A    between atoms: C_9  and  C_23
    5  A    between atoms: C_15  and  C_21
    6  A    between atoms: C_15  and  C_23
    7  A    between atoms: C_27  and  C_28
                            x       y       z     vdW  Elec       q    Type
                         _______ _______ _______ _____ _____    ______ ____

>  <TORSDO>
F 7

$$$$
=
 OpenBabel11052412593D

 31 34  0  0  1  0  0  0  0  0999 V2000
  188.2030  178.0640  143.4190 C   0  0  0  0  0  0  0  0  0  0  0  0
  188.1410  177.9400  144.8340 C   0  0  0  0  0  0  0  0  0  0  0  0
  189.2180  177.6740  147.0040 C   0  0  0  0  0  3  0  0  0  0  0  0
  189.3010  177.7960  145.6160 C   0  0  0  0  0  3  0  0  0  0  0  0
  185.7120  178.1140  144.7510 C   0  0  0  0  0  3  0  0  0  0  0  0
  187.9720  177.6960  147.6350 C   0  0  0  0  0  0  0  0  0  0  0  0
  187.0000  178.2170  142.6910 C   0  0  0  0  0  0  0  0  0  0  0  0
  187.8870  177.5660  149.1130 C   0  0  0  0  0  1  0  0  0  0  0  0
  185.7700  178.2460  143.3670 C   0  0  0  0  0  3  0  0  0  0  0  0
  186.8830  177.9610  145.4880 C   0  0  0  0  0  0  0  0  0  0  0  0
  186.8070  177.8390  146.8780 C   0  0  0  0  0  3  0  0  0  0  0  0
  191.8250  178.0810  143.1030 O   0  0  0  0  0  0  0  0  0  0  0  0
  189.5110  178.0600  142.6560 C   0  0  1  0  0  3  0  0  0  0  0  0
  191.4660  176.7390  142.8870 C   0  0  0  0  0  2  0  0  0  0  0  0
  190.6260  178.7450  143.4110 C   0  0  0  0  0  2  0  0  0  0  0  0
  190.0350  176.6800  142.3830 C   0  0  2  0  0  3  0  0  0  0  0  0
  191.0690  177.2630  140.2010 C   0  0  0  0  0  1  0  0  0  0  0  0
  190.0120  176.4200  140.8880 C   0  0  0  0  0  2  0  0  0  0  0  0
  187.0180  178.4130  141.1990 C   0  0  2  0  0  3  0  0  0  0  0  0
  188.0800  179.3330  140.8320 N   0  0  0  0  0  1  0  0  0  0  0  0
  185.6820  178.9380  140.6840 C   0  0  0  0  0  2  0  0  0  0  0  0
  183.9420  178.7370  138.9500 C   0  0  0  0  0  1  0  0  0  0  0  0
  185.3460  178.3140  139.3420 C   0  0  1  0  0  3  0  0  0  0  0  0
  186.2850  178.7690  138.3690 O   0  0  0  0  0  0  0  0  0  0  0  0
  187.6370  175.5850  137.0270 C   0  0  0  0  0  0  0  0  0  0  0  0
  189.3660  177.3560  136.6930 C   0  0  0  0  0  2  0  0  0  0  0  0
  187.3110  174.3720  137.1050 O   0  0  0  0  0  0  0  0  0  0  0  0
  186.5880  176.6570  137.0820 C   0  0  0  0  0  2  0  0  0  0  0  0
  188.4490  178.2420  137.4890 C   0  0  0  0  0  3  0  0  0  0  0  0
  187.1540  177.9290  137.6610 C   0  0  0  0  0  0  0  0  0  0  0  0
  189.0110  175.9540  136.8910 N   0  0  0  0  0  2  0  0  0  0  0  0
  1  2  1  0  0  0  0
  2 10  2  0  0  0  0
  2  4  1  0  0  0  0
  3  6  1  0  0  0  0
  4  3  2  0  0  0  0
  5 10  1  0  0  0  0
  6  8  1  0  0  0  0
  7  9  1  0  0  0  0
  7  1  2  0  0  0  0
  9  5  2  0  0  0  0
 10 11  1  0  0  0  0
 11  6  2  0  0  0  0
 12 15  1  0  0  0  0
 13 15  1  0  0  0  0
 13  1  1  1  0  0  0
 14 12  1  0  0  0  0
 16 18  1  6  0  0  0
 16 13  1  0  0  0  0
 16 14  1  0  0  0  0
 17 18  1  0  0  0  0
 19 20  1  1  0  0  0
 19  7  1  0  0  0  0
 21 19  1  0  0  0  0
 23 22  1  6  0  0  0
 23 21  1  0  0  0  0
 24 23  1  0  0  0  0
 25 28  1  0  0  0  0
 25 27  2  0  0  0  0
 26 31  1  0  0  0  0
 26 29  1  0  0  0  0
 28 30  1  0  0  0  0
 29 30  2  0  0  0  0
 30 24  1  0  0  0  0
 31 25  1  0  0  0  0
M  END
>  <MODEL>
8

>  <REMARK>
 VINA RESULT:      -7.7      2.694      4.102
  Name = 
  7 active torsions:
  status: ('A' for Active; 'I' for Inactive)
    1  A    between atoms: O_3  and  C_9
    2  A    between atoms: O_3  and  C_22
    3  A    between atoms: C_4  and  C_12
    4  A    between atoms: C_9  and  C_23
    5  A    between atoms: C_15  and  C_21
    6  A    between atoms: C_15  and  C_23
    7  A    between atoms: C_27  and  C_28
                            x       y       z     vdW  Elec       q    Type
                         _______ _______ _______ _____ _____    ______ ____

>  <TORSDO>
F 7

$$$$
=
 OpenBabel11052412593D

 31 34  0  0  1  0  0  0  0  0999 V2000
  185.4090  178.6620  143.2570 C   0  0  0  0  0  0  0  0  0  0  0  0
  183.9940  178.6920  143.1220 C   0  0  0  0  0  0  0  0  0  0  0  0
  181.7600  178.8840  144.0780 C   0  0  0  0  0  3  0  0  0  0  0  0
  183.1480  178.8570  144.2320 C   0  0  0  0  0  3  0  0  0  0  0  0
  184.2110  178.3980  140.7130 C   0  0  0  0  0  3  0  0  0  0  0  0
  181.1960  178.7440  142.8080 C   0  0  0  0  0  0  0  0  0  0  0  0
  186.2050  178.5030  142.0990 C   0  0  0  0  0  0  0  0  0  0  0  0
  179.7190  178.7720  142.6460 C   0  0  0  0  0  1  0  0  0  0  0  0
  185.5960  178.3790  140.8420 C   0  0  0  0  0  3  0  0  0  0  0  0
  183.4070  178.5530  141.8390 C   0  0  0  0  0  0  0  0  0  0  0  0
  182.0180  178.5790  141.6910 C   0  0  0  0  0  3  0  0  0  0  0  0
  185.5510  179.2720  146.8390 O   0  0  0  0  0  0  0  0  0  0  0  0
  186.1040  178.8140  144.5950 C   0  0  1  0  0  3  0  0  0  0  0  0
  185.6490  177.8750  146.7230 C   0  0  0  0  0  2  0  0  0  0  0  0
  185.3690  179.7450  145.5290 C   0  0  0  0  0  2  0  0  0  0  0  0
  186.2130  177.5260  145.3570 C   0  0  2  0  0  3  0  0  0  0  0  0
  188.1800  177.4330  146.8720 C   0  0  0  0  0  1  0  0  0  0  0  0
  187.6750  177.1330  145.4750 C   0  0  0  0  0  2  0  0  0  0  0  0
  187.7080  178.5250  142.1850 C   0  0  2  0  0  3  0  0  0  0  0  0
  188.2520  179.3790  141.1430 N   0  0  0  0  0  1  0  0  0  0  0  0
  188.2990  177.1250  142.0620 C   0  0  0  0  0  2  0  0  0  0  0  0
  190.6420  176.7600  142.7350 C   0  0  0  0  0  1  0  0  0  0  0  0
  189.7410  177.1940  141.5940 C   0  0  1  0  0  3  0  0  0  0  0  0
  189.9100  176.3220  140.4770 O   0  0  0  0  0  0  0  0  0  0  0  0
  189.1590  178.3040  137.4320 C   0  0  0  0  0  0  0  0  0  0  0  0
  190.6660  176.4250  136.7740 C   0  0  0  0  0  2  0  0  0  0  0  0
  188.3270  179.2000  137.1310 O   0  0  0  0  0  0  0  0  0  0  0  0
  189.6670  178.1830  138.8390 C   0  0  0  0  0  2  0  0  0  0  0  0
  190.4900  175.9390  138.1850 C   0  0  0  0  0  3  0  0  0  0  0  0
  190.0390  176.7570  139.1520 C   0  0  0  0  0  0  0  0  0  0  0  0
  189.6220  177.3880  136.4380 N   0  0  0  0  0  2  0  0  0  0  0  0
  2  1  1  0  0  0  0
  2  4  1  0  0  0  0
  3  4  2  0  0  0  0
  5  9  2  0  0  0  0
  5 10  1  0  0  0  0
  6  3  1  0  0  0  0
  7 19  1  0  0  0  0
  7  1  2  0  0  0  0
  8  6  1  0  0  0  0
  9  7  1  0  0  0  0
 10  2  2  0  0  0  0
 11 10  1  0  0  0  0
 11  6  2  0  0  0  0
 13  1  1  6  0  0  0
 13 16  1  0  0  0  0
 13 15  1  0  0  0  0
 14 12  1  0  0  0  0
 15 12  1  0  0  0  0
 16 18  1  1  0  0  0
 16 14  1  0  0  0  0
 18 17  1  0  0  0  0
 19 20  1  6  0  0  0
 21 19  1  0  0  0  0
 23 21  1  0  0  0  0
 23 22  1  1  0  0  0
 24 23  1  0  0  0  0
 25 28  1  0  0  0  0
 26 29  1  0  0  0  0
 27 25  2  0  0  0  0
 28 30  1  0  0  0  0
 29 30  2  0  0  0  0
 30 24  1  0  0  0  0
 31 26  1  0  0  0  0
 31 25  1  0  0  0  0
M  END
>  <MODEL>
9

>  <REMARK>
 VINA RESULT:      -7.7      2.724      4.462
  Name = 
  7 active torsions:
  status: ('A' for Active; 'I' for Inactive)
    1  A    between atoms: O_3  and  C_9
    2  A    between atoms: O_3  and  C_22
    3  A    between atoms: C_4  and  C_12
    4  A    between atoms: C_9  and  C_23
    5  A    between atoms: C_15  and  C_21
    6  A    between atoms: C_15  and  C_23
    7  A    between atoms: C_27  and  C_28
                            x       y       z     vdW  Elec       q    Type
                         _______ _______ _______ _____ _____    ______ ____

>  <TORSDO>
F 7

$$$$
