=
 OpenBabel11052415243D

 37 42  0  0  1  0  0  0  0  0999 V2000
  189.2440  178.2260  138.2330 C   0  0  2  0  0  0  0  0  0  0  0  0
  188.8260  176.3110  141.9000 C   0  0  0  0  0  2  0  0  0  0  0  0
  189.6060  176.0910  136.9210 C   0  0  2  0  0  3  0  0  0  0  0  0
  189.1000  178.3040  139.7380 C   0  0  1  0  0  3  0  0  0  0  0  0
  190.2680  177.2040  137.7860 C   0  0  2  0  0  3  0  0  0  0  0  0
  187.8170  177.7200  140.1660 N   0  0  0  0  0  0  0  0  0  0  0  0
  188.3320  176.5910  136.2150 C   0  0  0  0  0  2  0  0  0  0  0  0
  190.9350  176.7130  139.0770 C   0  0  1  0  0  3  0  0  0  0  0  0
  189.3030  179.5630  137.5370 C   0  0  0  0  0  2  0  0  0  0  0  0
  188.3810  177.9810  135.9980 O   0  0  0  0  0  0  0  0  0  0  0  0
  191.5390  177.8060  139.7480 O   0  0  0  0  0  0  0  0  0  0  0  0
  187.8530  177.4500  141.6070 C   0  0  0  0  0  2  0  0  0  0  0  0
  188.1500  178.6020  137.2430 C   0  0  1  0  0  3  0  0  0  0  0  0
  190.2650  177.4140  140.1970 C   0  0  1  0  0  0  0  0  0  0  0  0
  190.2550  176.7300  141.5570 C   0  0  1  0  0  3  0  0  0  0  0  0
  190.7380  177.6100  142.5310 O   0  0  0  0  0  0  0  0  0  0  0  0
  190.4080  177.0230  143.7600 C   0  0  1  0  0  3  0  0  0  0  0  0
  191.6390  176.3980  144.4010 C   0  0  0  0  0  2  0  0  0  0  0  0
  192.1060  175.6500  146.7120 C   0  0  0  0  0  1  0  0  0  0  0  0
  191.7660  176.8440  145.8440 C   0  0  0  0  0  2  0  0  0  0  0  0
  189.7790  178.0550  144.6930 C   0  0  0  0  0  2  0  0  0  0  0  0
  188.3300  177.7230  145.0150 C   0  0  0  0  0  2  0  0  0  0  0  0
  188.0980  177.7110  146.8130 S   0  0  0  0  0  0  0  0  0  0  0  0
  186.3950  178.3130  146.6630 C   0  0  0  0  0  1  0  0  0  0  0  0
  189.2520  174.8190  137.6880 C   0  0  0  0  0  2  0  0  0  0  0  0
  189.6170  173.5680  136.8970 C   0  0  0  0  0  2  0  0  0  0  0  0
  187.1450  173.3490  137.1740 C   0  0  0  0  0  1  0  0  0  0  0  0
  188.4140  172.6550  136.7190 C   0  0  0  0  0  2  0  0  0  0  0  0
  186.8630  178.6680  139.9820 O   0  0  0  0  0  0  0  0  0  0  0  0
  186.5210  179.0950  141.2720 C   0  0  0  0  0  2  0  0  0  0  0  0
  183.9220  179.1280  140.3520 S   0  0  0  0  0  0  0  0  0  0  0  0
  185.1190  178.6340  141.6400 C   0  0  2  0  0  3  0  0  0  0  0  0
  184.7100  179.1930  142.9980 C   0  0  0  0  0  2  0  0  0  0  0  0
  183.0820  179.0540  144.8610 C   0  0  0  0  0  1  0  0  0  0  0  0
  182.2650  178.8660  142.5290 C   0  0  0  0  0  2  0  0  0  0  0  0
  183.4160  178.5450  143.4740 C   0  0  1  0  0  3  0  0  0  0  0  0
  182.5290  178.2710  141.1530 C   0  0  0  0  0  2  0  0  0  0  0  0
  1  9  1  6  0  0  0
  1  4  1  0  0  0  0
  3 25  1  1  0  0  0
  3  5  1  0  0  0  0
  4  6  1  6  0  0  0
  4 14  1  0  0  0  0
  5  1  1  0  0  0  0
  5  8  1  0  0  0  0
  6 12  1  0  0  0  0
  7  3  1  0  0  0  0
  8 11  1  0  0  0  0
  8 14  1  0  0  0  0
 10  7  1  0  0  0  0
 10 13  1  0  0  0  0
 11 14  1  0  0  0  0
 12  2  1  0  0  0  0
 13  9  1  0  0  0  0
 13  1  1  0  0  0  0
 14 15  1  0  0  0  0
 15  2  1  0  0  0  0
 15 16  1  0  0  0  0
 16 17  1  0  0  0  0
 17 18  1  0  0  0  0
 17 21  1  0  0  0  0
 18 20  1  0  0  0  0
 20 19  1  0  0  0  0
 21 22  1  0  0  0  0
 22 23  1  0  0  0  0
 24 23  1  0  0  0  0
 26 25  1  0  0  0  0
 28 26  1  0  0  0  0
 28 27  1  0  0  0  0
 29  6  1  0  0  0  0
 29 30  1  0  0  0  0
 30 32  1  0  0  0  0
 31 37  1  0  0  0  0
 31 32  1  0  0  0  0
 32 33  1  0  0  0  0
 33 36  1  0  0  0  0
 35 36  1  0  0  0  0
 36 34  1  0  0  0  0
 37 35  1  0  0  0  0
M  END
>  <MODEL>
1

>  <REMARK>
 VINA RESULT:      -6.6      0.000      0.000
  Name = 
  13 active torsions:
  status: ('A' for Active; 'I' for Inactive)
    1  A    between atoms: O_1  and  C_33
    2  A    between atoms: O_1  and  C_36
    3  A    between atoms: C_3  and  C_30
    4  A    between atoms: C_3  and  C_32
    5  A    between atoms: C_5  and  C_23
    6  A    between atoms: C_5  and  C_33
    7  A    between atoms: C_6  and  C_31
    8  A    between atoms: C_9  and  C_30
    9  A    between atoms: S_11  and  C_26
   10  A    between atoms: N_14  and  O_37
   11  A    between atoms: C_17  and  C_26
   12  A    between atoms: C_17  and  C_33
   13  A    between atoms: C_31  and  O_37
                            x       y       z     vdW  Elec       q    Type
                         _______ _______ _______ _____ _____    ______ ____

>  <TORSDO>
F 13

$$$$
=
 OpenBabel11052415243D

 37 42  0  0  1  0  0  0  0  0999 V2000
  189.1980  178.3030  138.1920 C   0  0  2  0  0  0  0  0  0  0  0  0
  188.6770  176.4570  141.8800 C   0  0  0  0  0  2  0  0  0  0  0  0
  189.5460  176.1410  136.9220 C   0  0  2  0  0  3  0  0  0  0  0  0
  189.0280  178.4090  139.6920 C   0  0  1  0  0  3  0  0  0  0  0  0
  190.2120  177.2560  137.7800 C   0  0  2  0  0  3  0  0  0  0  0  0
  187.7260  177.8550  140.1050 N   0  0  0  0  0  0  0  0  0  0  0  0
  188.2950  176.6510  136.1840 C   0  0  0  0  0  2  0  0  0  0  0  0
  190.8460  176.7750  139.0910 C   0  0  1  0  0  3  0  0  0  0  0  0
  189.2940  179.6270  137.4750 C   0  0  0  0  0  2  0  0  0  0  0  0
  188.3730  178.0370  135.9440 O   0  0  0  0  0  0  0  0  0  0  0  0
  191.4570  177.8680  139.7560 O   0  0  0  0  0  0  0  0  0  0  0  0
  187.7310  177.6080  141.5510 C   0  0  0  0  0  2  0  0  0  0  0  0
  188.1300  178.6820  137.1740 C   0  0  1  0  0  3  0  0  0  0  0  0
  190.1680  177.5060  140.1870 C   0  0  1  0  0  0  0  0  0  0  0  0
  190.1200  176.8440  141.5580 C   0  0  1  0  0  3  0  0  0  0  0  0
  190.6010  177.7330  142.5270 O   0  0  0  0  0  0  0  0  0  0  0  0
  190.3170  177.1290  143.7590 C   0  0  1  0  0  3  0  0  0  0  0  0
  191.5600  176.4540  144.3220 C   0  0  0  0  0  2  0  0  0  0  0  0
  192.1260  175.5790  146.5650 C   0  0  0  0  0  1  0  0  0  0  0  0
  191.7400  176.8160  145.7820 C   0  0  0  0  0  2  0  0  0  0  0  0
  189.7680  178.1580  144.7440 C   0  0  0  0  0  2  0  0  0  0  0  0
  188.3420  177.8380  145.1660 C   0  0  0  0  0  2  0  0  0  0  0  0
  188.2640  177.6960  146.9710 S   0  0  0  0  0  0  0  0  0  0  0  0
  186.5340  178.2370  147.0040 C   0  0  0  0  0  1  0  0  0  0  0  0
  189.1550  174.8880  137.7020 C   0  0  0  0  0  2  0  0  0  0  0  0
  189.7260  173.6280  137.0620 C   0  0  0  0  0  2  0  0  0  0  0  0
  191.9150  172.8880  136.1140 C   0  0  0  0  0  1  0  0  0  0  0  0
  190.8430  173.9610  136.0850 C   0  0  0  0  0  2  0  0  0  0  0  0
  186.7930  178.8160  139.8870 O   0  0  0  0  0  0  0  0  0  0  0  0
  186.0440  178.8690  141.0710 C   0  0  0  0  0  2  0  0  0  0  0  0
  183.5490  178.3570  142.1270 S   0  0  0  0  0  0  0  0  0  0  0  0
  184.5630  179.0320  140.7650 C   0  0  2  0  0  3  0  0  0  0  0  0
  184.2090  178.3550  139.4460 C   0  0  0  0  0  2  0  0  0  0  0  0
  182.5010  178.1040  137.6690 C   0  0  0  0  0  1  0  0  0  0  0  0
  181.7730  178.2110  140.0360 C   0  0  0  0  0  2  0  0  0  0  0  0
  182.7920  178.7180  139.0230 C   0  0  1  0  0  3  0  0  0  0  0  0
  181.9780  178.8940  141.3800 C   0  0  0  0  0  2  0  0  0  0  0  0
  1  9  1  6  0  0  0
  1  4  1  0  0  0  0
  3 25  1  1  0  0  0
  3  5  1  0  0  0  0
  4  6  1  6  0  0  0
  4 14  1  0  0  0  0
  5  1  1  0  0  0  0
  5  8  1  0  0  0  0
  6 12  1  0  0  0  0
  7  3  1  0  0  0  0
  8 11  1  0  0  0  0
  8 14  1  0  0  0  0
 10  7  1  0  0  0  0
 10 13  1  0  0  0  0
 11 14  1  0  0  0  0
 12  2  1  0  0  0  0
 13  9  1  0  0  0  0
 13  1  1  0  0  0  0
 14 15  1  0  0  0  0
 15  2  1  0  0  0  0
 15 16  1  0  0  0  0
 16 17  1  0  0  0  0
 17 18  1  0  0  0  0
 17 21  1  0  0  0  0
 18 20  1  0  0  0  0
 20 19  1  0  0  0  0
 21 22  1  0  0  0  0
 22 23  1  0  0  0  0
 23 24  1  0  0  0  0
 26 25  1  0  0  0  0
 28 27  1  0  0  0  0
 28 26  1  0  0  0  0
 29  6  1  0  0  0  0
 29 30  1  0  0  0  0
 32 30  1  0  0  0  0
 32 31  1  0  0  0  0
 33 32  1  0  0  0  0
 34 36  1  0  0  0  0
 35 37  1  0  0  0  0
 36 33  1  0  0  0  0
 36 35  1  0  0  0  0
 37 31  1  0  0  0  0
M  END
>  <MODEL>
2

>  <REMARK>
 VINA RESULT:      -6.4      1.075      1.893
  Name = 
  13 active torsions:
  status: ('A' for Active; 'I' for Inactive)
    1  A    between atoms: O_1  and  C_33
    2  A    between atoms: O_1  and  C_36
    3  A    between atoms: C_3  and  C_30
    4  A    between atoms: C_3  and  C_32
    5  A    between atoms: C_5  and  C_23
    6  A    between atoms: C_5  and  C_33
    7  A    between atoms: C_6  and  C_31
    8  A    between atoms: C_9  and  C_30
    9  A    between atoms: S_11  and  C_26
   10  A    between atoms: N_14  and  O_37
   11  A    between atoms: C_17  and  C_26
   12  A    between atoms: C_17  and  C_33
   13  A    between atoms: C_31  and  O_37
                            x       y       z     vdW  Elec       q    Type
                         _______ _______ _______ _____ _____    ______ ____

>  <TORSDO>
F 13

$$$$
=
 OpenBabel11052415243D

 37 42  0  0  1  0  0  0  0  0999 V2000
  180.8040  177.9750  138.6010 C   0  0  2  0  0  0  0  0  0  0  0  0
  184.5720  179.2820  139.7740 C   0  0  0  0  0  2  0  0  0  0  0  0
  179.7910  180.2940  138.5270 C   0  0  2  0  0  3  0  0  0  0  0  0
  182.2110  177.6580  139.0620 C   0  0  1  0  0  3  0  0  0  0  0  0
  180.1420  179.0660  139.4170 C   0  0  2  0  0  3  0  0  0  0  0  0
  183.1980  178.1530  138.0860 N   0  0  0  0  0  0  0  0  0  0  0  0
  179.5880  179.8980  137.0520 C   0  0  0  0  0  2  0  0  0  0  0  0
  181.1150  179.3530  140.5660 C   0  0  1  0  0  3  0  0  0  0  0  0
  179.9520  176.7660  138.3070 C   0  0  0  0  0  2  0  0  0  0  0  0
  179.1640  178.5610  136.9360 O   0  0  0  0  0  0  0  0  0  0  0  0
  181.3180  178.1750  141.3270 O   0  0  0  0  0  0  0  0  0  0  0  0
  184.5270  178.1920  138.7060 C   0  0  0  0  0  2  0  0  0  0  0  0
  180.2900  177.7480  137.1850 C   0  0  1  0  0  3  0  0  0  0  0  0
  182.2920  178.4770  140.3590 C   0  0  1  0  0  0  0  0  0  0  0  0
  183.6280  178.9380  140.9260 C   0  0  1  0  0  3  0  0  0  0  0  0
  184.1840  177.9190  141.7080 O   0  0  0  0  0  0  0  0  0  0  0  0
  184.9680  178.5740  142.6680 C   0  0  1  0  0  3  0  0  0  0  0  0
  184.1850  178.7570  143.9610 C   0  0  0  0  0  2  0  0  0  0  0  0
  184.7370  178.3980  146.3450 C   0  0  0  0  0  1  0  0  0  0  0  0
  185.1170  179.1540  145.0890 C   0  0  0  0  0  2  0  0  0  0  0  0
  186.2580  177.7980  142.9230 C   0  0  0  0  0  2  0  0  0  0  0  0
  187.3820  178.2440  142.0010 C   0  0  0  0  0  2  0  0  0  0  0  0
  188.9420  177.4970  142.5450 S   0  0  0  0  0  0  0  0  0  0  0  0
  188.2990  177.2160  144.2180 C   0  0  0  0  0  1  0  0  0  0  0  0
  180.8160  181.4250  138.5740 C   0  0  0  0  0  2  0  0  0  0  0  0
  180.8680  182.1890  137.2570 C   0  0  0  0  0  2  0  0  0  0  0  0
  181.1270  184.4220  136.1690 C   0  0  0  0  0  1  0  0  0  0  0  0
  181.0060  183.6860  137.4890 C   0  0  0  0  0  2  0  0  0  0  0  0
  183.2720  177.2370  137.0890 O   0  0  0  0  0  0  0  0  0  0  0  0
  184.5410  176.6560  137.2220 C   0  0  0  0  0  2  0  0  0  0  0  0
  183.0150  174.3610  137.2820 S   0  0  0  0  0  0  0  0  0  0  0  0
  184.5310  175.2170  136.7300 C   0  0  2  0  0  3  0  0  0  0  0  0
  185.7730  174.4760  137.2130 C   0  0  0  0  0  2  0  0  0  0  0  0
  187.1700  172.4460  136.9630 C   0  0  0  0  0  1  0  0  0  0  0  0
  184.7020  172.2280  136.8910 C   0  0  0  0  0  2  0  0  0  0  0  0
  185.8840  173.1200  136.5310 C   0  0  1  0  0  3  0  0  0  0  0  0
  183.4060  172.8330  136.3720 C   0  0  0  0  0  2  0  0  0  0  0  0
  1  9  1  1  0  0  0
  1  4  1  0  0  0  0
  1  5  1  0  0  0  0
  2 15  1  0  0  0  0
  3 25  1  6  0  0  0
  3  5  1  0  0  0  0
  4  6  1  6  0  0  0
  4 14  1  0  0  0  0
  5  8  1  0  0  0  0
  6 12  1  0  0  0  0
  7  3  1  0  0  0  0
  8 11  1  0  0  0  0
 10  7  1  0  0  0  0
 10 13  1  0  0  0  0
 12  2  1  0  0  0  0
 13  9  1  0  0  0  0
 13  1  1  0  0  0  0
 14  8  1  0  0  0  0
 14 15  1  0  0  0  0
 14 11  1  0  0  0  0
 15 16  1  0  0  0  0
 16 17  1  0  0  0  0
 17 21  1  0  0  0  0
 17 18  1  0  0  0  0
 18 20  1  0  0  0  0
 20 19  1  0  0  0  0
 22 23  1  0  0  0  0
 22 21  1  0  0  0  0
 23 24  1  0  0  0  0
 26 28  1  0  0  0  0
 26 25  1  0  0  0  0
 27 28  1  0  0  0  0
 29 30  1  0  0  0  0
 29  6  1  0  0  0  0
 32 33  1  0  0  0  0
 32 30  1  0  0  0  0
 32 31  1  0  0  0  0
 36 35  1  0  0  0  0
 36 34  1  0  0  0  0
 36 33  1  0  0  0  0
 37 35  1  0  0  0  0
 37 31  1  0  0  0  0
M  END
>  <MODEL>
3

>  <REMARK>
 VINA RESULT:      -6.4      3.930      8.233
  Name = 
  13 active torsions:
  status: ('A' for Active; 'I' for Inactive)
    1  A    between atoms: O_1  and  C_33
    2  A    between atoms: O_1  and  C_36
    3  A    between atoms: C_3  and  C_30
    4  A    between atoms: C_3  and  C_32
    5  A    between atoms: C_5  and  C_23
    6  A    between atoms: C_5  and  C_33
    7  A    between atoms: C_6  and  C_31
    8  A    between atoms: C_9  and  C_30
    9  A    between atoms: S_11  and  C_26
   10  A    between atoms: N_14  and  O_37
   11  A    between atoms: C_17  and  C_26
   12  A    between atoms: C_17  and  C_33
   13  A    between atoms: C_31  and  O_37
                            x       y       z     vdW  Elec       q    Type
                         _______ _______ _______ _____ _____    ______ ____

>  <TORSDO>
F 13

$$$$
=
 OpenBabel11052415243D

 37 42  0  0  1  0  0  0  0  0999 V2000
  188.2630  177.5120  136.7480 C   0  0  2  0  0  0  0  0  0  0  0  0
  191.1580  174.6420  137.5670 C   0  0  0  0  0  2  0  0  0  0  0  0
  186.5290  175.8430  135.9630 C   0  0  2  0  0  3  0  0  0  0  0  0
  189.6820  177.1650  137.1430 C   0  0  1  0  0  3  0  0  0  0  0  0
  187.7610  176.7080  135.5670 C   0  0  2  0  0  3  0  0  0  0  0  0
  189.6980  176.4200  138.4150 N   0  0  0  0  0  0  0  0  0  0  0  0
  185.7550  176.4510  137.1480 C   0  0  0  0  0  2  0  0  0  0  0  0
  188.9790  175.9160  135.0740 C   0  0  1  0  0  3  0  0  0  0  0  0
  187.9650  178.9900  136.7100 C   0  0  0  0  0  2  0  0  0  0  0  0
  185.9220  177.8480  137.2030 O   0  0  0  0  0  0  0  0  0  0  0  0
  190.0130  176.8120  134.7020 O   0  0  0  0  0  0  0  0  0  0  0  0
  190.9980  175.7660  138.5880 C   0  0  0  0  0  2  0  0  0  0  0  0
  187.2210  178.0900  137.6960 C   0  0  1  0  0  3  0  0  0  0  0  0
  190.1000  176.2460  135.9860 C   0  0  1  0  0  0  0  0  0  0  0  0
  191.2070  175.2130  136.1500 C   0  0  1  0  0  3  0  0  0  0  0  0
  192.4500  175.8160  135.9240 O   0  0  0  0  0  0  0  0  0  0  0  0
  193.3870  174.7770  136.0040 C   0  0  1  0  0  3  0  0  0  0  0  0
  193.7100  174.2410  134.6170 C   0  0  0  0  0  2  0  0  0  0  0  0
  193.1830  171.9770  135.4610 C   0  0  0  0  0  1  0  0  0  0  0  0
  194.1980  172.8090  134.7060 C   0  0  0  0  0  2  0  0  0  0  0  0
  194.6550  175.2550  136.7080 C   0  0  0  0  0  2  0  0  0  0  0  0
  194.8050  174.6390  138.0900 C   0  0  0  0  0  2  0  0  0  0  0  0
  196.5170  174.0880  138.3230 S   0  0  0  0  0  0  0  0  0  0  0  0
  196.0930  172.3770  137.8990 C   0  0  0  0  0  1  0  0  0  0  0  0
  186.8560  174.3920  136.3080 C   0  0  0  0  0  2  0  0  0  0  0  0
  185.8150  173.4340  135.7440 C   0  0  0  0  0  2  0  0  0  0  0  0
  183.7370  172.8870  137.0170 C   0  0  0  0  0  1  0  0  0  0  0  0
  185.2090  172.5680  136.8380 C   0  0  0  0  0  2  0  0  0  0  0  0
  189.5940  177.3310  139.4150 O   0  0  0  0  0  0  0  0  0  0  0  0
  190.4830  176.8860  140.4030 C   0  0  0  0  0  2  0  0  0  0  0  0
  191.5740  177.3810  142.8870 S   0  0  0  0  0  0  0  0  0  0  0  0
  190.1500  177.5100  141.7500 C   0  0  2  0  0  3  0  0  0  0  0  0
  188.9160  176.8520  142.3560 C   0  0  0  0  0  2  0  0  0  0  0  0
  187.1690  177.0020  144.1060 C   0  0  0  0  0  1  0  0  0  0  0  0
  189.5010  177.6170  144.6750 C   0  0  0  0  0  2  0  0  0  0  0  0
  188.4430  177.6270  143.5790 C   0  0  1  0  0  3  0  0  0  0  0  0
  190.7580  178.3360  144.2050 C   0  0  0  0  0  2  0  0  0  0  0  0
  1  9  1  6  0  0  0
  1  4  1  0  0  0  0
  1 13  1  0  0  0  0
  2 12  1  0  0  0  0
  3 25  1  1  0  0  0
  3  7  1  0  0  0  0
  4  6  1  1  0  0  0
  5  3  1  0  0  0  0
  5  1  1  0  0  0  0
  6 12  1  0  0  0  0
  6 29  1  0  0  0  0
  7 10  1  0  0  0  0
  8  5  1  0  0  0  0
  8 14  1  0  0  0  0
  9 13  1  0  0  0  0
 10 13  1  0  0  0  0
 11  8  1  0  0  0  0
 11 14  1  0  0  0  0
 14 15  1  0  0  0  0
 14  4  1  0  0  0  0
 15  2  1  0  0  0  0
 16 17  1  0  0  0  0
 16 15  1  0  0  0  0
 17 21  1  0  0  0  0
 18 20  1  0  0  0  0
 18 17  1  0  0  0  0
 20 19  1  0  0  0  0
 21 22  1  0  0  0  0
 22 23  1  0  0  0  0
 24 23  1  0  0  0  0
 26 25  1  0  0  0  0
 26 28  1  0  0  0  0
 28 27  1  0  0  0  0
 29 30  1  0  0  0  0
 30 32  1  0  0  0  0
 31 37  1  0  0  0  0
 32 33  1  0  0  0  0
 32 31  1  0  0  0  0
 33 36  1  0  0  0  0
 36 34  1  0  0  0  0
 36 35  1  0  0  0  0
 37 35  1  0  0  0  0
M  END
>  <MODEL>
4

>  <REMARK>
 VINA RESULT:      -6.2      3.508      6.702
  Name = 
  13 active torsions:
  status: ('A' for Active; 'I' for Inactive)
    1  A    between atoms: O_1  and  C_33
    2  A    between atoms: O_1  and  C_36
    3  A    between atoms: C_3  and  C_30
    4  A    between atoms: C_3  and  C_32
    5  A    between atoms: C_5  and  C_23
    6  A    between atoms: C_5  and  C_33
    7  A    between atoms: C_6  and  C_31
    8  A    between atoms: C_9  and  C_30
    9  A    between atoms: S_11  and  C_26
   10  A    between atoms: N_14  and  O_37
   11  A    between atoms: C_17  and  C_26
   12  A    between atoms: C_17  and  C_33
   13  A    between atoms: C_31  and  O_37
                            x       y       z     vdW  Elec       q    Type
                         _______ _______ _______ _____ _____    ______ ____

>  <TORSDO>
F 13

$$$$
=
 OpenBabel11052415243D

 37 42  0  0  1  0  0  0  0  0999 V2000
  188.1630  177.5830  136.7520 C   0  0  2  0  0  0  0  0  0  0  0  0
  191.2180  174.8840  137.5710 C   0  0  0  0  0  2  0  0  0  0  0  0
  186.7580  175.9230  135.4550 C   0  0  2  0  0  3  0  0  0  0  0  0
  189.5410  177.3020  137.3110 C   0  0  1  0  0  3  0  0  0  0  0  0
  187.9290  176.9480  135.3970 C   0  0  2  0  0  3  0  0  0  0  0  0
  189.4600  176.3570  138.4390 N   0  0  0  0  0  0  0  0  0  0  0  0
  185.7600  176.2510  136.5800 C   0  0  0  0  0  2  0  0  0  0  0  0
  189.2860  176.3630  134.9890 C   0  0  1  0  0  3  0  0  0  0  0  0
  187.7070  179.0140  136.8950 C   0  0  0  0  0  2  0  0  0  0  0  0
  185.7570  177.6280  136.8760 O   0  0  0  0  0  0  0  0  0  0  0  0
  190.2540  177.3970  134.9280 O   0  0  0  0  0  0  0  0  0  0  0  0
  190.7880  175.8010  138.7140 C   0  0  0  0  0  2  0  0  0  0  0  0
  186.9370  177.8970  137.6000 C   0  0  1  0  0  3  0  0  0  0  0  0
  190.2210  176.6320  136.1070 C   0  0  1  0  0  0  0  0  0  0  0  0
  191.4030  175.6890  136.2850 C   0  0  1  0  0  3  0  0  0  0  0  0
  192.5890  176.4290  136.3540 O   0  0  0  0  0  0  0  0  0  0  0  0
  193.5620  175.6310  135.7370 C   0  0  1  0  0  3  0  0  0  0  0  0
  194.2250  176.3860  134.5940 C   0  0  0  0  0  2  0  0  0  0  0  0
  195.9160  178.1870  134.7140 C   0  0  0  0  0  1  0  0  0  0  0  0
  195.6640  176.7110  134.9400 C   0  0  0  0  0  2  0  0  0  0  0  0
  194.6030  175.1730  136.7560 C   0  0  0  0  0  2  0  0  0  0  0  0
  194.5940  173.6640  136.9400 C   0  0  0  0  0  2  0  0  0  0  0  0
  195.6800  172.8990  135.7070 S   0  0  0  0  0  0  0  0  0  0  0  0
  194.9810  171.2550  136.0160 C   0  0  0  0  0  1  0  0  0  0  0  0
  187.1960  174.4700  135.6210 C   0  0  0  0  0  2  0  0  0  0  0  0
  187.0690  174.0090  137.0670 C   0  0  0  0  0  2  0  0  0  0  0  0
  186.7790  171.8310  135.8810 C   0  0  0  0  0  1  0  0  0  0  0  0
  187.1900  172.4970  137.1800 C   0  0  0  0  0  2  0  0  0  0  0  0
  189.1120  177.0720  139.5380 O   0  0  0  0  0  0  0  0  0  0  0  0
  190.0850  176.7590  140.4970 C   0  0  0  0  0  2  0  0  0  0  0  0
  191.3060  177.5170  142.8490 S   0  0  0  0  0  0  0  0  0  0  0  0
  189.8090  177.4860  141.8040 C   0  0  2  0  0  3  0  0  0  0  0  0
  188.6480  176.8340  142.5460 C   0  0  0  0  0  2  0  0  0  0  0  0
  187.0090  177.0690  144.3900 C   0  0  0  0  0  1  0  0  0  0  0  0
  189.3420  177.8270  144.7460 C   0  0  0  0  0  2  0  0  0  0  0  0
  188.2170  177.6960  143.7260 C   0  0  1  0  0  3  0  0  0  0  0  0
  190.5310  178.5510  144.1330 C   0  0  0  0  0  2  0  0  0  0  0  0
  1  9  1  6  0  0  0
  1  4  1  0  0  0  0
  1 13  1  0  0  0  0
  2 12  1  0  0  0  0
  3 25  1  1  0  0  0
  3  7  1  0  0  0  0
  4  6  1  1  0  0  0
  5  3  1  0  0  0  0
  5  1  1  0  0  0  0
  6 12  1  0  0  0  0
  6 29  1  0  0  0  0
  7 10  1  0  0  0  0
  8  5  1  0  0  0  0
  8 14  1  0  0  0  0
  9 13  1  0  0  0  0
 10 13  1  0  0  0  0
 11  8  1  0  0  0  0
 11 14  1  0  0  0  0
 14 15  1  0  0  0  0
 14  4  1  0  0  0  0
 15 16  1  0  0  0  0
 15  2  1  0  0  0  0
 17 16  1  0  0  0  0
 17 21  1  0  0  0  0
 18 20  1  0  0  0  0
 18 17  1  0  0  0  0
 19 20  1  0  0  0  0
 21 22  1  0  0  0  0
 23 24  1  0  0  0  0
 23 22  1  0  0  0  0
 25 26  1  0  0  0  0
 26 28  1  0  0  0  0
 27 28  1  0  0  0  0
 29 30  1  0  0  0  0
 30 32  1  0  0  0  0
 31 37  1  0  0  0  0
 32 33  1  0  0  0  0
 32 31  1  0  0  0  0
 33 36  1  0  0  0  0
 36 34  1  0  0  0  0
 36 35  1  0  0  0  0
 37 35  1  0  0  0  0
M  END
>  <MODEL>
5

>  <REMARK>
 VINA RESULT:      -6.2      3.732      6.786
  Name = 
  13 active torsions:
  status: ('A' for Active; 'I' for Inactive)
    1  A    between atoms: O_1  and  C_33
    2  A    between atoms: O_1  and  C_36
    3  A    between atoms: C_3  and  C_30
    4  A    between atoms: C_3  and  C_32
    5  A    between atoms: C_5  and  C_23
    6  A    between atoms: C_5  and  C_33
    7  A    between atoms: C_6  and  C_31
    8  A    between atoms: C_9  and  C_30
    9  A    between atoms: S_11  and  C_26
   10  A    between atoms: N_14  and  O_37
   11  A    between atoms: C_17  and  C_26
   12  A    between atoms: C_17  and  C_33
   13  A    between atoms: C_31  and  O_37
                            x       y       z     vdW  Elec       q    Type
                         _______ _______ _______ _____ _____    ______ ____

>  <TORSDO>
F 13

$$$$
=
 OpenBabel11052415243D

 37 42  0  0  1  0  0  0  0  0999 V2000
  188.8700  178.2720  138.1050 C   0  0  2  0  0  0  0  0  0  0  0  0
  188.1800  176.6820  141.8840 C   0  0  0  0  0  2  0  0  0  0  0  0
  189.1140  176.0220  136.9720 C   0  0  2  0  0  3  0  0  0  0  0  0
  188.6810  178.4770  139.5930 C   0  0  1  0  0  3  0  0  0  0  0  0
  189.8290  177.1460  137.7770 C   0  0  2  0  0  3  0  0  0  0  0  0
  187.3420  178.0240  140.0110 N   0  0  0  0  0  0  0  0  0  0  0  0
  187.9070  176.5580  136.1790 C   0  0  0  0  0  2  0  0  0  0  0  0
  190.4110  176.7090  139.1270 C   0  0  1  0  0  3  0  0  0  0  0  0
  189.0560  179.5430  137.3150 C   0  0  0  0  0  2  0  0  0  0  0  0
  188.0700  177.9200  135.8610 O   0  0  0  0  0  0  0  0  0  0  0  0
  191.0730  177.8030  139.7390 O   0  0  0  0  0  0  0  0  0  0  0  0
  187.3080  177.8640  141.4680 C   0  0  0  0  0  2  0  0  0  0  0  0
  187.8440  178.6510  137.0460 C   0  0  1  0  0  3  0  0  0  0  0  0
  189.7580  177.5420  140.1640 C   0  0  1  0  0  0  0  0  0  0  0  0
  189.6480  176.9670  141.5690 C   0  0  1  0  0  3  0  0  0  0  0  0
  190.1630  177.8820  142.4940 O   0  0  0  0  0  0  0  0  0  0  0  0
  190.0550  177.2520  143.7410 C   0  0  1  0  0  3  0  0  0  0  0  0
  191.4150  176.7490  144.2050 C   0  0  0  0  0  2  0  0  0  0  0  0
  191.9150  175.9630  146.4960 C   0  0  0  0  0  1  0  0  0  0  0  0
  191.6790  177.1840  145.6320 C   0  0  0  0  0  2  0  0  0  0  0  0
  189.4520  178.2050  144.7710 C   0  0  0  0  0  2  0  0  0  0  0  0
  188.4640  177.5010  145.6870 C   0  0  0  0  0  2  0  0  0  0  0  0
  186.7720  177.8910  145.1650 S   0  0  0  0  0  0  0  0  0  0  0  0
  186.3570  178.5720  146.7930 C   0  0  0  0  0  1  0  0  0  0  0  0
  188.6370  174.8420  137.8160 C   0  0  0  0  0  2  0  0  0  0  0  0
  188.8450  173.5160  137.0940 C   0  0  0  0  0  2  0  0  0  0  0  0
  186.4750  172.7450  137.2430 C   0  0  0  0  0  1  0  0  0  0  0  0
  187.6080  173.1150  136.3050 C   0  0  0  0  0  2  0  0  0  0  0  0
  186.4710  179.0220  139.7180 O   0  0  0  0  0  0  0  0  0  0  0  0
  185.3160  178.7230  140.4540 C   0  0  0  0  0  2  0  0  0  0  0  0
  183.1950  179.8120  139.0700 S   0  0  0  0  0  0  0  0  0  0  0  0
  184.1710  178.3380  139.5290 C   0  0  2  0  0  3  0  0  0  0  0  0
  183.2820  177.2870  140.1850 C   0  0  0  0  0  2  0  0  0  0  0  0
  181.4760  175.6280  139.8320 C   0  0  0  0  0  1  0  0  0  0  0  0
  181.3420  177.8200  138.6830 C   0  0  0  0  0  2  0  0  0  0  0  0
  182.2840  176.7300  139.1780 C   0  0  1  0  0  3  0  0  0  0  0  0
  182.1190  178.8880  137.9270 C   0  0  0  0  0  2  0  0  0  0  0  0
  1  9  1  6  0  0  0
  1  4  1  0  0  0  0
  3  5  1  0  0  0  0
  3 25  1  1  0  0  0
  4  6  1  1  0  0  0
  4 14  1  0  0  0  0
  5  1  1  0  0  0  0
  5  8  1  0  0  0  0
  6 12  1  0  0  0  0
  7  3  1  0  0  0  0
  8 11  1  0  0  0  0
  8 14  1  0  0  0  0
 10  7  1  0  0  0  0
 10 13  1  0  0  0  0
 11 14  1  0  0  0  0
 12  2  1  0  0  0  0
 13  9  1  0  0  0  0
 13  1  1  0  0  0  0
 14 15  1  0  0  0  0
 15  2  1  0  0  0  0
 15 16  1  0  0  0  0
 16 17  1  0  0  0  0
 17 18  1  0  0  0  0
 17 21  1  0  0  0  0
 18 20  1  0  0  0  0
 20 19  1  0  0  0  0
 21 22  1  0  0  0  0
 23 22  1  0  0  0  0
 23 24  1  0  0  0  0
 26 25  1  0  0  0  0
 28 26  1  0  0  0  0
 28 27  1  0  0  0  0
 29  6  1  0  0  0  0
 29 30  1  0  0  0  0
 31 32  1  0  0  0  0
 32 33  1  0  0  0  0
 32 30  1  0  0  0  0
 35 36  1  0  0  0  0
 36 34  1  0  0  0  0
 36 33  1  0  0  0  0
 37 35  1  0  0  0  0
 37 31  1  0  0  0  0
M  END
>  <MODEL>
6

>  <REMARK>
 VINA RESULT:      -5.9      1.331      1.859
  Name = 
  13 active torsions:
  status: ('A' for Active; 'I' for Inactive)
    1  A    between atoms: O_1  and  C_33
    2  A    between atoms: O_1  and  C_36
    3  A    between atoms: C_3  and  C_30
    4  A    between atoms: C_3  and  C_32
    5  A    between atoms: C_5  and  C_23
    6  A    between atoms: C_5  and  C_33
    7  A    between atoms: C_6  and  C_31
    8  A    between atoms: C_9  and  C_30
    9  A    between atoms: S_11  and  C_26
   10  A    between atoms: N_14  and  O_37
   11  A    between atoms: C_17  and  C_26
   12  A    between atoms: C_17  and  C_33
   13  A    between atoms: C_31  and  O_37
                            x       y       z     vdW  Elec       q    Type
                         _______ _______ _______ _____ _____    ______ ____

>  <TORSDO>
F 13

$$$$
=
 OpenBabel11052415243D

 37 42  0  0  1  0  0  0  0  0999 V2000
  187.5990  177.0150  143.6610 C   0  0  2  0  0  0  0  0  0  0  0  0
  190.1570  178.2550  140.6260 C   0  0  0  0  0  2  0  0  0  0  0  0
  189.2950  177.3430  145.5120 C   0  0  2  0  0  3  0  0  0  0  0  0
  187.8810  177.2000  142.1850 C   0  0  1  0  0  3  0  0  0  0  0  0
  188.7530  176.3840  144.4120 C   0  0  2  0  0  3  0  0  0  0  0  0
  188.0770  178.6260  141.8710 N   0  0  0  0  0  0  0  0  0  0  0  0
  188.2170  178.3290  145.9990 C   0  0  0  0  0  2  0  0  0  0  0  0
  189.7690  175.9930  143.3320 C   0  0  1  0  0  3  0  0  0  0  0  0
  186.2310  176.4640  143.9750 C   0  0  0  0  0  2  0  0  0  0  0  0
  186.9250  177.7930  145.8390 O   0  0  0  0  0  0  0  0  0  0  0  0
  189.1730  175.0860  142.4200 O   0  0  0  0  0  0  0  0  0  0  0  0
  188.7170  178.7600  140.5580 C   0  0  0  0  0  2  0  0  0  0  0  0
  186.6190  177.8600  144.4630 C   0  0  1  0  0  3  0  0  0  0  0  0
  189.2060  176.4380  142.0350 C   0  0  1  0  0  0  0  0  0  0  0  0
  190.1820  176.7530  140.9090 C   0  0  1  0  0  3  0  0  0  0  0  0
  189.8160  176.0470  139.7580 O   0  0  0  0  0  0  0  0  0  0  0  0
  190.6060  176.5770  138.7290 C   0  0  1  0  0  3  0  0  0  0  0  0
  191.7340  175.6180  138.3750 C   0  0  0  0  0  2  0  0  0  0  0  0
  193.3840  176.2440  136.6400 C   0  0  0  0  0  1  0  0  0  0  0  0
  193.0120  176.3860  138.1010 C   0  0  0  0  0  2  0  0  0  0  0  0
  189.7510  176.8830  137.5020 C   0  0  0  0  0  2  0  0  0  0  0  0
  188.4370  176.1190  137.5180 C   0  0  0  0  0  2  0  0  0  0  0  0
  187.0710  177.2600  137.1770 S   0  0  0  0  0  0  0  0  0  0  0  0
  188.2110  178.6330  136.8560 C   0  0  0  0  0  1  0  0  0  0  0  0
  190.5220  178.1520  145.0990 C   0  0  0  0  0  2  0  0  0  0  0  0
  191.8120  177.5000  145.5840 C   0  0  0  0  0  2  0  0  0  0  0  0
  192.3580  175.4460  146.8940 C   0  0  0  0  0  1  0  0  0  0  0  0
  191.5990  176.7590  146.8940 C   0  0  0  0  0  2  0  0  0  0  0  0
  186.8470  179.1850  141.7510 O   0  0  0  0  0  0  0  0  0  0  0  0
  186.3200  178.6520  140.5670 C   0  0  0  0  0  2  0  0  0  0  0  0
  183.9190  179.0840  139.2830 S   0  0  0  0  0  0  0  0  0  0  0  0
  184.8280  178.3930  140.7080 C   0  0  2  0  0  3  0  0  0  0  0  0
  184.3030  178.9760  142.0150 C   0  0  0  0  0  2  0  0  0  0  0  0
  182.4120  179.0360  143.6140 C   0  0  0  0  0  1  0  0  0  0  0  0
  181.9350  179.0190  141.1820 C   0  0  0  0  0  2  0  0  0  0  0  0
  182.8740  178.5140  142.2700 C   0  0  1  0  0  3  0  0  0  0  0  0
  182.3150  178.4230  139.8350 C   0  0  0  0  0  2  0  0  0  0  0  0
  1  9  1  6  0  0  0
  1  5  1  0  0  0  0
  1 13  1  0  0  0  0
  2 15  1  0  0  0  0
  3 25  1  6  0  0  0
  3  7  1  0  0  0  0
  4  6  1  1  0  0  0
  4  1  1  0  0  0  0
  5  3  1  0  0  0  0
  8  5  1  0  0  0  0
  9 13  1  0  0  0  0
 10  7  1  0  0  0  0
 11  8  1  0  0  0  0
 12  2  1  0  0  0  0
 12  6  1  0  0  0  0
 13 10  1  0  0  0  0
 14  4  1  0  0  0  0
 14 11  1  0  0  0  0
 14  8  1  0  0  0  0
 15 14  1  0  0  0  0
 16 15  1  0  0  0  0
 17 16  1  0  0  0  0
 18 17  1  0  0  0  0
 19 20  1  0  0  0  0
 20 18  1  0  0  0  0
 21 22  1  0  0  0  0
 21 17  1  0  0  0  0
 23 22  1  0  0  0  0
 24 23  1  0  0  0  0
 25 26  1  0  0  0  0
 26 28  1  0  0  0  0
 28 27  1  0  0  0  0
 29  6  1  0  0  0  0
 30 32  1  0  0  0  0
 30 29  1  0  0  0  0
 31 37  1  0  0  0  0
 31 32  1  0  0  0  0
 32 33  1  0  0  0  0
 33 36  1  0  0  0  0
 35 36  1  0  0  0  0
 36 34  1  0  0  0  0
 37 35  1  0  0  0  0
M  END
>  <MODEL>
7

>  <REMARK>
 VINA RESULT:      -5.7      2.219      6.404
  Name = 
  13 active torsions:
  status: ('A' for Active; 'I' for Inactive)
    1  A    between atoms: O_1  and  C_33
    2  A    between atoms: O_1  and  C_36
    3  A    between atoms: C_3  and  C_30
    4  A    between atoms: C_3  and  C_32
    5  A    between atoms: C_5  and  C_23
    6  A    between atoms: C_5  and  C_33
    7  A    between atoms: C_6  and  C_31
    8  A    between atoms: C_9  and  C_30
    9  A    between atoms: S_11  and  C_26
   10  A    between atoms: N_14  and  O_37
   11  A    between atoms: C_17  and  C_26
   12  A    between atoms: C_17  and  C_33
   13  A    between atoms: C_31  and  O_37
                            x       y       z     vdW  Elec       q    Type
                         _______ _______ _______ _____ _____    ______ ____

>  <TORSDO>
F 13

$$$$
=
 OpenBabel11052415243D

 37 42  0  0  1  0  0  0  0  0999 V2000
  181.9510  177.3750  137.6400 C   0  0  2  0  0  0  0  0  0  0  0  0
  184.8910  179.3890  139.7800 C   0  0  0  0  0  2  0  0  0  0  0  0
  180.4750  179.4100  137.3420 C   0  0  2  0  0  3  0  0  0  0  0  0
  183.2300  177.3430  138.4470 C   0  0  1  0  0  3  0  0  0  0  0  0
  180.8690  178.2260  138.2720 C   0  0  2  0  0  3  0  0  0  0  0  0
  184.2870  178.1170  137.7730 N   0  0  0  0  0  0  0  0  0  0  0  0
  180.7470  179.0940  135.8590 C   0  0  0  0  0  2  0  0  0  0  0  0
  181.4280  178.6320  139.6410 C   0  0  1  0  0  3  0  0  0  0  0  0
  181.5060  176.0320  137.1140 C   0  0  0  0  0  2  0  0  0  0  0  0
  180.6900  177.7080  135.6140 O   0  0  0  0  0  0  0  0  0  0  0  0
  181.7030  177.4730  140.4090 O   0  0  0  0  0  0  0  0  0  0  0  0
  185.3710  178.4020  138.7180 C   0  0  0  0  0  2  0  0  0  0  0  0
  181.8750  177.1480  136.1360 C   0  0  1  0  0  3  0  0  0  0  0  0
  182.7910  178.0570  139.7340 C   0  0  1  0  0  0  0  0  0  0  0  0
  183.7960  178.7570  140.6380 C   0  0  1  0  0  3  0  0  0  0  0  0
  184.3600  177.8300  141.5220 O   0  0  0  0  0  0  0  0  0  0  0  0
  185.1380  178.5870  142.4080 C   0  0  1  0  0  3  0  0  0  0  0  0
  184.3690  178.8630  143.6920 C   0  0  0  0  0  2  0  0  0  0  0  0
  185.3270  179.3160  145.9270 C   0  0  0  0  0  1  0  0  0  0  0  0
  185.0860  178.2500  144.8780 C   0  0  0  0  0  2  0  0  0  0  0  0
  186.4530  177.8720  142.7090 C   0  0  0  0  0  2  0  0  0  0  0  0
  187.5610  178.2920  141.7570 C   0  0  0  0  0  2  0  0  0  0  0  0
  189.0280  177.2670  142.0480 S   0  0  0  0  0  0  0  0  0  0  0  0
  189.6150  177.5100  140.3490 C   0  0  0  0  0  1  0  0  0  0  0  0
  181.1620  180.7330  137.6740 C   0  0  0  0  0  2  0  0  0  0  0  0
  180.4930  181.9050  136.9650 C   0  0  0  0  0  2  0  0  0  0  0  0
  181.1790  184.2400  136.4050 C   0  0  0  0  0  1  0  0  0  0  0  0
  180.9710  183.2360  137.5230 C   0  0  0  0  0  2  0  0  0  0  0  0
  184.8200  177.3190  136.8140 O   0  0  0  0  0  0  0  0  0  0  0  0
  185.5890  176.3770  137.5110 C   0  0  0  0  0  2  0  0  0  0  0  0
  186.6570  174.0350  136.5240 S   0  0  0  0  0  0  0  0  0  0  0  0
  186.7240  175.8560  136.6430 C   0  0  2  0  0  3  0  0  0  0  0  0
  188.0720  176.3100  137.1930 C   0  0  0  0  0  2  0  0  0  0  0  0
  190.4960  176.5350  136.7360 C   0  0  0  0  0  1  0  0  0  0  0  0
  189.3110  174.4940  135.9820 C   0  0  0  0  0  2  0  0  0  0  0  0
  189.1850  175.9960  136.2030 C   0  0  1  0  0  3  0  0  0  0  0  0
  188.0430  173.9440  135.3460 C   0  0  0  0  0  2  0  0  0  0  0  0
  1  9  1  1  0  0  0
  1  5  1  0  0  0  0
  1  4  1  0  0  0  0
  2 15  1  0  0  0  0
  3 25  1  1  0  0  0
  3  5  1  0  0  0  0
  4  6  1  6  0  0  0
  4 14  1  0  0  0  0
  5  8  1  0  0  0  0
  6 12  1  0  0  0  0
  7  3  1  0  0  0  0
  8 14  1  0  0  0  0
  8 11  1  0  0  0  0
 10  7  1  0  0  0  0
 10 13  1  0  0  0  0
 12  2  1  0  0  0  0
 13  9  1  0  0  0  0
 13  1  1  0  0  0  0
 14 11  1  0  0  0  0
 14 15  1  0  0  0  0
 15 16  1  0  0  0  0
 16 17  1  0  0  0  0
 17 21  1  0  0  0  0
 17 18  1  0  0  0  0
 18 20  1  0  0  0  0
 20 19  1  0  0  0  0
 22 23  1  0  0  0  0
 22 21  1  0  0  0  0
 24 23  1  0  0  0  0
 26 28  1  0  0  0  0
 26 25  1  0  0  0  0
 27 28  1  0  0  0  0
 29 30  1  0  0  0  0
 29  6  1  0  0  0  0
 31 32  1  0  0  0  0
 32 33  1  0  0  0  0
 32 30  1  0  0  0  0
 35 36  1  0  0  0  0
 36 34  1  0  0  0  0
 36 33  1  0  0  0  0
 37 35  1  0  0  0  0
 37 31  1  0  0  0  0
M  END
>  <MODEL>
8

>  <REMARK>
 VINA RESULT:      -5.7      3.833      8.021
  Name = 
  13 active torsions:
  status: ('A' for Active; 'I' for Inactive)
    1  A    between atoms: O_1  and  C_33
    2  A    between atoms: O_1  and  C_36
    3  A    between atoms: C_3  and  C_30
    4  A    between atoms: C_3  and  C_32
    5  A    between atoms: C_5  and  C_23
    6  A    between atoms: C_5  and  C_33
    7  A    between atoms: C_6  and  C_31
    8  A    between atoms: C_9  and  C_30
    9  A    between atoms: S_11  and  C_26
   10  A    between atoms: N_14  and  O_37
   11  A    between atoms: C_17  and  C_26
   12  A    between atoms: C_17  and  C_33
   13  A    between atoms: C_31  and  O_37
                            x       y       z     vdW  Elec       q    Type
                         _______ _______ _______ _____ _____    ______ ____

>  <TORSDO>
F 13

$$$$
=
 OpenBabel11052415243D

 37 42  0  0  1  0  0  0  0  0999 V2000
  182.3220  176.3930  138.2130 C   0  0  2  0  0  0  0  0  0  0  0  0
  183.3020  180.4120  138.6320 C   0  0  0  0  0  2  0  0  0  0  0  0
  183.8670  176.0040  136.2460 C   0  0  2  0  0  3  0  0  0  0  0  0
  182.0810  177.7340  138.8740 C   0  0  1  0  0  3  0  0  0  0  0  0
  182.4620  176.4880  136.7080 C   0  0  2  0  0  3  0  0  0  0  0  0
  183.2780  178.1670  139.6170 N   0  0  0  0  0  0  0  0  0  0  0  0
  184.4860  175.0000  137.2360 C   0  0  0  0  0  2  0  0  0  0  0  0
  182.1310  177.9460  136.3660 C   0  0  1  0  0  3  0  0  0  0  0  0
  181.4470  175.2760  138.7220 C   0  0  0  0  0  2  0  0  0  0  0  0
  183.4890  174.3030  137.9460 O   0  0  0  0  0  0  0  0  0  0  0  0
  180.8150  178.2520  136.7940 O   0  0  0  0  0  0  0  0  0  0  0  0
  183.1810  179.5990  139.9180 C   0  0  0  0  0  2  0  0  0  0  0  0
  182.9630  175.1960  138.9020 C   0  0  1  0  0  3  0  0  0  0  0  0
  181.8630  178.6360  137.6500 C   0  0  1  0  0  0  0  0  0  0  0  0
  182.1110  180.1370  137.7140 C   0  0  1  0  0  3  0  0  0  0  0  0
  180.9720  180.7820  138.2080 O   0  0  0  0  0  0  0  0  0  0  0  0
  180.6940  181.8020  137.2880 C   0  0  1  0  0  3  0  0  0  0  0  0
  179.3110  181.6110  136.6810 C   0  0  0  0  0  2  0  0  0  0  0  0
  180.6710  181.4440  134.6220 C   0  0  0  0  0  1  0  0  0  0  0  0
  179.4200  180.9540  135.3190 C   0  0  0  0  0  2  0  0  0  0  0  0
  180.8050  183.1700  137.9580 C   0  0  0  0  0  2  0  0  0  0  0  0
  181.1790  184.2600  136.9660 C   0  0  0  0  0  2  0  0  0  0  0  0
  179.7730  185.3840  136.7470 S   0  0  0  0  0  0  0  0  0  0  0  0
  179.1680  185.0590  138.4250 C   0  0  0  0  0  1  0  0  0  0  0  0
  184.8790  177.1240  136.0150 C   0  0  0  0  0  2  0  0  0  0  0  0
  186.1250  176.9380  136.8720 C   0  0  0  0  0  2  0  0  0  0  0  0
  187.4810  178.9970  136.4770 C   0  0  0  0  0  1  0  0  0  0  0  0
  186.5940  178.2590  137.4620 C   0  0  0  0  0  2  0  0  0  0  0  0
  183.2630  177.5260  140.8120 O   0  0  0  0  0  0  0  0  0  0  0  0
  183.0650  178.5360  141.7630 C   0  0  0  0  0  2  0  0  0  0  0  0
  183.4460  179.4640  144.3310 S   0  0  0  0  0  0  0  0  0  0  0  0
  183.8460  178.2410  143.0350 C   0  0  2  0  0  3  0  0  0  0  0  0
  185.3440  178.2250  142.7540 C   0  0  0  0  0  2  0  0  0  0  0  0
  187.5820  177.6110  143.6230 C   0  0  0  0  0  1  0  0  0  0  0  0
  185.9210  178.6110  145.1670 C   0  0  0  0  0  2  0  0  0  0  0  0
  186.1080  177.6980  143.9620 C   0  0  1  0  0  3  0  0  0  0  0  0
  184.4600  178.6310  145.5940 C   0  0  0  0  0  2  0  0  0  0  0  0
  1  9  1  1  0  0  0
  1  4  1  0  0  0  0
  1 13  1  0  0  0  0
  2 12  1  0  0  0  0
  3 25  1  1  0  0  0
  3  5  1  0  0  0  0
  3  7  1  0  0  0  0
  4  6  1  6  0  0  0
  5  1  1  0  0  0  0
  6 12  1  0  0  0  0
  6 29  1  0  0  0  0
  7 10  1  0  0  0  0
  8  5  1  0  0  0  0
  8 11  1  0  0  0  0
  8 14  1  0  0  0  0
  9 13  1  0  0  0  0
 10 13  1  0  0  0  0
 11 14  1  0  0  0  0
 14 15  1  0  0  0  0
 14  4  1  0  0  0  0
 15 16  1  0  0  0  0
 15  2  1  0  0  0  0
 17 21  1  0  0  0  0
 17 16  1  0  0  0  0
 18 17  1  0  0  0  0
 19 20  1  0  0  0  0
 20 18  1  0  0  0  0
 22 21  1  0  0  0  0
 23 22  1  0  0  0  0
 23 24  1  0  0  0  0
 25 26  1  0  0  0  0
 26 28  1  0  0  0  0
 27 28  1  0  0  0  0
 29 30  1  0  0  0  0
 30 32  1  0  0  0  0
 31 37  1  0  0  0  0
 32 31  1  0  0  0  0
 33 32  1  0  0  0  0
 33 36  1  0  0  0  0
 34 36  1  0  0  0  0
 35 37  1  0  0  0  0
 36 35  1  0  0  0  0
M  END
>  <MODEL>
9

>  <REMARK>
 VINA RESULT:      -5.6      4.608      8.901
  Name = 
  13 active torsions:
  status: ('A' for Active; 'I' for Inactive)
    1  A    between atoms: O_1  and  C_33
    2  A    between atoms: O_1  and  C_36
    3  A    between atoms: C_3  and  C_30
    4  A    between atoms: C_3  and  C_32
    5  A    between atoms: C_5  and  C_23
    6  A    between atoms: C_5  and  C_33
    7  A    between atoms: C_6  and  C_31
    8  A    between atoms: C_9  and  C_30
    9  A    between atoms: S_11  and  C_26
   10  A    between atoms: N_14  and  O_37
   11  A    between atoms: C_17  and  C_26
   12  A    between atoms: C_17  and  C_33
   13  A    between atoms: C_31  and  O_37
                            x       y       z     vdW  Elec       q    Type
                         _______ _______ _______ _____ _____    ______ ____

>  <TORSDO>
F 13

$$$$
