=
 OpenBabel11052413233D

 28 30  0  0  1  0  0  0  0  0999 V2000
  183.6070  179.1560  142.0950 C   0  0  0  0  0  2  0  0  0  0  0  0
  183.0480  178.5870  144.4640 C   0  0  0  0  0  1  0  0  0  0  0  0
  184.8130  180.2790  143.9750 C   0  0  0  0  0  1  0  0  0  0  0  0
  184.1680  178.9790  143.5060 C   0  0  0  0  0  0  0  0  0  0  0  0
  185.2180  177.8650  143.4430 C   0  0  0  0  0  2  0  0  0  0  0  0
  186.7840  177.7800  145.6140 C   0  0  0  0  0  0  0  0  0  0  0  0
  186.0810  177.8130  144.6350 C   0  0  0  0  0  0  0  0  0  0  0  0
  187.6330  177.7530  146.8080 C   0  0  0  0  0  2  0  0  0  0  0  0
  190.8560  177.7190  144.8170 C   0  0  0  0  0  3  0  0  0  0  0  0
  189.0510  177.5050  146.4200 C   0  0  0  0  0  0  0  0  0  0  0  0
  191.2160  176.5240  146.8920 C   0  0  0  0  0  0  0  0  0  0  0  0
  189.5320  177.9710  145.1910 C   0  0  0  0  0  3  0  0  0  0  0  0
  189.8930  176.7760  147.2690 C   0  0  0  0  0  3  0  0  0  0  0  0
  192.0710  175.7840  147.7550 N   0  0  0  0  0  1  0  0  0  0  0  0
  191.6980  176.9960  145.6680 C   0  0  0  0  0  3  0  0  0  0  0  0
  182.0830  178.0320  140.4800 C   0  0  0  0  0  2  0  0  0  0  0  0
  183.4600  177.8200  139.8840 C   0  0  2  0  0  3  0  0  0  0  0  0
  183.2660  177.8310  141.4060 C   0  0  1  0  0  3  0  0  0  0  0  0
  184.0600  179.3880  139.1560 S   0  0  0  0  0  0  0  0  0  0  0  0
  185.7110  178.7100  138.8010 C   0  0  0  0  0  2  0  0  0  0  0  0
  186.4770  178.5690  140.0340 N   0  0  0  0  0  0  0  0  0  0  0  0
  187.7490  178.2960  140.1210 C   0  0  0  0  0  0  0  0  0  0  0  0
  190.5160  177.4790  140.4620 C   0  0  0  0  0  2  0  0  0  0  0  0
  188.3420  178.1580  141.4910 C   0  0  0  0  0  2  0  0  0  0  0  0
  188.3600  178.7190  137.8070 N   0  0  0  0  0  2  0  0  0  0  0  0
  188.6560  178.1830  138.9460 C   0  0  0  0  0  0  0  0  0  0  0  0
  189.9140  177.3780  139.0620 C   0  0  0  0  0  2  0  0  0  0  0  0
  189.4680  177.1270  141.5110 C   0  0  0  0  0  2  0  0  0  0  0  0
  1  4  1  0  0  0  0
  4  3  1  0  0  0  0
  4  2  1  0  0  0  0
  5  4  1  0  0  0  0
  5  7  1  0  0  0  0
  6  8  1  0  0  0  0
  7  6  3  0  0  0  0
  9 12  2  0  0  0  0
  9 15  1  0  0  0  0
 10  8  1  0  0  0  0
 10 13  2  0  0  0  0
 11 13  1  0  0  0  0
 11 14  1  0  0  0  0
 12 10  1  0  0  0  0
 15 11  2  0  0  0  0
 16 18  1  0  0  0  0
 17 19  1  1  0  0  0
 17 16  1  0  0  0  0
 17 18  1  0  0  0  0
 18  1  1  1  0  0  0
 20 19  1  0  0  0  0
 20 21  1  0  0  0  0
 21 22  2  0  0  0  0
 22 24  1  0  0  0  0
 23 28  1  0  0  0  0
 24 28  1  0  0  0  0
 25 26  2  0  0  0  0
 26 27  1  0  0  0  0
 26 22  1  0  0  0  0
 27 23  1  0  0  0  0
M  END
>  <MODEL>
1

>  <REMARK>
 VINA RESULT:      -8.0      0.000      0.000
  Name = 
  9 active torsions:
  status: ('A' for Active; 'I' for Inactive)
    1  A    between atoms: C_1  and  N_2
    2  A    between atoms: C_1  and  S_26
    3  A    between atoms: C_5  and  C_21
    4  A    between atoms: C_5  and  C_27
    5  A    between atoms: C_9  and  C_18
    6  A    between atoms: C_14  and  C_18
    7  A    between atoms: C_19  and  S_26
    8  A    between atoms: C_20  and  C_25
    9  A    between atoms: C_20  and  C_27
                            x       y       z     vdW  Elec       q    Type
                         _______ _______ _______ _____ _____    ______ ____

>  <TORSDO>
F 9

$$$$
=
 OpenBabel11052413233D

 28 30  0  0  1  0  0  0  0  0999 V2000
  190.1430  177.8720  145.8500 C   0  0  0  0  0  2  0  0  0  0  0  0
  190.0470  178.3270  148.3060 C   0  0  0  0  0  1  0  0  0  0  0  0
  191.1600  176.2610  147.4680 C   0  0  0  0  0  1  0  0  0  0  0  0
  190.0160  177.2410  147.2370 C   0  0  0  0  0  0  0  0  0  0  0  0
  188.6740  176.5010  147.2800 C   0  0  0  0  0  2  0  0  0  0  0  0
  186.5740  178.0840  146.7730 C   0  0  0  0  0  0  0  0  0  0  0  0
  187.5220  177.3730  146.9960 C   0  0  0  0  0  0  0  0  0  0  0  0
  185.4150  178.9430  146.5130 C   0  0  0  0  0  2  0  0  0  0  0  0
  185.4060  178.1820  142.8030 C   0  0  0  0  0  3  0  0  0  0  0  0
  184.9450  178.7560  145.1120 C   0  0  0  0  0  0  0  0  0  0  0  0
  183.1810  178.8810  143.4550 C   0  0  0  0  0  0  0  0  0  0  0  0
  185.8420  178.3350  144.1220 C   0  0  0  0  0  3  0  0  0  0  0  0
  183.6140  179.0340  144.7750 C   0  0  0  0  0  3  0  0  0  0  0  0
  181.8290  179.1630  143.1140 N   0  0  0  0  0  1  0  0  0  0  0  0
  184.0760  178.4540  142.4690 C   0  0  0  0  0  3  0  0  0  0  0  0
  190.9170  176.2280  144.1500 C   0  0  0  0  0  2  0  0  0  0  0  0
  191.2700  177.5710  143.5410 C   0  0  2  0  0  3  0  0  0  0  0  0
  191.3510  177.3610  145.0590 C   0  0  1  0  0  3  0  0  0  0  0  0
  189.7480  178.3880  142.9400 S   0  0  0  0  0  0  0  0  0  0  0  0
  189.2750  176.9710  141.8990 C   0  0  0  0  0  2  0  0  0  0  0  0
  190.1570  176.8760  140.7420 N   0  0  0  0  0  0  0  0  0  0  0  0
  189.8670  177.2350  139.5230 C   0  0  0  0  0  0  0  0  0  0  0  0
  189.2740  177.7870  136.7330 C   0  0  0  0  0  2  0  0  0  0  0  0
  190.9050  177.0210  138.4640 C   0  0  0  0  0  2  0  0  0  0  0  0
  187.8650  178.5290  140.0040 N   0  0  0  0  0  2  0  0  0  0  0  0
  188.5940  177.9060  139.1370 C   0  0  0  0  0  0  0  0  0  0  0  0
  188.1100  177.8070  137.7220 C   0  0  0  0  0  2  0  0  0  0  0  0
  190.2700  176.6970  137.1140 C   0  0  0  0  0  2  0  0  0  0  0  0
  1  4  1  0  0  0  0
  4  5  1  0  0  0  0
  4  3  1  0  0  0  0
  4  2  1  0  0  0  0
  6  7  3  0  0  0  0
  7  5  1  0  0  0  0
  8  6  1  0  0  0  0
  9 12  1  0  0  0  0
 10  8  1  0  0  0  0
 11 13  2  0  0  0  0
 12 10  2  0  0  0  0
 13 10  1  0  0  0  0
 14 11  1  0  0  0  0
 15  9  2  0  0  0  0
 15 11  1  0  0  0  0
 16 18  1  0  0  0  0
 17 19  1  1  0  0  0
 17 16  1  0  0  0  0
 17 18  1  0  0  0  0
 18  1  1  1  0  0  0
 20 19  1  0  0  0  0
 21 20  1  0  0  0  0
 22 21  2  0  0  0  0
 23 28  1  0  0  0  0
 23 27  1  0  0  0  0
 24 22  1  0  0  0  0
 26 22  1  0  0  0  0
 26 25  2  0  0  0  0
 27 26  1  0  0  0  0
 28 24  1  0  0  0  0
M  END
>  <MODEL>
2

>  <REMARK>
 VINA RESULT:      -7.7      2.341      6.278
  Name = 
  9 active torsions:
  status: ('A' for Active; 'I' for Inactive)
    1  A    between atoms: C_1  and  N_2
    2  A    between atoms: C_1  and  S_26
    3  A    between atoms: C_5  and  C_21
    4  A    between atoms: C_5  and  C_27
    5  A    between atoms: C_9  and  C_18
    6  A    between atoms: C_14  and  C_18
    7  A    between atoms: C_19  and  S_26
    8  A    between atoms: C_20  and  C_25
    9  A    between atoms: C_20  and  C_27
                            x       y       z     vdW  Elec       q    Type
                         _______ _______ _______ _____ _____    ______ ____

>  <TORSDO>
F 9

$$$$
=
 OpenBabel11052413233D

 28 30  0  0  1  0  0  0  0  0999 V2000
  189.5660  177.1160  145.5390 C   0  0  0  0  0  2  0  0  0  0  0  0
  190.2370  178.4840  147.5200 C   0  0  0  0  0  1  0  0  0  0  0  0
  190.9530  176.1020  147.3550 C   0  0  0  0  0  1  0  0  0  0  0  0
  189.8360  177.0920  147.0440 C   0  0  0  0  0  0  0  0  0  0  0  0
  188.5390  176.6550  147.7330 C   0  0  0  0  0  2  0  0  0  0  0  0
  186.4230  178.1340  147.0200 C   0  0  0  0  0  0  0  0  0  0  0  0
  187.3730  177.4630  147.3390 C   0  0  0  0  0  0  0  0  0  0  0  0
  185.2750  178.9600  146.6360 C   0  0  0  0  0  2  0  0  0  0  0  0
  185.6270  178.1300  142.9570 C   0  0  0  0  0  3  0  0  0  0  0  0
  184.9410  178.7360  145.2020 C   0  0  0  0  0  0  0  0  0  0  0  0
  183.3360  178.7870  143.3870 C   0  0  0  0  0  0  0  0  0  0  0  0
  185.9350  178.3190  144.3080 C   0  0  0  0  0  3  0  0  0  0  0  0
  183.6410  178.9750  144.7380 C   0  0  0  0  0  3  0  0  0  0  0  0
  182.0150  179.0300  142.9170 N   0  0  0  0  0  1  0  0  0  0  0  0
  184.3270  178.3630  142.4970 C   0  0  0  0  0  3  0  0  0  0  0  0
  191.4280  177.7630  144.0210 C   0  0  0  0  0  2  0  0  0  0  0  0
  190.1870  178.2250  143.2860 C   0  0  2  0  0  3  0  0  0  0  0  0
  190.2480  178.2830  144.8170 C   0  0  1  0  0  3  0  0  0  0  0  0
  189.3150  176.7760  142.5870 S   0  0  0  0  0  0  0  0  0  0  0  0
  189.9590  177.0690  140.9090 C   0  0  0  0  0  2  0  0  0  0  0  0
  188.8850  177.5050  140.0240 N   0  0  0  0  0  0  0  0  0  0  0  0
  188.8290  177.3190  138.7350 C   0  0  0  0  0  0  0  0  0  0  0  0
  188.6850  177.1680  135.8370 C   0  0  0  0  0  2  0  0  0  0  0  0
  187.6500  177.8790  137.9980 C   0  0  0  0  0  2  0  0  0  0  0  0
  190.5890  175.6530  138.5420 N   0  0  0  0  0  2  0  0  0  0  0  0
  189.8290  176.5270  137.9670 C   0  0  0  0  0  0  0  0  0  0  0  0
  190.0070  176.7880  136.5020 C   0  0  0  0  0  2  0  0  0  0  0  0
  188.0320  178.3230  136.5880 C   0  0  0  0  0  2  0  0  0  0  0  0
  1  4  1  0  0  0  0
  4  3  1  0  0  0  0
  4  2  1  0  0  0  0
  4  5  1  0  0  0  0
  6  7  3  0  0  0  0
  7  5  1  0  0  0  0
  8  6  1  0  0  0  0
  9 12  1  0  0  0  0
 10  8  1  0  0  0  0
 11 13  2  0  0  0  0
 12 10  2  0  0  0  0
 13 10  1  0  0  0  0
 14 11  1  0  0  0  0
 15  9  2  0  0  0  0
 15 11  1  0  0  0  0
 16 18  1  0  0  0  0
 17 19  1  1  0  0  0
 17 16  1  0  0  0  0
 17 18  1  0  0  0  0
 18  1  1  1  0  0  0
 20 19  1  0  0  0  0
 21 20  1  0  0  0  0
 22 21  2  0  0  0  0
 23 27  1  0  0  0  0
 23 28  1  0  0  0  0
 24 22  1  0  0  0  0
 26 25  2  0  0  0  0
 26 22  1  0  0  0  0
 27 26  1  0  0  0  0
 28 24  1  0  0  0  0
M  END
>  <MODEL>
3

>  <REMARK>
 VINA RESULT:      -7.5      2.574      6.166
  Name = 
  9 active torsions:
  status: ('A' for Active; 'I' for Inactive)
    1  A    between atoms: C_1  and  N_2
    2  A    between atoms: C_1  and  S_26
    3  A    between atoms: C_5  and  C_21
    4  A    between atoms: C_5  and  C_27
    5  A    between atoms: C_9  and  C_18
    6  A    between atoms: C_14  and  C_18
    7  A    between atoms: C_19  and  S_26
    8  A    between atoms: C_20  and  C_25
    9  A    between atoms: C_20  and  C_27
                            x       y       z     vdW  Elec       q    Type
                         _______ _______ _______ _____ _____    ______ ____

>  <TORSDO>
F 9

$$$$
=
 OpenBabel11052413233D

 28 30  0  0  1  0  0  0  0  0999 V2000
  190.9030  177.6700  145.0830 C   0  0  0  0  0  2  0  0  0  0  0  0
  190.7160  175.8810  143.3480 C   0  0  0  0  0  1  0  0  0  0  0  0
  192.0350  177.9410  142.8700 C   0  0  0  0  0  1  0  0  0  0  0  0
  190.8080  177.3840  143.5830 C   0  0  0  0  0  0  0  0  0  0  0  0
  189.5410  178.0750  143.0670 C   0  0  0  0  0  2  0  0  0  0  0  0
  189.0210  177.5230  140.4980 C   0  0  0  0  0  0  0  0  0  0  0  0
  189.2540  177.7770  141.6540 C   0  0  0  0  0  0  0  0  0  0  0  0
  188.7410  177.2010  139.0960 C   0  0  0  0  0  2  0  0  0  0  0  0
  190.7870  174.7000  137.1200 C   0  0  0  0  0  3  0  0  0  0  0  0
  189.9040  176.4900  138.4940 C   0  0  0  0  0  0  0  0  0  0  0  0
  192.3000  176.2280  138.2350 C   0  0  0  0  0  0  0  0  0  0  0  0
  189.6950  175.3800  137.6670 C   0  0  0  0  0  3  0  0  0  0  0  0
  191.2090  176.9100  138.7820 C   0  0  0  0  0  3  0  0  0  0  0  0
  193.6250  176.6550  138.5280 N   0  0  0  0  0  1  0  0  0  0  0  0
  192.0890  175.1230  137.4030 C   0  0  0  0  0  3  0  0  0  0  0  0
  191.4130  176.7130  147.3220 C   0  0  0  0  0  2  0  0  0  0  0  0
  189.9230  176.4850  147.1630 C   0  0  2  0  0  3  0  0  0  0  0  0
  190.8550  176.4060  145.9470 C   0  0  1  0  0  3  0  0  0  0  0  0
  189.0360  178.0710  147.3740 S   0  0  0  0  0  0  0  0  0  0  0  0
  187.4300  177.3530  146.9070 C   0  0  0  0  0  2  0  0  0  0  0  0
  187.1810  177.5490  145.4840 N   0  0  0  0  0  0  0  0  0  0  0  0
  186.1390  178.1300  144.9600 C   0  0  0  0  0  0  0  0  0  0  0  0
  183.7730  179.2010  143.6560 C   0  0  0  0  0  2  0  0  0  0  0  0
  186.0550  178.2000  143.4650 C   0  0  0  0  0  2  0  0  0  0  0  0
  185.2660  179.1740  146.9740 N   0  0  0  0  0  2  0  0  0  0  0  0
  185.0660  178.7870  145.7570 C   0  0  0  0  0  0  0  0  0  0  0  0
  183.7000  178.9480  145.1610 C   0  0  0  0  0  2  0  0  0  0  0  0
  184.6090  178.1200  142.9810 C   0  0  0  0  0  2  0  0  0  0  0  0
  2  4  1  0  0  0  0
  3  4  1  0  0  0  0
  4  1  1  0  0  0  0
  5  4  1  0  0  0  0
  6  7  3  0  0  0  0
  7  5  1  0  0  0  0
  8  6  1  0  0  0  0
  9 15  2  0  0  0  0
  9 12  1  0  0  0  0
 10 13  1  0  0  0  0
 10  8  1  0  0  0  0
 11 14  1  0  0  0  0
 11 13  2  0  0  0  0
 12 10  2  0  0  0  0
 15 11  1  0  0  0  0
 17 16  1  0  0  0  0
 17 19  1  6  0  0  0
 18  1  1  6  0  0  0
 18 17  1  0  0  0  0
 18 16  1  0  0  0  0
 20 19  1  0  0  0  0
 21 20  1  0  0  0  0
 22 21  2  0  0  0  0
 22 26  1  0  0  0  0
 23 27  1  0  0  0  0
 24 22  1  0  0  0  0
 26 25  2  0  0  0  0
 27 26  1  0  0  0  0
 28 24  1  0  0  0  0
 28 23  1  0  0  0  0
M  END
>  <MODEL>
4

>  <REMARK>
 VINA RESULT:      -7.4      3.135      7.870
  Name = 
  9 active torsions:
  status: ('A' for Active; 'I' for Inactive)
    1  A    between atoms: C_1  and  N_2
    2  A    between atoms: C_1  and  S_26
    3  A    between atoms: C_5  and  C_21
    4  A    between atoms: C_5  and  C_27
    5  A    between atoms: C_9  and  C_18
    6  A    between atoms: C_14  and  C_18
    7  A    between atoms: C_19  and  S_26
    8  A    between atoms: C_20  and  C_25
    9  A    between atoms: C_20  and  C_27
                            x       y       z     vdW  Elec       q    Type
                         _______ _______ _______ _____ _____    ______ ____

>  <TORSDO>
F 9

$$$$
=
 OpenBabel11052413233D

 28 30  0  0  1  0  0  0  0  0999 V2000
  191.0820  177.6560  144.8360 C   0  0  0  0  0  2  0  0  0  0  0  0
  189.5350  178.3540  143.0010 C   0  0  0  0  0  1  0  0  0  0  0  0
  190.1670  175.9560  143.2480 C   0  0  0  0  0  1  0  0  0  0  0  0
  190.6520  177.3940  143.3920 C   0  0  0  0  0  0  0  0  0  0  0  0
  191.8790  177.6260  142.5030 C   0  0  0  0  0  2  0  0  0  0  0  0
  191.4230  177.1250  139.9120 C   0  0  0  0  0  0  0  0  0  0  0  0
  191.6250  177.3460  141.0800 C   0  0  0  0  0  0  0  0  0  0  0  0
  191.1850  176.8670  138.4890 C   0  0  0  0  0  2  0  0  0  0  0  0
  188.1070  177.6630  136.4290 C   0  0  0  0  0  3  0  0  0  0  0  0
  189.8040  177.2850  138.1180 C   0  0  0  0  0  0  0  0  0  0  0  0
  187.6340  178.1600  138.7510 C   0  0  0  0  0  0  0  0  0  0  0  0
  189.3960  177.2490  136.7800 C   0  0  0  0  0  3  0  0  0  0  0  0
  188.9220  177.7460  139.1040 C   0  0  0  0  0  3  0  0  0  0  0  0
  186.7390  178.6280  139.7530 N   0  0  0  0  0  1  0  0  0  0  0  0
  187.2260  178.1170  137.4150 C   0  0  0  0  0  3  0  0  0  0  0  0
  191.5810  176.7430  147.0970 C   0  0  0  0  0  2  0  0  0  0  0  0
  190.1130  176.4280  146.8970 C   0  0  2  0  0  3  0  0  0  0  0  0
  191.0820  176.3960  145.7080 C   0  0  1  0  0  3  0  0  0  0  0  0
  189.1300  177.9620  147.0700 S   0  0  0  0  0  0  0  0  0  0  0  0
  187.5690  177.1330  146.6300 C   0  0  0  0  0  2  0  0  0  0  0  0
  187.2160  177.4210  145.2450 N   0  0  0  0  0  0  0  0  0  0  0  0
  186.1670  178.0800  144.8410 C   0  0  0  0  0  0  0  0  0  0  0  0
  183.7620  179.3350  143.7990 C   0  0  0  0  0  2  0  0  0  0  0  0
  185.9650  178.2370  143.3640 C   0  0  0  0  0  2  0  0  0  0  0  0
  185.5170  179.0500  146.9730 N   0  0  0  0  0  2  0  0  0  0  0  0
  185.1990  178.7410  145.7590 C   0  0  0  0  0  0  0  0  0  0  0  0
  183.7990  179.0020  145.2890 C   0  0  0  0  0  2  0  0  0  0  0  0
  184.4820  178.2540  143.0010 C   0  0  0  0  0  2  0  0  0  0  0  0
  2  4  1  0  0  0  0
  3  4  1  0  0  0  0
  4  1  1  0  0  0  0
  5  4  1  0  0  0  0
  6  7  3  0  0  0  0
  7  5  1  0  0  0  0
  8  6  1  0  0  0  0
  9 12  2  0  0  0  0
  9 15  1  0  0  0  0
 10  8  1  0  0  0  0
 10 13  2  0  0  0  0
 11 13  1  0  0  0  0
 11 14  1  0  0  0  0
 12 10  1  0  0  0  0
 15 11  2  0  0  0  0
 17 19  1  6  0  0  0
 17 16  1  0  0  0  0
 18  1  1  6  0  0  0
 18 17  1  0  0  0  0
 18 16  1  0  0  0  0
 20 19  1  0  0  0  0
 21 20  1  0  0  0  0
 22 21  2  0  0  0  0
 22 26  1  0  0  0  0
 23 27  1  0  0  0  0
 24 22  1  0  0  0  0
 26 25  2  0  0  0  0
 27 26  1  0  0  0  0
 28 24  1  0  0  0  0
 28 23  1  0  0  0  0
M  END
>  <MODEL>
5

>  <REMARK>
 VINA RESULT:      -7.4      2.790      8.104
  Name = 
  9 active torsions:
  status: ('A' for Active; 'I' for Inactive)
    1  A    between atoms: C_1  and  N_2
    2  A    between atoms: C_1  and  S_26
    3  A    between atoms: C_5  and  C_21
    4  A    between atoms: C_5  and  C_27
    5  A    between atoms: C_9  and  C_18
    6  A    between atoms: C_14  and  C_18
    7  A    between atoms: C_19  and  S_26
    8  A    between atoms: C_20  and  C_25
    9  A    between atoms: C_20  and  C_27
                            x       y       z     vdW  Elec       q    Type
                         _______ _______ _______ _____ _____    ______ ____

>  <TORSDO>
F 9

$$$$
=
 OpenBabel11052413233D

 28 30  0  0  1  0  0  0  0  0999 V2000
  189.9390  178.0370  142.3160 C   0  0  0  0  0  2  0  0  0  0  0  0
  191.7110  176.4940  143.1690 C   0  0  0  0  0  1  0  0  0  0  0  0
  189.3060  175.9070  143.4600 C   0  0  0  0  0  1  0  0  0  0  0  0
  190.3140  177.0500  143.4220 C   0  0  0  0  0  0  0  0  0  0  0  0
  190.2870  177.8190  144.7470 C   0  0  0  0  0  2  0  0  0  0  0  0
  187.8650  177.8470  145.8900 C   0  0  0  0  0  0  0  0  0  0  0  0
  188.9580  177.8340  145.3810 C   0  0  0  0  0  0  0  0  0  0  0  0
  186.5310  177.8640  146.4970 C   0  0  0  0  0  2  0  0  0  0  0  0
  183.3030  179.0690  144.9240 C   0  0  0  0  0  3  0  0  0  0  0  0
  185.5120  178.2380  145.4770 C   0  0  0  0  0  0  0  0  0  0  0  0
  184.8140  178.3840  143.1600 C   0  0  0  0  0  0  0  0  0  0  0  0
  184.2690  178.7400  145.8800 C   0  0  0  0  0  3  0  0  0  0  0  0
  185.7810  178.0550  144.1140 C   0  0  0  0  0  3  0  0  0  0  0  0
  185.0900  178.1980  141.7770 N   0  0  0  0  0  1  0  0  0  0  0  0
  183.5760  178.8920  143.5640 C   0  0  0  0  0  3  0  0  0  0  0  0
  188.3340  178.7230  140.5430 C   0  0  0  0  0  2  0  0  0  0  0  0
  188.6840  177.2950  140.1780 C   0  0  2  0  0  3  0  0  0  0  0  0
  188.5960  177.7210  141.6490 C   0  0  1  0  0  3  0  0  0  0  0  0
  190.3720  177.2410  139.4740 S   0  0  0  0  0  0  0  0  0  0  0  0
  189.7960  177.6480  137.7960 C   0  0  0  0  0  2  0  0  0  0  0  0
  189.0320  176.5380  137.2390 N   0  0  0  0  0  0  0  0  0  0  0  0
  187.7620  176.5500  136.9490 C   0  0  0  0  0  0  0  0  0  0  0  0
  184.9030  176.3690  136.4650 C   0  0  0  0  0  2  0  0  0  0  0  0
  187.1550  175.2870  136.4160 C   0  0  0  0  0  2  0  0  0  0  0  0
  187.3980  178.9510  137.0510 N   0  0  0  0  0  2  0  0  0  0  0  0
  186.8980  177.7590  137.0500 C   0  0  0  0  0  0  0  0  0  0  0  0
  185.4180  177.5940  137.2190 C   0  0  0  0  0  2  0  0  0  0  0  0
  185.7030  175.1330  136.8610 C   0  0  0  0  0  2  0  0  0  0  0  0
  1  4  1  0  0  0  0
  2  4  1  0  0  0  0
  4  3  1  0  0  0  0
  4  5  1  0  0  0  0
  5  7  1  0  0  0  0
  6  8  1  0  0  0  0
  7  6  3  0  0  0  0
  9 12  1  0  0  0  0
 10 12  2  0  0  0  0
 10  8  1  0  0  0  0
 11 15  1  0  0  0  0
 11 13  2  0  0  0  0
 13 10  1  0  0  0  0
 14 11  1  0  0  0  0
 15  9  2  0  0  0  0
 16 18  1  0  0  0  0
 17 19  1  6  0  0  0
 17 16  1  0  0  0  0
 17 18  1  0  0  0  0
 18  1  1  6  0  0  0
 20 19  1  0  0  0  0
 21 20  1  0  0  0  0
 22 26  1  0  0  0  0
 22 21  2  0  0  0  0
 23 28  1  0  0  0  0
 23 27  1  0  0  0  0
 24 28  1  0  0  0  0
 24 22  1  0  0  0  0
 26 25  2  0  0  0  0
 26 27  1  0  0  0  0
M  END
>  <MODEL>
6

>  <REMARK>
 VINA RESULT:      -7.3      2.750      5.800
  Name = 
  9 active torsions:
  status: ('A' for Active; 'I' for Inactive)
    1  A    between atoms: C_1  and  N_2
    2  A    between atoms: C_1  and  S_26
    3  A    between atoms: C_5  and  C_21
    4  A    between atoms: C_5  and  C_27
    5  A    between atoms: C_9  and  C_18
    6  A    between atoms: C_14  and  C_18
    7  A    between atoms: C_19  and  S_26
    8  A    between atoms: C_20  and  C_25
    9  A    between atoms: C_20  and  C_27
                            x       y       z     vdW  Elec       q    Type
                         _______ _______ _______ _____ _____    ______ ____

>  <TORSDO>
F 9

$$$$
=
 OpenBabel11052413233D

 28 30  0  0  1  0  0  0  0  0999 V2000
  189.7180  178.0040  139.0010 C   0  0  0  0  0  2  0  0  0  0  0  0
  190.2140  176.7970  136.8690 C   0  0  0  0  0  1  0  0  0  0  0  0
  188.8300  178.8700  136.8300 C   0  0  0  0  0  1  0  0  0  0  0  0
  189.1740  177.6160  137.6250 C   0  0  0  0  0  0  0  0  0  0  0  0
  187.9120  176.7770  137.8550 C   0  0  0  0  0  2  0  0  0  0  0  0
  185.7600  178.2440  138.4800 C   0  0  0  0  0  0  0  0  0  0  0  0
  186.7310  177.5880  138.1960 C   0  0  0  0  0  0  0  0  0  0  0  0
  184.5740  179.0300  138.8320 C   0  0  0  0  0  2  0  0  0  0  0  0
  185.1930  178.9070  142.5670 C   0  0  0  0  0  3  0  0  0  0  0  0
  184.3340  178.9620  140.3010 C   0  0  0  0  0  0  0  0  0  0  0  0
  182.8080  178.7470  142.1720 C   0  0  0  0  0  0  0  0  0  0  0  0
  185.4160  178.9930  141.1900 C   0  0  0  0  0  3  0  0  0  0  0  0
  183.0290  178.8340  140.7940 C   0  0  0  0  0  3  0  0  0  0  0  0
  181.4830  178.6160  142.6720 N   0  0  0  0  0  1  0  0  0  0  0  0
  183.8890  178.7850  143.0580 C   0  0  0  0  0  3  0  0  0  0  0  0
  191.3650  177.4990  140.7960 C   0  0  0  0  0  2  0  0  0  0  0  0
  190.2040  176.5740  141.1010 C   0  0  2  0  0  3  0  0  0  0  0  0
  190.5690  176.9080  139.6500 C   0  0  1  0  0  3  0  0  0  0  0  0
  188.8210  177.5430  141.8080 S   0  0  0  0  0  0  0  0  0  0  0  0
  188.5970  176.3970  143.2050 C   0  0  0  0  0  2  0  0  0  0  0  0
  187.8140  177.0310  144.2590 N   0  0  0  0  0  0  0  0  0  0  0  0
  188.2460  177.3610  145.4430 C   0  0  0  0  0  0  0  0  0  0  0  0
  189.0170  177.9440  148.1840 C   0  0  0  0  0  2  0  0  0  0  0  0
  187.2670  177.9730  146.3990 C   0  0  0  0  0  2  0  0  0  0  0  0
  190.6310  177.1560  145.0200 N   0  0  0  0  0  2  0  0  0  0  0  0
  189.6650  177.2300  145.8760 C   0  0  0  0  0  0  0  0  0  0  0  0
  189.9820  177.1170  147.3360 C   0  0  0  0  0  2  0  0  0  0  0  0
  187.5760  177.5820  147.8430 C   0  0  0  0  0  2  0  0  0  0  0  0
  2  4  1  0  0  0  0
  3  4  1  0  0  0  0
  4  5  1  0  0  0  0
  4  1  1  0  0  0  0
  5  7  1  0  0  0  0
  6  8  1  0  0  0  0
  7  6  3  0  0  0  0
  8 10  1  0  0  0  0
  9 15  1  0  0  0  0
 10 13  2  0  0  0  0
 10 12  1  0  0  0  0
 11 14  1  0  0  0  0
 11 15  2  0  0  0  0
 12  9  2  0  0  0  0
 13 11  1  0  0  0  0
 16 17  1  0  0  0  0
 17 19  1  1  0  0  0
 18  1  1  1  0  0  0
 18 16  1  0  0  0  0
 18 17  1  0  0  0  0
 19 20  1  0  0  0  0
 20 21  1  0  0  0  0
 21 22  2  0  0  0  0
 22 26  1  0  0  0  0
 22 24  1  0  0  0  0
 24 28  1  0  0  0  0
 25 26  2  0  0  0  0
 26 27  1  0  0  0  0
 27 23  1  0  0  0  0
 28 23  1  0  0  0  0
M  END
>  <MODEL>
7

>  <REMARK>
 VINA RESULT:      -7.2      2.375      7.703
  Name = 
  9 active torsions:
  status: ('A' for Active; 'I' for Inactive)
    1  A    between atoms: C_1  and  N_2
    2  A    between atoms: C_1  and  S_26
    3  A    between atoms: C_5  and  C_21
    4  A    between atoms: C_5  and  C_27
    5  A    between atoms: C_9  and  C_18
    6  A    between atoms: C_14  and  C_18
    7  A    between atoms: C_19  and  S_26
    8  A    between atoms: C_20  and  C_25
    9  A    between atoms: C_20  and  C_27
                            x       y       z     vdW  Elec       q    Type
                         _______ _______ _______ _____ _____    ______ ____

>  <TORSDO>
F 9

$$$$
=
 OpenBabel11052413233D

 28 30  0  0  1  0  0  0  0  0999 V2000
  185.1880  178.1080  143.6230 C   0  0  0  0  0  2  0  0  0  0  0  0
  182.8680  179.0140  143.8320 C   0  0  0  0  0  1  0  0  0  0  0  0
  184.8110  180.4000  144.5480 C   0  0  0  0  0  1  0  0  0  0  0  0
  184.2550  178.9830  144.4620 C   0  0  0  0  0  0  0  0  0  0  0  0
  184.1840  178.3610  145.8600 C   0  0  0  0  0  2  0  0  0  0  0  0
  186.5580  178.2530  147.0940 C   0  0  0  0  0  0  0  0  0  0  0  0
  185.4910  178.2980  146.5340 C   0  0  0  0  0  0  0  0  0  0  0  0
  187.8500  178.2070  147.7840 C   0  0  0  0  0  2  0  0  0  0  0  0
  189.7220  177.4190  144.5870 C   0  0  0  0  0  3  0  0  0  0  0  0
  188.9120  177.7420  146.8480 C   0  0  0  0  0  0  0  0  0  0  0  0
  191.0590  176.6830  146.4670 C   0  0  0  0  0  0  0  0  0  0  0  0
  188.7350  177.8750  145.4660 C   0  0  0  0  0  3  0  0  0  0  0  0
  190.0740  177.1400  147.3480 C   0  0  0  0  0  3  0  0  0  0  0  0
  192.2390  176.0720  146.9760 N   0  0  0  0  0  1  0  0  0  0  0  0
  190.8840  176.8230  145.0870 C   0  0  0  0  0  3  0  0  0  0  0  0
  187.0270  177.9830  141.9510 C   0  0  0  0  0  2  0  0  0  0  0  0
  186.0740  179.0030  141.3630 C   0  0  2  0  0  3  0  0  0  0  0  0
  186.2660  178.9060  142.8810 C   0  0  1  0  0  3  0  0  0  0  0  0
  184.5980  178.1480  140.7000 S   0  0  0  0  0  0  0  0  0  0  0  0
  185.0740  178.4490  138.9690 C   0  0  0  0  0  2  0  0  0  0  0  0
  186.5180  178.6300  138.8640 N   0  0  0  0  0  0  0  0  0  0  0  0
  187.3400  177.8710  138.1950 C   0  0  0  0  0  0  0  0  0  0  0  0
  189.3030  176.1430  136.9300 C   0  0  0  0  0  2  0  0  0  0  0  0
  188.7990  178.2080  138.2440 C   0  0  0  0  0  2  0  0  0  0  0  0
  185.7020  176.6560  136.8720 N   0  0  0  0  0  2  0  0  0  0  0  0
  186.9070  176.7370  137.3330 C   0  0  0  0  0  0  0  0  0  0  0  0
  187.8700  175.6260  137.0400 C   0  0  0  0  0  2  0  0  0  0  0  0
  189.6660  176.9540  138.1700 C   0  0  0  0  0  2  0  0  0  0  0  0
  1  4  1  0  0  0  0
  2  4  1  0  0  0  0
  4  3  1  0  0  0  0
  4  5  1  0  0  0  0
  5  7  1  0  0  0  0
  6  8  1  0  0  0  0
  7  6  3  0  0  0  0
  9 15  2  0  0  0  0
  9 12  1  0  0  0  0
 10 13  1  0  0  0  0
 10  8  1  0  0  0  0
 11 14  1  0  0  0  0
 11 13  2  0  0  0  0
 12 10  2  0  0  0  0
 15 11  1  0  0  0  0
 16 18  1  0  0  0  0
 17 19  1  1  0  0  0
 17 16  1  0  0  0  0
 17 18  1  0  0  0  0
 18  1  1  1  0  0  0
 20 19  1  0  0  0  0
 21 20  1  0  0  0  0
 22 24  1  0  0  0  0
 22 21  2  0  0  0  0
 23 27  1  0  0  0  0
 23 28  1  0  0  0  0
 25 26  2  0  0  0  0
 26 22  1  0  0  0  0
 27 26  1  0  0  0  0
 28 24  1  0  0  0  0
M  END
>  <MODEL>
8

>  <REMARK>
 VINA RESULT:      -7.2      1.589      2.360
  Name = 
  9 active torsions:
  status: ('A' for Active; 'I' for Inactive)
    1  A    between atoms: C_1  and  N_2
    2  A    between atoms: C_1  and  S_26
    3  A    between atoms: C_5  and  C_21
    4  A    between atoms: C_5  and  C_27
    5  A    between atoms: C_9  and  C_18
    6  A    between atoms: C_14  and  C_18
    7  A    between atoms: C_19  and  S_26
    8  A    between atoms: C_20  and  C_25
    9  A    between atoms: C_20  and  C_27
                            x       y       z     vdW  Elec       q    Type
                         _______ _______ _______ _____ _____    ______ ____

>  <TORSDO>
F 9

$$$$
=
 OpenBabel11052413233D

 28 30  0  0  1  0  0  0  0  0999 V2000
  189.1570  177.7350  139.4130 C   0  0  0  0  0  2  0  0  0  0  0  0
  190.4150  177.0960  137.3500 C   0  0  0  0  0  1  0  0  0  0  0  0
  189.1120  179.2200  137.4030 C   0  0  0  0  0  1  0  0  0  0  0  0
  189.1590  177.7750  137.8840 C   0  0  0  0  0  0  0  0  0  0  0  0
  187.9120  177.0210  137.4070 C   0  0  0  0  0  2  0  0  0  0  0  0
  185.6200  178.1100  138.2640 C   0  0  0  0  0  0  0  0  0  0  0  0
  186.6550  177.6210  137.8830 C   0  0  0  0  0  0  0  0  0  0  0  0
  184.3580  178.7020  138.7140 C   0  0  0  0  0  2  0  0  0  0  0  0
  185.5470  178.9950  142.2990 C   0  0  0  0  0  3  0  0  0  0  0  0
  184.3480  178.8140  140.2000 C   0  0  0  0  0  0  0  0  0  0  0  0
  183.1280  178.8690  142.2940 C   0  0  0  0  0  0  0  0  0  0  0  0
  185.5550  178.9120  140.9030 C   0  0  0  0  0  3  0  0  0  0  0  0
  183.1340  178.7870  140.8980 C   0  0  0  0  0  3  0  0  0  0  0  0
  181.8940  178.8410  143.0010 N   0  0  0  0  0  1  0  0  0  0  0  0
  184.3340  178.9740  142.9940 C   0  0  0  0  0  3  0  0  0  0  0  0
  191.3190  177.4380  140.6090 C   0  0  0  0  0  2  0  0  0  0  0  0
  190.3080  176.7690  141.5190 C   0  0  2  0  0  3  0  0  0  0  0  0
  190.1380  176.7120  139.9950 C   0  0  1  0  0  3  0  0  0  0  0  0
  189.3170  178.0470  142.3740 S   0  0  0  0  0  0  0  0  0  0  0  0
  188.5330  176.8390  143.4880 C   0  0  0  0  0  2  0  0  0  0  0  0
  189.2290  176.8070  144.7700 N   0  0  0  0  0  0  0  0  0  0  0  0
  188.7270  177.1440  145.9240 C   0  0  0  0  0  0  0  0  0  0  0  0
  187.8060  178.0710  148.5190 C   0  0  0  0  0  2  0  0  0  0  0  0
  189.6230  177.0720  147.1240 C   0  0  0  0  0  2  0  0  0  0  0  0
  186.3800  177.1870  145.2910 N   0  0  0  0  0  2  0  0  0  0  0  0
  187.3030  177.5280  146.1300 C   0  0  0  0  0  0  0  0  0  0  0  0
  186.9330  178.3820  147.3050 C   0  0  0  0  0  2  0  0  0  0  0  0
  189.2810  178.1560  148.1430 C   0  0  0  0  0  2  0  0  0  0  0  0
  2  4  1  0  0  0  0
  3  4  1  0  0  0  0
  4  1  1  0  0  0  0
  5  7  1  0  0  0  0
  5  4  1  0  0  0  0
  6  8  1  0  0  0  0
  7  6  3  0  0  0  0
  8 10  1  0  0  0  0
  9 15  1  0  0  0  0
 10 13  2  0  0  0  0
 10 12  1  0  0  0  0
 11 15  2  0  0  0  0
 11 14  1  0  0  0  0
 12  9  2  0  0  0  0
 13 11  1  0  0  0  0
 16 17  1  0  0  0  0
 17 19  1  1  0  0  0
 18  1  1  1  0  0  0
 18 16  1  0  0  0  0
 18 17  1  0  0  0  0
 19 20  1  0  0  0  0
 20 21  1  0  0  0  0
 21 22  2  0  0  0  0
 22 26  1  0  0  0  0
 22 24  1  0  0  0  0
 24 28  1  0  0  0  0
 25 26  2  0  0  0  0
 26 27  1  0  0  0  0
 27 23  1  0  0  0  0
 28 23  1  0  0  0  0
M  END
>  <MODEL>
9

>  <REMARK>
 VINA RESULT:      -7.2      2.601      7.753
  Name = 
  9 active torsions:
  status: ('A' for Active; 'I' for Inactive)
    1  A    between atoms: C_1  and  N_2
    2  A    between atoms: C_1  and  S_26
    3  A    between atoms: C_5  and  C_21
    4  A    between atoms: C_5  and  C_27
    5  A    between atoms: C_9  and  C_18
    6  A    between atoms: C_14  and  C_18
    7  A    between atoms: C_19  and  S_26
    8  A    between atoms: C_20  and  C_25
    9  A    between atoms: C_20  and  C_27
                            x       y       z     vdW  Elec       q    Type
                         _______ _______ _______ _____ _____    ______ ____

>  <TORSDO>
F 9

$$$$
