=
 OpenBabel11052414483D

 55 61  0  0  1  0  0  0  0  0999 V2000
  186.7740  177.6640  138.0990 C   0  0  0  0  0  2  0  0  0  0  0  0
  185.5130  176.8260  136.2470 O   0  0  0  0  0  1  0  0  0  0  0  0
  188.8150  177.5670  136.9590 C   0  0  1  0  0  3  0  0  0  0  0  0
  187.7810  177.4750  135.8690 C   0  0  0  0  0  2  0  0  0  0  0  0
  186.4720  177.7740  136.6030 C   0  0  2  0  0  3  0  0  0  0  0  0
  188.1200  176.9790  138.1440 C   0  0  1  0  0  3  0  0  0  0  0  0
  190.9680  177.0710  137.8130 C   0  0  1  0  0  3  0  0  0  0  0  0
  190.0210  176.7970  136.7160 N   0  0  0  0  0  2  0  0  0  0  0  0
  188.9800  177.1870  139.3610 C   0  0  0  0  0  0  0  0  0  0  0  0
  190.3250  177.1870  139.2040 C   0  0  0  0  0  0  0  0  0  0  0  0
  193.3120  176.3700  138.2170 N   0  0  0  0  0  0  0  0  0  0  0  0
  194.0940  174.1550  137.7530 C   0  0  0  0  0  0  0  0  0  0  0  0
  191.7850  174.7570  137.3390 C   0  0  0  0  0  3  0  0  0  0  0  0
  192.8100  173.8100  137.3180 C   0  0  0  0  0  3  0  0  0  0  0  0
  194.3240  175.4600  138.2040 C   0  0  0  0  0  3  0  0  0  0  0  0
  192.0570  176.0470  137.7990 C   0  0  0  0  0  0  0  0  0  0  0  0
  195.1790  173.1610  137.7310 C   0  0  0  0  0  0  0  0  0  0  0  0
  195.9990  173.0440  136.6130 O   0  0  0  0  0  0  0  0  0  0  0  0
  195.3760  172.4080  138.7220 O   0  0  0  0  0  1  0  0  0  0  0  0
  188.0060  179.5770  140.7280 O   0  0  0  0  0  0  0  0  0  0  0  0
  188.4080  177.2720  140.6770 N   0  0  0  0  0  2  0  0  0  0  0  0
  188.0970  178.4920  141.3600 C   0  0  0  0  0  0  0  0  0  0  0  0
  187.8330  178.4770  142.8270 C   0  0  0  0  0  2  0  0  0  0  0  0
  187.7720  177.0560  143.3550 C   0  0  0  0  0  2  0  0  0  0  0  0
  187.1460  177.0470  144.7340 C   0  0  0  0  0  2  0  0  0  0  0  0
  186.6120  178.4280  145.0560 C   0  0  0  0  0  2  0  0  0  0  0  0
  185.3430  178.3170  145.8910 C   0  0  0  0  0  2  0  0  0  0  0  0
  179.8190  178.7240  142.7980 C   0  0  0  0  0  0  0  0  0  0  0  0
  183.4710  177.3520  139.9700 F   0  0  0  0  0  0  0  0  0  0  0  0
  183.8060  178.2180  142.1450 C   0  0  0  0  0  0  0  0  0  0  0  0
  183.1420  178.1390  144.5990 C   0  0  0  0  0  2  0  0  0  0  0  0
  184.1170  179.0530  145.3290 C   0  0  2  0  0  3  0  0  0  0  0  0
  183.4990  179.5830  140.2660 F   0  0  0  0  0  0  0  0  0  0  0  0
  183.1010  178.3790  140.8220 C   0  0  0  0  0  0  0  0  0  0  0  0
  183.3110  178.9870  143.3480 C   0  0  1  0  0  0  0  0  0  0  0  0
  179.4470  179.2620  143.8750 O   0  0  0  0  0  1  0  0  0  0  0  0
  184.3690  179.8300  144.0410 C   0  0  0  0  0  2  0  0  0  0  0  0
  178.9560  177.8560  142.1420 O   0  0  0  0  0  0  0  0  0  0  0  0
  181.5610  178.3440  141.0180 C   0  0  1  0  0  3  0  0  0  0  0  0
  182.0600  179.8050  143.0390 C   0  0  0  0  0  2  0  0  0  0  0  0
  184.7880  177.4970  142.2290 O   0  0  0  0  0  0  0  0  0  0  0  0
  181.1210  178.9960  142.2630 N   0  0  0  0  0  0  0  0  0  0  0  0
  180.7450  178.8530  139.8190 C   0  0  1  0  0  3  0  0  0  0  0  0
  180.7830  180.2470  139.7340 O   0  0  0  0  0  1  0  0  0  0  0  0
  181.2000  178.2250  138.5130 C   0  0  0  0  0  2  0  0  0  0  0  0
  181.7640  179.2000  137.6880 O   0  0  0  0  0  1  0  0  0  0  0  0
  191.2340  177.3670  140.3840 C   0  0  0  0  0  2  0  0  0  0  0  0
  191.0000  176.2750  141.4150 C   0  0  0  0  0  2  0  0  0  0  0  0
  191.4410  178.2890  142.9500 C   0  0  0  0  0  3  0  0  0  0  0  0
  191.6780  176.3700  145.2370 C   0  0  2  0  0  3  0  0  0  0  0  0
  191.3420  175.9360  143.8230 C   0  0  0  0  0  3  0  0  0  0  0  0
  191.5700  178.8130  144.1740 C   0  0  0  0  0  3  0  0  0  0  0  0
  191.2610  176.8070  142.7800 C   0  0  0  0  0  0  0  0  0  0  0  0
  190.6140  176.8930  145.9210 C   0  0  0  0  0  2  0  0  0  0  0  0
  191.5120  177.8420  145.1950 N   0  0  0  0  0  0  0  0  0  0  0  0
  3  4  1  6  0  0  0
  3  6  1  0  0  0  0
  4  5  1  0  0  0  0
  5  2  1  6  0  0  0
  5  1  1  0  0  0  0
  6  1  1  1  0  0  0
  6  9  1  0  0  0  0
  7 16  1  1  0  0  0
  7 10  1  0  0  0  0
  8  3  1  0  0  0  0
  8  7  1  0  0  0  0
  9 21  1  0  0  0  0
 10  9  2  0  0  0  0
 10 47  1  0  0  0  0
 12 15  2  0  0  0  0
 13 16  1  0  0  0  0
 14 13  2  0  0  0  0
 14 12  1  0  0  0  0
 15 11  1  0  0  0  0
 16 11  2  0  0  0  0
 17 12  1  0  0  0  0
 17 19  1  0  0  0  0
 18 17  2  0  0  0  0
 20 22  2  0  0  0  0
 21 22  1  0  0  0  0
 22 23  1  0  0  0  0
 23 24  1  0  0  0  0
 24 25  1  0  0  0  0
 25 26  1  0  0  0  0
 26 27  1  0  0  0  0
 28 36  1  0  0  0  0
 29 34  1  0  0  0  0
 30 41  2  0  0  0  0
 30 35  1  0  0  0  0
 31 32  1  0  0  0  0
 32 27  1  6  0  0  0
 33 34  1  0  0  0  0
 34 39  1  0  0  0  0
 34 30  1  0  0  0  0
 35 40  1  6  0  0  0
 35 37  1  0  0  0  0
 35 31  1  0  0  0  0
 37 32  1  0  0  0  0
 38 28  2  0  0  0  0
 39 43  1  6  0  0  0
 39 42  1  0  0  0  0
 42 28  1  0  0  0  0
 42 40  1  0  0  0  0
 43 44  1  6  0  0  0
 45 43  1  0  0  0  0
 46 45  1  0  0  0  0
 47 48  1  0  0  0  0
 48 53  1  0  0  0  0
 49 52  2  0  0  0  0
 50 51  1  6  0  0  0
 50 54  1  0  0  0  0
 52 55  1  0  0  0  0
 53 49  1  0  0  0  0
 53 51  2  0  0  0  0
 55 50  1  0  0  0  0
 55 54  1  0  0  0  0
M  END
>  <MODEL>
1

>  <REMARK>
 VINA RESULT:      -8.3      0.000      0.000
  Name = 
  14 active torsions:
  status: ('A' for Active; 'I' for Inactive)
    1  A    between atoms: C_2  and  C_28
    2  A    between atoms: C_2  and  C_44
    3  A    between atoms: C_4  and  C_35
    4  A    between atoms: C_4  and  C_37
    5  A    between atoms: C_8  and  C_51
    6  A    between atoms: C_10  and  C_32
    7  A    between atoms: C_11  and  C_29
    8  A    between atoms: N_19  and  C_45
    9  A    between atoms: C_28  and  C_49
   10  A    between atoms: C_29  and  C_38
   11  A    between atoms: C_33  and  C_52
   12  A    between atoms: C_35  and  C_43
   13  A    between atoms: C_37  and  C_40
   14  A    between atoms: C_43  and  C_51
                            x       y       z     vdW  Elec       q    Type
                         _______ _______ _______ _____ _____    ______ ____

>  <TORSDO>
F 14

$$$$
=
 OpenBabel11052414483D

 55 61  0  0  1  0  0  0  0  0999 V2000
  186.0650  175.6080  136.6590 C   0  0  0  0  0  2  0  0  0  0  0  0
  185.6230  174.4200  134.6300 O   0  0  0  0  0  1  0  0  0  0  0  0
  183.8050  176.0190  137.0980 C   0  0  1  0  0  3  0  0  0  0  0  0
  183.7840  174.9200  136.0710 C   0  0  0  0  0  2  0  0  0  0  0  0
  185.2550  174.5070  135.9730 C   0  0  2  0  0  3  0  0  0  0  0  0
  185.0780  176.7420  136.8040 C   0  0  1  0  0  3  0  0  0  0  0  0
  182.8130  177.9130  138.1190 C   0  0  1  0  0  3  0  0  0  0  0  0
  182.7120  176.9680  136.9900 N   0  0  0  0  0  2  0  0  0  0  0  0
  185.3200  177.7560  137.8890 C   0  0  0  0  0  0  0  0  0  0  0  0
  184.2460  178.3370  138.4760 C   0  0  0  0  0  0  0  0  0  0  0  0
  181.5260  179.3790  136.5880 N   0  0  0  0  0  0  0  0  0  0  0  0
  180.3440  181.3170  137.3480 C   0  0  0  0  0  0  0  0  0  0  0  0
  181.5690  179.9320  138.9110 C   0  0  0  0  0  3  0  0  0  0  0  0
  180.7660  181.0430  138.6540 C   0  0  0  0  0  3  0  0  0  0  0  0
  180.7430  180.4580  136.3180 C   0  0  0  0  0  3  0  0  0  0  0  0
  181.9430  179.1000  137.8540 C   0  0  0  0  0  0  0  0  0  0  0  0
  179.4980  182.4890  137.0710 C   0  0  0  0  0  0  0  0  0  0  0  0
  179.0080  183.2620  138.1180 O   0  0  0  0  0  1  0  0  0  0  0  0
  179.2100  182.8030  135.8850 O   0  0  0  0  0  0  0  0  0  0  0  0
  187.2720  179.0430  136.1380 O   0  0  0  0  0  0  0  0  0  0  0  0
  186.6480  178.1900  138.2270 N   0  0  0  0  0  2  0  0  0  0  0  0
  187.6190  178.6670  137.2890 C   0  0  0  0  0  0  0  0  0  0  0  0
  189.0520  178.7650  137.6860 C   0  0  0  0  0  2  0  0  0  0  0  0
  189.7840  177.4650  137.4100 C   0  0  0  0  0  2  0  0  0  0  0  0
  189.5170  176.4760  138.5260 C   0  0  0  0  0  2  0  0  0  0  0  0
  189.6770  177.1690  139.8640 C   0  0  0  0  0  2  0  0  0  0  0  0
  191.0560  176.8780  140.4420 C   0  0  0  0  0  2  0  0  0  0  0  0
  190.9980  176.6810  146.7830 C   0  0  0  0  0  0  0  0  0  0  0  0
  186.5850  176.6010  144.8500 F   0  0  0  0  0  0  0  0  0  0  0  0
  188.5140  177.1230  143.5870 C   0  0  0  0  0  0  0  0  0  0  0  0
  190.8960  176.4820  142.9650 C   0  0  0  0  0  2  0  0  0  0  0  0
  191.3110  177.4340  141.8510 C   0  0  2  0  0  3  0  0  0  0  0  0
  187.3860  178.7030  144.8970 F   0  0  0  0  0  0  0  0  0  0  0  0
  187.7390  177.3650  144.8570 C   0  0  0  0  0  0  0  0  0  0  0  0
  189.9610  177.5520  143.5070 C   0  0  1  0  0  0  0  0  0  0  0  0
  192.2230  176.9350  146.6360 O   0  0  0  0  0  0  0  0  0  0  0  0
  190.2900  178.4590  142.3320 C   0  0  0  0  0  2  0  0  0  0  0  0
  190.6060  175.7830  147.7680 O   0  0  0  0  0  1  0  0  0  0  0  0
  188.5920  176.9820  146.0960 C   0  0  1  0  0  3  0  0  0  0  0  0
  190.4660  178.1380  144.8230 C   0  0  0  0  0  2  0  0  0  0  0  0
  187.9620  176.6140  142.6230 O   0  0  0  0  0  0  0  0  0  0  0  0
  190.0200  177.3030  145.9370 N   0  0  0  0  0  0  0  0  0  0  0  0
  188.0610  177.5150  147.4370 C   0  0  1  0  0  3  0  0  0  0  0  0
  188.8610  178.5520  147.9240 O   0  0  0  0  0  1  0  0  0  0  0  0
  186.6120  177.9600  147.3380 C   0  0  0  0  0  2  0  0  0  0  0  0
  186.4640  179.2270  147.9050 O   0  0  0  0  0  1  0  0  0  0  0  0
  184.4250  179.3710  139.5480 C   0  0  0  0  0  2  0  0  0  0  0  0
  185.1310  178.7770  140.7560 C   0  0  0  0  0  2  0  0  0  0  0  0
  182.8280  178.7470  141.8990 C   0  0  0  0  0  3  0  0  0  0  0  0
  184.1590  179.7480  144.3880 C   0  0  2  0  0  3  0  0  0  0  0  0
  184.9190  179.4240  143.1150 C   0  0  0  0  0  3  0  0  0  0  0  0
  182.0750  178.8300  143.0010 C   0  0  0  0  0  3  0  0  0  0  0  0
  184.3080  178.9950  141.9770 C   0  0  0  0  0  0  0  0  0  0  0  0
  183.8310  178.6450  145.1310 C   0  0  0  0  0  2  0  0  0  0  0  0
  182.8220  179.1540  144.1530 N   0  0  0  0  0  0  0  0  0  0  0  0
  3  4  1  6  0  0  0
  5  2  1  6  0  0  0
  5  4  1  0  0  0  0
  5  1  1  0  0  0  0
  6  1  1  1  0  0  0
  6  3  1  0  0  0  0
  6  9  1  0  0  0  0
  7 16  1  6  0  0  0
  7 10  1  0  0  0  0
  8  3  1  0  0  0  0
  8  7  1  0  0  0  0
  9 21  1  0  0  0  0
  9 10  2  0  0  0  0
 10 47  1  0  0  0  0
 11 16  1  0  0  0  0
 12 14  2  0  0  0  0
 14 13  1  0  0  0  0
 15 11  2  0  0  0  0
 15 12  1  0  0  0  0
 16 13  2  0  0  0  0
 17 12  1  0  0  0  0
 17 18  1  0  0  0  0
 19 17  2  0  0  0  0
 20 22  2  0  0  0  0
 22 23  1  0  0  0  0
 22 21  1  0  0  0  0
 24 23  1  0  0  0  0
 24 25  1  0  0  0  0
 25 26  1  0  0  0  0
 26 27  1  0  0  0  0
 28 38  1  0  0  0  0
 29 34  1  0  0  0  0
 30 34  1  0  0  0  0
 31 35  1  0  0  0  0
 32 27  1  6  0  0  0
 32 37  1  0  0  0  0
 32 31  1  0  0  0  0
 34 33  1  0  0  0  0
 34 39  1  0  0  0  0
 35 37  1  6  0  0  0
 35 30  1  0  0  0  0
 35 40  1  0  0  0  0
 36 28  2  0  0  0  0
 39 43  1  1  0  0  0
 40 42  1  0  0  0  0
 41 30  2  0  0  0  0
 42 39  1  0  0  0  0
 42 28  1  0  0  0  0
 43 44  1  6  0  0  0
 45 43  1  0  0  0  0
 45 46  1  0  0  0  0
 47 48  1  0  0  0  0
 48 53  1  0  0  0  0
 49 53  1  0  0  0  0
 49 52  2  0  0  0  0
 50 51  1  6  0  0  0
 50 54  1  0  0  0  0
 52 55  1  0  0  0  0
 53 51  2  0  0  0  0
 55 50  1  0  0  0  0
 55 54  1  0  0  0  0
M  END
>  <MODEL>
2

>  <REMARK>
 VINA RESULT:      -8.0      3.551      9.376
  Name = 
  14 active torsions:
  status: ('A' for Active; 'I' for Inactive)
    1  A    between atoms: C_2  and  C_28
    2  A    between atoms: C_2  and  C_44
    3  A    between atoms: C_4  and  C_35
    4  A    between atoms: C_4  and  C_37
    5  A    between atoms: C_8  and  C_51
    6  A    between atoms: C_10  and  C_32
    7  A    between atoms: C_11  and  C_29
    8  A    between atoms: N_19  and  C_45
    9  A    between atoms: C_28  and  C_49
   10  A    between atoms: C_29  and  C_38
   11  A    between atoms: C_33  and  C_52
   12  A    between atoms: C_35  and  C_43
   13  A    between atoms: C_37  and  C_40
   14  A    between atoms: C_43  and  C_51
                            x       y       z     vdW  Elec       q    Type
                         _______ _______ _______ _____ _____    ______ ____

>  <TORSDO>
F 14

$$$$
=
 OpenBabel11052414483D

 55 61  0  0  1  0  0  0  0  0999 V2000
  187.1750  177.8820  145.6800 C   0  0  0  0  0  2  0  0  0  0  0  0
  185.5900  177.3210  147.3820 O   0  0  0  0  0  1  0  0  0  0  0  0
  185.6240  179.0880  144.4100 C   0  0  1  0  0  3  0  0  0  0  0  0
  184.9740  178.9650  145.7620 C   0  0  0  0  0  2  0  0  0  0  0  0
  186.0910  178.3870  146.6340 C   0  0  2  0  0  3  0  0  0  0  0  0
  186.4910  177.8740  144.3330 C   0  0  1  0  0  3  0  0  0  0  0  0
  185.4720  179.2890  142.0540 C   0  0  1  0  0  3  0  0  0  0  0  0
  184.7010  179.0550  143.2900 N   0  0  0  0  0  2  0  0  0  0  0  0
  187.3520  177.9730  143.1020 C   0  0  0  0  0  0  0  0  0  0  0  0
  186.8480  178.6050  142.0150 C   0  0  0  0  0  0  0  0  0  0  0  0
  184.6360  179.6950  139.7560 N   0  0  0  0  0  0  0  0  0  0  0  0
  183.0810  178.2330  138.6720 C   0  0  0  0  0  0  0  0  0  0  0  0
  183.8570  177.7580  140.9160 C   0  0  0  0  0  3  0  0  0  0  0  0
  183.0760  177.4200  139.8110 C   0  0  0  0  0  3  0  0  0  0  0  0
  183.8810  179.3820  138.6680 C   0  0  0  0  0  3  0  0  0  0  0  0
  184.6410  178.9130  140.8700 C   0  0  0  0  0  0  0  0  0  0  0  0
  182.2580  177.8820  137.5040 C   0  0  0  0  0  0  0  0  0  0  0  0
  181.6130  178.8770  136.7770 O   0  0  0  0  0  0  0  0  0  0  0  0
  182.1290  176.6790  137.1510 O   0  0  0  0  0  1  0  0  0  0  0  0
  189.9380  179.0210  143.9640 O   0  0  0  0  0  0  0  0  0  0  0  0
  188.6300  177.3210  143.0280 N   0  0  0  0  0  2  0  0  0  0  0  0
  189.8870  177.9440  143.3150 C   0  0  0  0  0  0  0  0  0  0  0  0
  191.1570  177.2920  142.8840 C   0  0  0  0  0  2  0  0  0  0  0  0
  190.9310  176.4090  141.6710 C   0  0  0  0  0  2  0  0  0  0  0  0
  191.2550  177.1790  140.4070 C   0  0  0  0  0  2  0  0  0  0  0  0
  191.0030  176.2980  139.2000 C   0  0  0  0  0  2  0  0  0  0  0  0
  191.7840  176.8180  138.0000 C   0  0  0  0  0  2  0  0  0  0  0  0
  193.5520  171.0690  135.9810 C   0  0  0  0  0  0  0  0  0  0  0  0
  196.9550  173.2930  138.5680 F   0  0  0  0  0  0  0  0  0  0  0  0
  195.0370  174.4160  137.7620 C   0  0  0  0  0  0  0  0  0  0  0  0
  192.5050  174.4110  137.5200 C   0  0  0  0  0  2  0  0  0  0  0  0
  192.1350  175.7670  136.9360 C   0  0  2  0  0  3  0  0  0  0  0  0
  196.9470  174.0600  136.4530 F   0  0  0  0  0  0  0  0  0  0  0  0
  196.1720  173.4780  137.4410 C   0  0  0  0  0  0  0  0  0  0  0  0
  193.8540  174.4990  136.8250 C   0  0  1  0  0  0  0  0  0  0  0  0
  192.4920  171.1640  135.3080 O   0  0  0  0  0  0  0  0  0  0  0  0
  193.5300  175.9010  136.3360 C   0  0  0  0  0  2  0  0  0  0  0  0
  193.8830  169.8490  136.5550 O   0  0  0  0  0  1  0  0  0  0  0  0
  195.6250  172.1020  136.9740 C   0  0  1  0  0  3  0  0  0  0  0  0
  193.9640  173.5150  135.6640 C   0  0  0  0  0  2  0  0  0  0  0  0
  195.0940  175.1250  138.7550 O   0  0  0  0  0  0  0  0  0  0  0  0
  194.4010  172.2110  136.1630 N   0  0  0  0  0  0  0  0  0  0  0  0
  196.6570  171.1960  136.2820 C   0  0  1  0  0  3  0  0  0  0  0  0
  197.0390  171.7160  135.0430 O   0  0  0  0  0  1  0  0  0  0  0  0
  197.8750  170.9510  137.1570 C   0  0  0  0  0  2  0  0  0  0  0  0
  198.9910  171.5810  136.6030 O   0  0  0  0  0  1  0  0  0  0  0  0
  187.6500  178.7150  140.7530 C   0  0  0  0  0  2  0  0  0  0  0  0
  187.5910  177.4170  139.9630 C   0  0  0  0  0  2  0  0  0  0  0  0
  188.7200  178.8810  138.1760 C   0  0  0  0  0  3  0  0  0  0  0  0
  187.5230  177.0910  136.0950 C   0  0  2  0  0  3  0  0  0  0  0  0
  187.3540  176.8580  137.5840 C   0  0  0  0  0  3  0  0  0  0  0  0
  189.0850  179.0940  136.9070 C   0  0  0  0  0  3  0  0  0  0  0  0
  187.8760  177.6880  138.5280 C   0  0  0  0  0  0  0  0  0  0  0  0
  188.7330  176.6780  135.6050 C   0  0  0  0  0  2  0  0  0  0  0  0
  188.6000  178.1070  136.0240 N   0  0  0  0  0  0  0  0  0  0  0  0
  1  5  1  0  0  0  0
  3  4  1  1  0  0  0
  4  5  1  0  0  0  0
  5  2  1  6  0  0  0
  6  3  1  0  0  0  0
  6  1  1  1  0  0  0
  7 16  1  6  0  0  0
  7  8  1  0  0  0  0
  8  3  1  0  0  0  0
  9  6  1  0  0  0  0
 10  7  1  0  0  0  0
 10  9  2  0  0  0  0
 11 16  1  0  0  0  0
 12 14  2  0  0  0  0
 14 13  1  0  0  0  0
 15 12  1  0  0  0  0
 15 11  2  0  0  0  0
 16 13  2  0  0  0  0
 17 12  1  0  0  0  0
 18 17  2  0  0  0  0
 19 17  1  0  0  0  0
 21  9  1  0  0  0  0
 21 22  1  0  0  0  0
 22 20  2  0  0  0  0
 23 22  1  0  0  0  0
 24 23  1  0  0  0  0
 25 24  1  0  0  0  0
 26 25  1  0  0  0  0
 27 26  1  0  0  0  0
 28 42  1  0  0  0  0
 28 38  1  0  0  0  0
 30 41  2  0  0  0  0
 32 31  1  0  0  0  0
 32 27  1  1  0  0  0
 33 34  1  0  0  0  0
 34 30  1  0  0  0  0
 34 29  1  0  0  0  0
 35 40  1  6  0  0  0
 35 31  1  0  0  0  0
 35 30  1  0  0  0  0
 36 28  2  0  0  0  0
 37 35  1  0  0  0  0
 37 32  1  0  0  0  0
 39 43  1  6  0  0  0
 39 34  1  0  0  0  0
 40 42  1  0  0  0  0
 42 39  1  0  0  0  0
 43 44  1  6  0  0  0
 43 45  1  0  0  0  0
 46 45  1  0  0  0  0
 47 10  1  0  0  0  0
 48 47  1  0  0  0  0
 49 53  1  0  0  0  0
 50 54  1  6  0  0  0
 50 51  1  0  0  0  0
 51 53  2  0  0  0  0
 52 49  2  0  0  0  0
 53 48  1  0  0  0  0
 54 55  1  0  0  0  0
 55 50  1  0  0  0  0
 55 52  1  0  0  0  0
M  END
>  <MODEL>
3

>  <REMARK>
 VINA RESULT:      -7.4      3.722     11.497
  Name = 
  14 active torsions:
  status: ('A' for Active; 'I' for Inactive)
    1  A    between atoms: C_2  and  C_28
    2  A    between atoms: C_2  and  C_44
    3  A    between atoms: C_4  and  C_35
    4  A    between atoms: C_4  and  C_37
    5  A    between atoms: C_8  and  C_51
    6  A    between atoms: C_10  and  C_32
    7  A    between atoms: C_11  and  C_29
    8  A    between atoms: N_19  and  C_45
    9  A    between atoms: C_28  and  C_49
   10  A    between atoms: C_29  and  C_38
   11  A    between atoms: C_33  and  C_52
   12  A    between atoms: C_35  and  C_43
   13  A    between atoms: C_37  and  C_40
   14  A    between atoms: C_43  and  C_51
                            x       y       z     vdW  Elec       q    Type
                         _______ _______ _______ _____ _____    ______ ____

>  <TORSDO>
F 14

$$$$
=
 OpenBabel11052414483D

 55 61  0  0  1  0  0  0  0  0999 V2000
  180.0800  173.9490  137.7890 C   0  0  0  0  0  2  0  0  0  0  0  0
  180.4800  171.5970  137.9550 O   0  0  0  0  0  1  0  0  0  0  0  0
  181.7290  174.2770  136.1630 C   0  0  1  0  0  3  0  0  0  0  0  0
  181.4920  172.7910  136.1500 C   0  0  0  0  0  2  0  0  0  0  0  0
  180.2580  172.6270  137.0410 C   0  0  2  0  0  3  0  0  0  0  0  0
  181.3890  174.6680  137.5640 C   0  0  1  0  0  3  0  0  0  0  0  0
  183.1490  176.1460  135.8460 C   0  0  1  0  0  3  0  0  0  0  0  0
  183.1010  174.6720  135.9040 N   0  0  0  0  0  2  0  0  0  0  0  0
  181.3970  176.1700  137.6610 C   0  0  0  0  0  0  0  0  0  0  0  0
  182.2620  176.8590  136.8780 C   0  0  0  0  0  0  0  0  0  0  0  0
  185.1530  177.2580  134.9000 N   0  0  0  0  0  0  0  0  0  0  0  0
  187.2180  177.4320  136.0980 C   0  0  0  0  0  0  0  0  0  0  0  0
  185.3040  176.3380  137.0990 C   0  0  0  0  0  3  0  0  0  0  0  0
  186.6320  176.7570  137.1740 C   0  0  0  0  0  3  0  0  0  0  0  0
  186.4470  177.6740  134.9550 C   0  0  0  0  0  3  0  0  0  0  0  0
  184.5700  176.6010  135.9400 C   0  0  0  0  0  0  0  0  0  0  0  0
  188.6200  177.8740  136.1710 C   0  0  0  0  0  0  0  0  0  0  0  0
  189.6260  177.1100  135.5890 O   0  0  0  0  0  0  0  0  0  0  0  0
  188.9220  178.9460  136.7600 O   0  0  0  0  0  1  0  0  0  0  0  0
  182.2000  177.0450  140.3290 O   0  0  0  0  0  0  0  0  0  0  0  0
  180.5980  176.8620  138.6340 N   0  0  0  0  0  2  0  0  0  0  0  0
  180.9910  177.1230  139.9850 C   0  0  0  0  0  0  0  0  0  0  0  0
  179.9720  177.5340  140.9920 C   0  0  0  0  0  2  0  0  0  0  0  0
  180.3580  178.8440  141.6530 C   0  0  0  0  0  2  0  0  0  0  0  0
  180.4460  178.6560  143.1540 C   0  0  0  0  0  2  0  0  0  0  0  0
  181.6450  179.4120  143.6890 C   0  0  0  0  0  2  0  0  0  0  0  0
  182.8710  178.5070  143.7030 C   0  0  0  0  0  2  0  0  0  0  0  0
  188.3060  177.9360  140.4810 C   0  0  0  0  0  0  0  0  0  0  0  0
  188.6500  176.4400  145.0480 F   0  0  0  0  0  0  0  0  0  0  0  0
  186.7960  177.6720  144.2530 C   0  0  0  0  0  0  0  0  0  0  0  0
  185.0240  177.9350  142.4470 C   0  0  0  0  0  2  0  0  0  0  0  0
  184.0890  179.0350  142.9310 C   0  0  2  0  0  3  0  0  0  0  0  0
  188.7940  178.6830  144.9410 F   0  0  0  0  0  0  0  0  0  0  0  0
  188.2980  177.5560  144.3090 C   0  0  0  0  0  0  0  0  0  0  0  0
  186.1590  178.5810  143.2270 C   0  0  1  0  0  0  0  0  0  0  0  0
  187.6730  178.6070  139.6230 O   0  0  0  0  0  0  0  0  0  0  0  0
  185.2010  179.6120  143.8010 C   0  0  0  0  0  2  0  0  0  0  0  0
  189.1310  176.9030  140.0570 O   0  0  0  0  0  1  0  0  0  0  0  0
  188.8860  177.4220  142.8780 C   0  0  1  0  0  3  0  0  0  0  0  0
  187.1890  179.2290  142.3070 C   0  0  0  0  0  2  0  0  0  0  0  0
  186.1070  177.0600  145.0550 O   0  0  0  0  0  0  0  0  0  0  0  0
  188.1660  178.2280  141.8780 N   0  0  0  0  0  0  0  0  0  0  0  0
  190.4020  177.6590  142.7780 C   0  0  1  0  0  3  0  0  0  0  0  0
  190.7940  178.7700  143.5290 O   0  0  0  0  0  1  0  0  0  0  0  0
  191.1980  176.4310  143.1850 C   0  0  0  0  0  2  0  0  0  0  0  0
  190.5240  175.2750  142.7860 O   0  0  0  0  0  1  0  0  0  0  0  0
  182.3310  178.3560  136.9480 C   0  0  0  0  0  2  0  0  0  0  0  0
  181.2290  178.9860  136.1110 C   0  0  0  0  0  2  0  0  0  0  0  0
  179.7670  181.0980  136.0420 C   0  0  0  0  0  3  0  0  0  0  0  0
  180.7330  181.7400  138.8030 C   0  0  2  0  0  3  0  0  0  0  0  0
  181.1360  180.4820  138.0550 C   0  0  0  0  0  3  0  0  0  0  0  0
  179.2040  182.1450  136.6560 C   0  0  0  0  0  3  0  0  0  0  0  0
  180.7180  180.2070  136.7900 C   0  0  0  0  0  0  0  0  0  0  0  0
  179.4860  181.6700  139.3660 C   0  0  0  0  0  2  0  0  0  0  0  0
  179.6040  182.2700  138.0020 N   0  0  0  0  0  0  0  0  0  0  0  0
  3  4  1  1  0  0  0
  3  6  1  0  0  0  0
  4  5  1  0  0  0  0
  5  1  1  0  0  0  0
  5  2  1  1  0  0  0
  6  9  1  0  0  0  0
  6  1  1  6  0  0  0
  7  8  1  0  0  0  0
  7 16  1  1  0  0  0
  7 10  1  0  0  0  0
  8  3  1  0  0  0  0
  9 21  1  0  0  0  0
 10 47  1  0  0  0  0
 10  9  2  0  0  0  0
 11 15  2  0  0  0  0
 11 16  1  0  0  0  0
 12 17  1  0  0  0  0
 12 14  2  0  0  0  0
 13 14  1  0  0  0  0
 15 12  1  0  0  0  0
 16 13  2  0  0  0  0
 17 19  1  0  0  0  0
 18 17  2  0  0  0  0
 21 22  1  0  0  0  0
 22 20  2  0  0  0  0
 22 23  1  0  0  0  0
 23 24  1  0  0  0  0
 24 25  1  0  0  0  0
 25 26  1  0  0  0  0
 26 27  1  0  0  0  0
 28 42  1  0  0  0  0
 30 34  1  0  0  0  0
 30 41  2  0  0  0  0
 31 32  1  0  0  0  0
 31 35  1  0  0  0  0
 32 27  1  1  0  0  0
 32 37  1  0  0  0  0
 34 33  1  0  0  0  0
 34 29  1  0  0  0  0
 35 40  1  6  0  0  0
 35 37  1  0  0  0  0
 35 30  1  0  0  0  0
 36 28  2  0  0  0  0
 38 28  1  0  0  0  0
 39 43  1  1  0  0  0
 39 34  1  0  0  0  0
 42 40  1  0  0  0  0
 42 39  1  0  0  0  0
 43 45  1  0  0  0  0
 43 44  1  1  0  0  0
 46 45  1  0  0  0  0
 48 53  1  0  0  0  0
 48 47  1  0  0  0  0
 49 52  2  0  0  0  0
 49 53  1  0  0  0  0
 50 51  1  6  0  0  0
 50 54  1  0  0  0  0
 52 55  1  0  0  0  0
 53 51  2  0  0  0  0
 55 50  1  0  0  0  0
 55 54  1  0  0  0  0
M  END
>  <MODEL>
4

>  <REMARK>
 VINA RESULT:      -7.4      3.602      8.707
  Name = 
  14 active torsions:
  status: ('A' for Active; 'I' for Inactive)
    1  A    between atoms: C_2  and  C_28
    2  A    between atoms: C_2  and  C_44
    3  A    between atoms: C_4  and  C_35
    4  A    between atoms: C_4  and  C_37
    5  A    between atoms: C_8  and  C_51
    6  A    between atoms: C_10  and  C_32
    7  A    between atoms: C_11  and  C_29
    8  A    between atoms: N_19  and  C_45
    9  A    between atoms: C_28  and  C_49
   10  A    between atoms: C_29  and  C_38
   11  A    between atoms: C_33  and  C_52
   12  A    between atoms: C_35  and  C_43
   13  A    between atoms: C_37  and  C_40
   14  A    between atoms: C_43  and  C_51
                            x       y       z     vdW  Elec       q    Type
                         _______ _______ _______ _____ _____    ______ ____

>  <TORSDO>
F 14

$$$$
=
 OpenBabel11052414483D

 55 61  0  0  1  0  0  0  0  0999 V2000
  192.0820  176.0280  137.4160 C   0  0  0  0  0  2  0  0  0  0  0  0
  194.1120  174.8450  136.9670 O   0  0  0  0  0  1  0  0  0  0  0  0
  192.9360  177.0950  139.3140 C   0  0  1  0  0  3  0  0  0  0  0  0
  194.1590  176.5930  138.5950 C   0  0  0  0  0  2  0  0  0  0  0  0
  193.6010  176.1110  137.2540 C   0  0  2  0  0  3  0  0  0  0  0  0
  191.8750  176.1250  138.9090 C   0  0  1  0  0  3  0  0  0  0  0  0
  191.8110  177.6900  141.3130 C   0  0  1  0  0  3  0  0  0  0  0  0
  193.0360  177.0760  140.7620 N   0  0  0  0  0  2  0  0  0  0  0  0
  190.5460  176.6260  139.4080 C   0  0  0  0  0  0  0  0  0  0  0  0
  190.5180  177.3270  140.5660 C   0  0  0  0  0  0  0  0  0  0  0  0
  191.7160  178.3710  143.6950 N   0  0  0  0  0  0  0  0  0  0  0  0
  191.5390  176.7890  145.4830 C   0  0  0  0  0  0  0  0  0  0  0  0
  191.6170  176.0410  143.1820 C   0  0  0  0  0  3  0  0  0  0  0  0
  191.5320  175.7520  144.5440 C   0  0  0  0  0  3  0  0  0  0  0  0
  191.6330  178.1090  145.0280 C   0  0  0  0  0  3  0  0  0  0  0  0
  191.7080  177.3720  142.7700 C   0  0  0  0  0  0  0  0  0  0  0  0
  191.4520  176.4900  146.9220 C   0  0  0  0  0  0  0  0  0  0  0  0
  192.5690  176.0300  147.6100 O   0  0  0  0  0  1  0  0  0  0  0  0
  190.3670  176.6480  147.5420 O   0  0  0  0  0  0  0  0  0  0  0  0
  189.4140  177.8480  137.0090 O   0  0  0  0  0  0  0  0  0  0  0  0
  189.3190  176.2810  138.7450 N   0  0  0  0  0  2  0  0  0  0  0  0
  188.7320  177.0190  137.6680 C   0  0  0  0  0  0  0  0  0  0  0  0
  187.3110  176.7780  137.2870 C   0  0  0  0  0  2  0  0  0  0  0  0
  187.1940  176.4170  135.8180 C   0  0  0  0  0  2  0  0  0  0  0  0
  185.7350  176.2820  135.4360 C   0  0  0  0  0  2  0  0  0  0  0  0
  185.3410  174.8190  135.4510 C   0  0  0  0  0  2  0  0  0  0  0  0
  183.8240  174.6850  135.4400 C   0  0  0  0  0  2  0  0  0  0  0  0
  179.8680  176.4330  140.0820 C   0  0  0  0  0  0  0  0  0  0  0  0
  183.3020  179.6960  139.1960 F   0  0  0  0  0  0  0  0  0  0  0  0
  183.3770  177.5030  138.3150 C   0  0  0  0  0  0  0  0  0  0  0  0
  182.1330  175.6470  137.1010 C   0  0  0  0  0  2  0  0  0  0  0  0
  183.1630  174.5610  136.8210 C   0  0  2  0  0  3  0  0  0  0  0  0
  184.1090  178.0310  140.4770 F   0  0  0  0  0  0  0  0  0  0  0  0
  183.1510  178.3610  139.5340 C   0  0  0  0  0  0  0  0  0  0  0  0
  182.9270  176.0600  138.3290 C   0  0  1  0  0  0  0  0  0  0  0  0
  179.4710  175.2440  139.9630 O   0  0  0  0  0  0  0  0  0  0  0  0
  184.0130  175.0540  137.9870 C   0  0  0  0  0  2  0  0  0  0  0  0
  178.9360  177.4400  140.2960 O   0  0  0  0  0  1  0  0  0  0  0  0
  181.7220  178.1400  140.0970 C   0  0  1  0  0  3  0  0  0  0  0  0
  182.2110  175.6890  139.6250 C   0  0  0  0  0  2  0  0  0  0  0  0
  183.9500  177.9660  137.3410 O   0  0  0  0  0  0  0  0  0  0  0  0
  181.2650  176.7450  139.9850 N   0  0  0  0  0  0  0  0  0  0  0  0
  181.4990  178.6720  141.5220 C   0  0  1  0  0  3  0  0  0  0  0  0
  182.7040  179.0550  142.1160 O   0  0  0  0  0  1  0  0  0  0  0  0
  180.5000  179.8170  141.5520 C   0  0  0  0  0  2  0  0  0  0  0  0
  180.4720  180.3890  142.8250 O   0  0  0  0  0  1  0  0  0  0  0  0
  189.2210  177.8320  141.1250 C   0  0  0  0  0  2  0  0  0  0  0  0
  188.5010  176.7350  141.8900 C   0  0  0  0  0  2  0  0  0  0  0  0
  186.4050  177.9560  142.7410 C   0  0  0  0  0  3  0  0  0  0  0  0
  187.6230  177.9350  145.4770 C   0  0  2  0  0  3  0  0  0  0  0  0
  188.2830  177.2920  144.2720 C   0  0  0  0  0  3  0  0  0  0  0  0
  185.6470  178.4020  143.7490 C   0  0  0  0  0  3  0  0  0  0  0  0
  187.7400  177.3270  143.0240 C   0  0  0  0  0  0  0  0  0  0  0  0
  186.6240  177.1770  146.0280 C   0  0  0  0  0  2  0  0  0  0  0  0
  186.2410  178.2040  145.0120 N   0  0  0  0  0  0  0  0  0  0  0  0
  3  4  1  6  0  0  0
  3  8  1  0  0  0  0
  5  2  1  1  0  0  0
  5  1  1  0  0  0  0
  5  4  1  0  0  0  0
  6  1  1  6  0  0  0
  6  3  1  0  0  0  0
  6  9  1  0  0  0  0
  7 16  1  1  0  0  0
  8  7  1  0  0  0  0
  9 10  2  0  0  0  0
 10 47  1  0  0  0  0
 10  7  1  0  0  0  0
 11 15  1  0  0  0  0
 12 17  1  0  0  0  0
 13 14  2  0  0  0  0
 14 12  1  0  0  0  0
 15 12  2  0  0  0  0
 16 13  1  0  0  0  0
 16 11  2  0  0  0  0
 17 19  2  0  0  0  0
 17 18  1  0  0  0  0
 20 22  2  0  0  0  0
 21  9  1  0  0  0  0
 22 21  1  0  0  0  0
 23 22  1  0  0  0  0
 24 23  1  0  0  0  0
 25 26  1  0  0  0  0
 25 24  1  0  0  0  0
 27 26  1  0  0  0  0
 28 38  1  0  0  0  0
 29 34  1  0  0  0  0
 30 35  1  0  0  0  0
 30 34  1  0  0  0  0
 32 27  1  6  0  0  0
 32 31  1  0  0  0  0
 32 37  1  0  0  0  0
 34 39  1  0  0  0  0
 34 33  1  0  0  0  0
 35 31  1  6  0  0  0
 35 40  1  0  0  0  0
 36 28  2  0  0  0  0
 37 35  1  0  0  0  0
 39 43  1  1  0  0  0
 40 42  1  0  0  0  0
 41 30  2  0  0  0  0
 42 28  1  0  0  0  0
 42 39  1  0  0  0  0
 43 45  1  0  0  0  0
 43 44  1  6  0  0  0
 45 46  1  0  0  0  0
 47 48  1  0  0  0  0
 48 53  1  0  0  0  0
 49 53  1  0  0  0  0
 49 52  2  0  0  0  0
 50 51  1  6  0  0  0
 50 54  1  0  0  0  0
 52 55  1  0  0  0  0
 53 51  2  0  0  0  0
 55 50  1  0  0  0  0
 55 54  1  0  0  0  0
M  END
>  <MODEL>
5

>  <REMARK>
 VINA RESULT:      -7.3      2.671      6.051
  Name = 
  14 active torsions:
  status: ('A' for Active; 'I' for Inactive)
    1  A    between atoms: C_2  and  C_28
    2  A    between atoms: C_2  and  C_44
    3  A    between atoms: C_4  and  C_35
    4  A    between atoms: C_4  and  C_37
    5  A    between atoms: C_8  and  C_51
    6  A    between atoms: C_10  and  C_32
    7  A    between atoms: C_11  and  C_29
    8  A    between atoms: N_19  and  C_45
    9  A    between atoms: C_28  and  C_49
   10  A    between atoms: C_29  and  C_38
   11  A    between atoms: C_33  and  C_52
   12  A    between atoms: C_35  and  C_43
   13  A    between atoms: C_37  and  C_40
   14  A    between atoms: C_43  and  C_51
                            x       y       z     vdW  Elec       q    Type
                         _______ _______ _______ _____ _____    ______ ____

>  <TORSDO>
F 14

$$$$
=
 OpenBabel11052414483D

 55 61  0  0  1  0  0  0  0  0999 V2000
  191.4200  176.2000  137.3720 C   0  0  0  0  0  2  0  0  0  0  0  0
  193.3650  174.9020  136.8680 O   0  0  0  0  0  1  0  0  0  0  0  0
  192.3840  177.2090  139.2490 C   0  0  1  0  0  3  0  0  0  0  0  0
  193.5560  176.6390  138.4970 C   0  0  0  0  0  2  0  0  0  0  0  0
  192.9370  176.1940  137.1700 C   0  0  2  0  0  3  0  0  0  0  0  0
  191.2580  176.3040  138.8700 C   0  0  1  0  0  3  0  0  0  0  0  0
  191.3480  177.8620  141.2770 C   0  0  1  0  0  3  0  0  0  0  0  0
  192.5200  177.1800  140.6940 N   0  0  0  0  0  2  0  0  0  0  0  0
  189.9740  176.8790  139.4040 C   0  0  0  0  0  0  0  0  0  0  0  0
  190.0170  177.5780  140.5640 C   0  0  0  0  0  0  0  0  0  0  0  0
  191.3510  176.2570  143.1670 N   0  0  0  0  0  0  0  0  0  0  0  0
  191.0860  176.9460  145.4450 C   0  0  0  0  0  0  0  0  0  0  0  0
  191.0830  178.5790  143.6570 C   0  0  0  0  0  3  0  0  0  0  0  0
  190.9950  178.2740  145.0150 C   0  0  0  0  0  3  0  0  0  0  0  0
  191.2670  175.9400  144.4880 C   0  0  0  0  0  3  0  0  0  0  0  0
  191.2640  177.5460  142.7360 C   0  0  0  0  0  0  0  0  0  0  0  0
  190.9920  176.6180  146.8770 C   0  0  0  0  0  0  0  0  0  0  0  0
  192.1460  176.4050  147.6230 O   0  0  0  0  0  1  0  0  0  0  0  0
  189.8680  176.5270  147.4390 O   0  0  0  0  0  0  0  0  0  0  0  0
  188.6610  178.4350  137.3100 O   0  0  0  0  0  0  0  0  0  0  0  0
  188.7120  176.6090  138.7730 N   0  0  0  0  0  2  0  0  0  0  0  0
  188.0400  177.4920  137.8680 C   0  0  0  0  0  0  0  0  0  0  0  0
  186.6020  177.2720  137.5440 C   0  0  0  0  0  2  0  0  0  0  0  0
  186.4480  176.4700  136.2660 C   0  0  0  0  0  2  0  0  0  0  0  0
  185.1460  176.8340  135.5830 C   0  0  0  0  0  2  0  0  0  0  0  0
  183.9860  176.5250  136.5080 C   0  0  0  0  0  2  0  0  0  0  0  0
  182.7310  176.2370  135.6960 C   0  0  0  0  0  2  0  0  0  0  0  0
  179.4830  180.6320  138.9180 C   0  0  0  0  0  0  0  0  0  0  0  0
  181.9560  177.6390  141.7720 F   0  0  0  0  0  0  0  0  0  0  0  0
  181.6300  177.2160  139.4690 C   0  0  0  0  0  0  0  0  0  0  0  0
  181.7300  178.1290  137.0960 C   0  0  0  0  0  2  0  0  0  0  0  0
  181.4560  176.9450  136.1780 C   0  0  2  0  0  3  0  0  0  0  0  0
  180.0360  176.6780  141.0990 F   0  0  0  0  0  0  0  0  0  0  0  0
  180.9950  177.6220  140.7750 C   0  0  0  0  0  0  0  0  0  0  0  0
  180.8890  177.4640  138.1750 C   0  0  1  0  0  0  0  0  0  0  0  0
  178.9840  180.8550  137.7820 O   0  0  0  0  0  0  0  0  0  0  0  0
  180.7110  176.2330  137.3020 C   0  0  0  0  0  2  0  0  0  0  0  0
  179.7760  181.7040  139.7510 O   0  0  0  0  0  1  0  0  0  0  0  0
  180.3630  179.0350  140.6570 C   0  0  1  0  0  3  0  0  0  0  0  0
  179.5640  178.1880  138.3950 C   0  0  0  0  0  2  0  0  0  0  0  0
  182.7190  176.6630  139.4660 O   0  0  0  0  0  0  0  0  0  0  0  0
  179.7550  179.2880  139.3400 N   0  0  0  0  0  0  0  0  0  0  0  0
  179.3870  179.4020  141.7860 C   0  0  1  0  0  3  0  0  0  0  0  0
  178.9740  178.2690  142.4900 O   0  0  0  0  0  1  0  0  0  0  0  0
  179.9760  180.4350  142.7320 C   0  0  0  0  0  2  0  0  0  0  0  0
  181.2890  180.0880  143.0550 O   0  0  0  0  0  1  0  0  0  0  0  0
  188.7670  178.1560  141.1570 C   0  0  0  0  0  2  0  0  0  0  0  0
  188.1350  177.1810  142.1370 C   0  0  0  0  0  2  0  0  0  0  0  0
  185.9350  178.5090  142.1020 C   0  0  0  0  0  3  0  0  0  0  0  0
  186.0540  178.5980  145.0930 C   0  0  2  0  0  3  0  0  0  0  0  0
  187.0810  177.8720  144.2440 C   0  0  0  0  0  3  0  0  0  0  0  0
  184.8810  179.0310  142.7380 C   0  0  0  0  0  3  0  0  0  0  0  0
  187.0400  177.8560  142.8840 C   0  0  0  0  0  0  0  0  0  0  0  0
  184.8870  177.9010  145.2630 C   0  0  0  0  0  2  0  0  0  0  0  0
  184.9570  178.8840  144.1380 N   0  0  0  0  0  0  0  0  0  0  0  0
  3  4  1  6  0  0  0
  3  8  1  0  0  0  0
  5  2  1  1  0  0  0
  5  1  1  0  0  0  0
  5  4  1  0  0  0  0
  6  1  1  6  0  0  0
  6  3  1  0  0  0  0
  6  9  1  0  0  0  0
  7 16  1  1  0  0  0
  8  7  1  0  0  0  0
  9 10  2  0  0  0  0
 10 47  1  0  0  0  0
 10  7  1  0  0  0  0
 11 15  1  0  0  0  0
 12 17  1  0  0  0  0
 13 14  2  0  0  0  0
 14 12  1  0  0  0  0
 15 12  2  0  0  0  0
 16 11  2  0  0  0  0
 16 13  1  0  0  0  0
 17 19  2  0  0  0  0
 17 18  1  0  0  0  0
 20 22  2  0  0  0  0
 21  9  1  0  0  0  0
 22 21  1  0  0  0  0
 23 22  1  0  0  0  0
 24 23  1  0  0  0  0
 25 24  1  0  0  0  0
 25 26  1  0  0  0  0
 27 26  1  0  0  0  0
 28 42  1  0  0  0  0
 28 38  1  0  0  0  0
 30 34  1  0  0  0  0
 32 27  1  1  0  0  0
 32 31  1  0  0  0  0
 32 37  1  0  0  0  0
 34 33  1  0  0  0  0
 34 29  1  0  0  0  0
 35 31  1  6  0  0  0
 35 40  1  0  0  0  0
 35 30  1  0  0  0  0
 36 28  2  0  0  0  0
 37 35  1  0  0  0  0
 39 34  1  0  0  0  0
 39 43  1  1  0  0  0
 40 42  1  0  0  0  0
 41 30  2  0  0  0  0
 42 39  1  0  0  0  0
 43 44  1  1  0  0  0
 43 45  1  0  0  0  0
 45 46  1  0  0  0  0
 47 48  1  0  0  0  0
 48 53  1  0  0  0  0
 49 52  2  0  0  0  0
 49 53  1  0  0  0  0
 50 51  1  6  0  0  0
 50 54  1  0  0  0  0
 52 55  1  0  0  0  0
 53 51  2  0  0  0  0
 55 50  1  0  0  0  0
 55 54  1  0  0  0  0
M  END
>  <MODEL>
6

>  <REMARK>
 VINA RESULT:      -7.3      2.460      6.197
  Name = 
  14 active torsions:
  status: ('A' for Active; 'I' for Inactive)
    1  A    between atoms: C_2  and  C_28
    2  A    between atoms: C_2  and  C_44
    3  A    between atoms: C_4  and  C_35
    4  A    between atoms: C_4  and  C_37
    5  A    between atoms: C_8  and  C_51
    6  A    between atoms: C_10  and  C_32
    7  A    between atoms: C_11  and  C_29
    8  A    between atoms: N_19  and  C_45
    9  A    between atoms: C_28  and  C_49
   10  A    between atoms: C_29  and  C_38
   11  A    between atoms: C_33  and  C_52
   12  A    between atoms: C_35  and  C_43
   13  A    between atoms: C_37  and  C_40
   14  A    between atoms: C_43  and  C_51
                            x       y       z     vdW  Elec       q    Type
                         _______ _______ _______ _____ _____    ______ ____

>  <TORSDO>
F 14

$$$$
=
 OpenBabel11052414483D

 55 61  0  0  1  0  0  0  0  0999 V2000
  186.3970  177.9370  137.3160 C   0  0  0  0  0  2  0  0  0  0  0  0
  187.4340  176.7750  135.5010 O   0  0  0  0  0  1  0  0  0  0  0  0
  188.4270  178.4230  138.3730 C   0  0  1  0  0  3  0  0  0  0  0  0
  188.8250  178.0410  136.9730 C   0  0  0  0  0  2  0  0  0  0  0  0
  187.4840  177.9560  136.2400 C   0  0  2  0  0  3  0  0  0  0  0  0
  187.1600  177.6620  138.5910 C   0  0  1  0  0  3  0  0  0  0  0  0
  188.8960  178.5610  140.6910 C   0  0  1  0  0  3  0  0  0  0  0  0
  189.3730  178.0280  139.4000 N   0  0  0  0  0  2  0  0  0  0  0  0
  186.5470  178.1070  139.8920 C   0  0  0  0  0  0  0  0  0  0  0  0
  187.3740  178.4890  140.8940 C   0  0  0  0  0  0  0  0  0  0  0  0
  189.4410  176.5620  142.0530 N   0  0  0  0  0  0  0  0  0  0  0  0
  190.9660  176.6340  143.8970 C   0  0  0  0  0  0  0  0  0  0  0  0
  190.4960  178.6310  142.6100 C   0  0  0  0  0  3  0  0  0  0  0  0
  191.1670  177.9980  143.6570 C   0  0  0  0  0  3  0  0  0  0  0  0
  190.0860  175.9280  143.0700 C   0  0  0  0  0  3  0  0  0  0  0  0
  189.6280  177.8880  141.8080 C   0  0  0  0  0  0  0  0  0  0  0  0
  191.6700  175.9620  145.0010 C   0  0  0  0  0  0  0  0  0  0  0  0
  192.3770  174.7870  144.7680 O   0  0  0  0  0  0  0  0  0  0  0  0
  191.6390  176.4420  146.1650 O   0  0  0  0  0  1  0  0  0  0  0  0
  184.5340  180.1470  139.3280 O   0  0  0  0  0  0  0  0  0  0  0  0
  185.1300  178.0260  140.1180 N   0  0  0  0  0  2  0  0  0  0  0  0
  184.2120  179.1150  139.9750 C   0  0  0  0  0  0  0  0  0  0  0  0
  182.8430  179.0160  140.5550 C   0  0  0  0  0  2  0  0  0  0  0  0
  182.0130  177.9820  139.8190 C   0  0  0  0  0  2  0  0  0  0  0  0
  180.9210  178.6680  139.0250 C   0  0  0  0  0  2  0  0  0  0  0  0
  179.7300  177.7400  138.8940 C   0  0  0  0  0  2  0  0  0  0  0  0
  180.1610  176.2990  139.1310 C   0  0  0  0  0  2  0  0  0  0  0  0
  182.2340  171.2910  135.8330 C   0  0  0  0  0  0  0  0  0  0  0  0
  185.8060  174.0050  137.5920 F   0  0  0  0  0  0  0  0  0  0  0  0
  183.5550  174.7260  137.5740 C   0  0  0  0  0  0  0  0  0  0  0  0
  181.1290  174.1670  138.1000 C   0  0  0  0  0  2  0  0  0  0  0  0
  180.3410  175.4480  137.8640 C   0  0  2  0  0  3  0  0  0  0  0  0
  184.9680  174.9240  135.7170 F   0  0  0  0  0  0  0  0  0  0  0  0
  184.6800  174.1000  136.7910 C   0  0  0  0  0  0  0  0  0  0  0  0
  182.1390  174.6170  137.0560 C   0  0  1  0  0  0  0  0  0  0  0  0
  181.0150  171.1980  135.5280 O   0  0  0  0  0  0  0  0  0  0  0  0
  181.4150  175.9440  136.9030 C   0  0  0  0  0  2  0  0  0  0  0  0
  182.9570  170.1330  136.0910 O   0  0  0  0  0  1  0  0  0  0  0  0
  184.2820  172.6800  136.3070 C   0  0  1  0  0  3  0  0  0  0  0  0
  182.0520  173.7840  135.7800 C   0  0  0  0  0  2  0  0  0  0  0  0
  183.7950  175.3440  138.6000 O   0  0  0  0  0  0  0  0  0  0  0  0
  182.8640  172.5760  135.9240 N   0  0  0  0  0  0  0  0  0  0  0  0
  185.1860  172.0940  135.2100 C   0  0  1  0  0  3  0  0  0  0  0  0
  185.9670  173.0850  134.6110 O   0  0  0  0  0  1  0  0  0  0  0  0
  186.0620  170.9690  135.7370 C   0  0  0  0  0  2  0  0  0  0  0  0
  187.3550  171.4430  135.9670 O   0  0  0  0  0  1  0  0  0  0  0  0
  186.8220  178.9200  142.2200 C   0  0  0  0  0  2  0  0  0  0  0  0
  186.3410  177.7200  143.0190 C   0  0  0  0  0  2  0  0  0  0  0  0
  185.4270  178.4460  145.3090 C   0  0  0  0  0  3  0  0  0  0  0  0
  188.1690  178.0120  146.4310 C   0  0  2  0  0  3  0  0  0  0  0  0
  187.8130  177.7310  144.9840 C   0  0  0  0  0  3  0  0  0  0  0  0
  185.5690  178.5660  146.6330 C   0  0  0  0  0  3  0  0  0  0  0  0
  186.5730  177.9550  144.4700 C   0  0  0  0  0  0  0  0  0  0  0  0
  187.7710  177.0300  147.2990 C   0  0  0  0  0  2  0  0  0  0  0  0
  186.8500  178.1880  147.0840 N   0  0  0  0  0  0  0  0  0  0  0  0
  3  4  1  6  0  0  0
  3  6  1  0  0  0  0
  3  8  1  0  0  0  0
  5  2  1  1  0  0  0
  5  4  1  0  0  0  0
  5  1  1  0  0  0  0
  6  1  1  6  0  0  0
  6  9  1  0  0  0  0
  7 10  1  0  0  0  0
  7 16  1  1  0  0  0
  8  7  1  0  0  0  0
  9 21  1  0  0  0  0
  9 10  2  0  0  0  0
 10 47  1  0  0  0  0
 11 15  1  0  0  0  0
 12 17  1  0  0  0  0
 13 14  2  0  0  0  0
 14 12  1  0  0  0  0
 15 12  2  0  0  0  0
 16 11  2  0  0  0  0
 16 13  1  0  0  0  0
 17 19  1  0  0  0  0
 18 17  2  0  0  0  0
 20 22  2  0  0  0  0
 22 21  1  0  0  0  0
 22 23  1  0  0  0  0
 24 23  1  0  0  0  0
 25 24  1  0  0  0  0
 26 25  1  0  0  0  0
 26 27  1  0  0  0  0
 28 42  1  0  0  0  0
 28 38  1  0  0  0  0
 30 41  2  0  0  0  0
 32 31  1  0  0  0  0
 32 27  1  1  0  0  0
 33 34  1  0  0  0  0
 34 30  1  0  0  0  0
 34 29  1  0  0  0  0
 35 40  1  6  0  0  0
 35 30  1  0  0  0  0
 35 31  1  0  0  0  0
 36 28  2  0  0  0  0
 37 35  1  0  0  0  0
 37 32  1  0  0  0  0
 39 43  1  6  0  0  0
 39 34  1  0  0  0  0
 40 42  1  0  0  0  0
 42 39  1  0  0  0  0
 43 44  1  1  0  0  0
 43 45  1  0  0  0  0
 45 46  1  0  0  0  0
 47 48  1  0  0  0  0
 48 53  1  0  0  0  0
 49 52  2  0  0  0  0
 50 51  1  6  0  0  0
 50 55  1  0  0  0  0
 50 54  1  0  0  0  0
 52 55  1  0  0  0  0
 53 51  2  0  0  0  0
 53 49  1  0  0  0  0
 55 54  1  0  0  0  0
M  END
>  <MODEL>
7

>  <REMARK>
 VINA RESULT:      -7.2      3.752      6.797
  Name = 
  14 active torsions:
  status: ('A' for Active; 'I' for Inactive)
    1  A    between atoms: C_2  and  C_28
    2  A    between atoms: C_2  and  C_44
    3  A    between atoms: C_4  and  C_35
    4  A    between atoms: C_4  and  C_37
    5  A    between atoms: C_8  and  C_51
    6  A    between atoms: C_10  and  C_32
    7  A    between atoms: C_11  and  C_29
    8  A    between atoms: N_19  and  C_45
    9  A    between atoms: C_28  and  C_49
   10  A    between atoms: C_29  and  C_38
   11  A    between atoms: C_33  and  C_52
   12  A    between atoms: C_35  and  C_43
   13  A    between atoms: C_37  and  C_40
   14  A    between atoms: C_43  and  C_51
                            x       y       z     vdW  Elec       q    Type
                         _______ _______ _______ _____ _____    ______ ____

>  <TORSDO>
F 14

$$$$
=
 OpenBabel11052414483D

 55 61  0  0  1  0  0  0  0  0999 V2000
  181.6900  179.2350  141.3970 C   0  0  0  0  0  2  0  0  0  0  0  0
  179.6520  179.4670  142.6280 O   0  0  0  0  0  1  0  0  0  0  0  0
  180.6230  178.4520  139.4680 C   0  0  1  0  0  3  0  0  0  0  0  0
  179.5130  179.0690  140.2760 C   0  0  0  0  0  2  0  0  0  0  0  0
  180.2580  179.7760  141.4110 C   0  0  2  0  0  3  0  0  0  0  0  0
  181.6050  178.0180  140.5070 C   0  0  1  0  0  3  0  0  0  0  0  0
  181.3930  176.8640  137.8880 C   0  0  1  0  0  3  0  0  0  0  0  0
  180.2340  177.2840  138.6990 N   0  0  0  0  0  2  0  0  0  0  0  0
  182.8620  177.5560  139.8190 C   0  0  0  0  0  0  0  0  0  0  0  0
  182.7500  176.9720  138.6020 C   0  0  0  0  0  0  0  0  0  0  0  0
  180.7580  174.4880  138.2040 N   0  0  0  0  0  0  0  0  0  0  0  0
  180.7460  172.9060  136.4080 C   0  0  0  0  0  0  0  0  0  0  0  0
  181.3700  175.2120  136.0120 C   0  0  0  0  0  3  0  0  0  0  0  0
  181.1610  173.9180  135.5350 C   0  0  0  0  0  3  0  0  0  0  0  0
  180.5490  173.2200  137.7570 C   0  0  0  0  0  3  0  0  0  0  0  0
  181.1600  175.4830  137.3660 C   0  0  0  0  0  0  0  0  0  0  0  0
  180.5260  171.5390  135.9100 C   0  0  0  0  0  0  0  0  0  0  0  0
  179.3120  171.1940  135.3250 O   0  0  0  0  0  0  0  0  0  0  0  0
  181.4320  170.6690  136.0090 O   0  0  0  0  0  1  0  0  0  0  0  0
  184.7890  179.7490  139.7460 O   0  0  0  0  0  0  0  0  0  0  0  0
  184.1400  177.6210  140.4720 N   0  0  0  0  0  2  0  0  0  0  0  0
  185.1130  178.6510  140.2710 C   0  0  0  0  0  0  0  0  0  0  0  0
  186.5180  178.4480  140.7250 C   0  0  0  0  0  2  0  0  0  0  0  0
  187.4900  178.5860  139.5690 C   0  0  0  0  0  2  0  0  0  0  0  0
  188.3170  177.3240  139.4390 C   0  0  0  0  0  2  0  0  0  0  0  0
  189.7900  177.6740  139.5170 C   0  0  0  0  0  2  0  0  0  0  0  0
  190.5080  176.7090  140.4510 C   0  0  0  0  0  2  0  0  0  0  0  0
  191.0440  176.6360  146.7730 C   0  0  0  0  0  0  0  0  0  0  0  0
  186.4680  176.6080  145.2630 F   0  0  0  0  0  0  0  0  0  0  0  0
  188.2790  177.0670  143.8150 C   0  0  0  0  0  0  0  0  0  0  0  0
  190.5800  176.3660  142.9850 C   0  0  0  0  0  2  0  0  0  0  0  0
  190.9050  177.2880  141.8180 C   0  0  2  0  0  3  0  0  0  0  0  0
  187.3080  178.6940  145.1920 F   0  0  0  0  0  0  0  0  0  0  0  0
  187.6320  177.3490  145.1470 C   0  0  0  0  0  0  0  0  0  0  0  0
  189.7200  177.4640  143.5900 C   0  0  1  0  0  0  0  0  0  0  0  0
  192.2540  176.8620  146.5050 O   0  0  0  0  0  0  0  0  0  0  0  0
  189.9520  178.3420  142.3710 C   0  0  0  0  0  2  0  0  0  0  0  0
  190.7310  175.7660  147.8080 O   0  0  0  0  0  1  0  0  0  0  0  0
  188.5900  176.9720  146.3080 C   0  0  1  0  0  3  0  0  0  0  0  0
  190.3570  178.0660  144.8400 C   0  0  0  0  0  2  0  0  0  0  0  0
  187.6300  176.5510  142.9180 O   0  0  0  0  0  0  0  0  0  0  0  0
  190.0030  177.2610  146.0090 N   0  0  0  0  0  0  0  0  0  0  0  0
  188.1980  177.5420  147.6810 C   0  0  1  0  0  3  0  0  0  0  0  0
  189.0290  178.6030  148.0480 O   0  0  0  0  0  1  0  0  0  0  0  0
  186.7390  177.9650  147.7250 C   0  0  0  0  0  2  0  0  0  0  0  0
  186.6490  179.3280  148.0160 O   0  0  0  0  0  1  0  0  0  0  0  0
  183.9640  176.4710  137.8790 C   0  0  0  0  0  2  0  0  0  0  0  0
  184.4890  177.5220  136.9140 C   0  0  0  0  0  2  0  0  0  0  0  0
  186.8210  178.1830  136.0600 C   0  0  0  0  0  3  0  0  0  0  0  0
  187.3900  175.2720  135.6520 C   0  0  2  0  0  3  0  0  0  0  0  0
  186.0900  175.7870  136.2410 C   0  0  0  0  0  3  0  0  0  0  0  0
  188.0650  177.8510  135.6970 C   0  0  0  0  0  3  0  0  0  0  0  0
  185.8230  177.1120  136.3990 C   0  0  0  0  0  0  0  0  0  0  0  0
  188.4270  175.2430  136.5460 C   0  0  0  0  0  2  0  0  0  0  0  0
  188.2790  176.4570  135.6860 N   0  0  0  0  0  0  0  0  0  0  0  0
  1  5  1  0  0  0  0
  3  4  1  1  0  0  0
  3  6  1  0  0  0  0
  4  5  1  0  0  0  0
  5  2  1  1  0  0  0
  6  1  1  1  0  0  0
  7 16  1  1  0  0  0
  7 10  1  0  0  0  0
  7  8  1  0  0  0  0
  8  3  1  0  0  0  0
  9 21  1  0  0  0  0
  9  6  1  0  0  0  0
 10  9  2  0  0  0  0
 12 15  2  0  0  0  0
 13 16  1  0  0  0  0
 14 13  2  0  0  0  0
 14 12  1  0  0  0  0
 15 11  1  0  0  0  0
 16 11  2  0  0  0  0
 17 19  1  0  0  0  0
 17 12  1  0  0  0  0
 18 17  2  0  0  0  0
 20 22  2  0  0  0  0
 22 21  1  0  0  0  0
 22 23  1  0  0  0  0
 24 23  1  0  0  0  0
 25 26  1  0  0  0  0
 25 24  1  0  0  0  0
 26 27  1  0  0  0  0
 28 38  1  0  0  0  0
 30 34  1  0  0  0  0
 31 35  1  0  0  0  0
 32 27  1  6  0  0  0
 32 37  1  0  0  0  0
 32 31  1  0  0  0  0
 34 33  1  0  0  0  0
 34 29  1  0  0  0  0
 34 39  1  0  0  0  0
 35 37  1  6  0  0  0
 35 30  1  0  0  0  0
 35 40  1  0  0  0  0
 36 28  2  0  0  0  0
 39 43  1  1  0  0  0
 40 42  1  0  0  0  0
 41 30  2  0  0  0  0
 42 39  1  0  0  0  0
 42 28  1  0  0  0  0
 43 45  1  0  0  0  0
 43 44  1  6  0  0  0
 45 46  1  0  0  0  0
 47 10  1  0  0  0  0
 48 47  1  0  0  0  0
 49 53  1  0  0  0  0
 50 55  1  0  0  0  0
 50 51  1  1  0  0  0
 50 54  1  0  0  0  0
 51 53  2  0  0  0  0
 52 49  2  0  0  0  0
 53 48  1  0  0  0  0
 55 52  1  0  0  0  0
 55 54  1  0  0  0  0
M  END
>  <MODEL>
8

>  <REMARK>
 VINA RESULT:      -7.1      3.750      9.386
  Name = 
  14 active torsions:
  status: ('A' for Active; 'I' for Inactive)
    1  A    between atoms: C_2  and  C_28
    2  A    between atoms: C_2  and  C_44
    3  A    between atoms: C_4  and  C_35
    4  A    between atoms: C_4  and  C_37
    5  A    between atoms: C_8  and  C_51
    6  A    between atoms: C_10  and  C_32
    7  A    between atoms: C_11  and  C_29
    8  A    between atoms: N_19  and  C_45
    9  A    between atoms: C_28  and  C_49
   10  A    between atoms: C_29  and  C_38
   11  A    between atoms: C_33  and  C_52
   12  A    between atoms: C_35  and  C_43
   13  A    between atoms: C_37  and  C_40
   14  A    between atoms: C_43  and  C_51
                            x       y       z     vdW  Elec       q    Type
                         _______ _______ _______ _____ _____    ______ ____

>  <TORSDO>
F 14

$$$$
=
 OpenBabel11052414483D

 55 61  0  0  1  0  0  0  0  0999 V2000
  191.1180  176.3120  137.7650 C   0  0  0  0  0  2  0  0  0  0  0  0
  192.9690  174.8930  137.2350 O   0  0  0  0  0  1  0  0  0  0  0  0
  192.1740  177.2650  139.6220 C   0  0  1  0  0  3  0  0  0  0  0  0
  193.2950  176.6200  138.8540 C   0  0  0  0  0  2  0  0  0  0  0  0
  192.6270  176.2110  137.5390 C   0  0  2  0  0  3  0  0  0  0  0  0
  190.9870  176.4310  139.2650 C   0  0  1  0  0  3  0  0  0  0  0  0
  191.2150  177.9880  141.6650 C   0  0  1  0  0  3  0  0  0  0  0  0
  192.3310  177.2310  141.0650 N   0  0  0  0  0  2  0  0  0  0  0  0
  189.7510  177.0880  139.8180 C   0  0  0  0  0  0  0  0  0  0  0  0
  189.8570  177.7860  140.9740 C   0  0  0  0  0  0  0  0  0  0  0  0
  191.5120  176.4610  143.5950 N   0  0  0  0  0  0  0  0  0  0  0  0
  190.9680  177.0970  145.8380 C   0  0  0  0  0  0  0  0  0  0  0  0
  190.6580  178.6520  144.0090 C   0  0  0  0  0  3  0  0  0  0  0  0
  190.5770  178.3550  145.3690 C   0  0  0  0  0  3  0  0  0  0  0  0
  191.4390  176.1530  144.9180 C   0  0  0  0  0  3  0  0  0  0  0  0
  191.1350  177.6820  143.1260 C   0  0  0  0  0  0  0  0  0  0  0  0
  190.8830  176.7770  147.2720 C   0  0  0  0  0  0  0  0  0  0  0  0
  191.4540  175.6080  147.7640 O   0  0  0  0  0  0  0  0  0  0  0  0
  190.2920  177.5560  148.0670 O   0  0  0  0  0  1  0  0  0  0  0  0
  188.5630  178.6300  137.6400 O   0  0  0  0  0  0  0  0  0  0  0  0
  188.4640  176.8960  139.2080 N   0  0  0  0  0  2  0  0  0  0  0  0
  187.8660  177.7810  138.2550 C   0  0  0  0  0  0  0  0  0  0  0  0
  186.4110  177.6730  137.9490 C   0  0  0  0  0  2  0  0  0  0  0  0
  186.1870  177.1800  136.5320 C   0  0  0  0  0  2  0  0  0  0  0  0
  184.7030  177.0480  136.2620 C   0  0  0  0  0  2  0  0  0  0  0  0
  184.1570  175.8510  137.0140 C   0  0  0  0  0  2  0  0  0  0  0  0
  183.2610  176.3140  138.1550 C   0  0  0  0  0  2  0  0  0  0  0  0
  179.7950  180.8140  135.3300 C   0  0  0  0  0  0  0  0  0  0  0  0
  182.4670  182.4950  138.9700 F   0  0  0  0  0  0  0  0  0  0  0  0
  182.1430  180.1830  138.5950 C   0  0  0  0  0  0  0  0  0  0  0  0
  182.1650  178.2680  136.9200 C   0  0  0  0  0  2  0  0  0  0  0  0
  181.9520  176.9970  137.7310 C   0  0  2  0  0  3  0  0  0  0  0  0
  180.5990  181.5120  139.7520 F   0  0  0  0  0  0  0  0  0  0  0  0
  181.4990  181.5420  138.7000 C   0  0  0  0  0  0  0  0  0  0  0  0
  181.3760  179.0440  137.9630 C   0  0  1  0  0  0  0  0  0  0  0  0
  179.2720  179.8190  134.7600 O   0  0  0  0  0  1  0  0  0  0  0  0
  181.2610  177.8000  138.8280 C   0  0  0  0  0  2  0  0  0  0  0  0
  180.0330  181.9680  134.5930 O   0  0  0  0  0  0  0  0  0  0  0  0
  180.7840  181.9090  137.3720 C   0  0  1  0  0  3  0  0  0  0  0  0
  180.0130  179.4860  137.4360 C   0  0  0  0  0  2  0  0  0  0  0  0
  183.2620  180.0020  139.0490 O   0  0  0  0  0  0  0  0  0  0  0  0
  180.1490  180.7530  136.7180 N   0  0  0  0  0  0  0  0  0  0  0  0
  179.7990  183.0860  137.4720 C   0  0  1  0  0  3  0  0  0  0  0  0
  179.0670  183.0360  138.6600 O   0  0  0  0  0  1  0  0  0  0  0  0
  180.5000  184.4260  137.3310 C   0  0  0  0  0  2  0  0  0  0  0  0
  181.5950  184.3020  136.4730 O   0  0  0  0  0  1  0  0  0  0  0  0
  188.6550  178.4430  141.5850 C   0  0  0  0  0  2  0  0  0  0  0  0
  187.7690  177.4160  142.2690 C   0  0  0  0  0  2  0  0  0  0  0  0
  185.4930  178.5620  141.9290 C   0  0  0  0  0  3  0  0  0  0  0  0
  185.3820  179.0030  144.8880 C   0  0  2  0  0  3  0  0  0  0  0  0
  186.5160  178.2630  144.2030 C   0  0  0  0  0  3  0  0  0  0  0  0
  184.3620  179.0730  142.4260 C   0  0  0  0  0  3  0  0  0  0  0  0
  186.5780  178.0880  142.8550 C   0  0  0  0  0  0  0  0  0  0  0  0
  184.2550  178.2450  145.0630 C   0  0  0  0  0  2  0  0  0  0  0  0
  184.3430  179.0940  143.8360 N   0  0  0  0  0  0  0  0  0  0  0  0
  3  4  1  6  0  0  0
  3  8  1  0  0  0  0
  5  2  1  1  0  0  0
  5  1  1  0  0  0  0
  5  4  1  0  0  0  0
  6  1  1  6  0  0  0
  6  3  1  0  0  0  0
  6  9  1  0  0  0  0
  7 16  1  1  0  0  0
  8  7  1  0  0  0  0
  9 10  2  0  0  0  0
 10 47  1  0  0  0  0
 10  7  1  0  0  0  0
 11 15  1  0  0  0  0
 12 17  1  0  0  0  0
 13 14  2  0  0  0  0
 14 12  1  0  0  0  0
 15 12  2  0  0  0  0
 16 11  2  0  0  0  0
 16 13  1  0  0  0  0
 17 18  2  0  0  0  0
 17 19  1  0  0  0  0
 20 22  2  0  0  0  0
 21  9  1  0  0  0  0
 22 21  1  0  0  0  0
 23 22  1  0  0  0  0
 24 23  1  0  0  0  0
 25 24  1  0  0  0  0
 25 26  1  0  0  0  0
 26 27  1  0  0  0  0
 28 42  1  0  0  0  0
 30 34  1  0  0  0  0
 30 41  2  0  0  0  0
 31 32  1  0  0  0  0
 32 27  1  1  0  0  0
 32 37  1  0  0  0  0
 34 29  1  0  0  0  0
 34 33  1  0  0  0  0
 35 31  1  6  0  0  0
 35 30  1  0  0  0  0
 35 37  1  0  0  0  0
 36 28  1  0  0  0  0
 38 28  2  0  0  0  0
 39 43  1  1  0  0  0
 39 34  1  0  0  0  0
 40 35  1  0  0  0  0
 42 39  1  0  0  0  0
 42 40  1  0  0  0  0
 43 44  1  1  0  0  0
 45 43  1  0  0  0  0
 46 45  1  0  0  0  0
 47 48  1  0  0  0  0
 48 53  1  0  0  0  0
 49 52  2  0  0  0  0
 49 53  1  0  0  0  0
 50 51  1  6  0  0  0
 50 54  1  0  0  0  0
 52 55  1  0  0  0  0
 53 51  2  0  0  0  0
 55 50  1  0  0  0  0
 55 54  1  0  0  0  0
M  END
>  <MODEL>
9

>  <REMARK>
 VINA RESULT:      -6.9      3.023      6.537
  Name = 
  14 active torsions:
  status: ('A' for Active; 'I' for Inactive)
    1  A    between atoms: C_2  and  C_28
    2  A    between atoms: C_2  and  C_44
    3  A    between atoms: C_4  and  C_35
    4  A    between atoms: C_4  and  C_37
    5  A    between atoms: C_8  and  C_51
    6  A    between atoms: C_10  and  C_32
    7  A    between atoms: C_11  and  C_29
    8  A    between atoms: N_19  and  C_45
    9  A    between atoms: C_28  and  C_49
   10  A    between atoms: C_29  and  C_38
   11  A    between atoms: C_33  and  C_52
   12  A    between atoms: C_35  and  C_43
   13  A    between atoms: C_37  and  C_40
   14  A    between atoms: C_43  and  C_51
                            x       y       z     vdW  Elec       q    Type
                         _______ _______ _______ _____ _____    ______ ____

>  <TORSDO>
F 14

$$$$
