=
 OpenBabel11052412233D

 30 33  0  0  1  0  0  0  0  0999 V2000
  187.2480  178.0610  138.8730 C   0  0  0  0  0  2  0  0  0  0  0  0
  186.2650  178.6270  141.7890 C   0  0  0  0  0  0  0  0  0  0  0  0
  181.6010  179.0030  137.1870 C   0  0  0  0  0  3  0  0  0  0  0  0
  187.4090  178.3260  137.3870 C   0  0  0  0  0  2  0  0  0  0  0  0
  185.9810  178.6280  139.2990 N   0  0  0  0  0  2  0  0  0  0  0  0
  188.3840  176.4490  134.7300 O   0  0  0  0  0  0  0  0  0  0  0  0
  183.0470  175.0460  135.6800 O   0  0  0  0  0  0  0  0  0  0  0  0
  188.3840  177.3630  136.7060 C   0  0  1  0  0  0  0  0  0  0  0  0
  187.7880  175.5570  135.6220 C   0  0  2  0  0  0  0  0  0  0  0  0
  182.2980  177.8760  136.9510 C   0  0  0  0  0  3  0  0  0  0  0  0
  181.0040  179.3540  138.5230 C   0  0  0  0  0  2  0  0  0  0  0  0
  187.9570  176.0510  136.9130 O   0  0  0  0  0  0  0  0  0  0  0  0
  188.3660  177.6260  135.3310 O   0  0  0  0  0  0  0  0  0  0  0  0
  185.6810  178.6430  143.0160 N   0  0  0  0  0  0  0  0  0  0  0  0
  183.9730  175.1930  136.5220 C   0  0  0  0  0  0  0  0  0  0  0  0
  183.8240  176.0930  137.6210 N   0  0  0  0  0  2  0  0  0  0  0  0
  188.4870  174.2130  135.4960 C   0  0  0  0  0  1  0  0  0  0  0  0
  187.7530  178.6580  141.7180 C   0  0  0  0  0  1  0  0  0  0  0  0
  184.0640  178.6560  140.8080 C   0  0  0  0  0  0  0  0  0  0  0  0
  184.3300  178.6530  143.1560 C   0  0  0  0  0  3  0  0  0  0  0  0
  186.2960  175.4240  135.2990 C   0  0  0  0  0  2  0  0  0  0  0  0
  185.4550  178.6280  140.6350 C   0  0  0  0  0  0  0  0  0  0  0  0
  182.6060  177.1710  139.4260 C   0  0  0  0  0  2  0  0  0  0  0  0
  182.0780  179.6400  139.5830 C   0  0  0  0  0  2  0  0  0  0  0  0
  182.5720  176.7620  137.9480 C   0  0  1  0  0  3  0  0  0  0  0  0
  185.4650  174.2180  136.3860 S   0  0  0  0  0  0  0  0  0  0  0  0
  183.5320  178.6540  142.0590 N   0  0  0  0  0  0  0  0  0  0  0  0
  183.1730  178.5720  139.6090 C   0  0  1  0  0  3  0  0  0  0  0  0
  189.8050  177.5270  137.2550 C   0  0  0  0  0  2  0  0  0  0  0  0
  190.2540  176.3200  138.0640 C   0  0  0  0  0  1  0  0  0  0  0  0
  1  5  1  0  0  0  0
  2 14  1  0  0  0  0
  3 11  1  0  0  0  0
  4  1  1  0  0  0  0
  5 22  1  0  0  0  0
  6 13  1  0  0  0  0
  6  9  1  0  0  0  0
  7 15  2  0  0  0  0
  8 12  1  0  0  0  0
  8 29  1  1  0  0  0
  8  4  1  0  0  0  0
  9 17  1  6  0  0  0
  9 12  1  0  0  0  0
 10  3  2  0  0  0  0
 11 24  1  0  0  0  0
 13  8  1  0  0  0  0
 14 20  2  0  0  0  0
 15 16  1  0  0  0  0
 16 25  1  0  0  0  0
 18  2  1  0  0  0  0
 19 27  2  0  0  0  0
 21  9  1  0  0  0  0
 21 26  1  0  0  0  0
 22 19  1  0  0  0  0
 22  2  2  0  0  0  0
 24 28  1  0  0  0  0
 25 10  1  6  0  0  0
 25 23  1  0  0  0  0
 26 15  1  0  0  0  0
 27 20  1  0  0  0  0
 28 23  1  1  0  0  0
 28 19  1  0  0  0  0
 29 30  1  0  0  0  0
M  END
>  <MODEL>
1

>  <REMARK>
 VINA RESULT:      -6.6      0.000      0.000
  Name = 
  1 active torsions:
  status: ('A' for Active; 'I' for Inactive)
    1  A    between atoms: C_8  and  C_27
                            x       y       z     vdW  Elec       q    Type
                         _______ _______ _______ _____ _____    ______ ____

>  <TORSDO>
F 1

$$$$
=
 OpenBabel11052412233D

 30 33  0  0  1  0  0  0  0  0999 V2000
  184.1310  177.8990  140.5220 C   0  0  0  0  0  2  0  0  0  0  0  0
  183.3100  176.3410  137.9370 C   0  0  0  0  0  0  0  0  0  0  0  0
  189.0970  179.4160  137.5790 C   0  0  0  0  0  3  0  0  0  0  0  0
  184.6180  179.0900  141.3300 C   0  0  0  0  0  2  0  0  0  0  0  0
  184.7300  177.9740  139.2020 N   0  0  0  0  0  2  0  0  0  0  0  0
  185.8020  179.4960  144.4870 O   0  0  0  0  0  0  0  0  0  0  0  0
  190.1170  177.5310  141.5080 O   0  0  0  0  0  0  0  0  0  0  0  0
  184.5200  178.8720  142.8410 C   0  0  1  0  0  0  0  0  0  0  0  0
  186.1770  178.2060  144.1070 C   0  0  2  0  0  0  0  0  0  0  0  0
  189.0680  178.7670  138.7580 C   0  0  0  0  0  3  0  0  0  0  0  0
  188.8040  178.7630  136.2560 C   0  0  0  0  0  2  0  0  0  0  0  0
  185.2420  177.7310  143.1910 O   0  0  0  0  0  0  0  0  0  0  0  0
  185.0970  179.9780  143.4780 O   0  0  0  0  0  0  0  0  0  0  0  0
  183.1830  175.5090  136.8690 N   0  0  0  0  0  0  0  0  0  0  0  0
  188.9220  177.1340  141.4960 C   0  0  0  0  0  0  0  0  0  0  0  0
  188.1840  177.0720  140.2760 N   0  0  0  0  0  2  0  0  0  0  0  0
  186.1730  177.3210  145.3440 C   0  0  0  0  0  1  0  0  0  0  0  0
  182.1470  176.4910  138.8540 C   0  0  0  0  0  1  0  0  0  0  0  0
  185.5260  176.8940  137.1640 C   0  0  0  0  0  0  0  0  0  0  0  0
  184.1890  175.3520  135.9710 C   0  0  0  0  0  3  0  0  0  0  0  0
  187.5700  178.2400  143.4710 C   0  0  0  0  0  2  0  0  0  0  0  0
  184.5100  177.0610  138.1150 C   0  0  0  0  0  0  0  0  0  0  0  0
  187.8950  176.6190  137.9060 C   0  0  0  0  0  2  0  0  0  0  0  0
  187.3350  178.3340  136.1320 C   0  0  0  0  0  2  0  0  0  0  0  0
  188.7800  177.2890  138.9640 C   0  0  1  0  0  3  0  0  0  0  0  0
  188.1550  176.5740  143.0110 S   0  0  0  0  0  0  0  0  0  0  0  0
  185.3510  176.0360  136.1230 N   0  0  0  0  0  0  0  0  0  0  0  0
  186.8410  177.5760  137.3660 C   0  0  1  0  0  3  0  0  0  0  0  0
  183.0630  178.7070  143.2880 C   0  0  0  0  0  2  0  0  0  0  0  0
  182.8720  179.0350  144.7610 C   0  0  0  0  0  1  0  0  0  0  0  0
  1  4  1  0  0  0  0
  2 22  1  0  0  0  0
  2 18  1  0  0  0  0
  3 10  2  0  0  0  0
  4  8  1  0  0  0  0
  5  1  1  0  0  0  0
  8 12  1  0  0  0  0
  8 29  1  1  0  0  0
  8 13  1  0  0  0  0
  9  6  1  0  0  0  0
  9 17  1  1  0  0  0
 10 25  1  0  0  0  0
 11  3  1  0  0  0  0
 12  9  1  0  0  0  0
 13  6  1  0  0  0  0
 14  2  2  0  0  0  0
 15  7  2  0  0  0  0
 15 26  1  0  0  0  0
 16 15  1  0  0  0  0
 19 28  1  0  0  0  0
 19 22  2  0  0  0  0
 20 27  2  0  0  0  0
 20 14  1  0  0  0  0
 21  9  1  0  0  0  0
 22  5  1  0  0  0  0
 24 11  1  0  0  0  0
 25 23  1  6  0  0  0
 25 16  1  0  0  0  0
 26 21  1  0  0  0  0
 27 19  1  0  0  0  0
 28 24  1  6  0  0  0
 28 23  1  0  0  0  0
 29 30  1  0  0  0  0
M  END
>  <MODEL>
2

>  <REMARK>
 VINA RESULT:      -6.2      3.438      7.281
  Name = 
  1 active torsions:
  status: ('A' for Active; 'I' for Inactive)
    1  A    between atoms: C_8  and  C_27
                            x       y       z     vdW  Elec       q    Type
                         _______ _______ _______ _____ _____    ______ ____

>  <TORSDO>
F 1

$$$$
=
 OpenBabel11052412233D

 30 33  0  0  1  0  0  0  0  0999 V2000
  186.3080  178.0850  139.0780 C   0  0  0  0  0  2  0  0  0  0  0  0
  185.5070  178.8470  142.0050 C   0  0  0  0  0  0  0  0  0  0  0  0
  180.5120  178.6060  137.7530 C   0  0  0  0  0  3  0  0  0  0  0  0
  186.3480  178.2310  137.5670 C   0  0  0  0  0  2  0  0  0  0  0  0
  185.0450  178.6240  139.5510 N   0  0  0  0  0  2  0  0  0  0  0  0
  187.2320  176.1850  135.0040 O   0  0  0  0  0  0  0  0  0  0  0  0
  182.0610  174.6110  136.4650 O   0  0  0  0  0  0  0  0  0  0  0  0
  187.3230  177.2630  136.8950 C   0  0  1  0  0  0  0  0  0  0  0  0
  186.7510  175.3440  136.0080 C   0  0  2  0  0  0  0  0  0  0  0  0
  181.2510  177.4990  137.5570 C   0  0  0  0  0  3  0  0  0  0  0  0
  179.9940  179.0400  139.0970 C   0  0  0  0  0  2  0  0  0  0  0  0
  186.9850  175.9530  137.2390 O   0  0  0  0  0  0  0  0  0  0  0  0
  187.1930  177.4070  135.5080 O   0  0  0  0  0  0  0  0  0  0  0  0
  185.0110  178.9380  143.2670 N   0  0  0  0  0  0  0  0  0  0  0  0
  183.0350  174.8740  137.2200 C   0  0  0  0  0  0  0  0  0  0  0  0
  182.9160  175.8550  138.2510 N   0  0  0  0  0  2  0  0  0  0  0  0
  187.5120  174.0300  135.9390 C   0  0  0  0  0  1  0  0  0  0  0  0
  186.9810  178.9440  141.8190 C   0  0  0  0  0  1  0  0  0  0  0  0
  183.2420  178.6860  141.1930 C   0  0  0  0  0  0  0  0  0  0  0  0
  183.6750  178.8950  143.5070 C   0  0  0  0  0  3  0  0  0  0  0  0
  185.2490  175.1120  135.8110 C   0  0  0  0  0  2  0  0  0  0  0  0
  184.6170  178.7110  140.9190 C   0  0  0  0  0  0  0  0  0  0  0  0
  181.7720  177.0210  140.0500 C   0  0  0  0  0  2  0  0  0  0  0  0
  181.1240  179.4660  140.0470 C   0  0  0  0  0  2  0  0  0  0  0  0
  181.6560  176.4870  138.6170 C   0  0  1  0  0  3  0  0  0  0  0  0
  184.5640  173.9630  137.0510 S   0  0  0  0  0  0  0  0  0  0  0  0
  182.8020  178.7640  142.4780 N   0  0  0  0  0  0  0  0  0  0  0  0
  182.2740  178.4580  140.0760 C   0  0  1  0  0  3  0  0  0  0  0  0
  188.7690  177.5410  137.3200 C   0  0  0  0  0  2  0  0  0  0  0  0
  189.1200  179.0180  137.2400 C   0  0  0  0  0  1  0  0  0  0  0  0
  1  5  1  0  0  0  0
  2 14  1  0  0  0  0
  3 11  1  0  0  0  0
  4  1  1  0  0  0  0
  5 22  1  0  0  0  0
  6 13  1  0  0  0  0
  6  9  1  0  0  0  0
  7 15  2  0  0  0  0
  8 12  1  0  0  0  0
  8 29  1  1  0  0  0
  8  4  1  0  0  0  0
  9 17  1  6  0  0  0
  9 12  1  0  0  0  0
 10  3  2  0  0  0  0
 11 24  1  0  0  0  0
 13  8  1  0  0  0  0
 14 20  2  0  0  0  0
 15 16  1  0  0  0  0
 16 25  1  0  0  0  0
 18  2  1  0  0  0  0
 19 27  2  0  0  0  0
 21  9  1  0  0  0  0
 21 26  1  0  0  0  0
 22 19  1  0  0  0  0
 22  2  2  0  0  0  0
 23 28  1  0  0  0  0
 25 10  1  6  0  0  0
 25 23  1  0  0  0  0
 26 15  1  0  0  0  0
 27 20  1  0  0  0  0
 28 24  1  1  0  0  0
 28 19  1  0  0  0  0
 30 29  1  0  0  0  0
M  END
>  <MODEL>
3

>  <REMARK>
 VINA RESULT:      -6.1      1.089      1.191
  Name = 
  1 active torsions:
  status: ('A' for Active; 'I' for Inactive)
    1  A    between atoms: C_8  and  C_27
                            x       y       z     vdW  Elec       q    Type
                         _______ _______ _______ _____ _____    ______ ____

>  <TORSDO>
F 1

$$$$
=
 OpenBabel11052412233D

 30 33  0  0  1  0  0  0  0  0999 V2000
  182.5890  175.2530  137.9810 C   0  0  0  0  0  2  0  0  0  0  0  0
  179.9830  176.8990  138.5180 C   0  0  0  0  0  0  0  0  0  0  0  0
  184.9770  178.2530  142.5550 C   0  0  0  0  0  3  0  0  0  0  0  0
  183.7750  174.3760  138.3400 C   0  0  0  0  0  2  0  0  0  0  0  0
  182.2680  176.0740  139.1350 N   0  0  0  0  0  2  0  0  0  0  0  0
  186.6670  173.5320  136.7720 O   0  0  0  0  0  0  0  0  0  0  0  0
  187.5560  178.6280  138.9170 O   0  0  0  0  0  0  0  0  0  0  0  0
  184.5440  173.8750  137.1170 C   0  0  1  0  0  0  0  0  0  0  0  0
  186.3540  174.8140  136.3190 C   0  0  2  0  0  0  0  0  0  0  0  0
  185.4760  178.2280  141.3050 C   0  0  0  0  0  3  0  0  0  0  0  0
  183.7800  179.0670  142.9630 C   0  0  0  0  0  2  0  0  0  0  0  0
  184.9700  174.9660  136.3590 O   0  0  0  0  0  0  0  0  0  0  0  0
  185.6730  173.1780  137.5680 O   0  0  0  0  0  0  0  0  0  0  0  0
  179.0120  177.8360  138.6840 N   0  0  0  0  0  0  0  0  0  0  0  0
  186.5410  178.2130  138.2970 C   0  0  0  0  0  0  0  0  0  0  0  0
  185.2400  178.3080  138.8770 N   0  0  0  0  0  2  0  0  0  0  0  0
  186.8390  174.9480  134.8840 C   0  0  0  0  0  1  0  0  0  0  0  0
  179.7040  175.7490  137.6140 C   0  0  0  0  0  1  0  0  0  0  0  0
  181.3360  178.1110  140.1030 C   0  0  0  0  0  0  0  0  0  0  0  0
  179.1830  178.8920  139.5210 C   0  0  0  0  0  3  0  0  0  0  0  0
  187.0250  175.8580  137.2170 C   0  0  0  0  0  2  0  0  0  0  0  0
  181.1920  177.0210  139.2330 C   0  0  0  0  0  0  0  0  0  0  0  0
  183.4760  179.3980  140.1450 C   0  0  0  0  0  2  0  0  0  0  0  0
  182.4830  178.5600  142.3150 C   0  0  0  0  0  2  0  0  0  0  0  0
  184.9630  179.0230  140.1160 C   0  0  1  0  0  3  0  0  0  0  0  0
  186.7150  177.5610  136.6410 S   0  0  0  0  0  0  0  0  0  0  0  0
  180.3380  179.0280  140.2180 N   0  0  0  0  0  0  0  0  0  0  0  0
  182.6360  178.3180  140.8120 C   0  0  1  0  0  3  0  0  0  0  0  0
  183.6750  172.9610  136.2460 C   0  0  0  0  0  2  0  0  0  0  0  0
  183.5060  171.5770  136.8520 C   0  0  0  0  0  1  0  0  0  0  0  0
  1  4  1  0  0  0  0
  1  5  1  0  0  0  0
  2 14  2  0  0  0  0
  2 22  1  0  0  0  0
  3 11  1  0  0  0  0
  5 22  1  0  0  0  0
  6 13  1  0  0  0  0
  8 29  1  6  0  0  0
  8 13  1  0  0  0  0
  8  4  1  0  0  0  0
  9 17  1  6  0  0  0
  9 12  1  0  0  0  0
  9  6  1  0  0  0  0
  9 21  1  0  0  0  0
 10  3  2  0  0  0  0
 12  8  1  0  0  0  0
 14 20  1  0  0  0  0
 15 16  1  0  0  0  0
 15  7  2  0  0  0  0
 16 25  1  0  0  0  0
 18  2  1  0  0  0  0
 19 27  1  0  0  0  0
 19 28  1  0  0  0  0
 20 27  2  0  0  0  0
 22 19  2  0  0  0  0
 24 11  1  0  0  0  0
 25 23  1  1  0  0  0
 25 10  1  0  0  0  0
 26 21  1  0  0  0  0
 26 15  1  0  0  0  0
 28 23  1  6  0  0  0
 28 24  1  0  0  0  0
 29 30  1  0  0  0  0
M  END
>  <MODEL>
4

>  <REMARK>
 VINA RESULT:      -5.9      2.348      5.199
  Name = 
  1 active torsions:
  status: ('A' for Active; 'I' for Inactive)
    1  A    between atoms: C_8  and  C_27
                            x       y       z     vdW  Elec       q    Type
                         _______ _______ _______ _____ _____    ______ ____

>  <TORSDO>
F 1

$$$$
=
 OpenBabel11052412233D

 30 33  0  0  1  0  0  0  0  0999 V2000
  182.6590  176.3590  138.8540 C   0  0  0  0  0  2  0  0  0  0  0  0
  180.5880  178.1240  140.3980 C   0  0  0  0  0  0  0  0  0  0  0  0
  186.4390  177.5510  143.3170 C   0  0  0  0  0  3  0  0  0  0  0  0
  183.6940  175.2600  138.6850 C   0  0  0  0  0  2  0  0  0  0  0  0
  182.7390  176.8480  140.2180 N   0  0  0  0  0  2  0  0  0  0  0  0
  186.0000  174.5120  136.3060 O   0  0  0  0  0  0  0  0  0  0  0  0
  188.2850  178.5980  139.3770 O   0  0  0  0  0  0  0  0  0  0  0  0
  184.0960  175.0310  137.2270 C   0  0  1  0  0  0  0  0  0  0  0  0
  185.8660  175.9010  136.2770 C   0  0  2  0  0  0  0  0  0  0  0  0
  186.6710  177.8180  142.0180 C   0  0  0  0  0  3  0  0  0  0  0  0
  185.5300  178.3700  144.1920 C   0  0  0  0  0  2  0  0  0  0  0  0
  184.5750  176.2250  136.6860 O   0  0  0  0  0  0  0  0  0  0  0  0
  185.1280  174.0850  137.2030 O   0  0  0  0  0  0  0  0  0  0  0  0
  179.8750  179.0980  141.0220 N   0  0  0  0  0  0  0  0  0  0  0  0
  187.1070  178.5250  138.9370 C   0  0  0  0  0  0  0  0  0  0  0  0
  185.9890  178.6280  139.8190 N   0  0  0  0  0  2  0  0  0  0  0  0
  186.0810  176.3740  134.8480 C   0  0  0  0  0  1  0  0  0  0  0  0
  179.9160  177.3330  139.3300 C   0  0  0  0  0  1  0  0  0  0  0  0
  182.4370  178.6280  141.8600 C   0  0  0  0  0  0  0  0  0  0  0  0
  180.4120  179.8330  142.0290 C   0  0  0  0  0  3  0  0  0  0  0  0
  186.8940  176.5370  137.2190 C   0  0  0  0  0  2  0  0  0  0  0  0
  181.9130  177.8660  140.8070 C   0  0  0  0  0  0  0  0  0  0  0  0
  184.7580  179.5390  141.7050 C   0  0  0  0  0  2  0  0  0  0  0  0
  184.0580  178.2560  143.7700 C   0  0  0  0  0  2  0  0  0  0  0  0
  186.1060  178.9860  141.2260 C   0  0  1  0  0  3  0  0  0  0  0  0
  186.8230  178.3600  137.1800 S   0  0  0  0  0  0  0  0  0  0  0  0
  181.6840  179.6010  142.4380 N   0  0  0  0  0  0  0  0  0  0  0  0
  183.8650  178.4400  142.2630 C   0  0  1  0  0  3  0  0  0  0  0  0
  182.9090  174.5370  136.3920 C   0  0  0  0  0  2  0  0  0  0  0  0
  182.4760  173.1320  136.7800 C   0  0  0  0  0  1  0  0  0  0  0  0
  1  5  1  0  0  0  0
  2 22  2  0  0  0  0
  2 14  1  0  0  0  0
  3 11  1  0  0  0  0
  4  1  1  0  0  0  0
  5 22  1  0  0  0  0
  6 13  1  0  0  0  0
  8 29  1  6  0  0  0
  8  4  1  0  0  0  0
  9 17  1  6  0  0  0
  9  6  1  0  0  0  0
  9 12  1  0  0  0  0
  9 21  1  0  0  0  0
 10  3  2  0  0  0  0
 12  8  1  0  0  0  0
 13  8  1  0  0  0  0
 14 20  2  0  0  0  0
 15  7  2  0  0  0  0
 15 16  1  0  0  0  0
 16 25  1  0  0  0  0
 18  2  1  0  0  0  0
 19 28  1  0  0  0  0
 19 27  2  0  0  0  0
 20 27  1  0  0  0  0
 22 19  1  0  0  0  0
 24 11  1  0  0  0  0
 25 23  1  1  0  0  0
 25 10  1  0  0  0  0
 26 21  1  0  0  0  0
 26 15  1  0  0  0  0
 28 23  1  1  0  0  0
 28 24  1  0  0  0  0
 29 30  1  0  0  0  0
M  END
>  <MODEL>
5

>  <REMARK>
 VINA RESULT:      -5.7      2.338      5.228
  Name = 
  1 active torsions:
  status: ('A' for Active; 'I' for Inactive)
    1  A    between atoms: C_8  and  C_27
                            x       y       z     vdW  Elec       q    Type
                         _______ _______ _______ _____ _____    ______ ____

>  <TORSDO>
F 1

$$$$
=
 OpenBabel11052412233D

 30 33  0  0  1  0  0  0  0  0999 V2000
  188.0110  177.6780  141.9760 C   0  0  0  0  0  2  0  0  0  0  0  0
  188.9850  178.5480  139.1330 C   0  0  0  0  0  0  0  0  0  0  0  0
  182.8320  176.2750  139.3620 C   0  0  0  0  0  3  0  0  0  0  0  0
  187.3850  176.7560  143.0070 C   0  0  0  0  0  2  0  0  0  0  0  0
  187.3830  177.4160  140.6930 N   0  0  0  0  0  2  0  0  0  0  0  0
  186.2160  177.1690  146.1690 O   0  0  0  0  0  0  0  0  0  0  0  0
  182.1480  179.0450  142.8090 O   0  0  0  0  0  0  0  0  0  0  0  0
  187.5390  177.2630  144.4410 C   0  0  1  0  0  0  0  0  0  0  0  0
  186.0110  178.3920  145.5280 C   0  0  2  0  0  0  0  0  0  0  0  0
  182.9710  177.1410  140.3820 C   0  0  0  0  0  3  0  0  0  0  0  0
  183.1850  176.5970  137.9360 C   0  0  0  0  0  2  0  0  0  0  0  0
  186.9830  178.5390  144.5430 O   0  0  0  0  0  0  0  0  0  0  0  0
  186.8310  176.4000  145.2870 O   0  0  0  0  0  0  0  0  0  0  0  0
  189.2020  179.1180  137.9180 N   0  0  0  0  0  0  0  0  0  0  0  0
  183.3860  179.2660  142.7280 C   0  0  0  0  0  0  0  0  0  0  0  0
  184.1020  178.9770  141.5270 N   0  0  0  0  0  2  0  0  0  0  0  0
  186.1570  179.5020  146.5570 C   0  0  0  0  0  1  0  0  0  0  0  0
  190.1350  178.4340  140.0730 C   0  0  0  0  0  1  0  0  0  0  0  0
  186.7010  178.1530  138.4690 C   0  0  0  0  0  0  0  0  0  0  0  0
  188.2100  179.2220  136.9970 C   0  0  0  0  0  3  0  0  0  0  0  0
  184.6140  178.4160  144.8990 C   0  0  0  0  0  2  0  0  0  0  0  0
  187.7040  178.0480  139.4440 C   0  0  0  0  0  0  0  0  0  0  0  0
  184.4050  178.8910  139.1170 C   0  0  0  0  0  2  0  0  0  0  0  0
  184.6960  176.7900  137.7400 C   0  0  0  0  0  2  0  0  0  0  0  0
  183.4580  178.5780  140.2830 C   0  0  1  0  0  3  0  0  0  0  0  0
  184.2490  180.0160  144.1020 S   0  0  0  0  0  0  0  0  0  0  0  0
  186.9700  178.7480  137.2760 N   0  0  0  0  0  0  0  0  0  0  0  0
  185.3100  177.7100  138.7960 C   0  0  1  0  0  3  0  0  0  0  0  0
  189.0130  177.3180  144.8590 C   0  0  0  0  0  2  0  0  0  0  0  0
  189.1970  177.1040  146.3530 C   0  0  0  0  0  1  0  0  0  0  0  0
  1  4  1  0  0  0  0
  2 22  1  0  0  0  0
  2 18  1  0  0  0  0
  3 10  2  0  0  0  0
  4  8  1  0  0  0  0
  5  1  1  0  0  0  0
  8 12  1  0  0  0  0
  8 29  1  1  0  0  0
  8 13  1  0  0  0  0
  9  6  1  0  0  0  0
  9 17  1  1  0  0  0
 11  3  1  0  0  0  0
 12  9  1  0  0  0  0
 13  6  1  0  0  0  0
 14  2  2  0  0  0  0
 15  7  2  0  0  0  0
 15 26  1  0  0  0  0
 16 15  1  0  0  0  0
 19 28  1  0  0  0  0
 19 22  2  0  0  0  0
 20 27  2  0  0  0  0
 20 14  1  0  0  0  0
 21  9  1  0  0  0  0
 22  5  1  0  0  0  0
 24 11  1  0  0  0  0
 25 23  1  6  0  0  0
 25 10  1  0  0  0  0
 25 16  1  0  0  0  0
 26 21  1  0  0  0  0
 27 19  1  0  0  0  0
 28 24  1  6  0  0  0
 28 23  1  0  0  0  0
 29 30  1  0  0  0  0
M  END
>  <MODEL>
6

>  <REMARK>
 VINA RESULT:      -5.6      4.315      6.837
  Name = 
  1 active torsions:
  status: ('A' for Active; 'I' for Inactive)
    1  A    between atoms: C_8  and  C_27
                            x       y       z     vdW  Elec       q    Type
                         _______ _______ _______ _____ _____    ______ ____

>  <TORSDO>
F 1

$$$$
=
 OpenBabel11052412233D

 30 33  0  0  1  0  0  0  0  0999 V2000
  183.4830  173.8280  136.9770 C   0  0  0  0  0  2  0  0  0  0  0  0
  180.4820  174.6170  136.5810 C   0  0  0  0  0  0  0  0  0  0  0  0
  183.6860  178.1430  141.0950 C   0  0  0  0  0  3  0  0  0  0  0  0
  184.7270  173.4490  137.7610 C   0  0  0  0  0  2  0  0  0  0  0  0
  182.6620  174.6810  137.8160 N   0  0  0  0  0  2  0  0  0  0  0  0
  188.0450  173.3290  137.0440 O   0  0  0  0  0  0  0  0  0  0  0  0
  186.9220  178.7210  138.0590 O   0  0  0  0  0  0  0  0  0  0  0  0
  185.8950  173.0260  136.8690 C   0  0  1  0  0  0  0  0  0  0  0  0
  187.5240  174.3500  136.2480 C   0  0  2  0  0  0  0  0  0  0  0  0
  184.4810  178.0740  140.0110 C   0  0  0  0  0  3  0  0  0  0  0  0
  182.2490  178.5870  141.0520 C   0  0  0  0  0  2  0  0  0  0  0  0
  186.1910  174.0560  135.9750 O   0  0  0  0  0  0  0  0  0  0  0  0
  187.0120  172.8110  137.6870 O   0  0  0  0  0  0  0  0  0  0  0  0
  179.2840  175.2070  136.3240 N   0  0  0  0  0  0  0  0  0  0  0  0
  186.2570  177.9070  137.3650 C   0  0  0  0  0  0  0  0  0  0  0  0
  184.8740  177.6740  137.6350 N   0  0  0  0  0  2  0  0  0  0  0  0
  188.3120  174.3940  134.9480 C   0  0  0  0  0  1  0  0  0  0  0  0
  180.7720  173.3050  135.9370 C   0  0  0  0  0  1  0  0  0  0  0  0
  180.9920  176.4420  138.0710 C   0  0  0  0  0  0  0  0  0  0  0  0
  178.9370  176.3850  136.9050 C   0  0  0  0  0  3  0  0  0  0  0  0
  187.6280  175.6870  136.9900 C   0  0  0  0  0  2  0  0  0  0  0  0
  181.3830  175.2350  137.4720 C   0  0  0  0  0  0  0  0  0  0  0  0
  182.6130  178.3350  138.2330 C   0  0  0  0  0  2  0  0  0  0  0  0
  181.3550  177.5920  140.2970 C   0  0  0  0  0  2  0  0  0  0  0  0
  184.1000  178.4560  138.5890 C   0  0  1  0  0  3  0  0  0  0  0  0
  187.0270  177.0810  135.9780 S   0  0  0  0  0  0  0  0  0  0  0  0
  179.7880  176.9960  137.7660 N   0  0  0  0  0  0  0  0  0  0  0  0
  181.9550  177.1680  138.9550 C   0  0  1  0  0  3  0  0  0  0  0  0
  185.5650  171.7520  136.0830 C   0  0  0  0  0  2  0  0  0  0  0  0
  185.4120  172.0160  134.5940 C   0  0  0  0  0  1  0  0  0  0  0  0
  1  4  1  0  0  0  0
  1  5  1  0  0  0  0
  2 22  1  0  0  0  0
  6 13  1  0  0  0  0
  8 29  1  6  0  0  0
  8 13  1  0  0  0  0
  8  4  1  0  0  0  0
  9 17  1  6  0  0  0
  9 21  1  0  0  0  0
  9  6  1  0  0  0  0
 10  3  2  0  0  0  0
 11  3  1  0  0  0  0
 12  9  1  0  0  0  0
 12  8  1  0  0  0  0
 14  2  2  0  0  0  0
 14 20  1  0  0  0  0
 15 16  1  0  0  0  0
 15  7  2  0  0  0  0
 16 25  1  0  0  0  0
 18  2  1  0  0  0  0
 19 28  1  0  0  0  0
 20 27  2  0  0  0  0
 22  5  1  0  0  0  0
 22 19  2  0  0  0  0
 24 11  1  0  0  0  0
 25 23  1  1  0  0  0
 25 10  1  0  0  0  0
 26 21  1  0  0  0  0
 26 15  1  0  0  0  0
 27 19  1  0  0  0  0
 28 23  1  6  0  0  0
 28 24  1  0  0  0  0
 30 29  1  0  0  0  0
M  END
>  <MODEL>
7

>  <REMARK>
 VINA RESULT:      -5.3      2.583      5.366
  Name = 
  1 active torsions:
  status: ('A' for Active; 'I' for Inactive)
    1  A    between atoms: C_8  and  C_27
                            x       y       z     vdW  Elec       q    Type
                         _______ _______ _______ _____ _____    ______ ____

>  <TORSDO>
F 1

$$$$
=
 OpenBabel11052412233D

 30 33  0  0  1  0  0  0  0  0999 V2000
  192.2980  176.3390  138.6510 C   0  0  0  0  0  2  0  0  0  0  0  0
  190.6270  177.5260  141.0140 C   0  0  0  0  0  0  0  0  0  0  0  0
  187.7370  177.9060  135.1340 C   0  0  0  0  0  3  0  0  0  0  0  0
  192.9470  176.3280  137.2780 C   0  0  0  0  0  2  0  0  0  0  0  0
  191.1070  177.1670  138.5810 N   0  0  0  0  0  2  0  0  0  0  0  0
  194.2620  173.9090  135.2900 O   0  0  0  0  0  0  0  0  0  0  0  0
  188.7150  173.5730  134.5940 O   0  0  0  0  0  0  0  0  0  0  0  0
  193.8590  175.1210  137.0540 C   0  0  1  0  0  0  0  0  0  0  0  0
  193.2550  173.2840  136.0270 C   0  0  2  0  0  0  0  0  0  0  0  0
  188.2240  176.6570  135.2540 C   0  0  0  0  0  3  0  0  0  0  0  0
  186.8540  178.5630  136.1600 C   0  0  0  0  0  2  0  0  0  0  0  0
  193.1280  173.9470  137.2450 O   0  0  0  0  0  0  0  0  0  0  0  0
  194.3080  175.1550  135.7280 O   0  0  0  0  0  0  0  0  0  0  0  0
  189.7180  177.8370  141.9770 N   0  0  0  0  0  0  0  0  0  0  0  0
  189.3560  173.7030  135.6700 C   0  0  0  0  0  0  0  0  0  0  0  0
  189.0750  174.7810  136.5630 N   0  0  0  0  0  2  0  0  0  0  0  0
  193.6650  171.8410  136.2740 C   0  0  0  0  0  1  0  0  0  0  0  0
  192.0400  177.3010  141.4280 C   0  0  0  0  0  1  0  0  0  0  0  0
  188.8760  177.7550  139.3730 C   0  0  0  0  0  0  0  0  0  0  0  0
  188.4210  178.0920  141.6680 C   0  0  0  0  0  3  0  0  0  0  0  0
  191.9340  173.3470  135.2520 C   0  0  0  0  0  2  0  0  0  0  0  0
  190.2170  177.4710  139.6660 C   0  0  0  0  0  0  0  0  0  0  0  0
  187.6240  176.3240  137.7530 C   0  0  0  0  0  2  0  0  0  0  0  0
  187.5970  178.8390  137.4760 C   0  0  0  0  0  2  0  0  0  0  0  0
  187.9500  175.6910  136.3960 C   0  0  1  0  0  3  0  0  0  0  0  0
  190.5840  172.4870  136.1280 S   0  0  0  0  0  0  0  0  0  0  0  0
  188.0050  178.0450  140.3780 N   0  0  0  0  0  0  0  0  0  0  0  0
  188.3870  177.6240  137.9660 C   0  0  1  0  0  3  0  0  0  0  0  0
  195.0530  175.1360  138.0150 C   0  0  0  0  0  2  0  0  0  0  0  0
  195.2280  173.8110  138.7390 C   0  0  0  0  0  1  0  0  0  0  0  0
  2 18  1  0  0  0  0
  2 14  1  0  0  0  0
  3 10  2  0  0  0  0
  3 11  1  0  0  0  0
  4  1  1  0  0  0  0
  5  1  1  0  0  0  0
  5 22  1  0  0  0  0
  6 13  1  0  0  0  0
  6  9  1  0  0  0  0
  7 15  2  0  0  0  0
  8 12  1  0  0  0  0
  8  4  1  0  0  0  0
  8 29  1  1  0  0  0
  9 17  1  1  0  0  0
  9 12  1  0  0  0  0
 11 24  1  0  0  0  0
 13  8  1  0  0  0  0
 15 26  1  0  0  0  0
 15 16  1  0  0  0  0
 19 22  1  0  0  0  0
 19 27  2  0  0  0  0
 20 14  2  0  0  0  0
 21  9  1  0  0  0  0
 21 26  1  0  0  0  0
 22  2  2  0  0  0  0
 23 28  1  0  0  0  0
 25 10  1  6  0  0  0
 25 16  1  0  0  0  0
 25 23  1  0  0  0  0
 27 20  1  0  0  0  0
 28 24  1  1  0  0  0
 28 19  1  0  0  0  0
 29 30  1  0  0  0  0
M  END
>  <MODEL>
8

>  <REMARK>
 VINA RESULT:      -5.2      3.936      5.601
  Name = 
  1 active torsions:
  status: ('A' for Active; 'I' for Inactive)
    1  A    between atoms: C_8  and  C_27
                            x       y       z     vdW  Elec       q    Type
                         _______ _______ _______ _____ _____    ______ ____

>  <TORSDO>
F 1

$$$$
=
 OpenBabel11052412233D

 30 33  0  0  1  0  0  0  0  0999 V2000
  183.4050  177.1520  139.3230 C   0  0  0  0  0  2  0  0  0  0  0  0
  182.2130  178.7250  141.7500 C   0  0  0  0  0  0  0  0  0  0  0  0
  188.3340  176.5260  142.6310 C   0  0  0  0  0  3  0  0  0  0  0  0
  184.1020  175.9980  138.6240 C   0  0  0  0  0  2  0  0  0  0  0  0
  183.9230  177.2400  140.6770 N   0  0  0  0  0  2  0  0  0  0  0  0
  185.5320  175.5820  135.5720 O   0  0  0  0  0  0  0  0  0  0  0  0
  189.3340  178.3070  138.6490 O   0  0  0  0  0  0  0  0  0  0  0  0
  184.0730  176.1120  137.0990 C   0  0  1  0  0  0  0  0  0  0  0  0
  185.7000  176.9310  135.8850 C   0  0  2  0  0  0  0  0  0  0  0  0
  188.2910  177.0950  141.4120 C   0  0  0  0  0  3  0  0  0  0  0  0
  187.8690  177.2070  143.8900 C   0  0  0  0  0  2  0  0  0  0  0  0
  184.6520  177.3220  136.7140 O   0  0  0  0  0  0  0  0  0  0  0  0
  184.8370  175.0640  136.5700 O   0  0  0  0  0  0  0  0  0  0  0  0
  181.9040  179.5910  142.7520 N   0  0  0  0  0  0  0  0  0  0  0  0
  188.0970  178.5300  138.5680 C   0  0  0  0  0  0  0  0  0  0  0  0
  187.2800  178.5580  139.7390 N   0  0  0  0  0  2  0  0  0  0  0  0
  185.6530  177.7330  134.5950 C   0  0  0  0  0  1  0  0  0  0  0  0
  181.1430  178.3590  140.7810 C   0  0  0  0  0  1  0  0  0  0  0  0
  184.4290  178.5370  142.6800 C   0  0  0  0  0  0  0  0  0  0  0  0
  182.8190  179.9400  143.6920 C   0  0  0  0  0  3  0  0  0  0  0  0
  187.0400  177.1320  136.5990 C   0  0  0  0  0  2  0  0  0  0  0  0
  183.5090  178.1730  141.6870 C   0  0  0  0  0  0  0  0  0  0  0  0
  186.7800  179.1010  142.0540 C   0  0  0  0  0  2  0  0  0  0  0  0
  186.3490  177.4300  143.9030 C   0  0  0  0  0  2  0  0  0  0  0  0
  187.8150  178.5040  141.0930 C   0  0  1  0  0  3  0  0  0  0  0  0
  187.3590  178.8870  136.9790 S   0  0  0  0  0  0  0  0  0  0  0  0
  184.0710  179.4210  143.6500 N   0  0  0  0  0  0  0  0  0  0  0  0
  185.8360  178.0380  142.5970 C   0  0  1  0  0  3  0  0  0  0  0  0
  182.6390  176.0420  136.5620 C   0  0  0  0  0  2  0  0  0  0  0  0
  182.1870  177.3600  135.9510 C   0  0  0  0  0  1  0  0  0  0  0  0
  1  5  1  0  0  0  0
  2 14  1  0  0  0  0
  3 11  1  0  0  0  0
  4  1  1  0  0  0  0
  5 22  1  0  0  0  0
  6  9  1  0  0  0  0
  6 13  1  0  0  0  0
  8 29  1  6  0  0  0
  8  4  1  0  0  0  0
  9 17  1  6  0  0  0
  9 21  1  0  0  0  0
  9 12  1  0  0  0  0
 10  3  2  0  0  0  0
 11 24  1  0  0  0  0
 12  8  1  0  0  0  0
 13  8  1  0  0  0  0
 14 20  2  0  0  0  0
 15  7  2  0  0  0  0
 15 16  1  0  0  0  0
 16 25  1  0  0  0  0
 18  2  1  0  0  0  0
 19 27  2  0  0  0  0
 21 26  1  0  0  0  0
 22  2  2  0  0  0  0
 22 19  1  0  0  0  0
 25 10  1  1  0  0  0
 25 23  1  0  0  0  0
 26 15  1  0  0  0  0
 27 20  1  0  0  0  0
 28 23  1  1  0  0  0
 28 19  1  0  0  0  0
 28 24  1  0  0  0  0
 30 29  1  0  0  0  0
M  END
>  <MODEL>
9

>  <REMARK>
 VINA RESULT:      -5.2      2.214      5.289
  Name = 
  1 active torsions:
  status: ('A' for Active; 'I' for Inactive)
    1  A    between atoms: C_8  and  C_27
                            x       y       z     vdW  Elec       q    Type
                         _______ _______ _______ _____ _____    ______ ____

>  <TORSDO>
F 1

$$$$
