=
 OpenBabel11052415143D

 37 42  0  0  1  0  0  0  0  0999 V2000
  188.1860  176.6330  143.9740 C   0  0  0  0  0  2  0  0  0  0  0  0
  188.1420  177.7790  139.3870 C   0  0  2  0  0  3  0  0  0  0  0  0
  188.6080  177.5710  145.0010 N   0  0  0  0  0  0  0  0  0  0  0  0
  185.2770  179.2190  141.5650 C   0  0  0  0  0  2  0  0  0  0  0  0
  187.4060  178.4510  140.5410 C   0  0  1  0  0  3  0  0  0  0  0  0
  189.5580  177.5760  139.8820 C   0  0  1  0  0  3  0  0  0  0  0  0
  185.8620  178.2760  140.5180 C   0  0  2  0  0  3  0  0  0  0  0  0
  187.4640  177.7930  145.8890 C   0  0  0  0  0  2  0  0  0  0  0  0
  189.3820  177.2000  141.3500 C   0  0  2  0  0  3  0  0  0  0  0  0
  186.8500  178.4560  137.2530 C   0  0  0  0  0  2  0  0  0  0  0  0
  188.8250  179.5330  137.9520 O   0  0  0  0  0  0  0  0  0  0  0  0
  189.1470  175.8230  141.4650 O   0  0  0  0  0  1  0  0  0  0  0  0
  186.1670  178.1420  145.1170 C   0  0  2  0  0  3  0  0  0  0  0  0
  185.0980  178.5070  142.8890 C   0  0  0  0  0  2  0  0  0  0  0  0
  188.0430  178.6150  138.1450 C   0  0  0  0  0  0  0  0  0  0  0  0
  188.1540  178.0060  141.8210 C   0  0  2  0  0  3  0  0  0  0  0  0
  185.1930  178.6060  139.1450 C   0  0  1  0  0  3  0  0  0  0  0  0
  186.4250  178.4210  143.6220 C   0  0  2  0  0  3  0  0  0  0  0  0
  187.3080  177.3570  142.9410 C   0  0  2  0  0  3  0  0  0  0  0  0
  185.7050  177.7560  137.9790 C   0  0  0  0  0  2  0  0  0  0  0  0
  182.9470  179.7510  138.7510 C   0  0  0  0  0  3  0  0  0  0  0  0
  183.6600  178.4830  139.1590 C   0  0  1  0  0  3  0  0  0  0  0  0
  183.1610  177.2160  138.4320 C   0  0  0  0  0  2  0  0  0  0  0  0
  180.9170  175.7530  137.9410 Cl  0  0  0  0  0  0  0  0  0  0  0  0
  180.9080  178.4080  138.5360 C   0  0  0  0  0  2  0  0  0  0  0  0
  181.7440  177.3300  137.8430 C   0  0  1  0  0  3  0  0  0  0  0  0
  181.6410  179.7150  138.4660 C   0  0  0  0  0  3  0  0  0  0  0  0
  190.2990  176.5020  139.0780 C   0  0  1  0  0  3  0  0  0  0  0  0
  191.1540  177.0970  138.1270 O   0  0  0  0  0  0  0  0  0  0  0  0
  191.7910  176.4970  139.2370 C   0  0  1  0  0  3  0  0  0  0  0  0
  192.3550  177.5930  140.1230 C   0  0  0  0  0  2  0  0  0  0  0  0
  193.8620  177.4700  140.2160 C   0  0  0  0  0  2  0  0  0  0  0  0
  194.2890  176.3720  139.4640 O   0  0  0  0  0  1  0  0  0  0  0  0
  185.4710  179.3360  145.7890 C   0  0  0  0  0  2  0  0  0  0  0  0
  184.2050  178.9530  146.2450 O   0  0  0  0  0  1  0  0  0  0  0  0
  189.2730  176.9660  147.2510 C   0  0  0  0  0  1  0  0  0  0  0  0
  189.6390  176.9050  145.7780 C   0  0  0  0  0  2  0  0  0  0  0  0
  1  3  1  0  0  0  0
  2 15  1  6  0  0  0
  2  6  1  0  0  0  0
  2  5  1  0  0  0  0
  3 37  1  0  0  0  0
  3  8  1  0  0  0  0
  4 14  1  0  0  0  0
  5 16  1  0  0  0  0
  6  9  1  0  0  0  0
  7  5  1  0  0  0  0
  7  4  1  0  0  0  0
  9 12  1  0  0  0  0
  9 16  1  0  0  0  0
 10 20  1  0  0  0  0
 10 15  1  0  0  0  0
 11 15  2  0  0  0  0
 13 34  1  0  0  0  0
 13  8  1  0  0  0  0
 14 18  1  0  0  0  0
 16 19  1  0  0  0  0
 17 22  1  0  0  0  0
 17  7  1  0  0  0  0
 18 13  1  0  0  0  0
 19 18  1  0  0  0  0
 19  1  1  0  0  0  0
 20 17  1  0  0  0  0
 21 22  1  0  0  0  0
 23 22  1  0  0  0  0
 26 24  1  0  0  0  0
 26 23  1  0  0  0  0
 26 25  1  0  0  0  0
 27 25  1  0  0  0  0
 27 21  2  0  0  0  0
 28 30  1  0  0  0  0
 28  6  1  0  0  0  0
 29 28  1  0  0  0  0
 29 30  1  0  0  0  0
 30 31  1  0  0  0  0
 31 32  1  0  0  0  0
 33 32  1  0  0  0  0
 34 35  1  0  0  0  0
 37 36  1  0  0  0  0
M  END
>  <MODEL>
1

>  <REMARK>
 VINA RESULT:      -8.4      0.000      0.000
  Name = 
  6 active torsions:
  status: ('A' for Active; 'I' for Inactive)
    1  A    between atoms: C_3  and  C_21
    2  A    between atoms: C_3  and  C_30
    3  A    between atoms: N_5  and  C_23
    4  A    between atoms: C_6  and  C_31
    5  A    between atoms: C_9  and  C_13
    6  A    between atoms: C_11  and  C_26
                            x       y       z     vdW  Elec       q    Type
                         _______ _______ _______ _____ _____    ______ ____

>  <TORSDO>
F 6

$$$$
=
 OpenBabel11052415143D

 37 42  0  0  1  0  0  0  0  0999 V2000
  186.2220  177.4200  144.2460 C   0  0  0  0  0  2  0  0  0  0  0  0
  188.1640  177.8300  139.9550 C   0  0  2  0  0  3  0  0  0  0  0  0
  186.0280  178.5640  145.1190 N   0  0  0  0  0  0  0  0  0  0  0  0
  184.4900  179.0090  140.3180 C   0  0  0  0  0  2  0  0  0  0  0  0
  186.9170  178.5160  140.5020 C   0  0  1  0  0  3  0  0  0  0  0  0
  189.2100  177.9780  141.0400 C   0  0  1  0  0  3  0  0  0  0  0  0
  185.5830  178.0470  139.8590 C   0  0  2  0  0  3  0  0  0  0  0  0
  184.5890  178.6960  145.3580 C   0  0  0  0  0  2  0  0  0  0  0  0
  188.4210  177.8010  142.3330 C   0  0  2  0  0  3  0  0  0  0  0  0
  187.9310  177.9180  137.3820 C   0  0  0  0  0  2  0  0  0  0  0  0
  189.2440  179.4450  138.6030 O   0  0  0  0  0  0  0  0  0  0  0  0
  188.3020  176.4380  142.6370 O   0  0  0  0  0  1  0  0  0  0  0  0
  183.7610  178.6700  144.0500 C   0  0  2  0  0  3  0  0  0  0  0  0
  183.7990  178.4840  141.5580 C   0  0  0  0  0  2  0  0  0  0  0  0
  188.5600  178.4350  138.6390 C   0  0  0  0  0  0  0  0  0  0  0  0
  187.0390  178.4200  142.0420 C   0  0  2  0  0  3  0  0  0  0  0  0
  185.5860  178.0330  138.2960 C   0  0  1  0  0  3  0  0  0  0  0  0
  184.6440  178.7640  142.7880 C   0  0  2  0  0  3  0  0  0  0  0  0
  185.8450  177.7980  142.8050 C   0  0  2  0  0  3  0  0  0  0  0  0
  186.6580  177.1300  137.6820 C   0  0  0  0  0  2  0  0  0  0  0  0
  184.2940  177.4200  136.1830 C   0  0  0  0  0  3  0  0  0  0  0  0
  184.2380  177.6230  137.6790 C   0  0  1  0  0  3  0  0  0  0  0  0
  183.5620  176.4680  138.4480 C   0  0  0  0  0  2  0  0  0  0  0  0
  181.2520  175.0330  138.5930 Cl  0  0  0  0  0  0  0  0  0  0  0  0
  182.1070  176.3270  136.3570 C   0  0  0  0  0  2  0  0  0  0  0  0
  182.6220  175.5950  137.5980 C   0  0  1  0  0  3  0  0  0  0  0  0
  183.2790  176.8160  135.5570 C   0  0  0  0  0  3  0  0  0  0  0  0
  190.3420  176.9570  140.8900 C   0  0  1  0  0  3  0  0  0  0  0  0
  191.5350  177.5940  140.4940 O   0  0  0  0  0  0  0  0  0  0  0  0
  191.4980  177.1360  141.8300 C   0  0  1  0  0  3  0  0  0  0  0  0
  191.4050  178.3380  142.7520 C   0  0  0  0  0  2  0  0  0  0  0  0
  191.5690  177.9070  144.1950 C   0  0  0  0  0  2  0  0  0  0  0  0
  191.5100  176.5130  144.2770 O   0  0  0  0  0  1  0  0  0  0  0  0
  182.7160  179.7970  144.0760 C   0  0  0  0  0  2  0  0  0  0  0  0
  181.4470  179.2740  143.8030 O   0  0  0  0  0  1  0  0  0  0  0  0
  188.0180  177.6180  146.1290 C   0  0  0  0  0  1  0  0  0  0  0  0
  186.6520  178.2320  146.3880 C   0  0  0  0  0  2  0  0  0  0  0  0
  1  3  1  0  0  0  0
  2 15  1  6  0  0  0
  2  5  1  0  0  0  0
  2  6  1  0  0  0  0
  3  8  1  0  0  0  0
  3 37  1  0  0  0  0
  4 14  1  0  0  0  0
  5 16  1  0  0  0  0
  6  9  1  0  0  0  0
  7  4  1  0  0  0  0
  7  5  1  0  0  0  0
  9 12  1  0  0  0  0
 10 20  1  0  0  0  0
 10 15  1  0  0  0  0
 11 15  2  0  0  0  0
 13 34  1  0  0  0  0
 13  8  1  0  0  0  0
 14 18  1  0  0  0  0
 16  9  1  0  0  0  0
 16 19  1  0  0  0  0
 17  7  1  0  0  0  0
 18 19  1  0  0  0  0
 18 13  1  0  0  0  0
 19  1  1  0  0  0  0
 20 17  1  0  0  0  0
 21 22  1  0  0  0  0
 22 17  1  0  0  0  0
 22 23  1  0  0  0  0
 25 26  1  0  0  0  0
 26 23  1  0  0  0  0
 26 24  1  0  0  0  0
 27 21  2  0  0  0  0
 27 25  1  0  0  0  0
 28  6  1  0  0  0  0
 28 30  1  0  0  0  0
 29 28  1  0  0  0  0
 29 30  1  0  0  0  0
 30 31  1  0  0  0  0
 31 32  1  0  0  0  0
 32 33  1  0  0  0  0
 35 34  1  0  0  0  0
 36 37  1  0  0  0  0
M  END
>  <MODEL>
2

>  <REMARK>
 VINA RESULT:      -8.1      1.820      2.459
  Name = 
  6 active torsions:
  status: ('A' for Active; 'I' for Inactive)
    1  A    between atoms: C_3  and  C_21
    2  A    between atoms: C_3  and  C_30
    3  A    between atoms: N_5  and  C_23
    4  A    between atoms: C_6  and  C_31
    5  A    between atoms: C_9  and  C_13
    6  A    between atoms: C_11  and  C_26
                            x       y       z     vdW  Elec       q    Type
                         _______ _______ _______ _____ _____    ______ ____

>  <TORSDO>
F 6

$$$$
=
 OpenBabel11052415143D

 37 42  0  0  1  0  0  0  0  0999 V2000
  184.7970  177.6890  142.6580 C   0  0  0  0  0  2  0  0  0  0  0  0
  189.4910  177.6110  143.2220 C   0  0  2  0  0  3  0  0  0  0  0  0
  184.0390  178.9280  142.6610 N   0  0  0  0  0  0  0  0  0  0  0  0
  188.1780  178.7360  139.7540 C   0  0  0  0  0  2  0  0  0  0  0  0
  188.6750  178.3290  142.1530 C   0  0  1  0  0  3  0  0  0  0  0  0
  188.7920  177.9180  144.5300 C   0  0  1  0  0  3  0  0  0  0  0  0
  188.8320  177.7520  140.7190 C   0  0  2  0  0  3  0  0  0  0  0  0
  183.3970  179.0540  141.3500 C   0  0  0  0  0  2  0  0  0  0  0  0
  187.3110  177.8840  144.1690 C   0  0  2  0  0  3  0  0  0  0  0  0
  191.8690  177.3740  142.2370 C   0  0  0  0  0  2  0  0  0  0  0  0
  191.2750  179.0720  143.7570 O   0  0  0  0  0  0  0  0  0  0  0  0
  186.8350  176.5660  144.2270 O   0  0  0  0  0  1  0  0  0  0  0  0
  184.3850  178.8460  140.1770 C   0  0  2  0  0  3  0  0  0  0  0  0
  186.7370  178.3520  139.4910 C   0  0  0  0  0  2  0  0  0  0  0  0
  190.9230  178.0570  143.1760 C   0  0  0  0  0  0  0  0  0  0  0  0
  187.2410  178.4280  142.7280 C   0  0  2  0  0  3  0  0  0  0  0  0
  190.3130  177.5440  140.2620 C   0  0  1  0  0  3  0  0  0  0  0  0
  185.8560  178.8030  140.6430 C   0  0  2  0  0  3  0  0  0  0  0  0
  186.0920  177.8760  141.8510 C   0  0  2  0  0  3  0  0  0  0  0  0
  191.1160  176.5980  141.1590 C   0  0  0  0  0  2  0  0  0  0  0  0
  191.8630  176.6590  138.4400 C   0  0  0  0  0  3  0  0  0  0  0  0
  190.4480  177.0280  138.8200 C   0  0  1  0  0  3  0  0  0  0  0  0
  189.4000  175.9480  138.4770 C   0  0  0  0  0  2  0  0  0  0  0  0
  188.4200  174.4730  136.4080 Cl  0  0  0  0  0  0  0  0  0  0  0  0
  190.9270  175.5300  136.4760 C   0  0  0  0  0  2  0  0  0  0  0  0
  189.8340  174.9580  137.3820 C   0  0  1  0  0  3  0  0  0  0  0  0
  192.0890  175.9580  137.3230 C   0  0  0  0  0  3  0  0  0  0  0  0
  189.1600  176.9140  145.6280 C   0  0  1  0  0  3  0  0  0  0  0  0
  190.0430  177.4980  146.5580 O   0  0  0  0  0  0  0  0  0  0  0  0
  188.7220  177.2870  147.0130 C   0  0  1  0  0  3  0  0  0  0  0  0
  188.0320  178.6340  147.1360 C   0  0  0  0  0  2  0  0  0  0  0  0
  186.6320  178.4580  147.6880 C   0  0  0  0  0  2  0  0  0  0  0  0
  185.8580  179.5750  147.3640 O   0  0  0  0  0  1  0  0  0  0  0  0
  184.1720  179.9410  139.1210 C   0  0  0  0  0  2  0  0  0  0  0  0
  182.8200  180.0060  138.7700 O   0  0  0  0  0  1  0  0  0  0  0  0
  183.5610  179.0140  145.0350 C   0  0  0  0  0  1  0  0  0  0  0  0
  182.9860  178.7720  143.6500 C   0  0  0  0  0  2  0  0  0  0  0  0
  1  3  1  0  0  0  0
  2 15  1  1  0  0  0
  2  6  1  0  0  0  0
  3 37  1  0  0  0  0
  4  7  1  0  0  0  0
  5 16  1  0  0  0  0
  5  2  1  0  0  0  0
  6 28  1  0  0  0  0
  7  5  1  0  0  0  0
  8  3  1  0  0  0  0
  9 12  1  0  0  0  0
  9  6  1  0  0  0  0
 10 15  1  0  0  0  0
 13 18  1  0  0  0  0
 13  8  1  0  0  0  0
 14  4  1  0  0  0  0
 14 18  1  0  0  0  0
 15 11  2  0  0  0  0
 16  9  1  0  0  0  0
 17  7  1  0  0  0  0
 17 20  1  0  0  0  0
 18 19  1  0  0  0  0
 19  1  1  0  0  0  0
 19 16  1  0  0  0  0
 20 10  1  0  0  0  0
 21 22  1  0  0  0  0
 22 17  1  0  0  0  0
 23 22  1  0  0  0  0
 24 26  1  0  0  0  0
 25 27  1  0  0  0  0
 25 26  1  0  0  0  0
 26 23  1  0  0  0  0
 27 21  2  0  0  0  0
 28 29  1  0  0  0  0
 28 30  1  0  0  0  0
 29 30  1  0  0  0  0
 30 31  1  0  0  0  0
 31 32  1  0  0  0  0
 33 32  1  0  0  0  0
 34 13  1  0  0  0  0
 35 34  1  0  0  0  0
 37 36  1  0  0  0  0
M  END
>  <MODEL>
3

>  <REMARK>
 VINA RESULT:      -7.3      2.877      6.734
  Name = 
  6 active torsions:
  status: ('A' for Active; 'I' for Inactive)
    1  A    between atoms: C_3  and  C_21
    2  A    between atoms: C_3  and  C_30
    3  A    between atoms: N_5  and  C_23
    4  A    between atoms: C_6  and  C_31
    5  A    between atoms: C_9  and  C_13
    6  A    between atoms: C_11  and  C_26
                            x       y       z     vdW  Elec       q    Type
                         _______ _______ _______ _____ _____    ______ ____

>  <TORSDO>
F 6

$$$$
=
 OpenBabel11052415143D

 37 42  0  0  1  0  0  0  0  0999 V2000
  185.3180  176.6370  137.7590 C   0  0  0  0  0  2  0  0  0  0  0  0
  182.1400  178.3140  140.8320 C   0  0  2  0  0  3  0  0  0  0  0  0
  185.8840  177.4620  136.7060 N   0  0  0  0  0  0  0  0  0  0  0  0
  185.8250  179.3780  141.3900 C   0  0  0  0  0  2  0  0  0  0  0  0
  183.5530  178.8170  140.5570 C   0  0  1  0  0  3  0  0  0  0  0  0
  181.5180  178.1080  139.4670 C   0  0  1  0  0  3  0  0  0  0  0  0
  184.5610  178.5870  141.7170 C   0  0  2  0  0  3  0  0  0  0  0  0
  187.3290  177.5350  136.9350 C   0  0  0  0  0  2  0  0  0  0  0  0
  182.6630  177.5550  138.6240 C   0  0  2  0  0  3  0  0  0  0  0  0
  181.5380  179.1900  143.1890 C   0  0  0  0  0  2  0  0  0  0  0  0
  180.8310  180.2500  141.2080 O   0  0  0  0  0  0  0  0  0  0  0  0
  182.7500  176.1650  138.7920 O   0  0  0  0  0  1  0  0  0  0  0  0
  187.6850  177.9230  138.3910 C   0  0  2  0  0  3  0  0  0  0  0  0
  186.8290  178.5080  140.6640 C   0  0  0  0  0  2  0  0  0  0  0  0
  181.3970  179.2870  141.7000 C   0  0  0  0  0  0  0  0  0  0  0  0
  183.9270  178.2520  139.1660 C   0  0  2  0  0  3  0  0  0  0  0  0
  184.0530  179.0520  143.1200 C   0  0  1  0  0  3  0  0  0  0  0  0
  186.4540  178.3860  139.1980 C   0  0  2  0  0  3  0  0  0  0  0  0
  185.2420  177.4440  139.0650 C   0  0  2  0  0  3  0  0  0  0  0  0
  182.7630  178.3660  143.5760 C   0  0  0  0  0  2  0  0  0  0  0  0
  184.4690  178.6810  145.6090 C   0  0  0  0  0  3  0  0  0  0  0  0
  185.0870  178.8700  144.2430 C   0  0  1  0  0  3  0  0  0  0  0  0
  186.1690  177.8280  143.8890 C   0  0  0  0  0  2  0  0  0  0  0  0
  188.5230  176.7790  144.7670 Cl  0  0  0  0  0  0  0  0  0  0  0  0
  186.6760  177.9480  146.3870 C   0  0  0  0  0  2  0  0  0  0  0  0
  186.8070  177.1280  145.1020 C   0  0  1  0  0  3  0  0  0  0  0  0
  185.2260  178.2540  146.6260 C   0  0  0  0  0  3  0  0  0  0  0  0
  180.3110  177.1650  139.5220 C   0  0  1  0  0  3  0  0  0  0  0  0
  179.2010  177.8150  140.1000 O   0  0  0  0  0  0  0  0  0  0  0  0
  179.1260  177.5910  138.7070 C   0  0  1  0  0  3  0  0  0  0  0  0
  179.2720  178.9240  137.9950 C   0  0  0  0  0  2  0  0  0  0  0  0
  179.1620  178.7330  136.4960 C   0  0  0  0  0  2  0  0  0  0  0  0
  180.3890  178.2950  135.9890 O   0  0  0  0  0  1  0  0  0  0  0  0
  188.7790  179.0020  138.3860 C   0  0  0  0  0  2  0  0  0  0  0  0
  188.6880  179.7660  137.2170 O   0  0  0  0  0  1  0  0  0  0  0  0
  184.1850  176.5740  135.2240 C   0  0  0  0  0  1  0  0  0  0  0  0
  185.6760  176.7480  135.4570 C   0  0  0  0  0  2  0  0  0  0  0  0
  1 19  1  0  0  0  0
  2 15  1  1  0  0  0
  3  8  1  0  0  0  0
  3  1  1  0  0  0  0
  4  7  1  0  0  0  0
  5  2  1  0  0  0  0
  5  7  1  0  0  0  0
  6 28  1  0  0  0  0
  6  2  1  0  0  0  0
  7 17  1  0  0  0  0
  8 13  1  0  0  0  0
  9 12  1  0  0  0  0
  9 16  1  0  0  0  0
  9  6  1  0  0  0  0
 10 20  1  0  0  0  0
 11 15  2  0  0  0  0
 13 18  1  0  0  0  0
 14  4  1  0  0  0  0
 15 10  1  0  0  0  0
 16  5  1  0  0  0  0
 17 20  1  0  0  0  0
 17 22  1  0  0  0  0
 18 14  1  0  0  0  0
 19 16  1  0  0  0  0
 19 18  1  0  0  0  0
 21 27  2  0  0  0  0
 22 21  1  0  0  0  0
 23 22  1  0  0  0  0
 23 26  1  0  0  0  0
 24 26  1  0  0  0  0
 25 27  1  0  0  0  0
 26 25  1  0  0  0  0
 28 29  1  0  0  0  0
 30 28  1  0  0  0  0
 30 29  1  0  0  0  0
 31 30  1  0  0  0  0
 32 31  1  0  0  0  0
 33 32  1  0  0  0  0
 34 13  1  0  0  0  0
 35 34  1  0  0  0  0
 36 37  1  0  0  0  0
 37  3  1  0  0  0  0
M  END
>  <MODEL>
4

>  <REMARK>
 VINA RESULT:      -6.9      3.686      8.647
  Name = 
  6 active torsions:
  status: ('A' for Active; 'I' for Inactive)
    1  A    between atoms: C_3  and  C_21
    2  A    between atoms: C_3  and  C_30
    3  A    between atoms: N_5  and  C_23
    4  A    between atoms: C_6  and  C_31
    5  A    between atoms: C_9  and  C_13
    6  A    between atoms: C_11  and  C_26
                            x       y       z     vdW  Elec       q    Type
                         _______ _______ _______ _____ _____    ______ ____

>  <TORSDO>
F 6

$$$$
=
 OpenBabel11052415143D

 37 42  0  0  1  0  0  0  0  0999 V2000
  185.2540  177.1070  137.9420 C   0  0  0  0  0  2  0  0  0  0  0  0
  184.4140  178.4860  142.3860 C   0  0  2  0  0  3  0  0  0  0  0  0
  185.4950  178.0580  136.8700 N   0  0  0  0  0  0  0  0  0  0  0  0
  188.0890  178.6880  141.1700 C   0  0  0  0  0  2  0  0  0  0  0  0
  185.6310  178.7790  141.5140 C   0  0  1  0  0  3  0  0  0  0  0  0
  183.2160  178.7520  141.4990 C   0  0  1  0  0  3  0  0  0  0  0  0
  186.9410  178.0820  141.9730 C   0  0  2  0  0  3  0  0  0  0  0  0
  186.8430  177.8080  136.3550 C   0  0  0  0  0  2  0  0  0  0  0  0
  183.6520  178.2360  140.1320 C   0  0  2  0  0  3  0  0  0  0  0  0
  185.2090  178.8230  144.8220 C   0  0  0  0  0  2  0  0  0  0  0  0
  184.0200  180.4650  143.6240 O   0  0  0  0  0  0  0  0  0  0  0  0
  183.4090  176.8580  140.0420 O   0  0  0  0  0  1  0  0  0  0  0  0
  187.9080  177.7390  137.4770 C   0  0  2  0  0  3  0  0  0  0  0  0
  188.3690  177.8670  139.9300 C   0  0  0  0  0  2  0  0  0  0  0  0
  184.4490  179.3220  143.6320 C   0  0  0  0  0  0  0  0  0  0  0  0
  185.1630  178.5320  140.0600 C   0  0  2  0  0  3  0  0  0  0  0  0
  187.2720  178.2560  143.4910 C   0  0  1  0  0  3  0  0  0  0  0  0
  187.3580  178.1940  138.8450 C   0  0  2  0  0  3  0  0  0  0  0  0
  186.0050  177.5520  139.2070 C   0  0  2  0  0  3  0  0  0  0  0  0
  186.1890  177.7190  144.4310 C   0  0  0  0  0  2  0  0  0  0  0  0
  189.8160  178.2770  143.3120 C   0  0  0  0  0  3  0  0  0  0  0  0
  188.6020  177.6080  143.9120 C   0  0  1  0  0  3  0  0  0  0  0  0
  188.6930  177.3810  145.4360 C   0  0  0  0  0  2  0  0  0  0  0  0
  190.2360  176.2170  147.3540 Cl  0  0  0  0  0  0  0  0  0  0  0  0
  191.1690  177.0290  144.9310 C   0  0  0  0  0  2  0  0  0  0  0  0
  190.1260  177.3690  145.9970 C   0  0  1  0  0  3  0  0  0  0  0  0
  191.0330  177.9930  143.7890 C   0  0  0  0  0  3  0  0  0  0  0  0
  181.9510  178.0610  142.0210 C   0  0  1  0  0  3  0  0  0  0  0  0
  181.1930  178.9470  142.8120 O   0  0  0  0  0  0  0  0  0  0  0  0
  180.6550  178.6450  141.5400 C   0  0  1  0  0  3  0  0  0  0  0  0
  180.7840  179.8730  140.6560 C   0  0  0  0  0  2  0  0  0  0  0  0
  179.4750  180.6350  140.6220 C   0  0  0  0  0  2  0  0  0  0  0  0
  179.3470  181.3970  141.7860 O   0  0  0  0  0  1  0  0  0  0  0  0
  189.1390  178.5670  137.0740 C   0  0  0  0  0  2  0  0  0  0  0  0
  188.9360  179.9110  137.4070 O   0  0  0  0  0  1  0  0  0  0  0  0
  183.2560  177.2470  136.4220 C   0  0  0  0  0  1  0  0  0  0  0  0
  184.5560  177.7370  135.8080 C   0  0  0  0  0  2  0  0  0  0  0  0
  1 19  1  0  0  0  0
  2 15  1  1  0  0  0
  3  1  1  0  0  0  0
  4  7  1  0  0  0  0
  5  7  1  0  0  0  0
  5  2  1  0  0  0  0
  6 28  1  0  0  0  0
  6  2  1  0  0  0  0
  7 17  1  0  0  0  0
  8  3  1  0  0  0  0
  8 13  1  0  0  0  0
  9  6  1  0  0  0  0
 11 15  2  0  0  0  0
 12  9  1  0  0  0  0
 13 18  1  0  0  0  0
 14  4  1  0  0  0  0
 15 10  1  0  0  0  0
 16  9  1  0  0  0  0
 16  5  1  0  0  0  0
 17 22  1  0  0  0  0
 17 20  1  0  0  0  0
 18 19  1  0  0  0  0
 18 14  1  0  0  0  0
 19 16  1  0  0  0  0
 20 10  1  0  0  0  0
 21 27  2  0  0  0  0
 21 22  1  0  0  0  0
 22 23  1  0  0  0  0
 23 26  1  0  0  0  0
 25 26  1  0  0  0  0
 26 24  1  0  0  0  0
 27 25  1  0  0  0  0
 28 29  1  0  0  0  0
 30 28  1  0  0  0  0
 30 29  1  0  0  0  0
 31 30  1  0  0  0  0
 32 31  1  0  0  0  0
 32 33  1  0  0  0  0
 34 35  1  0  0  0  0
 34 13  1  0  0  0  0
 37 36  1  0  0  0  0
 37  3  1  0  0  0  0
M  END
>  <MODEL>
5

>  <REMARK>
 VINA RESULT:      -6.9      3.522      8.889
  Name = 
  6 active torsions:
  status: ('A' for Active; 'I' for Inactive)
    1  A    between atoms: C_3  and  C_21
    2  A    between atoms: C_3  and  C_30
    3  A    between atoms: N_5  and  C_23
    4  A    between atoms: C_6  and  C_31
    5  A    between atoms: C_9  and  C_13
    6  A    between atoms: C_11  and  C_26
                            x       y       z     vdW  Elec       q    Type
                         _______ _______ _______ _____ _____    ______ ____

>  <TORSDO>
F 6

$$$$
=
 OpenBabel11052415143D

 37 42  0  0  1  0  0  0  0  0999 V2000
  187.5770  178.6610  140.2780 C   0  0  0  0  0  2  0  0  0  0  0  0
  183.0190  179.0020  141.4890 C   0  0  2  0  0  3  0  0  0  0  0  0
  188.2520  177.3800  140.1610 N   0  0  0  0  0  0  0  0  0  0  0  0
  183.7720  177.8730  137.8580 C   0  0  0  0  0  2  0  0  0  0  0  0
  183.6350  178.2600  140.3080 C   0  0  1  0  0  3  0  0  0  0  0  0
  183.8710  178.6280  142.6830 C   0  0  1  0  0  3  0  0  0  0  0  0
  183.3170  178.8740  138.9170 C   0  0  2  0  0  3  0  0  0  0  0  0
  188.6990  177.2440  138.7730 C   0  0  0  0  0  2  0  0  0  0  0  0
  185.2880  178.5830  142.1210 C   0  0  2  0  0  3  0  0  0  0  0  0
  180.5470  179.3980  140.8450 C   0  0  0  0  0  2  0  0  0  0  0  0
  181.2410  177.6370  142.2480 O   0  0  0  0  0  0  0  0  0  0  0  0
  185.8460  179.8690  142.1290 O   0  0  0  0  0  1  0  0  0  0  0  0
  187.5730  177.5340  137.7510 C   0  0  2  0  0  3  0  0  0  0  0  0
  185.1830  178.1770  137.4030 C   0  0  0  0  0  2  0  0  0  0  0  0
  181.5700  178.6410  141.6360 C   0  0  0  0  0  0  0  0  0  0  0  0
  185.1250  178.0650  140.6770 C   0  0  2  0  0  3  0  0  0  0  0  0
  181.8030  179.1770  138.6720 C   0  0  1  0  0  3  0  0  0  0  0  0
  186.1850  177.6520  138.4160 C   0  0  2  0  0  3  0  0  0  0  0  0
  186.1750  178.5670  139.6560 C   0  0  2  0  0  3  0  0  0  0  0  0
  181.1900  180.1500  139.6830 C   0  0  0  0  0  2  0  0  0  0  0  0
  180.5110  178.8970  136.4920 C   0  0  0  0  0  3  0  0  0  0  0  0
  181.5020  179.7300  137.2690 C   0  0  1  0  0  3  0  0  0  0  0  0
  181.1860  181.2400  137.2830 C   0  0  0  0  0  2  0  0  0  0  0  0
  180.7450  183.3670  135.6400 Cl  0  0  0  0  0  0  0  0  0  0  0  0
  180.3240  180.7750  134.9270 C   0  0  0  0  0  2  0  0  0  0  0  0
  180.2810  181.7160  136.1320 C   0  0  1  0  0  3  0  0  0  0  0  0
  179.9610  179.3900  135.3760 C   0  0  0  0  0  3  0  0  0  0  0  0
  183.7190  179.6300  143.8330 C   0  0  1  0  0  3  0  0  0  0  0  0
  183.0770  179.0270  144.9330 O   0  0  0  0  0  0  0  0  0  0  0  0
  184.4590  179.2800  145.0910 C   0  0  1  0  0  3  0  0  0  0  0  0
  185.2000  177.9550  145.0630 C   0  0  0  0  0  2  0  0  0  0  0  0
  186.1800  177.8780  146.2150 C   0  0  0  0  0  2  0  0  0  0  0  0
  185.8660  178.8540  147.1630 O   0  0  0  0  0  1  0  0  0  0  0  0
  187.5710  176.4490  136.6620 C   0  0  0  0  0  2  0  0  0  0  0  0
  187.2320  175.2130  137.2230 O   0  0  0  0  0  1  0  0  0  0  0  0
  189.0420  177.9200  142.3880 C   0  0  0  0  0  1  0  0  0  0  0  0
  189.4390  177.4550  140.9960 C   0  0  0  0  0  2  0  0  0  0  0  0
  2 15  1  1  0  0  0
  2  6  1  0  0  0  0
  3  1  1  0  0  0  0
  3 37  1  0  0  0  0
  4  7  1  0  0  0  0
  5 16  1  0  0  0  0
  5  2  1  0  0  0  0
  6 28  1  0  0  0  0
  7  5  1  0  0  0  0
  8  3  1  0  0  0  0
  9 12  1  0  0  0  0
  9  6  1  0  0  0  0
 10 15  1  0  0  0  0
 13 18  1  0  0  0  0
 13  8  1  0  0  0  0
 14  4  1  0  0  0  0
 14 18  1  0  0  0  0
 15 11  2  0  0  0  0
 16  9  1  0  0  0  0
 17  7  1  0  0  0  0
 17 20  1  0  0  0  0
 18 19  1  0  0  0  0
 19  1  1  0  0  0  0
 19 16  1  0  0  0  0
 20 10  1  0  0  0  0
 21 22  1  0  0  0  0
 22 23  1  0  0  0  0
 22 17  1  0  0  0  0
 24 26  1  0  0  0  0
 25 27  1  0  0  0  0
 25 26  1  0  0  0  0
 26 23  1  0  0  0  0
 27 21  2  0  0  0  0
 28 29  1  0  0  0  0
 28 30  1  0  0  0  0
 29 30  1  0  0  0  0
 31 30  1  0  0  0  0
 31 32  1  0  0  0  0
 32 33  1  0  0  0  0
 34 35  1  0  0  0  0
 34 13  1  0  0  0  0
 37 36  1  0  0  0  0
M  END
>  <MODEL>
6

>  <REMARK>
 VINA RESULT:      -6.2      2.900      6.632
  Name = 
  6 active torsions:
  status: ('A' for Active; 'I' for Inactive)
    1  A    between atoms: C_3  and  C_21
    2  A    between atoms: C_3  and  C_30
    3  A    between atoms: N_5  and  C_23
    4  A    between atoms: C_6  and  C_31
    5  A    between atoms: C_9  and  C_13
    6  A    between atoms: C_11  and  C_26
                            x       y       z     vdW  Elec       q    Type
                         _______ _______ _______ _____ _____    ______ ____

>  <TORSDO>
F 6

$$$$
=
 OpenBabel11052415143D

 37 42  0  0  1  0  0  0  0  0999 V2000
  185.4710  177.8120  142.5770 C   0  0  0  0  0  2  0  0  0  0  0  0
  189.9440  177.0550  141.2430 C   0  0  2  0  0  3  0  0  0  0  0  0
  184.9500  179.1480  142.8090 N   0  0  0  0  0  0  0  0  0  0  0  0
  187.5170  178.3610  138.5180 C   0  0  0  0  0  2  0  0  0  0  0  0
  188.8720  177.8840  140.5450 C   0  0  1  0  0  3  0  0  0  0  0  0
  189.8730  177.4580  142.7010 C   0  0  1  0  0  3  0  0  0  0  0  0
  188.3650  177.2910  139.2010 C   0  0  2  0  0  3  0  0  0  0  0  0
  183.8600  179.3660  141.8540 C   0  0  0  0  0  2  0  0  0  0  0  0
  188.3810  177.6400  142.9570 C   0  0  2  0  0  3  0  0  0  0  0  0
  191.6750  176.4760  139.4130 C   0  0  0  0  0  2  0  0  0  0  0  0
  191.9700  178.2410  140.9450 O   0  0  0  0  0  0  0  0  0  0  0  0
  187.7980  176.4050  143.2740 O   0  0  0  0  0  1  0  0  0  0  0  0
  184.2610  179.0180  140.4000 C   0  0  2  0  0  3  0  0  0  0  0  0
  186.0540  178.1900  138.8690 C   0  0  0  0  0  2  0  0  0  0  0  0
  191.2840  177.2880  140.6090 C   0  0  0  0  0  0  0  0  0  0  0  0
  187.8140  178.1890  141.6320 C   0  0  2  0  0  3  0  0  0  0  0  0
  189.4980  176.8710  138.2090 C   0  0  1  0  0  3  0  0  0  0  0  0
  185.7750  178.7630  140.2470 C   0  0  2  0  0  3  0  0  0  0  0  0
  186.3480  177.8100  141.3150 C   0  0  2  0  0  3  0  0  0  0  0  0
  190.4580  175.8180  138.7670 C   0  0  0  0  0  2  0  0  0  0  0  0
  190.0650  175.8240  135.9530 C   0  0  0  0  0  3  0  0  0  0  0  0
  188.9760  176.3420  136.8630 C   0  0  1  0  0  3  0  0  0  0  0  0
  187.7800  175.3800  137.0280 C   0  0  0  0  0  2  0  0  0  0  0  0
  185.8970  174.0150  135.6110 Cl  0  0  0  0  0  0  0  0  0  0  0  0
  188.2980  174.7990  134.5980 C   0  0  0  0  0  2  0  0  0  0  0  0
  187.6260  174.3480  135.8970 C   0  0  1  0  0  3  0  0  0  0  0  0
  189.7410  175.1020  134.8740 C   0  0  0  0  0  3  0  0  0  0  0  0
  190.5120  176.4110  143.6190 C   0  0  1  0  0  3  0  0  0  0  0  0
  191.6800  176.9230  144.2170 O   0  0  0  0  0  0  0  0  0  0  0  0
  190.5650  176.7780  145.0730 C   0  0  1  0  0  3  0  0  0  0  0  0
  190.0340  178.1580  145.4140 C   0  0  0  0  0  2  0  0  0  0  0  0
  189.1630  178.0940  146.6530 C   0  0  0  0  0  2  0  0  0  0  0  0
  188.1490  177.1520  146.4630 O   0  0  0  0  0  1  0  0  0  0  0  0
  183.7910  180.1340  139.4530 C   0  0  0  0  0  2  0  0  0  0  0  0
  182.8540  179.6250  138.5470 O   0  0  0  0  0  1  0  0  0  0  0  0
  185.3870  178.6020  145.1290 C   0  0  0  0  0  1  0  0  0  0  0  0
  184.3690  179.1450  144.1400 C   0  0  0  0  0  2  0  0  0  0  0  0
  1  3  1  0  0  0  0
  2 15  1  6  0  0  0
  2  6  1  0  0  0  0
  3 37  1  0  0  0  0
  4 14  1  0  0  0  0
  4  7  1  0  0  0  0
  5  2  1  0  0  0  0
  5 16  1  0  0  0  0
  6  9  1  0  0  0  0
  6 28  1  0  0  0  0
  7  5  1  0  0  0  0
  8  3  1  0  0  0  0
  9 12  1  0  0  0  0
 10 15  1  0  0  0  0
 13  8  1  0  0  0  0
 14 18  1  0  0  0  0
 15 11  2  0  0  0  0
 16  9  1  0  0  0  0
 17 20  1  0  0  0  0
 17  7  1  0  0  0  0
 18 13  1  0  0  0  0
 18 19  1  0  0  0  0
 19 16  1  0  0  0  0
 19  1  1  0  0  0  0
 20 10  1  0  0  0  0
 21 22  1  0  0  0  0
 22 23  1  0  0  0  0
 22 17  1  0  0  0  0
 24 26  1  0  0  0  0
 25 27  1  0  0  0  0
 25 26  1  0  0  0  0
 26 23  1  0  0  0  0
 27 21  2  0  0  0  0
 28 29  1  0  0  0  0
 28 30  1  0  0  0  0
 29 30  1  0  0  0  0
 30 31  1  0  0  0  0
 31 32  1  0  0  0  0
 33 32  1  0  0  0  0
 34 13  1  0  0  0  0
 35 34  1  0  0  0  0
 37 36  1  0  0  0  0
M  END
>  <MODEL>
7

>  <REMARK>
 VINA RESULT:      -6.1      2.653      5.545
  Name = 
  6 active torsions:
  status: ('A' for Active; 'I' for Inactive)
    1  A    between atoms: C_3  and  C_21
    2  A    between atoms: C_3  and  C_30
    3  A    between atoms: N_5  and  C_23
    4  A    between atoms: C_6  and  C_31
    5  A    between atoms: C_9  and  C_13
    6  A    between atoms: C_11  and  C_26
                            x       y       z     vdW  Elec       q    Type
                         _______ _______ _______ _____ _____    ______ ____

>  <TORSDO>
F 6

$$$$
=
 OpenBabel11052415143D

 37 42  0  0  1  0  0  0  0  0999 V2000
  188.1530  178.7850  140.3080 C   0  0  0  0  0  2  0  0  0  0  0  0
  188.5750  176.2750  136.3230 C   0  0  2  0  0  3  0  0  0  0  0  0
  187.6810  178.1920  141.5470 N   0  0  0  0  0  0  0  0  0  0  0  0
  191.3050  175.7260  139.0180 C   0  0  0  0  0  2  0  0  0  0  0  0
  189.2390  176.0320  137.6730 C   0  0  1  0  0  3  0  0  0  0  0  0
  187.1200  176.5520  136.6390 C   0  0  1  0  0  3  0  0  0  0  0  0
  190.7750  176.2680  137.6940 C   0  0  2  0  0  3  0  0  0  0  0  0
  188.7610  178.3130  142.5310 C   0  0  0  0  0  2  0  0  0  0  0  0
  187.1750  177.3730  137.9230 C   0  0  2  0  0  3  0  0  0  0  0  0
  190.0420  175.0340  134.5940 C   0  0  0  0  0  2  0  0  0  0  0  0
  188.0500  174.1310  135.4690 O   0  0  0  0  0  0  0  0  0  0  0  0
  187.3620  178.7280  137.6150 O   0  0  0  0  0  1  0  0  0  0  0  0
  190.1210  177.8070  141.9910 C   0  0  2  0  0  3  0  0  0  0  0  0
  191.3650  176.8220  140.0610 C   0  0  0  0  0  2  0  0  0  0  0  0
  188.7890  175.1010  135.4140 C   0  0  0  0  0  0  0  0  0  0  0  0
  188.3850  176.8140  138.6990 C   0  0  2  0  0  3  0  0  0  0  0  0
  191.5550  175.5610  136.5380 C   0  0  1  0  0  3  0  0  0  0  0  0
  189.9840  177.0660  140.6440 C   0  0  2  0  0  3  0  0  0  0  0  0
  189.1260  177.8210  139.6110 C   0  0  2  0  0  3  0  0  0  0  0  0
  191.1100  175.9810  135.1350 C   0  0  0  0  0  2  0  0  0  0  0  0
  193.8540  174.4640  136.6730 C   0  0  0  0  0  3  0  0  0  0  0  0
  193.0780  175.7590  136.6100 C   0  0  1  0  0  3  0  0  0  0  0  0
  193.5970  176.7550  135.5510 C   0  0  0  0  0  2  0  0  0  0  0  0
  195.8310  178.0970  134.7630 Cl  0  0  0  0  0  0  0  0  0  0  0  0
  195.8670  175.7700  136.1720 C   0  0  0  0  0  2  0  0  0  0  0  0
  195.0570  176.5310  135.1200 C   0  0  1  0  0  3  0  0  0  0  0  0
  195.1770  174.4720  136.4750 C   0  0  0  0  0  3  0  0  0  0  0  0
  186.4120  177.2840  135.4940 C   0  0  1  0  0  3  0  0  0  0  0  0
  185.8100  176.3630  134.6130 O   0  0  0  0  0  0  0  0  0  0  0  0
  184.9250  177.0980  135.4340 C   0  0  1  0  0  3  0  0  0  0  0  0
  184.3440  176.1620  136.4790 C   0  0  0  0  0  2  0  0  0  0  0  0
  183.2310  176.8520  137.2410 C   0  0  0  0  0  2  0  0  0  0  0  0
  183.7790  177.7770  138.1330 O   0  0  0  0  0  1  0  0  0  0  0  0
  190.7970  176.9170  143.0450 C   0  0  0  0  0  2  0  0  0  0  0  0
  190.1720  175.6650  143.0810 O   0  0  0  0  0  1  0  0  0  0  0  0
  185.4780  179.0130  140.9600 C   0  0  0  0  0  1  0  0  0  0  0  0
  186.5760  179.0150  142.0100 C   0  0  0  0  0  2  0  0  0  0  0  0
  1  3  1  0  0  0  0
  2 15  1  6  0  0  0
  2  6  1  0  0  0  0
  2  5  1  0  0  0  0
  3 37  1  0  0  0  0
  3  8  1  0  0  0  0
  4 14  1  0  0  0  0
  5  7  1  0  0  0  0
  5 16  1  0  0  0  0
  6  9  1  0  0  0  0
  7  4  1  0  0  0  0
  9 16  1  0  0  0  0
 10 20  1  0  0  0  0
 10 15  1  0  0  0  0
 12  9  1  0  0  0  0
 13  8  1  0  0  0  0
 13 34  1  0  0  0  0
 14 18  1  0  0  0  0
 15 11  2  0  0  0  0
 16 19  1  0  0  0  0
 17 22  1  0  0  0  0
 17  7  1  0  0  0  0
 18 13  1  0  0  0  0
 19  1  1  0  0  0  0
 19 18  1  0  0  0  0
 20 17  1  0  0  0  0
 22 21  1  0  0  0  0
 23 22  1  0  0  0  0
 24 26  1  0  0  0  0
 25 27  1  0  0  0  0
 26 23  1  0  0  0  0
 26 25  1  0  0  0  0
 27 21  2  0  0  0  0
 28  6  1  0  0  0  0
 29 30  1  0  0  0  0
 29 28  1  0  0  0  0
 30 28  1  0  0  0  0
 30 31  1  0  0  0  0
 31 32  1  0  0  0  0
 32 33  1  0  0  0  0
 34 35  1  0  0  0  0
 36 37  1  0  0  0  0
M  END
>  <MODEL>
8

>  <REMARK>
 VINA RESULT:      -6.0      3.948      8.072
  Name = 
  6 active torsions:
  status: ('A' for Active; 'I' for Inactive)
    1  A    between atoms: C_3  and  C_21
    2  A    between atoms: C_3  and  C_30
    3  A    between atoms: N_5  and  C_23
    4  A    between atoms: C_6  and  C_31
    5  A    between atoms: C_9  and  C_13
    6  A    between atoms: C_11  and  C_26
                            x       y       z     vdW  Elec       q    Type
                         _______ _______ _______ _____ _____    ______ ____

>  <TORSDO>
F 6

$$$$
=
 OpenBabel11052415143D

 37 42  0  0  1  0  0  0  0  0999 V2000
  190.4730  178.4680  141.6720 C   0  0  0  0  0  2  0  0  0  0  0  0
  187.5020  177.9530  145.3130 C   0  0  2  0  0  3  0  0  0  0  0  0
  190.9880  177.3320  140.9280 N   0  0  0  0  0  0  0  0  0  0  0  0
  186.0000  177.4990  141.7700 C   0  0  0  0  0  2  0  0  0  0  0  0
  187.3250  177.4930  143.8710 C   0  0  1  0  0  3  0  0  0  0  0  0
  188.9060  177.5360  145.6960 C   0  0  1  0  0  3  0  0  0  0  0  0
  186.2280  178.2540  143.0760 C   0  0  2  0  0  3  0  0  0  0  0  0
  190.5330  177.4710  139.5420 C   0  0  0  0  0  2  0  0  0  0  0  0
  189.7180  177.7830  144.4280 C   0  0  2  0  0  3  0  0  0  0  0  0
  185.1160  178.0740  146.3010 C   0  0  0  0  0  2  0  0  0  0  0  0
  186.5590  176.2460  146.6530 O   0  0  0  0  0  0  0  0  0  0  0  0
  190.1330  179.1210  144.3800 O   0  0  0  0  0  1  0  0  0  0  0  0
  189.0120  177.7410  139.4370 C   0  0  2  0  0  3  0  0  0  0  0  0
  186.8600  178.0710  140.6630 C   0  0  0  0  0  2  0  0  0  0  0  0
  186.4320  177.3660  146.1860 C   0  0  0  0  0  0  0  0  0  0  0  0
  188.7510  177.4670  143.2700 C   0  0  2  0  0  3  0  0  0  0  0  0
  184.8530  178.3650  143.8120 C   0  0  1  0  0  3  0  0  0  0  0  0
  188.2830  177.5540  140.7840 C   0  0  2  0  0  3  0  0  0  0  0  0
  188.9780  178.2630  141.9620 C   0  0  2  0  0  3  0  0  0  0  0  0
  184.9250  179.0770  145.1660 C   0  0  0  0  0  2  0  0  0  0  0  0
  183.7120  178.6180  141.5450 C   0  0  0  0  0  3  0  0  0  0  0  0
  183.7650  179.0700  142.9860 C   0  0  1  0  0  3  0  0  0  0  0  0
  182.3950  179.0790  143.6960 C   0  0  0  0  0  2  0  0  0  0  0  0
  179.8740  180.0930  143.5090 Cl  0  0  0  0  0  0  0  0  0  0  0  0
  181.5380  179.7400  141.3860 C   0  0  0  0  0  2  0  0  0  0  0  0
  181.1820  179.1480  142.7500 C   0  0  1  0  0  3  0  0  0  0  0  0
  182.6600  178.9450  140.7850 C   0  0  0  0  0  3  0  0  0  0  0  0
  189.4320  178.3220  146.9010 C   0  0  1  0  0  3  0  0  0  0  0  0
  189.0380  177.7040  148.1050 O   0  0  0  0  0  0  0  0  0  0  0  0
  190.4060  177.5850  147.7730 C   0  0  1  0  0  3  0  0  0  0  0  0
  190.6830  176.1480  147.3690 C   0  0  0  0  0  2  0  0  0  0  0  0
  192.1750  175.8880  147.3450 C   0  0  0  0  0  2  0  0  0  0  0  0
  192.7650  176.4460  148.4820 O   0  0  0  0  0  1  0  0  0  0  0  0
  188.4020  176.8420  138.3500 C   0  0  0  0  0  2  0  0  0  0  0  0
  187.8990  177.6300  137.3090 O   0  0  0  0  0  1  0  0  0  0  0  0
  192.9660  177.1000  139.5460 C   0  0  0  0  0  1  0  0  0  0  0  0
  192.4360  177.4550  140.9260 C   0  0  0  0  0  2  0  0  0  0  0  0
  1 19  1  0  0  0  0
  2  6  1  0  0  0  0
  2 15  1  1  0  0  0
  3  1  1  0  0  0  0
  4  7  1  0  0  0  0
  5  2  1  0  0  0  0
  6 28  1  0  0  0  0
  7 17  1  0  0  0  0
  7  5  1  0  0  0  0
  8  3  1  0  0  0  0
  9  6  1  0  0  0  0
 12  9  1  0  0  0  0
 13  8  1  0  0  0  0
 13 18  1  0  0  0  0
 14 18  1  0  0  0  0
 14  4  1  0  0  0  0
 15 10  1  0  0  0  0
 15 11  2  0  0  0  0
 16  5  1  0  0  0  0
 16  9  1  0  0  0  0
 17 20  1  0  0  0  0
 18 19  1  0  0  0  0
 19 16  1  0  0  0  0
 20 10  1  0  0  0  0
 21 22  1  0  0  0  0
 22 23  1  0  0  0  0
 22 17  1  0  0  0  0
 25 26  1  0  0  0  0
 26 24  1  0  0  0  0
 26 23  1  0  0  0  0
 27 25  1  0  0  0  0
 27 21  2  0  0  0  0
 28 30  1  0  0  0  0
 28 29  1  0  0  0  0
 30 29  1  0  0  0  0
 31 30  1  0  0  0  0
 32 31  1  0  0  0  0
 32 33  1  0  0  0  0
 34 13  1  0  0  0  0
 35 34  1  0  0  0  0
 36 37  1  0  0  0  0
 37  3  1  0  0  0  0
M  END
>  <MODEL>
9

>  <REMARK>
 VINA RESULT:      -6.0      2.774      6.289
  Name = 
  6 active torsions:
  status: ('A' for Active; 'I' for Inactive)
    1  A    between atoms: C_3  and  C_21
    2  A    between atoms: C_3  and  C_30
    3  A    between atoms: N_5  and  C_23
    4  A    between atoms: C_6  and  C_31
    5  A    between atoms: C_9  and  C_13
    6  A    between atoms: C_11  and  C_26
                            x       y       z     vdW  Elec       q    Type
                         _______ _______ _______ _____ _____    ______ ____

>  <TORSDO>
F 6

$$$$
