=
 OpenBabel11052413053D

 31 34  0  0  1  0  0  0  0  0999 V2000
  189.9330  177.5250  141.8530 C   0  0  0  0  0  0  0  0  0  0  0  0
  189.6050  176.0040  138.3920 C   0  0  2  0  0  3  0  0  0  0  0  0
  188.8020  176.9070  137.4630 C   0  0  0  0  0  0  0  0  0  0  0  0
  189.1270  179.0020  138.7040 O   0  0  0  0  0  1  0  0  0  0  0  0
  190.2150  176.6330  139.6130 C   0  0  0  0  0  0  0  0  0  0  0  0
  191.2890  177.8620  141.8930 C   0  0  0  0  0  3  0  0  0  0  0  0
  188.5790  178.2960  137.6410 C   0  0  0  0  0  0  0  0  0  0  0  0
  191.8630  176.0410  137.2940 C   0  0  2  0  0  3  0  0  0  0  0  0
  189.0600  177.8230  143.0180 C   0  0  0  0  0  1  0  0  0  0  0  0
  188.5570  174.8300  136.0850 C   0  0  0  0  0  2  0  0  0  0  0  0
  187.7950  178.9970  136.7200 C   0  0  0  0  0  3  0  0  0  0  0  0
  192.5420  176.5500  138.5710 C   0  0  0  0  0  2  0  0  0  0  0  0
  190.6340  175.1700  137.6000 C   0  0  2  0  0  3  0  0  0  0  0  0
  189.3990  176.9080  140.7190 C   0  0  0  0  0  3  0  0  0  0  0  0
  187.2440  178.3490  135.6150 C   0  0  0  0  0  3  0  0  0  0  0  0
  191.5870  176.9630  139.6570 C   0  0  0  0  0  0  0  0  0  0  0  0
  192.1130  177.5720  140.8020 C   0  0  0  0  0  3  0  0  0  0  0  0
  190.0530  174.5610  136.3000 C   0  0  0  0  0  2  0  0  0  0  0  0
  188.2640  176.2770  136.3260 C   0  0  0  0  0  0  0  0  0  0  0  0
  187.4820  176.9900  135.4140 C   0  0  0  0  0  3  0  0  0  0  0  0
  194.6800  173.6920  134.9610 C   0  0  0  0  0  1  0  0  0  0  0  0
  194.4340  177.0380  136.4030 O   0  0  0  0  0  0  0  0  0  0  0  0
  194.1010  175.8720  136.0540 C   0  0  0  0  0  0  0  0  0  0  0  0
  194.9900  175.0830  135.2500 N   0  0  0  0  0  0  0  0  0  0  0  0
  192.8350  175.3330  136.4610 N   0  0  0  0  0  2  0  0  0  0  0  0
  196.2650  175.6160  134.7850 C   0  0  0  0  0  2  0  0  0  0  0  0
  197.4160  175.0190  135.5790 C   0  0  0  0  0  2  0  0  0  0  0  0
  197.6060  175.7470  136.7650 O   0  0  0  0  0  0  0  0  0  0  0  0
  197.8890  174.8460  137.8150 C   0  0  1  0  0  3  0  0  0  0  0  0
  198.4590  175.4900  138.9200 O   0  0  0  0  0  1  0  0  0  0  0  0
  196.6750  174.0210  138.2250 C   0  0  0  0  0  1  0  0  0  0  0  0
  1  6  1  0  0  0  0
  1  9  1  0  0  0  0
  2  3  1  6  0  0  0
  2  5  1  0  0  0  0
  3  7  1  0  0  0  0
  5 16  2  0  0  0  0
  5 14  1  0  0  0  0
  7  4  1  0  0  0  0
  8 25  1  1  0  0  0
  8 13  1  0  0  0  0
  8 12  1  0  0  0  0
 10 18  1  0  0  0  0
 10 19  1  0  0  0  0
 11  7  2  0  0  0  0
 12 16  1  0  0  0  0
 13 18  1  6  0  0  0
 13  2  1  0  0  0  0
 14  1  2  0  0  0  0
 15 11  1  0  0  0  0
 16 17  1  0  0  0  0
 17  6  2  0  0  0  0
 19  3  2  0  0  0  0
 20 15  2  0  0  0  0
 20 19  1  0  0  0  0
 21 24  1  0  0  0  0
 23 22  2  0  0  0  0
 23 25  1  0  0  0  0
 24 23  1  0  0  0  0
 26 24  1  0  0  0  0
 26 27  1  0  0  0  0
 27 28  1  0  0  0  0
 28 29  1  0  0  0  0
 29 31  1  1  0  0  0
 29 30  1  0  0  0  0
M  END
>  <MODEL>
1

>  <REMARK>
 VINA RESULT:      -6.9      0.000      0.000
  Name = 
  5 active torsions:
  status: ('A' for Active; 'I' for Inactive)
    1  A    between atoms: C_1  and  O_24
    2  A    between atoms: C_6  and  C_19
    3  A    between atoms: C_6  and  N_22
    4  A    between atoms: C_15  and  N_23
    5  A    between atoms: C_19  and  O_24
                            x       y       z     vdW  Elec       q    Type
                         _______ _______ _______ _____ _____    ______ ____

>  <TORSDO>
F 5

$$$$
=
 OpenBabel11052413053D

 31 34  0  0  1  0  0  0  0  0999 V2000
  193.6820  175.6740  135.9540 C   0  0  0  0  0  0  0  0  0  0  0  0
  190.4450  176.8840  137.5210 C   0  0  2  0  0  3  0  0  0  0  0  0
  189.3180  175.8780  137.3130 C   0  0  0  0  0  0  0  0  0  0  0  0
  190.7280  173.9090  136.9030 O   0  0  0  0  0  1  0  0  0  0  0  0
  191.8550  176.3820  137.3870 C   0  0  0  0  0  0  0  0  0  0  0  0
  194.4590  175.3880  137.0800 C   0  0  0  0  0  3  0  0  0  0  0  0
  189.4770  174.5030  137.0080 C   0  0  0  0  0  0  0  0  0  0  0  0
  190.7060  176.8310  140.0180 C   0  0  2  0  0  3  0  0  0  0  0  0
  194.2360  175.4470  134.5940 C   0  0  0  0  0  1  0  0  0  0  0  0
  187.8370  177.8210  137.8630 C   0  0  0  0  0  2  0  0  0  0  0  0
  188.3490  173.7000  136.8160 C   0  0  0  0  0  3  0  0  0  0  0  0
  192.1890  176.4550  139.9140 C   0  0  0  0  0  2  0  0  0  0  0  0
  190.2410  177.6830  138.8260 C   0  0  2  0  0  3  0  0  0  0  0  0
  192.3860  176.1740  136.1060 C   0  0  0  0  0  3  0  0  0  0  0  0
  187.0660  174.2330  136.9390 C   0  0  0  0  0  3  0  0  0  0  0  0
  192.6440  176.1040  138.5240 C   0  0  0  0  0  0  0  0  0  0  0  0
  193.9440  175.6120  138.3600 C   0  0  0  0  0  3  0  0  0  0  0  0
  188.7810  178.1590  139.0250 C   0  0  0  0  0  2  0  0  0  0  0  0
  188.0170  176.3910  137.4640 C   0  0  0  0  0  0  0  0  0  0  0  0
  186.8990  175.5770  137.2690 C   0  0  0  0  0  3  0  0  0  0  0  0
  190.1510  179.0040  143.7410 C   0  0  0  0  0  1  0  0  0  0  0  0
  190.0400  175.5590  142.5350 O   0  0  0  0  0  0  0  0  0  0  0  0
  190.1290  176.8180  142.5160 C   0  0  0  0  0  0  0  0  0  0  0  0
  189.9130  177.5700  143.7190 N   0  0  0  0  0  0  0  0  0  0  0  0
  190.4480  177.4990  141.2930 N   0  0  0  0  0  2  0  0  0  0  0  0
  189.5460  176.9130  144.9670 C   0  0  0  0  0  2  0  0  0  0  0  0
  188.5570  177.7630  145.7490 C   0  0  0  0  0  2  0  0  0  0  0  0
  187.2530  177.5350  145.2770 O   0  0  0  0  0  0  0  0  0  0  0  0
  186.3310  177.9060  146.2800 C   0  0  1  0  0  3  0  0  0  0  0  0
  186.9710  178.2900  147.4650 O   0  0  0  0  0  1  0  0  0  0  0  0
  185.3510  178.9750  145.8120 C   0  0  0  0  0  1  0  0  0  0  0  0
  1 14  2  0  0  0  0
  1  6  1  0  0  0  0
  2  3  1  1  0  0  0
  2 13  1  0  0  0  0
  3 19  1  0  0  0  0
  4  7  1  0  0  0  0
  5  2  1  0  0  0  0
  5 16  2  0  0  0  0
  6 17  2  0  0  0  0
  7  3  2  0  0  0  0
  8 25  1  1  0  0  0
  9  1  1  0  0  0  0
 10 18  1  0  0  0  0
 11 15  2  0  0  0  0
 11  7  1  0  0  0  0
 12  8  1  0  0  0  0
 13 18  1  1  0  0  0
 13  8  1  0  0  0  0
 14  5  1  0  0  0  0
 15 20  1  0  0  0  0
 16 12  1  0  0  0  0
 17 16  1  0  0  0  0
 19 10  1  0  0  0  0
 20 19  2  0  0  0  0
 23 22  2  0  0  0  0
 23 24  1  0  0  0  0
 24 21  1  0  0  0  0
 24 26  1  0  0  0  0
 25 23  1  0  0  0  0
 26 27  1  0  0  0  0
 28 27  1  0  0  0  0
 28 29  1  0  0  0  0
 29 31  1  6  0  0  0
 29 30  1  0  0  0  0
M  END
>  <MODEL>
2

>  <REMARK>
 VINA RESULT:      -6.6      3.444      7.932
  Name = 
  5 active torsions:
  status: ('A' for Active; 'I' for Inactive)
    1  A    between atoms: C_1  and  O_24
    2  A    between atoms: C_6  and  C_19
    3  A    between atoms: C_6  and  N_22
    4  A    between atoms: C_15  and  N_23
    5  A    between atoms: C_19  and  O_24
                            x       y       z     vdW  Elec       q    Type
                         _______ _______ _______ _____ _____    ______ ____

>  <TORSDO>
F 5

$$$$
=
 OpenBabel11052413053D

 31 34  0  0  1  0  0  0  0  0999 V2000
  180.4650  178.7190  143.3940 C   0  0  0  0  0  0  0  0  0  0  0  0
  180.8570  177.9850  139.6920 C   0  0  2  0  0  3  0  0  0  0  0  0
  180.3410  179.1400  138.8400 C   0  0  0  0  0  0  0  0  0  0  0  0
  180.4910  180.8890  140.5590 O   0  0  0  0  0  1  0  0  0  0  0  0
  181.2040  178.2820  141.1240 C   0  0  0  0  0  0  0  0  0  0  0  0
  181.7920  178.8950  143.7960 C   0  0  0  0  0  3  0  0  0  0  0  0
  180.1630  180.4780  139.2730 C   0  0  0  0  0  0  0  0  0  0  0  0
  183.3060  178.0090  139.1350 C   0  0  2  0  0  3  0  0  0  0  0  0
  179.3660  178.8610  144.3840 C   0  0  0  0  0  1  0  0  0  0  0  0
  180.3030  177.4290  137.0120 C   0  0  0  0  0  2  0  0  0  0  0  0
  179.6530  181.4330  138.3880 C   0  0  0  0  0  3  0  0  0  0  0  0
  183.6990  178.1700  140.6080 C   0  0  0  0  0  2  0  0  0  0  0  0
  181.9910  177.2280  138.9700 C   0  0  2  0  0  3  0  0  0  0  0  0
  180.1720  178.4090  142.0640 C   0  0  0  0  0  3  0  0  0  0  0  0
  179.3350  181.0880  137.0740 C   0  0  0  0  0  3  0  0  0  0  0  0
  182.5450  178.4490  141.5310 C   0  0  0  0  0  0  0  0  0  0  0  0
  182.8280  178.7510  142.8690 C   0  0  0  0  0  3  0  0  0  0  0  0
  181.6910  176.9650  137.4740 C   0  0  0  0  0  2  0  0  0  0  0  0
  180.0450  178.8180  137.5030 C   0  0  0  0  0  0  0  0  0  0  0  0
  179.5360  179.7820  136.6300 C   0  0  0  0  0  3  0  0  0  0  0  0
  186.5490  175.9430  137.1100 C   0  0  0  0  0  1  0  0  0  0  0  0
  185.5710  179.3630  137.9400 O   0  0  0  0  0  0  0  0  0  0  0  0
  185.5060  178.1080  137.8240 C   0  0  0  0  0  0  0  0  0  0  0  0
  186.5400  177.3970  137.1270 N   0  0  0  0  0  0  0  0  0  0  0  0
  184.4010  177.3890  138.3900 N   0  0  0  0  0  2  0  0  0  0  0  0
  187.6550  178.1010  136.5040 C   0  0  0  0  0  2  0  0  0  0  0  0
  188.8960  178.0170  137.3780 C   0  0  0  0  0  2  0  0  0  0  0  0
  188.8970  179.0700  138.3090 O   0  0  0  0  0  0  0  0  0  0  0  0
  188.9610  178.5300  139.6120 C   0  0  1  0  0  3  0  0  0  0  0  0
  187.7390  178.6420  140.2870 O   0  0  0  0  0  1  0  0  0  0  0  0
  189.4680  177.0920  139.6280 C   0  0  0  0  0  1  0  0  0  0  0  0
  1  6  1  0  0  0  0
  1  9  1  0  0  0  0
  2  3  1  6  0  0  0
  2  5  1  0  0  0  0
  3  7  1  0  0  0  0
  5 16  2  0  0  0  0
  5 14  1  0  0  0  0
  7  4  1  0  0  0  0
  8 25  1  6  0  0  0
  8 12  1  0  0  0  0
 10 18  1  0  0  0  0
 10 19  1  0  0  0  0
 11  7  2  0  0  0  0
 12 16  1  0  0  0  0
 13 18  1  6  0  0  0
 13  8  1  0  0  0  0
 13  2  1  0  0  0  0
 14  1  2  0  0  0  0
 15 11  1  0  0  0  0
 16 17  1  0  0  0  0
 17  6  2  0  0  0  0
 19  3  2  0  0  0  0
 20 15  2  0  0  0  0
 20 19  1  0  0  0  0
 21 24  1  0  0  0  0
 23 22  2  0  0  0  0
 23 25  1  0  0  0  0
 24 23  1  0  0  0  0
 26 24  1  0  0  0  0
 26 27  1  0  0  0  0
 27 28  1  0  0  0  0
 28 29  1  0  0  0  0
 29 31  1  6  0  0  0
 29 30  1  0  0  0  0
M  END
>  <MODEL>
3

>  <REMARK>
 VINA RESULT:      -6.6      6.550      9.162
  Name = 
  5 active torsions:
  status: ('A' for Active; 'I' for Inactive)
    1  A    between atoms: C_1  and  O_24
    2  A    between atoms: C_6  and  C_19
    3  A    between atoms: C_6  and  N_22
    4  A    between atoms: C_15  and  N_23
    5  A    between atoms: C_19  and  O_24
                            x       y       z     vdW  Elec       q    Type
                         _______ _______ _______ _____ _____    ______ ____

>  <TORSDO>
F 5

$$$$
=
 OpenBabel11052413053D

 31 34  0  0  1  0  0  0  0  0999 V2000
  186.1080  179.0540  146.9000 C   0  0  0  0  0  0  0  0  0  0  0  0
  189.3600  178.2140  145.1330 C   0  0  2  0  0  3  0  0  0  0  0  0
  190.1720  177.1940  145.9230 C   0  0  0  0  0  0  0  0  0  0  0  0
  188.3190  176.2710  147.2440 O   0  0  0  0  0  1  0  0  0  0  0  0
  187.8890  178.3070  145.4290 C   0  0  0  0  0  0  0  0  0  0  0  0
  185.1620  178.4580  146.0620 C   0  0  0  0  0  3  0  0  0  0  0  0
  189.6660  176.3140  146.9130 C   0  0  0  0  0  0  0  0  0  0  0  0
  188.8180  176.9180  143.0520 C   0  0  2  0  0  3  0  0  0  0  0  0
  185.6680  179.7640  148.1290 C   0  0  0  0  0  1  0  0  0  0  0  0
  192.0710  177.9980  144.5020 C   0  0  0  0  0  2  0  0  0  0  0  0
  190.5360  175.4450  147.5790 C   0  0  0  0  0  3  0  0  0  0  0  0
  187.3110  177.1160  143.2490 C   0  0  0  0  0  2  0  0  0  0  0  0
  189.6350  178.0900  143.6200 C   0  0  2  0  0  3  0  0  0  0  0  0
  187.4670  178.9830  146.5830 C   0  0  0  0  0  3  0  0  0  0  0  0
  191.8950  175.4200  147.2680 C   0  0  0  0  0  3  0  0  0  0  0  0
  186.9330  177.7150  144.5770 C   0  0  0  0  0  0  0  0  0  0  0  0
  185.5740  177.7990  144.9000 C   0  0  0  0  0  3  0  0  0  0  0  0
  191.1380  177.9270  143.2860 C   0  0  0  0  0  2  0  0  0  0  0  0
  191.5400  177.1320  145.6000 C   0  0  0  0  0  0  0  0  0  0  0  0
  192.3970  176.2590  146.2740 C   0  0  0  0  0  3  0  0  0  0  0  0
  189.9460  176.1330  138.9290 C   0  0  0  0  0  1  0  0  0  0  0  0
  188.0890  178.6340  140.8340 O   0  0  0  0  0  0  0  0  0  0  0  0
  188.7320  177.5790  140.5760 C   0  0  0  0  0  0  0  0  0  0  0  0
  189.0860  177.2680  139.2210 N   0  0  0  0  0  0  0  0  0  0  0  0
  189.1100  176.6900  141.6370 N   0  0  0  0  0  2  0  0  0  0  0  0
  188.6810  178.1290  138.1160 C   0  0  0  0  0  2  0  0  0  0  0  0
  187.2750  177.7800  137.6530 C   0  0  0  0  0  2  0  0  0  0  0  0
  186.4280  178.8880  137.8210 O   0  0  0  0  0  0  0  0  0  0  0  0
  185.3680  178.5280  138.6830 C   0  0  1  0  0  3  0  0  0  0  0  0
  184.8850  179.6250  139.4070 O   0  0  0  0  0  1  0  0  0  0  0  0
  184.2390  177.8090  137.9560 C   0  0  0  0  0  1  0  0  0  0  0  0
  1  9  1  0  0  0  0
  2  5  1  6  0  0  0
  2  3  1  0  0  0  0
  3  7  1  0  0  0  0
  5 14  2  0  0  0  0
  6  1  2  0  0  0  0
  7  4  1  0  0  0  0
  7 11  2  0  0  0  0
  8 25  1  6  0  0  0
  8 12  1  0  0  0  0
  8 13  1  0  0  0  0
 10 19  1  0  0  0  0
 12 16  1  0  0  0  0
 13 18  1  1  0  0  0
 13  2  1  0  0  0  0
 14  1  1  0  0  0  0
 15 11  1  0  0  0  0
 16 17  2  0  0  0  0
 16  5  1  0  0  0  0
 17  6  1  0  0  0  0
 18 10  1  0  0  0  0
 19  3  2  0  0  0  0
 19 20  1  0  0  0  0
 20 15  2  0  0  0  0
 21 24  1  0  0  0  0
 23 22  2  0  0  0  0
 23 25  1  0  0  0  0
 24 23  1  0  0  0  0
 26 24  1  0  0  0  0
 27 28  1  0  0  0  0
 27 26  1  0  0  0  0
 28 29  1  0  0  0  0
 29 31  1  6  0  0  0
 29 30  1  0  0  0  0
M  END
>  <MODEL>
4

>  <REMARK>
 VINA RESULT:      -6.4      4.996      9.135
  Name = 
  5 active torsions:
  status: ('A' for Active; 'I' for Inactive)
    1  A    between atoms: C_1  and  O_24
    2  A    between atoms: C_6  and  C_19
    3  A    between atoms: C_6  and  N_22
    4  A    between atoms: C_15  and  N_23
    5  A    between atoms: C_19  and  O_24
                            x       y       z     vdW  Elec       q    Type
                         _______ _______ _______ _____ _____    ______ ____

>  <TORSDO>
F 5

$$$$
=
 OpenBabel11052413053D

 31 34  0  0  1  0  0  0  0  0999 V2000
  181.1920  178.5610  143.1050 C   0  0  0  0  0  0  0  0  0  0  0  0
  182.2360  178.1380  139.4810 C   0  0  2  0  0  3  0  0  0  0  0  0
  181.6300  179.2240  138.5990 C   0  0  0  0  0  0  0  0  0  0  0  0
  181.1920  180.8620  140.3750 O   0  0  0  0  0  1  0  0  0  0  0  0
  182.3140  178.4080  140.9570 C   0  0  0  0  0  0  0  0  0  0  0  0
  182.3890  178.9600  143.7050 C   0  0  0  0  0  3  0  0  0  0  0  0
  181.1350  180.4760  139.0430 C   0  0  0  0  0  0  0  0  0  0  0  0
  184.6870  178.6560  139.2980 C   0  0  2  0  0  3  0  0  0  0  0  0
  179.9580  178.4330  143.9230 C   0  0  0  0  0  1  0  0  0  0  0  0
  182.1850  177.6490  136.7320 C   0  0  0  0  0  2  0  0  0  0  0  0
  180.5780  181.3680  138.1220 C   0  0  0  0  0  3  0  0  0  0  0  0
  184.8300  178.8000  140.8170 C   0  0  0  0  0  2  0  0  0  0  0  0
  183.5870  177.6530  138.9140 C   0  0  2  0  0  3  0  0  0  0  0  0
  181.1550  178.2810  141.7360 C   0  0  0  0  0  3  0  0  0  0  0  0
  180.5210  181.0490  136.7650 C   0  0  0  0  0  3  0  0  0  0  0  0
  183.5260  178.8000  141.5660 C   0  0  0  0  0  0  0  0  0  0  0  0
  183.5530  179.0690  142.9390 C   0  0  0  0  0  3  0  0  0  0  0  0
  183.5570  177.4270  137.3820 C   0  0  0  0  0  2  0  0  0  0  0  0
  181.5930  178.9320  137.2230 C   0  0  0  0  0  0  0  0  0  0  0  0
  181.0340  179.8330  136.3150 C   0  0  0  0  0  3  0  0  0  0  0  0
  188.3810  177.3790  137.3980 C   0  0  0  0  0  1  0  0  0  0  0  0
  187.2730  178.7360  140.6020 O   0  0  0  0  0  0  0  0  0  0  0  0
  187.2300  178.3500  139.4010 C   0  0  0  0  0  0  0  0  0  0  0  0
  188.4370  177.9590  138.7300 N   0  0  0  0  0  0  0  0  0  0  0  0
  185.9750  178.2990  138.7060 N   0  0  0  0  0  2  0  0  0  0  0  0
  189.7320  178.0380  139.3940 C   0  0  0  0  0  2  0  0  0  0  0  0
  189.9670  176.8090  140.2570 C   0  0  0  0  0  2  0  0  0  0  0  0
  190.5160  177.1900  141.4940 O   0  0  0  0  0  0  0  0  0  0  0  0
  190.2220  176.1960  142.4520 C   0  0  1  0  0  3  0  0  0  0  0  0
  191.1820  176.1490  143.4710 O   0  0  0  0  0  1  0  0  0  0  0  0
  188.8170  176.3300  143.0260 C   0  0  0  0  0  1  0  0  0  0  0  0
  1  6  1  0  0  0  0
  1  9  1  0  0  0  0
  2  3  1  6  0  0  0
  2  5  1  0  0  0  0
  3  7  1  0  0  0  0
  5 16  2  0  0  0  0
  5 14  1  0  0  0  0
  7  4  1  0  0  0  0
  8 25  1  1  0  0  0
  8 12  1  0  0  0  0
 10 19  1  0  0  0  0
 10 18  1  0  0  0  0
 11  7  2  0  0  0  0
 12 16  1  0  0  0  0
 13 18  1  6  0  0  0
 13  8  1  0  0  0  0
 13  2  1  0  0  0  0
 14  1  2  0  0  0  0
 15 11  1  0  0  0  0
 16 17  1  0  0  0  0
 17  6  2  0  0  0  0
 19  3  2  0  0  0  0
 20 15  2  0  0  0  0
 20 19  1  0  0  0  0
 21 24  1  0  0  0  0
 23 22  2  0  0  0  0
 24 26  1  0  0  0  0
 24 23  1  0  0  0  0
 25 23  1  0  0  0  0
 26 27  1  0  0  0  0
 27 28  1  0  0  0  0
 28 29  1  0  0  0  0
 29 31  1  1  0  0  0
 29 30  1  0  0  0  0
M  END
>  <MODEL>
5

>  <REMARK>
 VINA RESULT:      -6.4      5.769      8.200
  Name = 
  5 active torsions:
  status: ('A' for Active; 'I' for Inactive)
    1  A    between atoms: C_1  and  O_24
    2  A    between atoms: C_6  and  C_19
    3  A    between atoms: C_6  and  N_22
    4  A    between atoms: C_15  and  N_23
    5  A    between atoms: C_19  and  O_24
                            x       y       z     vdW  Elec       q    Type
                         _______ _______ _______ _____ _____    ______ ____

>  <TORSDO>
F 5

$$$$
=
 OpenBabel11052413053D

 31 34  0  0  1  0  0  0  0  0999 V2000
  188.8240  177.2490  135.5480 C   0  0  0  0  0  0  0  0  0  0  0  0
  185.1550  176.4110  136.0300 C   0  0  2  0  0  3  0  0  0  0  0  0
  184.9670  174.9510  136.4270 C   0  0  0  0  0  0  0  0  0  0  0  0
  187.2360  174.5660  137.2870 O   0  0  0  0  0  1  0  0  0  0  0  0
  186.5120  177.0200  136.2490 C   0  0  0  0  0  0  0  0  0  0  0  0
  189.0780  178.0780  136.6440 C   0  0  0  0  0  3  0  0  0  0  0  0
  185.9570  174.1100  136.9940 C   0  0  0  0  0  0  0  0  0  0  0  0
  184.3350  177.5980  138.0860 C   0  0  2  0  0  3  0  0  0  0  0  0
  189.9180  176.9260  134.5940 C   0  0  0  0  0  1  0  0  0  0  0  0
  182.6020  175.3300  135.6960 C   0  0  0  0  0  2  0  0  0  0  0  0
  185.6520  172.7770  137.2850 C   0  0  0  0  0  3  0  0  0  0  0  0
  185.6640  178.3440  138.2560 C   0  0  0  0  0  2  0  0  0  0  0  0
  184.0290  177.2930  136.6100 C   0  0  2  0  0  3  0  0  0  0  0  0
  187.5450  176.7250  135.3480 C   0  0  0  0  0  3  0  0  0  0  0  0
  184.3760  172.2690  137.0420 C   0  0  0  0  0  3  0  0  0  0  0  0
  186.7650  177.8660  137.3500 C   0  0  0  0  0  0  0  0  0  0  0  0
  188.0480  178.3930  137.5350 C   0  0  0  0  0  3  0  0  0  0  0  0
  182.6230  176.6620  136.4590 C   0  0  0  0  0  2  0  0  0  0  0  0
  183.6770  174.4310  136.2190 C   0  0  0  0  0  0  0  0  0  0  0  0
  183.3860  173.0970  136.5140 C   0  0  0  0  0  3  0  0  0  0  0  0
  181.2540  180.0840  139.8790 C   0  0  0  0  0  1  0  0  0  0  0  0
  183.0020  176.9540  140.5760 O   0  0  0  0  0  0  0  0  0  0  0  0
  182.6320  177.9920  139.9610 C   0  0  0  0  0  0  0  0  0  0  0  0
  181.5890  178.8150  140.5040 N   0  0  0  0  0  0  0  0  0  0  0  0
  183.2540  178.3520  138.7180 N   0  0  0  0  0  2  0  0  0  0  0  0
  180.9090  178.4550  141.7420 C   0  0  0  0  0  2  0  0  0  0  0  0
  181.2990  179.4050  142.8630 C   0  0  0  0  0  2  0  0  0  0  0  0
  181.8600  178.6810  143.9300 O   0  0  0  0  0  0  0  0  0  0  0  0
  183.1180  179.2360  144.2500 C   0  0  1  0  0  3  0  0  0  0  0  0
  183.4720  179.0000  145.5830 O   0  0  0  0  0  1  0  0  0  0  0  0
  184.2190  178.7830  143.2990 C   0  0  0  0  0  1  0  0  0  0  0  0
  1  6  1  0  0  0  0
  2  5  1  1  0  0  0
  2  3  1  0  0  0  0
  2 13  1  0  0  0  0
  3  7  1  0  0  0  0
  5 16  2  0  0  0  0
  6 17  2  0  0  0  0
  7 11  2  0  0  0  0
  7  4  1  0  0  0  0
  8 12  1  0  0  0  0
  8 25  1  6  0  0  0
  9  1  1  0  0  0  0
 10 19  1  0  0  0  0
 10 18  1  0  0  0  0
 13 18  1  1  0  0  0
 13  8  1  0  0  0  0
 14  1  2  0  0  0  0
 14  5  1  0  0  0  0
 15 11  1  0  0  0  0
 16 17  1  0  0  0  0
 16 12  1  0  0  0  0
 19  3  2  0  0  0  0
 19 20  1  0  0  0  0
 20 15  2  0  0  0  0
 21 24  1  0  0  0  0
 23 24  1  0  0  0  0
 23 22  2  0  0  0  0
 24 26  1  0  0  0  0
 25 23  1  0  0  0  0
 26 27  1  0  0  0  0
 27 28  1  0  0  0  0
 28 29  1  0  0  0  0
 29 31  1  6  0  0  0
 29 30  1  0  0  0  0
M  END
>  <MODEL>
6

>  <REMARK>
 VINA RESULT:      -6.4      5.982     10.360
  Name = 
  5 active torsions:
  status: ('A' for Active; 'I' for Inactive)
    1  A    between atoms: C_1  and  O_24
    2  A    between atoms: C_6  and  C_19
    3  A    between atoms: C_6  and  N_22
    4  A    between atoms: C_15  and  N_23
    5  A    between atoms: C_19  and  O_24
                            x       y       z     vdW  Elec       q    Type
                         _______ _______ _______ _____ _____    ______ ____

>  <TORSDO>
F 5

$$$$
=
 OpenBabel11052413053D

 31 34  0  0  1  0  0  0  0  0999 V2000
  193.0120  175.9610  135.9010 C   0  0  0  0  0  0  0  0  0  0  0  0
  189.3740  176.2430  136.9450 C   0  0  2  0  0  3  0  0  0  0  0  0
  188.6680  174.8950  136.8630 C   0  0  0  0  0  0  0  0  0  0  0  0
  190.6750  173.4830  136.9700 O   0  0  0  0  0  1  0  0  0  0  0  0
  190.8750  176.2350  137.0210 C   0  0  0  0  0  0  0  0  0  0  0  0
  193.6760  176.1490  137.1160 C   0  0  0  0  0  3  0  0  0  0  0  0
  189.2980  173.6250  136.8590 C   0  0  0  0  0  0  0  0  0  0  0  0
  189.2920  176.7020  139.4120 C   0  0  2  0  0  3  0  0  0  0  0  0
  193.7920  175.7110  134.6610 C   0  0  0  0  0  1  0  0  0  0  0  0
  186.5830  176.2820  136.8950 C   0  0  0  0  0  2  0  0  0  0  0  0
  188.5230  172.4660  136.7510 C   0  0  0  0  0  3  0  0  0  0  0  0
  190.8170  176.8410  139.4970 C   0  0  0  0  0  2  0  0  0  0  0  0
  188.7480  177.1320  138.0400 C   0  0  2  0  0  3  0  0  0  0  0  0
  191.6160  176.0080  135.8520 C   0  0  0  0  0  3  0  0  0  0  0  0
  187.1330  172.5440  136.6670 C   0  0  0  0  0  3  0  0  0  0  0  0
  191.5470  176.4370  138.2460 C   0  0  0  0  0  0  0  0  0  0  0  0
  192.9450  176.3960  138.2820 C   0  0  0  0  0  3  0  0  0  0  0  0
  187.2000  177.1100  138.0300 C   0  0  0  0  0  2  0  0  0  0  0  0
  187.2630  174.9520  136.8100 C   0  0  0  0  0  0  0  0  0  0  0  0
  186.5020  173.7860  136.7030 C   0  0  0  0  0  3  0  0  0  0  0  0
  187.4930  179.1590  142.5130 C   0  0  0  0  0  1  0  0  0  0  0  0
  189.3360  176.0200  142.2280 O   0  0  0  0  0  0  0  0  0  0  0  0
  188.7210  177.0670  141.8850 C   0  0  0  0  0  0  0  0  0  0  0  0
  188.0810  177.8810  142.8780 N   0  0  0  0  0  0  0  0  0  0  0  0
  188.6610  177.4460  140.5020 N   0  0  0  0  0  2  0  0  0  0  0  0
  188.0870  177.5020  144.2860 C   0  0  0  0  0  2  0  0  0  0  0  0
  189.3140  178.0640  144.9870 C   0  0  0  0  0  2  0  0  0  0  0  0
  190.1040  177.0130  145.4830 O   0  0  0  0  0  0  0  0  0  0  0  0
  191.4160  177.1500  144.9810 C   0  0  1  0  0  3  0  0  0  0  0  0
  191.8540  175.9880  144.3340 O   0  0  0  0  0  1  0  0  0  0  0  0
  191.5790  178.3730  144.0860 C   0  0  0  0  0  1  0  0  0  0  0  0
  1  6  1  0  0  0  0
  2  3  1  1  0  0  0
  2  5  1  0  0  0  0
  2 13  1  0  0  0  0
  5 16  2  0  0  0  0
  6 17  2  0  0  0  0
  7  3  1  0  0  0  0
  7  4  1  0  0  0  0
  8 12  1  0  0  0  0
  8 25  1  1  0  0  0
  9  1  1  0  0  0  0
 10 18  1  0  0  0  0
 11  7  2  0  0  0  0
 13 18  1  1  0  0  0
 13  8  1  0  0  0  0
 14  1  2  0  0  0  0
 14  5  1  0  0  0  0
 15 20  2  0  0  0  0
 15 11  1  0  0  0  0
 16 17  1  0  0  0  0
 16 12  1  0  0  0  0
 19  3  2  0  0  0  0
 19 10  1  0  0  0  0
 20 19  1  0  0  0  0
 21 24  1  0  0  0  0
 23 22  2  0  0  0  0
 23 24  1  0  0  0  0
 24 26  1  0  0  0  0
 25 23  1  0  0  0  0
 26 27  1  0  0  0  0
 27 28  1  0  0  0  0
 29 31  1  6  0  0  0
 29 28  1  0  0  0  0
 30 29  1  0  0  0  0
M  END
>  <MODEL>
7

>  <REMARK>
 VINA RESULT:      -6.4      3.522      7.081
  Name = 
  5 active torsions:
  status: ('A' for Active; 'I' for Inactive)
    1  A    between atoms: C_1  and  O_24
    2  A    between atoms: C_6  and  C_19
    3  A    between atoms: C_6  and  N_22
    4  A    between atoms: C_15  and  N_23
    5  A    between atoms: C_19  and  O_24
                            x       y       z     vdW  Elec       q    Type
                         _______ _______ _______ _____ _____    ______ ____

>  <TORSDO>
F 5

$$$$
=
 OpenBabel11052413053D

 31 34  0  0  1  0  0  0  0  0999 V2000
  188.8840  177.9500  136.5630 C   0  0  0  0  0  0  0  0  0  0  0  0
  185.4440  178.3490  138.1150 C   0  0  2  0  0  3  0  0  0  0  0  0
  184.5790  177.1180  137.8680 C   0  0  0  0  0  0  0  0  0  0  0  0
  186.4040  175.5330  137.4310 O   0  0  0  0  0  1  0  0  0  0  0  0
  186.9330  178.1850  137.9880 C   0  0  0  0  0  0  0  0  0  0  0  0
  189.6970  177.8200  137.6910 C   0  0  0  0  0  3  0  0  0  0  0  0
  185.0500  175.8230  137.5340 C   0  0  0  0  0  0  0  0  0  0  0  0
  185.6920  178.2920  140.6140 C   0  0  2  0  0  3  0  0  0  0  0  0
  189.4860  177.8910  135.2050 C   0  0  0  0  0  1  0  0  0  0  0  0
  182.6890  178.6570  138.4450 C   0  0  0  0  0  2  0  0  0  0  0  0
  184.1370  174.7890  137.3080 C   0  0  0  0  0  3  0  0  0  0  0  0
  187.2230  178.2670  140.5200 C   0  0  0  0  0  2  0  0  0  0  0  0
  185.0540  179.0450  139.4350 C   0  0  2  0  0  3  0  0  0  0  0  0
  187.5070  178.1370  136.7100 C   0  0  0  0  0  3  0  0  0  0  0  0
  182.7650  175.0120  137.4260 C   0  0  0  0  0  3  0  0  0  0  0  0
  187.7560  178.0650  139.1290 C   0  0  0  0  0  0  0  0  0  0  0  0
  189.1350  177.8870  138.9690 C   0  0  0  0  0  3  0  0  0  0  0  0
  183.5220  179.1700  139.6270 C   0  0  0  0  0  2  0  0  0  0  0  0
  183.1940  177.3160  138.0150 C   0  0  0  0  0  0  0  0  0  0  0  0
  182.2930  176.2730  137.7850 C   0  0  0  0  0  3  0  0  0  0  0  0
  184.5310  180.2140  144.3340 C   0  0  0  0  0  1  0  0  0  0  0  0
  186.1360  177.1260  143.2290 O   0  0  0  0  0  0  0  0  0  0  0  0
  185.5320  178.2330  143.1710 C   0  0  0  0  0  0  0  0  0  0  0  0
  185.0990  178.8760  144.3790 N   0  0  0  0  0  0  0  0  0  0  0  0
  185.2790  178.8500  141.9010 N   0  0  0  0  0  2  0  0  0  0  0  0
  185.3030  178.2560  145.6820 C   0  0  0  0  0  2  0  0  0  0  0  0
  186.6710  178.6190  146.2390 C   0  0  0  0  0  2  0  0  0  0  0  0
  187.4030  177.4490  146.5060 O   0  0  0  0  0  0  0  0  0  0  0  0
  188.7790  177.7230  146.3460 C   0  0  1  0  0  3  0  0  0  0  0  0
  189.5750  176.8990  147.1510 O   0  0  0  0  0  1  0  0  0  0  0  0
  189.2240  177.6670  144.8900 C   0  0  0  0  0  1  0  0  0  0  0  0
  1 14  2  0  0  0  0
  1  6  1  0  0  0  0
  2  3  1  1  0  0  0
  2 13  1  0  0  0  0
  3 19  1  0  0  0  0
  4  7  1  0  0  0  0
  5  2  1  0  0  0  0
  5 16  2  0  0  0  0
  6 17  2  0  0  0  0
  7  3  2  0  0  0  0
  8 25  1  1  0  0  0
  9  1  1  0  0  0  0
 10 18  1  0  0  0  0
 11 15  2  0  0  0  0
 11  7  1  0  0  0  0
 12  8  1  0  0  0  0
 13 18  1  1  0  0  0
 13  8  1  0  0  0  0
 14  5  1  0  0  0  0
 15 20  1  0  0  0  0
 16 12  1  0  0  0  0
 17 16  1  0  0  0  0
 19 10  1  0  0  0  0
 20 19  2  0  0  0  0
 21 24  1  0  0  0  0
 23 22  2  0  0  0  0
 23 24  1  0  0  0  0
 24 26  1  0  0  0  0
 25 23  1  0  0  0  0
 26 27  1  0  0  0  0
 27 28  1  0  0  0  0
 29 31  1  6  0  0  0
 29 28  1  0  0  0  0
 29 30  1  0  0  0  0
M  END
>  <MODEL>
8

>  <REMARK>
 VINA RESULT:      -6.1      5.858      9.057
  Name = 
  5 active torsions:
  status: ('A' for Active; 'I' for Inactive)
    1  A    between atoms: C_1  and  O_24
    2  A    between atoms: C_6  and  C_19
    3  A    between atoms: C_6  and  N_22
    4  A    between atoms: C_15  and  N_23
    5  A    between atoms: C_19  and  O_24
                            x       y       z     vdW  Elec       q    Type
                         _______ _______ _______ _____ _____    ______ ____

>  <TORSDO>
F 5

$$$$
=
 OpenBabel11052413053D

 31 34  0  0  1  0  0  0  0  0999 V2000
  192.0590  177.3080  140.0070 C   0  0  0  0  0  0  0  0  0  0  0  0
  189.3260  177.6480  137.3970 C   0  0  2  0  0  3  0  0  0  0  0  0
  189.1190  176.3430  136.6370 C   0  0  0  0  0  0  0  0  0  0  0  0
  190.1080  174.8440  138.3130 O   0  0  0  0  0  1  0  0  0  0  0  0
  190.0090  177.5710  138.7330 C   0  0  0  0  0  0  0  0  0  0  0  0
  191.3300  177.3590  141.1970 C   0  0  0  0  0  3  0  0  0  0  0  0
  189.5090  175.0530  137.0770 C   0  0  0  0  0  0  0  0  0  0  0  0
  187.1250  177.8890  138.5820 C   0  0  2  0  0  3  0  0  0  0  0  0
  193.5350  177.1360  140.0480 C   0  0  0  0  0  1  0  0  0  0  0  0
  187.9730  177.8070  134.9590 C   0  0  0  0  0  2  0  0  0  0  0  0
  189.2800  173.9420  136.2610 C   0  0  0  0  0  3  0  0  0  0  0  0
  187.8050  177.9560  139.9550 C   0  0  0  0  0  2  0  0  0  0  0  0
  188.0160  178.4610  137.4680 C   0  0  2  0  0  3  0  0  0  0  0  0
  191.4020  177.4170  138.7780 C   0  0  0  0  0  3  0  0  0  0  0  0
  188.6540  174.0840  135.0220 C   0  0  0  0  0  3  0  0  0  0  0  0
  189.2740  177.6350  139.9360 C   0  0  0  0  0  0  0  0  0  0  0  0
  189.9430  177.5320  141.1610 C   0  0  0  0  0  3  0  0  0  0  0  0
  187.2530  178.5050  136.1210 C   0  0  0  0  0  2  0  0  0  0  0  0
  188.4610  176.4630  135.3990 C   0  0  0  0  0  0  0  0  0  0  0  0
  188.2390  175.3440  134.5940 C   0  0  0  0  0  3  0  0  0  0  0  0
  183.3580  180.0190  138.9780 C   0  0  0  0  0  1  0  0  0  0  0  0
  184.5490  176.7250  137.9470 O   0  0  0  0  0  0  0  0  0  0  0  0
  184.5750  177.9310  138.3160 C   0  0  0  0  0  0  0  0  0  0  0  0
  183.3540  178.6770  138.4200 N   0  0  0  0  0  0  0  0  0  0  0  0
  185.8260  178.5590  138.6350 N   0  0  0  0  0  2  0  0  0  0  0  0
  182.0710  178.0820  138.0630 C   0  0  0  0  0  2  0  0  0  0  0  0
  180.9700  178.5970  138.9770 C   0  0  0  0  0  2  0  0  0  0  0  0
  180.6090  177.6000  139.9000 O   0  0  0  0  0  0  0  0  0  0  0  0
  180.2020  178.2150  141.1030 C   0  0  1  0  0  3  0  0  0  0  0  0
  179.2970  177.4210  141.8180 O   0  0  0  0  0  1  0  0  0  0  0  0
  181.3780  178.6330  141.9770 C   0  0  0  0  0  1  0  0  0  0  0  0
  1  9  1  0  0  0  0
  1  6  1  0  0  0  0
  2  3  1  1  0  0  0
  2 13  1  0  0  0  0
  2  5  1  0  0  0  0
  3  7  1  0  0  0  0
  5 14  1  0  0  0  0
  5 16  2  0  0  0  0
  7  4  1  0  0  0  0
  8 25  1  1  0  0  0
  8 12  1  0  0  0  0
 10 19  1  0  0  0  0
 10 18  1  0  0  0  0
 11  7  2  0  0  0  0
 13 18  1  6  0  0  0
 13  8  1  0  0  0  0
 14  1  2  0  0  0  0
 15 11  1  0  0  0  0
 16 12  1  0  0  0  0
 16 17  1  0  0  0  0
 17  6  2  0  0  0  0
 19  3  2  0  0  0  0
 20 15  2  0  0  0  0
 20 19  1  0  0  0  0
 22 23  2  0  0  0  0
 23 24  1  0  0  0  0
 23 25  1  0  0  0  0
 24 21  1  0  0  0  0
 26 24  1  0  0  0  0
 26 27  1  0  0  0  0
 27 28  1  0  0  0  0
 28 29  1  0  0  0  0
 29 30  1  0  0  0  0
 29 31  1  1  0  0  0
M  END
>  <MODEL>
9

>  <REMARK>
 VINA RESULT:      -5.8      4.708      9.261
  Name = 
  5 active torsions:
  status: ('A' for Active; 'I' for Inactive)
    1  A    between atoms: C_1  and  O_24
    2  A    between atoms: C_6  and  C_19
    3  A    between atoms: C_6  and  N_22
    4  A    between atoms: C_15  and  N_23
    5  A    between atoms: C_19  and  O_24
                            x       y       z     vdW  Elec       q    Type
                         _______ _______ _______ _____ _____    ______ ____

>  <TORSDO>
F 5

$$$$
