=
 OpenBabel11052414033D

 34 37  0  0  1  0  0  0  0  0999 V2000
  179.8360  179.3850  142.1730 C   0  0  2  0  0  3  0  0  0  0  0  0
  180.0490  177.2580  140.7920 C   0  0  0  0  0  0  0  0  0  0  0  0
  180.4450  177.4380  136.2620 C   0  0  0  0  0  2  0  0  0  0  0  0
  181.9890  178.8850  140.8790 C   0  0  1  0  0  3  0  0  0  0  0  0
  182.1520  180.1550  138.3730 C   0  0  0  0  0  1  0  0  0  0  0  0
  180.0660  179.3230  144.5450 O   0  0  0  0  0  0  0  0  0  0  0  0
  178.9310  176.8720  141.2290 O   0  0  0  0  0  0  0  0  0  0  0  0
  182.2850  176.6530  139.7820 C   0  0  0  0  0  2  0  0  0  0  0  0
  180.5810  175.9520  135.9670 C   0  0  0  0  0  2  0  0  0  0  0  0
  180.9830  175.1900  137.2160 C   0  0  0  0  0  2  0  0  0  0  0  0
  180.4640  178.6960  140.9570 C   0  0  2  0  0  3  0  0  0  0  0  0
  181.7330  178.1940  135.9510 C   0  0  0  0  0  2  0  0  0  0  0  0
  182.0180  178.7010  138.3690 N   0  0  0  0  0  0  0  0  0  0  0  0
  179.7190  180.7520  141.9230 O   0  0  0  0  0  1  0  0  0  0  0  0
  180.3640  175.0600  139.6190 C   0  0  0  0  0  2  0  0  0  0  0  0
  182.6930  178.4220  142.1680 C   0  0  2  0  0  3  0  0  0  0  0  0
  180.6260  179.1740  143.4280 C   0  0  0  0  0  0  0  0  0  0  0  0
  180.8730  176.3620  140.0290 N   0  0  0  0  0  0  0  0  0  0  0  0
  182.7150  178.2680  137.1330 C   0  0  1  0  0  3  0  0  0  0  0  0
  182.5600  178.1620  139.6390 C   0  0  1  0  0  3  0  0  0  0  0  0
  182.0280  178.9060  143.3730 N   0  0  0  0  0  2  0  0  0  0  0  0
  179.8270  175.1360  138.2010 C   0  0  0  0  0  2  0  0  0  0  0  0
  183.6940  177.0730  137.2390 C   0  0  0  0  0  3  0  0  0  0  0  0
  185.0300  177.5460  137.7820 C   0  0  0  0  0  1  0  0  0  0  0  0
  183.9570  176.4160  135.8930 C   0  0  0  0  0  1  0  0  0  0  0  0
  184.5980  179.4590  141.2110 O   0  0  0  0  0  0  0  0  0  0  0  0
  184.1450  178.8040  142.1870 C   0  0  0  0  0  0  0  0  0  0  0  0
  185.5940  178.4740  145.6780 C   0  0  0  0  0  0  0  0  0  0  0  0
  186.7670  177.7590  145.4190 C   0  0  0  0  0  3  0  0  0  0  0  0
  185.0440  178.4440  143.3090 C   0  0  0  0  0  0  0  0  0  0  0  0
  187.0810  177.3860  144.1090 C   0  0  0  0  0  3  0  0  0  0  0  0
  184.7380  178.8150  144.6280 C   0  0  0  0  0  3  0  0  0  0  0  0
  186.2230  177.7270  143.0600 C   0  0  0  0  0  3  0  0  0  0  0  0
  185.2730  178.8560  147.0100 N   0  0  0  0  0  1  0  0  0  0  0  0
  1 14  1  6  0  0  0
  1 17  1  0  0  0  0
  2 11  1  0  0  0  0
  2  7  2  0  0  0  0
  4 11  1  0  0  0  0
  4 16  1  0  0  0  0
  8 18  1  0  0  0  0
  9  3  1  0  0  0  0
  9 10  1  0  0  0  0
 10 22  1  0  0  0  0
 11  1  1  0  0  0  0
 12  3  1  0  0  0  0
 12 19  1  0  0  0  0
 13  5  1  0  0  0  0
 13 20  1  0  0  0  0
 15 18  1  0  0  0  0
 16 27  1  0  0  0  0
 16 21  1  0  0  0  0
 17  6  2  0  0  0  0
 18  2  1  0  0  0  0
 19 23  1  0  0  0  0
 19 13  1  0  0  0  0
 20  8  1  0  0  0  0
 20  4  1  0  0  0  0
 21 17  1  0  0  0  0
 22 15  1  0  0  0  0
 23 24  1  0  0  0  0
 25 23  1  0  0  0  0
 26 27  2  0  0  0  0
 27 30  1  0  0  0  0
 28 34  1  0  0  0  0
 29 28  1  0  0  0  0
 30 32  1  0  0  0  0
 31 29  2  0  0  0  0
 32 28  2  0  0  0  0
 33 30  2  0  0  0  0
 33 31  1  0  0  0  0
M  END
>  <MODEL>
1

>  <REMARK>
 VINA RESULT:      -8.3      0.000      0.000
  Name = 
  3 active torsions:
  status: ('A' for Active; 'I' for Inactive)
    1  A    between atoms: C_12  and  C_28
    2  A    between atoms: C_13  and  C_29
    3  A    between atoms: C_21  and  C_28
                            x       y       z     vdW  Elec       q    Type
                         _______ _______ _______ _____ _____    ______ ____

>  <TORSDO>
F 3

$$$$
=
 OpenBabel11052414033D

 34 37  0  0  1  0  0  0  0  0999 V2000
  179.8010  179.3490  142.1670 C   0  0  2  0  0  3  0  0  0  0  0  0
  180.0530  177.2360  140.7720 C   0  0  0  0  0  0  0  0  0  0  0  0
  180.5280  177.4560  136.2520 C   0  0  0  0  0  2  0  0  0  0  0  0
  181.9800  178.8750  140.9080 C   0  0  1  0  0  3  0  0  0  0  0  0
  182.1790  180.1680  138.4150 C   0  0  0  0  0  1  0  0  0  0  0  0
  179.9900  179.2690  144.5420 O   0  0  0  0  0  0  0  0  0  0  0  0
  178.9310  176.8380  141.1870 O   0  0  0  0  0  0  0  0  0  0  0  0
  182.3110  176.6550  139.7970 C   0  0  0  0  0  2  0  0  0  0  0  0
  180.6800  175.9740  135.9470 C   0  0  0  0  0  2  0  0  0  0  0  0
  181.0650  175.2050  137.1970 C   0  0  0  0  0  2  0  0  0  0  0  0
  180.4550  178.6750  140.9570 C   0  0  2  0  0  3  0  0  0  0  0  0
  181.8160  178.2240  135.9700 C   0  0  0  0  0  2  0  0  0  0  0  0
  182.0550  178.7130  138.3960 N   0  0  0  0  0  0  0  0  0  0  0  0
  179.6790  180.7180  141.9260 O   0  0  0  0  0  1  0  0  0  0  0  0
  180.4050  175.0500  139.5870 C   0  0  0  0  0  2  0  0  0  0  0  0
  182.6650  178.4060  142.2040 C   0  0  2  0  0  3  0  0  0  0  0  0
  180.5700  179.1330  143.4340 C   0  0  0  0  0  0  0  0  0  0  0  0
  180.8970  176.3520  140.0170 N   0  0  0  0  0  0  0  0  0  0  0  0
  182.7770  178.2950  137.1700 C   0  0  1  0  0  3  0  0  0  0  0  0
  182.5780  178.1670  139.6710 C   0  0  1  0  0  3  0  0  0  0  0  0
  181.9750  178.8750  143.4020 N   0  0  0  0  0  2  0  0  0  0  0  0
  179.8920  175.1340  138.1600 C   0  0  0  0  0  2  0  0  0  0  0  0
  183.7620  177.1060  137.2830 C   0  0  0  0  0  3  0  0  0  0  0  0
  185.0860  177.5840  137.8500 C   0  0  0  0  0  1  0  0  0  0  0  0
  184.0500  176.4600  135.9360 C   0  0  0  0  0  1  0  0  0  0  0  0
  184.5940  179.4130  141.2640 O   0  0  0  0  0  0  0  0  0  0  0  0
  184.1130  178.7980  142.2530 C   0  0  0  0  0  0  0  0  0  0  0  0
  186.9870  177.5010  144.3630 C   0  0  0  0  0  0  0  0  0  0  0  0
  186.5970  177.9180  145.6390 C   0  0  0  0  0  3  0  0  0  0  0  0
  184.9780  178.4930  143.4170 C   0  0  0  0  0  0  0  0  0  0  0  0
  185.4020  178.6210  145.8070 C   0  0  0  0  0  3  0  0  0  0  0  0
  186.1810  177.7870  143.2580 C   0  0  0  0  0  3  0  0  0  0  0  0
  184.5960  178.9070  144.7010 C   0  0  0  0  0  3  0  0  0  0  0  0
  188.2030  176.7840  144.1890 N   0  0  0  0  0  1  0  0  0  0  0  0
  1 14  1  6  0  0  0
  1 17  1  0  0  0  0
  2 11  1  0  0  0  0
  2  7  2  0  0  0  0
  4 11  1  0  0  0  0
  4 16  1  0  0  0  0
  8 18  1  0  0  0  0
  9  3  1  0  0  0  0
  9 10  1  0  0  0  0
 10 22  1  0  0  0  0
 11  1  1  0  0  0  0
 12  3  1  0  0  0  0
 12 19  1  0  0  0  0
 13  5  1  0  0  0  0
 13 20  1  0  0  0  0
 15 18  1  0  0  0  0
 16 27  1  0  0  0  0
 16 21  1  0  0  0  0
 17  6  2  0  0  0  0
 18  2  1  0  0  0  0
 19 23  1  0  0  0  0
 19 13  1  0  0  0  0
 20  8  1  0  0  0  0
 20  4  1  0  0  0  0
 21 17  1  0  0  0  0
 22 15  1  0  0  0  0
 23 24  1  0  0  0  0
 25 23  1  0  0  0  0
 26 27  2  0  0  0  0
 27 30  1  0  0  0  0
 28 29  1  0  0  0  0
 29 31  2  0  0  0  0
 30 33  2  0  0  0  0
 32 30  1  0  0  0  0
 32 28  2  0  0  0  0
 33 31  1  0  0  0  0
 34 28  1  0  0  0  0
M  END
>  <MODEL>
2

>  <REMARK>
 VINA RESULT:      -8.1      0.792      1.146
  Name = 
  3 active torsions:
  status: ('A' for Active; 'I' for Inactive)
    1  A    between atoms: C_12  and  C_28
    2  A    between atoms: C_13  and  C_29
    3  A    between atoms: C_21  and  C_28
                            x       y       z     vdW  Elec       q    Type
                         _______ _______ _______ _____ _____    ______ ____

>  <TORSDO>
F 3

$$$$
=
 OpenBabel11052414033D

 34 37  0  0  1  0  0  0  0  0999 V2000
  182.6930  177.1000  136.2920 C   0  0  2  0  0  3  0  0  0  0  0  0
  184.6090  175.4720  136.6830 C   0  0  0  0  0  0  0  0  0  0  0  0
  188.6150  176.0260  134.5960 C   0  0  0  0  0  2  0  0  0  0  0  0
  184.8410  177.8760  137.4480 C   0  0  1  0  0  3  0  0  0  0  0  0
  186.6820  179.1430  135.7380 C   0  0  0  0  0  1  0  0  0  0  0  0
  180.7650  177.0690  137.6940 O   0  0  0  0  0  0  0  0  0  0  0  0
  183.8900  174.5320  136.2470 O   0  0  0  0  0  0  0  0  0  0  0  0
  186.5790  176.1920  138.0920 C   0  0  0  0  0  2  0  0  0  0  0  0
  189.3730  174.8540  135.2000 C   0  0  0  0  0  2  0  0  0  0  0  0
  188.6930  174.3710  136.4680 C   0  0  0  0  0  2  0  0  0  0  0  0
  184.2040  176.9020  136.4420 C   0  0  2  0  0  3  0  0  0  0  0  0
  189.1840  177.3640  135.0590 C   0  0  0  0  0  2  0  0  0  0  0  0
  187.0690  177.8420  136.2750 N   0  0  0  0  0  0  0  0  0  0  0  0
  182.4480  178.2050  135.4760 O   0  0  0  0  0  1  0  0  0  0  0  0
  186.4100  173.8300  137.2870 C   0  0  0  0  0  2  0  0  0  0  0  0
  184.1620  177.8040  138.8280 C   0  0  2  0  0  3  0  0  0  0  0  0
  182.0010  177.2880  137.6060 C   0  0  0  0  0  0  0  0  0  0  0  0
  185.8740  175.1850  137.3000 N   0  0  0  0  0  0  0  0  0  0  0  0
  188.5490  177.8990  136.3550 C   0  0  1  0  0  3  0  0  0  0  0  0
  186.3610  177.6200  137.5590 C   0  0  1  0  0  3  0  0  0  0  0  0
  182.7060  177.8080  138.7350 N   0  0  0  0  0  2  0  0  0  0  0  0
  187.3860  173.6680  136.1360 C   0  0  0  0  0  2  0  0  0  0  0  0
  189.2210  177.4040  137.6590 C   0  0  0  0  0  3  0  0  0  0  0  0
  189.2090  178.5100  138.6980 C   0  0  0  0  0  1  0  0  0  0  0  0
  190.6690  176.9920  137.4470 C   0  0  0  0  0  1  0  0  0  0  0  0
  184.6340  180.0780  139.3030 O   0  0  0  0  0  0  0  0  0  0  0  0
  184.6270  178.8980  139.7450 C   0  0  0  0  0  0  0  0  0  0  0  0
  184.5950  178.5140  143.5190 C   0  0  0  0  0  0  0  0  0  0  0  0
  185.9170  178.1360  143.7660 C   0  0  0  0  0  3  0  0  0  0  0  0
  185.0640  178.6340  141.1360 C   0  0  0  0  0  0  0  0  0  0  0  0
  186.8150  178.0050  142.7020 C   0  0  0  0  0  3  0  0  0  0  0  0
  184.1710  178.7620  142.2120 C   0  0  0  0  0  3  0  0  0  0  0  0
  186.3890  178.2530  141.3940 C   0  0  0  0  0  3  0  0  0  0  0  0
  183.6800  178.6490  144.6000 N   0  0  0  0  0  1  0  0  0  0  0  0
  1 14  1  6  0  0  0
  1 11  1  0  0  0  0
  1 17  1  0  0  0  0
  2 18  1  0  0  0  0
  3 12  1  0  0  0  0
  3  9  1  0  0  0  0
  4 20  1  0  0  0  0
  4 16  1  0  0  0  0
  5 13  1  0  0  0  0
  7  2  2  0  0  0  0
  9 10  1  0  0  0  0
 11  2  1  0  0  0  0
 11  4  1  0  0  0  0
 12 19  1  0  0  0  0
 13 19  1  0  0  0  0
 13 20  1  0  0  0  0
 15 18  1  0  0  0  0
 16 27  1  0  0  0  0
 17  6  2  0  0  0  0
 17 21  1  0  0  0  0
 18  8  1  0  0  0  0
 19 23  1  0  0  0  0
 20  8  1  0  0  0  0
 21 16  1  0  0  0  0
 22 10  1  0  0  0  0
 22 15  1  0  0  0  0
 23 24  1  0  0  0  0
 25 23  1  0  0  0  0
 26 27  2  0  0  0  0
 27 30  1  0  0  0  0
 28 29  1  0  0  0  0
 28 34  1  0  0  0  0
 30 33  2  0  0  0  0
 30 32  1  0  0  0  0
 31 29  2  0  0  0  0
 32 28  2  0  0  0  0
 33 31  1  0  0  0  0
M  END
>  <MODEL>
3

>  <REMARK>
 VINA RESULT:      -6.7      3.564      5.616
  Name = 
  3 active torsions:
  status: ('A' for Active; 'I' for Inactive)
    1  A    between atoms: C_12  and  C_28
    2  A    between atoms: C_13  and  C_29
    3  A    between atoms: C_21  and  C_28
                            x       y       z     vdW  Elec       q    Type
                         _______ _______ _______ _____ _____    ______ ____

>  <TORSDO>
F 3

$$$$
=
 OpenBabel11052414033D

 34 37  0  0  1  0  0  0  0  0999 V2000
  181.2830  178.4280  141.8240 C   0  0  2  0  0  3  0  0  0  0  0  0
  183.4570  178.5340  140.5060 C   0  0  0  0  0  0  0  0  0  0  0  0
  184.6710  175.1490  137.7170 C   0  0  0  0  0  2  0  0  0  0  0  0
  181.2480  178.5660  139.2670 C   0  0  1  0  0  3  0  0  0  0  0  0
  180.9540  176.0800  137.9800 C   0  0  0  0  0  1  0  0  0  0  0  0
  180.4390  180.3610  142.9340 O   0  0  0  0  0  0  0  0  0  0  0  0
  184.1010  178.6090  141.5880 O   0  0  0  0  0  0  0  0  0  0  0  0
  183.3800  178.9750  138.0190 C   0  0  0  0  0  2  0  0  0  0  0  0
  185.9690  175.7280  137.1750 C   0  0  0  0  0  2  0  0  0  0  0  0
  186.0230  177.2280  137.4000 C   0  0  0  0  0  2  0  0  0  0  0  0
  182.0150  178.1030  140.5180 C   0  0  2  0  0  3  0  0  0  0  0  0
  183.6020  175.0530  136.6320 C   0  0  0  0  0  2  0  0  0  0  0  0
  182.2390  176.7560  137.8250 N   0  0  0  0  0  0  0  0  0  0  0  0
  180.2620  177.5000  142.0280 O   0  0  0  0  0  1  0  0  0  0  0  0
  185.5790  178.8750  139.2060 C   0  0  0  0  0  2  0  0  0  0  0  0
  180.9110  180.0670  139.3210 C   0  0  2  0  0  3  0  0  0  0  0  0
  180.7090  179.8110  141.8350 C   0  0  0  0  0  0  0  0  0  0  0  0
  184.1290  178.7380  139.2520 N   0  0  0  0  0  0  0  0  0  0  0  0
  182.7320  176.3140  136.4980 C   0  0  1  0  0  3  0  0  0  0  0  0
  182.0400  178.2150  137.9880 C   0  0  1  0  0  3  0  0  0  0  0  0
  180.3720  180.4730  140.6150 N   0  0  0  0  0  2  0  0  0  0  0  0
  186.2170  177.5380  138.8750 C   0  0  0  0  0  2  0  0  0  0  0  0
  183.2990  177.3940  135.5430 C   0  0  0  0  0  3  0  0  0  0  0  0
  182.1810  177.9730  134.6960 C   0  0  0  0  0  1  0  0  0  0  0  0
  184.3490  176.8380  134.5940 C   0  0  0  0  0  1  0  0  0  0  0  0
  178.9310  179.7990  138.0460 O   0  0  0  0  0  0  0  0  0  0  0  0
  179.9790  180.4780  138.2180 C   0  0  0  0  0  0  0  0  0  0  0  0
  181.2410  183.8350  136.9810 C   0  0  0  0  0  0  0  0  0  0  0  0
  180.7390  183.8500  135.6770 C   0  0  0  0  0  3  0  0  0  0  0  0
  180.2480  181.6450  137.3460 C   0  0  0  0  0  0  0  0  0  0  0  0
  179.9920  182.7680  135.2050 C   0  0  0  0  0  3  0  0  0  0  0  0
  180.9960  182.7380  137.8110 C   0  0  0  0  0  3  0  0  0  0  0  0
  179.7490  181.6700  136.0350 C   0  0  0  0  0  3  0  0  0  0  0  0
  182.0000  184.9360  137.4650 N   0  0  0  0  0  1  0  0  0  0  0  0
  1 17  1  0  0  0  0
  1 14  1  6  0  0  0
  2 11  1  0  0  0  0
  2  7  2  0  0  0  0
  4 16  1  0  0  0  0
  4 11  1  0  0  0  0
  8 18  1  0  0  0  0
  9 10  1  0  0  0  0
  9  3  1  0  0  0  0
 10 22  1  0  0  0  0
 11  1  1  0  0  0  0
 12  3  1  0  0  0  0
 13  5  1  0  0  0  0
 13 20  1  0  0  0  0
 15 18  1  0  0  0  0
 16 21  1  0  0  0  0
 17  6  2  0  0  0  0
 18  2  1  0  0  0  0
 19 12  1  0  0  0  0
 19 13  1  0  0  0  0
 20  8  1  0  0  0  0
 20  4  1  0  0  0  0
 21 17  1  0  0  0  0
 22 15  1  0  0  0  0
 23 19  1  0  0  0  0
 24 23  1  0  0  0  0
 25 23  1  0  0  0  0
 26 27  2  0  0  0  0
 27 16  1  0  0  0  0
 28 34  1  0  0  0  0
 28 32  1  0  0  0  0
 29 28  2  0  0  0  0
 30 32  2  0  0  0  0
 30 27  1  0  0  0  0
 31 29  1  0  0  0  0
 31 33  2  0  0  0  0
 33 30  1  0  0  0  0
M  END
>  <MODEL>
4

>  <REMARK>
 VINA RESULT:      -5.8      2.868      6.142
  Name = 
  3 active torsions:
  status: ('A' for Active; 'I' for Inactive)
    1  A    between atoms: C_12  and  C_28
    2  A    between atoms: C_13  and  C_29
    3  A    between atoms: C_21  and  C_28
                            x       y       z     vdW  Elec       q    Type
                         _______ _______ _______ _____ _____    ______ ____

>  <TORSDO>
F 3

$$$$
=
 OpenBabel11052414033D

 34 37  0  0  1  0  0  0  0  0999 V2000
  181.2630  173.3510  136.1480 C   0  0  2  0  0  3  0  0  0  0  0  0
  180.8480  175.7710  135.4810 C   0  0  0  0  0  0  0  0  0  0  0  0
  179.4090  178.8260  138.5310 C   0  0  0  0  0  2  0  0  0  0  0  0
  182.7060  175.2310  137.1160 C   0  0  1  0  0  3  0  0  0  0  0  0
  181.8910  176.1210  139.6590 C   0  0  0  0  0  1  0  0  0  0  0  0
  182.4180  171.8670  134.6830 O   0  0  0  0  0  0  0  0  0  0  0  0
  179.9870  175.3850  134.6440 O   0  0  0  0  0  0  0  0  0  0  0  0
  182.4780  177.5570  136.2150 C   0  0  0  0  0  2  0  0  0  0  0  0
  179.3740  180.0630  137.6460 C   0  0  0  0  0  2  0  0  0  0  0  0
  180.2200  179.8570  136.4030 C   0  0  0  0  0  2  0  0  0  0  0  0
  181.3340  174.8280  136.5480 C   0  0  2  0  0  3  0  0  0  0  0  0
  180.4860  178.9330  139.6060 C   0  0  0  0  0  2  0  0  0  0  0  0
  181.7260  177.0550  138.5490 N   0  0  0  0  0  0  0  0  0  0  0  0
  181.0930  172.5670  137.2890 O   0  0  0  0  0  1  0  0  0  0  0  0
  180.6080  178.1310  134.6580 C   0  0  0  0  0  2  0  0  0  0  0  0
  183.8520  174.8950  136.1460 C   0  0  2  0  0  3  0  0  0  0  0  0
  182.4810  172.8940  135.4070 C   0  0  0  0  0  0  0  0  0  0  0  0
  181.2740  177.1430  135.4950 N   0  0  0  0  0  0  0  0  0  0  0  0
  181.8600  178.3960  139.1700 C   0  0  1  0  0  3  0  0  0  0  0  0
  182.7140  176.7300  137.4930 C   0  0  1  0  0  3  0  0  0  0  0  0
  183.7370  173.5500  135.5890 N   0  0  0  0  0  2  0  0  0  0  0  0
  179.5520  178.8670  135.4620 C   0  0  0  0  0  2  0  0  0  0  0  0
  182.7660  179.4310  138.4600 C   0  0  0  0  0  3  0  0  0  0  0  0
  184.2070  179.2440  138.8990 C   0  0  0  0  0  1  0  0  0  0  0  0
  182.3740  180.8650  138.7820 C   0  0  0  0  0  1  0  0  0  0  0  0
  185.6500  174.1500  137.5000 O   0  0  0  0  0  0  0  0  0  0  0  0
  185.2010  175.0800  136.7780 C   0  0  0  0  0  0  0  0  0  0  0  0
  187.4770  178.0450  137.4310 C   0  0  0  0  0  0  0  0  0  0  0  0
  187.5300  178.6310  136.1640 C   0  0  0  0  0  3  0  0  0  0  0  0
  186.0100  176.3050  136.5730 C   0  0  0  0  0  0  0  0  0  0  0  0
  186.8270  178.0590  135.1010 C   0  0  0  0  0  3  0  0  0  0  0  0
  186.7200  176.8880  137.6340 C   0  0  0  0  0  3  0  0  0  0  0  0
  186.0710  176.9020  135.3050 C   0  0  0  0  0  3  0  0  0  0  0  0
  188.1910  178.6260  138.5160 N   0  0  0  0  0  1  0  0  0  0  0  0
  1 11  1  0  0  0  0
  1 14  1  1  0  0  0
  2 18  1  0  0  0  0
  2 11  1  0  0  0  0
  3 12  1  0  0  0  0
  4 20  1  0  0  0  0
  6 17  2  0  0  0  0
  7  2  2  0  0  0  0
  8 20  1  0  0  0  0
  9  3  1  0  0  0  0
 10  9  1  0  0  0  0
 11  4  1  0  0  0  0
 13 19  1  0  0  0  0
 13  5  1  0  0  0  0
 15 22  1  0  0  0  0
 15 18  1  0  0  0  0
 16 27  1  0  0  0  0
 16  4  1  0  0  0  0
 17 21  1  0  0  0  0
 17  1  1  0  0  0  0
 18  8  1  0  0  0  0
 19 12  1  0  0  0  0
 20 13  1  0  0  0  0
 21 16  1  0  0  0  0
 22 10  1  0  0  0  0
 23 25  1  0  0  0  0
 23 24  1  0  0  0  0
 23 19  1  0  0  0  0
 27 26  2  0  0  0  0
 28 32  1  0  0  0  0
 28 34  1  0  0  0  0
 29 28  2  0  0  0  0
 30 27  1  0  0  0  0
 30 32  2  0  0  0  0
 31 33  2  0  0  0  0
 31 29  1  0  0  0  0
 33 30  1  0  0  0  0
M  END
>  <MODEL>
5

>  <REMARK>
 VINA RESULT:      -5.7      4.436      6.696
  Name = 
  3 active torsions:
  status: ('A' for Active; 'I' for Inactive)
    1  A    between atoms: C_12  and  C_28
    2  A    between atoms: C_13  and  C_29
    3  A    between atoms: C_21  and  C_28
                            x       y       z     vdW  Elec       q    Type
                         _______ _______ _______ _____ _____    ______ ____

>  <TORSDO>
F 3

$$$$
=
 OpenBabel11052414033D

 34 37  0  0  1  0  0  0  0  0999 V2000
  185.1930  174.0960  137.0650 C   0  0  2  0  0  3  0  0  0  0  0  0
  183.3440  175.4090  135.9120 C   0  0  0  0  0  0  0  0  0  0  0  0
  179.6580  176.7700  138.2070 C   0  0  0  0  0  2  0  0  0  0  0  0
  184.7080  176.5190  137.7340 C   0  0  1  0  0  3  0  0  0  0  0  0
  183.0560  176.7850  139.9970 C   0  0  0  0  0  1  0  0  0  0  0  0
  187.2970  173.7630  135.9950 O   0  0  0  0  0  0  0  0  0  0  0  0
  183.1680  174.4470  135.1140 O   0  0  0  0  0  0  0  0  0  0  0  0
  183.0970  177.8790  136.3820 C   0  0  0  0  0  2  0  0  0  0  0  0
  178.9360  177.5170  137.0960 C   0  0  0  0  0  2  0  0  0  0  0  0
  179.8950  177.8670  135.9730 C   0  0  0  0  0  2  0  0  0  0  0  0
  184.1410  175.2040  137.1710 C   0  0  2  0  0  3  0  0  0  0  0  0
  180.1340  177.7150  139.3050 C   0  0  0  0  0  2  0  0  0  0  0  0
  182.4960  177.2090  138.7170 N   0  0  0  0  0  0  0  0  0  0  0  0
  185.4110  173.5380  138.3250 O   0  0  0  0  0  1  0  0  0  0  0  0
  181.6860  176.7910  134.6280 C   0  0  0  0  0  2  0  0  0  0  0  0
  185.9170  177.0190  136.9220 C   0  0  2  0  0  3  0  0  0  0  0  0
  186.4930  174.5850  136.5050 C   0  0  0  0  0  0  0  0  0  0  0  0
  182.6830  176.6640  135.6830 N   0  0  0  0  0  0  0  0  0  0  0  0
  181.5420  178.2890  139.0700 C   0  0  1  0  0  3  0  0  0  0  0  0
  183.6020  177.5950  137.8100 C   0  0  1  0  0  3  0  0  0  0  0  0
  186.8750  175.9560  136.6340 N   0  0  0  0  0  2  0  0  0  0  0  0
  180.2930  176.6170  135.2050 C   0  0  0  0  0  2  0  0  0  0  0  0
  181.5810  179.5890  138.2290 C   0  0  0  0  0  3  0  0  0  0  0  0
  182.7060  180.4840  138.7140 C   0  0  0  0  0  1  0  0  0  0  0  0
  180.2890  180.3850  138.3290 C   0  0  0  0  0  1  0  0  0  0  0  0
  186.7940  179.2210  136.9150 O   0  0  0  0  0  0  0  0  0  0  0  0
  186.6080  178.1730  137.5890 C   0  0  0  0  0  0  0  0  0  0  0  0
  188.7250  177.5070  140.6660 C   0  0  0  0  0  0  0  0  0  0  0  0
  187.9030  178.0140  141.6760 C   0  0  0  0  0  3  0  0  0  0  0  0
  187.0640  178.1170  138.9980 C   0  0  0  0  0  0  0  0  0  0  0  0
  186.6640  178.5730  141.3520 C   0  0  0  0  0  3  0  0  0  0  0  0
  188.3070  177.5580  139.3340 C   0  0  0  0  0  3  0  0  0  0  0  0
  186.2470  178.6250  140.0190 C   0  0  0  0  0  3  0  0  0  0  0  0
  189.9860  176.9360  140.9940 N   0  0  0  0  0  1  0  0  0  0  0  0
  1 11  1  0  0  0  0
  1 14  1  1  0  0  0
  2 11  1  0  0  0  0
  3 12  1  0  0  0  0
  4 20  1  0  0  0  0
  6 17  2  0  0  0  0
  7  2  2  0  0  0  0
  8 20  1  0  0  0  0
  9  3  1  0  0  0  0
 10  9  1  0  0  0  0
 11  4  1  0  0  0  0
 13 19  1  0  0  0  0
 13  5  1  0  0  0  0
 15 22  1  0  0  0  0
 15 18  1  0  0  0  0
 16 27  1  0  0  0  0
 16  4  1  0  0  0  0
 17 21  1  0  0  0  0
 17  1  1  0  0  0  0
 18  2  1  0  0  0  0
 18  8  1  0  0  0  0
 19 12  1  0  0  0  0
 20 13  1  0  0  0  0
 21 16  1  0  0  0  0
 22 10  1  0  0  0  0
 23 25  1  0  0  0  0
 23 24  1  0  0  0  0
 23 19  1  0  0  0  0
 26 27  2  0  0  0  0
 27 30  1  0  0  0  0
 28 34  1  0  0  0  0
 28 29  1  0  0  0  0
 30 32  1  0  0  0  0
 30 33  2  0  0  0  0
 31 29  2  0  0  0  0
 32 28  2  0  0  0  0
 33 31  1  0  0  0  0
M  END
>  <MODEL>
6

>  <REMARK>
 VINA RESULT:      -5.6      3.847      5.865
  Name = 
  3 active torsions:
  status: ('A' for Active; 'I' for Inactive)
    1  A    between atoms: C_12  and  C_28
    2  A    between atoms: C_13  and  C_29
    3  A    between atoms: C_21  and  C_28
                            x       y       z     vdW  Elec       q    Type
                         _______ _______ _______ _____ _____    ______ ____

>  <TORSDO>
F 3

$$$$
=
 OpenBabel11052414033D

 34 37  0  0  1  0  0  0  0  0999 V2000
  185.9430  175.5490  136.7160 C   0  0  2  0  0  3  0  0  0  0  0  0
  183.9430  176.8030  135.7670 C   0  0  0  0  0  0  0  0  0  0  0  0
  179.7060  175.7940  137.0840 C   0  0  0  0  0  2  0  0  0  0  0  0
  184.4990  177.0260  138.2280 C   0  0  1  0  0  3  0  0  0  0  0  0
  182.5350  175.6250  139.6780 C   0  0  0  0  0  1  0  0  0  0  0  0
  188.1600  176.3530  136.3670 O   0  0  0  0  0  0  0  0  0  0  0  0
  184.2620  176.4210  134.6080 O   0  0  0  0  0  0  0  0  0  0  0  0
  182.7310  178.4820  137.2150 C   0  0  0  0  0  2  0  0  0  0  0  0
  178.9420  176.8330  136.2780 C   0  0  0  0  0  2  0  0  0  0  0  0
  179.8660  177.9480  135.8260 C   0  0  0  0  0  2  0  0  0  0  0  0
  184.5530  176.1390  136.9720 C   0  0  2  0  0  3  0  0  0  0  0  0
  179.6210  176.0700  138.5830 C   0  0  0  0  0  2  0  0  0  0  0  0
  182.0640  176.5320  138.6350 N   0  0  0  0  0  0  0  0  0  0  0  0
  186.1530  174.4650  137.5690 O   0  0  0  0  0  1  0  0  0  0  0  0
  182.1130  178.2300  134.8050 C   0  0  0  0  0  2  0  0  0  0  0  0
  185.5480  178.1520  138.1840 C   0  0  2  0  0  3  0  0  0  0  0  0
  187.0400  176.5510  136.9050 C   0  0  0  0  0  0  0  0  0  0  0  0
  182.9090  177.7850  135.9420 N   0  0  0  0  0  0  0  0  0  0  0  0
  180.7360  176.9880  139.1130 C   0  0  1  0  0  3  0  0  0  0  0  0
  183.0750  177.5950  138.4260 C   0  0  1  0  0  3  0  0  0  0  0  0
  186.8630  177.6750  137.7690 N   0  0  0  0  0  2  0  0  0  0  0  0
  180.8120  177.4510  134.7450 C   0  0  0  0  0  2  0  0  0  0  0  0
  180.4220  178.5030  139.0330 C   0  0  0  0  0  3  0  0  0  0  0  0
  181.0990  179.2320  140.1790 C   0  0  0  0  0  1  0  0  0  0  0  0
  178.9320  178.7930  139.1240 C   0  0  0  0  0  1  0  0  0  0  0  0
  184.9060  179.8820  139.6720 O   0  0  0  0  0  0  0  0  0  0  0  0
  185.6500  178.8810  139.4930 C   0  0  0  0  0  0  0  0  0  0  0  0
  187.0170  177.8640  142.8820 C   0  0  0  0  0  0  0  0  0  0  0  0
  188.3670  177.6650  142.5830 C   0  0  0  0  0  3  0  0  0  0  0  0
  186.5820  178.4580  140.5650 C   0  0  0  0  0  0  0  0  0  0  0  0
  188.8280  177.8600  141.2780 C   0  0  0  0  0  3  0  0  0  0  0  0
  186.1300  178.2590  141.8790 C   0  0  0  0  0  3  0  0  0  0  0  0
  187.9390  178.2550  140.2740 C   0  0  0  0  0  3  0  0  0  0  0  0
  186.5460  177.6670  144.2100 N   0  0  0  0  0  1  0  0  0  0  0  0
  1 17  1  0  0  0  0
  1 11  1  0  0  0  0
  1 14  1  1  0  0  0
  2 18  1  0  0  0  0
  2 11  1  0  0  0  0
  3 12  1  0  0  0  0
  4 20  1  0  0  0  0
  6 17  2  0  0  0  0
  7  2  2  0  0  0  0
  8 20  1  0  0  0  0
  9  3  1  0  0  0  0
 10  9  1  0  0  0  0
 11  4  1  0  0  0  0
 12 19  1  0  0  0  0
 13 19  1  0  0  0  0
 13  5  1  0  0  0  0
 15 18  1  0  0  0  0
 16  4  1  0  0  0  0
 16 27  1  0  0  0  0
 17 21  1  0  0  0  0
 18  8  1  0  0  0  0
 20 13  1  0  0  0  0
 21 16  1  0  0  0  0
 22 15  1  0  0  0  0
 22 10  1  0  0  0  0
 23 19  1  0  0  0  0
 23 25  1  0  0  0  0
 23 24  1  0  0  0  0
 27 26  2  0  0  0  0
 27 30  1  0  0  0  0
 28 34  1  0  0  0  0
 29 28  1  0  0  0  0
 30 32  1  0  0  0  0
 31 29  2  0  0  0  0
 32 28  2  0  0  0  0
 33 30  2  0  0  0  0
 33 31  1  0  0  0  0
M  END
>  <MODEL>
7

>  <REMARK>
 VINA RESULT:      -5.4      2.816      5.397
  Name = 
  3 active torsions:
  status: ('A' for Active; 'I' for Inactive)
    1  A    between atoms: C_12  and  C_28
    2  A    between atoms: C_13  and  C_29
    3  A    between atoms: C_21  and  C_28
                            x       y       z     vdW  Elec       q    Type
                         _______ _______ _______ _____ _____    ______ ____

>  <TORSDO>
F 3

$$$$
=
 OpenBabel11052414033D

 34 37  0  0  1  0  0  0  0  0999 V2000
  188.9060  178.0410  137.0910 C   0  0  2  0  0  3  0  0  0  0  0  0
  189.5170  175.6030  136.6950 C   0  0  0  0  0  0  0  0  0  0  0  0
  193.3940  174.4710  134.5970 C   0  0  0  0  0  2  0  0  0  0  0  0
  190.9410  177.0060  138.2510 C   0  0  1  0  0  3  0  0  0  0  0  0
  193.3890  177.5030  136.9550 C   0  0  0  0  0  1  0  0  0  0  0  0
  187.1180  178.6240  138.5550 O   0  0  0  0  0  0  0  0  0  0  0  0
  188.4640  175.4570  136.0160 O   0  0  0  0  0  0  0  0  0  0  0  0
  191.3390  174.5390  138.0850 C   0  0  0  0  0  2  0  0  0  0  0  0
  193.2800  172.9550  134.6680 C   0  0  0  0  0  2  0  0  0  0  0  0
  192.2800  172.5410  135.7310 C   0  0  0  0  0  2  0  0  0  0  0  0
  190.0140  176.9850  137.0230 C   0  0  2  0  0  3  0  0  0  0  0  0
  194.5410  174.9900  135.4590 C   0  0  0  0  0  2  0  0  0  0  0  0
  192.9080  176.1240  136.9500 N   0  0  0  0  0  0  0  0  0  0  0  0
  189.4320  179.2880  136.7540 O   0  0  0  0  0  1  0  0  0  0  0  0
  189.9970  173.1450  136.5020 C   0  0  0  0  0  2  0  0  0  0  0  0
  190.1550  176.8590  139.5670 C   0  0  2  0  0  3  0  0  0  0  0  0
  188.2650  178.1190  138.4410 C   0  0  0  0  0  0  0  0  0  0  0  0
  190.3100  174.4580  137.0510 N   0  0  0  0  0  0  0  0  0  0  0  0
  194.1410  175.3020  136.9110 C   0  0  1  0  0  3  0  0  0  0  0  0
  192.0290  175.9160  138.1250 C   0  0  1  0  0  3  0  0  0  0  0  0
  188.9770  177.7190  139.6140 N   0  0  0  0  0  2  0  0  0  0  0  0
  190.8640  172.8690  135.2870 C   0  0  0  0  0  2  0  0  0  0  0  0
  194.2380  174.1000  137.8830 C   0  0  0  0  0  3  0  0  0  0  0  0
  194.9660  174.5160  139.1480 C   0  0  0  0  0  1  0  0  0  0  0  0
  194.9980  172.9270  137.2840 C   0  0  0  0  0  1  0  0  0  0  0  0
  192.2250  177.4120  140.5820 O   0  0  0  0  0  0  0  0  0  0  0  0
  191.0200  177.0980  140.7720 C   0  0  0  0  0  0  0  0  0  0  0  0
  190.8300  177.1170  144.5610 C   0  0  0  0  0  0  0  0  0  0  0  0
  189.4970  176.7540  144.7680 C   0  0  0  0  0  3  0  0  0  0  0  0
  190.5000  176.9840  142.1550 C   0  0  0  0  0  0  0  0  0  0  0  0
  188.6630  176.5060  143.6740 C   0  0  0  0  0  3  0  0  0  0  0  0
  191.3290  177.2310  143.2610 C   0  0  0  0  0  3  0  0  0  0  0  0
  189.1630  176.6210  142.3740 C   0  0  0  0  0  3  0  0  0  0  0  0
  191.6800  177.3690  145.6730 N   0  0  0  0  0  1  0  0  0  0  0  0
  1 14  1  1  0  0  0
  1 17  1  0  0  0  0
  2 11  1  0  0  0  0
  2 18  1  0  0  0  0
  3  9  1  0  0  0  0
  3 12  1  0  0  0  0
  4 16  1  0  0  0  0
  7  2  2  0  0  0  0
  8 20  1  0  0  0  0
  9 10  1  0  0  0  0
 11  1  1  0  0  0  0
 11  4  1  0  0  0  0
 12 19  1  0  0  0  0
 13  5  1  0  0  0  0
 13 20  1  0  0  0  0
 15 18  1  0  0  0  0
 16 21  1  0  0  0  0
 16 27  1  0  0  0  0
 17  6  2  0  0  0  0
 17 21  1  0  0  0  0
 18  8  1  0  0  0  0
 19 13  1  0  0  0  0
 19 23  1  0  0  0  0
 20  4  1  0  0  0  0
 22 10  1  0  0  0  0
 22 15  1  0  0  0  0
 23 24  1  0  0  0  0
 25 23  1  0  0  0  0
 26 27  2  0  0  0  0
 27 30  1  0  0  0  0
 28 29  1  0  0  0  0
 28 34  1  0  0  0  0
 30 33  2  0  0  0  0
 30 32  1  0  0  0  0
 31 29  2  0  0  0  0
 32 28  2  0  0  0  0
 33 31  1  0  0  0  0
M  END
>  <MODEL>
8

>  <REMARK>
 VINA RESULT:      -5.4      7.229      9.726
  Name = 
  3 active torsions:
  status: ('A' for Active; 'I' for Inactive)
    1  A    between atoms: C_12  and  C_28
    2  A    between atoms: C_13  and  C_29
    3  A    between atoms: C_21  and  C_28
                            x       y       z     vdW  Elec       q    Type
                         _______ _______ _______ _____ _____    ______ ____

>  <TORSDO>
F 3

$$$$
