=
 OpenBabel11052414163D

 34 40  0  0  1  0  0  0  0  0999 V2000
  189.1020  177.1510  145.8430 C   0  0  0  0  0  0  0  0  0  0  0  0
  190.6710  177.0300  143.9360 C   0  0  0  0  0  0  0  0  0  0  0  0
  188.3480  177.8330  143.6940 C   0  0  0  0  0  0  0  0  0  0  0  0
  186.9710  178.3490  140.4660 C   0  0  0  0  0  3  0  0  0  0  0  0
  191.3900  176.4670  146.2010 C   0  0  0  0  0  3  0  0  0  0  0  0
  191.6580  176.6080  144.8360 C   0  0  0  0  0  3  0  0  0  0  0  0
  190.3890  177.3120  141.3570 C   0  0  0  0  0  0  0  0  0  0  0  0
  189.3860  177.3410  144.4620 C   0  0  0  0  0  0  0  0  0  0  0  0
  188.3210  177.9700  140.1210 O   0  0  0  0  0  0  0  0  0  0  0  0
  190.1150  176.7250  146.7010 C   0  0  0  0  0  2  0  0  0  0  0  0
  187.0570  178.0240  144.1530 C   0  0  0  0  0  0  0  0  0  0  0  0
  187.7990  177.3750  146.3480 C   0  0  0  0  0  3  0  0  0  0  0  0
  191.0590  177.0250  142.5740 C   0  0  0  0  0  3  0  0  0  0  0  0
  187.0670  178.4370  141.9550 C   0  0  0  0  0  0  0  0  0  0  0  0
  186.2230  178.3710  143.0670 C   0  0  0  0  0  0  0  0  0  0  0  0
  189.0850  177.7930  141.2820 C   0  0  0  0  0  0  0  0  0  0  0  0
  188.3130  178.1300  142.3220 C   0  0  0  0  0  0  0  0  0  0  0  0
  186.7560  177.7950  145.4970 C   0  0  0  0  0  3  0  0  0  0  0  0
  182.6300  178.5540  141.8730 C   0  0  0  0  0  0  0  0  0  0  0  0
  181.9550  178.7920  143.0730 C   0  0  0  0  0  3  0  0  0  0  0  0
  184.7500  178.5190  143.0630 C   0  0  0  0  0  0  0  0  0  0  0  0
  182.6710  178.8930  144.2680 C   0  0  0  0  0  3  0  0  0  0  0  0
  184.0200  178.4170  141.8700 C   0  0  0  0  0  3  0  0  0  0  0  0
  184.0620  178.7560  144.2630 C   0  0  0  0  0  3  0  0  0  0  0  0
  181.9190  178.4520  140.6850 O   0  0  0  0  0  1  0  0  0  0  0  0
  190.7450  176.1680  139.3180 N   0  0  0  0  0  0  0  0  0  0  0  0
  191.0770  177.0970  140.1210 N   0  0  0  0  0  0  0  0  0  0  0  0
  190.2730  173.9330  137.7040 O   0  0  0  0  0  0  0  0  0  0  0  0
  191.4670  175.9770  138.0700 C   0  0  2  0  0  3  0  0  0  0  0  0
  191.3740  174.5400  137.6280 C   0  0  0  0  0  0  0  0  0  0  0  0
  193.7880  174.4310  137.0820 C   0  0  0  0  0  2  0  0  0  0  0  0
  193.7710  175.9520  137.0690 C   0  0  0  0  0  2  0  0  0  0  0  0
  192.9200  176.4260  138.2370 C   0  0  0  0  0  2  0  0  0  0  0  0
  192.4630  173.9070  137.0180 O   0  0  0  0  0  0  0  0  0  0  0  0
  1 12  1  0  0  0  0
  1 10  1  0  0  0  0
  2  8  1  0  0  0  0
  2  6  1  0  0  0  0
  3 11  1  0  0  0  0
  3  8  1  0  0  0  0
  4 14  2  0  0  0  0
  5 10  1  0  0  0  0
  6  5  2  0  0  0  0
  7 13  1  0  0  0  0
  8  1  2  0  0  0  0
  9  4  1  0  0  0  0
  9 16  1  0  0  0  0
 11 18  1  0  0  0  0
 13  2  2  0  0  0  0
 14 17  1  0  0  0  0
 14 15  1  0  0  0  0
 15 11  2  0  0  0  0
 16  7  2  0  0  0  0
 16 17  1  0  0  0  0
 17  3  2  0  0  0  0
 18 12  2  0  0  0  0
 19 20  1  0  0  0  0
 20 22  2  0  0  0  0
 21 15  1  0  0  0  0
 21 24  2  0  0  0  0
 23 19  2  0  0  0  0
 23 21  1  0  0  0  0
 24 22  1  0  0  0  0
 25 19  1  0  0  0  0
 26 27  2  0  0  0  0
 27  7  1  0  0  0  0
 29 33  1  0  0  0  0
 29 26  1  1  0  0  0
 30 28  2  0  0  0  0
 30 29  1  0  0  0  0
 32 31  1  0  0  0  0
 32 33  1  0  0  0  0
 34 31  1  0  0  0  0
 34 30  1  0  0  0  0
M  END
>  <MODEL>
1

>  <REMARK>
 VINA RESULT:     -12.4      0.000      0.000
  Name = 
  3 active torsions:
  status: ('A' for Active; 'I' for Inactive)
    1  A    between atoms: N_3  and  C_13
    2  A    between atoms: C_10  and  N_17
    3  A    between atoms: C_12  and  C_28
                            x       y       z     vdW  Elec       q    Type
                         _______ _______ _______ _____ _____    ______ ____

>  <TORSDO>
F 3

$$$$
=
 OpenBabel11052414163D

 34 40  0  0  1  0  0  0  0  0999 V2000
  184.1230  178.5650  144.8190 C   0  0  0  0  0  0  0  0  0  0  0  0
  184.5220  178.6070  142.3790 C   0  0  0  0  0  0  0  0  0  0  0  0
  186.2740  177.9680  143.9990 C   0  0  0  0  0  0  0  0  0  0  0  0
  189.6350  177.5950  142.9300 C   0  0  0  0  0  3  0  0  0  0  0  0
  182.3140  179.0860  143.3060 C   0  0  0  0  0  3  0  0  0  0  0  0
  183.1740  178.9470  142.2120 C   0  0  0  0  0  3  0  0  0  0  0  0
  186.6640  178.3830  140.9050 C   0  0  0  0  0  0  0  0  0  0  0  0
  184.9870  178.3760  143.7040 C   0  0  0  0  0  0  0  0  0  0  0  0
  188.9870  177.8860  141.6720 O   0  0  0  0  0  0  0  0  0  0  0  0
  182.7890  178.9080  144.6050 C   0  0  0  0  0  2  0  0  0  0  0  0
  186.7860  177.8590  145.2800 C   0  0  0  0  0  0  0  0  0  0  0  0
  184.6110  178.4230  146.1390 C   0  0  0  0  0  3  0  0  0  0  0  0
  185.2920  178.6050  141.1900 C   0  0  0  0  0  3  0  0  0  0  0  0
  188.4570  177.4780  143.8420 C   0  0  0  0  0  0  0  0  0  0  0  0
  188.1700  177.5860  145.2050 C   0  0  0  0  0  0  0  0  0  0  0  0
  187.6030  177.9930  141.8550 C   0  0  0  0  0  0  0  0  0  0  0  0
  187.3460  177.6940  143.1350 C   0  0  0  0  0  0  0  0  0  0  0  0
  185.9590  178.0880  146.3810 C   0  0  0  0  0  3  0  0  0  0  0  0
  191.2750  176.8000  147.2320 C   0  0  0  0  0  0  0  0  0  0  0  0
  190.9970  177.4660  148.4280 C   0  0  0  0  0  3  0  0  0  0  0  0
  189.1470  177.5390  146.3160 C   0  0  0  0  0  0  0  0  0  0  0  0
  189.7990  178.1700  148.5730 C   0  0  0  0  0  3  0  0  0  0  0  0
  190.3550  176.8380  146.1820 C   0  0  0  0  0  3  0  0  0  0  0  0
  188.8790  178.2060  147.5210 C   0  0  0  0  0  3  0  0  0  0  0  0
  192.4660  176.1020  147.0870 O   0  0  0  0  0  1  0  0  0  0  0  0
  186.4370  178.2230  138.5560 N   0  0  0  0  0  0  0  0  0  0  0  0
  187.1300  178.5680  139.5650 N   0  0  0  0  0  0  0  0  0  0  0  0
  184.9750  177.3810  136.3240 O   0  0  0  0  0  0  0  0  0  0  0  0
  186.9420  178.4250  137.2070 C   0  0  2  0  0  3  0  0  0  0  0  0
  186.2240  177.5210  136.2400 C   0  0  0  0  0  0  0  0  0  0  0  0
  188.3300  176.8560  135.1170 C   0  0  0  0  0  2  0  0  0  0  0  0
  188.9610  178.0870  135.7500 C   0  0  0  0  0  2  0  0  0  0  0  0
  188.4550  178.1950  137.1800 C   0  0  0  0  0  2  0  0  0  0  0  0
  186.9070  176.9300  135.1700 O   0  0  0  0  0  0  0  0  0  0  0  0
  1 12  1  0  0  0  0
  2  8  1  0  0  0  0
  3 11  1  0  0  0  0
  4 14  2  0  0  0  0
  5 10  1  0  0  0  0
  6  2  1  0  0  0  0
  6  5  2  0  0  0  0
  7 13  1  0  0  0  0
  7 16  2  0  0  0  0
  8  3  1  0  0  0  0
  8  1  2  0  0  0  0
  9 16  1  0  0  0  0
  9  4  1  0  0  0  0
 10  1  1  0  0  0  0
 11 18  1  0  0  0  0
 12 18  2  0  0  0  0
 13  2  2  0  0  0  0
 14 15  1  0  0  0  0
 15 11  2  0  0  0  0
 15 21  1  0  0  0  0
 16 17  1  0  0  0  0
 17 14  1  0  0  0  0
 17  3  2  0  0  0  0
 19 20  1  0  0  0  0
 20 22  2  0  0  0  0
 21 24  2  0  0  0  0
 23 21  1  0  0  0  0
 23 19  2  0  0  0  0
 24 22  1  0  0  0  0
 25 19  1  0  0  0  0
 26 27  2  0  0  0  0
 27  7  1  0  0  0  0
 29 26  1  1  0  0  0
 30 28  2  0  0  0  0
 30 29  1  0  0  0  0
 31 34  1  0  0  0  0
 31 32  1  0  0  0  0
 32 33  1  0  0  0  0
 33 29  1  0  0  0  0
 34 30  1  0  0  0  0
M  END
>  <MODEL>
2

>  <REMARK>
 VINA RESULT:     -12.3      2.929      6.186
  Name = 
  3 active torsions:
  status: ('A' for Active; 'I' for Inactive)
    1  A    between atoms: N_3  and  C_13
    2  A    between atoms: C_10  and  N_17
    3  A    between atoms: C_12  and  C_28
                            x       y       z     vdW  Elec       q    Type
                         _______ _______ _______ _____ _____    ______ ____

>  <TORSDO>
F 3

$$$$
=
 OpenBabel11052414163D

 34 40  0  0  1  0  0  0  0  0999 V2000
  186.3470  178.0380  146.1350 C   0  0  0  0  0  0  0  0  0  0  0  0
  188.0130  177.9300  144.3100 C   0  0  0  0  0  0  0  0  0  0  0  0
  185.6570  178.5600  143.9200 C   0  0  0  0  0  0  0  0  0  0  0  0
  184.4100  178.8200  140.6090 C   0  0  0  0  0  3  0  0  0  0  0  0
  188.6550  177.5300  146.6330 C   0  0  0  0  0  3  0  0  0  0  0  0
  188.9800  177.6230  145.2760 C   0  0  0  0  0  3  0  0  0  0  0  0
  187.8410  178.0650  141.7100 C   0  0  0  0  0  0  0  0  0  0  0  0
  186.6860  178.1780  144.7590 C   0  0  0  0  0  0  0  0  0  0  0  0
  185.7980  178.5180  140.3470 O   0  0  0  0  0  0  0  0  0  0  0  0
  187.3420  177.7250  147.0590 C   0  0  0  0  0  2  0  0  0  0  0  0
  184.3350  178.6830  144.3090 C   0  0  0  0  0  0  0  0  0  0  0  0
  185.0090  178.1960  146.5660 C   0  0  0  0  0  3  0  0  0  0  0  0
  188.4680  177.8850  142.9700 C   0  0  0  0  0  3  0  0  0  0  0  0
  184.4260  178.9880  142.0940 C   0  0  0  0  0  0  0  0  0  0  0  0
  183.5350  178.9180  143.1680 C   0  0  0  0  0  0  0  0  0  0  0  0
  186.5130  178.4510  141.5490 C   0  0  0  0  0  0  0  0  0  0  0  0
  185.6700  178.7850  142.5340 C   0  0  0  0  0  0  0  0  0  0  0  0
  183.9840  178.5010  145.6470 C   0  0  0  0  0  3  0  0  0  0  0  0
  180.0180  179.3870  141.8340 C   0  0  0  0  0  0  0  0  0  0  0  0
  179.2530  179.0380  142.9500 C   0  0  0  0  0  3  0  0  0  0  0  0
  182.0580  178.9650  143.0890 C   0  0  0  0  0  0  0  0  0  0  0  0
  179.8840  178.6510  144.1350 C   0  0  0  0  0  3  0  0  0  0  0  0
  181.4130  179.3490  141.9040 C   0  0  0  0  0  3  0  0  0  0  0  0
  181.2800  178.6140  144.2030 C   0  0  0  0  0  3  0  0  0  0  0  0
  179.3920  179.7710  140.6560 O   0  0  0  0  0  1  0  0  0  0  0  0
  188.6040  178.6640  139.5530 N   0  0  0  0  0  0  0  0  0  0  0  0
  188.6020  177.8370  140.5200 N   0  0  0  0  0  0  0  0  0  0  0  0
  187.7560  179.5600  137.0420 O   0  0  0  0  0  0  0  0  0  0  0  0
  189.3890  178.4000  138.3570 C   0  0  2  0  0  3  0  0  0  0  0  0
  188.5380  178.5760  137.1260 C   0  0  0  0  0  0  0  0  0  0  0  0
  189.3870  176.4880  136.0990 C   0  0  0  0  0  2  0  0  0  0  0  0
  190.5470  176.5730  137.0800 C   0  0  0  0  0  2  0  0  0  0  0  0
  189.9930  176.9960  138.4320 C   0  0  0  0  0  2  0  0  0  0  0  0
  188.6960  177.7330  136.0200 O   0  0  0  0  0  0  0  0  0  0  0  0
  1 12  1  0  0  0  0
  1 10  1  0  0  0  0
  2  8  1  0  0  0  0
  2  6  1  0  0  0  0
  3 11  1  0  0  0  0
  3  8  1  0  0  0  0
  4 14  2  0  0  0  0
  5 10  1  0  0  0  0
  6  5  2  0  0  0  0
  7 13  1  0  0  0  0
  8  1  2  0  0  0  0
  9  4  1  0  0  0  0
  9 16  1  0  0  0  0
 11 18  1  0  0  0  0
 13  2  2  0  0  0  0
 14 17  1  0  0  0  0
 14 15  1  0  0  0  0
 15 11  2  0  0  0  0
 16  7  2  0  0  0  0
 16 17  1  0  0  0  0
 17  3  2  0  0  0  0
 18 12  2  0  0  0  0
 19 23  2  0  0  0  0
 19 20  1  0  0  0  0
 20 22  2  0  0  0  0
 21 15  1  0  0  0  0
 21 24  2  0  0  0  0
 22 24  1  0  0  0  0
 23 21  1  0  0  0  0
 25 19  1  0  0  0  0
 26 27  2  0  0  0  0
 27  7  1  0  0  0  0
 28 30  2  0  0  0  0
 29 33  1  0  0  0  0
 29 26  1  1  0  0  0
 30 29  1  0  0  0  0
 31 32  1  0  0  0  0
 32 33  1  0  0  0  0
 34 31  1  0  0  0  0
 34 30  1  0  0  0  0
M  END
>  <MODEL>
3

>  <REMARK>
 VINA RESULT:     -12.0      2.257      3.252
  Name = 
  3 active torsions:
  status: ('A' for Active; 'I' for Inactive)
    1  A    between atoms: N_3  and  C_13
    2  A    between atoms: C_10  and  N_17
    3  A    between atoms: C_12  and  C_28
                            x       y       z     vdW  Elec       q    Type
                         _______ _______ _______ _____ _____    ______ ____

>  <TORSDO>
F 3

$$$$
=
 OpenBabel11052414163D

 34 40  0  0  1  0  0  0  0  0999 V2000
  186.9420  177.8360  145.7840 C   0  0  0  0  0  0  0  0  0  0  0  0
  188.5850  177.8780  143.9370 C   0  0  0  0  0  0  0  0  0  0  0  0
  186.2080  178.4630  143.6110 C   0  0  0  0  0  0  0  0  0  0  0  0
  184.9100  178.8770  140.3360 C   0  0  0  0  0  3  0  0  0  0  0  0
  189.2690  177.3640  146.2240 C   0  0  0  0  0  3  0  0  0  0  0  0
  189.5730  177.5420  144.8720 C   0  0  0  0  0  3  0  0  0  0  0  0
  188.3740  178.1550  141.3510 C   0  0  0  0  0  0  0  0  0  0  0  0
  187.2580  178.0630  144.4150 C   0  0  0  0  0  0  0  0  0  0  0  0
  186.3020  178.6280  140.0410 O   0  0  0  0  0  0  0  0  0  0  0  0
  187.9570  177.4980  146.6770 C   0  0  0  0  0  2  0  0  0  0  0  0
  184.8880  178.5280  144.0220 C   0  0  0  0  0  0  0  0  0  0  0  0
  185.6060  177.9320  146.2400 C   0  0  0  0  0  3  0  0  0  0  0  0
  189.0230  177.9220  142.5910 C   0  0  0  0  0  3  0  0  0  0  0  0
  184.9420  178.9600  141.8280 C   0  0  0  0  0  0  0  0  0  0  0  0
  184.0670  178.8060  142.9070 C   0  0  0  0  0  0  0  0  0  0  0  0
  187.0350  178.5130  141.2280 C   0  0  0  0  0  0  0  0  0  0  0  0
  186.1960  178.7680  142.2400 C   0  0  0  0  0  0  0  0  0  0  0  0
  184.5610  178.2610  145.3520 C   0  0  0  0  0  3  0  0  0  0  0  0
  180.5220  179.0070  141.5800 C   0  0  0  0  0  0  0  0  0  0  0  0
  179.7810  178.8220  142.7500 C   0  0  0  0  0  3  0  0  0  0  0  0
  182.5880  178.8150  142.8480 C   0  0  0  0  0  0  0  0  0  0  0  0
  180.4370  178.6320  143.9690 C   0  0  0  0  0  3  0  0  0  0  0  0
  181.9180  179.0030  141.6300 C   0  0  0  0  0  3  0  0  0  0  0  0
  181.8340  178.6280  144.0170 C   0  0  0  0  0  3  0  0  0  0  0  0
  179.8710  179.1960  140.3690 O   0  0  0  0  0  1  0  0  0  0  0  0
  189.9890  177.0960  139.9850 N   0  0  0  0  0  0  0  0  0  0  0  0
  189.1250  178.0170  140.1400 N   0  0  0  0  0  0  0  0  0  0  0  0
  188.9130  175.7700  137.7700 O   0  0  0  0  0  0  0  0  0  0  0  0
  190.7350  176.9850  138.7420 C   0  0  2  0  0  3  0  0  0  0  0  0
  190.1620  175.8840  137.8870 C   0  0  0  0  0  0  0  0  0  0  0  0
  192.4030  174.9780  137.3470 C   0  0  0  0  0  2  0  0  0  0  0  0
  192.9640  176.3200  137.7920 C   0  0  0  0  0  2  0  0  0  0  0  0
  192.2180  176.7530  139.0450 C   0  0  0  0  0  2  0  0  0  0  0  0
  190.9980  175.0640  137.1210 O   0  0  0  0  0  0  0  0  0  0  0  0
  1 12  1  0  0  0  0
  1 10  1  0  0  0  0
  2  8  1  0  0  0  0
  2  6  1  0  0  0  0
  3 11  1  0  0  0  0
  3  8  1  0  0  0  0
  4 14  2  0  0  0  0
  5 10  1  0  0  0  0
  6  5  2  0  0  0  0
  7 13  1  0  0  0  0
  8  1  2  0  0  0  0
  9  4  1  0  0  0  0
  9 16  1  0  0  0  0
 11 18  1  0  0  0  0
 13  2  2  0  0  0  0
 14 17  1  0  0  0  0
 14 15  1  0  0  0  0
 15 11  2  0  0  0  0
 16  7  2  0  0  0  0
 16 17  1  0  0  0  0
 17  3  2  0  0  0  0
 18 12  2  0  0  0  0
 19 23  2  0  0  0  0
 19 20  1  0  0  0  0
 20 22  2  0  0  0  0
 21 15  1  0  0  0  0
 21 24  2  0  0  0  0
 22 24  1  0  0  0  0
 23 21  1  0  0  0  0
 25 19  1  0  0  0  0
 26 27  2  0  0  0  0
 27  7  1  0  0  0  0
 28 30  2  0  0  0  0
 29 33  1  0  0  0  0
 29 26  1  1  0  0  0
 30 29  1  0  0  0  0
 31 32  1  0  0  0  0
 32 33  1  0  0  0  0
 34 31  1  0  0  0  0
 34 30  1  0  0  0  0
M  END
>  <MODEL>
4

>  <REMARK>
 VINA RESULT:     -11.6      1.293      2.093
  Name = 
  3 active torsions:
  status: ('A' for Active; 'I' for Inactive)
    1  A    between atoms: N_3  and  C_13
    2  A    between atoms: C_10  and  N_17
    3  A    between atoms: C_12  and  C_28
                            x       y       z     vdW  Elec       q    Type
                         _______ _______ _______ _____ _____    ______ ____

>  <TORSDO>
F 3

$$$$
=
 OpenBabel11052414163D

 34 40  0  0  1  0  0  0  0  0999 V2000
  184.4170  178.4810  144.7280 C   0  0  0  0  0  0  0  0  0  0  0  0
  184.6240  178.6230  142.2680 C   0  0  0  0  0  0  0  0  0  0  0  0
  186.4730  177.8530  143.7130 C   0  0  0  0  0  0  0  0  0  0  0  0
  189.7240  177.4190  142.3620 C   0  0  0  0  0  3  0  0  0  0  0  0
  182.5150  179.1310  143.3900 C   0  0  0  0  0  3  0  0  0  0  0  0
  183.2790  179.0130  142.2260 C   0  0  0  0  0  3  0  0  0  0  0  0
  186.6320  178.3960  140.6180 C   0  0  0  0  0  0  0  0  0  0  0  0
  185.1830  178.3160  143.5400 C   0  0  0  0  0  0  0  0  0  0  0  0
  188.9900  177.7890  141.1740 O   0  0  0  0  0  0  0  0  0  0  0  0
  183.0840  178.8780  144.6370 C   0  0  0  0  0  2  0  0  0  0  0  0
  187.0810  177.6690  144.9420 C   0  0  0  0  0  0  0  0  0  0  0  0
  185.0020  178.2630  145.9980 C   0  0  0  0  0  3  0  0  0  0  0  0
  185.2970  178.6500  141.0220 C   0  0  0  0  0  3  0  0  0  0  0  0
  188.6180  177.3000  143.3590 C   0  0  0  0  0  0  0  0  0  0  0  0
  188.4440  177.3540  144.7450 C   0  0  0  0  0  0  0  0  0  0  0  0
  187.6290  177.9330  141.4720 C   0  0  0  0  0  0  0  0  0  0  0  0
  187.4630  177.5840  142.7540 C   0  0  0  0  0  0  0  0  0  0  0  0
  186.3520  177.8740  146.1150 C   0  0  0  0  0  3  0  0  0  0  0  0
  190.3530  177.6740  148.0040 C   0  0  0  0  0  0  0  0  0  0  0  0
  191.5180  176.9610  147.7100 C   0  0  0  0  0  3  0  0  0  0  0  0
  189.5030  177.2240  145.7700 C   0  0  0  0  0  0  0  0  0  0  0  0
  191.6800  176.3780  146.4500 C   0  0  0  0  0  3  0  0  0  0  0  0
  189.3510  177.8030  147.0390 C   0  0  0  0  0  3  0  0  0  0  0  0
  190.6770  176.5090  145.4860 C   0  0  0  0  0  3  0  0  0  0  0  0
  190.1910  178.2530  149.2550 O   0  0  0  0  0  1  0  0  0  0  0  0
  187.1430  177.6740  138.4240 N   0  0  0  0  0  0  0  0  0  0  0  0
  186.9980  178.6280  139.2540 N   0  0  0  0  0  0  0  0  0  0  0  0
  185.3380  177.2500  136.3300 O   0  0  0  0  0  0  0  0  0  0  0  0
  187.5160  177.9450  137.0450 C   0  0  2  0  0  3  0  0  0  0  0  0
  186.5770  177.2390  136.1030 C   0  0  0  0  0  0  0  0  0  0  0  0
  188.4320  176.4320  134.6740 C   0  0  0  0  0  2  0  0  0  0  0  0
  189.2920  177.5050  135.3240 C   0  0  0  0  0  2  0  0  0  0  0  0
  188.9710  177.5320  136.8100 C   0  0  0  0  0  2  0  0  0  0  0  0
  187.0480  176.6770  134.9100 O   0  0  0  0  0  0  0  0  0  0  0  0
  1 12  1  0  0  0  0
  2  8  1  0  0  0  0
  3 11  1  0  0  0  0
  4 14  2  0  0  0  0
  5 10  1  0  0  0  0
  6  2  1  0  0  0  0
  6  5  2  0  0  0  0
  7 13  1  0  0  0  0
  7 16  2  0  0  0  0
  8  3  1  0  0  0  0
  8  1  2  0  0  0  0
  9 16  1  0  0  0  0
  9  4  1  0  0  0  0
 10  1  1  0  0  0  0
 11 18  1  0  0  0  0
 12 18  2  0  0  0  0
 13  2  2  0  0  0  0
 14 15  1  0  0  0  0
 15 11  2  0  0  0  0
 15 21  1  0  0  0  0
 16 17  1  0  0  0  0
 17 14  1  0  0  0  0
 17  3  2  0  0  0  0
 19 25  1  0  0  0  0
 20 19  1  0  0  0  0
 21 23  1  0  0  0  0
 22 20  2  0  0  0  0
 23 19  2  0  0  0  0
 24 21  2  0  0  0  0
 24 22  1  0  0  0  0
 26 27  2  0  0  0  0
 27  7  1  0  0  0  0
 29 26  1  1  0  0  0
 30 28  2  0  0  0  0
 30 29  1  0  0  0  0
 31 34  1  0  0  0  0
 31 32  1  0  0  0  0
 32 33  1  0  0  0  0
 33 29  1  0  0  0  0
 34 30  1  0  0  0  0
M  END
>  <MODEL>
5

>  <REMARK>
 VINA RESULT:     -11.4      2.850      6.080
  Name = 
  3 active torsions:
  status: ('A' for Active; 'I' for Inactive)
    1  A    between atoms: N_3  and  C_13
    2  A    between atoms: C_10  and  N_17
    3  A    between atoms: C_12  and  C_28
                            x       y       z     vdW  Elec       q    Type
                         _______ _______ _______ _____ _____    ______ ____

>  <TORSDO>
F 3

$$$$
=
 OpenBabel11052414163D

 34 40  0  0  1  0  0  0  0  0999 V2000
  188.9880  177.4670  146.2140 C   0  0  0  0  0  0  0  0  0  0  0  0
  186.6400  178.1380  145.8250 C   0  0  0  0  0  0  0  0  0  0  0  0
  188.1720  177.5430  143.9810 C   0  0  0  0  0  0  0  0  0  0  0  0
  187.2250  178.1470  140.6170 C   0  0  0  0  0  3  0  0  0  0  0  0
  187.5320  177.9130  148.0880 C   0  0  0  0  0  3  0  0  0  0  0  0
  186.4810  178.2090  147.2150 C   0  0  0  0  0  3  0  0  0  0  0  0
  185.2660  178.7120  143.6830 C   0  0  0  0  0  0  0  0  0  0  0  0
  187.9060  177.7220  145.3250 C   0  0  0  0  0  0  0  0  0  0  0  0
  186.0280  178.5660  141.3090 O   0  0  0  0  0  0  0  0  0  0  0  0
  188.7850  177.5560  147.5900 C   0  0  0  0  0  2  0  0  0  0  0  0
  189.4240  177.2640  143.4620 C   0  0  0  0  0  0  0  0  0  0  0  0
  190.2700  177.1420  145.7110 C   0  0  0  0  0  3  0  0  0  0  0  0
  185.5210  178.5650  145.0700 C   0  0  0  0  0  3  0  0  0  0  0  0
  188.0270  177.5800  141.7440 C   0  0  0  0  0  0  0  0  0  0  0  0
  189.3640  177.3170  142.0510 C   0  0  0  0  0  0  0  0  0  0  0  0
  186.1570  178.3300  142.6830 C   0  0  0  0  0  0  0  0  0  0  0  0
  187.3260  177.7060  142.8730 C   0  0  0  0  0  0  0  0  0  0  0  0
  190.5030  177.0580  144.3230 C   0  0  0  0  0  3  0  0  0  0  0  0
  191.3370  176.7500  138.8650 C   0  0  0  0  0  0  0  0  0  0  0  0
  192.6280  177.0900  139.2780 C   0  0  0  0  0  3  0  0  0  0  0  0
  190.4870  177.2340  141.0920 C   0  0  0  0  0  0  0  0  0  0  0  0
  192.8530  177.5030  140.5930 C   0  0  0  0  0  3  0  0  0  0  0  0
  190.2730  176.8230  139.7670 C   0  0  0  0  0  3  0  0  0  0  0  0
  191.7870  177.5750  141.4950 C   0  0  0  0  0  3  0  0  0  0  0  0
  191.1120  176.3410  137.5570 O   0  0  0  0  0  1  0  0  0  0  0  0
  183.1120  178.5930  142.7120 N   0  0  0  0  0  0  0  0  0  0  0  0
  184.0250  179.2870  143.2640 N   0  0  0  0  0  0  0  0  0  0  0  0
  180.8430  178.4940  144.3450 O   0  0  0  0  0  0  0  0  0  0  0  0
  181.8620  179.2100  142.2990 C   0  0  2  0  0  3  0  0  0  0  0  0
  180.7160  178.6550  143.1030 C   0  0  0  0  0  0  0  0  0  0  0  0
  179.2890  178.3810  141.0960 C   0  0  0  0  0  2  0  0  0  0  0  0
  180.2290  179.3510  140.3950 C   0  0  0  0  0  2  0  0  0  0  0  0
  181.6540  179.0030  140.7970 C   0  0  0  0  0  2  0  0  0  0  0  0
  179.4670  178.4320  142.5100 O   0  0  0  0  0  0  0  0  0  0  0  0
  1 10  1  0  0  0  0
  2  6  1  0  0  0  0
  3  8  1  0  0  0  0
  4  9  1  0  0  0  0
  4 14  2  0  0  0  0
  6  5  2  0  0  0  0
  7 13  1  0  0  0  0
  8  2  1  0  0  0  0
  8  1  2  0  0  0  0
  9 16  1  0  0  0  0
 10  5  1  0  0  0  0
 11  3  1  0  0  0  0
 11 18  1  0  0  0  0
 12  1  1  0  0  0  0
 13  2  2  0  0  0  0
 14 15  1  0  0  0  0
 14 17  1  0  0  0  0
 15 11  2  0  0  0  0
 16 17  1  0  0  0  0
 16  7  2  0  0  0  0
 17  3  2  0  0  0  0
 18 12  2  0  0  0  0
 19 20  2  0  0  0  0
 19 23  1  0  0  0  0
 20 22  1  0  0  0  0
 21 24  1  0  0  0  0
 21 15  1  0  0  0  0
 22 24  2  0  0  0  0
 23 21  2  0  0  0  0
 25 19  1  0  0  0  0
 26 27  2  0  0  0  0
 27  7  1  0  0  0  0
 29 26  1  1  0  0  0
 29 30  1  0  0  0  0
 30 28  2  0  0  0  0
 31 34  1  0  0  0  0
 32 33  1  0  0  0  0
 32 31  1  0  0  0  0
 33 29  1  0  0  0  0
 34 30  1  0  0  0  0
M  END
>  <MODEL>
6

>  <REMARK>
 VINA RESULT:     -11.4      2.616      8.029
  Name = 
  3 active torsions:
  status: ('A' for Active; 'I' for Inactive)
    1  A    between atoms: N_3  and  C_13
    2  A    between atoms: C_10  and  N_17
    3  A    between atoms: C_12  and  C_28
                            x       y       z     vdW  Elec       q    Type
                         _______ _______ _______ _____ _____    ______ ____

>  <TORSDO>
F 3

$$$$
=
 OpenBabel11052414163D

 34 40  0  0  1  0  0  0  0  0999 V2000
  184.2460  178.6250  142.7620 C   0  0  0  0  0  0  0  0  0  0  0  0
  185.4760  178.4620  140.6230 C   0  0  0  0  0  0  0  0  0  0  0  0
  186.5260  177.9510  142.8000 C   0  0  0  0  0  0  0  0  0  0  0  0
  190.0340  177.4720  143.0140 C   0  0  0  0  0  3  0  0  0  0  0  0
  183.1010  179.0280  140.6750 C   0  0  0  0  0  3  0  0  0  0  0  0
  184.2830  178.7930  139.9670 C   0  0  0  0  0  3  0  0  0  0  0  0
  187.9880  178.1030  140.0180 C   0  0  0  0  0  0  0  0  0  0  0  0
  185.4390  178.3400  142.0410 C   0  0  0  0  0  0  0  0  0  0  0  0
  189.8780  177.6600  141.5900 O   0  0  0  0  0  0  0  0  0  0  0  0
  183.0840  178.9570  142.0670 C   0  0  0  0  0  2  0  0  0  0  0  0
  186.5530  177.9470  144.1830 C   0  0  0  0  0  0  0  0  0  0  0  0
  184.2360  178.5920  144.1770 C   0  0  0  0  0  3  0  0  0  0  0  0
  186.6120  178.3560  139.7850 C   0  0  0  0  0  3  0  0  0  0  0  0
  188.6080  177.4380  143.4580 C   0  0  0  0  0  0  0  0  0  0  0  0
  187.8660  177.6610  144.6210 C   0  0  0  0  0  0  0  0  0  0  0  0
  188.5220  177.7900  141.2650 C   0  0  0  0  0  0  0  0  0  0  0  0
  187.8230  177.6000  142.3910 C   0  0  0  0  0  0  0  0  0  0  0  0
  185.4020  178.2710  144.9020 C   0  0  0  0  0  3  0  0  0  0  0  0
  190.2130  177.4050  147.5860 C   0  0  0  0  0  0  0  0  0  0  0  0
  189.3740  177.7940  148.6340 C   0  0  0  0  0  3  0  0  0  0  0  0
  188.3900  177.7020  146.0050 C   0  0  0  0  0  0  0  0  0  0  0  0
  188.0460  178.1390  148.3730 C   0  0  0  0  0  3  0  0  0  0  0  0
  189.7230  177.3610  146.2790 C   0  0  0  0  0  3  0  0  0  0  0  0
  187.5570  178.0940  147.0640 C   0  0  0  0  0  3  0  0  0  0  0  0
  191.5330  177.0620  147.8450 O   0  0  0  0  0  1  0  0  0  0  0  0
  189.2560  177.1380  138.2700 N   0  0  0  0  0  0  0  0  0  0  0  0
  188.9010  178.1740  138.9180 N   0  0  0  0  0  0  0  0  0  0  0  0
  188.3380  177.4510  135.6470 O   0  0  0  0  0  0  0  0  0  0  0  0
  190.1860  177.2450  137.1580 C   0  0  2  0  0  3  0  0  0  0  0  0
  189.4790  176.9610  135.8580 C   0  0  0  0  0  0  0  0  0  0  0  0
  191.3080  175.4990  135.0490 C   0  0  0  0  0  2  0  0  0  0  0  0
  192.1880  176.1530  136.1030 C   0  0  0  0  0  2  0  0  0  0  0  0
  191.3700  176.3000  137.3770 C   0  0  0  0  0  2  0  0  0  0  0  0
  190.1240  176.2630  134.8300 O   0  0  0  0  0  0  0  0  0  0  0  0
  1 12  1  0  0  0  0
  2  8  1  0  0  0  0
  3 11  1  0  0  0  0
  4 14  2  0  0  0  0
  5 10  1  0  0  0  0
  6  2  1  0  0  0  0
  6  5  2  0  0  0  0
  7 16  2  0  0  0  0
  8  1  2  0  0  0  0
  8  3  1  0  0  0  0
  9  4  1  0  0  0  0
 10  1  1  0  0  0  0
 11 15  2  0  0  0  0
 11 18  1  0  0  0  0
 12 18  2  0  0  0  0
 13  7  1  0  0  0  0
 13  2  2  0  0  0  0
 14 15  1  0  0  0  0
 15 21  1  0  0  0  0
 16  9  1  0  0  0  0
 16 17  1  0  0  0  0
 17  3  2  0  0  0  0
 17 14  1  0  0  0  0
 19 25  1  0  0  0  0
 19 20  1  0  0  0  0
 21 23  1  0  0  0  0
 21 24  2  0  0  0  0
 22 20  2  0  0  0  0
 23 19  2  0  0  0  0
 24 22  1  0  0  0  0
 26 27  2  0  0  0  0
 27  7  1  0  0  0  0
 28 30  2  0  0  0  0
 29 33  1  0  0  0  0
 29 26  1  1  0  0  0
 30 29  1  0  0  0  0
 31 32  1  0  0  0  0
 32 33  1  0  0  0  0
 34 31  1  0  0  0  0
 34 30  1  0  0  0  0
M  END
>  <MODEL>
7

>  <REMARK>
 VINA RESULT:     -11.1      2.295      5.445
  Name = 
  3 active torsions:
  status: ('A' for Active; 'I' for Inactive)
    1  A    between atoms: N_3  and  C_13
    2  A    between atoms: C_10  and  N_17
    3  A    between atoms: C_12  and  C_28
                            x       y       z     vdW  Elec       q    Type
                         _______ _______ _______ _____ _____    ______ ____

>  <TORSDO>
F 3

$$$$
=
 OpenBabel11052414163D

 34 40  0  0  1  0  0  0  0  0999 V2000
  186.4420  178.1010  146.6310 C   0  0  0  0  0  0  0  0  0  0  0  0
  186.5870  178.0980  144.1630 C   0  0  0  0  0  0  0  0  0  0  0  0
  188.4390  177.3240  145.6020 C   0  0  0  0  0  0  0  0  0  0  0  0
  191.6290  176.6690  144.1960 C   0  0  0  0  0  3  0  0  0  0  0  0
  184.5340  178.7620  145.3070 C   0  0  0  0  0  3  0  0  0  0  0  0
  185.2600  178.5470  144.1330 C   0  0  0  0  0  3  0  0  0  0  0  0
  188.5370  177.6890  142.4780 C   0  0  0  0  0  0  0  0  0  0  0  0
  187.1670  177.8360  145.4360 C   0  0  0  0  0  0  0  0  0  0  0  0
  190.8790  177.0060  143.0080 O   0  0  0  0  0  0  0  0  0  0  0  0
  185.1260  178.5520  146.5520 C   0  0  0  0  0  2  0  0  0  0  0  0
  189.0720  177.1800  146.8240 C   0  0  0  0  0  0  0  0  0  0  0  0
  187.0520  177.9260  147.8960 C   0  0  0  0  0  3  0  0  0  0  0  0
  187.2250  178.0260  142.9010 C   0  0  0  0  0  3  0  0  0  0  0  0
  190.5470  176.6550  145.2260 C   0  0  0  0  0  0  0  0  0  0  0  0
  190.4140  176.7930  146.6100 C   0  0  0  0  0  0  0  0  0  0  0  0
  189.5350  177.2280  143.3310 C   0  0  0  0  0  0  0  0  0  0  0  0
  189.3900  176.9580  144.6350 C   0  0  0  0  0  0  0  0  0  0  0  0
  188.3860  177.4820  148.0010 C   0  0  0  0  0  3  0  0  0  0  0  0
  192.7760  177.5890  149.4650 C   0  0  0  0  0  0  0  0  0  0  0  0
  193.5420  176.4220  149.5200 C   0  0  0  0  0  3  0  0  0  0  0  0
  191.4940  176.6710  147.6140 C   0  0  0  0  0  0  0  0  0  0  0  0
  193.2890  175.3780  148.6270 C   0  0  0  0  0  3  0  0  0  0  0  0
  191.7570  177.7110  148.5180 C   0  0  0  0  0  3  0  0  0  0  0  0
  192.2690  175.5020  147.6790 C   0  0  0  0  0  3  0  0  0  0  0  0
  193.0270  178.6260  150.3530 O   0  0  0  0  0  1  0  0  0  0  0  0
  187.9910  178.0340  140.2030 N   0  0  0  0  0  0  0  0  0  0  0  0
  188.8750  177.8290  141.0950 N   0  0  0  0  0  0  0  0  0  0  0  0
  186.0920  178.6620  138.2470 O   0  0  0  0  0  0  0  0  0  0  0  0
  188.3700  178.1700  138.8050 C   0  0  2  0  0  3  0  0  0  0  0  0
  187.1530  178.0650  137.9230 C   0  0  0  0  0  0  0  0  0  0  0  0
  188.2930  176.5430  136.3350 C   0  0  0  0  0  2  0  0  0  0  0  0
  189.6030  177.0240  136.9400 C   0  0  0  0  0  2  0  0  0  0  0  0
  189.4210  177.1170  138.4480 C   0  0  0  0  0  2  0  0  0  0  0  0
  187.2210  177.4160  136.6850 O   0  0  0  0  0  0  0  0  0  0  0  0
  1 12  1  0  0  0  0
  2  8  1  0  0  0  0
  3 11  1  0  0  0  0
  4 14  2  0  0  0  0
  5 10  1  0  0  0  0
  6  2  1  0  0  0  0
  6  5  2  0  0  0  0
  7 13  1  0  0  0  0
  7 16  2  0  0  0  0
  8  3  1  0  0  0  0
  8  1  2  0  0  0  0
  9 16  1  0  0  0  0
  9  4  1  0  0  0  0
 10  1  1  0  0  0  0
 11 18  1  0  0  0  0
 12 18  2  0  0  0  0
 13  2  2  0  0  0  0
 14 15  1  0  0  0  0
 15 11  2  0  0  0  0
 15 21  1  0  0  0  0
 16 17  1  0  0  0  0
 17 14  1  0  0  0  0
 17  3  2  0  0  0  0
 19 20  1  0  0  0  0
 19 25  1  0  0  0  0
 21 24  2  0  0  0  0
 21 23  1  0  0  0  0
 22 20  2  0  0  0  0
 23 19  2  0  0  0  0
 24 22  1  0  0  0  0
 26 27  2  0  0  0  0
 27  7  1  0  0  0  0
 29 26  1  1  0  0  0
 30 28  2  0  0  0  0
 30 29  1  0  0  0  0
 31 34  1  0  0  0  0
 31 32  1  0  0  0  0
 32 33  1  0  0  0  0
 33 29  1  0  0  0  0
 34 30  1  0  0  0  0
M  END
>  <MODEL>
8

>  <REMARK>
 VINA RESULT:     -10.7      2.935      6.666
  Name = 
  3 active torsions:
  status: ('A' for Active; 'I' for Inactive)
    1  A    between atoms: N_3  and  C_13
    2  A    between atoms: C_10  and  N_17
    3  A    between atoms: C_12  and  C_28
                            x       y       z     vdW  Elec       q    Type
                         _______ _______ _______ _____ _____    ______ ____

>  <TORSDO>
F 3

$$$$
=
 OpenBabel11052414163D

 34 40  0  0  1  0  0  0  0  0999 V2000
  183.4880  178.8530  142.3530 C   0  0  0  0  0  0  0  0  0  0  0  0
  185.3020  178.4960  143.9950 C   0  0  0  0  0  0  0  0  0  0  0  0
  185.7120  178.5690  141.5600 C   0  0  0  0  0  0  0  0  0  0  0  0
  188.8720  177.6200  140.2590 C   0  0  0  0  0  3  0  0  0  0  0  0
  183.0070  178.9180  144.7180 C   0  0  0  0  0  3  0  0  0  0  0  0
  184.3500  178.6580  145.0100 C   0  0  0  0  0  3  0  0  0  0  0  0
  187.8130  177.8230  143.7790 C   0  0  0  0  0  0  0  0  0  0  0  0
  184.8630  178.6360  142.6480 C   0  0  0  0  0  0  0  0  0  0  0  0
  189.1200  177.4960  141.6770 O   0  0  0  0  0  0  0  0  0  0  0  0
  182.5750  179.0030  143.3950 C   0  0  0  0  0  2  0  0  0  0  0  0
  185.2950  178.5750  140.2410 C   0  0  0  0  0  0  0  0  0  0  0  0
  183.0400  178.9020  141.0120 C   0  0  0  0  0  3  0  0  0  0  0  0
  186.5970  178.1340  144.4390 C   0  0  0  0  0  3  0  0  0  0  0  0
  187.5040  178.2210  140.2570 C   0  0  0  0  0  0  0  0  0  0  0  0
  186.4030  178.3220  139.4020 C   0  0  0  0  0  0  0  0  0  0  0  0
  187.9970  177.9110  142.4020 C   0  0  0  0  0  0  0  0  0  0  0  0
  187.1020  178.3730  141.5210 C   0  0  0  0  0  0  0  0  0  0  0  0
  183.9420  178.7410  139.9400 C   0  0  0  0  0  3  0  0  0  0  0  0
  185.3850  177.1270  135.9520 C   0  0  0  0  0  0  0  0  0  0  0  0
  186.4050  177.6660  135.1630 C   0  0  0  0  0  3  0  0  0  0  0  0
  186.4010  178.0900  137.9400 C   0  0  0  0  0  0  0  0  0  0  0  0
  187.4230  178.4170  135.7570 C   0  0  0  0  0  3  0  0  0  0  0  0
  185.3830  177.3400  137.3330 C   0  0  0  0  0  3  0  0  0  0  0  0
  187.4200  178.6280  137.1390 C   0  0  0  0  0  3  0  0  0  0  0  0
  184.3720  176.3810  135.3630 O   0  0  0  0  0  1  0  0  0  0  0  0
  189.9740  178.1010  144.7010 N   0  0  0  0  0  0  0  0  0  0  0  0
  188.9310  177.3860  144.5590 N   0  0  0  0  0  0  0  0  0  0  0  0
  191.8470  176.3120  143.6440 O   0  0  0  0  0  0  0  0  0  0  0  0
  191.0920  177.6250  145.5000 C   0  0  2  0  0  3  0  0  0  0  0  0
  191.6750  176.3770  144.8900 C   0  0  0  0  0  0  0  0  0  0  0  0
  191.8070  175.2290  147.0810 C   0  0  0  0  0  2  0  0  0  0  0  0
  191.6810  176.6040  147.7190 C   0  0  0  0  0  2  0  0  0  0  0  0
  190.6370  177.3910  146.9420 C   0  0  0  0  0  2  0  0  0  0  0  0
  192.1460  175.3370  145.7000 O   0  0  0  0  0  0  0  0  0  0  0  0
  1  8  2  0  0  0  0
  1 10  1  0  0  0  0
  2 13  2  0  0  0  0
  2  6  1  0  0  0  0
  3  8  1  0  0  0  0
  4  9  1  0  0  0  0
  5  6  2  0  0  0  0
  7 13  1  0  0  0  0
  7 27  1  0  0  0  0
  8  2  1  0  0  0  0
  9 16  1  0  0  0  0
 10  5  1  0  0  0  0
 11  3  1  0  0  0  0
 12  1  1  0  0  0  0
 14  4  2  0  0  0  0
 14 17  1  0  0  0  0
 15 11  2  0  0  0  0
 15 14  1  0  0  0  0
 16  7  2  0  0  0  0
 17  3  2  0  0  0  0
 17 16  1  0  0  0  0
 18 11  1  0  0  0  0
 18 12  2  0  0  0  0
 19 23  1  0  0  0  0
 20 22  1  0  0  0  0
 20 19  2  0  0  0  0
 21 15  1  0  0  0  0
 22 24  2  0  0  0  0
 23 21  2  0  0  0  0
 24 21  1  0  0  0  0
 25 19  1  0  0  0  0
 27 26  2  0  0  0  0
 28 30  2  0  0  0  0
 29 26  1  6  0  0  0
 29 33  1  0  0  0  0
 30 29  1  0  0  0  0
 30 34  1  0  0  0  0
 31 32  1  0  0  0  0
 33 32  1  0  0  0  0
 34 31  1  0  0  0  0
M  END
>  <MODEL>
9

>  <REMARK>
 VINA RESULT:     -10.5      3.205      6.590
  Name = 
  3 active torsions:
  status: ('A' for Active; 'I' for Inactive)
    1  A    between atoms: N_3  and  C_13
    2  A    between atoms: C_10  and  N_17
    3  A    between atoms: C_12  and  C_28
                            x       y       z     vdW  Elec       q    Type
                         _______ _______ _______ _____ _____    ______ ____

>  <TORSDO>
F 3

$$$$
