=
 OpenBabel11052414063D

 34 40  0  0  1  0  0  0  0  0999 V2000
  184.0990  178.5040  143.7520 C   0  0  0  0  0  0  0  0  0  0  0  0
  184.6750  178.6260  141.3860 C   0  0  0  0  0  0  0  0  0  0  0  0
  186.3910  178.1010  143.0510 C   0  0  0  0  0  0  0  0  0  0  0  0
  188.6930  177.6780  142.4370 C   0  0  0  0  0  0  0  0  0  0  0  0
  182.3940  179.0200  142.1160 C   0  0  0  0  0  3  0  0  0  0  0  0
  183.3420  178.9290  141.0920 C   0  0  0  0  0  3  0  0  0  0  0  0
  187.0690  178.1940  140.6960 C   0  0  0  0  0  0  0  0  0  0  0  0
  185.0610  178.4100  142.7240 C   0  0  0  0  0  0  0  0  0  0  0  0
  188.1000  178.0670  139.7460 C   0  0  0  0  0  0  0  0  0  0  0  0
  189.6780  177.5640  141.4580 C   0  0  0  0  0  2  0  0  0  0  0  0
  182.7710  178.8080  143.4450 C   0  0  0  0  0  3  0  0  0  0  0  0
  186.7370  177.8930  144.4050 C   0  0  0  0  0  0  0  0  0  0  0  0
  184.4860  178.2900  145.0760 C   0  0  0  0  0  3  0  0  0  0  0  0
  185.6650  178.5440  140.2570 C   0  0  0  0  0  3  0  0  0  0  0  0
  189.0020  177.4820  143.7460 N   0  0  0  0  0  0  0  0  0  0  0  0
  188.0730  177.5800  144.7350 C   0  0  0  0  0  0  0  0  0  0  0  0
  189.3640  177.7570  140.1510 N   0  0  0  0  0  0  0  0  0  0  0  0
  187.3760  177.9940  142.0560 C   0  0  0  0  0  0  0  0  0  0  0  0
  185.7790  177.9940  145.3700 N   0  0  0  0  0  0  0  0  0  0  0  0
  190.4750  176.9980  147.6830 C   0  0  1  0  0  3  0  0  0  0  0  0
  189.9240  178.0770  148.6120 C   0  0  0  0  0  2  0  0  0  0  0  0
  188.5230  177.3440  146.1470 C   0  0  1  0  0  3  0  0  0  0  0  0
  188.4010  178.1130  148.5300 C   0  0  0  0  0  2  0  0  0  0  0  0
  190.0480  177.2700  146.2440 C   0  0  0  0  0  2  0  0  0  0  0  0
  187.9550  178.3990  147.0990 C   0  0  0  0  0  2  0  0  0  0  0  0
  191.8660  176.9830  147.7600 O   0  0  0  0  0  1  0  0  0  0  0  0
  187.8340  178.2470  138.2850 C   0  0  0  0  0  2  0  0  0  0  0  0
  190.0280  176.9180  136.8210 N   0  0  0  0  0  1  0  0  0  0  0  0
  187.6820  176.8990  137.5790 C   0  0  2  0  0  3  0  0  0  0  0  0
  188.6470  176.7720  136.3920 C   0  0  1  0  0  3  0  0  0  0  0  0
  186.8400  178.0930  135.1410 C   0  0  0  0  0  2  0  0  0  0  0  0
  185.9720  176.9450  135.6460 C   0  0  0  0  0  2  0  0  0  0  0  0
  186.2220  176.6780  137.1360 C   0  0  0  0  0  2  0  0  0  0  0  0
  188.3340  177.7610  135.2580 C   0  0  0  0  0  2  0  0  0  0  0  0
  1 13  1  0  0  0  0
  2  8  1  0  0  0  0
  3 12  1  0  0  0  0
  4 15  2  0  0  0  0
  5 11  1  0  0  0  0
  6  2  1  0  0  0  0
  6  5  2  0  0  0  0
  7 18  2  0  0  0  0
  8  3  2  0  0  0  0
  8  1  1  0  0  0  0
  9 17  2  0  0  0  0
  9  7  1  0  0  0  0
 10  4  1  0  0  0  0
 11  1  2  0  0  0  0
 12 16  2  0  0  0  0
 12 19  1  0  0  0  0
 13 19  2  0  0  0  0
 14  7  1  0  0  0  0
 14  2  2  0  0  0  0
 15 16  1  0  0  0  0
 17 10  1  0  0  0  0
 18  4  1  0  0  0  0
 18  3  1  0  0  0  0
 20 26  1  6  0  0  0
 20 21  1  0  0  0  0
 22 16  1  6  0  0  0
 22 24  1  0  0  0  0
 22 25  1  0  0  0  0
 23 21  1  0  0  0  0
 24 20  1  0  0  0  0
 25 23  1  0  0  0  0
 27  9  1  0  0  0  0
 29 27  1  6  0  0  0
 30 28  1  1  0  0  0
 30 29  1  0  0  0  0
 31 34  1  0  0  0  0
 31 32  1  0  0  0  0
 32 33  1  0  0  0  0
 33 29  1  0  0  0  0
 34 30  1  0  0  0  0
M  END
>  <MODEL>
1

>  <REMARK>
 VINA RESULT:     -10.5      0.000      0.000
  Name = 
  3 active torsions:
  status: ('A' for Active; 'I' for Inactive)
    1  A    between atoms: C_3  and  C_13
    2  A    between atoms: C_3  and  C_17
    3  A    between atoms: C_12  and  C_28
                            x       y       z     vdW  Elec       q    Type
                         _______ _______ _______ _____ _____    ______ ____

>  <TORSDO>
F 3

$$$$
=
 OpenBabel11052414063D

 34 40  0  0  1  0  0  0  0  0999 V2000
  186.6830  178.1550  138.5560 C   0  0  0  0  0  0  0  0  0  0  0  0
  186.6570  178.5240  140.9660 C   0  0  0  0  0  0  0  0  0  0  0  0
  188.6660  177.6540  139.8690 C   0  0  0  0  0  0  0  0  0  0  0  0
  190.6840  177.1380  141.1010 C   0  0  0  0  0  0  0  0  0  0  0  0
  184.6940  179.0180  139.6270 C   0  0  0  0  0  3  0  0  0  0  0  0
  185.3370  178.9760  140.8680 C   0  0  0  0  0  3  0  0  0  0  0  0
  188.7420  177.9960  142.2960 C   0  0  0  0  0  0  0  0  0  0  0  0
  187.3390  178.1110  139.8040 C   0  0  0  0  0  0  0  0  0  0  0  0
  189.4880  177.9220  143.4890 C   0  0  0  0  0  0  0  0  0  0  0  0
  191.3790  177.0840  142.3080 C   0  0  0  0  0  3  0  0  0  0  0  0
  185.3650  178.6090  138.4720 C   0  0  0  0  0  3  0  0  0  0  0  0
  189.3140  177.2480  138.6820 C   0  0  0  0  0  0  0  0  0  0  0  0
  187.3620  177.7450  137.4090 C   0  0  0  0  0  3  0  0  0  0  0  0
  187.3120  178.4880  142.3200 C   0  0  0  0  0  3  0  0  0  0  0  0
  191.2860  176.7530  139.9460 N   0  0  0  0  0  2  0  0  0  0  0  0
  190.6480  176.7920  138.7450 C   0  0  0  0  0  0  0  0  0  0  0  0
  190.7740  177.4740  143.4600 N   0  0  0  0  0  0  0  0  0  0  0  0
  189.3550  177.5990  141.0920 C   0  0  0  0  0  0  0  0  0  0  0  0
  188.6450  177.3050  137.4940 N   0  0  0  0  0  0  0  0  0  0  0  0
  193.6620  176.0560  136.4710 C   0  0  1  0  0  3  0  0  0  0  0  0
  193.2980  174.6180  136.1080 C   0  0  0  0  0  2  0  0  0  0  0  0
  191.4070  176.3430  137.5310 C   0  0  1  0  0  3  0  0  0  0  0  0
  191.7940  174.4990  135.8780 C   0  0  0  0  0  2  0  0  0  0  0  0
  192.9180  176.4880  137.7300 C   0  0  0  0  0  2  0  0  0  0  0  0
  191.0340  174.9130  137.1340 C   0  0  0  0  0  2  0  0  0  0  0  0
  195.0350  176.1490  136.6870 O   0  0  0  0  0  1  0  0  0  0  0  0
  188.9010  178.3480  144.7970 C   0  0  0  0  0  2  0  0  0  0  0  0
  186.0660  177.6010  145.1610 N   0  0  0  0  0  1  0  0  0  0  0  0
  188.4450  177.1420  145.6200 C   0  0  2  0  0  3  0  0  0  0  0  0
  187.0440  177.3580  146.2080 C   0  0  1  0  0  3  0  0  0  0  0  0
  188.3120  178.6380  148.0320 C   0  0  0  0  0  2  0  0  0  0  0  0
  189.0660  177.3160  148.1190 C   0  0  0  0  0  2  0  0  0  0  0  0
  189.4700  176.8180  146.7250 C   0  0  0  0  0  2  0  0  0  0  0  0
  187.0000  178.4870  147.2500 C   0  0  0  0  0  2  0  0  0  0  0  0
  1  8  2  0  0  0  0
  2 14  1  0  0  0  0
  3 18  2  0  0  0  0
  4 10  2  0  0  0  0
  5  6  1  0  0  0  0
  6  2  2  0  0  0  0
  7 14  2  0  0  0  0
  7  9  1  0  0  0  0
  8  3  1  0  0  0  0
  8  2  1  0  0  0  0
  9 27  1  0  0  0  0
 10 17  1  0  0  0  0
 11  1  1  0  0  0  0
 11  5  2  0  0  0  0
 12 16  2  0  0  0  0
 12  3  1  0  0  0  0
 13 19  2  0  0  0  0
 13  1  1  0  0  0  0
 15  4  1  0  0  0  0
 16 15  1  0  0  0  0
 17  9  2  0  0  0  0
 18  4  1  0  0  0  0
 18  7  1  0  0  0  0
 19 12  1  0  0  0  0
 20 26  1  1  0  0  0
 20 24  1  0  0  0  0
 21 20  1  0  0  0  0
 22 24  1  0  0  0  0
 22 16  1  1  0  0  0
 23 21  1  0  0  0  0
 23 25  1  0  0  0  0
 25 22  1  0  0  0  0
 29 27  1  1  0  0  0
 29 30  1  0  0  0  0
 29 33  1  0  0  0  0
 30 28  1  6  0  0  0
 30 34  1  0  0  0  0
 31 32  1  0  0  0  0
 33 32  1  0  0  0  0
 34 31  1  0  0  0  0
M  END
>  <MODEL>
2

>  <REMARK>
 VINA RESULT:     -10.1      2.904      8.059
  Name = 
  3 active torsions:
  status: ('A' for Active; 'I' for Inactive)
    1  A    between atoms: C_3  and  C_13
    2  A    between atoms: C_3  and  C_17
    3  A    between atoms: C_12  and  C_28
                            x       y       z     vdW  Elec       q    Type
                         _______ _______ _______ _____ _____    ______ ____

>  <TORSDO>
F 3

$$$$
=
 OpenBabel11052414063D

 34 40  0  0  1  0  0  0  0  0999 V2000
  186.3150  178.0710  145.8040 C   0  0  0  0  0  0  0  0  0  0  0  0
  187.9260  177.8820  143.9830 C   0  0  0  0  0  0  0  0  0  0  0  0
  185.5870  178.4290  143.5130 C   0  0  0  0  0  0  0  0  0  0  0  0
  184.7810  178.8090  141.2630 C   0  0  0  0  0  0  0  0  0  0  0  0
  188.6240  177.5340  146.2820 C   0  0  0  0  0  3  0  0  0  0  0  0
  188.9250  177.5880  144.9170 C   0  0  0  0  0  3  0  0  0  0  0  0
  187.1310  178.2680  141.6140 C   0  0  0  0  0  0  0  0  0  0  0  0
  186.6110  178.1280  144.4250 C   0  0  0  0  0  0  0  0  0  0  0  0
  187.3230  178.3590  140.2220 C   0  0  0  0  0  0  0  0  0  0  0  0
  185.0240  178.8860  139.8930 C   0  0  0  0  0  2  0  0  0  0  0  0
  187.3220  177.7750  146.7260 C   0  0  0  0  0  3  0  0  0  0  0  0
  184.2810  178.6670  143.9970 C   0  0  0  0  0  0  0  0  0  0  0  0
  185.0110  178.3130  146.2360 C   0  0  0  0  0  3  0  0  0  0  0  0
  188.2890  177.9240  142.5240 C   0  0  0  0  0  3  0  0  0  0  0  0
  183.5340  179.0340  141.7510 N   0  0  0  0  0  0  0  0  0  0  0  0
  183.2520  178.9730  143.0800 C   0  0  0  0  0  0  0  0  0  0  0  0
  186.2730  178.6640  139.4090 N   0  0  0  0  0  0  0  0  0  0  0  0
  185.8420  178.4990  142.1340 C   0  0  0  0  0  0  0  0  0  0  0  0
  184.0350  178.6020  145.3360 N   0  0  0  0  0  0  0  0  0  0  0  0
  179.6450  180.3030  142.9240 C   0  0  1  0  0  3  0  0  0  0  0  0
  178.9310  178.9980  143.2670 C   0  0  0  0  0  2  0  0  0  0  0  0
  181.8390  179.2390  143.5120 C   0  0  1  0  0  3  0  0  0  0  0  0
  179.6960  178.2510  144.3560 C   0  0  0  0  0  2  0  0  0  0  0  0
  181.0650  180.0180  142.4460 C   0  0  0  0  0  2  0  0  0  0  0  0
  181.1150  177.9450  143.8890 C   0  0  0  0  0  2  0  0  0  0  0  0
  178.9430  180.9700  141.9230 O   0  0  0  0  0  1  0  0  0  0  0  0
  188.6720  178.1450  139.6110 C   0  0  0  0  0  2  0  0  0  0  0  0
  191.0630  176.6060  140.4090 N   0  0  0  0  0  1  0  0  0  0  0  0
  188.8890  176.6750  139.2480 C   0  0  2  0  0  3  0  0  0  0  0  0
  190.3830  176.3320  139.1550 C   0  0  1  0  0  3  0  0  0  0  0  0
  190.1730  177.3080  136.7930 C   0  0  0  0  0  2  0  0  0  0  0  0
  189.0640  176.2650  136.7050 C   0  0  0  0  0  2  0  0  0  0  0  0
  188.1540  176.3230  137.9400 C   0  0  0  0  0  2  0  0  0  0  0  0
  191.0900  177.0530  137.9970 C   0  0  0  0  0  2  0  0  0  0  0  0
  1 13  1  0  0  0  0
  1 11  2  0  0  0  0
  2  8  1  0  0  0  0
  2  6  1  0  0  0  0
  3 12  1  0  0  0  0
  3  8  2  0  0  0  0
  4 15  2  0  0  0  0
  4 18  1  0  0  0  0
  5 11  1  0  0  0  0
  6  5  2  0  0  0  0
  7 18  2  0  0  0  0
  7 14  1  0  0  0  0
  8  1  1  0  0  0  0
  9  7  1  0  0  0  0
 10  4  1  0  0  0  0
 12 19  1  0  0  0  0
 14  2  2  0  0  0  0
 15 16  1  0  0  0  0
 16 12  2  0  0  0  0
 17 10  1  0  0  0  0
 17  9  2  0  0  0  0
 18  3  1  0  0  0  0
 19 13  2  0  0  0  0
 20 26  1  6  0  0  0
 20 21  1  0  0  0  0
 21 23  1  0  0  0  0
 22 16  1  6  0  0  0
 22 25  1  0  0  0  0
 24 20  1  0  0  0  0
 24 22  1  0  0  0  0
 25 23  1  0  0  0  0
 27  9  1  0  0  0  0
 29 27  1  6  0  0  0
 30 29  1  0  0  0  0
 30 28  1  1  0  0  0
 31 34  1  0  0  0  0
 32 31  1  0  0  0  0
 32 33  1  0  0  0  0
 33 29  1  0  0  0  0
 34 30  1  0  0  0  0
M  END
>  <MODEL>
3

>  <REMARK>
 VINA RESULT:     -10.1      3.113      5.999
  Name = 
  3 active torsions:
  status: ('A' for Active; 'I' for Inactive)
    1  A    between atoms: C_3  and  C_13
    2  A    between atoms: C_3  and  C_17
    3  A    between atoms: C_12  and  C_28
                            x       y       z     vdW  Elec       q    Type
                         _______ _______ _______ _____ _____    ______ ____

>  <TORSDO>
F 3

$$$$
=
 OpenBabel11052414063D

 34 40  0  0  1  0  0  0  0  0999 V2000
  185.5300  178.2510  145.3820 C   0  0  0  0  0  0  0  0  0  0  0  0
  184.1810  178.8220  143.4320 C   0  0  0  0  0  0  0  0  0  0  0  0
  186.5320  178.1930  143.1680 C   0  0  0  0  0  0  0  0  0  0  0  0
  187.6040  178.1030  141.0000 C   0  0  0  0  0  0  0  0  0  0  0  0
  183.2080  178.8660  145.6550 C   0  0  0  0  0  3  0  0  0  0  0  0
  183.0850  179.0400  144.2730 C   0  0  0  0  0  3  0  0  0  0  0  0
  185.2580  178.7440  141.1460 C   0  0  0  0  0  0  0  0  0  0  0  0
  185.4140  178.4230  143.9860 C   0  0  0  0  0  0  0  0  0  0  0  0
  185.2450  178.8780  139.7440 C   0  0  0  0  0  0  0  0  0  0  0  0
  187.5390  178.2510  139.6160 C   0  0  0  0  0  2  0  0  0  0  0  0
  184.4280  178.4720  146.2100 C   0  0  0  0  0  3  0  0  0  0  0  0
  187.7510  177.7960  143.7620 C   0  0  0  0  0  0  0  0  0  0  0  0
  186.7540  177.8570  145.9250 C   0  0  0  0  0  3  0  0  0  0  0  0
  184.0100  179.0250  141.9520 C   0  0  0  0  0  3  0  0  0  0  0  0
  188.7650  177.7220  141.5940 N   0  0  0  0  0  0  0  0  0  0  0  0
  188.8750  177.5630  142.9400 C   0  0  0  0  0  0  0  0  0  0  0  0
  186.3750  178.6280  139.0260 N   0  0  0  0  0  0  0  0  0  0  0  0
  186.4560  178.3500  141.7740 C   0  0  0  0  0  0  0  0  0  0  0  0
  187.8240  177.6410  145.1150 N   0  0  0  0  0  0  0  0  0  0  0  0
  191.6790  177.0210  145.5170 C   0  0  1  0  0  3  0  0  0  0  0  0
  191.9330  175.5420  145.2360 C   0  0  0  0  0  2  0  0  0  0  0  0
  190.2050  177.1380  143.4920 C   0  0  1  0  0  3  0  0  0  0  0  0
  191.8610  175.2730  143.7360 C   0  0  0  0  0  2  0  0  0  0  0  0
  190.3080  177.4320  144.9900 C   0  0  0  0  0  2  0  0  0  0  0  0
  190.4900  175.6650  143.1940 C   0  0  0  0  0  2  0  0  0  0  0  0
  191.7380  177.2520  146.8900 O   0  0  0  0  0  1  0  0  0  0  0  0
  183.9990  179.2740  139.0160 C   0  0  0  0  0  2  0  0  0  0  0  0
  181.7480  179.5590  137.1260 N   0  0  0  0  0  1  0  0  0  0  0  0
  183.4790  178.1290  138.1450 C   0  0  2  0  0  3  0  0  0  0  0  0
  181.9900  178.3030  137.8160 C   0  0  1  0  0  3  0  0  0  0  0  0
  181.6430  177.2460  140.1250 C   0  0  0  0  0  2  0  0  0  0  0  0
  182.5190  176.1600  139.5090 C   0  0  0  0  0  2  0  0  0  0  0  0
  183.7460  176.7680  138.8170 C   0  0  0  0  0  2  0  0  0  0  0  0
  181.0870  178.1930  139.0540 C   0  0  0  0  0  2  0  0  0  0  0  0
  1 13  1  0  0  0  0
  1 11  2  0  0  0  0
  2  8  1  0  0  0  0
  2  6  1  0  0  0  0
  3 12  1  0  0  0  0
  3  8  2  0  0  0  0
  4 15  2  0  0  0  0
  4 18  1  0  0  0  0
  5 11  1  0  0  0  0
  6  5  2  0  0  0  0
  7 18  2  0  0  0  0
  7 14  1  0  0  0  0
  8  1  1  0  0  0  0
  9  7  1  0  0  0  0
 10  4  1  0  0  0  0
 12 19  1  0  0  0  0
 14  2  2  0  0  0  0
 15 16  1  0  0  0  0
 16 12  2  0  0  0  0
 17 10  1  0  0  0  0
 17  9  2  0  0  0  0
 18  3  1  0  0  0  0
 19 13  2  0  0  0  0
 20 26  1  1  0  0  0
 21 20  1  0  0  0  0
 22 16  1  1  0  0  0
 22 24  1  0  0  0  0
 23 21  1  0  0  0  0
 24 20  1  0  0  0  0
 25 22  1  0  0  0  0
 25 23  1  0  0  0  0
 27  9  1  0  0  0  0
 29 33  1  0  0  0  0
 29 27  1  1  0  0  0
 30 28  1  1  0  0  0
 30 29  1  0  0  0  0
 30 34  1  0  0  0  0
 32 31  1  0  0  0  0
 33 32  1  0  0  0  0
 34 31  1  0  0  0  0
M  END
>  <MODEL>
4

>  <REMARK>
 VINA RESULT:      -9.9      2.445      3.972
  Name = 
  3 active torsions:
  status: ('A' for Active; 'I' for Inactive)
    1  A    between atoms: C_3  and  C_13
    2  A    between atoms: C_3  and  C_17
    3  A    between atoms: C_12  and  C_28
                            x       y       z     vdW  Elec       q    Type
                         _______ _______ _______ _____ _____    ______ ____

>  <TORSDO>
F 3

$$$$
=
 OpenBabel11052414063D

 34 40  0  0  1  0  0  0  0  0999 V2000
  189.6590  177.5350  141.1890 C   0  0  0  0  0  0  0  0  0  0  0  0
  187.6970  178.1790  139.8920 C   0  0  0  0  0  0  0  0  0  0  0  0
  187.5380  177.9000  142.3190 C   0  0  0  0  0  0  0  0  0  0  0  0
  185.4680  178.2510  143.5220 C   0  0  0  0  0  0  0  0  0  0  0  0
  189.8300  177.8120  138.7930 C   0  0  0  0  0  3  0  0  0  0  0  0
  188.4730  178.1470  138.7290 C   0  0  0  0  0  3  0  0  0  0  0  0
  185.5110  178.5550  141.1050 C   0  0  0  0  0  0  0  0  0  0  0  0
  188.2900  177.8730  141.1330 C   0  0  0  0  0  0  0  0  0  0  0  0
  184.1430  178.8880  141.1590 C   0  0  0  0  0  0  0  0  0  0  0  0
  184.1160  178.5870  143.5210 C   0  0  0  0  0  3  0  0  0  0  0  0
  190.4230  177.5070  140.0200 C   0  0  0  0  0  3  0  0  0  0  0  0
  188.1700  177.5850  143.5430 C   0  0  0  0  0  0  0  0  0  0  0  0
  190.2410  177.2320  142.4200 C   0  0  0  0  0  3  0  0  0  0  0  0
  186.2410  178.5380  139.7810 C   0  0  0  0  0  3  0  0  0  0  0  0
  186.0970  177.9450  144.6860 N   0  0  0  0  0  0  0  0  0  0  0  0
  187.4150  177.6140  144.7350 C   0  0  0  0  0  0  0  0  0  0  0  0
  183.4910  178.8960  142.3550 N   0  0  0  0  0  0  0  0  0  0  0  0
  186.1740  178.2350  142.3050 C   0  0  1  0  0  3  0  0  0  0  0  0
  189.4950  177.2620  143.5560 N   0  0  0  0  0  0  0  0  0  0  0  0
  190.1110  177.1110  147.4330 C   0  0  1  0  0  3  0  0  0  0  0  0
  189.4690  177.9610  148.5260 C   0  0  0  0  0  2  0  0  0  0  0  0
  188.0110  177.2940  146.0760 C   0  0  1  0  0  3  0  0  0  0  0  0
  187.9590  177.7430  148.5410 C   0  0  0  0  0  2  0  0  0  0  0  0
  189.5300  177.4740  146.0700 C   0  0  0  0  0  2  0  0  0  0  0  0
  187.3580  178.1150  147.1890 C   0  0  0  0  0  2  0  0  0  0  0  0
  191.4880  177.3260  147.4240 O   0  0  0  0  0  1  0  0  0  0  0  0
  183.3870  179.2570  139.9220 C   0  0  0  0  0  2  0  0  0  0  0  0
  183.1080  176.6210  138.6190 N   0  0  0  0  0  1  0  0  0  0  0  0
  182.0640  178.4950  139.8330 C   0  0  2  0  0  3  0  0  0  0  0  0
  182.0200  177.5830  138.5990 C   0  0  1  0  0  3  0  0  0  0  0  0
  181.3350  179.7320  137.3810 C   0  0  0  0  0  2  0  0  0  0  0  0
  180.2610  179.7350  138.4630 C   0  0  0  0  0  2  0  0  0  0  0  0
  180.8710  179.4720  139.8470 C   0  0  0  0  0  2  0  0  0  0  0  0
  182.0240  178.3660  137.2760 C   0  0  0  0  0  2  0  0  0  0  0  0
  1 13  1  0  0  0  0
  2  8  1  0  0  0  0
  3 12  1  0  0  0  0
  4 15  2  0  0  0  0
  5 11  1  0  0  0  0
  6  5  2  0  0  0  0
  6  2  1  0  0  0  0
  7  9  2  0  0  0  0
  8  1  1  0  0  0  0
  8  3  2  0  0  0  0
  9 17  1  0  0  0  0
 10  4  1  0  0  0  0
 11  1  2  0  0  0  0
 12 19  1  0  0  0  0
 12 16  2  0  0  0  0
 13 19  2  0  0  0  0
 14  2  2  0  0  0  0
 14  7  1  0  0  0  0
 15 16  1  0  0  0  0
 17 10  2  0  0  0  0
 18  7  1  1  0  0  0
 18  3  1  0  0  0  0
 18  4  1  0  0  0  0
 20 26  1  6  0  0  0
 20 21  1  0  0  0  0
 21 23  1  0  0  0  0
 22 16  1  6  0  0  0
 22 25  1  0  0  0  0
 24 22  1  0  0  0  0
 24 20  1  0  0  0  0
 25 23  1  0  0  0  0
 27  9  1  0  0  0  0
 29 33  1  0  0  0  0
 29 27  1  6  0  0  0
 30 28  1  6  0  0  0
 30 29  1  0  0  0  0
 31 32  1  0  0  0  0
 32 33  1  0  0  0  0
 34 31  1  0  0  0  0
 34 30  1  0  0  0  0
M  END
>  <MODEL>
5

>  <REMARK>
 VINA RESULT:      -9.9      2.109      4.731
  Name = 
  3 active torsions:
  status: ('A' for Active; 'I' for Inactive)
    1  A    between atoms: C_3  and  C_13
    2  A    between atoms: C_3  and  C_17
    3  A    between atoms: C_12  and  C_28
                            x       y       z     vdW  Elec       q    Type
                         _______ _______ _______ _____ _____    ______ ____

>  <TORSDO>
F 3

$$$$
=
 OpenBabel11052414063D

 34 40  0  0  1  0  0  0  0  0999 V2000
  188.8480  177.1790  145.4790 C   0  0  0  0  0  0  0  0  0  0  0  0
  186.5950  178.0880  145.2790 C   0  0  0  0  0  0  0  0  0  0  0  0
  187.9510  177.6920  143.2790 C   0  0  0  0  0  0  0  0  0  0  0  0
  187.1300  178.1680  141.0530 C   0  0  0  0  0  0  0  0  0  0  0  0
  187.5170  177.5620  147.4610 C   0  0  0  0  0  3  0  0  0  0  0  0
  186.4660  178.0370  146.6700 C   0  0  0  0  0  3  0  0  0  0  0  0
  185.6950  178.6040  142.9730 C   0  0  0  0  0  0  0  0  0  0  0  0
  187.7920  177.6560  144.6740 C   0  0  0  0  0  0  0  0  0  0  0  0
  184.7010  179.0520  142.0820 C   0  0  0  0  0  0  0  0  0  0  0  0
  186.1140  178.6220  140.2140 C   0  0  0  0  0  2  0  0  0  0  0  0
  188.7070  177.1330  146.8670 C   0  0  0  0  0  3  0  0  0  0  0  0
  189.1670  177.2510  142.7130 C   0  0  0  0  0  0  0  0  0  0  0  0
  190.0320  176.7520  144.8760 C   0  0  0  0  0  3  0  0  0  0  0  0
  185.4440  178.6120  144.4640 C   0  0  0  0  0  3  0  0  0  0  0  0
  188.3090  177.7390  140.5310 N   0  0  0  0  0  0  0  0  0  0  0  0
  189.3270  177.2840  141.3100 C   0  0  0  0  0  0  0  0  0  0  0  0
  184.9360  179.0470  140.7400 N   0  0  0  0  0  0  0  0  0  0  0  0
  186.9220  178.1560  142.4440 C   0  0  0  0  0  0  0  0  0  0  0  0
  190.1650  176.7970  143.5240 N   0  0  0  0  0  0  0  0  0  0  0  0
  191.6530  176.1350  138.4700 C   0  0  1  0  0  3  0  0  0  0  0  0
  192.7860  177.1280  138.7190 C   0  0  0  0  0  2  0  0  0  0  0  0
  190.5860  176.8330  140.6300 C   0  0  1  0  0  3  0  0  0  0  0  0
  193.0140  177.2980  140.2180 C   0  0  0  0  0  2  0  0  0  0  0  0
  190.3680  176.6240  139.1300 C   0  0  0  0  0  2  0  0  0  0  0  0
  191.7420  177.8010  140.8930 C   0  0  0  0  0  2  0  0  0  0  0  0
  191.4480  175.9960  137.0990 O   0  0  0  0  0  1  0  0  0  0  0  0
  183.3700  179.5210  142.5800 C   0  0  0  0  0  2  0  0  0  0  0  0
  181.9840  178.5370  140.1640 N   0  0  0  0  0  1  0  0  0  0  0  0
  182.3510  178.3790  142.5970 C   0  0  2  0  0  3  0  0  0  0  0  0
  181.3280  178.5190  141.4610 C   0  0  1  0  0  3  0  0  0  0  0  0
  180.1650  180.1280  143.0830 C   0  0  0  0  0  2  0  0  0  0  0  0
  180.2470  178.9080  143.9950 C   0  0  0  0  0  2  0  0  0  0  0  0
  181.6530  178.2940  143.9690 C   0  0  0  0  0  2  0  0  0  0  0  0
  180.4250  179.7530  141.6180 C   0  0  0  0  0  2  0  0  0  0  0  0
  1 11  2  0  0  0  0
  2  6  1  0  0  0  0
  3  8  2  0  0  0  0
  4 18  1  0  0  0  0
  6  5  2  0  0  0  0
  7 14  1  0  0  0  0
  8  2  1  0  0  0  0
  8  1  1  0  0  0  0
  9 27  1  0  0  0  0
  9  7  1  0  0  0  0
 10 17  1  0  0  0  0
 10  4  1  0  0  0  0
 11  5  1  0  0  0  0
 12  3  1  0  0  0  0
 12 19  1  0  0  0  0
 13  1  1  0  0  0  0
 14  2  2  0  0  0  0
 15  4  2  0  0  0  0
 15 16  1  0  0  0  0
 16 12  2  0  0  0  0
 17  9  2  0  0  0  0
 18  7  2  0  0  0  0
 18  3  1  0  0  0  0
 19 13  2  0  0  0  0
 20 26  1  6  0  0  0
 20 21  1  0  0  0  0
 20 24  1  0  0  0  0
 21 23  1  0  0  0  0
 22 25  1  0  0  0  0
 22 16  1  6  0  0  0
 23 25  1  0  0  0  0
 24 22  1  0  0  0  0
 29 27  1  1  0  0  0
 29 33  1  0  0  0  0
 30 28  1  6  0  0  0
 30 34  1  0  0  0  0
 30 29  1  0  0  0  0
 31 32  1  0  0  0  0
 33 32  1  0  0  0  0
 34 31  1  0  0  0  0
M  END
>  <MODEL>
6

>  <REMARK>
 VINA RESULT:      -9.9      2.968      6.808
  Name = 
  3 active torsions:
  status: ('A' for Active; 'I' for Inactive)
    1  A    between atoms: C_3  and  C_13
    2  A    between atoms: C_3  and  C_17
    3  A    between atoms: C_12  and  C_28
                            x       y       z     vdW  Elec       q    Type
                         _______ _______ _______ _____ _____    ______ ____

>  <TORSDO>
F 3

$$$$
=
 OpenBabel11052414063D

 34 40  0  0  1  0  0  0  0  0999 V2000
  188.4870  177.6160  144.4280 C   0  0  0  0  0  0  0  0  0  0  0  0
  186.1580  178.2090  144.8370 C   0  0  0  0  0  0  0  0  0  0  0  0
  187.0410  178.1690  142.5540 C   0  0  0  0  0  0  0  0  0  0  0  0
  185.6670  178.6990  140.6340 C   0  0  0  0  0  0  0  0  0  0  0  0
  187.6250  177.6480  146.6870 C   0  0  0  0  0  3  0  0  0  0  0  0
  186.3680  178.0300  146.2080 C   0  0  0  0  0  3  0  0  0  0  0  0
  184.6840  178.7730  142.8620 C   0  0  0  0  0  0  0  0  0  0  0  0
  187.2210  178.0010  143.9370 C   0  0  0  0  0  0  0  0  0  0  0  0
  183.4610  179.1450  142.2710 C   0  0  0  0  0  0  0  0  0  0  0  0
  184.4350  179.0690  140.0990 C   0  0  0  0  0  3  0  0  0  0  0  0
  188.6840  177.4410  145.7990 C   0  0  0  0  0  3  0  0  0  0  0  0
  188.1330  177.9510  141.6850 C   0  0  0  0  0  0  0  0  0  0  0  0
  189.5370  177.4110  143.5330 C   0  0  0  0  0  3  0  0  0  0  0  0
  184.7930  178.6270  144.3630 C   0  0  0  0  0  3  0  0  0  0  0  0
  186.7310  178.4840  139.8180 N   0  0  0  0  0  2  0  0  0  0  0  0
  187.9520  178.1190  140.2950 C   0  0  0  0  0  0  0  0  0  0  0  0
  183.3720  179.2790  140.9180 N   0  0  0  0  0  0  0  0  0  0  0  0
  185.7960  178.5480  142.0270 C   0  0  0  0  0  0  0  0  0  0  0  0
  189.3410  177.5810  142.1980 N   0  0  0  0  0  0  0  0  0  0  0  0
  190.7100  176.2830  138.3410 C   0  0  1  0  0  3  0  0  0  0  0  0
  190.2600  176.6740  136.9350 C   0  0  0  0  0  2  0  0  0  0  0  0
  189.0600  177.9060  139.3050 C   0  0  1  0  0  3  0  0  0  0  0  0
  189.7940  178.1270  136.9190 C   0  0  0  0  0  2  0  0  0  0  0  0
  189.5640  176.4620  139.3320 C   0  0  0  0  0  2  0  0  0  0  0  0
  188.6370  178.3220  137.8950 C   0  0  0  0  0  2  0  0  0  0  0  0
  191.1240  174.9520  138.3440 O   0  0  0  0  0  1  0  0  0  0  0  0
  182.2390  179.3790  143.1010 C   0  0  0  0  0  2  0  0  0  0  0  0
  180.5030  180.2610  140.8810 N   0  0  0  0  0  1  0  0  0  0  0  0
  181.0520  178.5640  142.5830 C   0  0  2  0  0  3  0  0  0  0  0  0
  179.9700  179.4690  141.9760 C   0  0  1  0  0  3  0  0  0  0  0  0
  179.2340  179.7530  144.4150 C   0  0  0  0  0  2  0  0  0  0  0  0
  179.1950  178.2300  144.3440 C   0  0  0  0  0  2  0  0  0  0  0  0
  180.4730  177.6750  143.7010 C   0  0  0  0  0  2  0  0  0  0  0  0
  179.2990  180.3800  143.0160 C   0  0  0  0  0  2  0  0  0  0  0  0
  1 11  1  0  0  0  0
  2  6  2  0  0  0  0
  3  8  1  0  0  0  0
  4 18  1  0  0  0  0
  6  5  1  0  0  0  0
  7 14  2  0  0  0  0
  8  1  2  0  0  0  0
  8  2  1  0  0  0  0
  9  7  1  0  0  0  0
  9 27  1  0  0  0  0
 10  4  2  0  0  0  0
 10 17  1  0  0  0  0
 11  5  2  0  0  0  0
 12 19  1  0  0  0  0
 12  3  1  0  0  0  0
 13  1  1  0  0  0  0
 14  2  1  0  0  0  0
 15 16  1  0  0  0  0
 15  4  1  0  0  0  0
 16 12  2  0  0  0  0
 17  9  2  0  0  0  0
 18  3  2  0  0  0  0
 18  7  1  0  0  0  0
 19 13  2  0  0  0  0
 20 26  1  6  0  0  0
 20 24  1  0  0  0  0
 21 20  1  0  0  0  0
 22 24  1  0  0  0  0
 22 16  1  1  0  0  0
 23 21  1  0  0  0  0
 23 25  1  0  0  0  0
 25 22  1  0  0  0  0
 29 27  1  1  0  0  0
 29 33  1  0  0  0  0
 30 28  1  6  0  0  0
 30 29  1  0  0  0  0
 30 34  1  0  0  0  0
 32 31  1  0  0  0  0
 33 32  1  0  0  0  0
 34 31  1  0  0  0  0
M  END
>  <MODEL>
7

>  <REMARK>
 VINA RESULT:      -9.8      2.848      7.495
  Name = 
  3 active torsions:
  status: ('A' for Active; 'I' for Inactive)
    1  A    between atoms: C_3  and  C_13
    2  A    between atoms: C_3  and  C_17
    3  A    between atoms: C_12  and  C_28
                            x       y       z     vdW  Elec       q    Type
                         _______ _______ _______ _____ _____    ______ ____

>  <TORSDO>
F 3

$$$$
=
 OpenBabel11052414063D

 34 40  0  0  1  0  0  0  0  0999 V2000
  188.2290  177.3520  144.3240 C   0  0  0  0  0  0  0  0  0  0  0  0
  186.0730  178.2570  143.6330 C   0  0  0  0  0  0  0  0  0  0  0  0
  187.7770  177.7100  141.9620 C   0  0  0  0  0  0  0  0  0  0  0  0
  187.4040  178.0290  139.5930 C   0  0  0  0  0  0  0  0  0  0  0  0
  186.5530  177.8850  145.9830 C   0  0  0  0  0  3  0  0  0  0  0  0
  185.6810  178.3080  144.9750 C   0  0  0  0  0  3  0  0  0  0  0  0
  185.6380  178.6100  141.1670 C   0  0  0  0  0  0  0  0  0  0  0  0
  187.3550  177.7760  143.3000 C   0  0  0  0  0  0  0  0  0  0  0  0
  184.8410  178.9990  140.0740 C   0  0  0  0  0  0  0  0  0  0  0  0
  186.5750  178.4270  138.5460 C   0  0  0  0  0  2  0  0  0  0  0  0
  187.8250  177.4070  145.6590 C   0  0  0  0  0  3  0  0  0  0  0  0
  189.0700  177.2230  141.6710 C   0  0  0  0  0  0  0  0  0  0  0  0
  189.4970  176.8770  143.9890 C   0  0  0  0  0  3  0  0  0  0  0  0
  185.1090  178.7270  142.5790 C   0  0  0  0  0  3  0  0  0  0  0  0
  188.6520  177.5570  139.3370 N   0  0  0  0  0  0  0  0  0  0  0  0
  189.4940  177.1540  140.3260 C   0  0  0  0  0  0  0  0  0  0  0  0
  185.3270  178.8950  138.8050 N   0  0  0  0  0  0  0  0  0  0  0  0
  186.9340  178.1190  140.9160 C   0  0  0  0  0  0  0  0  0  0  0  0
  189.8860  176.8230  142.6880 N   0  0  0  0  0  0  0  0  0  0  0  0
  192.2590  175.6660  138.1050 C   0  0  1  0  0  3  0  0  0  0  0  0
  193.3280  176.7230  138.3710 C   0  0  0  0  0  2  0  0  0  0  0  0
  190.8520  176.6480  139.9320 C   0  0  1  0  0  3  0  0  0  0  0  0
  193.3100  177.1280  139.8430 C   0  0  0  0  0  2  0  0  0  0  0  0
  190.8800  176.2050  138.4680 C   0  0  0  0  0  2  0  0  0  0  0  0
  191.9400  177.6840  140.2210 C   0  0  0  0  0  2  0  0  0  0  0  0
  192.2800  175.3120  136.7570 O   0  0  0  0  0  1  0  0  0  0  0  0
  183.4490  179.5090  140.2740 C   0  0  0  0  0  2  0  0  0  0  0  0
  181.6900  180.9200  138.3660 N   0  0  0  0  0  1  0  0  0  0  0  0
  182.4590  178.7950  139.3520 C   0  0  2  0  0  3  0  0  0  0  0  0
  181.2590  179.6910  139.0100 C   0  0  1  0  0  3  0  0  0  0  0  0
  180.3660  178.8810  141.2720 C   0  0  0  0  0  2  0  0  0  0  0  0
  180.6110  177.5210  140.6260 C   0  0  0  0  0  2  0  0  0  0  0  0
  181.9990  177.4620  139.9740 C   0  0  0  0  0  2  0  0  0  0  0  0
  180.3830  180.0080  140.2320 C   0  0  0  0  0  2  0  0  0  0  0  0
  1 11  2  0  0  0  0
  2  6  1  0  0  0  0
  3  8  2  0  0  0  0
  4 18  1  0  0  0  0
  6  5  2  0  0  0  0
  7 14  1  0  0  0  0
  8  2  1  0  0  0  0
  8  1  1  0  0  0  0
  9 27  1  0  0  0  0
  9  7  1  0  0  0  0
 10 17  1  0  0  0  0
 10  4  1  0  0  0  0
 11  5  1  0  0  0  0
 12  3  1  0  0  0  0
 12 19  1  0  0  0  0
 13  1  1  0  0  0  0
 14  2  2  0  0  0  0
 15  4  2  0  0  0  0
 15 16  1  0  0  0  0
 16 12  2  0  0  0  0
 17  9  2  0  0  0  0
 18  7  2  0  0  0  0
 18  3  1  0  0  0  0
 19 13  2  0  0  0  0
 20 26  1  6  0  0  0
 20 21  1  0  0  0  0
 20 24  1  0  0  0  0
 21 23  1  0  0  0  0
 22 25  1  0  0  0  0
 22 16  1  6  0  0  0
 23 25  1  0  0  0  0
 24 22  1  0  0  0  0
 29 33  1  0  0  0  0
 29 27  1  1  0  0  0
 30 28  1  1  0  0  0
 30 29  1  0  0  0  0
 30 34  1  0  0  0  0
 32 31  1  0  0  0  0
 33 32  1  0  0  0  0
 34 31  1  0  0  0  0
M  END
>  <MODEL>
8

>  <REMARK>
 VINA RESULT:      -9.8      3.222      6.371
  Name = 
  3 active torsions:
  status: ('A' for Active; 'I' for Inactive)
    1  A    between atoms: C_3  and  C_13
    2  A    between atoms: C_3  and  C_17
    3  A    between atoms: C_12  and  C_28
                            x       y       z     vdW  Elec       q    Type
                         _______ _______ _______ _____ _____    ______ ____

>  <TORSDO>
F 3

$$$$
=
 OpenBabel11052414063D

 34 40  0  0  1  0  0  0  0  0999 V2000
  182.2510  178.9170  142.8170 C   0  0  0  0  0  0  0  0  0  0  0  0
  184.6430  178.7710  143.2640 C   0  0  0  0  0  0  0  0  0  0  0  0
  183.8090  178.7060  140.9630 C   0  0  0  0  0  0  0  0  0  0  0  0
  185.2930  178.5060  139.0620 C   0  0  0  0  0  0  0  0  0  0  0  0
  183.0620  178.9860  145.0930 C   0  0  0  0  0  3  0  0  0  0  0  0
  184.3770  178.8670  144.6340 C   0  0  0  0  0  3  0  0  0  0  0  0
  186.2320  178.5580  141.3100 C   0  0  0  0  0  0  0  0  0  0  0  0
  183.5750  178.7970  142.3450 C   0  0  0  0  0  0  0  0  0  0  0  0
  187.5140  178.4450  140.7380 C   0  0  0  0  0  0  0  0  0  0  0  0
  186.5830  178.3950  138.5460 C   0  0  0  0  0  3  0  0  0  0  0  0
  181.9990  179.0120  144.1870 C   0  0  0  0  0  3  0  0  0  0  0  0
  182.7110  178.7350  140.0750 C   0  0  0  0  0  0  0  0  0  0  0  0
  181.1970  178.9420  141.9020 C   0  0  0  0  0  3  0  0  0  0  0  0
  186.0710  178.6370  142.8110 C   0  0  0  0  0  3  0  0  0  0  0  0
  184.2220  178.5360  138.2280 N   0  0  0  0  0  2  0  0  0  0  0  0
  182.9460  178.6460  138.6860 C   0  0  0  0  0  0  0  0  0  0  0  0
  187.6510  178.3700  139.3840 N   0  0  0  0  0  0  0  0  0  0  0  0
  185.1130  178.5900  140.4550 C   0  0  0  0  0  0  0  0  0  0  0  0
  181.4460  178.8510  140.5690 N   0  0  0  0  0  0  0  0  0  0  0  0
  180.2760  180.0970  136.3270 C   0  0  1  0  0  3  0  0  0  0  0  0
  180.6730  179.3270  135.0700 C   0  0  0  0  0  2  0  0  0  0  0  0
  181.8350  178.6700  137.6760 C   0  0  1  0  0  3  0  0  0  0  0  0
  181.0440  177.8920  135.4290 C   0  0  0  0  0  2  0  0  0  0  0  0
  181.4260  180.1030  137.3290 C   0  0  0  0  0  2  0  0  0  0  0  0
  182.2040  177.8780  136.4200 C   0  0  0  0  0  2  0  0  0  0  0  0
  179.9490  181.4080  135.9870 O   0  0  0  0  0  1  0  0  0  0  0  0
  188.7440  178.4270  141.5900 C   0  0  0  0  0  2  0  0  0  0  0  0
  188.3020  176.0030  143.2190 N   0  0  0  0  0  1  0  0  0  0  0  0
  189.5300  177.1280  141.4010 C   0  0  2  0  0  3  0  0  0  0  0  0
  189.6230  176.3300  142.7090 C   0  0  1  0  0  3  0  0  0  0  0  0
  191.5720  177.9170  143.2130 C   0  0  0  0  0  2  0  0  0  0  0  0
  192.0560  177.3860  141.8680 C   0  0  0  0  0  2  0  0  0  0  0  0
  190.9300  177.4180  140.8250 C   0  0  0  0  0  2  0  0  0  0  0  0
  190.4480  177.0460  143.7900 C   0  0  0  0  0  2  0  0  0  0  0  0
  1 11  1  0  0  0  0
  2  6  2  0  0  0  0
  3  8  1  0  0  0  0
  4 18  1  0  0  0  0
  6  5  1  0  0  0  0
  7 14  2  0  0  0  0
  8  1  2  0  0  0  0
  8  2  1  0  0  0  0
  9  7  1  0  0  0  0
  9 27  1  0  0  0  0
 10  4  2  0  0  0  0
 10 17  1  0  0  0  0
 11  5  2  0  0  0  0
 12 19  1  0  0  0  0
 12  3  1  0  0  0  0
 13  1  1  0  0  0  0
 14  2  1  0  0  0  0
 15 16  1  0  0  0  0
 15  4  1  0  0  0  0
 16 12  2  0  0  0  0
 17  9  2  0  0  0  0
 18  3  2  0  0  0  0
 18  7  1  0  0  0  0
 19 13  2  0  0  0  0
 20 26  1  6  0  0  0
 20 24  1  0  0  0  0
 21 23  1  0  0  0  0
 21 20  1  0  0  0  0
 22 16  1  1  0  0  0
 23 25  1  0  0  0  0
 24 22  1  0  0  0  0
 25 22  1  0  0  0  0
 29 27  1  1  0  0  0
 29 30  1  0  0  0  0
 30 28  1  1  0  0  0
 30 34  1  0  0  0  0
 31 34  1  0  0  0  0
 32 31  1  0  0  0  0
 33 29  1  0  0  0  0
 33 32  1  0  0  0  0
M  END
>  <MODEL>
9

>  <REMARK>
 VINA RESULT:      -9.7      4.087      8.021
  Name = 
  3 active torsions:
  status: ('A' for Active; 'I' for Inactive)
    1  A    between atoms: C_3  and  C_13
    2  A    between atoms: C_3  and  C_17
    3  A    between atoms: C_12  and  C_28
                            x       y       z     vdW  Elec       q    Type
                         _______ _______ _______ _____ _____    ______ ____

>  <TORSDO>
F 3

$$$$
