=
 OpenBabel11052416593D

 32 35  0  0  1  0  0  0  0  0999 V2000
  191.3820  176.7580  137.5800 C   0  0  2  0  0  3  0  0  0  0  0  0
  189.5710  177.9420  142.1570 C   0  0  0  0  0  0  0  0  0  0  0  0
  189.7660  177.3730  139.8140 C   0  0  0  0  0  0  0  0  0  0  0  0
  191.6840  177.1200  141.2790 C   0  0  0  0  0  3  0  0  0  0  0  0
  191.8650  176.5900  138.9150 O   0  0  0  0  0  0  0  0  0  0  0  0
  191.9770  179.1300  143.9520 C   0  0  0  0  0  1  0  0  0  0  0  0
  190.9160  177.5780  142.3550 C   0  0  0  0  0  0  0  0  0  0  0  0
  191.5250  177.6970  143.7150 C   0  0  2  0  0  3  0  0  0  0  0  0
  189.0940  177.8280  144.6510 C   0  0  1  0  0  3  0  0  0  0  0  0
  189.8760  176.4930  137.5220 C   0  0  0  0  0  2  0  0  0  0  0  0
  191.1120  177.0260  140.0080 C   0  0  0  0  0  0  0  0  0  0  0  0
  189.2050  177.2360  138.5410 O   0  0  0  0  0  0  0  0  0  0  0  0
  190.5070  177.2140  144.7620 C   0  0  2  0  0  3  0  0  0  0  0  0
  189.0030  177.8500  140.8830 C   0  0  0  0  0  3  0  0  0  0  0  0
  188.7630  178.4880  143.2970 C   0  0  0  0  0  2  0  0  0  0  0  0
  192.0520  175.8830  136.7230 O   0  0  0  0  0  0  0  0  0  0  0  0
  192.5030  174.8520  137.5490 C   0  0  0  0  0  2  0  0  0  0  0  0
  193.8100  174.2910  137.0190 C   0  0  0  0  0  2  0  0  0  0  0  0
  195.8550  172.7360  137.5760 C   0  0  0  0  0  1  0  0  0  0  0  0
  195.0300  174.1510  138.3600 S   0  0  0  0  0  0  0  0  0  0  0  0
  191.0520  177.1510  146.1910 C   0  0  0  0  0  2  0  0  0  0  0  0
  192.4020  176.1780  148.2080 C   0  0  0  0  0  1  0  0  0  0  0  0
  192.0330  175.6500  146.5120 S   0  0  0  0  0  0  0  0  0  0  0  0
  188.0030  176.8540  145.1090 C   0  0  0  0  0  2  0  0  0  0  0  0
  186.9840  177.4990  145.9480 N   0  0  0  0  0  0  0  0  0  0  0  0
  184.7650  178.6060  146.2110 C   0  0  0  0  0  2  0  0  0  0  0  0
  185.3890  178.1830  144.2050 C   0  0  0  0  0  2  0  0  0  0  0  0
  185.5710  177.4980  145.5480 C   0  0  0  0  0  3  0  0  0  0  0  0
  184.5780  179.2790  144.8660 C   0  0  0  0  0  2  0  0  0  0  0  0
  187.9120  177.9040  148.1800 C   0  0  0  0  0  3  0  0  0  0  0  0
  187.3410  178.3420  147.0570 C   0  0  0  0  0  3  0  0  0  0  0  0
  188.2730  176.5730  148.3600 O   0  0  0  0  0  1  0  0  0  0  0  0
  1 16  1  6  0  0  0
  1  5  1  0  0  0  0
  2  7  1  0  0  0  0
  2 15  1  0  0  0  0
  3 11  2  0  0  0  0
  3 14  1  0  0  0  0
  4  7  2  0  0  0  0
  5 11  1  0  0  0  0
  7  8  1  0  0  0  0
  8  6  1  1  0  0  0
  8 13  1  0  0  0  0
  9 13  1  0  0  0  0
  9 24  1  6  0  0  0
 10  1  1  0  0  0  0
 10 12  1  0  0  0  0
 11  4  1  0  0  0  0
 12  3  1  0  0  0  0
 13 21  1  1  0  0  0
 14  2  2  0  0  0  0
 15  9  1  0  0  0  0
 16 17  1  0  0  0  0
 18 17  1  0  0  0  0
 18 20  1  0  0  0  0
 19 20  1  0  0  0  0
 21 23  1  0  0  0  0
 23 22  1  0  0  0  0
 24 25  1  0  0  0  0
 25 31  1  0  0  0  0
 27 29  1  0  0  0  0
 27 28  1  0  0  0  0
 28 25  1  0  0  0  0
 28 26  1  0  0  0  0
 29 26  1  0  0  0  0
 30 32  1  0  0  0  0
 31 30  2  0  0  0  0
M  END
>  <MODEL>
1

>  <REMARK>
 VINA RESULT:      -6.9      0.000      0.000
  Name = 
  10 active torsions:
  status: ('A' for Active; 'I' for Inactive)
    1  A    between atoms: C_2  and  O_24
    2  A    between atoms: S_5  and  C_25
    3  A    between atoms: C_7  and  N_32
    4  A    between atoms: C_10  and  C_20
    5  A    between atoms: C_10  and  O_24
    6  A    between atoms: C_16  and  C_27
    7  A    between atoms: S_17  and  C_20
    8  A    between atoms: C_22  and  N_32
    9  A    between atoms: C_25  and  C_26
   10  A    between atoms: C_27  and  N_32
                            x       y       z     vdW  Elec       q    Type
                         _______ _______ _______ _____ _____    ______ ____

>  <TORSDO>
F 10

$$$$
=
 OpenBabel11052416593D

 32 35  0  0  1  0  0  0  0  0999 V2000
  191.6900  176.3430  136.9440 C   0  0  2  0  0  3  0  0  0  0  0  0
  189.1260  177.9860  140.9890 C   0  0  0  0  0  0  0  0  0  0  0  0
  189.7390  177.2900  138.7550 C   0  0  0  0  0  0  0  0  0  0  0  0
  191.2270  176.8200  140.6130 C   0  0  0  0  0  3  0  0  0  0  0  0
  191.8360  176.1640  138.3560 O   0  0  0  0  0  0  0  0  0  0  0  0
  191.2350  178.8810  143.2640 C   0  0  0  0  0  1  0  0  0  0  0  0
  190.3230  177.4350  141.4860 C   0  0  0  0  0  0  0  0  0  0  0  0
  190.6290  177.5220  142.9470 C   0  0  2  0  0  3  0  0  0  0  0  0
  188.1030  178.0550  143.3150 C   0  0  1  0  0  3  0  0  0  0  0  0
  190.2100  176.3030  136.5540 C   0  0  0  0  0  2  0  0  0  0  0  0
  190.9390  176.7560  139.2480 C   0  0  0  0  0  0  0  0  0  0  0  0
  189.4560  177.1830  137.3910 O   0  0  0  0  0  0  0  0  0  0  0  0
  189.3450  177.2430  143.7450 C   0  0  2  0  0  3  0  0  0  0  0  0
  188.8440  177.9230  139.6220 C   0  0  0  0  0  3  0  0  0  0  0  0
  188.1830  178.6970  141.9150 C   0  0  0  0  0  2  0  0  0  0  0  0
  192.3870  175.3410  136.2680 O   0  0  0  0  0  0  0  0  0  0  0  0
  193.6120  175.2500  136.9310 C   0  0  0  0  0  2  0  0  0  0  0  0
  193.9810  173.7940  137.1510 C   0  0  0  0  0  2  0  0  0  0  0  0
  196.0290  173.7860  138.7990 C   0  0  0  0  0  1  0  0  0  0  0  0
  195.7800  173.5680  137.0150 S   0  0  0  0  0  0  0  0  0  0  0  0
  189.5470  177.1640  145.2610 C   0  0  0  0  0  2  0  0  0  0  0  0
  190.8540  176.7900  147.4940 C   0  0  0  0  0  1  0  0  0  0  0  0
  191.2200  176.6150  145.7260 S   0  0  0  0  0  0  0  0  0  0  0  0
  186.8010  177.2760  143.5280 C   0  0  0  0  0  2  0  0  0  0  0  0
  185.6100  178.1350  143.4600 N   0  0  0  0  0  0  0  0  0  0  0  0
  183.9420  178.8660  145.1630 C   0  0  0  0  0  2  0  0  0  0  0  0
  185.9660  178.6620  145.8360 C   0  0  0  0  0  2  0  0  0  0  0  0
  185.3110  179.0890  144.5340 C   0  0  0  0  0  3  0  0  0  0  0  0
  184.6020  178.4510  146.4610 C   0  0  0  0  0  2  0  0  0  0  0  0
  184.4480  178.6530  141.3650 C   0  0  0  0  0  3  0  0  0  0  0  0
  184.5830  177.9270  142.4750 C   0  0  0  0  0  3  0  0  0  0  0  0
  185.3410  179.6620  141.0250 O   0  0  0  0  0  1  0  0  0  0  0  0
  1 16  1  6  0  0  0
  1  5  1  0  0  0  0
  2  7  1  0  0  0  0
  2 15  1  0  0  0  0
  3 11  2  0  0  0  0
  3 14  1  0  0  0  0
  4  7  2  0  0  0  0
  5 11  1  0  0  0  0
  7  8  1  0  0  0  0
  8  6  1  6  0  0  0
  8 13  1  0  0  0  0
  9 24  1  6  0  0  0
  9 13  1  0  0  0  0
 10  1  1  0  0  0  0
 10 12  1  0  0  0  0
 11  4  1  0  0  0  0
 12  3  1  0  0  0  0
 13 21  1  1  0  0  0
 14  2  2  0  0  0  0
 15  9  1  0  0  0  0
 16 17  1  0  0  0  0
 17 18  1  0  0  0  0
 20 18  1  0  0  0  0
 20 19  1  0  0  0  0
 21 23  1  0  0  0  0
 23 22  1  0  0  0  0
 25 24  1  0  0  0  0
 25 28  1  0  0  0  0
 26 29  1  0  0  0  0
 27 29  1  0  0  0  0
 28 26  1  0  0  0  0
 28 27  1  0  0  0  0
 30 31  2  0  0  0  0
 31 25  1  0  0  0  0
 32 30  1  0  0  0  0
M  END
>  <MODEL>
2

>  <REMARK>
 VINA RESULT:      -6.8      2.000      2.630
  Name = 
  10 active torsions:
  status: ('A' for Active; 'I' for Inactive)
    1  A    between atoms: C_2  and  O_24
    2  A    between atoms: S_5  and  C_25
    3  A    between atoms: C_7  and  N_32
    4  A    between atoms: C_10  and  C_20
    5  A    between atoms: C_10  and  O_24
    6  A    between atoms: C_16  and  C_27
    7  A    between atoms: S_17  and  C_20
    8  A    between atoms: C_22  and  N_32
    9  A    between atoms: C_25  and  C_26
   10  A    between atoms: C_27  and  N_32
                            x       y       z     vdW  Elec       q    Type
                         _______ _______ _______ _____ _____    ______ ____

>  <TORSDO>
F 10

$$$$
=
 OpenBabel11052416593D

 32 35  0  0  1  0  0  0  0  0999 V2000
  188.7720  177.7990  137.1370 C   0  0  2  0  0  3  0  0  0  0  0  0
  189.0620  178.1480  142.1800 C   0  0  0  0  0  0  0  0  0  0  0  0
  188.2720  178.1670  139.8940 C   0  0  0  0  0  0  0  0  0  0  0  0
  190.4010  177.1290  140.4240 C   0  0  0  0  0  3  0  0  0  0  0  0
  189.6030  177.1930  138.1310 O   0  0  0  0  0  0  0  0  0  0  0  0
  192.1720  178.2740  143.0370 C   0  0  0  0  0  1  0  0  0  0  0  0
  190.2180  177.4560  141.7720 C   0  0  0  0  0  0  0  0  0  0  0  0
  191.2560  177.0860  142.7830 C   0  0  2  0  0  3  0  0  0  0  0  0
  189.4450  177.5110  144.6100 C   0  0  1  0  0  3  0  0  0  0  0  0
  187.3290  177.8990  137.6400 C   0  0  0  0  0  2  0  0  0  0  0  0
  189.4320  177.4920  139.4850 C   0  0  0  0  0  0  0  0  0  0  0  0
  187.3010  178.4880  138.9420 O   0  0  0  0  0  0  0  0  0  0  0  0
  190.5570  176.5900  144.0590 C   0  0  2  0  0  3  0  0  0  0  0  0
  188.0970  178.5130  141.2360 C   0  0  0  0  0  3  0  0  0  0  0  0
  188.8920  178.5510  143.6160 C   0  0  0  0  0  2  0  0  0  0  0  0
  188.8160  177.0450  135.9640 O   0  0  0  0  0  0  0  0  0  0  0  0
  190.0740  176.4410  135.9750 C   0  0  0  0  0  2  0  0  0  0  0  0
  190.1220  175.3150  134.9580 C   0  0  0  0  0  2  0  0  0  0  0  0
  190.7830  173.6690  136.8990 C   0  0  0  0  0  1  0  0  0  0  0  0
  191.5070  174.1930  135.3190 S   0  0  0  0  0  0  0  0  0  0  0  0
  191.5070  176.0460  145.1300 C   0  0  0  0  0  2  0  0  0  0  0  0
  192.4080  175.6930  147.5590 C   0  0  0  0  0  1  0  0  0  0  0  0
  191.3330  176.8970  146.7310 S   0  0  0  0  0  0  0  0  0  0  0  0
  188.3330  176.7200  145.3080 C   0  0  0  0  0  2  0  0  0  0  0  0
  187.5020  177.5610  146.1790 N   0  0  0  0  0  0  0  0  0  0  0  0
  185.5380  179.1000  146.1770 C   0  0  0  0  0  2  0  0  0  0  0  0
  185.7600  177.8320  144.4630 C   0  0  0  0  0  2  0  0  0  0  0  0
  186.0570  177.6870  145.9450 C   0  0  0  0  0  3  0  0  0  0  0  0
  185.2350  179.2340  144.6990 C   0  0  0  0  0  2  0  0  0  0  0  0
  188.2150  178.1910  148.4380 C   0  0  0  0  0  3  0  0  0  0  0  0
  188.0810  178.4620  147.1390 C   0  0  0  0  0  3  0  0  0  0  0  0
  187.8480  176.9660  148.9830 O   0  0  0  0  0  1  0  0  0  0  0  0
  1 16  1  6  0  0  0
  1 10  1  0  0  0  0
  1  5  1  0  0  0  0
  2 15  1  0  0  0  0
  3 14  1  0  0  0  0
  4  7  2  0  0  0  0
  5 11  1  0  0  0  0
  7  2  1  0  0  0  0
  7  8  1  0  0  0  0
  8  6  1  1  0  0  0
  8 13  1  0  0  0  0
  9 24  1  6  0  0  0
 10 12  1  0  0  0  0
 11  3  2  0  0  0  0
 11  4  1  0  0  0  0
 12  3  1  0  0  0  0
 13  9  1  0  0  0  0
 13 21  1  1  0  0  0
 14  2  2  0  0  0  0
 15  9  1  0  0  0  0
 16 17  1  0  0  0  0
 18 20  1  0  0  0  0
 18 17  1  0  0  0  0
 20 19  1  0  0  0  0
 21 23  1  0  0  0  0
 23 22  1  0  0  0  0
 24 25  1  0  0  0  0
 25 31  1  0  0  0  0
 27 29  1  0  0  0  0
 27 28  1  0  0  0  0
 28 26  1  0  0  0  0
 28 25  1  0  0  0  0
 29 26  1  0  0  0  0
 30 32  1  0  0  0  0
 31 30  2  0  0  0  0
M  END
>  <MODEL>
3

>  <REMARK>
 VINA RESULT:      -6.7      1.811      2.118
  Name = 
  10 active torsions:
  status: ('A' for Active; 'I' for Inactive)
    1  A    between atoms: C_2  and  O_24
    2  A    between atoms: S_5  and  C_25
    3  A    between atoms: C_7  and  N_32
    4  A    between atoms: C_10  and  C_20
    5  A    between atoms: C_10  and  O_24
    6  A    between atoms: C_16  and  C_27
    7  A    between atoms: S_17  and  C_20
    8  A    between atoms: C_22  and  N_32
    9  A    between atoms: C_25  and  C_26
   10  A    between atoms: C_27  and  N_32
                            x       y       z     vdW  Elec       q    Type
                         _______ _______ _______ _____ _____    ______ ____

>  <TORSDO>
F 10

$$$$
=
 OpenBabel11052416593D

 32 35  0  0  1  0  0  0  0  0999 V2000
  189.8150  178.2620  144.7980 C   0  0  2  0  0  3  0  0  0  0  0  0
  191.2430  177.1440  140.0710 C   0  0  0  0  0  0  0  0  0  0  0  0
  191.2030  177.4730  142.4670 C   0  0  0  0  0  0  0  0  0  0  0  0
  189.1270  177.5070  141.2120 C   0  0  0  0  0  3  0  0  0  0  0  0
  189.1170  177.8700  143.6140 O   0  0  0  0  0  0  0  0  0  0  0  0
  189.1690  178.5090  138.0080 C   0  0  0  0  0  1  0  0  0  0  0  0
  189.8410  177.2710  140.0330 C   0  0  0  0  0  0  0  0  0  0  0  0
  189.1220  177.1680  138.7260 C   0  0  2  0  0  3  0  0  0  0  0  0
  191.2840  176.0670  137.7700 C   0  0  1  0  0  3  0  0  0  0  0  0
  191.1270  177.4830  144.9240 C   0  0  0  0  0  2  0  0  0  0  0  0
  189.8080  177.6160  142.4270 C   0  0  0  0  0  0  0  0  0  0  0  0
  191.8600  177.5500  143.6990 O   0  0  0  0  0  0  0  0  0  0  0  0
  189.7450  176.0300  137.9010 C   0  0  2  0  0  3  0  0  0  0  0  0
  191.9210  177.2570  141.2880 C   0  0  0  0  0  3  0  0  0  0  0  0
  192.0160  176.9490  138.8000 C   0  0  0  0  0  2  0  0  0  0  0  0
  189.0150  178.0280  145.9170 O   0  0  0  0  0  0  0  0  0  0  0  0
  187.8230  177.5160  145.4000 C   0  0  0  0  0  2  0  0  0  0  0  0
  186.6910  177.7270  146.3900 C   0  0  0  0  0  2  0  0  0  0  0  0
  185.5810  178.2110  144.0570 C   0  0  0  0  0  1  0  0  0  0  0  0
  185.4820  178.9130  145.7280 S   0  0  0  0  0  0  0  0  0  0  0  0
  189.0120  175.7230  136.5930 C   0  0  0  0  0  2  0  0  0  0  0  0
  188.5630  173.1540  136.7840 C   0  0  0  0  0  1  0  0  0  0  0  0
  187.5520  174.6590  136.8290 S   0  0  0  0  0  0  0  0  0  0  0  0
  191.8890  174.6620  137.6670 C   0  0  0  0  0  2  0  0  0  0  0  0
  193.1880  174.6550  136.9810 N   0  0  0  0  0  0  0  0  0  0  0  0
  194.3300  176.5140  135.7720 C   0  0  0  0  0  2  0  0  0  0  0  0
  194.3500  174.5980  134.8130 C   0  0  0  0  0  2  0  0  0  0  0  0
  193.3620  175.3420  135.6940 C   0  0  0  0  0  3  0  0  0  0  0  0
  195.3060  175.7700  134.8840 C   0  0  0  0  0  2  0  0  0  0  0  0
  195.1510  174.1310  138.3510 C   0  0  0  0  0  3  0  0  0  0  0  0
  194.2650  173.8040  137.4090 C   0  0  0  0  0  3  0  0  0  0  0  0
  195.0790  175.3260  139.0570 O   0  0  0  0  0  1  0  0  0  0  0  0
  1 10  1  0  0  0  0
  1 16  1  1  0  0  0
  2 14  1  0  0  0  0
  3 12  1  0  0  0  0
  4 11  2  0  0  0  0
  5  1  1  0  0  0  0
  7  2  2  0  0  0  0
  7  4  1  0  0  0  0
  8  6  1  6  0  0  0
  8  7  1  0  0  0  0
  9 24  1  1  0  0  0
  9 13  1  0  0  0  0
  9 15  1  0  0  0  0
 11  3  1  0  0  0  0
 11  5  1  0  0  0  0
 12 10  1  0  0  0  0
 13 21  1  6  0  0  0
 13  8  1  0  0  0  0
 14  3  2  0  0  0  0
 15  2  1  0  0  0  0
 17 16  1  0  0  0  0
 17 18  1  0  0  0  0
 19 20  1  0  0  0  0
 20 18  1  0  0  0  0
 21 23  1  0  0  0  0
 22 23  1  0  0  0  0
 25 31  1  0  0  0  0
 25 24  1  0  0  0  0
 27 29  1  0  0  0  0
 27 28  1  0  0  0  0
 28 26  1  0  0  0  0
 28 25  1  0  0  0  0
 29 26  1  0  0  0  0
 30 32  1  0  0  0  0
 31 30  2  0  0  0  0
M  END
>  <MODEL>
4

>  <REMARK>
 VINA RESULT:      -6.6      3.381      9.566
  Name = 
  10 active torsions:
  status: ('A' for Active; 'I' for Inactive)
    1  A    between atoms: C_2  and  O_24
    2  A    between atoms: S_5  and  C_25
    3  A    between atoms: C_7  and  N_32
    4  A    between atoms: C_10  and  C_20
    5  A    between atoms: C_10  and  O_24
    6  A    between atoms: C_16  and  C_27
    7  A    between atoms: S_17  and  C_20
    8  A    between atoms: C_22  and  N_32
    9  A    between atoms: C_25  and  C_26
   10  A    between atoms: C_27  and  N_32
                            x       y       z     vdW  Elec       q    Type
                         _______ _______ _______ _____ _____    ______ ____

>  <TORSDO>
F 10

$$$$
=
 OpenBabel11052416593D

 32 35  0  0  1  0  0  0  0  0999 V2000
  187.5840  177.5330  136.0710 C   0  0  2  0  0  3  0  0  0  0  0  0
  188.4440  177.9320  141.0440 C   0  0  0  0  0  0  0  0  0  0  0  0
  187.4320  178.0220  138.8490 C   0  0  0  0  0  0  0  0  0  0  0  0
  189.4330  176.6950  139.1990 C   0  0  0  0  0  3  0  0  0  0  0  0
  188.4180  176.8310  136.9960 O   0  0  0  0  0  0  0  0  0  0  0  0
  191.6120  177.6180  141.5800 C   0  0  0  0  0  1  0  0  0  0  0  0
  189.4410  177.0710  140.5460 C   0  0  0  0  0  0  0  0  0  0  0  0
  190.5140  176.5720  141.4590 C   0  0  2  0  0  3  0  0  0  0  0  0
  188.9830  177.2920  143.4440 C   0  0  1  0  0  3  0  0  0  0  0  0
  186.2310  177.8520  136.7110 C   0  0  0  0  0  2  0  0  0  0  0  0
  188.4340  177.1770  138.3490 C   0  0  0  0  0  0  0  0  0  0  0  0
  186.4230  178.4640  137.9890 O   0  0  0  0  0  0  0  0  0  0  0  0
  189.8880  176.2080  142.8160 C   0  0  2  0  0  3  0  0  0  0  0  0
  187.4490  178.4150  140.1900 C   0  0  0  0  0  3  0  0  0  0  0  0
  188.4850  178.3830  142.4750 C   0  0  0  0  0  2  0  0  0  0  0  0
  187.3970  176.7590  134.9250 O   0  0  0  0  0  0  0  0  0  0  0  0
  187.7800  175.4700  135.2990 C   0  0  0  0  0  2  0  0  0  0  0  0
  186.5740  174.5490  135.3160 C   0  0  0  0  0  2  0  0  0  0  0  0
  185.8650  173.1340  137.4150 C   0  0  0  0  0  1  0  0  0  0  0  0
  187.0170  172.9350  136.0260 S   0  0  0  0  0  0  0  0  0  0  0  0
  190.8560  175.5520  143.8040 C   0  0  0  0  0  2  0  0  0  0  0  0
  192.0460  175.4680  146.1310 C   0  0  0  0  0  1  0  0  0  0  0  0
  191.6660  176.7530  144.9080 S   0  0  0  0  0  0  0  0  0  0  0  0
  187.8480  176.6850  144.2760 C   0  0  0  0  0  2  0  0  0  0  0  0
  187.4590  177.5370  145.4080 N   0  0  0  0  0  0  0  0  0  0  0  0
  185.7970  179.3610  145.7700 C   0  0  0  0  0  2  0  0  0  0  0  0
  185.2570  177.8440  144.3560 C   0  0  0  0  0  2  0  0  0  0  0  0
  186.0480  177.8640  145.6520 C   0  0  0  0  0  3  0  0  0  0  0  0
  185.0010  179.3320  144.4820 C   0  0  0  0  0  2  0  0  0  0  0  0
  188.8510  177.8990  147.3930 C   0  0  0  0  0  3  0  0  0  0  0  0
  188.4330  178.2620  146.1790 C   0  0  0  0  0  3  0  0  0  0  0  0
  188.4150  176.7330  148.0110 O   0  0  0  0  0  1  0  0  0  0  0  0
  1 16  1  6  0  0  0
  1 10  1  0  0  0  0
  1  5  1  0  0  0  0
  2 15  1  0  0  0  0
  3 14  1  0  0  0  0
  4  7  2  0  0  0  0
  5 11  1  0  0  0  0
  7  2  1  0  0  0  0
  7  8  1  0  0  0  0
  8  6  1  1  0  0  0
  8 13  1  0  0  0  0
  9 24  1  6  0  0  0
 10 12  1  0  0  0  0
 11  3  2  0  0  0  0
 11  4  1  0  0  0  0
 12  3  1  0  0  0  0
 13  9  1  0  0  0  0
 13 21  1  1  0  0  0
 14  2  2  0  0  0  0
 15  9  1  0  0  0  0
 16 17  1  0  0  0  0
 17 18  1  0  0  0  0
 18 20  1  0  0  0  0
 20 19  1  0  0  0  0
 21 23  1  0  0  0  0
 23 22  1  0  0  0  0
 24 25  1  0  0  0  0
 25 28  1  0  0  0  0
 25 31  1  0  0  0  0
 27 29  1  0  0  0  0
 27 28  1  0  0  0  0
 28 26  1  0  0  0  0
 29 26  1  0  0  0  0
 30 32  1  0  0  0  0
 31 30  2  0  0  0  0
M  END
>  <MODEL>
5

>  <REMARK>
 VINA RESULT:      -6.3      2.808      3.639
  Name = 
  10 active torsions:
  status: ('A' for Active; 'I' for Inactive)
    1  A    between atoms: C_2  and  O_24
    2  A    between atoms: S_5  and  C_25
    3  A    between atoms: C_7  and  N_32
    4  A    between atoms: C_10  and  C_20
    5  A    between atoms: C_10  and  O_24
    6  A    between atoms: C_16  and  C_27
    7  A    between atoms: S_17  and  C_20
    8  A    between atoms: C_22  and  N_32
    9  A    between atoms: C_25  and  C_26
   10  A    between atoms: C_27  and  N_32
                            x       y       z     vdW  Elec       q    Type
                         _______ _______ _______ _____ _____    ______ ____

>  <TORSDO>
F 10

$$$$
=
 OpenBabel11052416593D

 32 35  0  0  1  0  0  0  0  0999 V2000
  189.5210  178.1040  144.9210 C   0  0  2  0  0  3  0  0  0  0  0  0
  191.0850  177.1280  140.2060 C   0  0  0  0  0  0  0  0  0  0  0  0
  190.9750  177.3840  142.6090 C   0  0  0  0  0  0  0  0  0  0  0  0
  188.9360  177.4590  141.2950 C   0  0  0  0  0  3  0  0  0  0  0  0
  188.8560  177.7490  143.7050 O   0  0  0  0  0  0  0  0  0  0  0  0
  189.0720  178.5580  138.1260 C   0  0  0  0  0  1  0  0  0  0  0  0
  189.6850  177.2580  140.1310 C   0  0  0  0  0  0  0  0  0  0  0  0
  189.0040  177.1960  138.8010 C   0  0  2  0  0  3  0  0  0  0  0  0
  191.1920  176.1220  137.8750 C   0  0  1  0  0  3  0  0  0  0  0  0
  190.8280  177.3200  145.0610 C   0  0  0  0  0  2  0  0  0  0  0  0
  189.5820  177.5300  142.5320 C   0  0  0  0  0  0  0  0  0  0  0  0
  191.5960  177.4230  143.8600 O   0  0  0  0  0  0  0  0  0  0  0  0
  189.6500  176.0820  137.9600 C   0  0  2  0  0  3  0  0  0  0  0  0
  191.7270  177.2040  141.4450 C   0  0  0  0  0  3  0  0  0  0  0  0
  191.8950  176.9720  138.9520 C   0  0  0  0  0  2  0  0  0  0  0  0
  188.6870  177.8370  146.0080 O   0  0  0  0  0  0  0  0  0  0  0  0
  187.3970  177.8420  145.4770 C   0  0  0  0  0  2  0  0  0  0  0  0
  186.4080  178.3570  146.5080 C   0  0  0  0  0  2  0  0  0  0  0  0
  185.4090  178.2520  144.0790 C   0  0  0  0  0  1  0  0  0  0  0  0
  184.8200  178.7590  145.7190 S   0  0  0  0  0  0  0  0  0  0  0  0
  188.9560  175.8160  136.6220 C   0  0  0  0  0  2  0  0  0  0  0  0
  188.2420  173.3070  136.7950 C   0  0  0  0  0  1  0  0  0  0  0  0
  187.3880  174.9070  136.8050 S   0  0  0  0  0  0  0  0  0  0  0  0
  191.8000  174.7200  137.7470 C   0  0  0  0  0  2  0  0  0  0  0  0
  192.9730  174.6910  136.8640 N   0  0  0  0  0  0  0  0  0  0  0  0
  192.8070  172.4230  135.8380 C   0  0  0  0  0  2  0  0  0  0  0  0
  191.5700  173.9500  134.9830 C   0  0  0  0  0  2  0  0  0  0  0  0
  192.9520  173.9220  135.6120 C   0  0  0  0  0  3  0  0  0  0  0  0
  191.4340  172.4570  135.2010 C   0  0  0  0  0  2  0  0  0  0  0  0
  195.0980  174.5650  138.0780 C   0  0  0  0  0  3  0  0  0  0  0  0
  194.2470  175.2120  137.2800 C   0  0  0  0  0  3  0  0  0  0  0  0
  194.8490  173.2800  138.5450 O   0  0  0  0  0  1  0  0  0  0  0  0
  1 10  1  0  0  0  0
  1 16  1  1  0  0  0
  2 14  1  0  0  0  0
  3 12  1  0  0  0  0
  4 11  2  0  0  0  0
  5  1  1  0  0  0  0
  7  2  2  0  0  0  0
  7  4  1  0  0  0  0
  8  6  1  6  0  0  0
  8  7  1  0  0  0  0
  9 24  1  1  0  0  0
  9 13  1  0  0  0  0
  9 15  1  0  0  0  0
 11  3  1  0  0  0  0
 11  5  1  0  0  0  0
 12 10  1  0  0  0  0
 13 21  1  6  0  0  0
 13  8  1  0  0  0  0
 14  3  2  0  0  0  0
 15  2  1  0  0  0  0
 17 16  1  0  0  0  0
 17 18  1  0  0  0  0
 19 20  1  0  0  0  0
 20 18  1  0  0  0  0
 21 23  1  0  0  0  0
 22 23  1  0  0  0  0
 25 31  1  0  0  0  0
 25 24  1  0  0  0  0
 27 29  1  0  0  0  0
 27 28  1  0  0  0  0
 28 26  1  0  0  0  0
 28 25  1  0  0  0  0
 29 26  1  0  0  0  0
 30 32  1  0  0  0  0
 31 30  2  0  0  0  0
M  END
>  <MODEL>
6

>  <REMARK>
 VINA RESULT:      -6.3      3.475      9.524
  Name = 
  10 active torsions:
  status: ('A' for Active; 'I' for Inactive)
    1  A    between atoms: C_2  and  O_24
    2  A    between atoms: S_5  and  C_25
    3  A    between atoms: C_7  and  N_32
    4  A    between atoms: C_10  and  C_20
    5  A    between atoms: C_10  and  O_24
    6  A    between atoms: C_16  and  C_27
    7  A    between atoms: S_17  and  C_20
    8  A    between atoms: C_22  and  N_32
    9  A    between atoms: C_25  and  C_26
   10  A    between atoms: C_27  and  N_32
                            x       y       z     vdW  Elec       q    Type
                         _______ _______ _______ _____ _____    ______ ____

>  <TORSDO>
F 10

$$$$
=
 OpenBabel11052416593D

 32 35  0  0  1  0  0  0  0  0999 V2000
  182.2430  179.0680  138.3100 C   0  0  2  0  0  3  0  0  0  0  0  0
  186.7550  178.6050  140.5590 C   0  0  0  0  0  0  0  0  0  0  0  0
  184.3880  178.8720  140.1380 C   0  0  0  0  0  0  0  0  0  0  0  0
  185.8560  178.1490  138.3460 C   0  0  0  0  0  3  0  0  0  0  0  0
  183.4820  178.4580  137.9390 O   0  0  0  0  0  0  0  0  0  0  0  0
  189.0680  179.1280  138.3670 C   0  0  0  0  0  1  0  0  0  0  0  0
  186.9450  178.2060  139.2220 C   0  0  0  0  0  0  0  0  0  0  0  0
  188.3170  177.8580  138.7400 C   0  0  2  0  0  3  0  0  0  0  0  0
  189.0050  177.6430  141.2460 C   0  0  1  0  0  3  0  0  0  0  0  0
  181.9550  178.8270  139.7950 C   0  0  0  0  0  2  0  0  0  0  0  0
  184.5800  178.4890  138.8020 C   0  0  0  0  0  0  0  0  0  0  0  0
  183.0970  179.1730  140.5800 O   0  0  0  0  0  0  0  0  0  0  0  0
  189.0360  177.0390  139.8240 C   0  0  2  0  0  3  0  0  0  0  0  0
  185.4780  178.9490  141.0090 C   0  0  0  0  0  3  0  0  0  0  0  0
  187.9310  178.7240  141.4840 C   0  0  0  0  0  2  0  0  0  0  0  0
  181.2090  178.5430  137.5340 O   0  0  0  0  0  0  0  0  0  0  0  0
  181.7780  177.4550  136.8710 C   0  0  0  0  0  2  0  0  0  0  0  0
  180.8220  176.2760  136.8850 C   0  0  0  0  0  2  0  0  0  0  0  0
  182.7140  175.2210  138.3730 C   0  0  0  0  0  1  0  0  0  0  0  0
  180.9110  175.4040  138.4780 S   0  0  0  0  0  0  0  0  0  0  0  0
  190.4050  176.4960  139.4040 C   0  0  0  0  0  2  0  0  0  0  0  0
  192.0520  176.0870  137.4150 C   0  0  0  0  0  1  0  0  0  0  0  0
  190.3550  175.5920  137.8230 S   0  0  0  0  0  0  0  0  0  0  0  0
  189.0000  176.5630  142.3330 C   0  0  0  0  0  2  0  0  0  0  0  0
  189.1830  177.1170  143.6820 N   0  0  0  0  0  0  0  0  0  0  0  0
  188.1430  177.9240  145.8000 C   0  0  0  0  0  2  0  0  0  0  0  0
  186.8050  177.1610  144.3110 C   0  0  0  0  0  2  0  0  0  0  0  0
  188.2190  176.8240  144.7510 C   0  0  0  0  0  3  0  0  0  0  0  0
  186.7300  178.2480  145.3640 C   0  0  0  0  0  2  0  0  0  0  0  0
  191.4250  177.8840  144.3070 C   0  0  0  0  0  3  0  0  0  0  0  0
  190.1630  178.1330  143.9560 C   0  0  0  0  0  3  0  0  0  0  0  0
  191.9330  176.5930  144.3880 O   0  0  0  0  0  1  0  0  0  0  0  0
  1 16  1  6  0  0  0
  1 10  1  0  0  0  0
  2 14  1  0  0  0  0
  2 15  1  0  0  0  0
  3 12  1  0  0  0  0
  3 14  2  0  0  0  0
  4 11  2  0  0  0  0
  4  7  1  0  0  0  0
  5  1  1  0  0  0  0
  5 11  1  0  0  0  0
  7  2  2  0  0  0  0
  8  6  1  1  0  0  0
  8  7  1  0  0  0  0
  8 13  1  0  0  0  0
  9 15  1  0  0  0  0
  9 24  1  1  0  0  0
 10 12  1  0  0  0  0
 11  3  1  0  0  0  0
 13 21  1  6  0  0  0
 13  9  1  0  0  0  0
 17 18  1  0  0  0  0
 17 16  1  0  0  0  0
 18 20  1  0  0  0  0
 19 20  1  0  0  0  0
 22 23  1  0  0  0  0
 23 21  1  0  0  0  0
 24 25  1  0  0  0  0
 25 31  1  0  0  0  0
 25 28  1  0  0  0  0
 27 28  1  0  0  0  0
 27 29  1  0  0  0  0
 28 26  1  0  0  0  0
 29 26  1  0  0  0  0
 30 32  1  0  0  0  0
 31 30  2  0  0  0  0
M  END
>  <MODEL>
7

>  <REMARK>
 VINA RESULT:      -6.2      4.928      7.366
  Name = 
  10 active torsions:
  status: ('A' for Active; 'I' for Inactive)
    1  A    between atoms: C_2  and  O_24
    2  A    between atoms: S_5  and  C_25
    3  A    between atoms: C_7  and  N_32
    4  A    between atoms: C_10  and  C_20
    5  A    between atoms: C_10  and  O_24
    6  A    between atoms: C_16  and  C_27
    7  A    between atoms: S_17  and  C_20
    8  A    between atoms: C_22  and  N_32
    9  A    between atoms: C_25  and  C_26
   10  A    between atoms: C_27  and  N_32
                            x       y       z     vdW  Elec       q    Type
                         _______ _______ _______ _____ _____    ______ ____

>  <TORSDO>
F 10

$$$$
=
 OpenBabel11052416593D

 32 35  0  0  1  0  0  0  0  0999 V2000
  187.9370  177.6310  136.1440 C   0  0  2  0  0  3  0  0  0  0  0  0
  188.5450  178.0260  141.1550 C   0  0  0  0  0  0  0  0  0  0  0  0
  187.6310  178.0840  138.9160 C   0  0  0  0  0  0  0  0  0  0  0  0
  189.6830  176.8630  139.3480 C   0  0  0  0  0  3  0  0  0  0  0  0
  188.7640  176.9660  137.1020 O   0  0  0  0  0  0  0  0  0  0  0  0
  191.6970  177.8770  141.8350 C   0  0  0  0  0  1  0  0  0  0  0  0
  189.6080  177.2240  140.6970 C   0  0  0  0  0  0  0  0  0  0  0  0
  190.6640  176.7750  141.6560 C   0  0  2  0  0  3  0  0  0  0  0  0
  189.0060  177.3920  143.5720 C   0  0  1  0  0  3  0  0  0  0  0  0
  186.5400  177.8710  136.7240 C   0  0  0  0  0  2  0  0  0  0  0  0
  188.6990  177.2990  138.4570 C   0  0  0  0  0  0  0  0  0  0  0  0
  186.6400  178.4790  138.0130 O   0  0  0  0  0  0  0  0  0  0  0  0
  189.9960  176.3650  142.9790 C   0  0  2  0  0  3  0  0  0  0  0  0
  187.5650  178.4640  140.2590 C   0  0  0  0  0  3  0  0  0  0  0  0
  188.4950  178.4640  142.5900 C   0  0  0  0  0  2  0  0  0  0  0  0
  187.8450  176.8600  134.9850 O   0  0  0  0  0  0  0  0  0  0  0  0
  188.1570  175.5620  135.3950 C   0  0  0  0  0  2  0  0  0  0  0  0
  186.9690  174.6430  135.1740 C   0  0  0  0  0  2  0  0  0  0  0  0
  187.8510  172.6680  136.6670 C   0  0  0  0  0  1  0  0  0  0  0  0
  187.5300  172.9360  134.9000 S   0  0  0  0  0  0  0  0  0  0  0  0
  190.9520  175.7510  144.0060 C   0  0  0  0  0  2  0  0  0  0  0  0
  192.0570  175.6530  146.3740 C   0  0  0  0  0  1  0  0  0  0  0  0
  191.5610  176.9640  145.2220 S   0  0  0  0  0  0  0  0  0  0  0  0
  187.8690  176.7170  144.3470 C   0  0  0  0  0  2  0  0  0  0  0  0
  187.2710  177.5990  145.3580 N   0  0  0  0  0  0  0  0  0  0  0  0
  187.2870  178.6310  147.6290 C   0  0  0  0  0  2  0  0  0  0  0  0
  188.7590  177.1190  147.2580 C   0  0  0  0  0  2  0  0  0  0  0  0
  188.0970  178.1960  146.4160 C   0  0  0  0  0  3  0  0  0  0  0  0
  187.9580  177.5610  148.4650 C   0  0  0  0  0  2  0  0  0  0  0  0
  185.0830  178.4870  144.7020 C   0  0  0  0  0  3  0  0  0  0  0  0
  185.8470  177.7360  145.4970 C   0  0  0  0  0  3  0  0  0  0  0  0
  185.5990  179.1770  143.6120 O   0  0  0  0  0  1  0  0  0  0  0  0
  1 16  1  6  0  0  0
  1 10  1  0  0  0  0
  1  5  1  0  0  0  0
  2 15  1  0  0  0  0
  3 14  1  0  0  0  0
  4  7  2  0  0  0  0
  5 11  1  0  0  0  0
  7  2  1  0  0  0  0
  7  8  1  0  0  0  0
  8  6  1  1  0  0  0
  8 13  1  0  0  0  0
  9 24  1  6  0  0  0
 10 12  1  0  0  0  0
 11  3  2  0  0  0  0
 11  4  1  0  0  0  0
 12  3  1  0  0  0  0
 13  9  1  0  0  0  0
 13 21  1  1  0  0  0
 14  2  2  0  0  0  0
 15  9  1  0  0  0  0
 16 17  1  0  0  0  0
 18 17  1  0  0  0  0
 20 18  1  0  0  0  0
 20 19  1  0  0  0  0
 21 23  1  0  0  0  0
 23 22  1  0  0  0  0
 24 25  1  0  0  0  0
 25 31  1  0  0  0  0
 25 28  1  0  0  0  0
 26 29  1  0  0  0  0
 27 29  1  0  0  0  0
 28 27  1  0  0  0  0
 28 26  1  0  0  0  0
 30 31  2  0  0  0  0
 32 30  1  0  0  0  0
M  END
>  <MODEL>
8

>  <REMARK>
 VINA RESULT:      -6.2      2.958      3.841
  Name = 
  10 active torsions:
  status: ('A' for Active; 'I' for Inactive)
    1  A    between atoms: C_2  and  O_24
    2  A    between atoms: S_5  and  C_25
    3  A    between atoms: C_7  and  N_32
    4  A    between atoms: C_10  and  C_20
    5  A    between atoms: C_10  and  O_24
    6  A    between atoms: C_16  and  C_27
    7  A    between atoms: S_17  and  C_20
    8  A    between atoms: C_22  and  N_32
    9  A    between atoms: C_25  and  C_26
   10  A    between atoms: C_27  and  N_32
                            x       y       z     vdW  Elec       q    Type
                         _______ _______ _______ _____ _____    ______ ____

>  <TORSDO>
F 10

$$$$
=
 OpenBabel11052416593D

 32 35  0  0  1  0  0  0  0  0999 V2000
  182.2960  179.2410  138.4710 C   0  0  2  0  0  3  0  0  0  0  0  0
  186.8590  178.6260  140.5770 C   0  0  0  0  0  0  0  0  0  0  0  0
  184.4890  178.9660  140.2310 C   0  0  0  0  0  0  0  0  0  0  0  0
  185.8800  178.2150  138.3890 C   0  0  0  0  0  3  0  0  0  0  0  0
  183.5040  178.5980  138.0580 O   0  0  0  0  0  0  0  0  0  0  0  0
  189.1180  179.1000  138.3200 C   0  0  0  0  0  1  0  0  0  0  0  0
  186.9960  178.2330  139.2320 C   0  0  0  0  0  0  0  0  0  0  0  0
  188.3420  177.8490  138.7050 C   0  0  2  0  0  3  0  0  0  0  0  0
  189.0990  177.5920  141.1870 C   0  0  1  0  0  3  0  0  0  0  0  0
  182.0460  178.9960  139.9620 C   0  0  0  0  0  2  0  0  0  0  0  0
  184.6290  178.5900  138.8870 C   0  0  0  0  0  0  0  0  0  0  0  0
  183.2220  179.3020  140.7150 O   0  0  0  0  0  0  0  0  0  0  0  0
  189.0680  177.0000  139.7610 C   0  0  2  0  0  3  0  0  0  0  0  0
  185.6060  179.0040  141.0690 C   0  0  0  0  0  3  0  0  0  0  0  0
  188.0650  178.7020  141.4660 C   0  0  0  0  0  2  0  0  0  0  0  0
  181.2240  178.7540  137.7240 O   0  0  0  0  0  0  0  0  0  0  0  0
  180.2910  179.7930  137.7190 C   0  0  0  0  0  2  0  0  0  0  0  0
  180.7680  180.9180  136.8180 C   0  0  0  0  0  2  0  0  0  0  0  0
  179.5900  181.7850  139.0020 C   0  0  0  0  0  1  0  0  0  0  0  0
  180.5010  182.5290  137.6180 S   0  0  0  0  0  0  0  0  0  0  0  0
  190.4070  176.4210  139.2950 C   0  0  0  0  0  2  0  0  0  0  0  0
  192.1360  175.6210  137.5030 C   0  0  0  0  0  1  0  0  0  0  0  0
  190.3270  175.7070  137.6200 S   0  0  0  0  0  0  0  0  0  0  0  0
  189.0950  176.5040  142.2660 C   0  0  0  0  0  2  0  0  0  0  0  0
  189.2620  177.0480  143.6200 N   0  0  0  0  0  0  0  0  0  0  0  0
  188.2170  177.8480  145.7390 C   0  0  0  0  0  2  0  0  0  0  0  0
  186.8780  177.1510  144.2180 C   0  0  0  0  0  2  0  0  0  0  0  0
  188.2750  176.7650  144.6700 C   0  0  0  0  0  3  0  0  0  0  0  0
  186.8200  178.2210  145.2890 C   0  0  0  0  0  2  0  0  0  0  0  0
  191.3970  177.8050  144.5570 C   0  0  0  0  0  3  0  0  0  0  0  0
  190.2520  178.0480  143.9170 C   0  0  0  0  0  3  0  0  0  0  0  0
  191.7690  176.5260  144.9540 O   0  0  0  0  0  1  0  0  0  0  0  0
  1 16  1  6  0  0  0
  1 10  1  0  0  0  0
  2 14  1  0  0  0  0
  2 15  1  0  0  0  0
  3 12  1  0  0  0  0
  3 14  2  0  0  0  0
  4 11  2  0  0  0  0
  4  7  1  0  0  0  0
  5  1  1  0  0  0  0
  5 11  1  0  0  0  0
  7  2  2  0  0  0  0
  8  6  1  1  0  0  0
  8  7  1  0  0  0  0
  8 13  1  0  0  0  0
  9 15  1  0  0  0  0
  9 24  1  1  0  0  0
 10 12  1  0  0  0  0
 11  3  1  0  0  0  0
 13 21  1  6  0  0  0
 13  9  1  0  0  0  0
 17 16  1  0  0  0  0
 18 20  1  0  0  0  0
 18 17  1  0  0  0  0
 20 19  1  0  0  0  0
 22 23  1  0  0  0  0
 23 21  1  0  0  0  0
 24 25  1  0  0  0  0
 25 31  1  0  0  0  0
 25 28  1  0  0  0  0
 27 28  1  0  0  0  0
 27 29  1  0  0  0  0
 28 26  1  0  0  0  0
 29 26  1  0  0  0  0
 30 32  1  0  0  0  0
 31 30  2  0  0  0  0
M  END
>  <MODEL>
9

>  <REMARK>
 VINA RESULT:      -6.2      5.184      8.058
  Name = 
  10 active torsions:
  status: ('A' for Active; 'I' for Inactive)
    1  A    between atoms: C_2  and  O_24
    2  A    between atoms: S_5  and  C_25
    3  A    between atoms: C_7  and  N_32
    4  A    between atoms: C_10  and  C_20
    5  A    between atoms: C_10  and  O_24
    6  A    between atoms: C_16  and  C_27
    7  A    between atoms: S_17  and  C_20
    8  A    between atoms: C_22  and  N_32
    9  A    between atoms: C_25  and  C_26
   10  A    between atoms: C_27  and  N_32
                            x       y       z     vdW  Elec       q    Type
                         _______ _______ _______ _____ _____    ______ ____

>  <TORSDO>
F 10

$$$$
