=
 OpenBabel11052412293D

 30 33  0  0  1  0  0  0  0  0999 V2000
  184.9970  178.6260  140.7920 C   0  0  0  0  0  3  0  0  0  0  0  0
  186.8520  178.2020  142.2960 C   0  0  0  0  0  0  0  0  0  0  0  0
  182.2920  178.6240  144.0260 C   0  0  0  0  0  3  0  0  0  0  0  0
  183.6330  178.8180  140.5560 C   0  0  0  0  0  0  0  0  0  0  0  0
  180.9320  178.8440  143.7940 C   0  0  0  0  0  3  0  0  0  0  0  0
  187.3340  177.9800  143.5870 C   0  0  0  0  0  3  0  0  0  0  0  0
  187.7240  178.2060  141.2540 F   0  0  0  0  0  0  0  0  0  0  0  0
  183.2080  178.6170  142.9590 C   0  0  0  0  0  0  0  0  0  0  0  0
  186.4570  177.9680  144.6740 C   0  0  0  0  0  3  0  0  0  0  0  0
  185.4800  178.4120  142.0840 C   0  0  0  0  0  0  0  0  0  0  0  0
  182.7340  178.8350  141.6400 C   0  0  0  0  0  0  0  0  0  0  0  0
  180.4700  179.0600  142.4960 C   0  0  0  0  0  3  0  0  0  0  0  0
  181.3650  179.0550  141.4240 C   0  0  0  0  0  3  0  0  0  0  0  0
  185.0910  178.1780  144.4730 C   0  0  0  0  0  3  0  0  0  0  0  0
  184.5840  178.4010  143.1810 C   0  0  0  0  0  0  0  0  0  0  0  0
  182.6860  178.2540  137.0710 O   0  0  0  0  0  0  0  0  0  0  0  0
  182.9520  177.9750  138.2700 C   0  0  0  0  0  0  0  0  0  0  0  0
  183.1790  179.0460  139.2140 N   0  0  0  0  0  0  0  0  0  0  0  0
  183.8810  175.7030  137.7210 C   0  0  0  0  0  2  0  0  0  0  0  0
  181.3710  175.7490  138.7400 S   0  0  0  0  0  0  0  0  0  0  0  0
  183.0130  176.5200  138.6440 C   0  0  2  0  0  3  0  0  0  0  0  0
  183.2930  174.3140  137.7300 C   0  0  0  0  0  2  0  0  0  0  0  0
  181.8470  174.4320  137.6530 N   0  0  0  0  0  2  0  0  0  0  0  0
  183.0040  180.4300  138.7870 C   0  0  0  0  0  2  0  0  0  0  0  0
  181.5800  180.6490  138.3020 C   0  0  0  0  0  2  0  0  0  0  0  0
  181.1830  182.1010  138.4870 C   0  0  0  0  0  2  0  0  0  0  0  0
  180.8350  182.6890  137.2030 N   0  0  0  0  0  2  0  0  0  0  0  0
  182.2900  184.6180  137.5820 O   0  0  0  0  0  1  0  0  0  0  0  0
  181.3910  183.9300  136.7750 C   0  0  0  0  0  0  0  0  0  0  0  0
  181.0650  184.4070  135.6570 O   0  0  0  0  0  0  0  0  0  0  0  0
  1 10  1  0  0  0  0
  2  6  1  0  0  0  0
  4  1  2  0  0  0  0
  4 11  1  0  0  0  0
  5  3  1  0  0  0  0
  6  9  2  0  0  0  0
  7  2  1  0  0  0  0
  8 15  1  0  0  0  0
  8  3  2  0  0  0  0
 10  2  2  0  0  0  0
 10 15  1  0  0  0  0
 11  8  1  0  0  0  0
 12  5  2  0  0  0  0
 13 11  2  0  0  0  0
 13 12  1  0  0  0  0
 14  9  1  0  0  0  0
 15 14  2  0  0  0  0
 16 17  2  0  0  0  0
 17 18  1  0  0  0  0
 18  4  1  0  0  0  0
 19 22  1  0  0  0  0
 19 21  1  0  0  0  0
 21 17  1  6  0  0  0
 21 20  1  0  0  0  0
 23 22  1  0  0  0  0
 23 20  1  0  0  0  0
 24 18  1  0  0  0  0
 25 26  1  0  0  0  0
 25 24  1  0  0  0  0
 27 26  1  0  0  0  0
 29 27  1  0  0  0  0
 29 28  1  0  0  0  0
 30 29  2  0  0  0  0
M  END
>  <MODEL>
1

>  <REMARK>
 VINA RESULT:      -7.3      0.000      0.000
  Name = 
  6 active torsions:
  status: ('A' for Active; 'I' for Inactive)
    1  A    between atoms: C_4  and  N_13
    2  A    between atoms: N_7  and  C_16
    3  A    between atoms: C_8  and  C_12
    4  A    between atoms: N_13  and  C_27
    5  A    between atoms: C_16  and  C_30
    6  A    between atoms: C_27  and  C_30
                            x       y       z     vdW  Elec       q    Type
                         _______ _______ _______ _____ _____    ______ ____

>  <TORSDO>
F 6

$$$$
=
 OpenBabel11052412293D

 30 33  0  0  1  0  0  0  0  0999 V2000
  189.2130  177.5000  143.5680 C   0  0  0  0  0  3  0  0  0  0  0  0
  191.1260  176.7200  144.8400 C   0  0  0  0  0  0  0  0  0  0  0  0
  186.9300  177.8510  147.0960 C   0  0  0  0  0  3  0  0  0  0  0  0
  187.8850  177.9280  143.4960 C   0  0  0  0  0  0  0  0  0  0  0  0
  185.6120  178.3050  147.0270 C   0  0  0  0  0  3  0  0  0  0  0  0
  191.7050  176.3780  146.0640 C   0  0  0  0  0  3  0  0  0  0  0  0
  191.8610  176.6100  143.7040 F   0  0  0  0  0  0  0  0  0  0  0  0
  187.7050  177.7240  145.9300 C   0  0  0  0  0  0  0  0  0  0  0  0
  190.9670  176.4790  147.2450 C   0  0  0  0  0  3  0  0  0  0  0  0
  189.7950  177.1650  144.7930 C   0  0  0  0  0  0  0  0  0  0  0  0
  187.1300  178.0620  144.6780 C   0  0  0  0  0  0  0  0  0  0  0  0
  185.0500  178.6380  145.7950 C   0  0  0  0  0  3  0  0  0  0  0  0
  185.8040  178.5170  144.6270 C   0  0  0  0  0  3  0  0  0  0  0  0
  189.6430  176.9230  147.2080 C   0  0  0  0  0  3  0  0  0  0  0  0
  189.0400  177.2700  145.9870 C   0  0  0  0  0  0  0  0  0  0  0  0
  187.5270  178.4630  139.8980 O   0  0  0  0  0  0  0  0  0  0  0  0
  188.0090  178.0120  140.9710 C   0  0  0  0  0  0  0  0  0  0  0  0
  187.3280  178.2740  142.2190 N   0  0  0  0  0  0  0  0  0  0  0  0
  190.5190  178.0380  141.1320 C   0  0  0  0  0  2  0  0  0  0  0  0
  189.4610  176.3670  139.2800 S   0  0  0  0  0  0  0  0  0  0  0  0
  189.2810  177.2160  140.8760 C   0  0  2  0  0  3  0  0  0  0  0  0
  191.6150  177.3880  140.3250 C   0  0  0  0  0  2  0  0  0  0  0  0
  191.0770  177.0470  139.0190 N   0  0  0  0  0  2  0  0  0  0  0  0
  186.0470  178.9710  142.2080 C   0  0  0  0  0  2  0  0  0  0  0  0
  184.9490  178.0360  141.7320 C   0  0  0  0  0  2  0  0  0  0  0  0
  183.6450  178.7950  141.5790 C   0  0  0  0  0  2  0  0  0  0  0  0
  183.0330  178.4810  140.2980 N   0  0  0  0  0  2  0  0  0  0  0  0
  184.3350  180.2020  139.1460 O   0  0  0  0  0  1  0  0  0  0  0  0
  183.3870  179.1870  139.1100 C   0  0  0  0  0  0  0  0  0  0  0  0
  182.8350  178.8860  138.0200 O   0  0  0  0  0  0  0  0  0  0  0  0
  1 10  1  0  0  0  0
  2  6  1  0  0  0  0
  4  1  2  0  0  0  0
  4 11  1  0  0  0  0
  5  3  1  0  0  0  0
  6  9  2  0  0  0  0
  7  2  1  0  0  0  0
  8 15  1  0  0  0  0
  8  3  2  0  0  0  0
 10  2  2  0  0  0  0
 10 15  1  0  0  0  0
 11  8  1  0  0  0  0
 12  5  2  0  0  0  0
 13 11  2  0  0  0  0
 13 12  1  0  0  0  0
 14  9  1  0  0  0  0
 15 14  2  0  0  0  0
 16 17  2  0  0  0  0
 17 18  1  0  0  0  0
 18  4  1  0  0  0  0
 20 21  1  0  0  0  0
 21 17  1  6  0  0  0
 21 19  1  0  0  0  0
 22 19  1  0  0  0  0
 23 20  1  0  0  0  0
 23 22  1  0  0  0  0
 24 18  1  0  0  0  0
 25 24  1  0  0  0  0
 26 25  1  0  0  0  0
 27 26  1  0  0  0  0
 29 28  1  0  0  0  0
 29 27  1  0  0  0  0
 30 29  2  0  0  0  0
M  END
>  <MODEL>
2

>  <REMARK>
 VINA RESULT:      -7.2      3.741      6.020
  Name = 
  6 active torsions:
  status: ('A' for Active; 'I' for Inactive)
    1  A    between atoms: C_4  and  N_13
    2  A    between atoms: N_7  and  C_16
    3  A    between atoms: C_8  and  C_12
    4  A    between atoms: N_13  and  C_27
    5  A    between atoms: C_16  and  C_30
    6  A    between atoms: C_27  and  C_30
                            x       y       z     vdW  Elec       q    Type
                         _______ _______ _______ _____ _____    ______ ____

>  <TORSDO>
F 6

$$$$
=
 OpenBabel11052412293D

 30 33  0  0  1  0  0  0  0  0999 V2000
  183.2180  178.9480  141.5440 C   0  0  0  0  0  3  0  0  0  0  0  0
  183.1490  178.8440  143.9660 C   0  0  0  0  0  0  0  0  0  0  0  0
  187.3810  178.2820  141.5700 C   0  0  0  0  0  3  0  0  0  0  0  0
  183.9230  178.9130  140.3380 C   0  0  0  0  0  0  0  0  0  0  0  0
  188.0820  178.2190  140.3640 C   0  0  0  0  0  3  0  0  0  0  0  0
  183.8060  178.6890  145.1880 C   0  0  0  0  0  3  0  0  0  0  0  0
  181.8080  179.0550  143.9570 F   0  0  0  0  0  0  0  0  0  0  0  0
  185.9930  178.5080  141.5810 C   0  0  0  0  0  0  0  0  0  0  0  0
  185.1860  178.4740  145.2230 C   0  0  0  0  0  3  0  0  0  0  0  0
  183.8740  178.7860  142.7650 C   0  0  0  0  0  0  0  0  0  0  0  0
  185.3110  178.6720  140.3480 C   0  0  0  0  0  0  0  0  0  0  0  0
  187.4070  178.3790  139.1540 C   0  0  0  0  0  3  0  0  0  0  0  0
  186.0300  178.6050  139.1450 C   0  0  0  0  0  3  0  0  0  0  0  0
  185.9150  178.4140  144.0340 C   0  0  0  0  0  3  0  0  0  0  0  0
  185.2740  178.5690  142.7930 C   0  0  0  0  0  0  0  0  0  0  0  0
  182.3690  178.1870  137.1100 O   0  0  0  0  0  0  0  0  0  0  0  0
  182.8750  177.9620  138.2410 C   0  0  0  0  0  0  0  0  0  0  0  0
  183.2090  179.0730  139.1030 N   0  0  0  0  0  0  0  0  0  0  0  0
  184.0320  175.7970  137.6910 C   0  0  0  0  0  2  0  0  0  0  0  0
  181.5500  175.5830  138.7560 S   0  0  0  0  0  0  0  0  0  0  0  0
  183.0980  176.5240  138.6240 C   0  0  2  0  0  3  0  0  0  0  0  0
  183.5970  174.3530  137.7200 C   0  0  0  0  0  2  0  0  0  0  0  0
  182.1450  174.3150  137.6700 N   0  0  0  0  0  2  0  0  0  0  0  0
  182.8680  180.4300  138.6920 C   0  0  0  0  0  2  0  0  0  0  0  0
  181.3880  180.6880  138.9230 C   0  0  0  0  0  2  0  0  0  0  0  0
  180.8010  181.4490  137.7500 C   0  0  0  0  0  2  0  0  0  0  0  0
  181.2140  182.8420  137.8030 N   0  0  0  0  0  2  0  0  0  0  0  0
  180.8530  183.1430  135.4030 O   0  0  0  0  0  0  0  0  0  0  0  0
  181.2330  183.6610  136.6350 C   0  0  0  0  0  0  0  0  0  0  0  0
  181.5970  184.8620  136.7220 O   0  0  0  0  0  1  0  0  0  0  0  0
  1 10  1  0  0  0  0
  2  6  1  0  0  0  0
  3  8  1  0  0  0  0
  4 11  1  0  0  0  0
  4  1  2  0  0  0  0
  5  3  2  0  0  0  0
  6  9  2  0  0  0  0
  7  2  1  0  0  0  0
  8 15  1  0  0  0  0
 10 15  1  0  0  0  0
 10  2  2  0  0  0  0
 11  8  2  0  0  0  0
 12  5  1  0  0  0  0
 13 12  2  0  0  0  0
 13 11  1  0  0  0  0
 14  9  1  0  0  0  0
 15 14  2  0  0  0  0
 16 17  2  0  0  0  0
 17 18  1  0  0  0  0
 18  4  1  0  0  0  0
 19 22  1  0  0  0  0
 19 21  1  0  0  0  0
 21 17  1  6  0  0  0
 21 20  1  0  0  0  0
 23 22  1  0  0  0  0
 23 20  1  0  0  0  0
 24 25  1  0  0  0  0
 24 18  1  0  0  0  0
 26 27  1  0  0  0  0
 26 25  1  0  0  0  0
 28 29  2  0  0  0  0
 29 30  1  0  0  0  0
 29 27  1  0  0  0  0
M  END
>  <MODEL>
3

>  <REMARK>
 VINA RESULT:      -7.2      1.572      3.161
  Name = 
  6 active torsions:
  status: ('A' for Active; 'I' for Inactive)
    1  A    between atoms: C_4  and  N_13
    2  A    between atoms: N_7  and  C_16
    3  A    between atoms: C_8  and  C_12
    4  A    between atoms: N_13  and  C_27
    5  A    between atoms: C_16  and  C_30
    6  A    between atoms: C_27  and  C_30
                            x       y       z     vdW  Elec       q    Type
                         _______ _______ _______ _____ _____    ______ ____

>  <TORSDO>
F 6

$$$$
=
 OpenBabel11052412293D

 30 33  0  0  1  0  0  0  0  0999 V2000
  186.2200  177.7920  142.2990 C   0  0  0  0  0  3  0  0  0  0  0  0
  183.9120  178.5040  142.0650 C   0  0  0  0  0  0  0  0  0  0  0  0
  186.0530  178.4010  146.4680 C   0  0  0  0  0  3  0  0  0  0  0  0
  187.3520  177.5530  143.0810 C   0  0  0  0  0  0  0  0  0  0  0  0
  187.1760  178.1350  147.2530 C   0  0  0  0  0  3  0  0  0  0  0  0
  182.7280  178.9700  142.6400 C   0  0  0  0  0  3  0  0  0  0  0  0
  183.9650  178.3040  140.7240 F   0  0  0  0  0  0  0  0  0  0  0  0
  186.0910  178.2080  145.0750 C   0  0  0  0  0  0  0  0  0  0  0  0
  182.6500  179.1860  144.0170 C   0  0  0  0  0  3  0  0  0  0  0  0
  185.0330  178.2520  142.8730 C   0  0  0  0  0  0  0  0  0  0  0  0
  187.2890  177.7400  144.4750 C   0  0  0  0  0  0  0  0  0  0  0  0
  188.3510  177.6730  146.6610 C   0  0  0  0  0  3  0  0  0  0  0  0
  188.4080  177.4760  145.2800 C   0  0  0  0  0  3  0  0  0  0  0  0
  183.7590  178.9360  144.8280 C   0  0  0  0  0  3  0  0  0  0  0  0
  184.9620  178.4680  144.2710 C   0  0  0  0  0  0  0  0  0  0  0  0
  189.8590  176.7580  140.5430 O   0  0  0  0  0  0  0  0  0  0  0  0
  188.8630  177.3240  141.0650 C   0  0  0  0  0  0  0  0  0  0  0  0
  188.5490  177.0700  142.4530 N   0  0  0  0  0  0  0  0  0  0  0  0
  186.8870  177.5630  139.5260 C   0  0  0  0  0  2  0  0  0  0  0  0
  189.0580  179.0650  138.9180 S   0  0  0  0  0  0  0  0  0  0  0  0
  188.0550  178.2450  140.1910 C   0  0  2  0  0  3  0  0  0  0  0  0
  186.6670  178.3010  138.2290 C   0  0  0  0  0  2  0  0  0  0  0  0
  187.9650  178.5490  137.6220 N   0  0  0  0  0  2  0  0  0  0  0  0
  189.4430  176.2390  143.2520 C   0  0  0  0  0  2  0  0  0  0  0  0
  190.8200  176.8770  143.3240 C   0  0  0  0  0  2  0  0  0  0  0  0
  191.6860  176.1400  144.3280 C   0  0  0  0  0  2  0  0  0  0  0  0
  191.6990  176.8550  145.5930 N   0  0  0  0  0  2  0  0  0  0  0  0
  192.4180  174.8670  146.8220 O   0  0  0  0  0  0  0  0  0  0  0  0
  192.0630  176.2100  146.8120 C   0  0  0  0  0  0  0  0  0  0  0  0
  192.0620  176.8630  147.8870 O   0  0  0  0  0  1  0  0  0  0  0  0
  1 10  2  0  0  0  0
  1  4  1  0  0  0  0
  2  6  2  0  0  0  0
  2 10  1  0  0  0  0
  3  5  2  0  0  0  0
  4 11  2  0  0  0  0
  6  9  1  0  0  0  0
  7  2  1  0  0  0  0
  8  3  1  0  0  0  0
  9 14  2  0  0  0  0
 10 15  1  0  0  0  0
 11  8  1  0  0  0  0
 11 13  1  0  0  0  0
 12  5  1  0  0  0  0
 13 12  2  0  0  0  0
 15 14  1  0  0  0  0
 15  8  2  0  0  0  0
 16 17  2  0  0  0  0
 17 18  1  0  0  0  0
 18  4  1  0  0  0  0
 18 24  1  0  0  0  0
 19 21  1  0  0  0  0
 20 21  1  0  0  0  0
 21 17  1  6  0  0  0
 22 19  1  0  0  0  0
 23 22  1  0  0  0  0
 23 20  1  0  0  0  0
 24 25  1  0  0  0  0
 25 26  1  0  0  0  0
 26 27  1  0  0  0  0
 27 29  1  0  0  0  0
 29 28  2  0  0  0  0
 29 30  1  0  0  0  0
M  END
>  <MODEL>
4

>  <REMARK>
 VINA RESULT:      -7.1      5.426      8.560
  Name = 
  6 active torsions:
  status: ('A' for Active; 'I' for Inactive)
    1  A    between atoms: C_4  and  N_13
    2  A    between atoms: N_7  and  C_16
    3  A    between atoms: C_8  and  C_12
    4  A    between atoms: N_13  and  C_27
    5  A    between atoms: C_16  and  C_30
    6  A    between atoms: C_27  and  C_30
                            x       y       z     vdW  Elec       q    Type
                         _______ _______ _______ _____ _____    ______ ____

>  <TORSDO>
F 6

$$$$
=
 OpenBabel11052412293D

 30 33  0  0  1  0  0  0  0  0999 V2000
  183.1950  178.9450  141.5980 C   0  0  0  0  0  3  0  0  0  0  0  0
  183.1690  178.8390  144.0210 C   0  0  0  0  0  0  0  0  0  0  0  0
  187.3640  178.3160  141.5500 C   0  0  0  0  0  3  0  0  0  0  0  0
  183.8790  178.9170  140.3800 C   0  0  0  0  0  0  0  0  0  0  0  0
  188.0430  178.2600  140.3320 C   0  0  0  0  0  3  0  0  0  0  0  0
  183.8500  178.6900  145.2310 C   0  0  0  0  0  3  0  0  0  0  0  0
  181.8270  179.0380  144.0360 F   0  0  0  0  0  0  0  0  0  0  0  0
  185.9740  178.5290  141.5860 C   0  0  0  0  0  0  0  0  0  0  0  0
  185.2320  178.4870  145.2420 C   0  0  0  0  0  3  0  0  0  0  0  0
  183.8740  178.7890  142.8080 C   0  0  0  0  0  0  0  0  0  0  0  0
  185.2680  178.6890  140.3660 C   0  0  0  0  0  0  0  0  0  0  0  0
  187.3460  178.4150  139.1340 C   0  0  0  0  0  3  0  0  0  0  0  0
  185.9670  178.6280  139.1500 C   0  0  0  0  0  3  0  0  0  0  0  0
  185.9410  178.4330  144.0400 C   0  0  0  0  0  3  0  0  0  0  0  0
  185.2760  178.5830  142.8100 C   0  0  0  0  0  0  0  0  0  0  0  0
  182.2850  178.1820  137.1740 O   0  0  0  0  0  0  0  0  0  0  0  0
  182.8140  177.9590  138.2950 C   0  0  0  0  0  0  0  0  0  0  0  0
  183.1410  179.0710  139.1580 N   0  0  0  0  0  0  0  0  0  0  0  0
  184.0140  175.8250  137.7190 C   0  0  0  0  0  2  0  0  0  0  0  0
  181.5440  175.5480  138.7970 S   0  0  0  0  0  0  0  0  0  0  0  0
  183.0710  176.5240  138.6640 C   0  0  2  0  0  3  0  0  0  0  0  0
  183.6100  174.3710  137.7400 C   0  0  0  0  0  2  0  0  0  0  0  0
  182.1590  174.3020  137.6980 N   0  0  0  0  0  2  0  0  0  0  0  0
  182.7680  180.4240  138.7610 C   0  0  0  0  0  2  0  0  0  0  0  0
  181.2760  180.4920  138.4800 C   0  0  0  0  0  2  0  0  0  0  0  0
  180.5290  180.9340  139.7240 C   0  0  0  0  0  2  0  0  0  0  0  0
  179.8840  179.7900  140.3490 N   0  0  0  0  0  2  0  0  0  0  0  0
  179.8530  180.8810  142.5380 O   0  0  0  0  0  1  0  0  0  0  0  0
  179.5590  179.7830  141.7380 C   0  0  0  0  0  0  0  0  0  0  0  0
  179.0000  178.7750  142.2420 O   0  0  0  0  0  0  0  0  0  0  0  0
  1 10  1  0  0  0  0
  2  7  1  0  0  0  0
  2  6  1  0  0  0  0
  3  8  1  0  0  0  0
  4  1  2  0  0  0  0
  5  3  2  0  0  0  0
  6  9  2  0  0  0  0
  8 15  1  0  0  0  0
 10 15  1  0  0  0  0
 10  2  2  0  0  0  0
 11  4  1  0  0  0  0
 11  8  2  0  0  0  0
 12 13  2  0  0  0  0
 12  5  1  0  0  0  0
 13 11  1  0  0  0  0
 14  9  1  0  0  0  0
 15 14  2  0  0  0  0
 16 17  2  0  0  0  0
 17 18  1  0  0  0  0
 18  4  1  0  0  0  0
 19 22  1  0  0  0  0
 19 21  1  0  0  0  0
 21 17  1  6  0  0  0
 21 20  1  0  0  0  0
 23 22  1  0  0  0  0
 23 20  1  0  0  0  0
 24 18  1  0  0  0  0
 25 24  1  0  0  0  0
 25 26  1  0  0  0  0
 26 27  1  0  0  0  0
 27 29  1  0  0  0  0
 29 30  2  0  0  0  0
 29 28  1  0  0  0  0
M  END
>  <MODEL>
5

>  <REMARK>
 VINA RESULT:      -7.0      2.469      3.987
  Name = 
  6 active torsions:
  status: ('A' for Active; 'I' for Inactive)
    1  A    between atoms: C_4  and  N_13
    2  A    between atoms: N_7  and  C_16
    3  A    between atoms: C_8  and  C_12
    4  A    between atoms: N_13  and  C_27
    5  A    between atoms: C_16  and  C_30
    6  A    between atoms: C_27  and  C_30
                            x       y       z     vdW  Elec       q    Type
                         _______ _______ _______ _____ _____    ______ ____

>  <TORSDO>
F 6

$$$$
=
 OpenBabel11052412293D

 30 33  0  0  1  0  0  0  0  0999 V2000
  181.8230  178.9590  141.9760 C   0  0  0  0  0  3  0  0  0  0  0  0
  182.7060  178.8730  144.2340 C   0  0  0  0  0  0  0  0  0  0  0  0
  185.7040  178.5510  140.3770 C   0  0  0  0  0  3  0  0  0  0  0  0
  182.0070  178.9570  140.5910 C   0  0  0  0  0  0  0  0  0  0  0  0
  185.8840  178.5210  138.9920 C   0  0  0  0  0  3  0  0  0  0  0  0
  183.7940  178.7700  145.1030 C   0  0  0  0  0  3  0  0  0  0  0  0
  181.4560  179.0000  144.7490 F   0  0  0  0  0  0  0  0  0  0  0  0
  184.4180  178.6910  140.9280 C   0  0  0  0  0  0  0  0  0  0  0  0
  185.0890  178.6400  144.5970 C   0  0  0  0  0  3  0  0  0  0  0  0
  182.9110  178.8490  142.8460 C   0  0  0  0  0  0  0  0  0  0  0  0
  183.3020  178.8020  140.0590 C   0  0  0  0  0  0  0  0  0  0  0  0
  184.7840  178.6290  138.1410 C   0  0  0  0  0  3  0  0  0  0  0  0
  183.5010  178.7690  138.6700 C   0  0  0  0  0  3  0  0  0  0  0  0
  185.3020  178.6140  143.2180 C   0  0  0  0  0  3  0  0  0  0  0  0
  184.2220  178.7180  142.3250 C   0  0  0  0  0  0  0  0  0  0  0  0
  179.2970  178.0790  138.3000 O   0  0  0  0  0  0  0  0  0  0  0  0
  180.2100  177.9090  139.1510 C   0  0  0  0  0  0  0  0  0  0  0  0
  180.8610  179.0610  139.7330 N   0  0  0  0  0  0  0  0  0  0  0  0
  180.8210  175.6190  138.3100 C   0  0  0  0  0  2  0  0  0  0  0  0
  179.3080  175.6980  140.5550 S   0  0  0  0  0  0  0  0  0  0  0  0
  180.5640  176.4920  139.5100 C   0  0  2  0  0  3  0  0  0  0  0  0
  180.4300  174.2230  138.7270 C   0  0  0  0  0  2  0  0  0  0  0  0
  179.1820  174.3040  139.4680 N   0  0  0  0  0  2  0  0  0  0  0  0
  180.3880  180.4000  139.3980 C   0  0  0  0  0  2  0  0  0  0  0  0
  180.9290  180.8200  138.0420 C   0  0  0  0  0  2  0  0  0  0  0  0
  181.1980  182.3130  138.0260 C   0  0  0  0  0  2  0  0  0  0  0  0
  180.8050  182.8750  136.7440 N   0  0  0  0  0  2  0  0  0  0  0  0
  181.9300  184.9940  137.2190 O   0  0  0  0  0  1  0  0  0  0  0  0
  181.1750  184.1990  136.3640 C   0  0  0  0  0  0  0  0  0  0  0  0
  180.8160  184.6500  135.2470 O   0  0  0  0  0  0  0  0  0  0  0  0
  1 10  1  0  0  0  0
  2  7  1  0  0  0  0
  2  6  1  0  0  0  0
  3  8  1  0  0  0  0
  4  1  2  0  0  0  0
  5  3  2  0  0  0  0
  8 15  1  0  0  0  0
  9  6  2  0  0  0  0
 10  2  2  0  0  0  0
 11  4  1  0  0  0  0
 11  8  2  0  0  0  0
 12 13  2  0  0  0  0
 12  5  1  0  0  0  0
 13 11  1  0  0  0  0
 14  9  1  0  0  0  0
 15 10  1  0  0  0  0
 15 14  2  0  0  0  0
 16 17  2  0  0  0  0
 17 18  1  0  0  0  0
 18  4  1  0  0  0  0
 19 22  1  0  0  0  0
 19 21  1  0  0  0  0
 21 17  1  6  0  0  0
 21 20  1  0  0  0  0
 22 23  1  0  0  0  0
 23 20  1  0  0  0  0
 24 18  1  0  0  0  0
 25 24  1  0  0  0  0
 26 25  1  0  0  0  0
 27 26  1  0  0  0  0
 29 27  1  0  0  0  0
 29 28  1  0  0  0  0
 30 29  2  0  0  0  0
M  END
>  <MODEL>
6

>  <REMARK>
 VINA RESULT:      -6.9      2.157      3.299
  Name = 
  6 active torsions:
  status: ('A' for Active; 'I' for Inactive)
    1  A    between atoms: C_4  and  N_13
    2  A    between atoms: N_7  and  C_16
    3  A    between atoms: C_8  and  C_12
    4  A    between atoms: N_13  and  C_27
    5  A    between atoms: C_16  and  C_30
    6  A    between atoms: C_27  and  C_30
                            x       y       z     vdW  Elec       q    Type
                         _______ _______ _______ _____ _____    ______ ____

>  <TORSDO>
F 6

$$$$
=
 OpenBabel11052412293D

 30 33  0  0  1  0  0  0  0  0999 V2000
  183.0710  178.7410  140.1790 C   0  0  0  0  0  3  0  0  0  0  0  0
  185.3360  178.6510  141.0420 C   0  0  0  0  0  0  0  0  0  0  0  0
  181.5080  178.6260  144.0930 C   0  0  0  0  0  3  0  0  0  0  0  0
  181.6880  178.7480  140.3750 C   0  0  0  0  0  0  0  0  0  0  0  0
  180.1260  178.6610  144.2900 C   0  0  0  0  0  3  0  0  0  0  0  0
  186.2150  178.5790  142.1240 C   0  0  0  0  0  3  0  0  0  0  0  0
  185.8390  178.6920  139.7810 F   0  0  0  0  0  0  0  0  0  0  0  0
  182.0470  178.6590  142.7950 C   0  0  0  0  0  0  0  0  0  0  0  0
  185.7210  178.5330  143.4300 C   0  0  0  0  0  3  0  0  0  0  0  0
  183.9500  178.6760  141.2620 C   0  0  0  0  0  0  0  0  0  0  0  0
  181.1680  178.7270  141.6830 C   0  0  0  0  0  0  0  0  0  0  0  0
  179.2650  178.7300  143.1950 C   0  0  0  0  0  3  0  0  0  0  0  0
  179.7820  178.7630  141.8990 C   0  0  0  0  0  3  0  0  0  0  0  0
  184.3440  178.5590  143.6590 C   0  0  0  0  0  3  0  0  0  0  0  0
  183.4420  178.6290  142.5830 C   0  0  0  0  0  0  0  0  0  0  0  0
  179.8190  177.8400  137.3670 O   0  0  0  0  0  0  0  0  0  0  0  0
  180.4750  177.6770  138.4300 C   0  0  0  0  0  0  0  0  0  0  0  0
  180.8190  178.8270  139.2350 N   0  0  0  0  0  0  0  0  0  0  0  0
  181.0780  175.3810  137.5990 C   0  0  0  0  0  2  0  0  0  0  0  0
  179.6530  175.4770  139.9000 S   0  0  0  0  0  0  0  0  0  0  0  0
  180.8580  176.2690  138.7960 C   0  0  2  0  0  3  0  0  0  0  0  0
  180.7200  173.9880  138.0520 C   0  0  0  0  0  2  0  0  0  0  0  0
  179.5010  174.0660  138.8390 N   0  0  0  0  0  2  0  0  0  0  0  0
  180.3220  180.1450  138.8550 C   0  0  0  0  0  2  0  0  0  0  0  0
  181.3070  180.8220  137.9170 C   0  0  0  0  0  2  0  0  0  0  0  0
  181.1800  182.3300  138.0250 C   0  0  0  0  0  2  0  0  0  0  0  0
  180.8000  182.8900  136.7380 N   0  0  0  0  0  2  0  0  0  0  0  0
  181.9300  185.0060  137.2160 O   0  0  0  0  0  1  0  0  0  0  0  0
  181.1790  184.2120  136.3580 C   0  0  0  0  0  0  0  0  0  0  0  0
  180.8300  184.6610  135.2360 O   0  0  0  0  0  0  0  0  0  0  0  0
  1  4  2  0  0  0  0
  1 10  1  0  0  0  0
  2 10  2  0  0  0  0
  2  6  1  0  0  0  0
  3  5  1  0  0  0  0
  4 11  1  0  0  0  0
  6  9  2  0  0  0  0
  7  2  1  0  0  0  0
  8  3  2  0  0  0  0
  9 14  1  0  0  0  0
 10 15  1  0  0  0  0
 11 13  2  0  0  0  0
 11  8  1  0  0  0  0
 12  5  2  0  0  0  0
 13 12  1  0  0  0  0
 15  8  1  0  0  0  0
 15 14  2  0  0  0  0
 16 17  2  0  0  0  0
 17 18  1  0  0  0  0
 18  4  1  0  0  0  0
 19 22  1  0  0  0  0
 19 21  1  0  0  0  0
 21 17  1  6  0  0  0
 21 20  1  0  0  0  0
 22 23  1  0  0  0  0
 23 20  1  0  0  0  0
 24 18  1  0  0  0  0
 25 26  1  0  0  0  0
 25 24  1  0  0  0  0
 27 26  1  0  0  0  0
 29 27  1  0  0  0  0
 29 28  1  0  0  0  0
 30 29  2  0  0  0  0
M  END
>  <MODEL>
7

>  <REMARK>
 VINA RESULT:      -6.9      1.557      1.834
  Name = 
  6 active torsions:
  status: ('A' for Active; 'I' for Inactive)
    1  A    between atoms: C_4  and  N_13
    2  A    between atoms: N_7  and  C_16
    3  A    between atoms: C_8  and  C_12
    4  A    between atoms: N_13  and  C_27
    5  A    between atoms: C_16  and  C_30
    6  A    between atoms: C_27  and  C_30
                            x       y       z     vdW  Elec       q    Type
                         _______ _______ _______ _____ _____    ______ ____

>  <TORSDO>
F 6

$$$$
=
 OpenBabel11052412293D

 30 33  0  0  1  0  0  0  0  0999 V2000
  185.4570  178.7990  142.4260 C   0  0  0  0  0  3  0  0  0  0  0  0
  184.1830  179.0850  144.4710 C   0  0  0  0  0  0  0  0  0  0  0  0
  188.5370  176.8460  144.5420 C   0  0  0  0  0  3  0  0  0  0  0  0
  186.5960  178.3600  141.7460 C   0  0  0  0  0  0  0  0  0  0  0  0
  189.6630  176.3820  143.8580 C   0  0  0  0  0  3  0  0  0  0  0  0
  184.0590  178.9120  145.8510 C   0  0  0  0  0  3  0  0  0  0  0  0
  183.1900  179.7110  143.7890 F   0  0  0  0  0  0  0  0  0  0  0  0
  187.5020  177.5030  143.8530 C   0  0  0  0  0  0  0  0  0  0  0  0
  185.0690  178.2740  146.5740 C   0  0  0  0  0  3  0  0  0  0  0  0
  185.3280  178.6200  143.8050 C   0  0  0  0  0  0  0  0  0  0  0  0
  187.6150  177.6920  142.4520 C   0  0  0  0  0  0  0  0  0  0  0  0
  189.7700  176.5680  142.4800 C   0  0  0  0  0  3  0  0  0  0  0  0
  188.7530  177.2190  141.7800 C   0  0  0  0  0  3  0  0  0  0  0  0
  186.2100  177.8060  145.9200 C   0  0  0  0  0  3  0  0  0  0  0  0
  186.3570  177.9720  144.5320 C   0  0  0  0  0  0  0  0  0  0  0  0
  185.6710  178.6620  138.2230 O   0  0  0  0  0  0  0  0  0  0  0  0
  185.5190  178.6280  139.4730 C   0  0  0  0  0  0  0  0  0  0  0  0
  186.6830  178.5540  140.3270 N   0  0  0  0  0  0  0  0  0  0  0  0
  183.4400  177.3190  140.0130 C   0  0  0  0  0  2  0  0  0  0  0  0
  183.0560  179.8380  139.0930 S   0  0  0  0  0  0  0  0  0  0  0  0
  184.1110  178.6690  139.9990 C   0  0  2  0  0  3  0  0  0  0  0  0
  181.9680  177.5920  139.8310 C   0  0  0  0  0  2  0  0  0  0  0  0
  181.8180  178.6050  138.8000 N   0  0  0  0  0  2  0  0  0  0  0  0
  188.0150  178.6180  139.7350 C   0  0  0  0  0  2  0  0  0  0  0  0
  188.1260  177.6200  138.5940 C   0  0  0  0  0  2  0  0  0  0  0  0
  189.4300  177.8230  137.8470 C   0  0  0  0  0  2  0  0  0  0  0  0
  190.0490  176.5370  137.5700 N   0  0  0  0  0  2  0  0  0  0  0  0
  191.5750  176.7540  139.4690 O   0  0  0  0  0  1  0  0  0  0  0  0
  191.1060  176.0270  138.3810 C   0  0  0  0  0  0  0  0  0  0  0  0
  191.6170  174.9100  138.1100 O   0  0  0  0  0  0  0  0  0  0  0  0
  1 10  1  0  0  0  0
  2  6  1  0  0  0  0
  4  1  2  0  0  0  0
  4 11  1  0  0  0  0
  5  3  1  0  0  0  0
  6  9  2  0  0  0  0
  7  2  1  0  0  0  0
  8 15  1  0  0  0  0
  8  3  2  0  0  0  0
 10  2  2  0  0  0  0
 10 15  1  0  0  0  0
 11  8  1  0  0  0  0
 12  5  2  0  0  0  0
 13 11  2  0  0  0  0
 13 12  1  0  0  0  0
 14  9  1  0  0  0  0
 15 14  2  0  0  0  0
 16 17  2  0  0  0  0
 17 18  1  0  0  0  0
 18  4  1  0  0  0  0
 20 21  1  0  0  0  0
 21 17  1  6  0  0  0
 21 19  1  0  0  0  0
 22 19  1  0  0  0  0
 23 20  1  0  0  0  0
 23 22  1  0  0  0  0
 24 18  1  0  0  0  0
 25 24  1  0  0  0  0
 26 25  1  0  0  0  0
 27 26  1  0  0  0  0
 27 29  1  0  0  0  0
 29 28  1  0  0  0  0
 30 29  2  0  0  0  0
M  END
>  <MODEL>
8

>  <REMARK>
 VINA RESULT:      -6.9      3.861      6.644
  Name = 
  6 active torsions:
  status: ('A' for Active; 'I' for Inactive)
    1  A    between atoms: C_4  and  N_13
    2  A    between atoms: N_7  and  C_16
    3  A    between atoms: C_8  and  C_12
    4  A    between atoms: N_13  and  C_27
    5  A    between atoms: C_16  and  C_30
    6  A    between atoms: C_27  and  C_30
                            x       y       z     vdW  Elec       q    Type
                         _______ _______ _______ _____ _____    ______ ____

>  <TORSDO>
F 6

$$$$
=
 OpenBabel11052412293D

 30 33  0  0  1  0  0  0  0  0999 V2000
  188.1500  177.8170  143.7520 C   0  0  0  0  0  3  0  0  0  0  0  0
  189.2490  177.1410  145.8060 C   0  0  0  0  0  0  0  0  0  0  0  0
  184.5550  178.5340  145.8360 C   0  0  0  0  0  3  0  0  0  0  0  0
  187.0180  178.2510  143.0560 C   0  0  0  0  0  0  0  0  0  0  0  0
  183.4320  178.9940  145.1450 C   0  0  0  0  0  3  0  0  0  0  0  0
  189.2020  176.9130  147.1830 C   0  0  0  0  0  3  0  0  0  0  0  0
  190.4070  176.9140  145.1350 F   0  0  0  0  0  0  0  0  0  0  0  0
  185.7610  178.2850  145.1570 C   0  0  0  0  0  0  0  0  0  0  0  0
  188.0210  177.1360  147.8940 C   0  0  0  0  0  3  0  0  0  0  0  0
  188.1050  177.5950  145.1300 C   0  0  0  0  0  0  0  0  0  0  0  0
  185.8240  178.5070  143.7570 C   0  0  0  0  0  0  0  0  0  0  0  0
  183.4980  179.2130  143.7700 C   0  0  0  0  0  3  0  0  0  0  0  0
  184.6860  178.9710  143.0790 C   0  0  0  0  0  3  0  0  0  0  0  0
  186.8790  177.5900  147.2300 C   0  0  0  0  0  3  0  0  0  0  0  0
  186.9040  177.8240  145.8450 C   0  0  0  0  0  0  0  0  0  0  0  0
  188.3610  178.5430  139.6690 O   0  0  0  0  0  0  0  0  0  0  0  0
  188.3030  178.1930  140.8780 C   0  0  0  0  0  0  0  0  0  0  0  0
  187.1100  178.4780  141.6420 N   0  0  0  0  0  0  0  0  0  0  0  0
  190.3760  178.3870  142.2900 C   0  0  0  0  0  2  0  0  0  0  0  0
  190.5270  176.6960  140.1790 S   0  0  0  0  0  0  0  0  0  0  0  0
  189.5020  177.4900  141.4520 C   0  0  2  0  0  3  0  0  0  0  0  0
  191.7740  177.8350  142.1600 C   0  0  0  0  0  2  0  0  0  0  0  0
  191.9980  177.4920  140.7650 N   0  0  0  0  0  2  0  0  0  0  0  0
  185.9570  179.0770  140.9790 C   0  0  0  0  0  2  0  0  0  0  0  0
  185.6810  178.3620  139.6670 C   0  0  0  0  0  2  0  0  0  0  0  0
  184.2480  178.6020  139.2320 C   0  0  0  0  0  2  0  0  0  0  0  0
  183.9920  180.0300  139.1260 N   0  0  0  0  0  2  0  0  0  0  0  0
  181.6810  179.6610  138.4170 O   0  0  0  0  0  0  0  0  0  0  0  0
  182.7200  180.5320  138.7220 C   0  0  0  0  0  0  0  0  0  0  0  0
  182.5370  181.7740  138.6430 O   0  0  0  0  0  1  0  0  0  0  0  0
  1 10  1  0  0  0  0
  2  6  1  0  0  0  0
  4  1  2  0  0  0  0
  4 11  1  0  0  0  0
  5  3  2  0  0  0  0
  6  9  2  0  0  0  0
  7  2  1  0  0  0  0
  8  3  1  0  0  0  0
  8 15  1  0  0  0  0
 10  2  2  0  0  0  0
 10 15  1  0  0  0  0
 11  8  2  0  0  0  0
 12  5  1  0  0  0  0
 13 11  1  0  0  0  0
 13 12  2  0  0  0  0
 14  9  1  0  0  0  0
 15 14  2  0  0  0  0
 16 17  2  0  0  0  0
 17 18  1  0  0  0  0
 18  4  1  0  0  0  0
 20 23  1  0  0  0  0
 20 21  1  0  0  0  0
 21 17  1  6  0  0  0
 21 19  1  0  0  0  0
 22 19  1  0  0  0  0
 23 22  1  0  0  0  0
 24 18  1  0  0  0  0
 25 24  1  0  0  0  0
 26 25  1  0  0  0  0
 27 26  1  0  0  0  0
 28 29  2  0  0  0  0
 29 27  1  0  0  0  0
 30 29  1  0  0  0  0
M  END
>  <MODEL>
9

>  <REMARK>
 VINA RESULT:      -6.8      3.554      5.454
  Name = 
  6 active torsions:
  status: ('A' for Active; 'I' for Inactive)
    1  A    between atoms: C_4  and  N_13
    2  A    between atoms: N_7  and  C_16
    3  A    between atoms: C_8  and  C_12
    4  A    between atoms: N_13  and  C_27
    5  A    between atoms: C_16  and  C_30
    6  A    between atoms: C_27  and  C_30
                            x       y       z     vdW  Elec       q    Type
                         _______ _______ _______ _____ _____    ______ ____

>  <TORSDO>
F 6

$$$$
