=
 OpenBabel11052413213D

 28 31  0  0  1  0  0  0  0  0999 V2000
  182.4180  179.0810  139.2280 C   0  0  2  0  0  3  0  0  0  0  0  0
  186.2830  177.9110  142.5220 C   0  0  0  0  0  3  0  0  0  0  0  0
  180.5150  179.4020  143.7350 O   0  0  0  0  0  0  0  0  0  0  0  0
  185.3400  178.3430  144.7200 C   0  0  0  0  0  0  0  0  0  0  0  0
  183.9060  178.4770  142.7450 C   0  0  0  0  0  0  0  0  0  0  0  0
  187.6870  177.7890  144.4900 C   0  0  0  0  0  0  0  0  0  0  0  0
  185.1740  178.2410  143.3170 C   0  0  0  0  0  0  0  0  0  0  0  0
  183.0000  178.8950  144.9680 C   0  0  0  0  0  3  0  0  0  0  0  0
  186.5940  178.1180  145.2950 C   0  0  0  0  0  3  0  0  0  0  0  0
  181.2670  178.9540  141.5190 C   0  0  2  0  0  3  0  0  0  0  0  0
  183.6980  178.3220  141.2580 C   0  0  0  0  0  2  0  0  0  0  0  0
  184.2550  178.6680  145.5330 C   0  0  0  0  0  3  0  0  0  0  0  0
  180.9180  177.1290  139.7420 C   0  0  0  0  0  2  0  0  0  0  0  0
  181.4820  179.0750  142.9970 C   0  0  0  0  0  0  0  0  0  0  0  0
  180.6520  177.5860  141.1820 C   0  0  0  0  0  2  0  0  0  0  0  0
  189.0180  177.5510  145.1060 C   0  0  0  0  0  1  0  0  0  0  0  0
  187.5330  177.6850  143.1050 C   0  0  0  0  0  3  0  0  0  0  0  0
  182.8120  178.7970  143.5830 C   0  0  0  0  0  0  0  0  0  0  0  0
  181.1590  178.3130  138.8140 C   0  0  0  0  0  2  0  0  0  0  0  0
  182.5750  179.2270  140.7540 C   0  0  1  0  0  3  0  0  0  0  0  0
  182.3990  180.4520  138.5670 C   0  0  0  0  0  2  0  0  0  0  0  0
  181.1290  180.6600  137.7490 C   0  0  0  0  0  2  0  0  0  0  0  0
  180.1150  182.9610  137.5750 C   0  0  0  0  0  0  0  0  0  0  0  0
  180.3220  181.7400  138.3050 N   0  0  0  0  0  0  0  0  0  0  0  0
  179.4020  183.8790  138.0640 O   0  0  0  0  0  0  0  0  0  0  0  0
  179.7700  181.5870  139.6440 C   0  0  0  0  0  1  0  0  0  0  0  0
  181.0670  184.6560  136.0590 C   0  0  0  0  0  1  0  0  0  0  0  0
  180.7570  183.1840  136.2460 C   0  0  0  0  0  2  0  0  0  0  0  0
  1 21  1  6  0  0  0
  1 20  1  0  0  0  0
  2 17  2  0  0  0  0
  2  7  1  0  0  0  0
  4  9  1  0  0  0  0
  4 12  1  0  0  0  0
  5  7  1  0  0  0  0
  5 18  2  0  0  0  0
  6 16  1  0  0  0  0
  6  9  2  0  0  0  0
  7  4  2  0  0  0  0
  8 12  2  0  0  0  0
 10 15  1  1  0  0  0
 10 14  1  0  0  0  0
 11  5  1  0  0  0  0
 13 15  1  0  0  0  0
 14 18  1  0  0  0  0
 14  3  2  0  0  0  0
 17  6  1  0  0  0  0
 18  8  1  0  0  0  0
 19  1  1  0  0  0  0
 19 13  1  0  0  0  0
 20 11  1  1  0  0  0
 20 10  1  0  0  0  0
 22 24  1  0  0  0  0
 22 21  1  0  0  0  0
 23 25  2  0  0  0  0
 23 24  1  0  0  0  0
 24 26  1  0  0  0  0
 27 28  1  0  0  0  0
 28 23  1  0  0  0  0
M  END
>  <MODEL>
1

>  <REMARK>
 VINA RESULT:      -8.7      0.000      0.000
  Name = 
  4 active torsions:
  status: ('A' for Active; 'I' for Inactive)
    1  A    between atoms: C_1  and  C_2
    2  A    between atoms: C_2  and  C_3
    3  A    between atoms: C_3  and  N_7
    4  A    between atoms: C_6  and  C_11
                            x       y       z     vdW  Elec       q    Type
                         _______ _______ _______ _____ _____    ______ ____

>  <TORSDO>
F 4

$$$$
=
 OpenBabel11052413213D

 28 31  0  0  1  0  0  0  0  0999 V2000
  186.7630  177.9380  137.7180 C   0  0  2  0  0  3  0  0  0  0  0  0
  185.8240  178.5790  142.8030 C   0  0  0  0  0  3  0  0  0  0  0  0
  190.7150  176.2290  140.0620 O   0  0  0  0  0  0  0  0  0  0  0  0
  187.6960  177.4800  143.8960 C   0  0  0  0  0  0  0  0  0  0  0  0
  187.6960  177.7310  141.4640 C   0  0  0  0  0  0  0  0  0  0  0  0
  185.8410  178.3160  145.2100 C   0  0  0  0  0  0  0  0  0  0  0  0
  187.0680  177.9350  142.7100 C   0  0  0  0  0  0  0  0  0  0  0  0
  189.5570  176.6430  142.6000 C   0  0  0  0  0  3  0  0  0  0  0  0
  187.0780  177.6720  145.1350 C   0  0  0  0  0  3  0  0  0  0  0  0
  188.9880  177.3290  138.8440 C   0  0  2  0  0  3  0  0  0  0  0  0
  187.0670  178.2560  140.1970 C   0  0  0  0  0  2  0  0  0  0  0  0
  188.9330  176.8390  143.8320 C   0  0  0  0  0  3  0  0  0  0  0  0
  188.7110  179.5150  137.5210 C   0  0  0  0  0  2  0  0  0  0  0  0
  189.6150  176.8400  140.1140 C   0  0  0  0  0  0  0  0  0  0  0  0
  189.6180  178.6660  138.4210 C   0  0  0  0  0  2  0  0  0  0  0  0
  185.1880  178.5160  146.5290 C   0  0  0  0  0  1  0  0  0  0  0  0
  185.2140  178.7690  144.0470 C   0  0  0  0  0  3  0  0  0  0  0  0
  188.9550  177.0870  141.4150 C   0  0  0  0  0  0  0  0  0  0  0  0
  187.7150  178.6550  136.7550 C   0  0  0  0  0  2  0  0  0  0  0  0
  187.4560  177.4070  138.9870 C   0  0  1  0  0  3  0  0  0  0  0  0
  186.0770  176.8000  136.9770 C   0  0  0  0  0  2  0  0  0  0  0  0
  184.5760  177.0360  136.8530 C   0  0  0  0  0  2  0  0  0  0  0  0
  183.2230  176.7210  138.9560 C   0  0  0  0  0  0  0  0  0  0  0  0
  183.8360  176.1810  137.7740 N   0  0  0  0  0  0  0  0  0  0  0  0
  182.5740  175.9700  139.7330 O   0  0  0  0  0  0  0  0  0  0  0  0
  183.7730  174.7500  137.5070 C   0  0  0  0  0  1  0  0  0  0  0  0
  182.8490  178.4120  140.7110 C   0  0  0  0  0  1  0  0  0  0  0  0
  183.3620  178.1660  139.3060 C   0  0  0  0  0  2  0  0  0  0  0  0
  1 21  1  6  0  0  0
  1 20  1  0  0  0  0
  2 17  1  0  0  0  0
  3 14  2  0  0  0  0
  4  9  2  0  0  0  0
  5  7  1  0  0  0  0
  6 16  1  0  0  0  0
  7  2  2  0  0  0  0
  7  4  1  0  0  0  0
  8 12  2  0  0  0  0
  9  6  1  0  0  0  0
 10 15  1  1  0  0  0
 10 20  1  0  0  0  0
 10 14  1  0  0  0  0
 11  5  1  0  0  0  0
 12  4  1  0  0  0  0
 13 15  1  0  0  0  0
 14 18  1  0  0  0  0
 17  6  2  0  0  0  0
 18  5  2  0  0  0  0
 18  8  1  0  0  0  0
 19 13  1  0  0  0  0
 19  1  1  0  0  0  0
 20 11  1  1  0  0  0
 22 21  1  0  0  0  0
 22 24  1  0  0  0  0
 23 28  1  0  0  0  0
 23 25  2  0  0  0  0
 24 23  1  0  0  0  0
 26 24  1  0  0  0  0
 28 27  1  0  0  0  0
M  END
>  <MODEL>
2

>  <REMARK>
 VINA RESULT:      -8.3      4.058      6.358
  Name = 
  4 active torsions:
  status: ('A' for Active; 'I' for Inactive)
    1  A    between atoms: C_1  and  C_2
    2  A    between atoms: C_2  and  C_3
    3  A    between atoms: C_3  and  N_7
    4  A    between atoms: C_6  and  C_11
                            x       y       z     vdW  Elec       q    Type
                         _______ _______ _______ _____ _____    ______ ____

>  <TORSDO>
F 4

$$$$
=
 OpenBabel11052413213D

 28 31  0  0  1  0  0  0  0  0999 V2000
  186.9570  177.8310  137.7080 C   0  0  2  0  0  3  0  0  0  0  0  0
  185.7290  178.6170  142.7110 C   0  0  0  0  0  3  0  0  0  0  0  0
  190.7760  176.2120  140.3210 O   0  0  0  0  0  0  0  0  0  0  0  0
  187.5410  177.5600  143.9390 C   0  0  0  0  0  0  0  0  0  0  0  0
  187.6770  177.7390  141.5060 C   0  0  0  0  0  0  0  0  0  0  0  0
  185.6110  178.4250  145.1220 C   0  0  0  0  0  0  0  0  0  0  0  0
  186.9790  177.9770  142.7080 C   0  0  0  0  0  0  0  0  0  0  0  0
  189.4750  176.6950  142.7760 C   0  0  0  0  0  3  0  0  0  0  0  0
  186.8530  177.7860  145.1350 C   0  0  0  0  0  3  0  0  0  0  0  0
  189.1170  177.2670  138.9760 C   0  0  2  0  0  3  0  0  0  0  0  0
  187.1190  178.2230  140.1900 C   0  0  0  0  0  2  0  0  0  0  0  0
  188.7810  176.9240  143.9640 C   0  0  0  0  0  3  0  0  0  0  0  0
  188.9080  179.4120  137.5750 C   0  0  0  0  0  2  0  0  0  0  0  0
  189.6730  176.8190  140.2930 C   0  0  0  0  0  0  0  0  0  0  0  0
  189.7650  178.5940  138.5490 C   0  0  0  0  0  2  0  0  0  0  0  0
  184.8840  178.6600  146.3950 C   0  0  0  0  0  1  0  0  0  0  0  0
  185.0490  178.8400  143.9110 C   0  0  0  0  0  3  0  0  0  0  0  0
  188.9390  177.1010  141.5470 C   0  0  0  0  0  0  0  0  0  0  0  0
  187.9600  178.5240  136.7790 C   0  0  0  0  0  2  0  0  0  0  0  0
  187.5790  177.3410  139.0290 C   0  0  1  0  0  3  0  0  0  0  0  0
  186.3180  176.6680  136.9630 C   0  0  0  0  0  2  0  0  0  0  0  0
  187.3200  175.9720  136.0480 C   0  0  0  0  0  2  0  0  0  0  0  0
  189.2210  174.4570  136.7090 C   0  0  0  0  0  0  0  0  0  0  0  0
  187.8140  174.7420  136.6550 N   0  0  0  0  0  0  0  0  0  0  0  0
  189.6330  173.3960  137.2510 O   0  0  0  0  0  0  0  0  0  0  0  0
  186.8520  173.7720  137.1610 C   0  0  0  0  0  1  0  0  0  0  0  0
  191.4790  175.4180  136.9480 C   0  0  0  0  0  1  0  0  0  0  0  0
  190.2210  175.3860  136.1040 C   0  0  0  0  0  2  0  0  0  0  0  0
  1 21  1  6  0  0  0
  1 20  1  0  0  0  0
  2 17  1  0  0  0  0
  4 12  1  0  0  0  0
  4  9  2  0  0  0  0
  5 18  2  0  0  0  0
  5  7  1  0  0  0  0
  6  9  1  0  0  0  0
  6 16  1  0  0  0  0
  7  2  2  0  0  0  0
  7  4  1  0  0  0  0
  8 12  2  0  0  0  0
 10 15  1  1  0  0  0
 10 20  1  0  0  0  0
 10 14  1  0  0  0  0
 11  5  1  0  0  0  0
 13 15  1  0  0  0  0
 14  3  2  0  0  0  0
 14 18  1  0  0  0  0
 17  6  2  0  0  0  0
 18  8  1  0  0  0  0
 19 13  1  0  0  0  0
 19  1  1  0  0  0  0
 20 11  1  1  0  0  0
 22 24  1  0  0  0  0
 22 21  1  0  0  0  0
 23 25  2  0  0  0  0
 24 23  1  0  0  0  0
 24 26  1  0  0  0  0
 28 23  1  0  0  0  0
 28 27  1  0  0  0  0
M  END
>  <MODEL>
3

>  <REMARK>
 VINA RESULT:      -8.1      5.886      7.975
  Name = 
  4 active torsions:
  status: ('A' for Active; 'I' for Inactive)
    1  A    between atoms: C_1  and  C_2
    2  A    between atoms: C_2  and  C_3
    3  A    between atoms: C_3  and  N_7
    4  A    between atoms: C_6  and  C_11
                            x       y       z     vdW  Elec       q    Type
                         _______ _______ _______ _____ _____    ______ ____

>  <TORSDO>
F 4

$$$$
=
 OpenBabel11052413213D

 28 31  0  0  1  0  0  0  0  0999 V2000
  180.5140  178.4760  139.8600 C   0  0  2  0  0  3  0  0  0  0  0  0
  183.3900  178.7100  144.1990 C   0  0  0  0  0  3  0  0  0  0  0  0
  185.1840  178.7330  138.3890 O   0  0  0  0  0  0  0  0  0  0  0  0
  185.6810  178.5720  143.3990 C   0  0  0  0  0  0  0  0  0  0  0  0
  183.8520  178.7600  141.7900 C   0  0  0  0  0  0  0  0  0  0  0  0
  185.2160  178.5170  145.7770 C   0  0  0  0  0  0  0  0  0  0  0  0
  184.2960  178.6830  143.1260 C   0  0  0  0  0  0  0  0  0  0  0  0
  186.1630  178.6280  141.0320 C   0  0  0  0  0  3  0  0  0  0  0  0
  186.1300  178.4880  144.7210 C   0  0  0  0  0  3  0  0  0  0  0  0
  182.8920  178.9340  139.0070 C   0  0  2  0  0  3  0  0  0  0  0  0
  182.3850  178.9330  141.4810 C   0  0  0  0  0  2  0  0  0  0  0  0
  186.6030  178.5450  142.3530 C   0  0  0  0  0  3  0  0  0  0  0  0
  181.0740  180.7510  138.9460 C   0  0  0  0  0  2  0  0  0  0  0  0
  184.3480  178.7930  139.3300 C   0  0  0  0  0  0  0  0  0  0  0  0
  182.5510  180.4060  138.7190 C   0  0  0  0  0  2  0  0  0  0  0  0
  185.6990  178.4270  147.1790 C   0  0  0  0  0  1  0  0  0  0  0  0
  183.8480  178.6280  145.5170 C   0  0  0  0  0  3  0  0  0  0  0  0
  184.7980  178.7420  140.7380 C   0  0  0  0  0  0  0  0  0  0  0  0
  180.1810  179.5270  138.7940 C   0  0  0  0  0  2  0  0  0  0  0  0
  182.0240  178.3270  140.1250 C   0  0  1  0  0  3  0  0  0  0  0  0
  179.9180  177.1410  139.4380 C   0  0  0  0  0  2  0  0  0  0  0  0
  180.8150  175.9760  139.8410 C   0  0  0  0  0  2  0  0  0  0  0  0
  181.7320  174.5960  137.9420 C   0  0  0  0  0  0  0  0  0  0  0  0
  180.6930  174.8730  138.8950 N   0  0  0  0  0  0  0  0  0  0  0  0
  181.6170  173.6300  137.1410 O   0  0  0  0  0  0  0  0  0  0  0  0
  179.4700  174.0820  138.8920 C   0  0  0  0  0  1  0  0  0  0  0  0
  182.9060  176.2910  136.5900 C   0  0  0  0  0  1  0  0  0  0  0  0
  182.9480  175.4570  137.8550 C   0  0  0  0  0  2  0  0  0  0  0  0
  1 21  1  6  0  0  0
  1 20  1  0  0  0  0
  2 17  1  0  0  0  0
  3 14  2  0  0  0  0
  4  9  2  0  0  0  0
  5  7  1  0  0  0  0
  6 16  1  0  0  0  0
  7  4  1  0  0  0  0
  7  2  2  0  0  0  0
  8 12  2  0  0  0  0
  9  6  1  0  0  0  0
 10 15  1  1  0  0  0
 10 14  1  0  0  0  0
 10 20  1  0  0  0  0
 11  5  1  0  0  0  0
 12  4  1  0  0  0  0
 14 18  1  0  0  0  0
 15 13  1  0  0  0  0
 17  6  2  0  0  0  0
 18  8  1  0  0  0  0
 18  5  2  0  0  0  0
 19 13  1  0  0  0  0
 19  1  1  0  0  0  0
 20 11  1  1  0  0  0
 21 22  1  0  0  0  0
 23 24  1  0  0  0  0
 24 22  1  0  0  0  0
 25 23  2  0  0  0  0
 26 24  1  0  0  0  0
 27 28  1  0  0  0  0
 28 23  1  0  0  0  0
M  END
>  <MODEL>
4

>  <REMARK>
 VINA RESULT:      -7.9      2.981      5.039
  Name = 
  4 active torsions:
  status: ('A' for Active; 'I' for Inactive)
    1  A    between atoms: C_1  and  C_2
    2  A    between atoms: C_2  and  C_3
    3  A    between atoms: C_3  and  N_7
    4  A    between atoms: C_6  and  C_11
                            x       y       z     vdW  Elec       q    Type
                         _______ _______ _______ _____ _____    ______ ____

>  <TORSDO>
F 4

$$$$
=
 OpenBabel11052413213D

 28 31  0  0  1  0  0  0  0  0999 V2000
  190.2860  177.5810  142.4320 C   0  0  2  0  0  3  0  0  0  0  0  0
  185.2870  178.9300  143.0130 C   0  0  0  0  0  3  0  0  0  0  0  0
  189.2290  176.8940  147.1700 O   0  0  0  0  0  0  0  0  0  0  0  0
  184.7710  178.3190  145.3090 C   0  0  0  0  0  0  0  0  0  0  0  0
  187.0730  178.1510  144.5040 C   0  0  0  0  0  0  0  0  0  0  0  0
  183.0120  179.0830  143.8280 C   0  0  0  0  0  0  0  0  0  0  0  0
  185.7190  178.4690  144.2670 C   0  0  0  0  0  0  0  0  0  0  0  0
  186.5130  177.5570  146.8000 C   0  0  0  0  0  3  0  0  0  0  0  0
  183.4260  178.6260  145.0810 C   0  0  0  0  0  3  0  0  0  0  0  0
  189.9120  177.5050  144.9710 C   0  0  2  0  0  3  0  0  0  0  0  0
  188.1060  178.3550  143.4240 C   0  0  0  0  0  2  0  0  0  0  0  0
  185.1730  177.8650  146.5640 C   0  0  0  0  0  3  0  0  0  0  0  0
  191.3010  179.3710  143.8770 C   0  0  0  0  0  2  0  0  0  0  0  0
  188.8790  177.3360  146.0440 C   0  0  0  0  0  0  0  0  0  0  0  0
  190.6690  178.8290  145.1660 C   0  0  0  0  0  2  0  0  0  0  0  0
  181.5810  179.4060  143.5910 C   0  0  0  0  0  1  0  0  0  0  0  0
  183.9410  179.2360  142.7950 C   0  0  0  0  0  3  0  0  0  0  0  0
  187.4690  177.7010  145.7860 C   0  0  0  0  0  0  0  0  0  0  0  0
  191.5870  178.2560  142.8800 C   0  0  0  0  0  2  0  0  0  0  0  0
  189.2730  177.3800  143.5750 C   0  0  1  0  0  3  0  0  0  0  0  0
  190.6220  176.2450  141.7850 C   0  0  0  0  0  2  0  0  0  0  0  0
  189.8280  176.0290  140.5020 C   0  0  0  0  0  2  0  0  0  0  0  0
  189.4040  177.9880  138.9750 C   0  0  0  0  0  0  0  0  0  0  0  0
  190.2670  176.9450  139.4560 N   0  0  0  0  0  0  0  0  0  0  0  0
  189.8050  178.7810  138.0810 O   0  0  0  0  0  0  0  0  0  0  0  0
  191.5840  176.7550  138.8630 C   0  0  0  0  0  1  0  0  0  0  0  0
  187.0130  177.8820  138.3820 C   0  0  0  0  0  1  0  0  0  0  0  0
  188.0120  178.1380  139.4930 C   0  0  0  0  0  2  0  0  0  0  0  0
  1 21  1  1  0  0  0
  1 19  1  0  0  0  0
  1 20  1  0  0  0  0
  2  7  1  0  0  0  0
  4 12  1  0  0  0  0
  5 18  2  0  0  0  0
  6  9  2  0  0  0  0
  7  5  1  0  0  0  0
  7  4  2  0  0  0  0
  9  4  1  0  0  0  0
 10 15  1  6  0  0  0
 10 14  1  0  0  0  0
 11  5  1  0  0  0  0
 12  8  2  0  0  0  0
 13 15  1  0  0  0  0
 14  3  2  0  0  0  0
 16  6  1  0  0  0  0
 17  2  2  0  0  0  0
 17  6  1  0  0  0  0
 18 14  1  0  0  0  0
 18  8  1  0  0  0  0
 19 13  1  0  0  0  0
 20 11  1  1  0  0  0
 20 10  1  0  0  0  0
 22 21  1  0  0  0  0
 23 24  1  0  0  0  0
 23 28  1  0  0  0  0
 24 22  1  0  0  0  0
 25 23  2  0  0  0  0
 26 24  1  0  0  0  0
 27 28  1  0  0  0  0
M  END
>  <MODEL>
5

>  <REMARK>
 VINA RESULT:      -7.9      5.094      8.157
  Name = 
  4 active torsions:
  status: ('A' for Active; 'I' for Inactive)
    1  A    between atoms: C_1  and  C_2
    2  A    between atoms: C_2  and  C_3
    3  A    between atoms: C_3  and  N_7
    4  A    between atoms: C_6  and  C_11
                            x       y       z     vdW  Elec       q    Type
                         _______ _______ _______ _____ _____    ______ ____

>  <TORSDO>
F 4

$$$$
=
 OpenBabel11052413213D

 28 31  0  0  1  0  0  0  0  0999 V2000
  183.3600  178.4140  139.3230 C   0  0  2  0  0  3  0  0  0  0  0  0
  186.8550  177.6140  143.1040 C   0  0  0  0  0  3  0  0  0  0  0  0
  181.0600  179.4010  143.5380 O   0  0  0  0  0  0  0  0  0  0  0  0
  185.7290  178.3690  145.1210 C   0  0  0  0  0  0  0  0  0  0  0  0
  184.4910  178.2650  143.0170 C   0  0  0  0  0  0  0  0  0  0  0  0
  188.0650  177.7300  145.1980 C   0  0  0  0  0  0  0  0  0  0  0  0
  185.6900  178.0790  143.7360 C   0  0  0  0  0  0  0  0  0  0  0  0
  183.3990  179.0070  145.0640 C   0  0  0  0  0  3  0  0  0  0  0  0
  186.9150  178.1940  145.8410 C   0  0  0  0  0  3  0  0  0  0  0  0
  181.9970  178.6330  141.4870 C   0  0  2  0  0  3  0  0  0  0  0  0
  184.4160  177.9110  141.5520 C   0  0  0  0  0  2  0  0  0  0  0  0
  184.5860  178.8300  145.7740 C   0  0  0  0  0  3  0  0  0  0  0  0
  181.7460  176.5900  139.9470 C   0  0  0  0  0  2  0  0  0  0  0  0
  182.0780  178.9520  142.9490 C   0  0  0  0  0  0  0  0  0  0  0  0
  181.3640  177.2470  141.2790 C   0  0  0  0  0  2  0  0  0  0  0  0
  189.3230  177.5470  145.9670 C   0  0  0  0  0  1  0  0  0  0  0  0
  188.0360  177.4400  143.8310 C   0  0  0  0  0  3  0  0  0  0  0  0
  183.3370  178.7240  143.6930 C   0  0  0  0  0  0  0  0  0  0  0  0
  182.1160  177.6270  138.8950 C   0  0  0  0  0  2  0  0  0  0  0  0
  183.3800  178.7650  140.8220 C   0  0  1  0  0  3  0  0  0  0  0  0
  183.4540  179.6800  138.4840 C   0  0  0  0  0  2  0  0  0  0  0  0
  182.5040  180.7600  138.9910 C   0  0  0  0  0  2  0  0  0  0  0  0
  179.9960  180.9560  138.8400 C   0  0  0  0  0  0  0  0  0  0  0  0
  181.2740  180.7810  138.2070 N   0  0  0  0  0  0  0  0  0  0  0  0
  178.9440  180.9870  138.1460 O   0  0  0  0  0  0  0  0  0  0  0  0
  181.3540  180.5680  136.7690 C   0  0  0  0  0  1  0  0  0  0  0  0
  178.9800  179.9750  140.8610 C   0  0  0  0  0  1  0  0  0  0  0  0
  179.8790  181.0710  140.3240 C   0  0  0  0  0  2  0  0  0  0  0  0
  1 21  1  6  0  0  0
  1 20  1  0  0  0  0
  2  7  2  0  0  0  0
  2 17  1  0  0  0  0
  4 12  1  0  0  0  0
  4  9  2  0  0  0  0
  5 18  2  0  0  0  0
  5  7  1  0  0  0  0
  6  9  1  0  0  0  0
  6 16  1  0  0  0  0
  7  4  1  0  0  0  0
  8 12  2  0  0  0  0
 10 15  1  1  0  0  0
 10 14  1  0  0  0  0
 11  5  1  0  0  0  0
 13 15  1  0  0  0  0
 14  3  2  0  0  0  0
 14 18  1  0  0  0  0
 17  6  2  0  0  0  0
 18  8  1  0  0  0  0
 19  1  1  0  0  0  0
 19 13  1  0  0  0  0
 20 10  1  0  0  0  0
 20 11  1  1  0  0  0
 21 22  1  0  0  0  0
 23 28  1  0  0  0  0
 24 23  1  0  0  0  0
 24 22  1  0  0  0  0
 25 23  2  0  0  0  0
 26 24  1  0  0  0  0
 28 27  1  0  0  0  0
M  END
>  <MODEL>
6

>  <REMARK>
 VINA RESULT:      -7.7      1.401      2.044
  Name = 
  4 active torsions:
  status: ('A' for Active; 'I' for Inactive)
    1  A    between atoms: C_1  and  C_2
    2  A    between atoms: C_2  and  C_3
    3  A    between atoms: C_3  and  N_7
    4  A    between atoms: C_6  and  C_11
                            x       y       z     vdW  Elec       q    Type
                         _______ _______ _______ _____ _____    ______ ____

>  <TORSDO>
F 4

$$$$
=
 OpenBabel11052413213D

 28 31  0  0  1  0  0  0  0  0999 V2000
  184.0930  178.0900  139.2880 C   0  0  2  0  0  3  0  0  0  0  0  0
  186.9540  177.4040  143.5890 C   0  0  0  0  0  3  0  0  0  0  0  0
  181.3110  179.5990  143.0330 O   0  0  0  0  0  0  0  0  0  0  0  0
  185.6200  178.4090  145.3550 C   0  0  0  0  0  0  0  0  0  0  0  0
  184.6830  178.1980  143.1070 C   0  0  0  0  0  0  0  0  0  0  0  0
  187.8650  177.6270  145.8210 C   0  0  0  0  0  0  0  0  0  0  0  0
  185.7520  177.9990  144.0050 C   0  0  0  0  0  0  0  0  0  0  0  0
  183.3770  179.1910  144.9080 C   0  0  0  0  0  3  0  0  0  0  0  0
  186.6760  178.2220  146.2510 C   0  0  0  0  0  3  0  0  0  0  0  0
  182.4620  178.5910  141.2070 C   0  0  2  0  0  3  0  0  0  0  0  0
  184.7860  177.7200  141.6790 C   0  0  0  0  0  2  0  0  0  0  0  0
  184.4360  179.0010  145.7950 C   0  0  0  0  0  3  0  0  0  0  0  0
  182.2710  176.4390  139.8130 C   0  0  0  0  0  2  0  0  0  0  0  0
  182.3630  179.0330  142.6350 C   0  0  0  0  0  0  0  0  0  0  0  0
  181.7590  177.2360  141.0200 C   0  0  0  0  0  2  0  0  0  0  0  0
  188.9850  177.4320  146.7760 C   0  0  0  0  0  1  0  0  0  0  0  0
  188.0040  177.2190  144.4910 C   0  0  0  0  0  3  0  0  0  0  0  0
  183.4850  178.7910  143.5700 C   0  0  0  0  0  0  0  0  0  0  0  0
  182.8630  177.3520  138.7480 C   0  0  0  0  0  2  0  0  0  0  0  0
  183.9310  178.5720  140.7420 C   0  0  1  0  0  3  0  0  0  0  0  0
  184.4010  179.2670  138.3740 C   0  0  0  0  0  2  0  0  0  0  0  0
  185.8930  179.3680  138.0740 C   0  0  0  0  0  2  0  0  0  0  0  0
  187.5930  177.5240  138.3170 C   0  0  0  0  0  0  0  0  0  0  0  0
  186.4320  178.0740  137.6730 N   0  0  0  0  0  0  0  0  0  0  0  0
  188.0380  176.3980  137.9680 O   0  0  0  0  0  0  0  0  0  0  0  0
  185.8070  177.3650  136.5650 C   0  0  0  0  0  1  0  0  0  0  0  0
  188.8220  177.3240  140.4460 C   0  0  0  0  0  1  0  0  0  0  0  0
  188.3140  178.2800  139.3840 C   0  0  0  0  0  2  0  0  0  0  0  0
  1 21  1  6  0  0  0
  1 20  1  0  0  0  0
  2  7  2  0  0  0  0
  2 17  1  0  0  0  0
  4 12  1  0  0  0  0
  4  9  2  0  0  0  0
  5 18  2  0  0  0  0
  5  7  1  0  0  0  0
  6  9  1  0  0  0  0
  6 16  1  0  0  0  0
  7  4  1  0  0  0  0
  8 12  2  0  0  0  0
 10 15  1  1  0  0  0
 10 14  1  0  0  0  0
 11  5  1  0  0  0  0
 13 15  1  0  0  0  0
 14  3  2  0  0  0  0
 14 18  1  0  0  0  0
 17  6  2  0  0  0  0
 18  8  1  0  0  0  0
 19  1  1  0  0  0  0
 19 13  1  0  0  0  0
 20 10  1  0  0  0  0
 20 11  1  1  0  0  0
 22 21  1  0  0  0  0
 23 28  1  0  0  0  0
 24 22  1  0  0  0  0
 24 23  1  0  0  0  0
 25 23  2  0  0  0  0
 26 24  1  0  0  0  0
 28 27  1  0  0  0  0
M  END
>  <MODEL>
7

>  <REMARK>
 VINA RESULT:      -7.7      3.104      4.696
  Name = 
  4 active torsions:
  status: ('A' for Active; 'I' for Inactive)
    1  A    between atoms: C_1  and  C_2
    2  A    between atoms: C_2  and  C_3
    3  A    between atoms: C_3  and  N_7
    4  A    between atoms: C_6  and  C_11
                            x       y       z     vdW  Elec       q    Type
                         _______ _______ _______ _____ _____    ______ ____

>  <TORSDO>
F 4

$$$$
=
 OpenBabel11052413213D

 28 31  0  0  1  0  0  0  0  0999 V2000
  187.1760  177.3580  137.6760 C   0  0  2  0  0  3  0  0  0  0  0  0
  186.8200  177.9580  142.8390 C   0  0  0  0  0  3  0  0  0  0  0  0
  191.7210  176.8110  139.4300 O   0  0  0  0  0  0  0  0  0  0  0  0
  189.0450  177.4180  143.6540 C   0  0  0  0  0  0  0  0  0  0  0  0
  188.6420  177.5560  141.2470 C   0  0  0  0  0  0  0  0  0  0  0  0
  187.2380  177.8110  145.2200 C   0  0  0  0  0  0  0  0  0  0  0  0
  188.1630  177.6480  142.5700 C   0  0  0  0  0  0  0  0  0  0  0  0
  190.8600  177.0260  142.1060 C   0  0  0  0  0  3  0  0  0  0  0  0
  188.5770  177.5000  144.9690 C   0  0  0  0  0  3  0  0  0  0  0  0
  189.6170  177.3830  138.4700 C   0  0  2  0  0  3  0  0  0  0  0  0
  187.7300  177.8490  140.0820 C   0  0  0  0  0  2  0  0  0  0  0  0
  190.3840  177.1100  143.4150 C   0  0  0  0  0  3  0  0  0  0  0  0
  188.6060  179.3690  137.1880 C   0  0  0  0  0  2  0  0  0  0  0  0
  190.5190  177.1240  139.6380 C   0  0  0  0  0  0  0  0  0  0  0  0
  189.8160  178.8160  137.9510 C   0  0  0  0  0  2  0  0  0  0  0  0
  186.7460  177.8960  146.6190 C   0  0  0  0  0  1  0  0  0  0  0  0
  186.3610  178.0400  144.1570 C   0  0  0  0  0  3  0  0  0  0  0  0
  190.0050  177.2520  141.0190 C   0  0  0  0  0  0  0  0  0  0  0  0
  187.7680  178.2510  136.5800 C   0  0  0  0  0  2  0  0  0  0  0  0
  188.1520  177.0760  138.8330 C   0  0  1  0  0  3  0  0  0  0  0  0
  186.7100  176.0530  137.0480 C   0  0  0  0  0  2  0  0  0  0  0  0
  185.2550  176.1340  136.6010 C   0  0  0  0  0  2  0  0  0  0  0  0
  183.3290  175.9190  138.2130 C   0  0  0  0  0  0  0  0  0  0  0  0
  184.3990  175.3240  137.4600 N   0  0  0  0  0  0  0  0  0  0  0  0
  182.5900  175.2020  138.9390 O   0  0  0  0  0  0  0  0  0  0  0  0
  184.6800  173.9010  137.5900 C   0  0  0  0  0  1  0  0  0  0  0  0
  183.9270  178.0810  139.2360 C   0  0  0  0  0  1  0  0  0  0  0  0
  183.0880  177.3920  138.1780 C   0  0  0  0  0  2  0  0  0  0  0  0
  1 21  1  6  0  0  0
  1 20  1  0  0  0  0
  2 17  1  0  0  0  0
  3 14  2  0  0  0  0
  4  9  2  0  0  0  0
  5  7  1  0  0  0  0
  6 16  1  0  0  0  0
  7  2  2  0  0  0  0
  7  4  1  0  0  0  0
  8 12  2  0  0  0  0
  9  6  1  0  0  0  0
 10 15  1  1  0  0  0
 10 20  1  0  0  0  0
 10 14  1  0  0  0  0
 11  5  1  0  0  0  0
 12  4  1  0  0  0  0
 13 15  1  0  0  0  0
 14 18  1  0  0  0  0
 17  6  2  0  0  0  0
 18  5  2  0  0  0  0
 18  8  1  0  0  0  0
 19 13  1  0  0  0  0
 19  1  1  0  0  0  0
 20 11  1  1  0  0  0
 22 21  1  0  0  0  0
 22 24  1  0  0  0  0
 23 25  2  0  0  0  0
 24 26  1  0  0  0  0
 24 23  1  0  0  0  0
 28 23  1  0  0  0  0
 28 27  1  0  0  0  0
M  END
>  <MODEL>
8

>  <REMARK>
 VINA RESULT:      -7.4      4.626      6.946
  Name = 
  4 active torsions:
  status: ('A' for Active; 'I' for Inactive)
    1  A    between atoms: C_1  and  C_2
    2  A    between atoms: C_2  and  C_3
    3  A    between atoms: C_3  and  N_7
    4  A    between atoms: C_6  and  C_11
                            x       y       z     vdW  Elec       q    Type
                         _______ _______ _______ _____ _____    ______ ____

>  <TORSDO>
F 4

$$$$
=
 OpenBabel11052413213D

 28 31  0  0  1  0  0  0  0  0999 V2000
  191.8950  175.6770  137.6100 C   0  0  2  0  0  3  0  0  0  0  0  0
  190.7320  176.2360  142.6580 C   0  0  0  0  0  3  0  0  0  0  0  0
  187.9360  178.5640  137.7870 O   0  0  0  0  0  0  0  0  0  0  0  0
  188.9360  177.8740  142.6750 C   0  0  0  0  0  0  0  0  0  0  0  0
  189.7540  177.0030  140.5430 C   0  0  0  0  0  0  0  0  0  0  0  0
  189.9110  177.1160  144.7590 C   0  0  0  0  0  0  0  0  0  0  0  0
  189.8130  177.0290  141.9520 C   0  0  0  0  0  0  0  0  0  0  0  0
  187.9500  178.6390  140.6060 C   0  0  0  0  0  3  0  0  0  0  0  0
  188.9920  177.9120  144.0710 C   0  0  0  0  0  3  0  0  0  0  0  0
  189.6470  176.9160  137.5970 C   0  0  2  0  0  3  0  0  0  0  0  0
  190.6430  176.0700  139.7580 C   0  0  0  0  0  2  0  0  0  0  0  0
  188.0130  178.6710  141.9980 C   0  0  0  0  0  3  0  0  0  0  0  0
  189.8190  174.4460  136.9070 C   0  0  0  0  0  2  0  0  0  0  0  0
  188.7480  177.8150  138.3910 C   0  0  0  0  0  0  0  0  0  0  0  0
  188.8960  175.6370  137.1920 C   0  0  0  0  0  2  0  0  0  0  0  0
  189.9680  177.1610  146.2430 C   0  0  0  0  0  1  0  0  0  0  0  0
  190.7800  176.2790  144.0540 C   0  0  0  0  0  3  0  0  0  0  0  0
  188.8060  177.8090  139.8700 C   0  0  0  0  0  0  0  0  0  0  0  0
  191.2080  174.9020  136.4810 C   0  0  0  0  0  2  0  0  0  0  0  0
  190.9490  176.6270  138.3680 C   0  0  1  0  0  3  0  0  0  0  0  0
  193.0680  176.4540  137.0300 C   0  0  0  0  0  2  0  0  0  0  0  0
  193.8250  175.6340  135.9910 C   0  0  0  0  0  2  0  0  0  0  0  0
  196.2530  176.2480  135.7100 C   0  0  0  0  0  0  0  0  0  0  0  0
  195.2260  175.4840  136.3650 N   0  0  0  0  0  0  0  0  0  0  0  0
  197.4580  176.1170  136.0560 O   0  0  0  0  0  0  0  0  0  0  0  0
  195.5810  174.5030  137.3810 C   0  0  0  0  0  1  0  0  0  0  0  0
  196.1810  178.6140  135.0220 C   0  0  0  0  0  1  0  0  0  0  0  0
  195.9250  177.1830  134.5940 C   0  0  0  0  0  2  0  0  0  0  0  0
  1 21  1  6  0  0  0
  1 20  1  0  0  0  0
  2 17  1  0  0  0  0
  3 14  2  0  0  0  0
  4  9  2  0  0  0  0
  5  7  1  0  0  0  0
  6 16  1  0  0  0  0
  7  2  2  0  0  0  0
  7  4  1  0  0  0  0
  8 12  2  0  0  0  0
  9  6  1  0  0  0  0
 10 15  1  1  0  0  0
 10 20  1  0  0  0  0
 10 14  1  0  0  0  0
 11  5  1  0  0  0  0
 12  4  1  0  0  0  0
 13 15  1  0  0  0  0
 14 18  1  0  0  0  0
 17  6  2  0  0  0  0
 18  5  2  0  0  0  0
 18  8  1  0  0  0  0
 19 13  1  0  0  0  0
 19  1  1  0  0  0  0
 20 11  1  1  0  0  0
 22 24  1  0  0  0  0
 22 21  1  0  0  0  0
 23 25  2  0  0  0  0
 23 24  1  0  0  0  0
 24 26  1  0  0  0  0
 28 27  1  0  0  0  0
 28 23  1  0  0  0  0
M  END
>  <MODEL>
9

>  <REMARK>
 VINA RESULT:      -7.3      8.007     10.658
  Name = 
  4 active torsions:
  status: ('A' for Active; 'I' for Inactive)
    1  A    between atoms: C_1  and  C_2
    2  A    between atoms: C_2  and  C_3
    3  A    between atoms: C_3  and  N_7
    4  A    between atoms: C_6  and  C_11
                            x       y       z     vdW  Elec       q    Type
                         _______ _______ _______ _____ _____    ______ ____

>  <TORSDO>
F 4

$$$$
