=
 OpenBabel11052412423D

 25 27  0  0  1  0  0  0  0  0999 V2000
  187.2380  177.7250  145.9290 N   0  0  0  0  0  0  0  0  0  0  0  0
  188.6370  177.7430  145.4690 C   0  0  2  0  0  3  0  0  0  0  0  0
  187.8840  177.3020  148.1670 C   0  0  0  0  0  3  0  0  0  0  0  0
  189.2200  177.0270  147.7370 N   0  0  0  0  0  0  0  0  0  0  0  0
  190.9300  176.7740  146.0510 C   0  0  0  0  0  0  0  0  0  0  0  0
  192.0590  176.6390  147.0150 C   0  0  0  0  0  1  0  0  0  0  0  0
  188.8210  177.0510  144.1400 C   0  0  0  0  0  3  0  0  0  0  0  0
  186.9640  177.6160  147.3070 N   0  0  0  0  0  0  0  0  0  0  0  0
  191.1200  176.4660  144.7640 C   0  0  0  0  0  3  0  0  0  0  0  0
  190.0020  176.5200  143.7940 C   0  0  0  0  0  0  0  0  0  0  0  0
  189.5830  177.1750  146.5000 C   0  0  0  0  0  0  0  0  0  0  0  0
  186.1690  178.1370  145.0520 C   0  0  0  0  0  0  0  0  0  0  0  0
  184.1150  178.9530  143.3160 C   0  0  0  0  0  3  0  0  0  0  0  0
  185.0490  178.8350  145.5490 C   0  0  0  0  0  0  0  0  0  0  0  0
  184.0320  179.2400  144.6790 C   0  0  0  0  0  3  0  0  0  0  0  0
  185.2160  178.2590  142.8140 C   0  0  0  0  0  3  0  0  0  0  0  0
  184.9280  179.1160  146.9050 O   0  0  0  0  0  1  0  0  0  0  0  0
  186.2380  177.8540  143.6770 C   0  0  0  0  0  3  0  0  0  0  0  0
  190.1830  175.9430  142.4320 C   0  0  0  0  0  2  0  0  0  0  0  0
  190.4900  177.0220  141.4450 C   0  0  0  0  0  0  0  0  0  0  0  0
  191.5170  177.6730  141.5580 O   0  0  0  0  0  0  0  0  0  0  0  0
  189.5210  177.3100  140.3370 C   0  0  2  0  0  3  0  0  0  0  0  0
  190.2000  177.7220  139.1880 O   0  0  0  0  0  1  0  0  0  0  0  0
  187.5320  178.5210  139.7320 O   0  0  0  0  0  1  0  0  0  0  0  0
  188.4770  178.3430  140.7450 C   0  0  0  0  0  2  0  0  0  0  0  0
  1  8  1  0  0  0  0
  2  7  1  6  0  0  0
  2  1  1  0  0  0  0
  2 11  1  0  0  0  0
  4  3  1  0  0  0  0
  5 11  1  0  0  0  0
  5  6  1  0  0  0  0
  8  3  2  0  0  0  0
  9  5  2  0  0  0  0
 10  7  2  0  0  0  0
 10  9  1  0  0  0  0
 11  4  2  0  0  0  0
 12 14  1  0  0  0  0
 12  1  1  0  0  0  0
 13 15  1  0  0  0  0
 14 17  1  0  0  0  0
 15 14  2  0  0  0  0
 16 13  2  0  0  0  0
 16 18  1  0  0  0  0
 18 12  2  0  0  0  0
 19 10  1  0  0  0  0
 20 21  2  0  0  0  0
 20 19  1  0  0  0  0
 22 23  1  6  0  0  0
 22 25  1  0  0  0  0
 22 20  1  0  0  0  0
 24 25  1  0  0  0  0
M  END
>  <MODEL>
1

>  <REMARK>
 VINA RESULT:      -9.1      0.000      0.000
  Name = 
  5 active torsions:
  status: ('A' for Active; 'I' for Inactive)
    1  A    between atoms: N_1  and  C_5
    2  A    between atoms: C_2  and  C_15
    3  A    between atoms: C_2  and  C_21
    4  A    between atoms: C_6  and  C_15
    5  A    between atoms: C_6  and  C_23
                            x       y       z     vdW  Elec       q    Type
                         _______ _______ _______ _____ _____    ______ ____

>  <TORSDO>
F 5

$$$$
=
 OpenBabel11052412423D

 25 27  0  0  1  0  0  0  0  0999 V2000
  188.5670  177.8990  141.3830 N   0  0  0  0  0  0  0  0  0  0  0  0
  187.3110  178.6660  141.4480 C   0  0  0  0  0  0  0  0  0  0  0  0
  188.4000  177.6500  139.0350 C   0  0  0  0  0  3  0  0  0  0  0  0
  187.0530  178.1310  139.0720 N   0  0  0  0  0  0  0  0  0  0  0  0
  185.0870  178.9390  140.2170 C   0  0  1  0  0  3  0  0  0  0  0  0
  184.3420  179.3020  138.9780 C   0  0  0  0  0  1  0  0  0  0  0  0
  186.4620  178.2920  142.6390 C   0  0  0  0  0  3  0  0  0  0  0  0
  189.0920  177.5350  140.1270 N   0  0  0  0  0  0  0  0  0  0  0  0
  184.4410  178.8940  141.3860 C   0  0  0  0  0  3  0  0  0  0  0  0
  185.1330  178.4670  142.6240 C   0  0  0  0  0  0  0  0  0  0  0  0
  186.5120  178.5590  140.1710 C   0  0  0  0  0  0  0  0  0  0  0  0
  189.4260  177.7960  142.5370 C   0  0  0  0  0  0  0  0  0  0  0  0
  191.1310  177.6100  144.7640 C   0  0  0  0  0  3  0  0  0  0  0  0
  189.4680  176.6150  143.3080 C   0  0  0  0  0  0  0  0  0  0  0  0
  190.3210  176.5290  144.4130 C   0  0  0  0  0  3  0  0  0  0  0  0
  191.0940  178.7840  144.0110 C   0  0  0  0  0  3  0  0  0  0  0  0
  188.6570  175.5300  142.9960 O   0  0  0  0  0  1  0  0  0  0  0  0
  190.2470  178.8760  142.9030 C   0  0  0  0  0  3  0  0  0  0  0  0
  184.3380  178.1940  143.8540 C   0  0  0  0  0  2  0  0  0  0  0  0
  184.7890  179.0750  144.9740 C   0  0  0  0  0  0  0  0  0  0  0  0
  184.8260  180.2860  144.8170 O   0  0  0  0  0  0  0  0  0  0  0  0
  185.2150  178.4600  146.2740 C   0  0  2  0  0  3  0  0  0  0  0  0
  185.5400  179.4520  147.2010 O   0  0  0  0  0  1  0  0  0  0  0  0
  187.5800  178.1820  145.9290 O   0  0  0  0  0  1  0  0  0  0  0  0
  186.3780  177.4910  146.0940 C   0  0  0  0  0  2  0  0  0  0  0  0
  1  2  1  0  0  0  0
  1 12  1  0  0  0  0
  2  7  2  0  0  0  0
  3  4  1  0  0  0  0
  3  8  2  0  0  0  0
  4 11  2  0  0  0  0
  5  6  1  6  0  0  0
  5  9  1  0  0  0  0
  8  1  1  0  0  0  0
  9 10  2  0  0  0  0
 10  7  1  0  0  0  0
 10 19  1  0  0  0  0
 11  5  1  0  0  0  0
 11  2  1  0  0  0  0
 12 18  2  0  0  0  0
 12 14  1  0  0  0  0
 14 15  2  0  0  0  0
 15 13  1  0  0  0  0
 16 13  2  0  0  0  0
 17 14  1  0  0  0  0
 18 16  1  0  0  0  0
 19 20  1  0  0  0  0
 20 22  1  0  0  0  0
 21 20  2  0  0  0  0
 22 23  1  1  0  0  0
 24 25  1  0  0  0  0
 25 22  1  0  0  0  0
M  END
>  <MODEL>
2

>  <REMARK>
 VINA RESULT:      -8.8      2.854      7.012
  Name = 
  5 active torsions:
  status: ('A' for Active; 'I' for Inactive)
    1  A    between atoms: N_1  and  C_5
    2  A    between atoms: C_2  and  C_15
    3  A    between atoms: C_2  and  C_21
    4  A    between atoms: C_6  and  C_15
    5  A    between atoms: C_6  and  C_23
                            x       y       z     vdW  Elec       q    Type
                         _______ _______ _______ _____ _____    ______ ____

>  <TORSDO>
F 5

$$$$
=
 OpenBabel11052412423D

 25 27  0  0  1  0  0  0  0  0999 V2000
  186.9540  178.1540  142.8130 N   0  0  0  0  0  0  0  0  0  0  0  0
  188.2220  177.4160  142.6810 C   0  0  0  0  0  0  0  0  0  0  0  0
  186.7890  178.4700  140.4730 C   0  0  0  0  0  3  0  0  0  0  0  0
  188.1370  178.0220  140.3090 N   0  0  0  0  0  0  0  0  0  0  0  0
  190.2590  177.2300  141.1470 C   0  0  1  0  0  3  0  0  0  0  0  0
  190.8330  176.9200  139.8070 C   0  0  0  0  0  1  0  0  0  0  0  0
  189.2200  177.7780  143.7540 C   0  0  0  0  0  3  0  0  0  0  0  0
  186.2530  178.5380  141.6530 N   0  0  0  0  0  0  0  0  0  0  0  0
  191.0600  177.2600  142.2170 C   0  0  0  0  0  3  0  0  0  0  0  0
  190.5370  177.6360  143.5510 C   0  0  0  0  0  0  0  0  0  0  0  0
  188.8340  177.5770  141.3100 C   0  0  0  0  0  0  0  0  0  0  0  0
  186.2610  178.2050  144.0770 C   0  0  0  0  0  0  0  0  0  0  0  0
  184.9160  178.2640  146.5450 C   0  0  0  0  0  3  0  0  0  0  0  0
  185.0420  178.9020  144.2090 C   0  0  0  0  0  0  0  0  0  0  0  0
  184.3770  178.9250  145.4390 C   0  0  0  0  0  3  0  0  0  0  0  0
  186.1230  177.5760  146.4260 C   0  0  0  0  0  3  0  0  0  0  0  0
  184.4910  179.5880  143.1320 O   0  0  0  0  0  1  0  0  0  0  0  0
  186.7910  177.5450  145.1990 C   0  0  0  0  0  3  0  0  0  0  0  0
  191.4890  177.8950  144.6670 C   0  0  0  0  0  2  0  0  0  0  0  0
  191.6200  176.6840  145.5340 C   0  0  0  0  0  0  0  0  0  0  0  0
  191.9640  175.6200  145.0420 O   0  0  0  0  0  0  0  0  0  0  0  0
  191.3050  176.7830  146.9960 C   0  0  2  0  0  3  0  0  0  0  0  0
  191.9400  175.7600  147.7040 O   0  0  0  0  0  1  0  0  0  0  0  0
  189.4110  177.9100  147.9610 O   0  0  0  0  0  1  0  0  0  0  0  0
  189.8040  176.7680  147.2600 C   0  0  0  0  0  2  0  0  0  0  0  0
  1 12  1  0  0  0  0
  2  1  1  0  0  0  0
  2  7  2  0  0  0  0
  3  8  2  0  0  0  0
  4  3  1  0  0  0  0
  4 11  2  0  0  0  0
  5  6  1  6  0  0  0
  5 11  1  0  0  0  0
  5  9  1  0  0  0  0
  8  1  1  0  0  0  0
  9 10  2  0  0  0  0
 10  7  1  0  0  0  0
 10 19  1  0  0  0  0
 11  2  1  0  0  0  0
 12 14  2  0  0  0  0
 12 18  1  0  0  0  0
 14 15  1  0  0  0  0
 15 13  2  0  0  0  0
 16 13  1  0  0  0  0
 17 14  1  0  0  0  0
 18 16  2  0  0  0  0
 19 20  1  0  0  0  0
 20 22  1  0  0  0  0
 21 20  2  0  0  0  0
 22 25  1  0  0  0  0
 22 23  1  1  0  0  0
 25 24  1  0  0  0  0
M  END
>  <MODEL>
3

>  <REMARK>
 VINA RESULT:      -8.8      2.690      4.994
  Name = 
  5 active torsions:
  status: ('A' for Active; 'I' for Inactive)
    1  A    between atoms: N_1  and  C_5
    2  A    between atoms: C_2  and  C_15
    3  A    between atoms: C_2  and  C_21
    4  A    between atoms: C_6  and  C_15
    5  A    between atoms: C_6  and  C_23
                            x       y       z     vdW  Elec       q    Type
                         _______ _______ _______ _____ _____    ______ ____

>  <TORSDO>
F 5

$$$$
=
 OpenBabel11052412423D

 25 27  0  0  1  0  0  0  0  0999 V2000
  183.9260  178.4350  142.6590 N   0  0  0  0  0  0  0  0  0  0  0  0
  185.1710  178.6560  143.4140 C   0  0  2  0  0  3  0  0  0  0  0  0
  182.5860  179.0030  144.5260 C   0  0  0  0  0  3  0  0  0  0  0  0
  183.7350  178.9530  145.3760 N   0  0  0  0  0  0  0  0  0  0  0  0
  186.0830  178.5820  145.8020 C   0  0  0  0  0  0  0  0  0  0  0  0
  186.0540  179.0890  147.2030 C   0  0  0  0  0  1  0  0  0  0  0  0
  186.2250  177.6160  143.1140 C   0  0  0  0  0  3  0  0  0  0  0  0
  182.6890  178.7460  143.2580 N   0  0  0  0  0  0  0  0  0  0  0  0
  187.1510  177.9060  145.3670 C   0  0  0  0  0  3  0  0  0  0  0  0
  187.1830  177.3250  144.0040 C   0  0  0  0  0  0  0  0  0  0  0  0
  184.9260  178.7490  144.9010 C   0  0  0  0  0  0  0  0  0  0  0  0
  183.9580  178.2230  141.2330 C   0  0  0  0  0  0  0  0  0  0  0  0
  184.0170  177.7680  138.4590 C   0  0  0  0  0  3  0  0  0  0  0  0
  184.9170  178.8680  140.4240 C   0  0  0  0  0  0  0  0  0  0  0  0
  184.9420  178.6350  139.0450 C   0  0  0  0  0  3  0  0  0  0  0  0
  183.0620  177.1290  139.2500 C   0  0  0  0  0  3  0  0  0  0  0  0
  185.8360  179.7530  140.9750 O   0  0  0  0  0  1  0  0  0  0  0  0
  183.0340  177.3540  140.6280 C   0  0  0  0  0  3  0  0  0  0  0  0
  188.2720  176.3780  143.6340 C   0  0  0  0  0  2  0  0  0  0  0  0
  189.5130  177.1260  143.2680 C   0  0  0  0  0  0  0  0  0  0  0  0
  189.4910  177.9200  142.3400 O   0  0  0  0  0  0  0  0  0  0  0  0
  190.7790  176.8780  144.0320 C   0  0  2  0  0  3  0  0  0  0  0  0
  191.3310  175.6450  143.6770 O   0  0  0  0  0  1  0  0  0  0  0  0
  191.7780  177.1200  146.2080 O   0  0  0  0  0  1  0  0  0  0  0  0
  190.5620  176.9570  145.5390 C   0  0  0  0  0  2  0  0  0  0  0  0
  1  8  1  0  0  0  0
  1  2  1  0  0  0  0
  2  7  1  1  0  0  0
  2 11  1  0  0  0  0
  3  4  1  0  0  0  0
  5  6  1  0  0  0  0
  7 10  2  0  0  0  0
  8  3  2  0  0  0  0
  9  5  2  0  0  0  0
 10  9  1  0  0  0  0
 11  4  2  0  0  0  0
 11  5  1  0  0  0  0
 12  1  1  0  0  0  0
 13 15  2  0  0  0  0
 13 16  1  0  0  0  0
 14 17  1  0  0  0  0
 14 12  2  0  0  0  0
 15 14  1  0  0  0  0
 16 18  2  0  0  0  0
 18 12  1  0  0  0  0
 19 10  1  0  0  0  0
 20 19  1  0  0  0  0
 20 22  1  0  0  0  0
 21 20  2  0  0  0  0
 22 23  1  1  0  0  0
 22 25  1  0  0  0  0
 25 24  1  0  0  0  0
M  END
>  <MODEL>
4

>  <REMARK>
 VINA RESULT:      -8.6      2.788      4.958
  Name = 
  5 active torsions:
  status: ('A' for Active; 'I' for Inactive)
    1  A    between atoms: N_1  and  C_5
    2  A    between atoms: C_2  and  C_15
    3  A    between atoms: C_2  and  C_21
    4  A    between atoms: C_6  and  C_15
    5  A    between atoms: C_6  and  C_23
                            x       y       z     vdW  Elec       q    Type
                         _______ _______ _______ _____ _____    ______ ____

>  <TORSDO>
F 5

$$$$
=
 OpenBabel11052412423D

 25 27  0  0  1  0  0  0  0  0999 V2000
  189.6630  178.0400  142.7800 N   0  0  0  0  0  0  0  0  0  0  0  0
  189.1500  177.2960  143.9430 C   0  0  2  0  0  3  0  0  0  0  0  0
  191.6660  178.6010  143.9090 C   0  0  0  0  0  3  0  0  0  0  0  0
  191.1070  178.1470  145.1440 N   0  0  0  0  0  0  0  0  0  0  0  0
  189.3240  177.2340  146.4930 C   0  0  0  0  0  0  0  0  0  0  0  0
  190.1530  177.0550  147.7190 C   0  0  0  0  0  1  0  0  0  0  0  0
  187.6750  177.5260  144.1750 C   0  0  0  0  0  3  0  0  0  0  0  0
  190.9740  178.5560  142.8120 N   0  0  0  0  0  0  0  0  0  0  0  0
  187.9940  177.1370  146.5760 C   0  0  0  0  0  3  0  0  0  0  0  0
  187.1360  177.3810  145.3930 C   0  0  0  0  0  0  0  0  0  0  0  0
  189.9370  177.5880  145.1980 C   0  0  0  0  0  0  0  0  0  0  0  0
  188.9880  177.9710  141.5070 C   0  0  0  0  0  0  0  0  0  0  0  0
  187.6380  177.8330  139.0450 C   0  0  0  0  0  3  0  0  0  0  0  0
  189.5020  177.1850  140.4540 C   0  0  0  0  0  0  0  0  0  0  0  0
  188.8230  177.1200  139.2330 C   0  0  0  0  0  3  0  0  0  0  0  0
  187.1240  178.6170  140.0790 C   0  0  0  0  0  3  0  0  0  0  0  0
  190.6910  176.4810  140.6030 O   0  0  0  0  0  1  0  0  0  0  0  0
  187.7950  178.6840  141.3020 C   0  0  0  0  0  3  0  0  0  0  0  0
  185.6610  177.5050  145.5680 C   0  0  0  0  0  2  0  0  0  0  0  0
  185.2570  178.9430  145.5970 C   0  0  0  0  0  0  0  0  0  0  0  0
  185.7210  179.6860  146.4490 O   0  0  0  0  0  0  0  0  0  0  0  0
  184.2690  179.4560  144.5930 C   0  0  2  0  0  3  0  0  0  0  0  0
  183.0590  178.7680  144.7020 O   0  0  0  0  0  1  0  0  0  0  0  0
  184.2750  178.2710  142.4980 O   0  0  0  0  0  1  0  0  0  0  0  0
  184.8070  179.3740  143.1690 C   0  0  0  0  0  2  0  0  0  0  0  0
  1  8  1  0  0  0  0
  1  2  1  0  0  0  0
  2  7  1  1  0  0  0
  2 11  1  0  0  0  0
  3  4  1  0  0  0  0
  4 11  2  0  0  0  0
  5  9  2  0  0  0  0
  5  6  1  0  0  0  0
  7 10  2  0  0  0  0
  8  3  2  0  0  0  0
 10 19  1  0  0  0  0
 10  9  1  0  0  0  0
 11  5  1  0  0  0  0
 12  1  1  0  0  0  0
 13 15  2  0  0  0  0
 13 16  1  0  0  0  0
 14 17  1  0  0  0  0
 14 12  2  0  0  0  0
 15 14  1  0  0  0  0
 16 18  2  0  0  0  0
 18 12  1  0  0  0  0
 19 20  1  0  0  0  0
 20 21  2  0  0  0  0
 22 23  1  6  0  0  0
 22 20  1  0  0  0  0
 24 25  1  0  0  0  0
 25 22  1  0  0  0  0
M  END
>  <MODEL>
5

>  <REMARK>
 VINA RESULT:      -8.5      2.089      5.327
  Name = 
  5 active torsions:
  status: ('A' for Active; 'I' for Inactive)
    1  A    between atoms: N_1  and  C_5
    2  A    between atoms: C_2  and  C_15
    3  A    between atoms: C_2  and  C_21
    4  A    between atoms: C_6  and  C_15
    5  A    between atoms: C_6  and  C_23
                            x       y       z     vdW  Elec       q    Type
                         _______ _______ _______ _____ _____    ______ ____

>  <TORSDO>
F 5

$$$$
=
 OpenBabel11052412423D

 25 27  0  0  1  0  0  0  0  0999 V2000
  187.7430  177.8470  145.4020 N   0  0  0  0  0  0  0  0  0  0  0  0
  187.2050  177.6160  144.0510 C   0  0  0  0  0  0  0  0  0  0  0  0
  185.6410  178.5760  146.2120 C   0  0  0  0  0  3  0  0  0  0  0  0
  185.1410  178.6450  144.8740 N   0  0  0  0  0  0  0  0  0  0  0  0
  185.3670  178.4430  142.4780 C   0  0  1  0  0  3  0  0  0  0  0  0
  183.9180  178.6310  142.1840 C   0  0  0  0  0  1  0  0  0  0  0  0
  188.1570  178.0530  142.9630 C   0  0  0  0  0  3  0  0  0  0  0  0
  186.8660  178.2130  146.4430 N   0  0  0  0  0  0  0  0  0  0  0  0
  186.2560  178.5100  141.4820 C   0  0  0  0  0  3  0  0  0  0  0  0
  187.7090  178.4020  141.7490 C   0  0  0  0  0  0  0  0  0  0  0  0
  185.8510  178.2560  143.8590 C   0  0  0  0  0  0  0  0  0  0  0  0
  189.0670  177.3980  145.7530 C   0  0  0  0  0  0  0  0  0  0  0  0
  191.6530  176.5040  146.4020 C   0  0  0  0  0  3  0  0  0  0  0  0
  189.3340  176.8440  147.0230 C   0  0  0  0  0  0  0  0  0  0  0  0
  190.6220  176.3990  147.3380 C   0  0  0  0  0  3  0  0  0  0  0  0
  191.4010  177.0540  145.1450 C   0  0  0  0  0  3  0  0  0  0  0  0
  188.3330  176.7460  147.9830 O   0  0  0  0  0  1  0  0  0  0  0  0
  190.1160  177.4980  144.8230 C   0  0  0  0  0  3  0  0  0  0  0  0
  188.6820  178.7200  140.6660 C   0  0  0  0  0  2  0  0  0  0  0  0
  188.9900  177.4970  139.8650 C   0  0  0  0  0  0  0  0  0  0  0  0
  188.1920  177.1010  139.0290 O   0  0  0  0  0  0  0  0  0  0  0  0
  190.2690  176.7530  140.1120 C   0  0  2  0  0  3  0  0  0  0  0  0
  191.0560  177.4300  141.0460 O   0  0  0  0  0  1  0  0  0  0  0  0
  190.9080  175.1930  138.3950 O   0  0  0  0  0  1  0  0  0  0  0  0
  191.0490  176.5150  138.8240 C   0  0  0  0  0  2  0  0  0  0  0  0
  1 12  1  0  0  0  0
  1  8  1  0  0  0  0
  2  1  1  0  0  0  0
  3  8  2  0  0  0  0
  4  3  1  0  0  0  0
  5  6  1  1  0  0  0
  5 11  1  0  0  0  0
  7  2  2  0  0  0  0
  9 10  2  0  0  0  0
  9  5  1  0  0  0  0
 10  7  1  0  0  0  0
 11  2  1  0  0  0  0
 11  4  2  0  0  0  0
 12 14  1  0  0  0  0
 13 15  1  0  0  0  0
 14 15  2  0  0  0  0
 14 17  1  0  0  0  0
 16 13  2  0  0  0  0
 18 16  1  0  0  0  0
 18 12  2  0  0  0  0
 19 10  1  0  0  0  0
 20 22  1  0  0  0  0
 20 19  1  0  0  0  0
 21 20  2  0  0  0  0
 22 23  1  1  0  0  0
 24 25  1  0  0  0  0
 25 22  1  0  0  0  0
M  END
>  <MODEL>
6

>  <REMARK>
 VINA RESULT:      -8.5      1.609      4.833
  Name = 
  5 active torsions:
  status: ('A' for Active; 'I' for Inactive)
    1  A    between atoms: N_1  and  C_5
    2  A    between atoms: C_2  and  C_15
    3  A    between atoms: C_2  and  C_21
    4  A    between atoms: C_6  and  C_15
    5  A    between atoms: C_6  and  C_23
                            x       y       z     vdW  Elec       q    Type
                         _______ _______ _______ _____ _____    ______ ____

>  <TORSDO>
F 5

$$$$
=
 OpenBabel11052412423D

 25 27  0  0  1  0  0  0  0  0999 V2000
  189.8880  177.5680  140.5720 N   0  0  0  0  0  0  0  0  0  0  0  0
  188.7720  177.2850  141.4910 C   0  0  2  0  0  3  0  0  0  0  0  0
  191.4930  177.2690  142.2860 C   0  0  0  0  0  3  0  0  0  0  0  0
  190.4550  177.2700  143.2690 N   0  0  0  0  0  0  0  0  0  0  0  0
  188.1490  177.4440  143.9660 C   0  0  0  0  0  0  0  0  0  0  0  0
  188.3990  177.0460  145.3800 C   0  0  0  0  0  1  0  0  0  0  0  0
  187.5870  178.1930  141.2640 C   0  0  0  0  0  3  0  0  0  0  0  0
  191.2130  177.4220  141.0280 N   0  0  0  0  0  0  0  0  0  0  0  0
  186.9730  177.9810  143.6290 C   0  0  0  0  0  3  0  0  0  0  0  0
  186.7170  178.4560  142.2490 C   0  0  0  0  0  0  0  0  0  0  0  0
  189.2010  177.3240  142.9380 C   0  0  0  0  0  0  0  0  0  0  0  0
  189.6630  177.6720  139.1510 C   0  0  0  0  0  0  0  0  0  0  0  0
  189.1870  177.8910  136.3890 C   0  0  0  0  0  3  0  0  0  0  0  0
  189.9560  176.5950  138.2890 C   0  0  0  0  0  0  0  0  0  0  0  0
  189.7150  176.7110  136.9160 C   0  0  0  0  0  3  0  0  0  0  0  0
  188.8980  178.9630  137.2330 C   0  0  0  0  0  3  0  0  0  0  0  0
  190.5020  175.4160  138.7800 O   0  0  0  0  0  1  0  0  0  0  0  0
  189.1330  178.8540  138.6060 C   0  0  0  0  0  3  0  0  0  0  0  0
  185.4990  179.2640  141.9630 C   0  0  0  0  0  2  0  0  0  0  0  0
  184.2730  178.4170  142.0730 C   0  0  0  0  0  0  0  0  0  0  0  0
  184.0450  177.5660  141.2260 O   0  0  0  0  0  0  0  0  0  0  0  0
  183.3210  178.6350  143.2110 C   0  0  2  0  0  3  0  0  0  0  0  0
  182.0550  178.9750  142.7320 O   0  0  0  0  0  1  0  0  0  0  0  0
  184.0180  179.1450  145.4570 O   0  0  0  0  0  1  0  0  0  0  0  0
  183.8290  179.6920  144.1860 C   0  0  0  0  0  2  0  0  0  0  0  0
  1  8  1  0  0  0  0
  1  2  1  0  0  0  0
  2  7  1  1  0  0  0
  2 11  1  0  0  0  0
  3  4  1  0  0  0  0
  5  6  1  0  0  0  0
  7 10  2  0  0  0  0
  8  3  2  0  0  0  0
  9  5  2  0  0  0  0
 10  9  1  0  0  0  0
 11  4  2  0  0  0  0
 11  5  1  0  0  0  0
 12  1  1  0  0  0  0
 13 15  2  0  0  0  0
 13 16  1  0  0  0  0
 14 17  1  0  0  0  0
 14 12  2  0  0  0  0
 15 14  1  0  0  0  0
 16 18  2  0  0  0  0
 18 12  1  0  0  0  0
 19 20  1  0  0  0  0
 19 10  1  0  0  0  0
 20 22  1  0  0  0  0
 21 20  2  0  0  0  0
 22 23  1  6  0  0  0
 22 25  1  0  0  0  0
 25 24  1  0  0  0  0
M  END
>  <MODEL>
7

>  <REMARK>
 VINA RESULT:      -8.5      2.902      6.641
  Name = 
  5 active torsions:
  status: ('A' for Active; 'I' for Inactive)
    1  A    between atoms: N_1  and  C_5
    2  A    between atoms: C_2  and  C_15
    3  A    between atoms: C_2  and  C_21
    4  A    between atoms: C_6  and  C_15
    5  A    between atoms: C_6  and  C_23
                            x       y       z     vdW  Elec       q    Type
                         _______ _______ _______ _____ _____    ______ ____

>  <TORSDO>
F 5

$$$$
=
 OpenBabel11052412423D

 25 27  0  0  1  0  0  0  0  0999 V2000
  185.3900  178.4630  144.6230 N   0  0  0  0  0  0  0  0  0  0  0  0
  186.8490  178.4270  144.8210 C   0  0  2  0  0  3  0  0  0  0  0  0
  184.9850  178.5740  146.9520 C   0  0  0  0  0  3  0  0  0  0  0  0
  186.3550  178.2560  147.2140 N   0  0  0  0  0  0  0  0  0  0  0  0
  188.6020  177.6930  146.5320 C   0  0  0  0  0  0  0  0  0  0  0  0
  189.1970  177.8150  147.8920 C   0  0  0  0  0  1  0  0  0  0  0  0
  187.5390  177.4620  143.8870 C   0  0  0  0  0  3  0  0  0  0  0  0
  184.5450  178.6550  145.7340 N   0  0  0  0  0  0  0  0  0  0  0  0
  189.3050  177.1120  145.5540 C   0  0  0  0  0  3  0  0  0  0  0  0
  188.7170  176.9090  144.2090 C   0  0  0  0  0  0  0  0  0  0  0  0
  187.2220  178.1360  146.2550 C   0  0  0  0  0  0  0  0  0  0  0  0
  184.8310  178.6310  143.3040 C   0  0  0  0  0  0  0  0  0  0  0  0
  183.7660  178.9900  140.7270 C   0  0  0  0  0  3  0  0  0  0  0  0
  183.4350  178.6350  143.1020 C   0  0  0  0  0  0  0  0  0  0  0  0
  182.9120  178.8160  141.8180 C   0  0  0  0  0  3  0  0  0  0  0  0
  185.1480  178.9840  140.9150 C   0  0  0  0  0  3  0  0  0  0  0  0
  182.5600  178.4420  144.1650 O   0  0  0  0  0  1  0  0  0  0  0  0
  185.6770  178.8060  142.1960 C   0  0  0  0  0  3  0  0  0  0  0  0
  189.4250  176.0490  143.2200 C   0  0  0  0  0  2  0  0  0  0  0  0
  190.2580  176.8850  142.3040 C   0  0  0  0  0  0  0  0  0  0  0  0
  191.1050  177.6340  142.7670 O   0  0  0  0  0  0  0  0  0  0  0  0
  190.0310  176.8130  140.8230 C   0  0  2  0  0  3  0  0  0  0  0  0
  191.1820  177.1950  140.1320 O   0  0  0  0  0  1  0  0  0  0  0  0
  189.1920  178.5180  139.3460 O   0  0  0  0  0  1  0  0  0  0  0  0
  188.8380  177.6560  140.3870 C   0  0  0  0  0  2  0  0  0  0  0  0
  1  2  1  0  0  0  0
  1  8  1  0  0  0  0
  2  7  1  6  0  0  0
  2 11  1  0  0  0  0
  3  4  1  0  0  0  0
  5  6  1  0  0  0  0
  7 10  2  0  0  0  0
  8  3  2  0  0  0  0
  9  5  2  0  0  0  0
 10  9  1  0  0  0  0
 11  5  1  0  0  0  0
 11  4  2  0  0  0  0
 12  1  1  0  0  0  0
 13 16  2  0  0  0  0
 13 15  1  0  0  0  0
 14 12  1  0  0  0  0
 14 17  1  0  0  0  0
 15 14  2  0  0  0  0
 16 18  1  0  0  0  0
 18 12  2  0  0  0  0
 19 10  1  0  0  0  0
 20 21  2  0  0  0  0
 20 19  1  0  0  0  0
 22 23  1  6  0  0  0
 22 20  1  0  0  0  0
 24 25  1  0  0  0  0
 25 22  1  0  0  0  0
M  END
>  <MODEL>
8

>  <REMARK>
 VINA RESULT:      -8.4      1.635      2.312
  Name = 
  5 active torsions:
  status: ('A' for Active; 'I' for Inactive)
    1  A    between atoms: N_1  and  C_5
    2  A    between atoms: C_2  and  C_15
    3  A    between atoms: C_2  and  C_21
    4  A    between atoms: C_6  and  C_15
    5  A    between atoms: C_6  and  C_23
                            x       y       z     vdW  Elec       q    Type
                         _______ _______ _______ _____ _____    ______ ____

>  <TORSDO>
F 5

$$$$
=
 OpenBabel11052412423D

 25 27  0  0  1  0  0  0  0  0999 V2000
  189.9550  177.7460  142.3230 N   0  0  0  0  0  0  0  0  0  0  0  0
  188.9550  177.2200  143.2680 C   0  0  2  0  0  3  0  0  0  0  0  0
  191.4100  178.3840  144.0770 C   0  0  0  0  0  3  0  0  0  0  0  0
  190.3700  178.1570  145.0330 N   0  0  0  0  0  0  0  0  0  0  0  0
  188.1180  177.5530  145.6610 C   0  0  0  0  0  0  0  0  0  0  0  0
  188.3820  177.5310  147.1270 C   0  0  0  0  0  1  0  0  0  0  0  0
  187.5390  177.5530  142.8610 C   0  0  0  0  0  3  0  0  0  0  0  0
  191.1970  178.1990  142.8100 N   0  0  0  0  0  0  0  0  0  0  0  0
  186.8580  177.5330  145.2170 C   0  0  0  0  0  3  0  0  0  0  0  0
  186.5570  177.6280  143.7700 C   0  0  0  0  0  0  0  0  0  0  0  0
  189.2190  177.6700  144.6850 C   0  0  0  0  0  0  0  0  0  0  0  0
  189.8240  177.5090  140.9060 C   0  0  0  0  0  0  0  0  0  0  0  0
  189.6090  177.0460  138.1410 C   0  0  0  0  0  3  0  0  0  0  0  0
  188.9540  178.2900  140.1170 C   0  0  0  0  0  0  0  0  0  0  0  0
  188.8540  178.0550  138.7420 C   0  0  0  0  0  3  0  0  0  0  0  0
  190.4690  176.2650  138.9140 C   0  0  0  0  0  3  0  0  0  0  0  0
  188.1730  179.2880  140.6890 O   0  0  0  0  0  1  0  0  0  0  0  0
  190.5760  176.4960  140.2880 C   0  0  0  0  0  3  0  0  0  0  0  0
  185.1520  177.8470  143.3240 C   0  0  0  0  0  2  0  0  0  0  0  0
  185.0950  178.9160  142.2820 C   0  0  0  0  0  0  0  0  0  0  0  0
  185.3910  180.0650  142.5740 O   0  0  0  0  0  0  0  0  0  0  0  0
  184.6540  178.5720  140.8910 C   0  0  2  0  0  3  0  0  0  0  0  0
  184.8840  179.6430  140.0250 O   0  0  0  0  0  1  0  0  0  0  0  0
  183.0150  177.0640  139.9800 O   0  0  0  0  0  1  0  0  0  0  0  0
  183.1910  178.1470  140.8440 C   0  0  0  0  0  2  0  0  0  0  0  0
  1  8  1  0  0  0  0
  1  2  1  0  0  0  0
  2  7  1  6  0  0  0
  2 11  1  0  0  0  0
  3  4  1  0  0  0  0
  5  6  1  0  0  0  0
  7 10  2  0  0  0  0
  8  3  2  0  0  0  0
  9  5  2  0  0  0  0
 10  9  1  0  0  0  0
 11  4  2  0  0  0  0
 11  5  1  0  0  0  0
 12  1  1  0  0  0  0
 13 15  2  0  0  0  0
 13 16  1  0  0  0  0
 14 17  1  0  0  0  0
 14 12  2  0  0  0  0
 15 14  1  0  0  0  0
 16 18  2  0  0  0  0
 18 12  1  0  0  0  0
 19 10  1  0  0  0  0
 20 21  2  0  0  0  0
 20 19  1  0  0  0  0
 22 23  1  6  0  0  0
 22 20  1  0  0  0  0
 24 25  1  0  0  0  0
 25 22  1  0  0  0  0
M  END
>  <MODEL>
9

>  <REMARK>
 VINA RESULT:      -8.3      2.391      5.322
  Name = 
  5 active torsions:
  status: ('A' for Active; 'I' for Inactive)
    1  A    between atoms: N_1  and  C_5
    2  A    between atoms: C_2  and  C_15
    3  A    between atoms: C_2  and  C_21
    4  A    between atoms: C_6  and  C_15
    5  A    between atoms: C_6  and  C_23
                            x       y       z     vdW  Elec       q    Type
                         _______ _______ _______ _____ _____    ______ ____

>  <TORSDO>
F 5

$$$$
