=
 OpenBabel11052417013D

 32 36  0  0  1  0  0  0  0  0999 V2000
  187.6870  177.5940  143.9710 C   0  0  0  0  0  0  0  0  0  0  0  0
  184.0610  178.3530  140.6430 C   0  0  2  0  0  3  0  0  0  0  0  0
  183.4310  177.8630  138.2690 C   0  0  0  0  0  0  0  0  0  0  0  0
  182.4710  178.0290  137.1860 C   0  0  0  0  0  0  0  0  0  0  0  0
  186.2130  178.8780  141.8840 C   0  0  1  0  0  3  0  0  0  0  0  0
  184.1870  178.4730  143.1610 C   0  0  0  0  0  2  0  0  0  0  0  0
  180.7710  178.9230  136.1080 N   0  0  0  0  0  0  0  0  0  0  0  0
  186.2670  178.0400  144.1490 C   0  0  0  0  0  2  0  0  0  0  0  0
  183.4400  178.9590  141.9090 C   0  0  2  0  0  3  0  0  0  0  0  0
  181.9260  178.6900  141.9880 C   0  0  2  0  0  3  0  0  0  0  0  0
  182.1240  179.5840  139.6050 C   0  0  2  0  0  3  0  0  0  0  0  0
  181.2550  177.9100  135.3590 C   0  0  0  0  0  3  0  0  0  0  0  0
  188.2080  177.4150  142.5750 C   0  0  0  0  0  2  0  0  0  0  0  0
  185.5490  177.9960  142.8730 N   0  0  2  0  0  0  0  0  0  0  0  0
  182.3360  177.3150  136.0080 C   0  0  0  0  0  3  0  0  0  0  0  0
  187.7080  178.5590  141.6910 C   0  0  0  0  0  2  0  0  0  0  0  0
  188.4380  177.3500  145.0490 C   0  0  0  0  0  3  0  0  0  0  0  0
  181.1740  179.0330  140.6810 C   0  0  1  0  0  3  0  0  0  0  0  0
  181.4170  180.0240  138.3000 C   0  0  0  0  0  2  0  0  0  0  0  0
  185.5150  178.8100  140.5170 C   0  0  0  0  0  2  0  0  0  0  0  0
  184.3490  177.0020  138.1850 O   0  0  0  0  0  0  0  0  0  0  0  0
  179.6670  179.7930  135.7410 C   0  0  0  0  0  1  0  0  0  0  0  0
  183.2910  178.6910  139.4400 N   0  0  0  0  0  0  0  0  0  0  0  0
  181.5060  178.9840  137.2270 C   0  0  0  0  0  0  0  0  0  0  0  0
  180.5260  178.5170  143.6970 C   0  0  0  0  0  1  0  0  0  0  0  0
  181.3690  179.4180  143.0440 O   0  0  0  0  0  0  0  0  0  0  0  0
  178.9310  177.9850  140.3400 C   0  0  0  0  0  1  0  0  0  0  0  0
  180.4270  177.8010  140.1790 C   0  0  0  0  0  2  0  0  0  0  0  0
  189.8600  176.8910  144.9610 C   0  0  0  0  0  2  0  0  0  0  0  0
  190.5060  176.9900  146.2980 C   0  0  0  0  0  0  0  0  0  0  0  0
  191.8900  176.9890  146.4020 O   0  0  0  0  0  0  0  0  0  0  0  0
  189.7970  177.0420  147.3350 O   0  0  0  0  0  1  0  0  0  0  0  0
  1  8  1  0  0  0  0
  1 17  2  0  0  0  0
  2 20  1  6  0  0  0
  2  9  1  0  0  0  0
  3 23  1  0  0  0  0
  4 24  2  0  0  0  0
  4  3  1  0  0  0  0
  5 20  1  6  0  0  0
  5 14  1  0  0  0  0
  7 24  1  0  0  0  0
  9 10  1  0  0  0  0
  9  6  1  1  0  0  0
 10 26  1  1  0  0  0
 11 19  1  6  0  0  0
 11 18  1  0  0  0  0
 12 15  2  0  0  0  0
 12  7  1  0  0  0  0
 13  1  1  0  0  0  0
 14  6  1  1  0  0  0
 14  8  1  0  0  0  0
 15  4  1  0  0  0  0
 16  5  1  0  0  0  0
 16 13  1  0  0  0  0
 18 28  1  6  0  0  0
 18 10  1  0  0  0  0
 21  3  2  0  0  0  0
 22  7  1  0  0  0  0
 23 11  1  0  0  0  0
 23  2  1  0  0  0  0
 24 19  1  0  0  0  0
 26 25  1  0  0  0  0
 28 27  1  0  0  0  0
 29 17  1  0  0  0  0
 29 30  1  0  0  0  0
 30 31  2  0  0  0  0
 30 32  1  0  0  0  0
M  END
>  <MODEL>
1

>  <REMARK>
 VINA RESULT:      -7.9      0.000      0.000
  Name = 
  4 active torsions:
  status: ('A' for Active; 'I' for Inactive)
    1  A    between atoms: C_1  and  C_10
    2  A    between atoms: C_10  and  C_24
    3  A    between atoms: O_13  and  C_15
    4  A    between atoms: C_25  and  C_26
                            x       y       z     vdW  Elec       q    Type
                         _______ _______ _______ _____ _____    ______ ____

>  <TORSDO>
F 4

$$$$
=
 OpenBabel11052417013D

 32 36  0  0  1  0  0  0  0  0999 V2000
  190.9150  176.7940  138.1220 C   0  0  0  0  0  0  0  0  0  0  0  0
  186.1030  178.0350  138.4480 C   0  0  2  0  0  3  0  0  0  0  0  0
  183.8960  177.6820  137.3170 C   0  0  0  0  0  0  0  0  0  0  0  0
  182.4710  177.9820  137.2670 C   0  0  0  0  0  0  0  0  0  0  0  0
  188.5150  178.2880  137.6950 C   0  0  1  0  0  3  0  0  0  0  0  0
  188.0390  178.0690  140.0670 C   0  0  0  0  0  2  0  0  0  0  0  0
  180.6190  179.0850  137.7170 N   0  0  0  0  0  0  0  0  0  0  0  0
  190.1260  177.3850  139.2510 C   0  0  0  0  0  2  0  0  0  0  0  0
  186.6650  178.6670  139.7280 C   0  0  2  0  0  3  0  0  0  0  0  0
  185.6740  178.5620  140.9010 C   0  0  2  0  0  3  0  0  0  0  0  0
  184.1510  179.4970  139.0780 C   0  0  2  0  0  3  0  0  0  0  0  0
  180.3030  178.0480  136.9140 C   0  0  0  0  0  3  0  0  0  0  0  0
  190.2300  176.5990  136.8010 C   0  0  0  0  0  2  0  0  0  0  0  0
  188.7050  177.4560  138.9070 N   0  0  2  0  0  0  0  0  0  0  0  0
  181.4520  177.3210  136.6060 C   0  0  0  0  0  3  0  0  0  0  0  0
  189.3550  177.8140  136.4940 C   0  0  0  0  0  2  0  0  0  0  0  0
  192.1870  176.4390  138.3250 C   0  0  0  0  0  3  0  0  0  0  0  0
  184.2420  179.0210  140.5370 C   0  0  1  0  0  3  0  0  0  0  0  0
  182.7610  180.0470  138.6760 C   0  0  0  0  0  2  0  0  0  0  0  0
  187.0380  178.3340  137.2760 C   0  0  0  0  0  2  0  0  0  0  0  0
  184.3740  176.7300  136.6420 O   0  0  0  0  0  0  0  0  0  0  0  0
  179.6860  180.0800  138.2190 C   0  0  0  0  0  1  0  0  0  0  0  0
  184.7360  178.4870  138.1680 N   0  0  0  0  0  0  0  0  0  0  0  0
  181.9390  179.0340  137.9420 C   0  0  0  0  0  0  0  0  0  0  0  0
  185.9570  178.4940  143.0980 C   0  0  0  0  0  1  0  0  0  0  0  0
  186.1370  179.3150  141.9840 O   0  0  0  0  0  0  0  0  0  0  0  0
  182.1270  178.3780  141.7020 C   0  0  0  0  0  1  0  0  0  0  0  0
  183.2540  177.8920  140.8120 C   0  0  0  0  0  2  0  0  0  0  0  0
  193.0410  175.8320  137.2570 C   0  0  0  0  0  2  0  0  0  0  0  0
  194.0020  174.8720  137.8630 C   0  0  0  0  0  0  0  0  0  0  0  0
  195.0080  175.3330  138.7030 O   0  0  0  0  0  1  0  0  0  0  0  0
  193.9230  173.6470  137.5920 O   0  0  0  0  0  0  0  0  0  0  0  0
  1 17  2  0  0  0  0
  1  8  1  0  0  0  0
  2 20  1  6  0  0  0
  2  9  1  0  0  0  0
  3 23  1  0  0  0  0
  4  3  1  0  0  0  0
  4 24  2  0  0  0  0
  5 16  1  6  0  0  0
  5 14  1  0  0  0  0
  7 24  1  0  0  0  0
  7 22  1  0  0  0  0
  9  6  1  1  0  0  0
  9 10  1  0  0  0  0
 10 26  1  1  0  0  0
 11 19  1  6  0  0  0
 11 18  1  0  0  0  0
 12  7  1  0  0  0  0
 13  1  1  0  0  0  0
 14  8  1  1  0  0  0
 14  6  1  0  0  0  0
 15 12  2  0  0  0  0
 15  4  1  0  0  0  0
 16 13  1  0  0  0  0
 18 28  1  6  0  0  0
 18 10  1  0  0  0  0
 20  5  1  0  0  0  0
 21  3  2  0  0  0  0
 23  2  1  0  0  0  0
 23 11  1  0  0  0  0
 24 19  1  0  0  0  0
 26 25  1  0  0  0  0
 28 27  1  0  0  0  0
 29 30  1  0  0  0  0
 29 17  1  0  0  0  0
 30 31  1  0  0  0  0
 32 30  2  0  0  0  0
M  END
>  <MODEL>
2

>  <REMARK>
 VINA RESULT:      -6.3      4.086      5.014
  Name = 
  4 active torsions:
  status: ('A' for Active; 'I' for Inactive)
    1  A    between atoms: C_1  and  C_10
    2  A    between atoms: C_10  and  C_24
    3  A    between atoms: O_13  and  C_15
    4  A    between atoms: C_25  and  C_26
                            x       y       z     vdW  Elec       q    Type
                         _______ _______ _______ _____ _____    ______ ____

>  <TORSDO>
F 4

$$$$
=
 OpenBabel11052417013D

 32 36  0  0  1  0  0  0  0  0999 V2000
  186.3530  177.4290  136.5560 C   0  0  0  0  0  0  0  0  0  0  0  0
  188.1470  177.4980  141.2010 C   0  0  2  0  0  3  0  0  0  0  0  0
  187.4210  177.3880  143.5960 C   0  0  0  0  0  0  0  0  0  0  0  0
  187.7960  177.4250  145.0030 C   0  0  0  0  0  0  0  0  0  0  0  0
  187.2190  178.5010  139.0610 C   0  0  1  0  0  3  0  0  0  0  0  0
  189.1600  177.0470  138.9340 C   0  0  0  0  0  2  0  0  0  0  0  0
  189.0850  177.8190  146.7450 N   0  0  0  0  0  0  0  0  0  0  0  0
  187.7450  177.2310  137.0760 C   0  0  0  0  0  2  0  0  0  0  0  0
  189.4420  177.4900  140.3780 C   0  0  2  0  0  3  0  0  0  0  0  0
  190.5410  176.6450  141.0470 C   0  0  2  0  0  3  0  0  0  0  0  0
  189.7930  178.0910  143.0140 C   0  0  2  0  0  3  0  0  0  0  0  0
  187.9290  177.2870  147.1930 C   0  0  0  0  0  3  0  0  0  0  0  0
  185.2770  177.8070  137.5310 C   0  0  0  0  0  2  0  0  0  0  0  0
  187.7530  177.2210  138.5400 N   0  0  2  0  0  0  0  0  0  0  0  0
  187.0820  177.0200  146.1180 C   0  0  0  0  0  3  0  0  0  0  0  0
  185.8190  178.8430  138.5160 C   0  0  0  0  0  2  0  0  0  0  0  0
  186.1050  177.2430  135.2560 C   0  0  0  0  0  3  0  0  0  0  0  0
  190.7380  176.9720  142.5460 C   0  0  1  0  0  3  0  0  0  0  0  0
  190.0000  178.5220  144.4860 C   0  0  0  0  0  2  0  0  0  0  0  0
  187.1620  178.4980  140.5970 C   0  0  0  0  0  2  0  0  0  0  0  0
  186.2730  176.9990  143.2490 O   0  0  0  0  0  0  0  0  0  0  0  0
  190.1940  178.2530  147.5770 C   0  0  0  0  0  1  0  0  0  0  0  0
  188.4000  177.7890  142.6170 N   0  0  0  0  0  0  0  0  0  0  0  0
  189.0060  177.8890  145.4090 C   0  0  0  0  0  0  0  0  0  0  0  0
  192.5440  177.5740  141.2440 C   0  0  0  0  0  1  0  0  0  0  0  0
  191.7530  176.8210  140.3740 O   0  0  0  0  0  0  0  0  0  0  0  0
  191.7950  175.4230  144.1980 C   0  0  0  0  0  1  0  0  0  0  0  0
  190.5520  175.7080  143.3780 C   0  0  0  0  0  2  0  0  0  0  0  0
  184.7430  177.4080  134.6580 C   0  0  0  0  0  2  0  0  0  0  0  0
  184.0420  176.0970  134.6310 C   0  0  0  0  0  0  0  0  0  0  0  0
  184.7750  174.9180  134.5950 O   0  0  0  0  0  0  0  0  0  0  0  0
  182.7850  176.0560  134.6100 O   0  0  0  0  0  1  0  0  0  0  0  0
  1  8  1  0  0  0  0
  1 13  1  0  0  0  0
  2 20  1  6  0  0  0
  2 23  1  0  0  0  0
  3  4  1  0  0  0  0
  4 24  2  0  0  0  0
  4 15  1  0  0  0  0
  5 16  1  6  0  0  0
  5 20  1  0  0  0  0
  7 12  1  0  0  0  0
  7 22  1  0  0  0  0
  9  6  1  6  0  0  0
  9 10  1  0  0  0  0
  9  2  1  0  0  0  0
 10 26  1  6  0  0  0
 10 18  1  0  0  0  0
 11 19  1  1  0  0  0
 13 16  1  0  0  0  0
 14  8  1  6  0  0  0
 14  6  1  0  0  0  0
 14  5  1  0  0  0  0
 15 12  2  0  0  0  0
 17  1  2  0  0  0  0
 18 11  1  0  0  0  0
 18 28  1  1  0  0  0
 19 24  1  0  0  0  0
 21  3  2  0  0  0  0
 23 11  1  0  0  0  0
 23  3  1  0  0  0  0
 24  7  1  0  0  0  0
 26 25  1  0  0  0  0
 28 27  1  0  0  0  0
 29 17  1  0  0  0  0
 30 29  1  0  0  0  0
 31 30  2  0  0  0  0
 32 30  1  0  0  0  0
M  END
>  <MODEL>
3

>  <REMARK>
 VINA RESULT:      -6.1      4.136      9.890
  Name = 
  4 active torsions:
  status: ('A' for Active; 'I' for Inactive)
    1  A    between atoms: C_1  and  C_10
    2  A    between atoms: C_10  and  C_24
    3  A    between atoms: O_13  and  C_15
    4  A    between atoms: C_25  and  C_26
                            x       y       z     vdW  Elec       q    Type
                         _______ _______ _______ _____ _____    ______ ____

>  <TORSDO>
F 4

$$$$
=
 OpenBabel11052417013D

 32 36  0  0  1  0  0  0  0  0999 V2000
  182.1180  178.0260  139.5850 C   0  0  0  0  0  0  0  0  0  0  0  0
  186.6560  176.8550  137.9020 C   0  0  2  0  0  3  0  0  0  0  0  0
  189.0770  176.9370  138.5420 C   0  0  0  0  0  0  0  0  0  0  0  0
  190.4620  176.6790  138.1720 C   0  0  0  0  0  0  0  0  0  0  0  0
  184.6290  178.3430  138.2540 C   0  0  1  0  0  3  0  0  0  0  0  0
  184.3160  176.1360  137.2880 C   0  0  0  0  0  2  0  0  0  0  0  0
  192.1510  176.2560  136.8220 N   0  0  0  0  0  0  0  0  0  0  0  0
  182.5500  177.1310  138.4630 C   0  0  0  0  0  2  0  0  0  0  0  0
  185.7660  176.2740  136.7960 C   0  0  2  0  0  3  0  0  0  0  0  0
  186.3270  174.9500  136.2460 C   0  0  2  0  0  3  0  0  0  0  0  0
  188.4090  176.4250  136.1440 C   0  0  2  0  0  3  0  0  0  0  0  0
  192.6300  176.3290  138.0820 C   0  0  0  0  0  3  0  0  0  0  0  0
  183.1690  178.8100  140.3140 C   0  0  0  0  0  2  0  0  0  0  0  0
  184.0090  177.0080  138.4330 N   0  0  2  0  0  0  0  0  0  0  0  0
  191.5890  176.5950  138.9700 C   0  0  0  0  0  3  0  0  0  0  0  0
  184.1790  179.3690  139.3120 C   0  0  0  0  0  2  0  0  0  0  0  0
  180.8250  178.0850  139.9170 C   0  0  0  0  0  3  0  0  0  0  0  0
  187.8280  175.0250  135.8840 C   0  0  1  0  0  3  0  0  0  0  0  0
  189.8890  176.5860  135.7230 C   0  0  0  0  0  2  0  0  0  0  0  0
  186.1630  178.2530  138.2760 C   0  0  0  0  0  2  0  0  0  0  0  0
  188.7700  177.1890  139.7390 O   0  0  0  0  0  0  0  0  0  0  0  0
  192.9450  176.0250  135.6280 C   0  0  0  0  0  1  0  0  0  0  0  0
  188.0710  176.8770  137.5120 N   0  0  0  0  0  0  0  0  0  0  0  0
  190.8270  176.4560  136.8820 C   0  0  0  0  0  0  0  0  0  0  0  0
  185.2950  173.2130  135.3340 C   0  0  0  0  0  1  0  0  0  0  0  0
  185.6000  174.5580  135.1180 O   0  0  0  0  0  0  0  0  0  0  0  0
  189.0430  172.8470  135.7230 C   0  0  0  0  0  1  0  0  0  0  0  0
  188.5970  173.9570  136.6540 C   0  0  0  0  0  2  0  0  0  0  0  0
  180.3110  178.9420  141.0300 C   0  0  0  0  0  2  0  0  0  0  0  0
  179.4940  178.1210  141.9640 C   0  0  0  0  0  0  0  0  0  0  0  0
  179.3060  176.7670  141.7150 O   0  0  0  0  0  0  0  0  0  0  0  0
  178.9470  178.6590  142.9600 O   0  0  0  0  0  1  0  0  0  0  0  0
  1 17  2  0  0  0  0
  1 13  1  0  0  0  0
  2 20  1  6  0  0  0
  3 21  2  0  0  0  0
  4  3  1  0  0  0  0
  4 15  1  0  0  0  0
  5 20  1  1  0  0  0
  5 14  1  0  0  0  0
  5 16  1  0  0  0  0
  7 24  1  0  0  0  0
  7 12  1  0  0  0  0
  8  1  1  0  0  0  0
  9  6  1  1  0  0  0
  9  2  1  0  0  0  0
 10 26  1  6  0  0  0
 10  9  1  0  0  0  0
 11 19  1  1  0  0  0
 11 23  1  0  0  0  0
 12 15  2  0  0  0  0
 14  6  1  6  0  0  0
 14  8  1  0  0  0  0
 16 13  1  0  0  0  0
 17 29  1  0  0  0  0
 18 11  1  0  0  0  0
 18 10  1  0  0  0  0
 18 28  1  1  0  0  0
 19 24  1  0  0  0  0
 22  7  1  0  0  0  0
 23  2  1  0  0  0  0
 23  3  1  0  0  0  0
 24  4  2  0  0  0  0
 26 25  1  0  0  0  0
 27 28  1  0  0  0  0
 29 30  1  0  0  0  0
 30 32  1  0  0  0  0
 31 30  2  0  0  0  0
M  END
>  <MODEL>
4

>  <REMARK>
 VINA RESULT:      -5.8      4.666      8.878
  Name = 
  4 active torsions:
  status: ('A' for Active; 'I' for Inactive)
    1  A    between atoms: C_1  and  C_10
    2  A    between atoms: C_10  and  C_24
    3  A    between atoms: O_13  and  C_15
    4  A    between atoms: C_25  and  C_26
                            x       y       z     vdW  Elec       q    Type
                         _______ _______ _______ _____ _____    ______ ____

>  <TORSDO>
F 4

$$$$
=
 OpenBabel11052417013D

 32 36  0  0  1  0  0  0  0  0999 V2000
  181.4220  179.8230  140.3830 C   0  0  0  0  0  0  0  0  0  0  0  0
  185.8020  178.2030  142.1090 C   0  0  2  0  0  3  0  0  0  0  0  0
  188.2300  178.0690  141.5070 C   0  0  0  0  0  0  0  0  0  0  0  0
  189.5690  177.6220  141.8670 C   0  0  0  0  0  0  0  0  0  0  0  0
  183.6030  178.0350  140.8520 C   0  0  1  0  0  3  0  0  0  0  0  0
  183.5780  178.7260  143.1800 C   0  0  0  0  0  2  0  0  0  0  0  0
  191.0910  176.4640  142.9600 N   0  0  0  0  0  0  0  0  0  0  0  0
  181.8460  179.4210  141.7620 C   0  0  0  0  0  2  0  0  0  0  0  0
  184.8860  177.9310  143.3100 C   0  0  2  0  0  3  0  0  0  0  0  0
  185.6020  178.1920  144.6470 C   0  0  2  0  0  3  0  0  0  0  0  0
  187.3270  176.7260  143.4660 C   0  0  2  0  0  3  0  0  0  0  0  0
  191.7270  177.2590  142.0750 C   0  0  0  0  0  3  0  0  0  0  0  0
  182.4000  179.6490  139.2580 C   0  0  0  0  0  2  0  0  0  0  0  0
  183.2810  179.1310  141.7970 N   0  0  2  0  0  0  0  0  0  0  0  0
  190.7960  178.0130  141.3610 C   0  0  0  0  0  3  0  0  0  0  0  0
  183.1270  178.3140  139.4130 C   0  0  0  0  0  2  0  0  0  0  0  0
  180.2040  180.3420  140.1960 C   0  0  0  0  0  3  0  0  0  0  0  0
  186.9920  177.5210  144.7390 C   0  0  1  0  0  3  0  0  0  0  0  0
  188.6710  175.9620  143.5310 C   0  0  0  0  0  2  0  0  0  0  0  0
  185.1120  177.7470  140.8240 C   0  0  0  0  0  2  0  0  0  0  0  0
  188.0600  178.8910  140.5670 O   0  0  0  0  0  0  0  0  0  0  0  0
  191.7300  175.5160  143.8560 C   0  0  0  0  0  1  0  0  0  0  0  0
  187.1130  177.5630  142.2650 N   0  0  0  0  0  0  0  0  0  0  0  0
  189.7770  176.6970  142.8400 C   0  0  0  0  0  0  0  0  0  0  0  0
  185.2370  178.4830  146.8140 C   0  0  0  0  0  1  0  0  0  0  0  0
  184.8050  177.7490  145.7070 O   0  0  0  0  0  0  0  0  0  0  0  0
  188.9670  178.1190  146.1480 C   0  0  0  0  0  1  0  0  0  0  0  0
  188.0550  178.5760  145.0270 C   0  0  0  0  0  2  0  0  0  0  0  0
  179.7060  180.7800  138.8540 C   0  0  0  0  0  2  0  0  0  0  0  0
  179.8530  182.2540  138.7190 C   0  0  0  0  0  0  0  0  0  0  0  0
  178.9310  183.1030  139.3170 O   0  0  0  0  0  1  0  0  0  0  0  0
  180.7950  182.7320  138.0360 O   0  0  0  0  0  0  0  0  0  0  0  0
  1  8  1  0  0  0  0
  2 20  1  6  0  0  0
  2 23  1  0  0  0  0
  2  9  1  0  0  0  0
  3  4  1  0  0  0  0
  3 23  1  0  0  0  0
  4 24  2  0  0  0  0
  5 16  1  6  0  0  0
  5 14  1  0  0  0  0
  7 22  1  0  0  0  0
  9  6  1  6  0  0  0
  9 10  1  0  0  0  0
 10 18  1  0  0  0  0
 10 26  1  1  0  0  0
 11 19  1  1  0  0  0
 11 18  1  0  0  0  0
 12  7  1  0  0  0  0
 13 16  1  0  0  0  0
 13  1  1  0  0  0  0
 14  8  1  1  0  0  0
 14  6  1  0  0  0  0
 15  4  1  0  0  0  0
 15 12  2  0  0  0  0
 17  1  2  0  0  0  0
 18 28  1  6  0  0  0
 20  5  1  0  0  0  0
 21  3  2  0  0  0  0
 23 11  1  0  0  0  0
 24  7  1  0  0  0  0
 24 19  1  0  0  0  0
 26 25  1  0  0  0  0
 28 27  1  0  0  0  0
 29 17  1  0  0  0  0
 30 29  1  0  0  0  0
 30 31  1  0  0  0  0
 32 30  2  0  0  0  0
M  END
>  <MODEL>
5

>  <REMARK>
 VINA RESULT:      -5.5      2.889      8.824
  Name = 
  4 active torsions:
  status: ('A' for Active; 'I' for Inactive)
    1  A    between atoms: C_1  and  C_10
    2  A    between atoms: C_10  and  C_24
    3  A    between atoms: O_13  and  C_15
    4  A    between atoms: C_25  and  C_26
                            x       y       z     vdW  Elec       q    Type
                         _______ _______ _______ _____ _____    ______ ____

>  <TORSDO>
F 4

$$$$
=
 OpenBabel11052417013D

 32 36  0  0  1  0  0  0  0  0999 V2000
  184.1730  178.2680  138.2270 C   0  0  0  0  0  0  0  0  0  0  0  0
  187.3360  177.8160  142.0470 C   0  0  2  0  0  3  0  0  0  0  0  0
  187.4040  177.3210  144.5010 C   0  0  0  0  0  0  0  0  0  0  0  0
  188.2010  177.1870  145.7130 C   0  0  0  0  0  0  0  0  0  0  0  0
  185.7570  179.0390  140.4790 C   0  0  1  0  0  3  0  0  0  0  0  0
  187.5950  177.7610  139.5370 C   0  0  0  0  0  2  0  0  0  0  0  0
  189.9630  177.4260  147.0130 N   0  0  0  0  0  0  0  0  0  0  0  0
  185.6620  178.1010  138.2560 C   0  0  0  0  0  2  0  0  0  0  0  0
  188.3060  178.0180  140.8750 C   0  0  2  0  0  3  0  0  0  0  0  0
  189.5800  177.1690  141.0340 C   0  0  2  0  0  3  0  0  0  0  0  0
  189.4530  178.2680  143.3350 C   0  0  2  0  0  3  0  0  0  0  0  0
  189.0200  176.7540  147.7060 C   0  0  0  0  0  3  0  0  0  0  0  0
  183.4500  178.4280  139.5320 C   0  0  0  0  0  2  0  0  0  0  0  0
  186.1310  177.8860  139.6260 N   0  0  2  0  0  0  0  0  0  0  0  0
  187.8850  176.5800  146.9160 C   0  0  0  0  0  3  0  0  0  0  0  0
  184.2480  179.3520  140.4500 C   0  0  0  0  0  2  0  0  0  0  0  0
  183.5330  178.2480  137.0540 C   0  0  0  0  0  3  0  0  0  0  0  0
  190.2310  177.2970  142.4310 C   0  0  1  0  0  3  0  0  0  0  0  0
  190.1020  178.5020  144.7200 C   0  0  0  0  0  2  0  0  0  0  0  0
  186.1860  178.8170  141.9380 C   0  0  0  0  0  2  0  0  0  0  0  0
  186.2150  176.9020  144.4670 O   0  0  0  0  0  0  0  0  0  0  0  0
  191.2660  177.8190  147.5200 C   0  0  0  0  0  1  0  0  0  0  0  0
  188.0140  177.9240  143.3430 N   0  0  0  0  0  0  0  0  0  0  0  0
  189.4660  177.6760  145.7940 C   0  0  0  0  0  0  0  0  0  0  0  0
  190.7600  176.3480  139.3470 C   0  0  0  0  0  1  0  0  0  0  0  0
  190.5140  177.5250  140.0560 O   0  0  0  0  0  0  0  0  0  0  0  0
  191.7200  175.7340  143.6910 C   0  0  0  0  0  1  0  0  0  0  0  0
  190.3480  175.9180  143.0730 C   0  0  0  0  0  2  0  0  0  0  0  0
  182.0490  178.3970  136.9370 C   0  0  0  0  0  2  0  0  0  0  0  0
  181.4230  177.0630  136.7300 C   0  0  0  0  0  0  0  0  0  0  0  0
  182.2210  175.9310  136.6200 O   0  0  0  0  0  0  0  0  0  0  0  0
  180.1740  176.9640  136.6240 O   0  0  0  0  0  1  0  0  0  0  0  0
  1  8  1  0  0  0  0
  1 13  1  0  0  0  0
  2 20  1  1  0  0  0
  2 23  1  0  0  0  0
  3  4  1  0  0  0  0
  4 24  2  0  0  0  0
  4 15  1  0  0  0  0
  5 16  1  1  0  0  0
  5 20  1  0  0  0  0
  6 14  1  0  0  0  0
  7 22  1  0  0  0  0
  7 12  1  0  0  0  0
  9  6  1  6  0  0  0
  9 10  1  0  0  0  0
  9  2  1  0  0  0  0
 10 26  1  6  0  0  0
 10 18  1  0  0  0  0
 11 23  1  0  0  0  0
 11 19  1  1  0  0  0
 13 16  1  0  0  0  0
 14  8  1  6  0  0  0
 14  5  1  0  0  0  0
 15 12  2  0  0  0  0
 17  1  2  0  0  0  0
 18 28  1  1  0  0  0
 18 11  1  0  0  0  0
 19 24  1  0  0  0  0
 21  3  2  0  0  0  0
 23  3  1  0  0  0  0
 24  7  1  0  0  0  0
 25 26  1  0  0  0  0
 28 27  1  0  0  0  0
 29 17  1  0  0  0  0
 30 29  1  0  0  0  0
 31 30  2  0  0  0  0
 32 30  1  0  0  0  0
M  END
>  <MODEL>
6

>  <REMARK>
 VINA RESULT:      -5.5      2.879      9.805
  Name = 
  4 active torsions:
  status: ('A' for Active; 'I' for Inactive)
    1  A    between atoms: C_1  and  C_10
    2  A    between atoms: C_10  and  C_24
    3  A    between atoms: O_13  and  C_15
    4  A    between atoms: C_25  and  C_26
                            x       y       z     vdW  Elec       q    Type
                         _______ _______ _______ _____ _____    ______ ____

>  <TORSDO>
F 4

$$$$
=
 OpenBabel11052417013D

 32 36  0  0  1  0  0  0  0  0999 V2000
  190.7790  176.3520  137.9440 C   0  0  0  0  0  0  0  0  0  0  0  0
  185.8320  176.6420  137.4550 C   0  0  2  0  0  3  0  0  0  0  0  0
  183.8580  175.3600  136.6000 C   0  0  0  0  0  0  0  0  0  0  0  0
  182.4210  175.3160  136.3640 C   0  0  0  0  0  0  0  0  0  0  0  0
  188.2520  176.9460  136.7470 C   0  0  1  0  0  3  0  0  0  0  0  0
  187.5290  177.8450  138.8850 C   0  0  0  0  0  2  0  0  0  0  0  0
  180.3830  176.1180  136.1360 N   0  0  0  0  0  0  0  0  0  0  0  0
  189.7800  177.2610  138.5910 C   0  0  0  0  0  2  0  0  0  0  0  0
  186.1320  177.9210  138.2490 C   0  0  2  0  0  3  0  0  0  0  0  0
  185.0330  178.2240  139.2830 C   0  0  2  0  0  3  0  0  0  0  0  0
  183.6200  177.8190  137.1950 C   0  0  2  0  0  3  0  0  0  0  0  0
  180.3270  174.7810  135.9650 C   0  0  0  0  0  3  0  0  0  0  0  0
  190.2980  175.4000  136.8890 C   0  0  0  0  0  2  0  0  0  0  0  0
  188.4160  176.8780  138.2190 N   0  0  2  0  0  0  0  0  0  0  0  0
  181.6010  174.2320  136.1040 C   0  0  0  0  0  3  0  0  0  0  0  0
  189.2940  176.1090  135.9800 C   0  0  0  0  0  2  0  0  0  0  0  0
  192.0560  176.3960  138.3360 C   0  0  0  0  0  3  0  0  0  0  0  0
  183.6040  178.1570  138.6950 C   0  0  1  0  0  3  0  0  0  0  0  0
  182.2230  177.8190  136.5300 C   0  0  0  0  0  2  0  0  0  0  0  0
  186.8470  176.4930  136.3210 C   0  0  0  0  0  2  0  0  0  0  0  0
  184.5520  174.3100  136.5190 O   0  0  0  0  0  0  0  0  0  0  0  0
  179.2570  177.0310  136.0340 C   0  0  0  0  0  1  0  0  0  0  0  0
  184.4570  176.6240  136.9450 N   0  0  0  0  0  0  0  0  0  0  0  0
  181.6580  176.4400  136.3920 C   0  0  0  0  0  0  0  0  0  0  0  0
  185.1860  179.2840  141.2230 C   0  0  0  0  0  1  0  0  0  0  0  0
  185.2420  179.4870  139.8430 O   0  0  0  0  0  0  0  0  0  0  0  0
  181.6320  177.8450  140.1980 C   0  0  0  0  0  1  0  0  0  0  0  0
  182.7710  177.1490  139.4800 C   0  0  0  0  0  2  0  0  0  0  0  0
  193.1160  175.5150  137.7510 C   0  0  0  0  0  2  0  0  0  0  0  0
  193.6640  176.1380  136.5160 C   0  0  0  0  0  0  0  0  0  0  0  0
  193.4160  175.5600  135.2780 O   0  0  0  0  0  0  0  0  0  0  0  0
  194.3780  177.1700  136.5960 O   0  0  0  0  0  1  0  0  0  0  0  0
  1 17  2  0  0  0  0
  1  8  1  0  0  0  0
  2 20  1  6  0  0  0
  2  9  1  0  0  0  0
  3 23  1  0  0  0  0
  4 24  2  0  0  0  0
  4  3  1  0  0  0  0
  5 16  1  6  0  0  0
  5 14  1  0  0  0  0
  7 24  1  0  0  0  0
  9  6  1  1  0  0  0
  9 10  1  0  0  0  0
 10 26  1  6  0  0  0
 11 19  1  1  0  0  0
 11 18  1  0  0  0  0
 12 15  2  0  0  0  0
 12  7  1  0  0  0  0
 13  1  1  0  0  0  0
 14  8  1  6  0  0  0
 14  6  1  0  0  0  0
 15  4  1  0  0  0  0
 16 13  1  0  0  0  0
 18 10  1  0  0  0  0
 18 28  1  1  0  0  0
 20  5  1  0  0  0  0
 21  3  2  0  0  0  0
 22  7  1  0  0  0  0
 23 11  1  0  0  0  0
 23  2  1  0  0  0  0
 24 19  1  0  0  0  0
 26 25  1  0  0  0  0
 28 27  1  0  0  0  0
 29 17  1  0  0  0  0
 30 32  1  0  0  0  0
 30 29  1  0  0  0  0
 31 30  2  0  0  0  0
M  END
>  <MODEL>
7

>  <REMARK>
 VINA RESULT:      -5.4      4.522      5.656
  Name = 
  4 active torsions:
  status: ('A' for Active; 'I' for Inactive)
    1  A    between atoms: C_1  and  C_10
    2  A    between atoms: C_10  and  C_24
    3  A    between atoms: O_13  and  C_15
    4  A    between atoms: C_25  and  C_26
                            x       y       z     vdW  Elec       q    Type
                         _______ _______ _______ _____ _____    ______ ____

>  <TORSDO>
F 4

$$$$
=
 OpenBabel11052417013D

 32 36  0  0  1  0  0  0  0  0999 V2000
  190.8700  175.8740  137.5150 C   0  0  0  0  0  0  0  0  0  0  0  0
  185.9670  175.1020  137.1250 C   0  0  2  0  0  3  0  0  0  0  0  0
  184.2620  173.2690  137.0280 C   0  0  0  0  0  0  0  0  0  0  0  0
  182.8620  172.8900  136.8900 C   0  0  0  0  0  0  0  0  0  0  0  0
  188.3350  175.4330  136.2700 C   0  0  1  0  0  3  0  0  0  0  0  0
  187.3860  177.0840  137.7770 C   0  0  0  0  0  2  0  0  0  0  0  0
  180.7330  173.1560  136.3910 N   0  0  0  0  0  0  0  0  0  0  0  0
  189.7110  176.8040  137.7050 C   0  0  0  0  0  2  0  0  0  0  0  0
  186.0230  176.6320  137.2290 C   0  0  2  0  0  3  0  0  0  0  0  0
  184.8460  177.1940  138.0460 C   0  0  2  0  0  3  0  0  0  0  0  0
  183.6080  175.6510  136.4320 C   0  0  2  0  0  3  0  0  0  0  0  0
  180.9000  171.9000  136.8580 C   0  0  0  0  0  3  0  0  0  0  0  0
  190.5930  174.4800  137.0350 C   0  0  0  0  0  2  0  0  0  0  0  0
  188.4440  176.0780  137.6010 N   0  0  2  0  0  0  0  0  0  0  0  0
  182.2380  171.6920  137.1880 C   0  0  0  0  0  3  0  0  0  0  0  0
  189.5290  174.5180  135.9380 C   0  0  0  0  0  2  0  0  0  0  0  0
  192.1060  176.3000  137.7960 C   0  0  0  0  0  3  0  0  0  0  0  0
  183.4730  176.6340  137.6060 C   0  0  1  0  0  3  0  0  0  0  0  0
  182.2590  175.1200  135.8920 C   0  0  0  0  0  2  0  0  0  0  0  0
  187.0400  174.6150  136.1510 C   0  0  0  0  0  2  0  0  0  0  0  0
  185.1180  172.4280  137.4150 O   0  0  0  0  0  0  0  0  0  0  0  0
  179.4810  173.7230  135.9210 C   0  0  0  0  0  1  0  0  0  0  0  0
  184.6350  174.6290  136.7300 N   0  0  0  0  0  0  0  0  0  0  0  0
  181.9280  173.7610  136.4250 C   0  0  0  0  0  0  0  0  0  0  0  0
  184.5780  179.0340  139.2530 C   0  0  0  0  0  1  0  0  0  0  0  0
  184.8250  178.5890  137.9530 O   0  0  0  0  0  0  0  0  0  0  0  0
  181.5990  176.8170  139.2490 C   0  0  0  0  0  1  0  0  0  0  0  0
  182.7790  175.9800  138.7960 C   0  0  0  0  0  2  0  0  0  0  0  0
  193.3170  175.4330  137.6450 C   0  0  0  0  0  2  0  0  0  0  0  0
  194.0720  175.8290  136.4260 C   0  0  0  0  0  0  0  0  0  0  0  0
  195.4460  176.0180  136.4910 O   0  0  0  0  0  1  0  0  0  0  0  0
  193.4610  176.0240  135.3440 O   0  0  0  0  0  0  0  0  0  0  0  0
  1  8  1  0  0  0  0
  1 17  2  0  0  0  0
  2 20  1  6  0  0  0
  2  9  1  0  0  0  0
  3 21  2  0  0  0  0
  4  3  1  0  0  0  0
  4 15  1  0  0  0  0
  5 16  1  1  0  0  0
  5 14  1  0  0  0  0
  7 24  1  0  0  0  0
  7 12  1  0  0  0  0
  9  6  1  1  0  0  0
  9 10  1  0  0  0  0
 10 26  1  6  0  0  0
 11 19  1  1  0  0  0
 11 23  1  0  0  0  0
 11 18  1  0  0  0  0
 12 15  2  0  0  0  0
 13  1  1  0  0  0  0
 14  8  1  6  0  0  0
 14  6  1  0  0  0  0
 16 13  1  0  0  0  0
 18 10  1  0  0  0  0
 18 28  1  1  0  0  0
 19 24  1  0  0  0  0
 20  5  1  0  0  0  0
 22  7  1  0  0  0  0
 23  3  1  0  0  0  0
 23  2  1  0  0  0  0
 24  4  2  0  0  0  0
 26 25  1  0  0  0  0
 28 27  1  0  0  0  0
 29 17  1  0  0  0  0
 30 31  1  0  0  0  0
 30 29  1  0  0  0  0
 32 30  2  0  0  0  0
M  END
>  <MODEL>
8

>  <REMARK>
 VINA RESULT:      -5.3      5.343      6.662
  Name = 
  4 active torsions:
  status: ('A' for Active; 'I' for Inactive)
    1  A    between atoms: C_1  and  C_10
    2  A    between atoms: C_10  and  C_24
    3  A    between atoms: O_13  and  C_15
    4  A    between atoms: C_25  and  C_26
                            x       y       z     vdW  Elec       q    Type
                         _______ _______ _______ _____ _____    ______ ____

>  <TORSDO>
F 4

$$$$
=
 OpenBabel11052417013D

 32 36  0  0  1  0  0  0  0  0999 V2000
  192.3000  175.2880  137.5160 C   0  0  0  0  0  0  0  0  0  0  0  0
  187.3610  175.3020  136.8830 C   0  0  2  0  0  3  0  0  0  0  0  0
  185.3870  173.7650  136.7470 C   0  0  0  0  0  0  0  0  0  0  0  0
  183.9530  173.6110  136.5460 C   0  0  0  0  0  0  0  0  0  0  0  0
  189.7900  175.2150  136.1490 C   0  0  1  0  0  3  0  0  0  0  0  0
  189.0500  177.0530  137.5540 C   0  0  0  0  0  2  0  0  0  0  0  0
  181.9220  174.1970  135.9250 N   0  0  0  0  0  0  0  0  0  0  0  0
  191.3000  176.3990  137.6160 C   0  0  0  0  0  2  0  0  0  0  0  0
  187.6610  176.8050  136.9460 C   0  0  2  0  0  3  0  0  0  0  0  0
  186.5520  177.5800  137.6810 C   0  0  2  0  0  3  0  0  0  0  0  0
  185.1590  176.1970  136.0480 C   0  0  2  0  0  3  0  0  0  0  0  0
  181.8600  172.9500  136.4360 C   0  0  0  0  0  3  0  0  0  0  0  0
  191.8240  173.9400  137.0620 C   0  0  0  0  0  2  0  0  0  0  0  0
  189.9380  175.8830  137.4640 N   0  0  2  0  0  0  0  0  0  0  0  0
  183.1290  172.5410  136.8440 C   0  0  0  0  0  3  0  0  0  0  0  0
  190.8340  174.1080  135.9080 C   0  0  0  0  0  2  0  0  0  0  0  0
  193.5730  175.5200  137.8510 C   0  0  0  0  0  3  0  0  0  0  0  0
  185.1290  177.2320  137.1850 C   0  0  1  0  0  3  0  0  0  0  0  0
  183.7700  175.8700  135.4520 C   0  0  0  0  0  2  0  0  0  0  0  0
  188.3870  174.6120  135.9840 C   0  0  0  0  0  2  0  0  0  0  0  0
  186.0750  172.8120  137.2050 O   0  0  0  0  0  0  0  0  0  0  0  0
  180.8040  174.9410  135.3710 C   0  0  0  0  0  1  0  0  0  0  0  0
  185.9910  175.0350  136.4310 N   0  0  0  0  0  0  0  0  0  0  0  0
  183.1970  174.6030  136.0050 C   0  0  0  0  0  0  0  0  0  0  0  0
  187.1810  179.1280  136.2260 C   0  0  0  0  0  1  0  0  0  0  0  0
  186.7630  178.9550  137.5470 O   0  0  0  0  0  0  0  0  0  0  0  0
  183.1940  177.7480  138.6790 C   0  0  0  0  0  1  0  0  0  0  0  0
  184.2810  176.7430  138.3540 C   0  0  0  0  0  2  0  0  0  0  0  0
  194.6330  174.4650  137.7910 C   0  0  0  0  0  2  0  0  0  0  0  0
  195.4530  174.5030  139.0310 C   0  0  0  0  0  0  0  0  0  0  0  0
  195.4300  175.6280  139.8450 O   0  0  0  0  0  1  0  0  0  0  0  0
  196.1920  173.5280  139.3270 O   0  0  0  0  0  0  0  0  0  0  0  0
  1  8  1  0  0  0  0
  1 17  2  0  0  0  0
  2 20  1  6  0  0  0
  2  9  1  0  0  0  0
  3 21  2  0  0  0  0
  4  3  1  0  0  0  0
  4 15  1  0  0  0  0
  5 16  1  1  0  0  0
  5 14  1  0  0  0  0
  7 24  1  0  0  0  0
  7 12  1  0  0  0  0
  9  6  1  1  0  0  0
  9 10  1  0  0  0  0
 10 26  1  6  0  0  0
 11 19  1  1  0  0  0
 11 23  1  0  0  0  0
 11 18  1  0  0  0  0
 12 15  2  0  0  0  0
 13  1  1  0  0  0  0
 14  6  1  6  0  0  0
 14  8  1  0  0  0  0
 16 13  1  0  0  0  0
 18 10  1  0  0  0  0
 18 28  1  1  0  0  0
 19 24  1  0  0  0  0
 20  5  1  0  0  0  0
 22  7  1  0  0  0  0
 23  3  1  0  0  0  0
 23  2  1  0  0  0  0
 24  4  2  0  0  0  0
 25 26  1  0  0  0  0
 28 27  1  0  0  0  0
 29 17  1  0  0  0  0
 29 30  1  0  0  0  0
 30 32  2  0  0  0  0
 30 31  1  0  0  0  0
M  END
>  <MODEL>
9

>  <REMARK>
 VINA RESULT:      -5.0      5.524      6.915
  Name = 
  4 active torsions:
  status: ('A' for Active; 'I' for Inactive)
    1  A    between atoms: C_1  and  C_10
    2  A    between atoms: C_10  and  C_24
    3  A    between atoms: O_13  and  C_15
    4  A    between atoms: C_25  and  C_26
                            x       y       z     vdW  Elec       q    Type
                         _______ _______ _______ _____ _____    ______ ____

>  <TORSDO>
F 4

$$$$
