=
 OpenBabel11052416363D

 43 47  0  0  1  0  0  0  0  0999 V2000
  191.4290  176.4620  146.9680 C   0  0  0  0  0  0  0  0  0  0  0  0
  187.4930  177.9280  144.1320 C   0  0  0  0  0  0  0  0  0  0  0  0
  189.2470  177.5540  142.4850 C   0  0  0  0  0  3  0  0  0  0  0  0
  189.2490  177.1910  146.2030 C   0  0  0  0  0  0  0  0  0  0  0  0
  191.8910  176.4490  145.6500 C   0  0  0  0  0  3  0  0  0  0  0  0
  192.3010  176.0960  148.0310 N   0  0  0  0  0  1  0  0  0  0  0  0
  189.7080  177.1820  144.8640 C   0  0  0  0  0  0  0  0  0  0  0  0
  190.1100  176.8310  147.2440 C   0  0  0  0  0  3  0  0  0  0  0  0
  191.0370  176.8070  144.6030 C   0  0  0  0  0  3  0  0  0  0  0  0
  188.3690  177.9180  141.4640 C   0  0  0  0  0  0  0  0  0  0  0  0
  188.8260  177.5510  143.8240 C   0  0  0  0  0  0  0  0  0  0  0  0
  187.0660  177.9240  145.4680 C   0  0  0  0  0  3  0  0  0  0  0  0
  186.6090  178.3100  143.1040 C   0  0  0  0  0  0  0  0  0  0  0  0
  187.0590  178.2940  141.7780 C   0  0  0  0  0  3  0  0  0  0  0  0
  187.9360  177.5590  146.4940 C   0  0  0  0  0  3  0  0  0  0  0  0
  188.8580  177.9430  140.0520 C   0  0  1  0  0  3  0  0  0  0  0  0
  190.2040  177.2490  139.9290 C   0  0  0  0  0  1  0  0  0  0  0  0
  187.8840  177.2950  139.1790 N   0  0  0  0  0  2  0  0  0  0  0  0
  188.4990  179.2090  137.9840 O   0  0  0  0  0  1  0  0  0  0  0  0
  187.6290  178.1130  137.9860 C   0  0  0  0  0  0  0  0  0  0  0  0
  186.3080  178.5720  138.0030 O   0  0  0  0  0  1  0  0  0  0  0  0
  187.8460  177.3220  136.7600 N   0  0  0  0  0  0  0  0  0  0  0  0
  185.7890  175.9870  137.2040 N   0  0  0  0  0  2  0  0  0  0  0  0
  186.9790  176.2180  136.4350 C   0  0  0  0  0  0  0  0  0  0  0  0
  187.2570  175.4690  135.4570 O   0  0  0  0  0  0  0  0  0  0  0  0
  184.8990  174.8670  137.0910 C   0  0  0  0  0  0  0  0  0  0  0  0
  184.5130  172.4900  137.3990 C   0  0  0  0  0  3  0  0  0  0  0  0
  182.7940  173.8700  136.3990 C   0  0  0  0  0  3  0  0  0  0  0  0
  183.2390  172.6200  136.8390 C   0  0  0  0  0  3  0  0  0  0  0  0
  183.6220  174.9890  136.5240 C   0  0  0  0  0  3  0  0  0  0  0  0
  185.3410  173.6100  137.5190 C   0  0  0  0  0  3  0  0  0  0  0  0
  188.9580  177.6260  135.8550 C   0  0  0  0  0  2  0  0  0  0  0  0
  190.7390  176.0960  135.0070 C   0  0  0  0  0  1  0  0  0  0  0  0
  190.1910  176.8140  136.2240 C   0  0  0  0  0  2  0  0  0  0  0  0
  185.2520  178.6680  143.4210 N   0  0  0  0  0  2  0  0  0  0  0  0
  182.8990  177.7440  140.4870 C   0  0  0  0  0  2  0  0  0  0  0  0
  181.8270  178.7640  140.8450 C   0  0  2  0  0  3  0  0  0  0  0  0
  182.9080  178.8740  143.1090 C   0  0  0  0  0  3  0  0  0  0  0  0
  184.2220  178.1550  141.1260 C   0  0  0  0  0  2  0  0  0  0  0  0
  184.0900  178.5180  142.5920 C   0  0  0  0  0  0  0  0  0  0  0  0
  181.6100  178.7560  142.3580 C   0  0  0  0  0  2  0  0  0  0  0  0
  179.6010  177.9540  140.7140 O   0  0  0  0  0  0  0  0  0  0  0  0
  180.5470  178.4590  140.1280 C   0  0  0  0  0  3  0  0  0  0  0  0
  1  8  1  0  0  0  0
  1  6  1  0  0  0  0
  2 12  1  0  0  0  0
  3 11  2  0  0  0  0
  4 15  1  0  0  0  0
  4  8  2  0  0  0  0
  5  1  2  0  0  0  0
  7  4  1  0  0  0  0
  9  7  2  0  0  0  0
  9  5  1  0  0  0  0
 10 14  2  0  0  0  0
 10  3  1  0  0  0  0
 11  2  1  0  0  0  0
 11  7  1  0  0  0  0
 12 15  2  0  0  0  0
 13 35  1  0  0  0  0
 13  2  2  0  0  0  0
 14 13  1  0  0  0  0
 16 17  1  1  0  0  0
 16 10  1  0  0  0  0
 18 16  1  0  0  0  0
 19 20  1  0  0  0  0
 20 21  1  0  0  0  0
 20 18  1  0  0  0  0
 22 20  1  0  0  0  0
 24 22  1  0  0  0  0
 24 23  1  0  0  0  0
 25 24  2  0  0  0  0
 26 23  1  0  0  0  0
 26 31  1  0  0  0  0
 27 31  2  0  0  0  0
 28 30  1  0  0  0  0
 28 29  2  0  0  0  0
 29 27  1  0  0  0  0
 30 26  2  0  0  0  0
 32 34  1  0  0  0  0
 32 22  1  0  0  0  0
 33 34  1  0  0  0  0
 36 37  1  0  0  0  0
 36 39  1  0  0  0  0
 37 43  1  6  0  0  0
 37 41  1  0  0  0  0
 39 40  1  0  0  0  0
 40 38  2  0  0  0  0
 40 35  1  0  0  0  0
 41 38  1  0  0  0  0
 43 42  2  0  0  0  0
M  END
>  <MODEL>
1

>  <REMARK>
 VINA RESULT:      -9.9      0.000      0.000
  Name = 
  10 active torsions:
  status: ('A' for Active; 'I' for Inactive)
    1  A    between atoms: N_1  and  C_34
    2  A    between atoms: N_1  and  C_35
    3  A    between atoms: C_2  and  N_6
    4  A    between atoms: C_2  and  C_27
    5  A    between atoms: N_4  and  C_12
    6  A    between atoms: N_4  and  C_15
    7  A    between atoms: N_6  and  C_12
    8  A    between atoms: C_11  and  N_14
    9  A    between atoms: C_15  and  C_42
   10  A    between atoms: C_19  and  C_37
                            x       y       z     vdW  Elec       q    Type
                         _______ _______ _______ _____ _____    ______ ____

>  <TORSDO>
F 10

$$$$
=
 OpenBabel11052416363D

 43 47  0  0  1  0  0  0  0  0999 V2000
  191.3600  176.4990  146.9250 C   0  0  0  0  0  0  0  0  0  0  0  0
  187.1360  177.8610  144.4790 C   0  0  0  0  0  0  0  0  0  0  0  0
  188.7840  177.7260  142.6920 C   0  0  0  0  0  3  0  0  0  0  0  0
  189.0850  177.1170  146.3660 C   0  0  0  0  0  0  0  0  0  0  0  0
  191.7230  176.6080  145.5800 C   0  0  0  0  0  3  0  0  0  0  0  0
  192.3300  176.1280  147.8960 N   0  0  0  0  0  1  0  0  0  0  0  0
  189.4440  177.2310  145.0020 C   0  0  0  0  0  0  0  0  0  0  0  0
  190.0430  176.7530  147.3170 C   0  0  0  0  0  3  0  0  0  0  0  0
  190.7720  176.9720  144.6230 C   0  0  0  0  0  3  0  0  0  0  0  0
  187.8110  178.0930  141.7630 C   0  0  0  0  0  0  0  0  0  0  0  0
  188.4650  177.6040  144.0540 C   0  0  0  0  0  0  0  0  0  0  0  0
  186.8090  177.7370  145.8370 C   0  0  0  0  0  3  0  0  0  0  0  0
  186.1540  178.2460  143.5450 C   0  0  0  0  0  0  0  0  0  0  0  0
  186.5050  178.3520  142.1930 C   0  0  0  0  0  3  0  0  0  0  0  0
  187.7750  177.3690  146.7730 C   0  0  0  0  0  3  0  0  0  0  0  0
  188.1920  178.2470  140.3260 C   0  0  1  0  0  3  0  0  0  0  0  0
  189.6360  177.8370  140.0980 C   0  0  0  0  0  1  0  0  0  0  0  0
  187.3080  177.4400  139.4900 N   0  0  0  0  0  2  0  0  0  0  0  0
  187.9680  178.9820  137.8600 O   0  0  0  0  0  1  0  0  0  0  0  0
  186.9020  178.1860  138.2920 C   0  0  0  0  0  0  0  0  0  0  0  0
  185.8070  179.0030  138.5950 O   0  0  0  0  0  1  0  0  0  0  0  0
  186.5220  177.2590  137.2090 N   0  0  0  0  0  0  0  0  0  0  0  0
  184.1530  177.2520  137.9850 N   0  0  0  0  0  2  0  0  0  0  0  0
  185.1810  176.7370  137.1240 C   0  0  0  0  0  0  0  0  0  0  0  0
  184.9090  175.8430  136.2760 O   0  0  0  0  0  0  0  0  0  0  0  0
  182.8140  176.7540  138.1120 C   0  0  0  0  0  0  0  0  0  0  0  0
  180.4810  176.8990  137.4570 C   0  0  0  0  0  3  0  0  0  0  0  0
  181.1620  175.2990  139.1410 C   0  0  0  0  0  3  0  0  0  0  0  0
  180.1600  175.8790  138.3590 C   0  0  0  0  0  3  0  0  0  0  0  0
  182.4850  175.7370  139.0190 C   0  0  0  0  0  3  0  0  0  0  0  0
  181.8020  177.3370  137.3390 C   0  0  0  0  0  3  0  0  0  0  0  0
  187.5020  176.8300  136.2080 C   0  0  0  0  0  2  0  0  0  0  0  0
  189.7980  175.9640  136.6600 C   0  0  0  0  0  1  0  0  0  0  0  0
  188.3170  175.6510  136.7200 C   0  0  0  0  0  2  0  0  0  0  0  0
  184.8030  178.4820  143.9790 N   0  0  0  0  0  2  0  0  0  0  0  0
  181.2090  179.3180  142.8000 C   0  0  0  0  0  2  0  0  0  0  0  0
  181.3060  178.5310  141.4990 C   0  0  2  0  0  3  0  0  0  0  0  0
  183.7950  178.5870  141.8330 C   0  0  0  0  0  3  0  0  0  0  0  0
  182.2640  178.8080  143.7780 C   0  0  0  0  0  2  0  0  0  0  0  0
  183.6420  178.6840  143.1600 C   0  0  0  0  0  0  0  0  0  0  0  0
  182.6690  178.7890  140.8570 C   0  0  0  0  0  2  0  0  0  0  0  0
  180.0240  180.0850  140.2470 O   0  0  0  0  0  0  0  0  0  0  0  0
  180.2020  178.9180  140.5650 C   0  0  0  0  0  3  0  0  0  0  0  0
  1  8  1  0  0  0  0
  1  6  1  0  0  0  0
  2 12  1  0  0  0  0
  3 11  2  0  0  0  0
  4 15  1  0  0  0  0
  4  8  2  0  0  0  0
  5  1  2  0  0  0  0
  7  4  1  0  0  0  0
  9  7  2  0  0  0  0
  9  5  1  0  0  0  0
 10 14  2  0  0  0  0
 10  3  1  0  0  0  0
 11  2  1  0  0  0  0
 11  7  1  0  0  0  0
 12 15  2  0  0  0  0
 13 35  1  0  0  0  0
 13  2  2  0  0  0  0
 14 13  1  0  0  0  0
 16 17  1  1  0  0  0
 16 10  1  0  0  0  0
 18 16  1  0  0  0  0
 19 20  1  0  0  0  0
 20 21  1  0  0  0  0
 20 18  1  0  0  0  0
 22 20  1  0  0  0  0
 23 26  1  0  0  0  0
 24 22  1  0  0  0  0
 24 23  1  0  0  0  0
 25 24  2  0  0  0  0
 26 30  1  0  0  0  0
 27 29  2  0  0  0  0
 29 28  1  0  0  0  0
 30 28  2  0  0  0  0
 31 27  1  0  0  0  0
 31 26  2  0  0  0  0
 32 34  1  0  0  0  0
 32 22  1  0  0  0  0
 33 34  1  0  0  0  0
 36 39  1  0  0  0  0
 37 43  1  6  0  0  0
 37 36  1  0  0  0  0
 38 40  2  0  0  0  0
 40 39  1  0  0  0  0
 40 35  1  0  0  0  0
 41 37  1  0  0  0  0
 41 38  1  0  0  0  0
 42 43  2  0  0  0  0
M  END
>  <MODEL>
2

>  <REMARK>
 VINA RESULT:      -9.8      1.508      2.069
  Name = 
  10 active torsions:
  status: ('A' for Active; 'I' for Inactive)
    1  A    between atoms: N_1  and  C_34
    2  A    between atoms: N_1  and  C_35
    3  A    between atoms: C_2  and  N_6
    4  A    between atoms: C_2  and  C_27
    5  A    between atoms: N_4  and  C_12
    6  A    between atoms: N_4  and  C_15
    7  A    between atoms: N_6  and  C_12
    8  A    between atoms: C_11  and  N_14
    9  A    between atoms: C_15  and  C_42
   10  A    between atoms: C_19  and  C_37
                            x       y       z     vdW  Elec       q    Type
                         _______ _______ _______ _____ _____    ______ ____

>  <TORSDO>
F 10

$$$$
=
 OpenBabel11052416363D

 43 47  0  0  1  0  0  0  0  0999 V2000
  187.9150  177.6750  147.3170 C   0  0  0  0  0  0  0  0  0  0  0  0
  185.5070  178.5230  142.9400 C   0  0  0  0  0  0  0  0  0  0  0  0
  187.8000  178.1100  142.2330 C   0  0  0  0  0  3  0  0  0  0  0  0
  186.2430  178.1500  145.6290 C   0  0  0  0  0  0  0  0  0  0  0  0
  188.8900  177.5570  146.3240 C   0  0  0  0  0  3  0  0  0  0  0  0
  188.2660  177.4940  148.6830 N   0  0  0  0  0  1  0  0  0  0  0  0
  187.2240  178.0320  144.6150 C   0  0  0  0  0  0  0  0  0  0  0  0
  186.5940  177.9710  146.9710 C   0  0  0  0  0  3  0  0  0  0  0  0
  188.5480  177.7340  144.9800 C   0  0  0  0  0  3  0  0  0  0  0  0
  187.4260  178.2940  140.9020 C   0  0  0  0  0  0  0  0  0  0  0  0
  186.8550  178.2180  143.2650 C   0  0  0  0  0  0  0  0  0  0  0  0
  184.5570  178.6300  143.9650 C   0  0  0  0  0  3  0  0  0  0  0  0
  185.1290  178.7240  141.5970 C   0  0  0  0  0  0  0  0  0  0  0  0
  186.0970  178.6010  140.5920 C   0  0  0  0  0  3  0  0  0  0  0  0
  184.9220  178.4450  145.2980 C   0  0  0  0  0  3  0  0  0  0  0  0
  188.4640  178.2040  139.8300 C   0  0  1  0  0  3  0  0  0  0  0  0
  189.7310  177.5500  140.3530 C   0  0  0  0  0  1  0  0  0  0  0  0
  187.9420  177.4440  138.6980 N   0  0  0  0  0  2  0  0  0  0  0  0
  189.0780  179.1190  137.5260 O   0  0  0  0  0  1  0  0  0  0  0  0
  187.9860  178.2460  137.4690 C   0  0  0  0  0  0  0  0  0  0  0  0
  186.8060  178.9890  137.3510 O   0  0  0  0  0  1  0  0  0  0  0  0
  188.1240  177.3760  136.2870 N   0  0  0  0  0  0  0  0  0  0  0  0
  185.9660  176.2430  136.8130 N   0  0  0  0  0  2  0  0  0  0  0  0
  187.1640  176.3320  136.0260 C   0  0  0  0  0  0  0  0  0  0  0  0
  187.3700  175.5110  135.0890 O   0  0  0  0  0  0  0  0  0  0  0  0
  184.9850  175.1980  136.7650 C   0  0  0  0  0  0  0  0  0  0  0  0
  182.7530  174.4830  136.1350 C   0  0  0  0  0  3  0  0  0  0  0  0
  184.2260  172.9520  137.2950 C   0  0  0  0  0  3  0  0  0  0  0  0
  182.9930  173.2240  136.6950 C   0  0  0  0  0  3  0  0  0  0  0  0
  185.2180  173.9360  137.3310 C   0  0  0  0  0  3  0  0  0  0  0  0
  183.7440  175.4660  136.1750 C   0  0  0  0  0  3  0  0  0  0  0  0
  189.2490  177.5350  135.3610 C   0  0  0  0  0  2  0  0  0  0  0  0
  190.9530  176.3770  136.7700 C   0  0  0  0  0  1  0  0  0  0  0  0
  190.1980  176.3500  135.4560 C   0  0  0  0  0  2  0  0  0  0  0  0
  183.7570  179.0090  141.2730 N   0  0  0  0  0  2  0  0  0  0  0  0
  182.0650  176.0310  139.4650 C   0  0  0  0  0  2  0  0  0  0  0  0
  180.7020  176.7000  139.3460 C   0  0  2  0  0  3  0  0  0  0  0  0
  181.5010  178.2880  141.1200 C   0  0  0  0  0  3  0  0  0  0  0  0
  183.1350  177.0990  139.6750 C   0  0  0  0  0  2  0  0  0  0  0  0
  182.7740  178.1030  140.7510 C   0  0  0  0  0  0  0  0  0  0  0  0
  180.3730  177.4050  140.6610 C   0  0  0  0  0  2  0  0  0  0  0  0
  179.7000  175.0410  137.9780 O   0  0  0  0  0  0  0  0  0  0  0  0
  179.6470  175.6910  139.0110 C   0  0  0  0  0  3  0  0  0  0  0  0
  1  6  1  0  0  0  0
  2 11  1  0  0  0  0
  2 12  1  0  0  0  0
  3 11  2  0  0  0  0
  4  8  2  0  0  0  0
  5  1  2  0  0  0  0
  7  9  2  0  0  0  0
  7  4  1  0  0  0  0
  8  1  1  0  0  0  0
  9  5  1  0  0  0  0
 10  3  1  0  0  0  0
 11  7  1  0  0  0  0
 12 15  2  0  0  0  0
 13  2  2  0  0  0  0
 14 10  2  0  0  0  0
 14 13  1  0  0  0  0
 15  4  1  0  0  0  0
 16 17  1  1  0  0  0
 16 10  1  0  0  0  0
 18 16  1  0  0  0  0
 20 19  1  0  0  0  0
 20 18  1  0  0  0  0
 21 20  1  0  0  0  0
 22 20  1  0  0  0  0
 24 22  1  0  0  0  0
 24 23  1  0  0  0  0
 25 24  2  0  0  0  0
 26 23  1  0  0  0  0
 26 30  1  0  0  0  0
 27 31  1  0  0  0  0
 27 29  2  0  0  0  0
 28 30  2  0  0  0  0
 29 28  1  0  0  0  0
 31 26  2  0  0  0  0
 32 34  1  0  0  0  0
 32 22  1  0  0  0  0
 34 33  1  0  0  0  0
 35 13  1  0  0  0  0
 36 39  1  0  0  0  0
 37 43  1  1  0  0  0
 37 36  1  0  0  0  0
 37 41  1  0  0  0  0
 39 40  1  0  0  0  0
 40 38  2  0  0  0  0
 40 35  1  0  0  0  0
 41 38  1  0  0  0  0
 42 43  2  0  0  0  0
M  END
>  <MODEL>
3

>  <REMARK>
 VINA RESULT:      -9.7      1.510      2.281
  Name = 
  10 active torsions:
  status: ('A' for Active; 'I' for Inactive)
    1  A    between atoms: N_1  and  C_34
    2  A    between atoms: N_1  and  C_35
    3  A    between atoms: C_2  and  N_6
    4  A    between atoms: C_2  and  C_27
    5  A    between atoms: N_4  and  C_12
    6  A    between atoms: N_4  and  C_15
    7  A    between atoms: N_6  and  C_12
    8  A    between atoms: C_11  and  N_14
    9  A    between atoms: C_15  and  C_42
   10  A    between atoms: C_19  and  C_37
                            x       y       z     vdW  Elec       q    Type
                         _______ _______ _______ _____ _____    ______ ____

>  <TORSDO>
F 10

$$$$
=
 OpenBabel11052416363D

 43 47  0  0  1  0  0  0  0  0999 V2000
  191.3140  176.4430  146.9640 C   0  0  0  0  0  0  0  0  0  0  0  0
  187.2700  177.9330  144.2990 C   0  0  0  0  0  0  0  0  0  0  0  0
  188.9870  177.6750  142.5920 C   0  0  0  0  0  3  0  0  0  0  0  0
  189.0980  177.1500  146.2890 C   0  0  0  0  0  0  0  0  0  0  0  0
  191.7410  176.4990  145.6350 C   0  0  0  0  0  3  0  0  0  0  0  0
  192.2230  176.0530  147.9860 N   0  0  0  0  0  1  0  0  0  0  0  0
  189.5210  177.2120  144.9390 C   0  0  0  0  0  0  0  0  0  0  0  0
  189.9960  176.7670  147.2900 C   0  0  0  0  0  3  0  0  0  0  0  0
  190.8510  176.8810  144.6270 C   0  0  0  0  0  3  0  0  0  0  0  0
  188.0730  178.0620  141.6110 C   0  0  0  0  0  0  0  0  0  0  0  0
  188.6030  177.6030  143.9400 C   0  0  0  0  0  0  0  0  0  0  0  0
  186.8790  177.8610  145.6440 C   0  0  0  0  0  3  0  0  0  0  0  0
  186.3500  178.3380  143.3120 C   0  0  0  0  0  0  0  0  0  0  0  0
  186.7640  178.3910  141.9760 C   0  0  0  0  0  3  0  0  0  0  0  0
  187.7850  177.4730  146.6300 C   0  0  0  0  0  3  0  0  0  0  0  0
  188.5240  178.1600  140.1890 C   0  0  1  0  0  3  0  0  0  0  0  0
  189.9920  177.7960  140.0560 C   0  0  0  0  0  1  0  0  0  0  0  0
  187.7150  177.2780  139.3520 N   0  0  0  0  0  2  0  0  0  0  0  0
  188.1670  178.9170  137.7450 O   0  0  0  0  0  1  0  0  0  0  0  0
  187.2030  178.0010  138.1800 C   0  0  0  0  0  0  0  0  0  0  0  0
  186.0340  178.6870  138.5240 O   0  0  0  0  0  1  0  0  0  0  0  0
  186.9010  177.0610  137.0840 N   0  0  0  0  0  0  0  0  0  0  0  0
  189.2140  176.1350  137.1820 N   0  0  0  0  0  2  0  0  0  0  0  0
  187.9300  176.2090  136.5420 C   0  0  0  0  0  0  0  0  0  0  0  0
  187.6910  175.5110  135.5180 O   0  0  0  0  0  0  0  0  0  0  0  0
  190.3730  175.4410  136.6990 C   0  0  0  0  0  0  0  0  0  0  0  0
  192.3580  175.4500  135.3020 C   0  0  0  0  0  3  0  0  0  0  0  0
  191.7630  173.4550  136.5360 C   0  0  0  0  0  3  0  0  0  0  0  0
  192.6230  174.1260  135.6620 C   0  0  0  0  0  3  0  0  0  0  0  0
  190.6410  174.1110  137.0510 C   0  0  0  0  0  3  0  0  0  0  0  0
  191.2340  176.1030  135.8150 C   0  0  0  0  0  3  0  0  0  0  0  0
  185.5580  176.9860  136.5050 C   0  0  0  0  0  2  0  0  0  0  0  0
  183.6020  176.2020  137.8430 C   0  0  0  0  0  1  0  0  0  0  0  0
  184.8090  175.7720  137.0340 C   0  0  0  0  0  2  0  0  0  0  0  0
  184.9930  178.6480  143.6800 N   0  0  0  0  0  2  0  0  0  0  0  0
  182.5860  177.8870  140.7430 C   0  0  0  0  0  2  0  0  0  0  0  0
  181.5610  178.9450  141.1280 C   0  0  2  0  0  3  0  0  0  0  0  0
  182.6590  178.9610  143.3880 C   0  0  0  0  0  3  0  0  0  0  0  0
  183.9300  178.2280  141.3820 C   0  0  0  0  0  2  0  0  0  0  0  0
  183.8220  178.5650  142.8560 C   0  0  0  0  0  0  0  0  0  0  0  0
  181.3530  178.9140  142.6420 C   0  0  0  0  0  2  0  0  0  0  0  0
  179.2920  178.2670  141.0040 O   0  0  0  0  0  0  0  0  0  0  0  0
  180.2660  178.7100  140.4140 C   0  0  0  0  0  3  0  0  0  0  0  0
  1  8  1  0  0  0  0
  1  6  1  0  0  0  0
  2 12  1  0  0  0  0
  3 11  2  0  0  0  0
  4 15  1  0  0  0  0
  4  8  2  0  0  0  0
  5  1  2  0  0  0  0
  7  4  1  0  0  0  0
  9  7  2  0  0  0  0
  9  5  1  0  0  0  0
 10 14  2  0  0  0  0
 10  3  1  0  0  0  0
 11  2  1  0  0  0  0
 11  7  1  0  0  0  0
 12 15  2  0  0  0  0
 13 35  1  0  0  0  0
 13  2  2  0  0  0  0
 14 13  1  0  0  0  0
 16 17  1  1  0  0  0
 16 10  1  0  0  0  0
 18 16  1  0  0  0  0
 19 20  1  0  0  0  0
 20 21  1  0  0  0  0
 20 18  1  0  0  0  0
 22 20  1  0  0  0  0
 24 22  1  0  0  0  0
 24 23  1  0  0  0  0
 25 24  2  0  0  0  0
 26 30  1  0  0  0  0
 26 23  1  0  0  0  0
 27 29  2  0  0  0  0
 27 31  1  0  0  0  0
 28 30  2  0  0  0  0
 29 28  1  0  0  0  0
 31 26  2  0  0  0  0
 32 34  1  0  0  0  0
 32 22  1  0  0  0  0
 34 33  1  0  0  0  0
 36 37  1  0  0  0  0
 36 39  1  0  0  0  0
 37 43  1  6  0  0  0
 37 41  1  0  0  0  0
 39 40  1  0  0  0  0
 40 38  2  0  0  0  0
 40 35  1  0  0  0  0
 41 38  1  0  0  0  0
 43 42  2  0  0  0  0
M  END
>  <MODEL>
4

>  <REMARK>
 VINA RESULT:      -9.7      1.126      3.381
  Name = 
  10 active torsions:
  status: ('A' for Active; 'I' for Inactive)
    1  A    between atoms: N_1  and  C_34
    2  A    between atoms: N_1  and  C_35
    3  A    between atoms: C_2  and  N_6
    4  A    between atoms: C_2  and  C_27
    5  A    between atoms: N_4  and  C_12
    6  A    between atoms: N_4  and  C_15
    7  A    between atoms: N_6  and  C_12
    8  A    between atoms: C_11  and  N_14
    9  A    between atoms: C_15  and  C_42
   10  A    between atoms: C_19  and  C_37
                            x       y       z     vdW  Elec       q    Type
                         _______ _______ _______ _____ _____    ______ ____

>  <TORSDO>
F 10

$$$$
=
 OpenBabel11052416363D

 43 47  0  0  1  0  0  0  0  0999 V2000
  181.2180  179.0270  141.8470 C   0  0  0  0  0  0  0  0  0  0  0  0
  185.8430  178.3540  143.8030 C   0  0  0  0  0  0  0  0  0  0  0  0
  186.2580  178.3560  141.4040 C   0  0  0  0  0  3  0  0  0  0  0  0
  183.0940  178.7420  143.3530 C   0  0  0  0  0  0  0  0  0  0  0  0
  182.0790  178.9350  140.7500 C   0  0  0  0  0  3  0  0  0  0  0  0
  179.8230  179.2190  141.6410 N   0  0  0  0  0  1  0  0  0  0  0  0
  183.9750  178.6470  142.2480 C   0  0  0  0  0  0  0  0  0  0  0  0
  181.7240  178.9310  143.1450 C   0  0  0  0  0  3  0  0  0  0  0  0
  183.4490  178.7460  140.9480 C   0  0  0  0  0  3  0  0  0  0  0  0
  187.6200  178.1660  141.6360 C   0  0  0  0  0  0  0  0  0  0  0  0
  185.3550  178.4540  142.4740 C   0  0  0  0  0  0  0  0  0  0  0  0
  184.9470  178.4550  144.8770 C   0  0  0  0  0  3  0  0  0  0  0  0
  187.2170  178.1480  144.0410 C   0  0  0  0  0  0  0  0  0  0  0  0
  188.0910  178.0620  142.9500 C   0  0  0  0  0  3  0  0  0  0  0  0
  183.5840  178.6480  144.6540 C   0  0  0  0  0  3  0  0  0  0  0  0
  188.5490  178.0320  140.4740 C   0  0  1  0  0  3  0  0  0  0  0  0
  189.8350  177.3320  140.8810 C   0  0  0  0  0  1  0  0  0  0  0  0
  187.8960  177.2860  139.4010 N   0  0  0  0  0  2  0  0  0  0  0  0
  188.7800  179.1250  138.2580 O   0  0  0  0  0  1  0  0  0  0  0  0
  187.8530  178.0820  138.1680 C   0  0  0  0  0  0  0  0  0  0  0  0
  186.5710  178.6150  137.9960 O   0  0  0  0  0  1  0  0  0  0  0  0
  188.1830  177.2440  136.9990 N   0  0  0  0  0  0  0  0  0  0  0  0
  186.0240  176.0160  137.2140 N   0  0  0  0  0  2  0  0  0  0  0  0
  187.3110  176.1690  136.5960 C   0  0  0  0  0  0  0  0  0  0  0  0
  187.6730  175.3780  135.6810 O   0  0  0  0  0  0  0  0  0  0  0  0
  185.1020  174.9340  137.0190 C   0  0  0  0  0  0  0  0  0  0  0  0
  184.5370  172.6030  137.3920 C   0  0  0  0  0  3  0  0  0  0  0  0
  183.0840  173.9940  136.0460 C   0  0  0  0  0  3  0  0  0  0  0  0
  183.3800  172.7560  136.6220 C   0  0  0  0  0  3  0  0  0  0  0  0
  183.9430  175.0790  136.2420 C   0  0  0  0  0  3  0  0  0  0  0  0
  185.3960  173.6880  137.5850 C   0  0  0  0  0  3  0  0  0  0  0  0
  189.4120  177.4680  136.2350 C   0  0  0  0  0  2  0  0  0  0  0  0
  191.3260  176.7530  137.6690 C   0  0  0  0  0  1  0  0  0  0  0  0
  190.4270  176.3680  136.5110 C   0  0  0  0  0  2  0  0  0  0  0  0
  187.7080  178.0720  145.3910 N   0  0  0  0  0  2  0  0  0  0  0  0
  191.3160  176.6660  145.4500 C   0  0  0  0  0  2  0  0  0  0  0  0
  191.1780  175.9910  146.8080 C   0  0  2  0  0  3  0  0  0  0  0  0
  189.1690  177.4590  147.1570 C   0  0  0  0  0  3  0  0  0  0  0  0
  189.9290  176.9000  144.8590 C   0  0  0  0  0  2  0  0  0  0  0  0
  188.9610  177.5350  145.8370 C   0  0  0  0  0  0  0  0  0  0  0  0
  190.4410  176.9310  147.7630 C   0  0  0  0  0  2  0  0  0  0  0  0
  192.9120  176.0860  148.4240 O   0  0  0  0  0  0  0  0  0  0  0  0
  192.5230  175.6310  147.3590 C   0  0  0  0  0  3  0  0  0  0  0  0
  1  8  1  0  0  0  0
  2 13  1  0  0  0  0
  2 12  1  0  0  0  0
  3 10  2  0  0  0  0
  3 11  1  0  0  0  0
  4 15  1  0  0  0  0
  5  9  1  0  0  0  0
  5  1  2  0  0  0  0
  6  1  1  0  0  0  0
  7 11  1  0  0  0  0
  7  4  1  0  0  0  0
  8  4  2  0  0  0  0
  9  7  2  0  0  0  0
 10 14  1  0  0  0  0
 11  2  2  0  0  0  0
 13 35  1  0  0  0  0
 14 13  2  0  0  0  0
 15 12  2  0  0  0  0
 16 17  1  1  0  0  0
 16 10  1  0  0  0  0
 18 16  1  0  0  0  0
 20 19  1  0  0  0  0
 20 18  1  0  0  0  0
 21 20  1  0  0  0  0
 22 20  1  0  0  0  0
 24 22  1  0  0  0  0
 24 23  1  0  0  0  0
 25 24  2  0  0  0  0
 26 23  1  0  0  0  0
 26 31  1  0  0  0  0
 27 31  2  0  0  0  0
 28 30  1  0  0  0  0
 28 29  2  0  0  0  0
 29 27  1  0  0  0  0
 30 26  2  0  0  0  0
 32 34  1  0  0  0  0
 32 22  1  0  0  0  0
 34 33  1  0  0  0  0
 35 40  1  0  0  0  0
 36 37  1  0  0  0  0
 37 43  1  1  0  0  0
 37 41  1  0  0  0  0
 38 41  1  0  0  0  0
 39 36  1  0  0  0  0
 39 40  1  0  0  0  0
 40 38  2  0  0  0  0
 43 42  2  0  0  0  0
M  END
>  <MODEL>
5

>  <REMARK>
 VINA RESULT:      -9.6      2.205      6.347
  Name = 
  10 active torsions:
  status: ('A' for Active; 'I' for Inactive)
    1  A    between atoms: N_1  and  C_34
    2  A    between atoms: N_1  and  C_35
    3  A    between atoms: C_2  and  N_6
    4  A    between atoms: C_2  and  C_27
    5  A    between atoms: N_4  and  C_12
    6  A    between atoms: N_4  and  C_15
    7  A    between atoms: N_6  and  C_12
    8  A    between atoms: C_11  and  N_14
    9  A    between atoms: C_15  and  C_42
   10  A    between atoms: C_19  and  C_37
                            x       y       z     vdW  Elec       q    Type
                         _______ _______ _______ _____ _____    ______ ____

>  <TORSDO>
F 10

$$$$
=
 OpenBabel11052416363D

 43 47  0  0  1  0  0  0  0  0999 V2000
  192.6160  175.3720  136.0890 C   0  0  0  0  0  0  0  0  0  0  0  0
  189.7840  177.5930  139.6560 C   0  0  0  0  0  0  0  0  0  0  0  0
  188.1870  177.1870  137.8630 C   0  0  0  0  0  3  0  0  0  0  0  0
  191.8380  176.4360  138.1220 C   0  0  0  0  0  0  0  0  0  0  0  0
  191.3270  175.4440  135.5540 C   0  0  0  0  0  3  0  0  0  0  0  0
  193.6700  174.7940  135.3280 N   0  0  0  0  0  1  0  0  0  0  0  0
  190.5290  176.5130  137.5880 C   0  0  0  0  0  0  0  0  0  0  0  0
  192.8710  175.8670  137.3700 C   0  0  0  0  0  3  0  0  0  0  0  0
  190.2890  176.0100  136.2980 C   0  0  0  0  0  3  0  0  0  0  0  0
  187.1740  177.7600  138.6310 C   0  0  0  0  0  0  0  0  0  0  0  0
  189.4970  177.0930  138.3590 C   0  0  0  0  0  0  0  0  0  0  0  0
  191.0900  177.5000  140.1590 C   0  0  0  0  0  3  0  0  0  0  0  0
  188.7660  178.1860  140.4280 C   0  0  0  0  0  0  0  0  0  0  0  0
  187.4680  178.2560  139.9060 C   0  0  0  0  0  3  0  0  0  0  0  0
  192.1080  176.9260  139.3980 C   0  0  0  0  0  3  0  0  0  0  0  0
  185.7980  177.8750  138.0600 C   0  0  1  0  0  3  0  0  0  0  0  0
  185.5140  176.7400  137.0920 C   0  0  0  0  0  1  0  0  0  0  0  0
  184.8120  177.8680  139.1380 N   0  0  0  0  0  2  0  0  0  0  0  0
  183.2740  178.8650  137.6860 O   0  0  0  0  0  1  0  0  0  0  0  0
  183.8420  178.9550  138.9610 C   0  0  0  0  0  0  0  0  0  0  0  0
  184.4880  180.1890  139.0930 O   0  0  0  0  0  1  0  0  0  0  0  0
  182.7730  178.8650  139.9740 N   0  0  0  0  0  0  0  0  0  0  0  0
  184.4520  178.9030  141.8150 N   0  0  0  0  0  2  0  0  0  0  0  0
  183.0940  178.7500  141.3740 C   0  0  0  0  0  0  0  0  0  0  0  0
  182.1750  178.5370  142.2130 O   0  0  0  0  0  0  0  0  0  0  0  0
  184.9510  178.6920  143.1440 C   0  0  0  0  0  0  0  0  0  0  0  0
  186.5600  177.6090  144.6030 C   0  0  0  0  0  3  0  0  0  0  0  0
  184.8230  179.0030  145.5500 C   0  0  0  0  0  3  0  0  0  0  0  0
  185.9400  178.1800  145.7180 C   0  0  0  0  0  3  0  0  0  0  0  0
  184.3290  179.2560  144.2670 C   0  0  0  0  0  3  0  0  0  0  0  0
  186.0630  177.8610  143.3210 C   0  0  0  0  0  3  0  0  0  0  0  0
  181.3610  178.8670  139.5810 C   0  0  0  0  0  2  0  0  0  0  0  0
  180.8830  181.1300  138.6410 C   0  0  0  0  0  1  0  0  0  0  0  0
  180.7290  180.2250  139.8470 C   0  0  0  0  0  2  0  0  0  0  0  0
  189.0580  178.6690  141.7520 N   0  0  0  0  0  2  0  0  0  0  0  0
  190.6160  175.9140  143.9840 C   0  0  0  0  0  2  0  0  0  0  0  0
  190.8260  176.8180  145.1910 C   0  0  2  0  0  3  0  0  0  0  0  0
  190.5430  178.7420  143.6010 C   0  0  0  0  0  3  0  0  0  0  0  0
  189.5550  176.5250  143.0730 C   0  0  0  0  0  2  0  0  0  0  0  0
  189.7860  177.9950  142.7890 C   0  0  0  0  0  0  0  0  0  0  0  0
  191.3690  178.1660  144.7190 C   0  0  0  0  0  2  0  0  0  0  0  0
  192.0560  176.7380  147.2170 O   0  0  0  0  0  0  0  0  0  0  0  0
  191.7680  176.1840  146.1670 C   0  0  0  0  0  3  0  0  0  0  0  0
  1  8  1  0  0  0  0
  2 12  1  0  0  0  0
  2 13  1  0  0  0  0
  3 11  1  0  0  0  0
  3 10  2  0  0  0  0
  4 15  1  0  0  0  0
  5  1  2  0  0  0  0
  5  9  1  0  0  0  0
  6  1  1  0  0  0  0
  7  4  1  0  0  0  0
  7 11  1  0  0  0  0
  8  4  2  0  0  0  0
  9  7  2  0  0  0  0
 10 14  1  0  0  0  0
 11  2  2  0  0  0  0
 13 35  1  0  0  0  0
 14 13  2  0  0  0  0
 15 12  2  0  0  0  0
 16 17  1  6  0  0  0
 16 10  1  0  0  0  0
 16 18  1  0  0  0  0
 19 20  1  0  0  0  0
 20 21  1  0  0  0  0
 20 18  1  0  0  0  0
 20 22  1  0  0  0  0
 22 24  1  0  0  0  0
 23 26  1  0  0  0  0
 24 23  1  0  0  0  0
 24 25  2  0  0  0  0
 26 31  2  0  0  0  0
 26 30  1  0  0  0  0
 27 29  2  0  0  0  0
 28 29  1  0  0  0  0
 30 28  2  0  0  0  0
 31 27  1  0  0  0  0
 32 34  1  0  0  0  0
 32 22  1  0  0  0  0
 33 34  1  0  0  0  0
 35 40  1  0  0  0  0
 36 37  1  0  0  0  0
 37 43  1  1  0  0  0
 38 41  1  0  0  0  0
 39 36  1  0  0  0  0
 40 39  1  0  0  0  0
 40 38  2  0  0  0  0
 41 37  1  0  0  0  0
 43 42  2  0  0  0  0
M  END
>  <MODEL>
6

>  <REMARK>
 VINA RESULT:      -9.4      2.639      8.095
  Name = 
  10 active torsions:
  status: ('A' for Active; 'I' for Inactive)
    1  A    between atoms: N_1  and  C_34
    2  A    between atoms: N_1  and  C_35
    3  A    between atoms: C_2  and  N_6
    4  A    between atoms: C_2  and  C_27
    5  A    between atoms: N_4  and  C_12
    6  A    between atoms: N_4  and  C_15
    7  A    between atoms: N_6  and  C_12
    8  A    between atoms: C_11  and  N_14
    9  A    between atoms: C_15  and  C_42
   10  A    between atoms: C_19  and  C_37
                            x       y       z     vdW  Elec       q    Type
                         _______ _______ _______ _____ _____    ______ ____

>  <TORSDO>
F 10

$$$$
=
 OpenBabel11052416363D

 43 47  0  0  1  0  0  0  0  0999 V2000
  187.7230  177.7490  147.3840 C   0  0  0  0  0  0  0  0  0  0  0  0
  185.5770  178.6070  142.8750 C   0  0  0  0  0  0  0  0  0  0  0  0
  187.8800  178.0730  142.2930 C   0  0  0  0  0  3  0  0  0  0  0  0
  186.1610  178.2610  145.6050 C   0  0  0  0  0  0  0  0  0  0  0  0
  188.7400  177.5640  146.4440 C   0  0  0  0  0  3  0  0  0  0  0  0
  187.9980  177.5830  148.7700 N   0  0  0  0  0  1  0  0  0  0  0  0
  187.1840  178.0760  144.6440 C   0  0  0  0  0  0  0  0  0  0  0  0
  186.4370  178.0970  146.9660 C   0  0  0  0  0  3  0  0  0  0  0  0
  188.4730  177.7260  145.0820 C   0  0  0  0  0  3  0  0  0  0  0  0
  187.5810  178.2440  140.9410 C   0  0  0  0  0  0  0  0  0  0  0  0
  186.8910  178.2480  143.2740 C   0  0  0  0  0  0  0  0  0  0  0  0
  184.5830  178.7810  143.8490 C   0  0  0  0  0  3  0  0  0  0  0  0
  185.2760  178.7940  141.5120 C   0  0  0  0  0  0  0  0  0  0  0  0
  186.2850  178.6040  140.5590 C   0  0  0  0  0  3  0  0  0  0  0  0
  184.8730  178.6090  145.2020 C   0  0  0  0  0  3  0  0  0  0  0  0
  188.6660  178.0820  139.9260 C   0  0  1  0  0  3  0  0  0  0  0  0
  189.8550  177.3420  140.5120 C   0  0  0  0  0  1  0  0  0  0  0  0
  188.1530  177.3600  138.7650 N   0  0  0  0  0  2  0  0  0  0  0  0
  189.4290  178.9660  137.6420 O   0  0  0  0  0  1  0  0  0  0  0  0
  188.2800  178.1750  137.5490 C   0  0  0  0  0  0  0  0  0  0  0  0
  187.1590  179.0010  137.4170 O   0  0  0  0  0  1  0  0  0  0  0  0
  188.3830  177.3120  136.3570 N   0  0  0  0  0  0  0  0  0  0  0  0
  190.6070  176.4690  137.1030 N   0  0  0  0  0  2  0  0  0  0  0  0
  189.5760  176.5450  136.1050 C   0  0  0  0  0  0  0  0  0  0  0  0
  189.7020  175.9200  135.0160 O   0  0  0  0  0  0  0  0  0  0  0  0
  191.8970  175.8600  136.9580 C   0  0  0  0  0  0  0  0  0  0  0  0
  193.3920  174.0260  137.4990 C   0  0  0  0  0  3  0  0  0  0  0  0
  194.1870  175.8680  136.1450 C   0  0  0  0  0  3  0  0  0  0  0  0
  194.4170  174.6420  136.7740 C   0  0  0  0  0  3  0  0  0  0  0  0
  192.9310  176.4750  136.2380 C   0  0  0  0  0  3  0  0  0  0  0  0
  192.1390  174.6360  137.5940 C   0  0  0  0  0  3  0  0  0  0  0  0
  187.2860  177.2320  135.3890 C   0  0  0  0  0  2  0  0  0  0  0  0
  184.9400  176.6830  136.0440 C   0  0  0  0  0  1  0  0  0  0  0  0
  186.3180  176.1180  135.7610 C   0  0  0  0  0  2  0  0  0  0  0  0
  183.9360  179.1340  141.1130 N   0  0  0  0  0  2  0  0  0  0  0  0
  182.0860  176.1520  139.4740 C   0  0  0  0  0  2  0  0  0  0  0  0
  180.7450  176.8660  139.3660 C   0  0  2  0  0  3  0  0  0  0  0  0
  181.6520  178.4920  141.0520 C   0  0  0  0  0  3  0  0  0  0  0  0
  183.1990  177.1870  139.6110 C   0  0  0  0  0  2  0  0  0  0  0  0
  182.9070  178.2450  140.6550 C   0  0  0  0  0  0  0  0  0  0  0  0
  180.4800  177.6340  140.6610 C   0  0  0  0  0  2  0  0  0  0  0  0
  179.8730  174.6860  139.0240 O   0  0  0  0  0  0  0  0  0  0  0  0
  179.6450  175.8840  139.1020 C   0  0  0  0  0  3  0  0  0  0  0  0
  1  6  1  0  0  0  0
  2 11  1  0  0  0  0
  2 12  1  0  0  0  0
  3 11  2  0  0  0  0
  4  8  2  0  0  0  0
  5  1  2  0  0  0  0
  7  9  2  0  0  0  0
  7  4  1  0  0  0  0
  8  1  1  0  0  0  0
  9  5  1  0  0  0  0
 10  3  1  0  0  0  0
 11  7  1  0  0  0  0
 12 15  2  0  0  0  0
 13  2  2  0  0  0  0
 14 10  2  0  0  0  0
 14 13  1  0  0  0  0
 15  4  1  0  0  0  0
 16 17  1  1  0  0  0
 16 10  1  0  0  0  0
 18 16  1  0  0  0  0
 20 19  1  0  0  0  0
 20 18  1  0  0  0  0
 21 20  1  0  0  0  0
 22 20  1  0  0  0  0
 24 22  1  0  0  0  0
 24 23  1  0  0  0  0
 25 24  2  0  0  0  0
 26 23  1  0  0  0  0
 26 31  1  0  0  0  0
 27 31  2  0  0  0  0
 28 30  1  0  0  0  0
 28 29  2  0  0  0  0
 29 27  1  0  0  0  0
 30 26  2  0  0  0  0
 32 34  1  0  0  0  0
 32 22  1  0  0  0  0
 34 33  1  0  0  0  0
 35 13  1  0  0  0  0
 36 39  1  0  0  0  0
 37 43  1  1  0  0  0
 37 36  1  0  0  0  0
 37 41  1  0  0  0  0
 39 40  1  0  0  0  0
 40 38  2  0  0  0  0
 40 35  1  0  0  0  0
 41 38  1  0  0  0  0
 42 43  2  0  0  0  0
M  END
>  <MODEL>
7

>  <REMARK>
 VINA RESULT:      -9.4      2.104      4.362
  Name = 
  10 active torsions:
  status: ('A' for Active; 'I' for Inactive)
    1  A    between atoms: N_1  and  C_34
    2  A    between atoms: N_1  and  C_35
    3  A    between atoms: C_2  and  N_6
    4  A    between atoms: C_2  and  C_27
    5  A    between atoms: N_4  and  C_12
    6  A    between atoms: N_4  and  C_15
    7  A    between atoms: N_6  and  C_12
    8  A    between atoms: C_11  and  N_14
    9  A    between atoms: C_15  and  C_42
   10  A    between atoms: C_19  and  C_37
                            x       y       z     vdW  Elec       q    Type
                         _______ _______ _______ _____ _____    ______ ____

>  <TORSDO>
F 10

$$$$
=
 OpenBabel11052416363D

 43 47  0  0  1  0  0  0  0  0999 V2000
  187.8340  177.5540  147.4280 C   0  0  0  0  0  0  0  0  0  0  0  0
  186.3490  178.5630  142.6890 C   0  0  0  0  0  0  0  0  0  0  0  0
  188.5720  177.6180  142.3770 C   0  0  0  0  0  3  0  0  0  0  0  0
  186.5780  178.2450  145.4750 C   0  0  0  0  0  0  0  0  0  0  0  0
  188.8950  177.1560  146.6100 C   0  0  0  0  0  3  0  0  0  0  0  0
  187.9310  177.4050  148.8390 N   0  0  0  0  0  1  0  0  0  0  0  0
  187.6470  177.8450  144.6370 C   0  0  0  0  0  0  0  0  0  0  0  0
  186.6790  178.0970  146.8620 C   0  0  0  0  0  3  0  0  0  0  0  0
  188.8030  177.3000  145.2230 C   0  0  0  0  0  3  0  0  0  0  0  0
  188.4490  177.7780  140.9970 C   0  0  0  0  0  0  0  0  0  0  0  0
  187.5320  178.0040  143.2390 C   0  0  0  0  0  0  0  0  0  0  0  0
  185.3060  178.9470  143.5430 C   0  0  0  0  0  3  0  0  0  0  0  0
  186.2280  178.7380  141.2960 C   0  0  0  0  0  0  0  0  0  0  0  0
  187.2820  178.3360  140.4660 C   0  0  0  0  0  3  0  0  0  0  0  0
  185.4190  178.7890  144.9240 C   0  0  0  0  0  3  0  0  0  0  0  0
  189.5880  177.3880  140.1110 C   0  0  1  0  0  3  0  0  0  0  0  0
  190.8310  177.0790  140.9270 C   0  0  0  0  0  1  0  0  0  0  0  0
  189.2160  176.2250  139.3100 N   0  0  0  0  0  2  0  0  0  0  0  0
  190.4720  174.9280  137.8240 O   0  0  0  0  0  1  0  0  0  0  0  0
  189.9570  176.2100  138.0420 C   0  0  0  0  0  0  0  0  0  0  0  0
  191.0120  177.1270  138.1020 O   0  0  0  0  0  1  0  0  0  0  0  0
  189.0710  176.5720  136.9200 N   0  0  0  0  0  0  0  0  0  0  0  0
  187.6670  174.5520  137.3190 N   0  0  0  0  0  2  0  0  0  0  0  0
  187.9980  175.6970  136.5190 C   0  0  0  0  0  0  0  0  0  0  0  0
  187.3360  175.9550  135.4750 O   0  0  0  0  0  0  0  0  0  0  0  0
  186.7220  173.5230  136.9930 C   0  0  0  0  0  0  0  0  0  0  0  0
  186.1620  171.5740  135.6570 C   0  0  0  0  0  3  0  0  0  0  0  0
  184.5430  172.4700  137.2170 C   0  0  0  0  0  3  0  0  0  0  0  0
  184.8990  171.5220  136.2550 C   0  0  0  0  0  3  0  0  0  0  0  0
  185.4510  173.4680  137.5840 C   0  0  0  0  0  3  0  0  0  0  0  0
  187.0670  172.5750  136.0220 C   0  0  0  0  0  3  0  0  0  0  0  0
  189.2720  177.8160  136.1730 C   0  0  0  0  0  2  0  0  0  0  0  0
  187.1820  179.0030  136.8440 C   0  0  0  0  0  1  0  0  0  0  0  0
  188.6940  179.0010  136.9320 C   0  0  0  0  0  2  0  0  0  0  0  0
  185.0170  179.2840  140.7440 N   0  0  0  0  0  2  0  0  0  0  0  0
  181.4730  177.7610  140.3940 C   0  0  0  0  0  2  0  0  0  0  0  0
  181.8880  176.6710  139.4150 C   0  0  2  0  0  3  0  0  0  0  0  0
  183.9640  178.0310  139.0250 C   0  0  0  0  0  3  0  0  0  0  0  0
  182.7020  178.2530  141.1540 C   0  0  0  0  0  2  0  0  0  0  0  0
  183.8780  178.5630  140.2510 C   0  0  0  0  0  0  0  0  0  0  0  0
  182.8420  177.2650  138.3790 C   0  0  0  0  0  2  0  0  0  0  0  0
  180.7190  174.9490  138.2780 O   0  0  0  0  0  0  0  0  0  0  0  0
  180.6870  176.0770  138.7450 C   0  0  0  0  0  3  0  0  0  0  0  0
  1  6  1  0  0  0  0
  2 11  1  0  0  0  0
  2 12  1  0  0  0  0
  3 11  2  0  0  0  0
  4  8  2  0  0  0  0
  5  1  2  0  0  0  0
  7  9  2  0  0  0  0
  7  4  1  0  0  0  0
  8  1  1  0  0  0  0
  9  5  1  0  0  0  0
 10  3  1  0  0  0  0
 11  7  1  0  0  0  0
 12 15  2  0  0  0  0
 13  2  2  0  0  0  0
 14 10  2  0  0  0  0
 14 13  1  0  0  0  0
 15  4  1  0  0  0  0
 16 17  1  1  0  0  0
 16 10  1  0  0  0  0
 18 16  1  0  0  0  0
 19 20  1  0  0  0  0
 20 21  1  0  0  0  0
 20 18  1  0  0  0  0
 22 20  1  0  0  0  0
 24 22  1  0  0  0  0
 24 23  1  0  0  0  0
 25 24  2  0  0  0  0
 26 23  1  0  0  0  0
 26 30  1  0  0  0  0
 27 31  1  0  0  0  0
 27 29  2  0  0  0  0
 28 30  2  0  0  0  0
 29 28  1  0  0  0  0
 31 26  2  0  0  0  0
 32 22  1  0  0  0  0
 32 34  1  0  0  0  0
 33 34  1  0  0  0  0
 35 13  1  0  0  0  0
 36 39  1  0  0  0  0
 37 43  1  6  0  0  0
 37 36  1  0  0  0  0
 38 40  2  0  0  0  0
 40 35  1  0  0  0  0
 40 39  1  0  0  0  0
 41 38  1  0  0  0  0
 41 37  1  0  0  0  0
 42 43  2  0  0  0  0
M  END
>  <MODEL>
8

>  <REMARK>
 VINA RESULT:      -9.2      1.914      2.778
  Name = 
  10 active torsions:
  status: ('A' for Active; 'I' for Inactive)
    1  A    between atoms: N_1  and  C_34
    2  A    between atoms: N_1  and  C_35
    3  A    between atoms: C_2  and  N_6
    4  A    between atoms: C_2  and  C_27
    5  A    between atoms: N_4  and  C_12
    6  A    between atoms: N_4  and  C_15
    7  A    between atoms: N_6  and  C_12
    8  A    between atoms: C_11  and  N_14
    9  A    between atoms: C_15  and  C_42
   10  A    between atoms: C_19  and  C_37
                            x       y       z     vdW  Elec       q    Type
                         _______ _______ _______ _____ _____    ______ ____

>  <TORSDO>
F 10

$$$$
=
 OpenBabel11052416363D

 43 47  0  0  1  0  0  0  0  0999 V2000
  191.4560  176.5080  147.1390 C   0  0  0  0  0  0  0  0  0  0  0  0
  187.1610  177.8350  144.8000 C   0  0  0  0  0  0  0  0  0  0  0  0
  188.6760  177.3830  142.9490 C   0  0  0  0  0  3  0  0  0  0  0  0
  189.1870  177.1990  146.6460 C   0  0  0  0  0  0  0  0  0  0  0  0
  191.7340  176.4330  145.7720 C   0  0  0  0  0  3  0  0  0  0  0  0
  192.4670  176.1950  148.0890 N   0  0  0  0  0  1  0  0  0  0  0  0
  189.4600  177.1270  145.2580 C   0  0  0  0  0  0  0  0  0  0  0  0
  190.1850  176.8900  147.5750 C   0  0  0  0  0  3  0  0  0  0  0  0
  190.7430  176.7400  144.8360 C   0  0  0  0  0  3  0  0  0  0  0  0
  187.6650  177.6980  142.0410 C   0  0  0  0  0  0  0  0  0  0  0  0
  188.4420  177.4440  144.3320 C   0  0  0  0  0  0  0  0  0  0  0  0
  186.9190  177.8950  146.1800 C   0  0  0  0  0  3  0  0  0  0  0  0
  186.1420  178.1670  143.8860 C   0  0  0  0  0  0  0  0  0  0  0  0
  186.4080  178.0880  142.5130 C   0  0  0  0  0  3  0  0  0  0  0  0
  187.9240  177.5800  147.0950 C   0  0  0  0  0  3  0  0  0  0  0  0
  187.9570  177.6550  140.5760 C   0  0  1  0  0  3  0  0  0  0  0  0
  186.8760  178.3670  139.7830 C   0  0  0  0  0  1  0  0  0  0  0  0
  189.2550  178.2710  140.3120 N   0  0  0  0  0  2  0  0  0  0  0  0
  189.7760  175.9990  140.1190 O   0  0  0  0  0  1  0  0  0  0  0  0
  190.1960  177.2850  139.7640 C   0  0  0  0  0  0  0  0  0  0  0  0
  191.4740  177.5150  140.2850 O   0  0  0  0  0  1  0  0  0  0  0  0
  190.2530  177.3860  138.2930 N   0  0  0  0  0  0  0  0  0  0  0  0
  191.8310  175.4590  138.1790 N   0  0  0  0  0  2  0  0  0  0  0  0
  191.1340  176.5350  137.5320 C   0  0  0  0  0  0  0  0  0  0  0  0
  191.2710  176.7250  136.2920 O   0  0  0  0  0  0  0  0  0  0  0  0
  192.8310  174.6120  137.5950 C   0  0  0  0  0  0  0  0  0  0  0  0
  193.3660  172.7060  136.1910 C   0  0  0  0  0  3  0  0  0  0  0  0
  195.1400  173.9080  137.3160 C   0  0  0  0  0  3  0  0  0  0  0  0
  194.7260  172.8760  136.4710 C   0  0  0  0  0  3  0  0  0  0  0  0
  194.1950  174.7730  137.8780 C   0  0  0  0  0  3  0  0  0  0  0  0
  192.4230  173.5690  136.7550 C   0  0  0  0  0  3  0  0  0  0  0  0
  189.4350  178.3650  137.5730 C   0  0  0  0  0  2  0  0  0  0  0  0
  187.3860  178.6360  136.1740 C   0  0  0  0  0  1  0  0  0  0  0  0
  188.4540  177.6680  136.6420 C   0  0  0  0  0  2  0  0  0  0  0  0
  184.8380  178.5390  144.3680 N   0  0  0  0  0  2  0  0  0  0  0  0
  182.2580  178.4160  141.4820 C   0  0  0  0  0  2  0  0  0  0  0  0
  181.2560  179.3450  142.1550 C   0  0  2  0  0  3  0  0  0  0  0  0
  182.4900  178.8730  144.2910 C   0  0  0  0  0  3  0  0  0  0  0  0
  183.6370  178.6270  142.1010 C   0  0  0  0  0  2  0  0  0  0  0  0
  183.6190  178.6250  143.6160 C   0  0  0  0  0  0  0  0  0  0  0  0
  181.1410  178.9740  143.6330 C   0  0  0  0  0  2  0  0  0  0  0  0
  179.7750  178.6250  140.4470 O   0  0  0  0  0  0  0  0  0  0  0  0
  179.9200  179.2550  141.4840 C   0  0  0  0  0  3  0  0  0  0  0  0
  1  8  1  0  0  0  0
  1  6  1  0  0  0  0
  2 12  1  0  0  0  0
  3 11  2  0  0  0  0
  4 15  1  0  0  0  0
  4  8  2  0  0  0  0
  5  1  2  0  0  0  0
  7  4  1  0  0  0  0
  9  7  2  0  0  0  0
  9  5  1  0  0  0  0
 10 14  2  0  0  0  0
 10  3  1  0  0  0  0
 11  2  1  0  0  0  0
 11  7  1  0  0  0  0
 12 15  2  0  0  0  0
 13 35  1  0  0  0  0
 13  2  2  0  0  0  0
 14 13  1  0  0  0  0
 16 17  1  6  0  0  0
 16 10  1  0  0  0  0
 18 16  1  0  0  0  0
 20 19  1  0  0  0  0
 20 21  1  0  0  0  0
 20 18  1  0  0  0  0
 22 20  1  0  0  0  0
 24 23  1  0  0  0  0
 24 22  1  0  0  0  0
 25 24  2  0  0  0  0
 26 30  1  0  0  0  0
 26 23  1  0  0  0  0
 27 29  2  0  0  0  0
 27 31  1  0  0  0  0
 28 30  2  0  0  0  0
 29 28  1  0  0  0  0
 31 26  2  0  0  0  0
 32 22  1  0  0  0  0
 33 34  1  0  0  0  0
 34 32  1  0  0  0  0
 36 39  1  0  0  0  0
 36 37  1  0  0  0  0
 37 43  1  6  0  0  0
 37 41  1  0  0  0  0
 39 40  1  0  0  0  0
 40 38  2  0  0  0  0
 40 35  1  0  0  0  0
 41 38  1  0  0  0  0
 42 43  2  0  0  0  0
M  END
>  <MODEL>
9

>  <REMARK>
 VINA RESULT:      -9.2      2.821      4.316
  Name = 
  10 active torsions:
  status: ('A' for Active; 'I' for Inactive)
    1  A    between atoms: N_1  and  C_34
    2  A    between atoms: N_1  and  C_35
    3  A    between atoms: C_2  and  N_6
    4  A    between atoms: C_2  and  C_27
    5  A    between atoms: N_4  and  C_12
    6  A    between atoms: N_4  and  C_15
    7  A    between atoms: N_6  and  C_12
    8  A    between atoms: C_11  and  N_14
    9  A    between atoms: C_15  and  C_42
   10  A    between atoms: C_19  and  C_37
                            x       y       z     vdW  Elec       q    Type
                         _______ _______ _______ _____ _____    ______ ____

>  <TORSDO>
F 10

$$$$
