=
 OpenBabel11052412333D

 30 35  0  0  1  0  0  0  0  0999 V2000
  186.9500  178.4770  138.8560 C   0  0  1  0  0  3  0  0  0  0  0  0
  186.8400  177.9100  136.2450 C   0  0  2  0  0  3  0  0  0  0  0  0
  183.4550  177.6100  138.2280 N   0  0  0  0  0  2  0  0  0  0  0  0
  186.0630  178.4260  140.1180 C   0  0  1  0  0  3  0  0  0  0  0  0
  188.2400  177.8200  139.0790 N   0  0  0  0  0  0  0  0  0  0  0  0
  189.1930  178.2680  142.8850 S   0  0  0  0  0  0  0  0  0  0  0  0
  184.7080  179.2910  142.7340 C   0  0  1  0  0  3  0  0  0  0  0  0
  188.1450  178.3730  141.4260 C   0  0  1  0  0  3  0  0  0  0  0  0
  190.0780  177.2750  140.4820 N   0  0  0  0  0  0  0  0  0  0  0  0
  183.6570  178.4830  141.9750 C   0  0  1  0  0  3  0  0  0  0  0  0
  183.3040  177.5520  139.6480 C   0  0  0  0  0  0  0  0  0  0  0  0
  188.8220  177.8780  140.2350 C   0  0  0  0  0  0  0  0  0  0  0  0
  186.8160  178.5760  141.4340 C   0  0  2  0  0  3  0  0  0  0  0  0
  186.6750  176.5790  135.5010 C   0  0  0  0  0  2  0  0  0  0  0  0
  182.3440  178.8260  142.6360 C   0  0  0  0  0  2  0  0  0  0  0  0
  184.1480  179.5190  144.1280 C   0  0  0  0  0  2  0  0  0  0  0  0
  191.3700  176.6810  142.4050 C   0  0  0  0  0  1  0  0  0  0  0  0
  188.3010  178.3260  136.2240 C   0  0  0  0  0  1  0  0  0  0  0  0
  184.2580  176.6340  137.4940 C   0  0  1  0  0  3  0  0  0  0  0  0
  185.2210  176.2180  135.1420 C   0  0  0  0  0  2  0  0  0  0  0  0
  190.3910  177.3890  141.8670 C   0  0  0  0  0  0  0  0  0  0  0  0
  186.1950  177.8720  137.6560 C   0  0  1  0  0  3  0  0  0  0  0  0
  184.9130  179.4170  139.9680 C   0  0  0  0  0  2  0  0  0  0  0  0
  182.9980  176.4610  140.2020 O   0  0  0  0  0  0  0  0  0  0  0  0
  183.6080  178.7860  140.4670 C   0  0  2  0  0  3  0  0  0  0  0  0
  182.6840  179.1090  144.0860 C   0  0  0  0  0  2  0  0  0  0  0  0
  185.9930  177.1900  143.3500 C   0  0  0  0  0  1  0  0  0  0  0  0
  184.1420  176.9080  135.9850 C   0  0  0  0  0  2  0  0  0  0  0  0
  185.5980  176.6270  137.9620 O   0  0  0  0  0  0  0  0  0  0  0  0
  186.0800  178.5980  142.7640 C   0  0  2  0  0  3  0  0  0  0  0  0
  1  5  1  1  0  0  0
  1  4  1  0  0  0  0
  2 18  1  1  0  0  0
  2 22  1  0  0  0  0
  3 11  1  0  0  0  0
  4 23  1  6  0  0  0
  4 13  1  0  0  0  0
  5 12  2  0  0  0  0
  7 30  1  0  0  0  0
  7 16  1  1  0  0  0
  8 12  1  1  0  0  0
  8 13  1  0  0  0  0
  8  6  1  0  0  0  0
  9 21  2  0  0  0  0
 10 15  1  1  0  0  0
 10  7  1  0  0  0  0
 11 24  2  0  0  0  0
 11 25  1  0  0  0  0
 12  9  1  0  0  0  0
 13 30  1  0  0  0  0
 14  2  1  0  0  0  0
 15 26  1  0  0  0  0
 19 29  1  0  0  0  0
 19  3  1  0  0  0  0
 20 14  1  0  0  0  0
 20 28  1  0  0  0  0
 21 17  1  0  0  0  0
 21  6  1  0  0  0  0
 22 29  1  0  0  0  0
 22  1  1  0  0  0  0
 23 25  1  0  0  0  0
 25 10  1  0  0  0  0
 26 16  1  0  0  0  0
 28 19  1  0  0  0  0
 30 27  1  0  0  0  0
M  END
>  <MODEL>
1

>  <REMARK>
 VINA RESULT:      -7.8      0.000      0.000
  Name = 
  0 active torsions:
  status: ('A' for Active; 'I' for Inactive)
                            x       y       z     vdW  Elec       q    Type
                         _______ _______ _______ _____ _____    ______ ____

>  <TORSDO>
F 0

$$$$
=
 OpenBabel11052412333D

 30 35  0  0  1  0  0  0  0  0999 V2000
  188.7160  176.6350  143.5960 C   0  0  1  0  0  3  0  0  0  0  0  0
  190.7440  175.9810  145.2130 C   0  0  2  0  0  3  0  0  0  0  0  0
  187.6470  177.7010  146.9250 N   0  0  0  0  0  2  0  0  0  0  0  0
  187.3740  177.3940  143.6280 C   0  0  1  0  0  3  0  0  0  0  0  0
  189.5680  177.0950  142.4970 N   0  0  0  0  0  0  0  0  0  0  0  0
  187.2200  178.2470  139.5380 S   0  0  0  0  0  0  0  0  0  0  0  0
  184.4040  178.0340  143.1730 C   0  0  1  0  0  3  0  0  0  0  0  0
  187.6200  177.6770  141.1970 C   0  0  1  0  0  3  0  0  0  0  0  0
  189.8420  177.8940  140.2760 N   0  0  0  0  0  2  0  0  0  0  0  0
  184.7350  178.5810  144.5610 C   0  0  1  0  0  3  0  0  0  0  0  0
  186.5980  178.4140  146.2650 C   0  0  0  0  0  0  0  0  0  0  0  0
  189.0510  177.4650  141.3680 C   0  0  0  0  0  0  0  0  0  0  0  0
  186.7940  177.7260  142.2580 C   0  0  2  0  0  3  0  0  0  0  0  0
  191.7880  176.8440  145.9320 C   0  0  0  0  0  2  0  0  0  0  0  0
  183.3970  178.7960  145.2280 C   0  0  0  0  0  2  0  0  0  0  0  0
  183.0190  178.5530  142.8270 C   0  0  0  0  0  2  0  0  0  0  0  0
  189.4760  179.0600  138.2200 C   0  0  0  0  0  2  0  0  0  0  0  0
  191.3640  175.3610  143.9720 C   0  0  0  0  0  1  0  0  0  0  0  0
  189.0490  178.0950  146.7990 C   0  0  1  0  0  3  0  0  0  0  0  0
  191.4120  177.2450  147.3710 C   0  0  0  0  0  2  0  0  0  0  0  0
  188.9910  178.3620  139.2340 C   0  0  0  0  0  0  0  0  0  0  0  0
  189.4220  176.7550  144.9610 C   0  0  1  0  0  3  0  0  0  0  0  0
  186.3930  176.6500  144.5290 C   0  0  0  0  0  2  0  0  0  0  0  0
  186.5480  179.6720  146.3470 O   0  0  0  0  0  0  0  0  0  0  0  0
  185.6230  177.6470  145.4030 C   0  0  2  0  0  3  0  0  0  0  0  0
  182.4380  179.1400  144.1050 C   0  0  0  0  0  2  0  0  0  0  0  0
  185.6450  179.9400  142.0430 C   0  0  0  0  0  1  0  0  0  0  0  0
  189.9150  177.1970  147.7000 C   0  0  0  0  0  2  0  0  0  0  0  0
  189.4570  178.0860  145.4390 O   0  0  0  0  0  0  0  0  0  0  0  0
  185.4530  178.4270  142.1190 C   0  0  2  0  0  3  0  0  0  0  0  0
  1  5  1  6  0  0  0
  1  4  1  0  0  0  0
  1 22  1  0  0  0  0
  2 18  1  6  0  0  0
  2 14  1  0  0  0  0
  4 23  1  6  0  0  0
  7 16  1  6  0  0  0
  7 10  1  0  0  0  0
  8  6  1  1  0  0  0
  8 12  1  0  0  0  0
  8 13  1  0  0  0  0
  9 12  1  0  0  0  0
 10 15  1  1  0  0  0
 10 25  1  0  0  0  0
 11 24  2  0  0  0  0
 11  3  1  0  0  0  0
 12  5  2  0  0  0  0
 13  4  1  0  0  0  0
 14 20  1  0  0  0  0
 16 26  1  0  0  0  0
 17 21  2  0  0  0  0
 19  3  1  0  0  0  0
 19 28  1  0  0  0  0
 20 28  1  0  0  0  0
 21  6  1  0  0  0  0
 21  9  1  0  0  0  0
 22  2  1  0  0  0  0
 22 29  1  0  0  0  0
 23 25  1  0  0  0  0
 25 11  1  0  0  0  0
 26 15  1  0  0  0  0
 27 30  1  0  0  0  0
 29 19  1  0  0  0  0
 30 13  1  0  0  0  0
 30  7  1  0  0  0  0
M  END
>  <MODEL>
2

>  <REMARK>
 VINA RESULT:      -7.6      3.624      6.676
  Name = 
  0 active torsions:
  status: ('A' for Active; 'I' for Inactive)
                            x       y       z     vdW  Elec       q    Type
                         _______ _______ _______ _____ _____    ______ ____

>  <TORSDO>
F 0

$$$$
=
 OpenBabel11052412333D

 30 35  0  0  1  0  0  0  0  0999 V2000
  186.2100  178.8860  141.7040 C   0  0  1  0  0  3  0  0  0  0  0  0
  185.6360  179.1540  144.3020 C   0  0  2  0  0  3  0  0  0  0  0  0
  189.0750  177.4420  143.4550 N   0  0  0  0  0  2  0  0  0  0  0  0
  187.2620  178.2310  140.7850 C   0  0  1  0  0  3  0  0  0  0  0  0
  184.8480  178.5250  141.3050 N   0  0  0  0  0  0  0  0  0  0  0  0
  184.8300  177.9780  137.3940 S   0  0  0  0  0  0  0  0  0  0  0  0
  189.2950  177.8810  138.5090 C   0  0  1  0  0  3  0  0  0  0  0  0
  185.5580  178.2770  139.0120 C   0  0  1  0  0  3  0  0  0  0  0  0
  183.2370  178.0300  139.6300 N   0  0  0  0  0  2  0  0  0  0  0  0
  189.8760  177.1210  139.7010 C   0  0  1  0  0  3  0  0  0  0  0  0
  189.4700  176.9080  142.1900 C   0  0  0  0  0  0  0  0  0  0  0  0
  184.5460  178.3570  140.0570 C   0  0  0  0  0  0  0  0  0  0  0  0
  186.8600  178.1400  139.3180 C   0  0  2  0  0  3  0  0  0  0  0  0
  185.2340  178.1250  145.3650 C   0  0  0  0  0  2  0  0  0  0  0  0
  191.3330  176.9120  139.3610 C   0  0  0  0  0  2  0  0  0  0  0  0
  190.1530  177.5190  137.3100 C   0  0  0  0  0  2  0  0  0  0  0  0
  182.2190  177.1960  137.6340 C   0  0  0  0  0  2  0  0  0  0  0  0
  184.4000  179.8970  143.8200 C   0  0  0  0  0  1  0  0  0  0  0  0
  187.8840  176.9680  144.1580 C   0  0  1  0  0  3  0  0  0  0  0  0
  186.4060  177.5530  146.1840 C   0  0  0  0  0  2  0  0  0  0  0  0
  183.2470  177.7780  138.2290 C   0  0  0  0  0  0  0  0  0  0  0  0
  186.4960  178.5230  143.1750 C   0  0  1  0  0  3  0  0  0  0  0  0
  188.6120  178.9100  140.9970 C   0  0  0  0  0  2  0  0  0  0  0  0
  189.5230  175.6590  142.0250 O   0  0  0  0  0  0  0  0  0  0  0  0
  189.7270  177.8590  141.0430 C   0  0  2  0  0  3  0  0  0  0  0  0
  191.3820  176.8020  137.8490 C   0  0  0  0  0  2  0  0  0  0  0  0
  187.5640  176.0680  138.1000 C   0  0  0  0  0  1  0  0  0  0  0  0
  187.7870  177.6640  145.5260 C   0  0  0  0  0  2  0  0  0  0  0  0
  186.7230  177.1390  143.3580 O   0  0  0  0  0  0  0  0  0  0  0  0
  187.8080  177.5660  138.2760 C   0  0  2  0  0  3  0  0  0  0  0  0
  1  5  1  6  0  0  0
  1 22  1  0  0  0  0
  2 18  1  6  0  0  0
  2 14  1  0  0  0  0
  3 19  1  0  0  0  0
  4 23  1  6  0  0  0
  4  1  1  0  0  0  0
  6 21  1  0  0  0  0
  7 16  1  6  0  0  0
  7 10  1  0  0  0  0
  8  6  1  6  0  0  0
  8 13  1  0  0  0  0
  8 12  1  0  0  0  0
  9 12  1  0  0  0  0
 10 15  1  6  0  0  0
 10 25  1  0  0  0  0
 11  3  1  0  0  0  0
 12  5  2  0  0  0  0
 13  4  1  0  0  0  0
 14 20  1  0  0  0  0
 16 26  1  0  0  0  0
 17 21  2  0  0  0  0
 19 28  1  0  0  0  0
 21  9  1  0  0  0  0
 22 29  1  0  0  0  0
 22  2  1  0  0  0  0
 23 25  1  0  0  0  0
 24 11  2  0  0  0  0
 25 11  1  0  0  0  0
 26 15  1  0  0  0  0
 27 30  1  0  0  0  0
 28 20  1  0  0  0  0
 29 19  1  0  0  0  0
 30  7  1  0  0  0  0
 30 13  1  0  0  0  0
M  END
>  <MODEL>
3

>  <REMARK>
 VINA RESULT:      -7.5      2.657      7.244
  Name = 
  0 active torsions:
  status: ('A' for Active; 'I' for Inactive)
                            x       y       z     vdW  Elec       q    Type
                         _______ _______ _______ _____ _____    ______ ____

>  <TORSDO>
F 0

$$$$
=
 OpenBabel11052412333D

 30 35  0  0  1  0  0  0  0  0999 V2000
  188.0990  177.0480  141.0700 C   0  0  1  0  0  3  0  0  0  0  0  0
  190.3440  176.5480  139.7050 C   0  0  2  0  0  3  0  0  0  0  0  0
  190.7840  177.3560  143.5300 N   0  0  0  0  0  2  0  0  0  0  0  0
  187.6420  177.5230  142.4650 C   0  0  1  0  0  3  0  0  0  0  0  0
  187.4680  177.8280  140.0040 N   0  0  0  0  0  0  0  0  0  0  0  0
  183.9030  178.9610  141.2690 S   0  0  0  0  0  0  0  0  0  0  0  0
  186.0800  177.6490  145.1070 C   0  0  1  0  0  3  0  0  0  0  0  0
  185.5400  178.2250  141.3990 C   0  0  1  0  0  3  0  0  0  0  0  0
  185.6040  179.0030  139.1130 N   0  0  0  0  0  2  0  0  0  0  0  0
  187.5180  178.0240  145.4610 C   0  0  1  0  0  3  0  0  0  0  0  0
  189.8110  177.9500  144.3910 C   0  0  0  0  0  0  0  0  0  0  0  0
  186.2550  178.2650  140.1300 C   0  0  0  0  0  0  0  0  0  0  0  0
  186.1810  177.9480  142.5480 C   0  0  2  0  0  3  0  0  0  0  0  0
  191.4790  177.4700  139.2440 C   0  0  0  0  0  2  0  0  0  0  0  0
  187.6060  177.8730  146.9610 C   0  0  0  0  0  2  0  0  0  0  0  0
  185.2450  177.9420  146.3410 C   0  0  0  0  0  2  0  0  0  0  0  0
  183.6600  180.3860  138.9460 C   0  0  0  0  0  2  0  0  0  0  0  0
  189.4160  176.2590  138.5360 C   0  0  0  0  0  1  0  0  0  0  0  0
  191.2590  178.0240  142.3200 C   0  0  1  0  0  3  0  0  0  0  0  0
  192.6700  177.5610  140.2160 C   0  0  0  0  0  2  0  0  0  0  0  0
  184.3430  179.4580  139.5950 C   0  0  0  0  0  0  0  0  0  0  0  0
  189.6380  177.0860  140.9780 C   0  0  1  0  0  3  0  0  0  0  0  0
  188.0210  176.4740  143.5060 C   0  0  0  0  0  2  0  0  0  0  0  0
  189.9520  179.1470  144.7660 O   0  0  0  0  0  0  0  0  0  0  0  0
  188.5790  177.1560  144.7600 C   0  0  2  0  0  3  0  0  0  0  0  0
  186.2190  178.1990  147.4800 C   0  0  0  0  0  2  0  0  0  0  0  0
  185.6760  179.9090  144.0220 C   0  0  0  0  0  1  0  0  0  0  0  0
  192.3670  177.1780  141.6700 C   0  0  0  0  0  2  0  0  0  0  0  0
  190.1790  178.3070  141.4420 O   0  0  0  0  0  0  0  0  0  0  0  0
  185.5640  178.3940  143.8640 C   0  0  2  0  0  3  0  0  0  0  0  0
  1  5  1  6  0  0  0
  1  4  1  0  0  0  0
  2 18  1  6  0  0  0
  2 22  1  0  0  0  0
  3 11  1  0  0  0  0
  4 13  1  0  0  0  0
  4 23  1  1  0  0  0
  5 12  2  0  0  0  0
  6  8  1  0  0  0  0
  7 10  1  0  0  0  0
  7 16  1  1  0  0  0
  8 12  1  6  0  0  0
  8 13  1  0  0  0  0
  9 21  1  0  0  0  0
  9 12  1  0  0  0  0
 10 15  1  1  0  0  0
 11 25  1  0  0  0  0
 11 24  2  0  0  0  0
 13 30  1  0  0  0  0
 14  2  1  0  0  0  0
 14 20  1  0  0  0  0
 15 26  1  0  0  0  0
 16 26  1  0  0  0  0
 17 21  2  0  0  0  0
 19  3  1  0  0  0  0
 20 28  1  0  0  0  0
 21  6  1  0  0  0  0
 22  1  1  0  0  0  0
 22 29  1  0  0  0  0
 23 25  1  0  0  0  0
 25 10  1  0  0  0  0
 28 19  1  0  0  0  0
 29 19  1  0  0  0  0
 30 27  1  0  0  0  0
 30  7  1  0  0  0  0
M  END
>  <MODEL>
4

>  <REMARK>
 VINA RESULT:      -7.2      3.157      5.889
  Name = 
  0 active torsions:
  status: ('A' for Active; 'I' for Inactive)
                            x       y       z     vdW  Elec       q    Type
                         _______ _______ _______ _____ _____    ______ ____

>  <TORSDO>
F 0

$$$$
=
 OpenBabel11052412333D

 30 35  0  0  1  0  0  0  0  0999 V2000
  182.3360  178.0890  140.1660 C   0  0  1  0  0  3  0  0  0  0  0  0
  181.9560  179.0840  142.6190 C   0  0  2  0  0  3  0  0  0  0  0  0
  185.6090  179.3600  141.1830 N   0  0  0  0  0  2  0  0  0  0  0  0
  183.4770  177.7960  139.1710 C   0  0  1  0  0  3  0  0  0  0  0  0
  181.4830  176.9160  140.3670 N   0  0  0  0  0  0  0  0  0  0  0  0
  181.4660  174.8340  137.0110 S   0  0  0  0  0  0  0  0  0  0  0  0
  185.0580  177.6740  136.5400 C   0  0  1  0  0  3  0  0  0  0  0  0
  181.9810  176.1400  138.1370 C   0  0  1  0  0  3  0  0  0  0  0  0
  180.4090  174.9630  139.5420 N   0  0  0  0  0  2  0  0  0  0  0  0
  186.0930  177.9540  137.6290 C   0  0  1  0  0  3  0  0  0  0  0  0
  186.1370  178.6480  140.0630 C   0  0  0  0  0  0  0  0  0  0  0  0
  181.2450  176.0950  139.3930 C   0  0  0  0  0  0  0  0  0  0  0  0
  183.0960  176.8820  138.0120 C   0  0  2  0  0  3  0  0  0  0  0  0
  182.3950  178.5790  143.9990 C   0  0  0  0  0  2  0  0  0  0  0  0
  187.3140  178.4510  136.8920 C   0  0  0  0  0  2  0  0  0  0  0  0
  185.8400  177.3670  135.2750 C   0  0  0  0  0  2  0  0  0  0  0  0
  179.9770  172.9510  138.3240 C   0  0  0  0  0  2  0  0  0  0  0  0
  180.4930  178.7400  142.3930 C   0  0  0  0  0  1  0  0  0  0  0  0
  185.0560  178.6710  142.3480 C   0  0  1  0  0  3  0  0  0  0  0  0
  183.7310  179.1570  144.5020 C   0  0  0  0  0  2  0  0  0  0  0  0
  180.4520  174.1860  138.3500 C   0  0  0  0  0  0  0  0  0  0  0  0
  182.9160  178.6140  141.4950 C   0  0  1  0  0  3  0  0  0  0  0  0
  184.1030  179.1110  138.7160 C   0  0  0  0  0  2  0  0  0  0  0  0
  186.9550  177.7050  140.2480 O   0  0  0  0  0  0  0  0  0  0  0  0
  185.6300  178.9810  138.6790 C   0  0  2  0  0  3  0  0  0  0  0  0
  187.2860  177.7500  135.5480 C   0  0  0  0  0  2  0  0  0  0  0  0
  184.8400  175.2500  137.2630 C   0  0  0  0  0  1  0  0  0  0  0  0
  184.6630  179.7070  143.4150 C   0  0  0  0  0  2  0  0  0  0  0  0
  183.9840  177.8190  141.9710 O   0  0  0  0  0  0  0  0  0  0  0  0
  184.0940  176.5370  136.9190 C   0  0  2  0  0  3  0  0  0  0  0  0
  1  5  1  1  0  0  0
  1 22  1  0  0  0  0
  2 18  1  6  0  0  0
  2 14  1  0  0  0  0
  3 19  1  0  0  0  0
  4 23  1  6  0  0  0
  4  1  1  0  0  0  0
  6 21  1  0  0  0  0
  7 16  1  6  0  0  0
  7 30  1  0  0  0  0
  7 10  1  0  0  0  0
  8  6  1  1  0  0  0
  8 12  1  0  0  0  0
 10 15  1  6  0  0  0
 10 25  1  0  0  0  0
 11 24  2  0  0  0  0
 11  3  1  0  0  0  0
 12  9  1  0  0  0  0
 12  5  2  0  0  0  0
 13  8  1  0  0  0  0
 13  4  1  0  0  0  0
 14 20  1  0  0  0  0
 16 26  1  0  0  0  0
 17 21  2  0  0  0  0
 19 28  1  0  0  0  0
 21  9  1  0  0  0  0
 22 29  1  0  0  0  0
 22  2  1  0  0  0  0
 25 23  1  0  0  0  0
 25 11  1  0  0  0  0
 26 15  1  0  0  0  0
 28 20  1  0  0  0  0
 29 19  1  0  0  0  0
 30 27  1  0  0  0  0
 30 13  1  0  0  0  0
M  END
>  <MODEL>
5

>  <REMARK>
 VINA RESULT:      -6.8      2.966      7.414
  Name = 
  0 active torsions:
  status: ('A' for Active; 'I' for Inactive)
                            x       y       z     vdW  Elec       q    Type
                         _______ _______ _______ _____ _____    ______ ____

>  <TORSDO>
F 0

$$$$
=
 OpenBabel11052412333D

 30 35  0  0  1  0  0  0  0  0999 V2000
  186.3340  177.9770  137.4010 C   0  0  1  0  0  3  0  0  0  0  0  0
  188.8730  177.8500  136.5720 C   0  0  2  0  0  3  0  0  0  0  0  0
  186.4390  175.1160  135.1280 N   0  0  0  0  0  2  0  0  0  0  0  0
  185.0170  177.1770  137.3120 C   0  0  1  0  0  3  0  0  0  0  0  0
  186.6650  178.3130  138.7870 N   0  0  0  0  0  0  0  0  0  0  0  0
  183.2820  178.7430  140.7780 S   0  0  0  0  0  0  0  0  0  0  0  0
  182.0350  176.5550  136.9250 C   0  0  1  0  0  3  0  0  0  0  0  0
  184.3240  178.3310  139.3700 C   0  0  1  0  0  3  0  0  0  0  0  0
  186.0140  178.9300  140.9880 N   0  0  0  0  0  0  0  0  0  0  0  0
  182.7840  175.3700  136.3180 C   0  0  1  0  0  3  0  0  0  0  0  0
  185.1470  174.7750  135.6350 C   0  0  0  0  0  0  0  0  0  0  0  0
  185.7320  178.5790  139.6460 C   0  0  0  0  0  0  0  0  0  0  0  0
  183.9430  177.6020  138.3060 C   0  0  2  0  0  3  0  0  0  0  0  0
  190.0000  176.8630  136.8990 C   0  0  0  0  0  2  0  0  0  0  0  0
  181.7670  174.6630  135.4540 C   0  0  0  0  0  2  0  0  0  0  0  0
  180.5690  176.1590  136.9680 C   0  0  0  0  0  2  0  0  0  0  0  0
  184.7900  179.0770  143.0370 C   0  0  0  0  0  1  0  0  0  0  0  0
  189.0640  179.1260  137.3750 C   0  0  0  0  0  1  0  0  0  0  0  0
  187.6430  175.0290  135.9530 C   0  0  1  0  0  3  0  0  0  0  0  0
  190.1320  175.6860  135.9140 C   0  0  0  0  0  2  0  0  0  0  0  0
  184.7930  179.0270  141.7150 C   0  0  0  0  0  0  0  0  0  0  0  0
  187.4710  177.1990  136.7090 C   0  0  1  0  0  3  0  0  0  0  0  0
  184.5280  177.1690  135.8670 C   0  0  0  0  0  2  0  0  0  0  0  0
  184.9850  173.6910  136.2580 O   0  0  0  0  0  0  0  0  0  0  0  0
  184.0200  175.7720  135.4930 C   0  0  2  0  0  3  0  0  0  0  0  0
  180.4310  174.8950  136.1320 C   0  0  0  0  0  2  0  0  0  0  0  0
  182.5470  175.7680  139.2850 C   0  0  0  0  0  1  0  0  0  0  0  0
  188.8750  175.3650  135.0960 C   0  0  0  0  0  2  0  0  0  0  0  0
  187.5240  175.8440  137.1100 O   0  0  0  0  0  0  0  0  0  0  0  0
  182.5720  176.9450  138.3120 C   0  0  2  0  0  3  0  0  0  0  0  0
  1  5  1  1  0  0  0
  2 22  1  0  0  0  0
  2 14  1  0  0  0  0
  2 18  1  1  0  0  0
  3 11  1  0  0  0  0
  3 19  1  0  0  0  0
  4 23  1  6  0  0  0
  4  1  1  0  0  0  0
  4 13  1  0  0  0  0
  5 12  2  0  0  0  0
  6 21  1  0  0  0  0
  7 16  1  1  0  0  0
  7 30  1  0  0  0  0
  8 12  1  1  0  0  0
  8  6  1  0  0  0  0
  9 21  2  0  0  0  0
 10 15  1  6  0  0  0
 10  7  1  0  0  0  0
 11 24  2  0  0  0  0
 12  9  1  0  0  0  0
 13 30  1  0  0  0  0
 13  8  1  0  0  0  0
 15 26  1  0  0  0  0
 19 29  1  0  0  0  0
 20 14  1  0  0  0  0
 21 17  1  0  0  0  0
 22 29  1  0  0  0  0
 22  1  1  0  0  0  0
 25 11  1  0  0  0  0
 25 23  1  0  0  0  0
 25 10  1  0  0  0  0
 26 16  1  0  0  0  0
 28 20  1  0  0  0  0
 28 19  1  0  0  0  0
 30 27  1  0  0  0  0
M  END
>  <MODEL>
6

>  <REMARK>
 VINA RESULT:      -6.7      2.702      5.240
  Name = 
  0 active torsions:
  status: ('A' for Active; 'I' for Inactive)
                            x       y       z     vdW  Elec       q    Type
                         _______ _______ _______ _____ _____    ______ ____

>  <TORSDO>
F 0

$$$$
=
 OpenBabel11052412333D

 30 35  0  0  1  0  0  0  0  0999 V2000
  191.1380  177.5640  140.1030 C   0  0  1  0  0  3  0  0  0  0  0  0
  192.9120  176.5940  138.3530 C   0  0  2  0  0  3  0  0  0  0  0  0
  189.1530  176.5930  137.1920 N   0  0  0  0  0  2  0  0  0  0  0  0
  189.6130  177.7070  140.2880 C   0  0  1  0  0  3  0  0  0  0  0  0
  191.7670  176.9560  141.2780 N   0  0  0  0  0  0  0  0  0  0  0  0
  189.6710  177.9990  144.4580 S   0  0  0  0  0  0  0  0  0  0  0  0
  186.8840  178.9640  140.9240 C   0  0  1  0  0  3  0  0  0  0  0  0
  190.0470  177.8690  142.7030 C   0  0  1  0  0  3  0  0  0  0  0  0
  191.9130  176.6460  143.6290 N   0  0  0  0  0  0  0  0  0  0  0  0
  186.6430  178.0420  139.7300 C   0  0  1  0  0  3  0  0  0  0  0  0
  188.0050  176.7570  138.0270 C   0  0  0  0  0  0  0  0  0  0  0  0
  191.3180  177.1960  142.4690 C   0  0  0  0  0  0  0  0  0  0  0  0
  189.1720  178.0650  141.7020 C   0  0  2  0  0  3  0  0  0  0  0  0
  193.1960  175.1630  137.8820 C   0  0  0  0  0  2  0  0  0  0  0  0
  185.3160  178.4780  139.1580 C   0  0  0  0  0  2  0  0  0  0  0  0
  185.5140  179.4040  141.4090 C   0  0  0  0  0  2  0  0  0  0  0  0
  191.3050  176.3670  145.9260 C   0  0  0  0  0  1  0  0  0  0  0  0
  193.9560  177.0090  139.3760 C   0  0  0  0  0  1  0  0  0  0  0  0
  190.1200  175.5170  137.4060 C   0  0  1  0  0  3  0  0  0  0  0  0
  192.4420  174.7430  136.6060 C   0  0  0  0  0  2  0  0  0  0  0  0
  191.1220  176.9770  144.7660 C   0  0  0  0  0  0  0  0  0  0  0  0
  191.4410  176.7750  138.8140 C   0  0  1  0  0  3  0  0  0  0  0  0
  189.0620  178.6560  139.2290 C   0  0  0  0  0  2  0  0  0  0  0  0
  187.2710  175.7640  138.2860 O   0  0  0  0  0  0  0  0  0  0  0  0
  187.7490  178.1050  138.6610 C   0  0  2  0  0  3  0  0  0  0  0  0
  184.5150  178.9860  140.3410 C   0  0  0  0  0  2  0  0  0  0  0  0
  187.0600  176.9910  142.5130 C   0  0  0  0  0  1  0  0  0  0  0  0
  191.1780  175.5520  136.2900 C   0  0  0  0  0  2  0  0  0  0  0  0
  190.6760  175.5900  138.7100 O   0  0  0  0  0  0  0  0  0  0  0  0
  187.7060  178.2900  142.0360 C   0  0  2  0  0  3  0  0  0  0  0  0
  1  4  1  0  0  0  0
  1  5  1  1  0  0  0
  2 22  1  0  0  0  0
  2 18  1  1  0  0  0
  3 19  1  0  0  0  0
  3 11  1  0  0  0  0
  4 23  1  6  0  0  0
  4 13  1  0  0  0  0
  5 12  2  0  0  0  0
  6 21  1  0  0  0  0
  7 16  1  1  0  0  0
  7 30  1  0  0  0  0
  8 12  1  1  0  0  0
  8  6  1  0  0  0  0
  9 21  2  0  0  0  0
 10 15  1  6  0  0  0
 10  7  1  0  0  0  0
 11 24  2  0  0  0  0
 11 25  1  0  0  0  0
 12  9  1  0  0  0  0
 13 30  1  0  0  0  0
 13  8  1  0  0  0  0
 14  2  1  0  0  0  0
 15 26  1  0  0  0  0
 19 29  1  0  0  0  0
 20 14  1  0  0  0  0
 21 17  1  0  0  0  0
 22  1  1  0  0  0  0
 25 23  1  0  0  0  0
 25 10  1  0  0  0  0
 26 16  1  0  0  0  0
 28 20  1  0  0  0  0
 28 19  1  0  0  0  0
 29 22  1  0  0  0  0
 30 27  1  0  0  0  0
M  END
>  <MODEL>
7

>  <REMARK>
 VINA RESULT:      -6.7      2.750      4.643
  Name = 
  0 active torsions:
  status: ('A' for Active; 'I' for Inactive)
                            x       y       z     vdW  Elec       q    Type
                         _______ _______ _______ _____ _____    ______ ____

>  <TORSDO>
F 0

$$$$
=
 OpenBabel11052412333D

 30 35  0  0  1  0  0  0  0  0999 V2000
  187.0680  178.6580  140.8960 C   0  0  1  0  0  3  0  0  0  0  0  0
  184.5190  179.3780  140.5320 C   0  0  2  0  0  3  0  0  0  0  0  0
  185.5530  178.4630  144.2170 N   0  0  0  0  0  2  0  0  0  0  0  0
  187.9960  178.0970  141.9950 C   0  0  1  0  0  3  0  0  0  0  0  0
  187.1600  177.8720  139.6640 N   0  0  0  0  0  0  0  0  0  0  0  0
  190.8250  176.4240  139.4120 S   0  0  0  0  0  0  0  0  0  0  0  0
  190.4550  177.7530  143.8030 C   0  0  1  0  0  3  0  0  0  0  0  0
  189.4410  177.2780  140.1810 C   0  0  1  0  0  3  0  0  0  0  0  0
  188.4160  176.5930  138.1040 N   0  0  0  0  0  2  0  0  0  0  0  0
  189.2460  177.4760  144.6960 C   0  0  1  0  0  3  0  0  0  0  0  0
  186.7330  177.7640  144.6200 C   0  0  0  0  0  0  0  0  0  0  0  0
  188.2830  177.3400  139.2990 C   0  0  0  0  0  0  0  0  0  0  0  0
  189.3300  177.5590  141.4910 C   0  0  2  0  0  3  0  0  0  0  0  0
  183.2200  178.5640  140.5540 C   0  0  0  0  0  2  0  0  0  0  0  0
  189.7690  177.5760  146.1080 C   0  0  0  0  0  2  0  0  0  0  0  0
  191.6800  177.3510  144.6050 C   0  0  0  0  0  2  0  0  0  0  0  0
  190.0120  175.0740  137.1750 C   0  0  0  0  0  2  0  0  0  0  0  0
  184.9330  179.6390  139.0940 C   0  0  0  0  0  1  0  0  0  0  0  0
  184.5850  177.8790  143.2900 C   0  0  1  0  0  3  0  0  0  0  0  0
  182.5050  178.5270  141.9170 C   0  0  0  0  0  2  0  0  0  0  0  0
  189.7210  176.0260  138.0460 C   0  0  0  0  0  0  0  0  0  0  0  0
  185.6210  178.7410  141.4200 C   0  0  1  0  0  3  0  0  0  0  0  0
  188.1470  179.1320  143.1050 C   0  0  0  0  0  2  0  0  0  0  0  0
  186.6490  176.5690  145.0140 O   0  0  0  0  0  0  0  0  0  0  0  0
  188.0730  178.4480  144.4750 C   0  0  2  0  0  3  0  0  0  0  0  0
  191.2150  177.1260  146.0350 C   0  0  0  0  0  2  0  0  0  0  0  0
  190.2050  175.5120  142.6370 C   0  0  0  0  0  1  0  0  0  0  0  0
  183.3870  178.8310  143.1340 C   0  0  0  0  0  2  0  0  0  0  0  0
  185.2040  177.5480  142.0550 O   0  0  0  0  0  0  0  0  0  0  0  0
  190.3750  177.0180  142.4540 C   0  0  2  0  0  3  0  0  0  0  0  0
  1  5  1  6  0  0  0
  1 22  1  0  0  0  0
  1  4  1  0  0  0  0
  2 18  1  6  0  0  0
  2 14  1  0  0  0  0
  2 22  1  0  0  0  0
  3 11  1  0  0  0  0
  4 23  1  1  0  0  0
  6  8  1  0  0  0  0
  7 16  1  1  0  0  0
  7 10  1  0  0  0  0
  8 12  1  1  0  0  0
  8 13  1  0  0  0  0
  9 12  1  0  0  0  0
 10 15  1  1  0  0  0
 11 24  2  0  0  0  0
 12  5  2  0  0  0  0
 13  4  1  0  0  0  0
 13 30  1  0  0  0  0
 14 20  1  0  0  0  0
 16 26  1  0  0  0  0
 17 21  2  0  0  0  0
 19  3  1  0  0  0  0
 20 28  1  0  0  0  0
 21  9  1  0  0  0  0
 21  6  1  0  0  0  0
 22 29  1  0  0  0  0
 23 25  1  0  0  0  0
 25 11  1  0  0  0  0
 25 10  1  0  0  0  0
 26 15  1  0  0  0  0
 28 19  1  0  0  0  0
 29 19  1  0  0  0  0
 30 27  1  0  0  0  0
 30  7  1  0  0  0  0
M  END
>  <MODEL>
8

>  <REMARK>
 VINA RESULT:      -6.6      2.596      5.393
  Name = 
  0 active torsions:
  status: ('A' for Active; 'I' for Inactive)
                            x       y       z     vdW  Elec       q    Type
                         _______ _______ _______ _____ _____    ______ ____

>  <TORSDO>
F 0

$$$$
=
 OpenBabel11052412333D

 30 35  0  0  1  0  0  0  0  0999 V2000
  187.9980  178.0810  139.6010 C   0  0  1  0  0  3  0  0  0  0  0  0
  190.2610  177.0770  138.5900 C   0  0  2  0  0  3  0  0  0  0  0  0
  187.0150  176.5590  136.4270 N   0  0  0  0  0  2  0  0  0  0  0  0
  186.4800  178.0960  139.3240 C   0  0  1  0  0  3  0  0  0  0  0  0
  188.2880  177.6920  140.9830 N   0  0  0  0  0  0  0  0  0  0  0  0
  185.2940  178.9180  143.2480 S   0  0  0  0  0  0  0  0  0  0  0  0
  183.6170  179.1490  138.9670 C   0  0  1  0  0  3  0  0  0  0  0  0
  186.1760  178.6050  141.7110 C   0  0  1  0  0  3  0  0  0  0  0  0
  187.7540  177.6990  143.2990 N   0  0  0  0  0  0  0  0  0  0  0  0
  183.7910  178.0630  137.9060 C   0  0  1  0  0  3  0  0  0  0  0  0
  185.6650  176.7140  136.8700 C   0  0  0  0  0  0  0  0  0  0  0  0
  187.4960  178.0360  141.9490 C   0  0  0  0  0  0  0  0  0  0  0  0
  185.6230  178.5850  140.4850 C   0  0  2  0  0  3  0  0  0  0  0  0
  190.7520  175.6330  138.4380 C   0  0  0  0  0  2  0  0  0  0  0  0
  182.6670  178.2900  136.9230 C   0  0  0  0  0  2  0  0  0  0  0  0
  182.1420  179.5100  138.9730 C   0  0  0  0  0  2  0  0  0  0  0  0
  186.5160  177.6540  145.3440 C   0  0  0  0  0  1  0  0  0  0  0  0
  190.9320  177.7200  139.7920 C   0  0  0  0  0  1  0  0  0  0  0  0
  187.9360  175.6200  137.0640 C   0  0  1  0  0  3  0  0  0  0  0  0
  190.4310  174.9820  137.0790 C   0  0  0  0  0  2  0  0  0  0  0  0
  186.6460  178.0910  144.1030 C   0  0  0  0  0  0  0  0  0  0  0  0
  188.7110  177.1690  138.5840 C   0  0  1  0  0  3  0  0  0  0  0  0
  186.2110  178.8440  138.0230 C   0  0  0  0  0  2  0  0  0  0  0  0
  184.9450  175.6940  137.0560 O   0  0  0  0  0  0  0  0  0  0  0  0
  185.1560  178.0990  137.1960 C   0  0  2  0  0  3  0  0  0  0  0  0
  181.5270  178.8630  137.7410 C   0  0  0  0  0  2  0  0  0  0  0  0
  183.4320  177.4200  140.8170 C   0  0  0  0  0  1  0  0  0  0  0  0
  189.2720  175.6160  136.3010 C   0  0  0  0  0  2  0  0  0  0  0  0
  188.0800  175.9110  138.4470 O   0  0  0  0  0  0  0  0  0  0  0  0
  184.1130  178.7050  140.3530 C   0  0  2  0  0  3  0  0  0  0  0  0
  1  5  1  1  0  0  0
  2 18  1  1  0  0  0
  3 11  1  0  0  0  0
  3 19  1  0  0  0  0
  4 23  1  6  0  0  0
  4  1  1  0  0  0  0
  4 13  1  0  0  0  0
  5 12  2  0  0  0  0
  6 21  1  0  0  0  0
  7 16  1  1  0  0  0
  7 30  1  0  0  0  0
  8 12  1  1  0  0  0
  8  6  1  0  0  0  0
  9 21  2  0  0  0  0
 10 15  1  6  0  0  0
 10  7  1  0  0  0  0
 11 24  2  0  0  0  0
 11 25  1  0  0  0  0
 12  9  1  0  0  0  0
 13  8  1  0  0  0  0
 14  2  1  0  0  0  0
 15 26  1  0  0  0  0
 19 29  1  0  0  0  0
 20 14  1  0  0  0  0
 21 17  1  0  0  0  0
 22  2  1  0  0  0  0
 22  1  1  0  0  0  0
 25 10  1  0  0  0  0
 25 23  1  0  0  0  0
 26 16  1  0  0  0  0
 28 19  1  0  0  0  0
 28 20  1  0  0  0  0
 29 22  1  0  0  0  0
 30 13  1  0  0  0  0
 30 27  1  0  0  0  0
M  END
>  <MODEL>
9

>  <REMARK>
 VINA RESULT:      -6.4      2.208      3.992
  Name = 
  0 active torsions:
  status: ('A' for Active; 'I' for Inactive)
                            x       y       z     vdW  Elec       q    Type
                         _______ _______ _______ _____ _____    ______ ____

>  <TORSDO>
F 0

$$$$
