=
 OpenBabel11052413453D

 27 33  0  0  1  0  0  0  0  0999 V2000
  186.2140  177.8170  144.8330 C   0  0  0  0  0  2  0  0  0  0  0  0
  187.4650  178.0850  142.6580 C   0  0  0  0  0  0  0  0  0  0  0  0
  189.2890  178.0630  144.3710 N   0  0  0  0  0  2  0  0  0  0  0  0
  190.4250  177.5420  139.3650 C   0  0  0  0  0  3  0  0  0  0  0  0
  193.0300  177.2380  140.1140 Cl  0  0  0  0  0  0  0  0  0  0  0  0
  187.3440  178.0450  141.3040 N   0  0  0  0  0  0  0  0  0  0  0  0
  190.8430  177.5880  141.7790 C   0  0  0  0  0  0  0  0  0  0  0  0
  189.4880  177.5370  146.7940 C   0  0  1  0  0  3  0  0  0  0  0  0
  191.7750  177.5090  142.9440 C   0  0  0  0  0  1  0  0  0  0  0  0
  188.8460  177.7110  148.1740 C   0  0  0  0  0  2  0  0  0  0  0  0
  189.4630  177.7670  141.9520 C   0  0  0  0  0  0  0  0  0  0  0  0
  186.3520  178.4100  143.5070 N   0  0  0  0  0  0  0  0  0  0  0  0
  191.3220  177.4720  140.4530 C   0  0  0  0  0  0  0  0  0  0  0  0
  188.6060  177.8350  140.8890 C   0  0  0  0  0  0  0  0  0  0  0  0
  187.2040  178.4390  145.7900 C   0  0  1  0  0  3  0  0  0  0  0  0
  188.7490  177.9110  143.0810 N   0  0  0  0  0  0  0  0  0  0  0  0
  188.7890  176.3640  146.0980 C   0  0  0  0  0  2  0  0  0  0  0  0
  189.0490  177.7280  139.5740 C   0  0  0  0  0  3  0  0  0  0  0  0
  187.7440  178.7590  148.1910 C   0  0  0  0  0  2  0  0  0  0  0  0
  186.6650  178.3440  147.2120 C   0  0  0  0  0  2  0  0  0  0  0  0
  188.5670  177.7700  145.5960 C   0  0  1  0  0  0  0  0  0  0  0  0
  182.1970  179.3580  143.2560 C   0  0  0  0  0  2  0  0  0  0  0  0
  185.2300  179.1520  142.9280 C   0  0  2  0  0  3  0  0  0  0  0  0
  184.5000  179.9610  143.9840 C   0  0  0  0  0  2  0  0  0  0  0  0
  183.2360  179.2010  144.3480 C   0  0  2  0  0  3  0  0  0  0  0  0
  183.0500  178.1060  143.3090 C   0  0  2  0  0  3  0  0  0  0  0  0
  184.2030  178.2130  142.3240 C   0  0  0  0  0  2  0  0  0  0  0  0
  2 16  1  0  0  0  0
  2 12  1  0  0  0  0
  3 21  1  0  0  0  0
  4 18  2  0  0  0  0
  4 13  1  0  0  0  0
  5 13  1  0  0  0  0
  6  2  2  0  0  0  0
  7 11  1  0  0  0  0
  7  9  1  0  0  0  0
  8 17  1  1  0  0  0
  8 10  1  0  0  0  0
 10 19  1  0  0  0  0
 11 16  1  0  0  0  0
 12  1  1  0  0  0  0
 13  7  2  0  0  0  0
 14  6  1  0  0  0  0
 14 11  2  0  0  0  0
 15  1  1  6  0  0  0
 15 20  1  0  0  0  0
 16  3  1  0  0  0  0
 18 14  1  0  0  0  0
 20 19  1  0  0  0  0
 21 15  1  0  0  0  0
 21 17  1  6  0  0  0
 21  8  1  0  0  0  0
 22 26  1  0  0  0  0
 23 27  1  1  0  0  0
 23 12  1  0  0  0  0
 23 24  1  0  0  0  0
 24 25  1  0  0  0  0
 25 22  1  6  0  0  0
 26 27  1  6  0  0  0
 26 25  1  0  0  0  0
M  END
>  <MODEL>
1

>  <REMARK>
 VINA RESULT:      -8.9      0.000      0.000
  Name = 
  1 active torsions:
  status: ('A' for Active; 'I' for Inactive)
    1  A    between atoms: C_9  and  N_15
                            x       y       z     vdW  Elec       q    Type
                         _______ _______ _______ _____ _____    ______ ____

>  <TORSDO>
F 1

$$$$
=
 OpenBabel11052413453D

 27 33  0  0  1  0  0  0  0  0999 V2000
  186.9470  177.6520  143.3230 C   0  0  0  0  0  2  0  0  0  0  0  0
  186.9050  178.2220  140.8650 C   0  0  0  0  0  0  0  0  0  0  0  0
  189.3220  177.7420  141.3030 N   0  0  0  0  0  2  0  0  0  0  0  0
  187.5800  178.0740  136.4580 C   0  0  0  0  0  3  0  0  0  0  0  0
  190.1020  177.4370  135.6380 Cl  0  0  0  0  0  0  0  0  0  0  0  0
  186.0920  178.4450  139.7980 N   0  0  0  0  0  0  0  0  0  0  0  0
  189.1950  177.6400  138.2490 C   0  0  0  0  0  0  0  0  0  0  0  0
  190.6650  176.7620  143.1540 C   0  0  1  0  0  3  0  0  0  0  0  0
  190.5700  177.2740  138.7060 C   0  0  0  0  0  1  0  0  0  0  0  0
  190.8740  176.7250  144.6710 C   0  0  0  0  0  2  0  0  0  0  0  0
  188.1580  177.8890  139.1600 C   0  0  0  0  0  0  0  0  0  0  0  0
  186.4690  178.4690  142.2130 N   0  0  0  0  0  0  0  0  0  0  0  0
  188.8860  177.7350  136.8710 C   0  0  0  0  0  0  0  0  0  0  0  0
  186.8980  178.2180  138.7450 C   0  0  0  0  0  0  0  0  0  0  0  0
  188.3770  178.0080  143.6570 C   0  0  1  0  0  3  0  0  0  0  0  0
  188.1730  177.8750  140.5030 N   0  0  0  0  0  0  0  0  0  0  0  0
  189.5240  175.7960  142.8170 C   0  0  0  0  0  2  0  0  0  0  0  0
  186.5660  178.3240  137.3980 C   0  0  0  0  0  3  0  0  0  0  0  0
  190.1330  177.8330  145.4020 C   0  0  0  0  0  2  0  0  0  0  0  0
  188.6510  177.6920  145.1220 C   0  0  0  0  0  2  0  0  0  0  0  0
  189.3080  177.2830  142.6810 C   0  0  1  0  0  0  0  0  0  0  0  0
  182.6710  179.4540  143.8970 C   0  0  0  0  0  2  0  0  0  0  0  0
  185.3500  179.3900  142.4230 C   0  0  2  0  0  3  0  0  0  0  0  0
  185.1500  179.6880  143.8970 C   0  0  0  0  0  2  0  0  0  0  0  0
  183.9770  178.8510  144.3760 C   0  0  2  0  0  3  0  0  0  0  0  0
  183.2850  178.2900  143.1440 C   0  0  2  0  0  3  0  0  0  0  0  0
  184.0470  178.7920  141.9270 C   0  0  0  0  0  2  0  0  0  0  0  0
  2 12  1  0  0  0  0
  3 21  1  0  0  0  0
  4 13  2  0  0  0  0
  4 18  1  0  0  0  0
  5 13  1  0  0  0  0
  6  2  2  0  0  0  0
  7  9  1  0  0  0  0
  7 11  2  0  0  0  0
  8 17  1  1  0  0  0
  8 10  1  0  0  0  0
 10 19  1  0  0  0  0
 11 16  1  0  0  0  0
 12 23  1  0  0  0  0
 12  1  1  0  0  0  0
 13  7  1  0  0  0  0
 14 11  1  0  0  0  0
 14  6  1  0  0  0  0
 15  1  1  6  0  0  0
 15 20  1  0  0  0  0
 16  2  1  0  0  0  0
 16  3  1  0  0  0  0
 18 14  2  0  0  0  0
 20 19  1  0  0  0  0
 21 17  1  6  0  0  0
 21  8  1  0  0  0  0
 21 15  1  0  0  0  0
 23 27  1  1  0  0  0
 23 24  1  0  0  0  0
 24 25  1  0  0  0  0
 25 22  1  6  0  0  0
 26 27  1  6  0  0  0
 26 22  1  0  0  0  0
 26 25  1  0  0  0  0
M  END
>  <MODEL>
2

>  <REMARK>
 VINA RESULT:      -8.7      1.949      2.990
  Name = 
  1 active torsions:
  status: ('A' for Active; 'I' for Inactive)
    1  A    between atoms: C_9  and  N_15
                            x       y       z     vdW  Elec       q    Type
                         _______ _______ _______ _____ _____    ______ ____

>  <TORSDO>
F 1

$$$$
=
 OpenBabel11052413453D

 27 33  0  0  1  0  0  0  0  0999 V2000
  190.0550  177.9750  141.1770 C   0  0  0  0  0  2  0  0  0  0  0  0
  187.5450  178.1600  141.0000 C   0  0  0  0  0  0  0  0  0  0  0  0
  187.8990  177.3740  143.3490 N   0  0  0  0  0  2  0  0  0  0  0  0
  183.2860  179.1560  141.8790 C   0  0  0  0  0  3  0  0  0  0  0  0
  182.4620  178.7910  144.4540 Cl  0  0  0  0  0  0  0  0  0  0  0  0
  186.5240  178.6170  140.2260 N   0  0  0  0  0  0  0  0  0  0  0  0
  184.9950  178.3300  143.4290 C   0  0  0  0  0  0  0  0  0  0  0  0
  189.8280  177.1190  144.8990 C   0  0  1  0  0  3  0  0  0  0  0  0
  185.4210  177.9060  144.7970 C   0  0  0  0  0  1  0  0  0  0  0  0
  191.2830  176.6540  145.0300 C   0  0  0  0  0  2  0  0  0  0  0  0
  185.8900  178.3380  142.3490 C   0  0  0  0  0  0  0  0  0  0  0  0
  188.8130  177.7870  140.4350 N   0  0  0  0  0  0  0  0  0  0  0  0
  183.6690  178.7530  143.1770 C   0  0  0  0  0  0  0  0  0  0  0  0
  185.5050  178.7300  141.0970 C   0  0  0  0  0  0  0  0  0  0  0  0
  190.1720  176.9440  142.2740 C   0  0  1  0  0  3  0  0  0  0  0  0
  187.1860  177.9870  142.3030 N   0  0  0  0  0  0  0  0  0  0  0  0
  189.8440  178.5440  144.3350 C   0  0  0  0  0  2  0  0  0  0  0  0
  184.2070  179.1460  140.8180 C   0  0  0  0  0  3  0  0  0  0  0  0
  191.7590  175.8440  143.8340 C   0  0  0  0  0  2  0  0  0  0  0  0
  191.6420  176.7020  142.5900 C   0  0  0  0  0  2  0  0  0  0  0  0
  189.3460  177.4060  143.4770 C   0  0  1  0  0  0  0  0  0  0  0  0
  190.8100  176.1680  137.0270 C   0  0  0  0  0  2  0  0  0  0  0  0
  188.8650  177.4440  139.0120 C   0  0  2  0  0  3  0  0  0  0  0  0
  189.0870  175.9560  138.8120 C   0  0  0  0  0  2  0  0  0  0  0  0
  190.5520  175.7560  138.4620 C   0  0  2  0  0  3  0  0  0  0  0  0
  191.1370  177.1250  138.1550 C   0  0  2  0  0  3  0  0  0  0  0  0
  190.0200  178.1440  138.3210 C   0  0  0  0  0  2  0  0  0  0  0  0
  2 16  1  0  0  0  0
  3 21  1  0  0  0  0
  4 13  1  0  0  0  0
  6  2  2  0  0  0  0
  6 14  1  0  0  0  0
  7  9  1  0  0  0  0
  8 17  1  1  0  0  0
  8 10  1  0  0  0  0
 11  7  1  0  0  0  0
 12  2  1  0  0  0  0
 12  1  1  0  0  0  0
 13  7  2  0  0  0  0
 13  5  1  0  0  0  0
 14 11  2  0  0  0  0
 15  1  1  6  0  0  0
 15 20  1  0  0  0  0
 15 21  1  0  0  0  0
 16 11  1  0  0  0  0
 16  3  1  0  0  0  0
 18 14  1  0  0  0  0
 18  4  2  0  0  0  0
 19 10  1  0  0  0  0
 20 19  1  0  0  0  0
 21 17  1  6  0  0  0
 21  8  1  0  0  0  0
 23 27  1  1  0  0  0
 23 12  1  0  0  0  0
 24 23  1  0  0  0  0
 25 22  1  6  0  0  0
 25 24  1  0  0  0  0
 26 22  1  6  0  0  0
 26 27  1  0  0  0  0
 26 25  1  0  0  0  0
M  END
>  <MODEL>
3

>  <REMARK>
 VINA RESULT:      -8.5      2.816      6.266
  Name = 
  1 active torsions:
  status: ('A' for Active; 'I' for Inactive)
    1  A    between atoms: C_9  and  N_15
                            x       y       z     vdW  Elec       q    Type
                         _______ _______ _______ _____ _____    ______ ____

>  <TORSDO>
F 1

$$$$
=
 OpenBabel11052413453D

 27 33  0  0  1  0  0  0  0  0999 V2000
  185.8750  179.0030  140.0060 C   0  0  0  0  0  2  0  0  0  0  0  0
  185.2850  178.5960  142.4250 C   0  0  0  0  0  0  0  0  0  0  0  0
  187.5480  177.5510  142.2020 N   0  0  0  0  0  2  0  0  0  0  0  0
  185.5190  178.3690  146.8740 C   0  0  0  0  0  3  0  0  0  0  0  0
  187.8470  177.4040  147.9180 Cl  0  0  0  0  0  0  0  0  0  0  0  0
  184.4060  178.9100  143.4140 N   0  0  0  0  0  0  0  0  0  0  0  0
  187.2330  177.7450  145.2380 C   0  0  0  0  0  0  0  0  0  0  0  0
  189.3690  177.5270  140.5080 C   0  0  1  0  0  3  0  0  0  0  0  0
  188.5940  177.2230  144.9070 C   0  0  0  0  0  1  0  0  0  0  0  0
  189.6950  177.4160  139.0140 C   0  0  0  0  0  2  0  0  0  0  0  0
  186.3350  178.1450  144.2370 C   0  0  0  0  0  0  0  0  0  0  0  0
  184.9110  178.6390  141.0380 N   0  0  0  0  0  0  0  0  0  0  0  0
  186.8060  177.8670  146.5810 C   0  0  0  0  0  0  0  0  0  0  0  0
  185.0920  178.6290  144.5360 C   0  0  0  0  0  0  0  0  0  0  0  0
  186.8430  177.8670  139.7710 C   0  0  1  0  0  3  0  0  0  0  0  0
  186.4750  178.1320  142.9010 N   0  0  0  0  0  0  0  0  0  0  0  0
  188.9920  178.9850  140.7950 C   0  0  0  0  0  2  0  0  0  0  0  0
  184.6430  178.7550  145.8470 C   0  0  0  0  0  3  0  0  0  0  0  0
  188.5130  176.9510  138.1790 C   0  0  0  0  0  2  0  0  0  0  0  0
  187.3800  177.9430  138.3470 C   0  0  0  0  0  2  0  0  0  0  0  0
  187.9300  177.9140  140.8480 C   0  0  1  0  0  0  0  0  0  0  0  0
  181.7310  177.6700  138.3580 C   0  0  0  0  0  2  0  0  0  0  0  0
  183.4880  178.5540  140.7010 C   0  0  2  0  0  3  0  0  0  0  0  0
  183.0820  177.1280  140.3790 C   0  0  0  0  0  2  0  0  0  0  0  0
  182.9960  177.0080  138.8670 C   0  0  2  0  0  3  0  0  0  0  0  0
  183.0490  178.4160  138.2960 C   0  0  2  0  0  3  0  0  0  0  0  0
  183.1660  179.3780  139.4680 C   0  0  0  0  0  2  0  0  0  0  0  0
  1 12  1  0  0  0  0
  2 16  1  0  0  0  0
  2  6  2  0  0  0  0
  3 16  1  0  0  0  0
  6 14  1  0  0  0  0
  7 13  2  0  0  0  0
  8 10  1  6  0  0  0
  8 17  1  0  0  0  0
  8 21  1  0  0  0  0
  9  7  1  0  0  0  0
 11 14  2  0  0  0  0
 11  7  1  0  0  0  0
 12  2  1  0  0  0  0
 13  4  1  0  0  0  0
 13  5  1  0  0  0  0
 14 18  1  0  0  0  0
 15 20  1  6  0  0  0
 15  1  1  0  0  0  0
 15 21  1  0  0  0  0
 16 11  1  0  0  0  0
 18  4  2  0  0  0  0
 19 20  1  0  0  0  0
 19 10  1  0  0  0  0
 21 17  1  1  0  0  0
 21  3  1  0  0  0  0
 23 27  1  6  0  0  0
 23 12  1  0  0  0  0
 24 23  1  0  0  0  0
 25 22  1  1  0  0  0
 25 24  1  0  0  0  0
 26 22  1  1  0  0  0
 26 25  1  0  0  0  0
 26 27  1  0  0  0  0
M  END
>  <MODEL>
4

>  <REMARK>
 VINA RESULT:      -8.5      2.784      5.975
  Name = 
  1 active torsions:
  status: ('A' for Active; 'I' for Inactive)
    1  A    between atoms: C_9  and  N_15
                            x       y       z     vdW  Elec       q    Type
                         _______ _______ _______ _____ _____    ______ ____

>  <TORSDO>
F 1

$$$$
=
 OpenBabel11052413453D

 27 33  0  0  1  0  0  0  0  0999 V2000
  188.8430  178.0690  144.5270 C   0  0  0  0  0  2  0  0  0  0  0  0
  186.9110  178.0440  142.9040 C   0  0  0  0  0  0  0  0  0  0  0  0
  185.7900  177.8760  145.1350 N   0  0  0  0  0  2  0  0  0  0  0  0
  183.0220  178.9500  140.9150 C   0  0  0  0  0  3  0  0  0  0  0  0
  180.8480  179.1690  142.5470 Cl  0  0  0  0  0  0  0  0  0  0  0  0
  186.5600  178.2340  141.6030 N   0  0  0  0  0  0  0  0  0  0  0  0
  183.4590  178.6350  143.3050 C   0  0  0  0  0  0  0  0  0  0  0  0
  186.4570  178.1300  147.5170 C   0  0  1  0  0  3  0  0  0  0  0  0
  182.9880  178.5850  144.7230 C   0  0  0  0  0  1  0  0  0  0  0  0
  187.5280  177.8040  148.5640 C   0  0  0  0  0  2  0  0  0  0  0  0
  184.8060  178.4390  142.9700 C   0  0  0  0  0  0  0  0  0  0  0  0
  188.2350  177.6270  143.2770 N   0  0  0  0  0  0  0  0  0  0  0  0
  182.5580  178.8990  142.2470 C   0  0  0  0  0  0  0  0  0  0  0  0
  185.2420  178.4890  141.6750 C   0  0  0  0  0  0  0  0  0  0  0  0
  188.2200  177.3440  145.6960 C   0  0  1  0  0  3  0  0  0  0  0  0
  185.8590  178.1700  143.7610 N   0  0  0  0  0  0  0  0  0  0  0  0
  186.9190  179.3730  146.7490 C   0  0  0  0  0  2  0  0  0  0  0  0
  184.3780  178.7410  140.6130 C   0  0  0  0  0  3  0  0  0  0  0  0
  188.5270  176.7600  148.0890 C   0  0  0  0  0  2  0  0  0  0  0  0
  189.2180  177.2810  146.8460 C   0  0  0  0  0  2  0  0  0  0  0  0
  186.9000  178.0310  146.0580 C   0  0  1  0  0  0  0  0  0  0  0  0
  192.0090  176.7230  141.4960 C   0  0  0  0  0  2  0  0  0  0  0  0
  189.0600  176.9530  142.2710 C   0  0  2  0  0  3  0  0  0  0  0  0
  190.0830  176.0400  142.9190 C   0  0  0  0  0  2  0  0  0  0  0  0
  191.4200  176.7610  142.8920 C   0  0  2  0  0  3  0  0  0  0  0  0
  191.2710  177.9600  141.9690 C   0  0  2  0  0  3  0  0  0  0  0  0
  189.8440  177.9540  141.4430 C   0  0  0  0  0  2  0  0  0  0  0  0
  2 12  1  0  0  0  0
  2 16  1  0  0  0  0
  3 21  1  0  0  0  0
  4 13  1  0  0  0  0
  6 14  1  0  0  0  0
  6  2  2  0  0  0  0
  7  9  1  0  0  0  0
  8 17  1  1  0  0  0
  8 10  1  0  0  0  0
 11  7  1  0  0  0  0
 11 16  1  0  0  0  0
 12  1  1  0  0  0  0
 13  5  1  0  0  0  0
 13  7  2  0  0  0  0
 14 11  2  0  0  0  0
 15  1  1  6  0  0  0
 15 21  1  0  0  0  0
 15 20  1  0  0  0  0
 16  3  1  0  0  0  0
 18  4  2  0  0  0  0
 18 14  1  0  0  0  0
 19 10  1  0  0  0  0
 20 19  1  0  0  0  0
 21 17  1  6  0  0  0
 21  8  1  0  0  0  0
 22 26  1  0  0  0  0
 23 27  1  1  0  0  0
 23 24  1  0  0  0  0
 23 12  1  0  0  0  0
 25 22  1  6  0  0  0
 25 24  1  0  0  0  0
 26 27  1  6  0  0  0
 26 25  1  0  0  0  0
M  END
>  <MODEL>
5

>  <REMARK>
 VINA RESULT:      -8.2      2.657      5.857
  Name = 
  1 active torsions:
  status: ('A' for Active; 'I' for Inactive)
    1  A    between atoms: C_9  and  N_15
                            x       y       z     vdW  Elec       q    Type
                         _______ _______ _______ _____ _____    ______ ____

>  <TORSDO>
F 1

$$$$
=
 OpenBabel11052413453D

 27 33  0  0  1  0  0  0  0  0999 V2000
  189.1480  177.3760  140.5300 C   0  0  0  0  0  2  0  0  0  0  0  0
  187.3370  178.1130  142.1250 C   0  0  0  0  0  0  0  0  0  0  0  0
  186.3800  178.6560  139.8780 N   0  0  0  0  0  2  0  0  0  0  0  0
  183.3610  178.6950  144.0620 C   0  0  0  0  0  3  0  0  0  0  0  0
  181.2740  179.2640  142.3990 Cl  0  0  0  0  0  0  0  0  0  0  0  0
  186.9260  178.0740  143.4210 N   0  0  0  0  0  0  0  0  0  0  0  0
  183.9100  178.8090  141.6760 C   0  0  0  0  0  0  0  0  0  0  0  0
  186.9390  178.1580  137.5060 C   0  0  1  0  0  3  0  0  0  0  0  0
  183.5070  179.0140  140.2520 C   0  0  0  0  0  1  0  0  0  0  0  0
  188.0680  178.0640  136.4740 C   0  0  0  0  0  2  0  0  0  0  0  0
  185.2340  178.5070  142.0300 C   0  0  0  0  0  0  0  0  0  0  0  0
  188.7270  178.0190  141.7700 N   0  0  0  0  0  0  0  0  0  0  0  0
  182.9630  178.8990  142.7230 C   0  0  0  0  0  0  0  0  0  0  0  0
  185.6050  178.3130  143.3310 C   0  0  0  0  0  0  0  0  0  0  0  0
  188.8440  178.2670  139.3490 C   0  0  1  0  0  3  0  0  0  0  0  0
  186.3210  178.3690  141.2540 N   0  0  0  0  0  0  0  0  0  0  0  0
  186.9090  176.8380  138.2850 C   0  0  0  0  0  2  0  0  0  0  0  0
  184.6960  178.4000  144.3820 C   0  0  0  0  0  3  0  0  0  0  0  0
  189.3710  178.6790  136.9590 C   0  0  0  0  0  2  0  0  0  0  0  0
  189.8110  177.9540  138.2140 C   0  0  0  0  0  2  0  0  0  0  0  0
  187.3700  178.1010  138.9710 C   0  0  1  0  0  0  0  0  0  0  0  0
  191.5560  176.9260  144.7760 C   0  0  0  0  0  2  0  0  0  0  0  0
  189.7270  178.3570  142.7850 C   0  0  2  0  0  3  0  0  0  0  0  0
  191.0700  177.7250  142.4680 C   0  0  0  0  0  2  0  0  0  0  0  0
  191.2210  176.5040  143.3590 C   0  0  2  0  0  3  0  0  0  0  0  0
  190.1270  176.5720  144.4130 C   0  0  2  0  0  3  0  0  0  0  0  0
  189.3220  177.8350  144.1510 C   0  0  0  0  0  2  0  0  0  0  0  0
  1 12  1  0  0  0  0
  2  6  2  0  0  0  0
  3 16  1  0  0  0  0
  4 18  1  0  0  0  0
  5 13  1  0  0  0  0
  7 11  2  0  0  0  0
  7 13  1  0  0  0  0
  8 10  1  6  0  0  0
  8 17  1  0  0  0  0
  8 21  1  0  0  0  0
  9  7  1  0  0  0  0
 10 19  1  0  0  0  0
 11 14  1  0  0  0  0
 12  2  1  0  0  0  0
 13  4  2  0  0  0  0
 14  6  1  0  0  0  0
 14 18  2  0  0  0  0
 15 20  1  6  0  0  0
 15  1  1  0  0  0  0
 16 11  1  0  0  0  0
 16  2  1  0  0  0  0
 19 20  1  0  0  0  0
 21 17  1  1  0  0  0
 21 15  1  0  0  0  0
 21  3  1  0  0  0  0
 23 12  1  6  0  0  0
 23 27  1  0  0  0  0
 24 23  1  0  0  0  0
 25 24  1  6  0  0  0
 25 26  1  0  0  0  0
 25 22  1  0  0  0  0
 26 27  1  6  0  0  0
 26 22  1  0  0  0  0
M  END
>  <MODEL>
6

>  <REMARK>
 VINA RESULT:      -8.2      3.023      7.475
  Name = 
  1 active torsions:
  status: ('A' for Active; 'I' for Inactive)
    1  A    between atoms: C_9  and  N_15
                            x       y       z     vdW  Elec       q    Type
                         _______ _______ _______ _____ _____    ______ ____

>  <TORSDO>
F 1

$$$$
=
 OpenBabel11052413453D

 27 33  0  0  1  0  0  0  0  0999 V2000
  190.4970  176.5380  143.8970 C   0  0  0  0  0  2  0  0  0  0  0  0
  188.4370  177.5020  144.9910 C   0  0  0  0  0  0  0  0  0  0  0  0
  188.2140  178.2260  142.6060 N   0  0  0  0  0  2  0  0  0  0  0  0
  184.2020  178.6270  145.8240 C   0  0  0  0  0  3  0  0  0  0  0  0
  182.7470  179.5320  143.7020 Cl  0  0  0  0  0  0  0  0  0  0  0  0
  187.6860  177.4990  146.1250 N   0  0  0  0  0  0  0  0  0  0  0  0
  185.3920  178.7070  143.6840 C   0  0  0  0  0  0  0  0  0  0  0  0
  189.3260  177.6990  140.4440 C   0  0  1  0  0  3  0  0  0  0  0  0
  185.4250  178.9980  142.2190 C   0  0  0  0  0  1  0  0  0  0  0  0
  190.6700  177.4600  139.7480 C   0  0  0  0  0  2  0  0  0  0  0  0
  186.5140  178.2050  144.3600 C   0  0  0  0  0  0  0  0  0  0  0  0
  189.8450  177.2110  145.0150 N   0  0  0  0  0  0  0  0  0  0  0  0
  184.2160  178.9150  144.4420 C   0  0  0  0  0  0  0  0  0  0  0  0
  186.4860  177.9330  145.6990 C   0  0  0  0  0  0  0  0  0  0  0  0
  190.6520  177.4880  142.7330 C   0  0  1  0  0  3  0  0  0  0  0  0
  187.7430  177.9240  143.8960 N   0  0  0  0  0  0  0  0  0  0  0  0
  188.9040  176.3830  141.1070 C   0  0  0  0  0  2  0  0  0  0  0  0
  185.3460  178.1320  146.4720 C   0  0  0  0  0  3  0  0  0  0  0  0
  191.8630  177.8650  140.5990 C   0  0  0  0  0  2  0  0  0  0  0  0
  191.8400  177.0580  141.8810 C   0  0  0  0  0  2  0  0  0  0  0  0
  189.3280  177.5500  141.9650 C   0  0  1  0  0  0  0  0  0  0  0  0
  192.3470  175.7300  148.1410 C   0  0  0  0  0  2  0  0  0  0  0  0
  190.5660  177.3770  146.2790 C   0  0  2  0  0  3  0  0  0  0  0  0
  192.0520  177.1280  146.1020 C   0  0  0  0  0  2  0  0  0  0  0  0
  192.3470  175.7330  146.6260 C   0  0  2  0  0  3  0  0  0  0  0  0
  191.1170  175.2650  147.3870 C   0  0  2  0  0  3  0  0  0  0  0  0
  190.0880  176.3820  147.3190 C   0  0  0  0  0  2  0  0  0  0  0  0
  1 12  1  0  0  0  0
  2 12  1  0  0  0  0
  2  6  2  0  0  0  0
  3 16  1  0  0  0  0
  4 18  1  0  0  0  0
  5 13  1  0  0  0  0
  7 11  2  0  0  0  0
  7 13  1  0  0  0  0
  8 10  1  6  0  0  0
  8 17  1  0  0  0  0
  8 21  1  0  0  0  0
  9  7  1  0  0  0  0
 10 19  1  0  0  0  0
 11 14  1  0  0  0  0
 13  4  2  0  0  0  0
 14  6  1  0  0  0  0
 14 18  2  0  0  0  0
 15 20  1  6  0  0  0
 15  1  1  0  0  0  0
 16 11  1  0  0  0  0
 16  2  1  0  0  0  0
 19 20  1  0  0  0  0
 21 17  1  1  0  0  0
 21  3  1  0  0  0  0
 21 15  1  0  0  0  0
 23 12  1  6  0  0  0
 23 27  1  0  0  0  0
 24 23  1  0  0  0  0
 25 24  1  1  0  0  0
 25 26  1  0  0  0  0
 25 22  1  0  0  0  0
 26 27  1  1  0  0  0
 26 22  1  0  0  0  0
M  END
>  <MODEL>
7

>  <REMARK>
 VINA RESULT:      -8.0      2.697      7.050
  Name = 
  1 active torsions:
  status: ('A' for Active; 'I' for Inactive)
    1  A    between atoms: C_9  and  N_15
                            x       y       z     vdW  Elec       q    Type
                         _______ _______ _______ _____ _____    ______ ____

>  <TORSDO>
F 1

$$$$
=
 OpenBabel11052413453D

 27 33  0  0  1  0  0  0  0  0999 V2000
  186.4300  177.8350  139.4340 C   0  0  0  0  0  2  0  0  0  0  0  0
  187.7460  177.8770  141.5860 C   0  0  0  0  0  0  0  0  0  0  0  0
  185.5120  178.7810  142.2610 N   0  0  0  0  0  2  0  0  0  0  0  0
  188.9230  177.3480  145.8570 C   0  0  0  0  0  3  0  0  0  0  0  0
  187.0290  177.9590  147.7210 Cl  0  0  0  0  0  0  0  0  0  0  0  0
  188.8970  177.4670  142.1840 N   0  0  0  0  0  0  0  0  0  0  0  0
  186.7710  178.1100  144.9670 C   0  0  0  0  0  0  0  0  0  0  0  0
  183.2490  178.9540  141.2430 C   0  0  1  0  0  3  0  0  0  0  0  0
  185.3680  178.5810  145.1700 C   0  0  0  0  0  1  0  0  0  0  0  0
  182.4670  179.2880  139.9680 C   0  0  0  0  0  2  0  0  0  0  0  0
  187.3140  177.9460  143.6840 C   0  0  0  0  0  0  0  0  0  0  0  0
  187.6650  178.0910  140.1670 N   0  0  0  0  0  0  0  0  0  0  0  0
  187.6030  177.7990  146.0680 C   0  0  0  0  0  0  0  0  0  0  0  0
  188.5960  177.5100  143.4940 C   0  0  0  0  0  0  0  0  0  0  0  0
  185.4190  178.9220  139.7160 C   0  0  1  0  0  3  0  0  0  0  0  0
  186.7600  178.1700  142.4810 N   0  0  0  0  0  0  0  0  0  0  0  0
  183.7200  177.5000  141.1340 C   0  0  0  0  0  2  0  0  0  0  0  0
  189.4380  177.2000  144.5580 C   0  0  0  0  0  3  0  0  0  0  0  0
  183.3190  179.9680  138.9070 C   0  0  0  0  0  2  0  0  0  0  0  0
  184.4620  179.0440  138.5380 C   0  0  0  0  0  2  0  0  0  0  0  0
  184.7280  178.6200  141.0490 C   0  0  1  0  0  0  0  0  0  0  0  0
  190.4660  177.1160  137.0960 C   0  0  0  0  0  2  0  0  0  0  0  0
  188.9070  178.3320  139.4290 C   0  0  2  0  0  3  0  0  0  0  0  0
  188.6350  178.5690  137.9550 C   0  0  0  0  0  2  0  0  0  0  0  0
  188.9640  177.2820  137.2180 C   0  0  2  0  0  3  0  0  0  0  0  0
  189.7130  176.3820  138.1880 C   0  0  2  0  0  3  0  0  0  0  0  0
  189.8320  177.1320  139.5050 C   0  0  0  0  0  2  0  0  0  0  0  0
  1 15  1  0  0  0  0
  1 12  1  0  0  0  0
  2  6  2  0  0  0  0
  2 16  1  0  0  0  0
  3 16  1  0  0  0  0
  4 13  1  0  0  0  0
  6 14  1  0  0  0  0
  7  9  1  0  0  0  0
  7 13  2  0  0  0  0
  8 10  1  6  0  0  0
 11  7  1  0  0  0  0
 12  2  1  0  0  0  0
 13  5  1  0  0  0  0
 14 11  2  0  0  0  0
 14 18  1  0  0  0  0
 15 20  1  6  0  0  0
 15 21  1  0  0  0  0
 16 11  1  0  0  0  0
 17  8  1  0  0  0  0
 18  4  2  0  0  0  0
 19 10  1  0  0  0  0
 20 19  1  0  0  0  0
 21 17  1  6  0  0  0
 21  8  1  0  0  0  0
 21  3  1  0  0  0  0
 23 24  1  6  0  0  0
 23 27  1  0  0  0  0
 23 12  1  0  0  0  0
 25 22  1  6  0  0  0
 25 24  1  0  0  0  0
 25 26  1  0  0  0  0
 26 22  1  6  0  0  0
 26 27  1  0  0  0  0
M  END
>  <MODEL>
8

>  <REMARK>
 VINA RESULT:      -7.9      2.665      6.837
  Name = 
  1 active torsions:
  status: ('A' for Active; 'I' for Inactive)
    1  A    between atoms: C_9  and  N_15
                            x       y       z     vdW  Elec       q    Type
                         _______ _______ _______ _____ _____    ______ ____

>  <TORSDO>
F 1

$$$$
=
 OpenBabel11052413453D

 27 33  0  0  1  0  0  0  0  0999 V2000
  187.5210  178.3130  144.8600 C   0  0  0  0  0  2  0  0  0  0  0  0
  188.4240  177.7030  142.5840 C   0  0  0  0  0  0  0  0  0  0  0  0
  186.0120  178.1980  142.1330 N   0  0  0  0  0  2  0  0  0  0  0  0
  189.3510  177.7830  138.2210 C   0  0  0  0  0  3  0  0  0  0  0  0
  187.2870  178.4150  136.5540 Cl  0  0  0  0  0  0  0  0  0  0  0  0
  189.5600  177.4620  141.8760 N   0  0  0  0  0  0  0  0  0  0  0  0
  187.2110  178.2510  139.3190 C   0  0  0  0  0  0  0  0  0  0  0  0
  184.1110  179.2110  143.3760 C   0  0  1  0  0  3  0  0  0  0  0  0
  185.7670  178.6290  139.2560 C   0  0  0  0  0  1  0  0  0  0  0  0
  183.3790  179.2730  144.7210 C   0  0  0  0  0  2  0  0  0  0  0  0
  187.8570  178.0140  140.5410 C   0  0  0  0  0  0  0  0  0  0  0  0
  188.3540  177.4780  144.0020 N   0  0  0  0  0  0  0  0  0  0  0  0
  187.9860  178.1330  138.1410 C   0  0  0  0  0  0  0  0  0  0  0  0
  189.1790  177.6740  140.6030 C   0  0  0  0  0  0  0  0  0  0  0  0
  186.0630  177.9670  144.6720 C   0  0  1  0  0  3  0  0  0  0  0  0
  187.3690  178.0490  141.7930 N   0  0  0  0  0  0  0  0  0  0  0  0
  185.3050  180.1690  143.4500 C   0  0  0  0  0  2  0  0  0  0  0  0
  189.9650  177.5460  139.4620 C   0  0  0  0  0  3  0  0  0  0  0  0
  183.8050  178.1750  145.6820 C   0  0  0  0  0  2  0  0  0  0  0  0
  185.2920  178.3070  145.9410 C   0  0  0  0  0  2  0  0  0  0  0  0
  185.5430  178.6790  143.4200 C   0  0  1  0  0  0  0  0  0  0  0  0
  191.6810  176.6500  146.5470 C   0  0  0  0  0  2  0  0  0  0  0  0
  189.3190  176.5560  144.6060 C   0  0  2  0  0  3  0  0  0  0  0  0
  189.2280  176.5790  146.1210 C   0  0  0  0  0  2  0  0  0  0  0  0
  190.3810  177.4250  146.6330 C   0  0  2  0  0  3  0  0  0  0  0  0
  191.3300  177.6560  145.4680 C   0  0  2  0  0  3  0  0  0  0  0  0
  190.7430  176.9460  144.2580 C   0  0  0  0  0  2  0  0  0  0  0  0
  2 12  1  0  0  0  0
  3 21  1  0  0  0  0
  4 18  1  0  0  0  0
  5 13  1  0  0  0  0
  6  2  2  0  0  0  0
  7 11  2  0  0  0  0
  8 21  1  0  0  0  0
  8 17  1  1  0  0  0
  8 10  1  0  0  0  0
  9  7  1  0  0  0  0
 10 19  1  0  0  0  0
 11 14  1  0  0  0  0
 11 16  1  0  0  0  0
 12  1  1  0  0  0  0
 13  4  2  0  0  0  0
 13  7  1  0  0  0  0
 14  6  1  0  0  0  0
 15  1  1  1  0  0  0
 15 20  1  0  0  0  0
 16  3  1  0  0  0  0
 16  2  1  0  0  0  0
 18 14  2  0  0  0  0
 19 20  1  0  0  0  0
 21 17  1  1  0  0  0
 21 15  1  0  0  0  0
 22 25  1  0  0  0  0
 23 12  1  6  0  0  0
 23 24  1  0  0  0  0
 25 24  1  6  0  0  0
 26 27  1  6  0  0  0
 26 22  1  0  0  0  0
 26 25  1  0  0  0  0
 27 23  1  0  0  0  0
M  END
>  <MODEL>
9

>  <REMARK>
 VINA RESULT:      -7.8      1.948      5.071
  Name = 
  1 active torsions:
  status: ('A' for Active; 'I' for Inactive)
    1  A    between atoms: C_9  and  N_15
                            x       y       z     vdW  Elec       q    Type
                         _______ _______ _______ _____ _____    ______ ____

>  <TORSDO>
F 1

$$$$
