=
 OpenBabel11052413243D

 28 31  0  0  1  0  0  0  0  0999 V2000
  191.2750  179.7160  143.9710 C   0  0  0  0  0  1  0  0  0  0  0  0
  189.9730  177.3310  141.3450 C   0  0  1  0  0  3  0  0  0  0  0  0
  189.8980  177.3280  144.1010 C   0  0  2  0  0  0  0  0  0  0  0  0
  188.5700  177.5850  141.9070 C   0  0  0  0  0  2  0  0  0  0  0  0
  190.0300  177.5710  145.4600 C   0  0  0  0  0  0  0  0  0  0  0  0
  190.8310  176.2830  143.4860 C   0  0  0  0  0  2  0  0  0  0  0  0
  190.5790  178.5120  144.3810 N   0  0  0  0  0  0  0  0  0  0  0  0
  190.5910  176.0860  141.9850 C   0  0  0  0  0  2  0  0  0  0  0  0
  189.8480  177.2660  146.6670 O   0  0  0  0  0  0  0  0  0  0  0  0
  188.5340  177.6070  143.4470 C   0  0  1  0  0  3  0  0  0  0  0  0
  190.8920  176.2940  139.2760 C   0  0  0  0  0  2  0  0  0  0  0  0
  188.7330  177.6030  137.6680 C   0  0  0  0  0  2  0  0  0  0  0  0
  189.7060  176.5680  137.0830 C   0  0  2  0  0  3  0  0  0  0  0  0
  189.9590  177.2330  139.8870 N   0  0  0  0  0  0  0  0  0  0  0  0
  188.5550  179.0770  139.5240 O   0  0  0  0  0  0  0  0  0  0  0  0
  189.0920  178.0370  139.0610 C   0  0  0  0  0  0  0  0  0  0  0  0
  190.2400  175.5650  138.1100 C   0  0  0  0  0  2  0  0  0  0  0  0
  191.2180  176.1440  135.5410 O   0  0  0  0  0  1  0  0  0  0  0  0
  190.7110  177.1240  136.2650 O   0  0  0  0  0  0  0  0  0  0  0  0
  187.3950  176.7460  144.0130 C   0  0  0  0  0  2  0  0  0  0  0  0
  186.2460  177.5430  144.5580 C   0  0  0  0  0  0  0  0  0  0  0  0
  186.1530  177.7540  145.9380 C   0  0  0  0  0  3  0  0  0  0  0  0
  184.2000  178.8090  144.2400 C   0  0  0  0  0  0  0  0  0  0  0  0
  185.0930  178.4960  146.4670 C   0  0  0  0  0  3  0  0  0  0  0  0
  185.3100  177.8380  142.3710 F   0  0  0  0  0  0  0  0  0  0  0  0
  185.2570  178.0630  143.7070 C   0  0  0  0  0  0  0  0  0  0  0  0
  183.2450  179.3190  143.4240 F   0  0  0  0  0  0  0  0  0  0  0  0
  184.1180  179.0250  145.6180 C   0  0  0  0  0  3  0  0  0  0  0  0
  1  7  1  0  0  0  0
  2 14  1  6  0  0  0
  2  4  1  0  0  0  0
  2  8  1  0  0  0  0
  3  6  1  6  0  0  0
  3  7  1  0  0  0  0
  3  5  1  0  0  0  0
  4 10  1  0  0  0  0
  5  9  2  0  0  0  0
  7  5  1  0  0  0  0
  8  6  1  0  0  0  0
 10 20  1  1  0  0  0
 10  3  1  0  0  0  0
 11 14  1  0  0  0  0
 12 16  1  0  0  0  0
 13 19  1  1  0  0  0
 13 12  1  0  0  0  0
 13 17  1  0  0  0  0
 16 15  2  0  0  0  0
 16 14  1  0  0  0  0
 17 11  1  0  0  0  0
 18 19  1  0  0  0  0
 20 21  1  0  0  0  0
 21 22  1  0  0  0  0
 22 24  2  0  0  0  0
 23 28  2  0  0  0  0
 25 26  1  0  0  0  0
 26 23  1  0  0  0  0
 26 21  2  0  0  0  0
 27 23  1  0  0  0  0
 28 24  1  0  0  0  0
M  END
>  <MODEL>
1

>  <REMARK>
 VINA RESULT:      -8.8      0.000      0.000
  Name = 
  4 active torsions:
  status: ('A' for Active; 'I' for Inactive)
    1  A    between atoms: C_1  and  C_2
    2  A    between atoms: C_1  and  C_27
    3  A    between atoms: C_10  and  N_13
    4  A    between atoms: C_12  and  O_23
                            x       y       z     vdW  Elec       q    Type
                         _______ _______ _______ _____ _____    ______ ____

>  <TORSDO>
F 4

$$$$
=
 OpenBabel11052413243D

 28 31  0  0  1  0  0  0  0  0999 V2000
  191.3510  179.6060  143.9270 C   0  0  0  0  0  1  0  0  0  0  0  0
  189.6990  177.4870  141.2700 C   0  0  1  0  0  3  0  0  0  0  0  0
  189.9020  177.2590  144.0100 C   0  0  2  0  0  0  0  0  0  0  0  0
  188.3700  177.7360  141.9920 C   0  0  0  0  0  2  0  0  0  0  0  0
  190.1790  177.3830  145.3630 C   0  0  0  0  0  0  0  0  0  0  0  0
  190.7270  176.2400  143.2210 C   0  0  0  0  0  2  0  0  0  0  0  0
  190.6530  178.3930  144.3110 N   0  0  0  0  0  0  0  0  0  0  0  0
  190.3290  176.1760  141.7410 C   0  0  0  0  0  2  0  0  0  0  0  0
  190.1080  176.9850  146.5540 O   0  0  0  0  0  0  0  0  0  0  0  0
  188.4910  177.6320  143.5250 C   0  0  1  0  0  3  0  0  0  0  0  0
  188.4910  178.3770  139.2820 C   0  0  0  0  0  2  0  0  0  0  0  0
  190.5040  177.0790  137.4850 C   0  0  0  0  0  2  0  0  0  0  0  0
  189.4200  178.0410  136.9760 C   0  0  2  0  0  3  0  0  0  0  0  0
  189.5340  177.5100  139.8180 N   0  0  0  0  0  0  0  0  0  0  0  0
  190.9720  175.7110  139.3710 O   0  0  0  0  0  0  0  0  0  0  0  0
  190.3350  176.7030  138.9300 C   0  0  0  0  0  0  0  0  0  0  0  0
  188.9640  179.0710  138.0140 C   0  0  0  0  0  2  0  0  0  0  0  0
  187.5290  178.3440  135.8900 O   0  0  0  0  0  1  0  0  0  0  0  0
  188.3520  177.4020  136.3120 O   0  0  0  0  0  0  0  0  0  0  0  0
  187.3820  176.7630  144.1350 C   0  0  0  0  0  2  0  0  0  0  0  0
  186.2590  177.5510  144.7430 C   0  0  0  0  0  0  0  0  0  0  0  0
  186.2360  177.7560  146.1260 C   0  0  0  0  0  3  0  0  0  0  0  0
  184.1920  178.8070  144.5360 C   0  0  0  0  0  0  0  0  0  0  0  0
  185.2000  178.4890  146.7130 C   0  0  0  0  0  3  0  0  0  0  0  0
  185.2100  177.8510  142.6080 F   0  0  0  0  0  0  0  0  0  0  0  0
  185.2250  178.0690  143.9460 C   0  0  0  0  0  0  0  0  0  0  0  0
  183.1940  179.3160  143.7730 F   0  0  0  0  0  0  0  0  0  0  0  0
  184.1810  179.0170  145.9180 C   0  0  0  0  0  3  0  0  0  0  0  0
  1  7  1  0  0  0  0
  2 14  1  6  0  0  0
  2  8  1  0  0  0  0
  2  4  1  0  0  0  0
  3  6  1  6  0  0  0
  3  7  1  0  0  0  0
  3  5  1  0  0  0  0
  4 10  1  0  0  0  0
  5  9  2  0  0  0  0
  7  5  1  0  0  0  0
  8  6  1  0  0  0  0
 10  3  1  0  0  0  0
 10 20  1  6  0  0  0
 11 14  1  0  0  0  0
 12 16  1  0  0  0  0
 13 19  1  1  0  0  0
 13 12  1  0  0  0  0
 13 17  1  0  0  0  0
 16 15  2  0  0  0  0
 16 14  1  0  0  0  0
 17 11  1  0  0  0  0
 18 19  1  0  0  0  0
 20 21  1  0  0  0  0
 21 22  1  0  0  0  0
 22 24  2  0  0  0  0
 23 28  2  0  0  0  0
 25 26  1  0  0  0  0
 26 23  1  0  0  0  0
 26 21  2  0  0  0  0
 27 23  1  0  0  0  0
 28 24  1  0  0  0  0
M  END
>  <MODEL>
2

>  <REMARK>
 VINA RESULT:      -8.8      1.136      1.648
  Name = 
  4 active torsions:
  status: ('A' for Active; 'I' for Inactive)
    1  A    between atoms: C_1  and  C_2
    2  A    between atoms: C_1  and  C_27
    3  A    between atoms: C_10  and  N_13
    4  A    between atoms: C_12  and  O_23
                            x       y       z     vdW  Elec       q    Type
                         _______ _______ _______ _____ _____    ______ ____

>  <TORSDO>
F 4

$$$$
=
 OpenBabel11052413243D

 28 31  0  0  1  0  0  0  0  0999 V2000
  191.3770  179.5580  143.8250 C   0  0  0  0  0  1  0  0  0  0  0  0
  189.7420  177.4380  141.1580 C   0  0  1  0  0  3  0  0  0  0  0  0
  189.9280  177.2110  143.8990 C   0  0  2  0  0  0  0  0  0  0  0  0
  188.4090  177.6870  141.8720 C   0  0  0  0  0  2  0  0  0  0  0  0
  190.1960  177.3360  145.2540 C   0  0  0  0  0  0  0  0  0  0  0  0
  190.7580  176.1920  143.1160 C   0  0  0  0  0  2  0  0  0  0  0  0
  190.6770  178.3460  144.2050 N   0  0  0  0  0  0  0  0  0  0  0  0
  190.3700  176.1270  141.6340 C   0  0  0  0  0  2  0  0  0  0  0  0
  190.1180  176.9380  146.4450 O   0  0  0  0  0  0  0  0  0  0  0  0
  188.5200  177.5840  143.4060 C   0  0  1  0  0  3  0  0  0  0  0  0
  188.5350  178.3140  139.1640 C   0  0  0  0  0  2  0  0  0  0  0  0
  190.5770  177.0460  137.3780 C   0  0  0  0  0  2  0  0  0  0  0  0
  189.4830  177.9940  136.8630 C   0  0  2  0  0  3  0  0  0  0  0  0
  189.5870  177.4610  139.7050 N   0  0  0  0  0  0  0  0  0  0  0  0
  191.0500  175.6810  139.2660 O   0  0  0  0  0  0  0  0  0  0  0  0
  190.4030  176.6650  138.8220 C   0  0  0  0  0  0  0  0  0  0  0  0
  189.0070  179.0170  137.8990 C   0  0  0  0  0  2  0  0  0  0  0  0
  187.6260  178.2750  135.7160 O   0  0  0  0  0  1  0  0  0  0  0  0
  188.4290  177.3410  136.1920 O   0  0  0  0  0  0  0  0  0  0  0  0
  187.4080  176.7140  144.0090 C   0  0  0  0  0  2  0  0  0  0  0  0
  186.2620  177.5010  144.5730 C   0  0  0  0  0  0  0  0  0  0  0  0
  185.3450  178.0990  143.7010 C   0  0  0  0  0  3  0  0  0  0  0  0
  185.0240  178.3930  146.4620 C   0  0  0  0  0  0  0  0  0  0  0  0
  184.2690  178.8350  144.2060 C   0  0  0  0  0  3  0  0  0  0  0  0
  187.0030  177.1190  146.8210 F   0  0  0  0  0  0  0  0  0  0  0  0
  186.1050  177.6600  145.9610 C   0  0  0  0  0  0  0  0  0  0  0  0
  184.8630  178.5450  147.8000 F   0  0  0  0  0  0  0  0  0  0  0  0
  184.1070  178.9780  145.5850 C   0  0  0  0  0  3  0  0  0  0  0  0
  1  7  1  0  0  0  0
  2 14  1  6  0  0  0
  2  8  1  0  0  0  0
  2  4  1  0  0  0  0
  3  6  1  6  0  0  0
  3  7  1  0  0  0  0
  3  5  1  0  0  0  0
  4 10  1  0  0  0  0
  5  9  2  0  0  0  0
  7  5  1  0  0  0  0
  8  6  1  0  0  0  0
 10  3  1  0  0  0  0
 10 20  1  6  0  0  0
 11 14  1  0  0  0  0
 12 16  1  0  0  0  0
 13 19  1  1  0  0  0
 13 12  1  0  0  0  0
 13 17  1  0  0  0  0
 16 15  2  0  0  0  0
 16 14  1  0  0  0  0
 17 11  1  0  0  0  0
 18 19  1  0  0  0  0
 20 21  1  0  0  0  0
 21 26  1  0  0  0  0
 22 24  1  0  0  0  0
 22 21  2  0  0  0  0
 23 27  1  0  0  0  0
 24 28  2  0  0  0  0
 26 23  2  0  0  0  0
 26 25  1  0  0  0  0
 28 23  1  0  0  0  0
M  END
>  <MODEL>
3

>  <REMARK>
 VINA RESULT:      -8.5      1.701      2.264
  Name = 
  4 active torsions:
  status: ('A' for Active; 'I' for Inactive)
    1  A    between atoms: C_1  and  C_2
    2  A    between atoms: C_1  and  C_27
    3  A    between atoms: C_10  and  N_13
    4  A    between atoms: C_12  and  O_23
                            x       y       z     vdW  Elec       q    Type
                         _______ _______ _______ _____ _____    ______ ____

>  <TORSDO>
F 4

$$$$
=
 OpenBabel11052413243D

 28 31  0  0  1  0  0  0  0  0999 V2000
  186.2920  175.6750  136.9030 C   0  0  0  0  0  1  0  0  0  0  0  0
  189.8400  176.9270  137.2570 C   0  0  1  0  0  3  0  0  0  0  0  0
  187.3920  177.9580  137.9950 C   0  0  2  0  0  0  0  0  0  0  0  0
  189.6200  176.9200  138.7740 C   0  0  0  0  0  2  0  0  0  0  0  0
  186.0540  178.2390  138.2240 C   0  0  0  0  0  0  0  0  0  0  0  0
  188.0670  178.6860  136.8310 C   0  0  0  0  0  2  0  0  0  0  0  0
  186.5390  176.9550  137.5390 N   0  0  0  0  0  0  0  0  0  0  0  0
  189.5460  178.3120  136.6770 C   0  0  0  0  0  2  0  0  0  0  0  0
  185.1290  178.9740  138.6570 O   0  0  0  0  0  0  0  0  0  0  0  0
  188.2410  177.4750  139.1840 C   0  0  1  0  0  3  0  0  0  0  0  0
  192.2220  176.6280  137.9210 C   0  0  0  0  0  2  0  0  0  0  0  0
  192.7090  175.0360  135.4320 C   0  0  0  0  0  2  0  0  0  0  0  0
  193.7500  175.1840  136.5520 C   0  0  2  0  0  3  0  0  0  0  0  0
  191.1850  176.4750  136.9070 N   0  0  0  0  0  0  0  0  0  0  0  0
  190.7440  176.1070  134.6320 O   0  0  0  0  0  0  0  0  0  0  0  0
  191.5090  175.9220  135.6140 C   0  0  0  0  0  0  0  0  0  0  0  0
  193.1430  175.4170  137.9390 C   0  0  0  0  0  2  0  0  0  0  0  0
  195.9280  175.4890  136.6200 O   0  0  0  0  0  1  0  0  0  0  0  0
  194.8030  176.0680  136.2440 O   0  0  0  0  0  0  0  0  0  0  0  0
  188.3440  178.5000  140.3210 C   0  0  0  0  0  2  0  0  0  0  0  0
  187.8520  177.9890  141.6440 C   0  0  0  0  0  0  0  0  0  0  0  0
  188.5850  177.0050  142.3150 C   0  0  0  0  0  3  0  0  0  0  0  0
  186.2250  177.9850  143.4460 C   0  0  0  0  0  0  0  0  0  0  0  0
  188.1460  176.5170  143.5490 C   0  0  0  0  0  3  0  0  0  0  0  0
  185.9150  179.4000  141.5570 F   0  0  0  0  0  0  0  0  0  0  0  0
  186.6590  178.4730  142.2080 C   0  0  0  0  0  0  0  0  0  0  0  0
  185.0780  178.4510  143.9990 F   0  0  0  0  0  0  0  0  0  0  0  0
  186.9690  177.0090  144.1160 C   0  0  0  0  0  3  0  0  0  0  0  0
  1  7  1  0  0  0  0
  2  8  1  1  0  0  0
  2  4  1  0  0  0  0
  3  6  1  6  0  0  0
  3  5  1  0  0  0  0
  3 10  1  0  0  0  0
  4 10  1  0  0  0  0
  5  9  2  0  0  0  0
  7  3  1  0  0  0  0
  7  5  1  0  0  0  0
  8  6  1  0  0  0  0
 10 20  1  1  0  0  0
 11 17  1  0  0  0  0
 12 16  1  0  0  0  0
 12 13  1  0  0  0  0
 13 19  1  6  0  0  0
 13 17  1  0  0  0  0
 14  2  1  0  0  0  0
 14 11  1  0  0  0  0
 15 16  2  0  0  0  0
 16 14  1  0  0  0  0
 19 18  1  0  0  0  0
 20 21  1  0  0  0  0
 21 26  2  0  0  0  0
 21 22  1  0  0  0  0
 22 24  2  0  0  0  0
 23 27  1  0  0  0  0
 23 28  2  0  0  0  0
 24 28  1  0  0  0  0
 25 26  1  0  0  0  0
 26 23  1  0  0  0  0
M  END
>  <MODEL>
4

>  <REMARK>
 VINA RESULT:      -7.7      3.123      5.244
  Name = 
  4 active torsions:
  status: ('A' for Active; 'I' for Inactive)
    1  A    between atoms: C_1  and  C_2
    2  A    between atoms: C_1  and  C_27
    3  A    between atoms: C_10  and  N_13
    4  A    between atoms: C_12  and  O_23
                            x       y       z     vdW  Elec       q    Type
                         _______ _______ _______ _____ _____    ______ ____

>  <TORSDO>
F 4

$$$$
=
 OpenBabel11052413243D

 28 31  0  0  1  0  0  0  0  0999 V2000
  186.3000  175.6600  137.0330 C   0  0  0  0  0  1  0  0  0  0  0  0
  189.8430  176.9450  137.3130 C   0  0  1  0  0  3  0  0  0  0  0  0
  187.3930  177.9940  138.0210 C   0  0  2  0  0  0  0  0  0  0  0  0
  189.6310  177.0020  138.8300 C   0  0  0  0  0  2  0  0  0  0  0  0
  186.0540  178.2760  138.2450 C   0  0  0  0  0  0  0  0  0  0  0  0
  188.0570  178.6740  136.8230 C   0  0  0  0  0  2  0  0  0  0  0  0
  186.5430  176.9670  137.6130 N   0  0  0  0  0  0  0  0  0  0  0  0
  189.5380  178.3020  136.6770 C   0  0  0  0  0  2  0  0  0  0  0  0
  185.1280  179.0250  138.6520 O   0  0  0  0  0  0  0  0  0  0  0  0
  188.2510  177.5660  139.2240 C   0  0  1  0  0  3  0  0  0  0  0  0
  192.2230  176.6580  137.9880 C   0  0  0  0  0  2  0  0  0  0  0  0
  192.7150  175.0170  135.5330 C   0  0  0  0  0  2  0  0  0  0  0  0
  193.7530  175.1860  136.6520 C   0  0  2  0  0  3  0  0  0  0  0  0
  191.1880  176.4850  136.9760 N   0  0  0  0  0  0  0  0  0  0  0  0
  190.7510  176.0730  134.7080 O   0  0  0  0  0  0  0  0  0  0  0  0
  191.5140  175.9060  135.6950 C   0  0  0  0  0  0  0  0  0  0  0  0
  193.1430  175.4470  138.0330 C   0  0  0  0  0  2  0  0  0  0  0  0
  195.9380  175.4530  136.6320 O   0  0  0  0  0  1  0  0  0  0  0  0
  194.8070  176.0640  136.3280 O   0  0  0  0  0  0  0  0  0  0  0  0
  188.3550  178.6390  140.3160 C   0  0  0  0  0  2  0  0  0  0  0  0
  187.8370  178.1950  141.6530 C   0  0  0  0  0  0  0  0  0  0  0  0
  186.5060  178.4610  141.9950 C   0  0  0  0  0  3  0  0  0  0  0  0
  188.1620  177.1240  143.8070 C   0  0  0  0  0  0  0  0  0  0  0  0
  186.0030  178.0530  143.2340 C   0  0  0  0  0  3  0  0  0  0  0  0
  189.9730  177.3000  142.2720 F   0  0  0  0  0  0  0  0  0  0  0  0
  188.6710  177.5340  142.5700 C   0  0  0  0  0  0  0  0  0  0  0  0
  188.9600  176.4800  144.6940 F   0  0  0  0  0  0  0  0  0  0  0  0
  186.8290  177.3830  144.1380 C   0  0  0  0  0  3  0  0  0  0  0  0
  1  7  1  0  0  0  0
  2  8  1  1  0  0  0
  2  4  1  0  0  0  0
  3  6  1  6  0  0  0
  3  5  1  0  0  0  0
  3 10  1  0  0  0  0
  4 10  1  0  0  0  0
  5  9  2  0  0  0  0
  7  3  1  0  0  0  0
  7  5  1  0  0  0  0
  8  6  1  0  0  0  0
 10 20  1  1  0  0  0
 11 17  1  0  0  0  0
 12 16  1  0  0  0  0
 12 13  1  0  0  0  0
 13 19  1  6  0  0  0
 13 17  1  0  0  0  0
 14  2  1  0  0  0  0
 14 11  1  0  0  0  0
 15 16  2  0  0  0  0
 16 14  1  0  0  0  0
 19 18  1  0  0  0  0
 20 21  1  0  0  0  0
 21 22  2  0  0  0  0
 21 26  1  0  0  0  0
 22 24  1  0  0  0  0
 23 28  1  0  0  0  0
 23 27  1  0  0  0  0
 24 28  2  0  0  0  0
 25 26  1  0  0  0  0
 26 23  2  0  0  0  0
M  END
>  <MODEL>
5

>  <REMARK>
 VINA RESULT:      -7.6      3.372      5.436
  Name = 
  4 active torsions:
  status: ('A' for Active; 'I' for Inactive)
    1  A    between atoms: C_1  and  C_2
    2  A    between atoms: C_1  and  C_27
    3  A    between atoms: C_10  and  N_13
    4  A    between atoms: C_12  and  O_23
                            x       y       z     vdW  Elec       q    Type
                         _______ _______ _______ _____ _____    ______ ____

>  <TORSDO>
F 4

$$$$
=
 OpenBabel11052413243D

 28 31  0  0  1  0  0  0  0  0999 V2000
  192.1790  179.3730  143.8420 C   0  0  0  0  0  1  0  0  0  0  0  0
  189.9280  177.3390  141.5880 C   0  0  1  0  0  3  0  0  0  0  0  0
  190.6540  177.1070  144.2380 C   0  0  2  0  0  0  0  0  0  0  0  0
  188.7830  177.6620  142.5540 C   0  0  0  0  0  2  0  0  0  0  0  0
  191.1980  177.2200  145.5090 C   0  0  0  0  0  0  0  0  0  0  0  0
  191.2530  176.0440  143.3160 C   0  0  0  0  0  2  0  0  0  0  0  0
  191.5070  178.2010  144.3710 N   0  0  0  0  0  0  0  0  0  0  0  0
  190.5700  175.9970  141.9440 C   0  0  0  0  0  2  0  0  0  0  0  0
  191.3420  176.8290  146.6960 O   0  0  0  0  0  0  0  0  0  0  0  0
  189.1960  177.5550  144.0350 C   0  0  1  0  0  3  0  0  0  0  0  0
  188.0470  177.4570  139.9620 C   0  0  0  0  0  2  0  0  0  0  0  0
  190.0090  177.7980  137.7260 C   0  0  0  0  0  2  0  0  0  0  0  0
  188.4900  177.9340  137.5390 C   0  0  2  0  0  3  0  0  0  0  0  0
  189.4830  177.3690  140.1970 N   0  0  0  0  0  0  0  0  0  0  0  0
  191.5700  176.8590  139.2530 O   0  0  0  0  0  0  0  0  0  0  0  0
  190.3980  177.2870  139.0850 C   0  0  0  0  0  0  0  0  0  0  0  0
  187.7460  178.3900  138.7980 C   0  0  0  0  0  2  0  0  0  0  0  0
  186.6320  177.1490  136.6580 O   0  0  0  0  0  1  0  0  0  0  0  0
  187.8900  176.8300  136.9000 O   0  0  0  0  0  0  0  0  0  0  0  0
  188.1860  176.7470  144.8620 C   0  0  0  0  0  2  0  0  0  0  0  0
  187.4290  177.5690  145.8640 C   0  0  0  0  0  0  0  0  0  0  0  0
  186.3350  178.3300  145.4410 C   0  0  0  0  0  3  0  0  0  0  0  0
  187.0870  178.3650  148.1320 C   0  0  0  0  0  0  0  0  0  0  0  0
  185.6140  179.1000  146.3590 C   0  0  0  0  0  3  0  0  0  0  0  0
  188.8940  176.8950  147.6390 F   0  0  0  0  0  0  0  0  0  0  0  0
  187.8140  177.5970  147.2150 C   0  0  0  0  0  0  0  0  0  0  0  0
  187.4490  178.3920  149.4390 F   0  0  0  0  0  0  0  0  0  0  0  0
  185.9880  179.1150  147.7040 C   0  0  0  0  0  3  0  0  0  0  0  0
  1  7  1  0  0  0  0
  2 14  1  6  0  0  0
  2  8  1  0  0  0  0
  2  4  1  0  0  0  0
  3  6  1  6  0  0  0
  3  7  1  0  0  0  0
  3  5  1  0  0  0  0
  4 10  1  0  0  0  0
  5  9  2  0  0  0  0
  7  5  1  0  0  0  0
  8  6  1  0  0  0  0
 10  3  1  0  0  0  0
 10 20  1  1  0  0  0
 11 14  1  0  0  0  0
 12 16  1  0  0  0  0
 13 19  1  1  0  0  0
 13 12  1  0  0  0  0
 13 17  1  0  0  0  0
 16 15  2  0  0  0  0
 16 14  1  0  0  0  0
 17 11  1  0  0  0  0
 18 19  1  0  0  0  0
 20 21  1  0  0  0  0
 21 26  1  0  0  0  0
 22 21  2  0  0  0  0
 22 24  1  0  0  0  0
 23 27  1  0  0  0  0
 24 28  2  0  0  0  0
 26 25  1  0  0  0  0
 26 23  2  0  0  0  0
 28 23  1  0  0  0  0
M  END
>  <MODEL>
6

>  <REMARK>
 VINA RESULT:      -7.3      2.430      2.920
  Name = 
  4 active torsions:
  status: ('A' for Active; 'I' for Inactive)
    1  A    between atoms: C_1  and  C_2
    2  A    between atoms: C_1  and  C_27
    3  A    between atoms: C_10  and  N_13
    4  A    between atoms: C_12  and  O_23
                            x       y       z     vdW  Elec       q    Type
                         _______ _______ _______ _____ _____    ______ ____

>  <TORSDO>
F 4

$$$$
=
 OpenBabel11052413243D

 28 31  0  0  1  0  0  0  0  0999 V2000
  179.8680  176.8260  141.1830 C   0  0  0  0  0  1  0  0  0  0  0  0
  183.0110  177.4920  139.1920 C   0  0  1  0  0  3  0  0  0  0  0  0
  181.6640  178.9210  141.1270 C   0  0  2  0  0  0  0  0  0  0  0  0
  183.7630  177.5500  140.5260 C   0  0  0  0  0  2  0  0  0  0  0  0
  180.7880  179.4190  142.0790 C   0  0  0  0  0  0  0  0  0  0  0  0
  181.5670  179.5060  139.7170 C   0  0  0  0  0  2  0  0  0  0  0  0
  180.6000  178.0610  141.3920 N   0  0  0  0  0  0  0  0  0  0  0  0
  182.5880  178.8940  138.7510 C   0  0  0  0  0  2  0  0  0  0  0  0
  180.4140  180.3030  142.8920 O   0  0  0  0  0  0  0  0  0  0  0  0
  182.9980  178.3290  141.6140 C   0  0  1  0  0  3  0  0  0  0  0  0
  184.8200  177.6100  137.4850 C   0  0  0  0  0  2  0  0  0  0  0  0
  184.6590  174.6430  137.1170 C   0  0  0  0  0  2  0  0  0  0  0  0
  185.7480  175.5120  136.4700 C   0  0  2  0  0  3  0  0  0  0  0  0
  183.7970  176.8200  138.1600 N   0  0  0  0  0  0  0  0  0  0  0  0
  182.4990  174.8670  138.0840 O   0  0  0  0  0  0  0  0  0  0  0  0
  183.5770  175.4440  137.7850 C   0  0  0  0  0  0  0  0  0  0  0  0
  186.0770  176.7850  137.2560 C   0  0  0  0  0  2  0  0  0  0  0  0
  186.6300  176.3660  134.6430 O   0  0  0  0  0  1  0  0  0  0  0  0
  185.5590  175.7360  135.0910 O   0  0  0  0  0  0  0  0  0  0  0  0
  183.8930  179.3460  142.3360 C   0  0  0  0  0  2  0  0  0  0  0  0
  184.6950  178.7570  143.4590 C   0  0  0  0  0  0  0  0  0  0  0  0
  185.9340  178.1690  143.1820 C   0  0  0  0  0  3  0  0  0  0  0  0
  184.9850  178.2240  145.8100 C   0  0  0  0  0  0  0  0  0  0  0  0
  186.6990  177.6180  144.2140 C   0  0  0  0  0  3  0  0  0  0  0  0
  182.9990  179.3050  145.0630 F   0  0  0  0  0  0  0  0  0  0  0  0
  184.2130  178.7730  144.7790 C   0  0  0  0  0  0  0  0  0  0  0  0
  184.5280  178.2410  147.0870 F   0  0  0  0  0  0  0  0  0  0  0  0
  186.2260  177.6480  145.5270 C   0  0  0  0  0  3  0  0  0  0  0  0
  1  7  1  0  0  0  0
  2 14  1  6  0  0  0
  2  4  1  0  0  0  0
  3  6  1  6  0  0  0
  3  7  1  0  0  0  0
  3 10  1  0  0  0  0
  3  5  1  0  0  0  0
  4 10  1  0  0  0  0
  5  9  2  0  0  0  0
  7  5  1  0  0  0  0
  8  2  1  0  0  0  0
  8  6  1  0  0  0  0
 10 20  1  6  0  0  0
 11 14  1  0  0  0  0
 12 16  1  0  0  0  0
 13 19  1  6  0  0  0
 13 12  1  0  0  0  0
 13 17  1  0  0  0  0
 16 15  2  0  0  0  0
 16 14  1  0  0  0  0
 17 11  1  0  0  0  0
 18 19  1  0  0  0  0
 20 21  1  0  0  0  0
 21 26  1  0  0  0  0
 22 21  2  0  0  0  0
 22 24  1  0  0  0  0
 23 27  1  0  0  0  0
 24 28  2  0  0  0  0
 26 25  1  0  0  0  0
 26 23  2  0  0  0  0
 28 23  1  0  0  0  0
M  END
>  <MODEL>
7

>  <REMARK>
 VINA RESULT:      -7.2      4.667      6.631
  Name = 
  4 active torsions:
  status: ('A' for Active; 'I' for Inactive)
    1  A    between atoms: C_1  and  C_2
    2  A    between atoms: C_1  and  C_27
    3  A    between atoms: C_10  and  N_13
    4  A    between atoms: C_12  and  O_23
                            x       y       z     vdW  Elec       q    Type
                         _______ _______ _______ _____ _____    ______ ____

>  <TORSDO>
F 4

$$$$
=
 OpenBabel11052413243D

 28 31  0  0  1  0  0  0  0  0999 V2000
  179.7820  176.8660  141.2780 C   0  0  0  0  0  1  0  0  0  0  0  0
  182.8880  177.4470  139.2050 C   0  0  1  0  0  3  0  0  0  0  0  0
  181.6090  178.9300  141.1460 C   0  0  2  0  0  0  0  0  0  0  0  0
  183.6710  177.5150  140.5200 C   0  0  0  0  0  2  0  0  0  0  0  0
  180.7630  179.4580  142.1100 C   0  0  0  0  0  0  0  0  0  0  0  0
  181.4890  179.4940  139.7290 C   0  0  0  0  0  2  0  0  0  0  0  0
  180.5380  178.0920  141.4500 N   0  0  0  0  0  0  0  0  0  0  0  0
  182.4770  178.8480  138.7500 C   0  0  0  0  0  2  0  0  0  0  0  0
  180.4230  180.3620  142.9160 O   0  0  0  0  0  0  0  0  0  0  0  0
  182.9440  178.3240  141.6120 C   0  0  1  0  0  3  0  0  0  0  0  0
  184.6600  177.5080  137.4570 C   0  0  0  0  0  2  0  0  0  0  0  0
  184.4390  174.5380  137.1390 C   0  0  0  0  0  2  0  0  0  0  0  0
  185.5290  175.3780  136.4550 C   0  0  2  0  0  3  0  0  0  0  0  0
  183.6390  176.7460  138.1670 N   0  0  0  0  0  0  0  0  0  0  0  0
  182.3060  174.8150  138.1510 O   0  0  0  0  0  0  0  0  0  0  0  0
  183.3870  175.3690  137.8180 C   0  0  0  0  0  0  0  0  0  0  0  0
  185.8980  176.6570  137.2130 C   0  0  0  0  0  2  0  0  0  0  0  0
  186.3880  176.1790  134.5940 O   0  0  0  0  0  1  0  0  0  0  0  0
  185.3130  175.5840  135.0770 O   0  0  0  0  0  0  0  0  0  0  0  0
  183.8720  179.3380  142.2960 C   0  0  0  0  0  2  0  0  0  0  0  0
  184.5020  178.8270  143.5590 C   0  0  0  0  0  0  0  0  0  0  0  0
  183.8580  179.0450  144.7820 C   0  0  0  0  0  3  0  0  0  0  0  0
  186.2950  177.6780  144.7240 C   0  0  0  0  0  0  0  0  0  0  0  0
  184.4250  178.5750  145.9700 C   0  0  0  0  0  3  0  0  0  0  0  0
  186.3900  177.9630  142.3620 F   0  0  0  0  0  0  0  0  0  0  0  0
  185.7330  178.1510  143.5320 C   0  0  0  0  0  0  0  0  0  0  0  0
  187.4800  177.0200  144.7050 F   0  0  0  0  0  0  0  0  0  0  0  0
  185.6420  177.8900  145.9410 C   0  0  0  0  0  3  0  0  0  0  0  0
  1  7  1  0  0  0  0
  2 14  1  6  0  0  0
  2  4  1  0  0  0  0
  3  6  1  6  0  0  0
  3  7  1  0  0  0  0
  3 10  1  0  0  0  0
  3  5  1  0  0  0  0
  4 10  1  0  0  0  0
  5  9  2  0  0  0  0
  7  5  1  0  0  0  0
  8  2  1  0  0  0  0
  8  6  1  0  0  0  0
 10 20  1  6  0  0  0
 11 14  1  0  0  0  0
 12 16  1  0  0  0  0
 13 19  1  6  0  0  0
 13 12  1  0  0  0  0
 13 17  1  0  0  0  0
 16 15  2  0  0  0  0
 16 14  1  0  0  0  0
 17 11  1  0  0  0  0
 18 19  1  0  0  0  0
 20 21  1  0  0  0  0
 21 22  1  0  0  0  0
 22 24  2  0  0  0  0
 23 28  2  0  0  0  0
 25 26  1  0  0  0  0
 26 21  2  0  0  0  0
 26 23  1  0  0  0  0
 27 23  1  0  0  0  0
 28 24  1  0  0  0  0
M  END
>  <MODEL>
8

>  <REMARK>
 VINA RESULT:      -7.1      4.726      6.673
  Name = 
  4 active torsions:
  status: ('A' for Active; 'I' for Inactive)
    1  A    between atoms: C_1  and  C_2
    2  A    between atoms: C_1  and  C_27
    3  A    between atoms: C_10  and  N_13
    4  A    between atoms: C_12  and  O_23
                            x       y       z     vdW  Elec       q    Type
                         _______ _______ _______ _____ _____    ______ ____

>  <TORSDO>
F 4

$$$$
=
 OpenBabel11052413243D

 28 31  0  0  1  0  0  0  0  0999 V2000
  183.3470  177.4980  136.6100 C   0  0  0  0  0  1  0  0  0  0  0  0
  181.0730  180.3860  137.4840 C   0  0  1  0  0  3  0  0  0  0  0  0
  181.4590  177.8870  138.5840 C   0  0  2  0  0  0  0  0  0  0  0  0
  181.7690  180.4330  138.8490 C   0  0  0  0  0  2  0  0  0  0  0  0
  181.8350  176.5930  138.9050 C   0  0  0  0  0  0  0  0  0  0  0  0
  180.1280  178.0640  137.8490 C   0  0  0  0  0  2  0  0  0  0  0  0
  182.4410  177.3790  137.7360 N   0  0  0  0  0  0  0  0  0  0  0  0
  179.8050  179.5340  137.5550 C   0  0  0  0  0  2  0  0  0  0  0  0
  181.7540  175.5530  139.6090 O   0  0  0  0  0  0  0  0  0  0  0  0
  182.0050  179.0340  139.4520 C   0  0  1  0  0  3  0  0  0  0  0  0
  180.6630  182.7950  137.9650 C   0  0  0  0  0  2  0  0  0  0  0  0
  180.8080  183.3980  135.0350 C   0  0  0  0  0  2  0  0  0  0  0  0
  180.7280  184.4880  136.1140 C   0  0  2  0  0  3  0  0  0  0  0  0
  180.7890  181.7280  136.9790 N   0  0  0  0  0  0  0  0  0  0  0  0
  180.3610  181.0790  134.7660 O   0  0  0  0  0  0  0  0  0  0  0  0
  180.6090  182.0100  135.5760 C   0  0  0  0  0  0  0  0  0  0  0  0
  181.3210  184.0730  137.4640 C   0  0  0  0  0  2  0  0  0  0  0  0
  179.5570  186.0520  137.1280 O   0  0  0  0  0  1  0  0  0  0  0  0
  179.4610  185.0980  136.2210 O   0  0  0  0  0  0  0  0  0  0  0  0
  181.5660  178.9550  140.9200 C   0  0  0  0  0  2  0  0  0  0  0  0
  182.7040  178.7850  141.8850 C   0  0  0  0  0  0  0  0  0  0  0  0
  183.9640  178.4180  141.4000 C   0  0  0  0  0  3  0  0  0  0  0  0
  183.5970  178.8170  144.1420 C   0  0  0  0  0  0  0  0  0  0  0  0
  185.0380  178.2570  142.2800 C   0  0  0  0  0  3  0  0  0  0  0  0
  181.2960  179.2940  143.7570 F   0  0  0  0  0  0  0  0  0  0  0  0
  182.5180  178.9740  143.2640 C   0  0  0  0  0  0  0  0  0  0  0  0
  183.4260  179.0030  145.4740 F   0  0  0  0  0  0  0  0  0  0  0  0
  184.8550  178.4600  143.6500 C   0  0  0  0  0  3  0  0  0  0  0  0
  1  7  1  0  0  0  0
  2 14  1  1  0  0  0
  2  8  1  0  0  0  0
  2  4  1  0  0  0  0
  3  6  1  6  0  0  0
  3  5  1  0  0  0  0
  3 10  1  0  0  0  0
  4 10  1  0  0  0  0
  5  9  2  0  0  0  0
  7  3  1  0  0  0  0
  7  5  1  0  0  0  0
  8  6  1  0  0  0  0
 10 20  1  1  0  0  0
 12 16  1  0  0  0  0
 12 13  1  0  0  0  0
 13 19  1  1  0  0  0
 13 17  1  0  0  0  0
 14 11  1  0  0  0  0
 15 16  2  0  0  0  0
 16 14  1  0  0  0  0
 17 11  1  0  0  0  0
 19 18  1  0  0  0  0
 20 21  1  0  0  0  0
 21 26  1  0  0  0  0
 22 21  2  0  0  0  0
 22 24  1  0  0  0  0
 23 27  1  0  0  0  0
 24 28  2  0  0  0  0
 26 25  1  0  0  0  0
 26 23  2  0  0  0  0
 28 23  1  0  0  0  0
M  END
>  <MODEL>
9

>  <REMARK>
 VINA RESULT:      -6.9      7.186      9.493
  Name = 
  4 active torsions:
  status: ('A' for Active; 'I' for Inactive)
    1  A    between atoms: C_1  and  C_2
    2  A    between atoms: C_1  and  C_27
    3  A    between atoms: C_10  and  N_13
    4  A    between atoms: C_12  and  O_23
                            x       y       z     vdW  Elec       q    Type
                         _______ _______ _______ _____ _____    ______ ____

>  <TORSDO>
F 4

$$$$
