=
 OpenBabel11052416563D

 32 36  0  0  0  0  0  0  0  0999 V2000
  186.5740  178.0370  146.1250 C   0  0  0  0  0  3  0  0  0  0  0  0
  183.8310  178.5040  141.6370 C   0  0  0  0  0  0  0  0  0  0  0  0
  179.4190  179.5460  143.5040 C   0  0  0  0  0  3  0  0  0  0  0  0
  178.9310  179.5940  142.2630 C   0  0  0  0  0  3  0  0  0  0  0  0
  185.7590  178.1120  143.0770 C   0  0  0  0  0  0  0  0  0  0  0  0
  183.5960  178.6620  144.0370 C   0  0  0  0  0  3  0  0  0  0  0  0
  185.3880  178.3260  145.6070 C   0  0  0  0  0  3  0  0  0  0  0  0
  180.8090  179.2680  143.7070 N   0  0  0  0  0  0  0  0  0  0  0  0
  183.0280  178.7410  142.7620 C   0  0  0  0  0  0  0  0  0  0  0  0
  181.6720  179.0420  142.5800 C   0  0  0  0  0  0  0  0  0  0  0  0
  181.9920  178.8840  140.1710 C   0  0  0  0  0  0  0  0  0  0  0  0
  189.7000  177.3130  143.5040 S   0  0  0  0  0  1  0  0  0  0  0  0
  188.0480  177.6040  144.1480 C   0  0  0  0  0  0  0  0  0  0  0  0
  184.9500  178.3510  144.2130 C   0  0  0  0  0  0  0  0  0  0  0  0
  187.0550  177.8090  143.0820 C   0  0  0  0  0  3  0  0  0  0  0  0
  187.8330  177.6510  145.4800 C   0  0  0  0  0  0  0  0  0  0  0  0
  179.8260  179.3650  141.1120 C   0  0  0  0  0  2  0  0  0  0  0  0
  181.1370  179.1090  141.2750 C   0  0  0  0  0  0  0  0  0  0  0  0
  185.1800  178.1950  141.8030 C   0  0  0  0  0  3  0  0  0  0  0  0
  183.3010  178.5770  140.3890 N   0  0  0  0  0  0  0  0  0  0  0  0
  180.6620  177.7320  136.8430 C   0  0  0  0  0  0  0  0  0  0  0  0
  180.6020  178.9240  136.1200 C   0  0  0  0  0  3  0  0  0  0  0  0
  181.4660  180.1400  138.0360 C   0  0  0  0  0  0  0  0  0  0  0  0
  180.9500  181.2700  135.9840 F   0  0  0  0  0  0  0  0  0  0  0  0
  181.0030  180.1250  136.7100 C   0  0  0  0  0  0  0  0  0  0  0  0
  181.1180  177.7390  138.1620 C   0  0  0  0  0  3  0  0  0  0  0  0
  180.2800  176.5690  136.2640 F   0  0  0  0  0  0  0  0  0  0  0  0
  181.9450  181.4290  138.6240 C   0  0  0  0  0  1  0  0  0  0  0  0
  181.5100  178.9360  138.7740 C   0  0  0  0  0  0  0  0  0  0  0  0
  188.8960  177.3740  146.4020 N   0  0  0  0  0  2  0  0  0  0  0  0
  188.9190  177.8700  147.7160 C   0  0  0  0  0  0  0  0  0  0  0  0
  188.9380  178.2780  148.7980 N   0  0  0  0  0  0  0  0  0  0  0  0
  2 19  1  0  0  0  0
  2  9  1  0  0  0  0
  3  8  1  0  0  0  0
  4  3  2  0  0  0  0
  5 15  1  0  0  0  0
  5 14  1  0  0  0  0
  6 14  1  0  0  0  0
  7  1  1  0  0  0  0
  9  6  2  0  0  0  0
 10  9  1  0  0  0  0
 10  8  2  0  0  0  0
 11 20  1  0  0  0  0
 11 18  2  0  0  0  0
 12 13  1  0  0  0  0
 13 16  1  0  0  0  0
 14  7  2  0  0  0  0
 15 13  2  0  0  0  0
 16  1  2  0  0  0  0
 16 30  1  0  0  0  0
 17 18  1  0  0  0  0
 17  4  1  0  0  0  0
 18 10  1  0  0  0  0
 19  5  2  0  0  0  0
 20  2  2  0  0  0  0
 21 26  1  0  0  0  0
 22 25  1  0  0  0  0
 22 21  2  0  0  0  0
 23 28  1  0  0  0  0
 23 29  1  0  0  0  0
 24 25  1  0  0  0  0
 25 23  2  0  0  0  0
 26 29  2  0  0  0  0
 27 21  1  0  0  0  0
 29 11  1  0  0  0  0
 30 31  1  0  0  0  0
 31 32  3  0  0  0  0
M  END
>  <MODEL>
1

>  <REMARK>
 VINA RESULT:      -9.1      0.000      0.000
  Name = 
  3 active torsions:
  status: ('A' for Active; 'I' for Inactive)
    1  A    between atoms: C_1  and  N_10
    2  A    between atoms: N_10  and  C_24
    3  A    between atoms: C_16  and  C_32
                            x       y       z     vdW  Elec       q    Type
                         _______ _______ _______ _____ _____    ______ ____

>  <TORSDO>
F 3

$$$$
=
 OpenBabel11052416563D

 32 36  0  0  0  0  0  0  0  0999 V2000
  189.0040  177.2740  145.2540 C   0  0  0  0  0  3  0  0  0  0  0  0
  185.4410  178.5040  141.5550 C   0  0  0  0  0  0  0  0  0  0  0  0
  181.4090  178.6290  144.3420 C   0  0  0  0  0  3  0  0  0  0  0  0
  180.6930  178.9180  143.2540 C   0  0  0  0  0  3  0  0  0  0  0  0
  187.6250  177.9800  142.5040 C   0  0  0  0  0  0  0  0  0  0  0  0
  185.6540  178.0690  143.9230 C   0  0  0  0  0  3  0  0  0  0  0  0
  187.7270  177.5550  145.0330 C   0  0  0  0  0  3  0  0  0  0  0  0
  182.8260  178.4520  144.2310 N   0  0  0  0  0  0  0  0  0  0  0  0
  184.8530  178.3870  142.8230 C   0  0  0  0  0  0  0  0  0  0  0  0
  183.4720  178.5850  142.9550 C   0  0  0  0  0  0  0  0  0  0  0  0
  183.3400  179.0300  140.5640 C   0  0  0  0  0  0  0  0  0  0  0  0
  191.6140  177.5030  142.0450 S   0  0  0  0  0  1  0  0  0  0  0  0
  190.0990  177.4670  143.0110 C   0  0  0  0  0  0  0  0  0  0  0  0
  187.0330  177.8640  143.7840 C   0  0  0  0  0  0  0  0  0  0  0  0
  188.9140  177.8170  142.2140 C   0  0  0  0  0  3  0  0  0  0  0  0
  190.1380  177.1780  144.3300 C   0  0  0  0  0  0  0  0  0  0  0  0
  181.3670  179.0570  141.9470 C   0  0  0  0  0  2  0  0  0  0  0  0
  182.6970  178.9030  141.8180 C   0  0  0  0  0  0  0  0  0  0  0  0
  186.8120  178.3010  141.4080 C   0  0  0  0  0  3  0  0  0  0  0  0
  184.6810  178.8140  140.4730 N   0  0  0  0  0  0  0  0  0  0  0  0
  181.5600  181.0610  137.9410 C   0  0  0  0  0  0  0  0  0  0  0  0
  181.1780  180.0850  137.0190 C   0  0  0  0  0  3  0  0  0  0  0  0
  182.1990  178.3690  138.4020 C   0  0  0  0  0  0  0  0  0  0  0  0
  181.1000  177.8090  136.3440 F   0  0  0  0  0  0  0  0  0  0  0  0
  181.4940  178.7430  137.2460 C   0  0  0  0  0  0  0  0  0  0  0  0
  182.2630  180.6980  139.0900 C   0  0  0  0  0  3  0  0  0  0  0  0
  181.2450  182.3600  137.7210 F   0  0  0  0  0  0  0  0  0  0  0  0
  182.4710  176.9200  138.6490 C   0  0  0  0  0  1  0  0  0  0  0  0
  182.6000  179.3600  139.3260 C   0  0  0  0  0  0  0  0  0  0  0  0
  191.3690  176.8010  144.9600 N   0  0  0  0  0  2  0  0  0  0  0  0
  191.5390  176.7720  146.3540 C   0  0  0  0  0  0  0  0  0  0  0  0
  191.6790  176.7480  147.5020 N   0  0  0  0  0  0  0  0  0  0  0  0
  2  9  1  0  0  0  0
  4  3  2  0  0  0  0
  5 14  1  0  0  0  0
  7  1  1  0  0  0  0
  8  3  1  0  0  0  0
  9 10  1  0  0  0  0
  9  6  2  0  0  0  0
 10  8  2  0  0  0  0
 11 18  2  0  0  0  0
 12 13  1  0  0  0  0
 13 16  1  0  0  0  0
 14  6  1  0  0  0  0
 14  7  2  0  0  0  0
 15  5  1  0  0  0  0
 15 13  2  0  0  0  0
 16 30  1  0  0  0  0
 16  1  2  0  0  0  0
 17  4  1  0  0  0  0
 18 17  1  0  0  0  0
 18 10  1  0  0  0  0
 19  2  1  0  0  0  0
 19  5  2  0  0  0  0
 20 11  1  0  0  0  0
 20  2  2  0  0  0  0
 21 26  1  0  0  0  0
 22 25  1  0  0  0  0
 22 21  2  0  0  0  0
 23 28  1  0  0  0  0
 23 29  1  0  0  0  0
 24 25  1  0  0  0  0
 25 23  2  0  0  0  0
 26 29  2  0  0  0  0
 27 21  1  0  0  0  0
 29 11  1  0  0  0  0
 30 31  1  0  0  0  0
 31 32  3  0  0  0  0
M  END
>  <MODEL>
2

>  <REMARK>
 VINA RESULT:      -9.1      1.638      2.624
  Name = 
  3 active torsions:
  status: ('A' for Active; 'I' for Inactive)
    1  A    between atoms: C_1  and  N_10
    2  A    between atoms: N_10  and  C_24
    3  A    between atoms: C_16  and  C_32
                            x       y       z     vdW  Elec       q    Type
                         _______ _______ _______ _____ _____    ______ ____

>  <TORSDO>
F 3

$$$$
=
 OpenBabel11052416563D

 32 36  0  0  0  0  0  0  0  0999 V2000
  181.7090  179.2290  140.0830 C   0  0  0  0  0  3  0  0  0  0  0  0
  185.6110  178.3080  143.5190 C   0  0  0  0  0  0  0  0  0  0  0  0
  189.3250  177.7300  140.3720 C   0  0  0  0  0  3  0  0  0  0  0  0
  190.1370  177.5030  141.4060 C   0  0  0  0  0  3  0  0  0  0  0  0
  183.3490  178.7760  142.7410 C   0  0  0  0  0  0  0  0  0  0  0  0
  185.1720  178.5330  141.1530 C   0  0  0  0  0  3  0  0  0  0  0  0
  183.0110  179.0110  140.2080 C   0  0  0  0  0  3  0  0  0  0  0  0
  187.9420  178.0140  140.6060 N   0  0  0  0  0  2  0  0  0  0  0  0
  186.0740  178.3010  142.1950 C   0  0  0  0  0  0  0  0  0  0  0  0
  187.4310  178.0530  141.9490 C   0  0  0  0  0  0  0  0  0  0  0  0
  187.7990  177.8590  144.3490 C   0  0  0  0  0  0  0  0  0  0  0  0
  179.4650  179.5610  143.5490 S   0  0  0  0  0  1  0  0  0  0  0  0
  180.8350  179.2490  142.4280 C   0  0  0  0  0  0  0  0  0  0  0  0
  183.8150  178.7710  141.4050 C   0  0  0  0  0  0  0  0  0  0  0  0
  182.0960  178.9880  143.1380 C   0  0  0  0  0  3  0  0  0  0  0  0
  180.6480  179.3050  141.0920 C   0  0  0  0  0  0  0  0  0  0  0  0
  189.6030  177.5490  142.7820 C   0  0  0  0  0  3  0  0  0  0  0  0
  188.3090  177.8210  143.0300 C   0  0  0  0  0  0  0  0  0  0  0  0
  184.2620  178.5450  143.7780 C   0  0  0  0  0  3  0  0  0  0  0  0
  186.4710  178.0870  144.5470 N   0  0  0  0  0  0  0  0  0  0  0  0
  190.7790  176.8630  146.4210 C   0  0  0  0  0  0  0  0  0  0  0  0
  190.3390  177.1280  147.7190 C   0  0  0  0  0  3  0  0  0  0  0  0
  188.2000  177.8780  146.8490 C   0  0  0  0  0  0  0  0  0  0  0  0
  188.6430  177.8680  149.2070 F   0  0  0  0  0  0  0  0  0  0  0  0
  189.0550  177.6320  147.9360 C   0  0  0  0  0  0  0  0  0  0  0  0
  189.9380  177.1070  145.3350 C   0  0  0  0  0  3  0  0  0  0  0  0
  192.0230  176.3670  146.2160 F   0  0  0  0  0  0  0  0  0  0  0  0
  186.8100  178.3610  147.1130 C   0  0  0  0  0  1  0  0  0  0  0  0
  188.6520  177.6260  145.5340 C   0  0  0  0  0  0  0  0  0  0  0  0
  179.3410  179.5160  140.5440 N   0  0  0  0  0  2  0  0  0  0  0  0
  179.1160  180.2100  139.3440 C   0  0  0  0  0  0  0  0  0  0  0  0
  178.9310  180.7820  138.3550 N   0  0  0  0  0  0  0  0  0  0  0  0
  1  7  2  0  0  0  0
  1 16  1  0  0  0  0
  2 19  2  0  0  0  0
  2 20  1  0  0  0  0
  3  8  1  0  0  0  0
  3  4  2  0  0  0  0
  4 17  1  0  0  0  0
  5 15  2  0  0  0  0
  5 19  1  0  0  0  0
  6 14  2  0  0  0  0
  6  9  1  0  0  0  0
  7 14  1  0  0  0  0
  8 10  1  0  0  0  0
  9  2  1  0  0  0  0
 10  9  2  0  0  0  0
 10 18  1  0  0  0  0
 11 20  2  0  0  0  0
 11 29  1  0  0  0  0
 13 15  1  0  0  0  0
 13 12  1  0  0  0  0
 14  5  1  0  0  0  0
 16 13  2  0  0  0  0
 17 18  2  0  0  0  0
 18 11  1  0  0  0  0
 21 22  1  0  0  0  0
 22 25  2  0  0  0  0
 23 28  1  0  0  0  0
 23 25  1  0  0  0  0
 25 24  1  0  0  0  0
 26 29  1  0  0  0  0
 26 21  2  0  0  0  0
 27 21  1  0  0  0  0
 29 23  2  0  0  0  0
 30 16  1  0  0  0  0
 31 30  1  0  0  0  0
 32 31  3  0  0  0  0
M  END
>  <MODEL>
3

>  <REMARK>
 VINA RESULT:      -9.0      4.786      9.801
  Name = 
  3 active torsions:
  status: ('A' for Active; 'I' for Inactive)
    1  A    between atoms: C_1  and  N_10
    2  A    between atoms: N_10  and  C_24
    3  A    between atoms: C_16  and  C_32
                            x       y       z     vdW  Elec       q    Type
                         _______ _______ _______ _____ _____    ______ ____

>  <TORSDO>
F 3

$$$$
=
 OpenBabel11052416563D

 32 36  0  0  0  0  0  0  0  0999 V2000
  190.4940  177.2520  145.0410 C   0  0  0  0  0  3  0  0  0  0  0  0
  186.3430  178.2580  141.9360 C   0  0  0  0  0  0  0  0  0  0  0  0
  188.5760  178.1800  137.5720 C   0  0  0  0  0  3  0  0  0  0  0  0
  187.4070  178.4610  136.9930 C   0  0  0  0  0  3  0  0  0  0  0  0
  187.5810  177.8800  144.0020 C   0  0  0  0  0  0  0  0  0  0  0  0
  188.7140  177.7970  141.8540 C   0  0  0  0  0  3  0  0  0  0  0  0
  190.0890  177.3820  143.7860 C   0  0  0  0  0  3  0  0  0  0  0  0
  188.6450  178.0330  138.9940 N   0  0  0  0  0  2  0  0  0  0  0  0
  187.5170  178.0760  141.1890 C   0  0  0  0  0  0  0  0  0  0  0  0
  187.4620  178.1880  139.7940 C   0  0  0  0  0  0  0  0  0  0  0  0
  185.0720  178.6280  139.9550 C   0  0  0  0  0  0  0  0  0  0  0  0
  187.6330  177.4970  148.0270 S   0  0  0  0  0  1  0  0  0  0  0  0
  188.4260  177.5700  146.4170 C   0  0  0  0  0  0  0  0  0  0  0  0
  188.7650  177.6950  143.2500 C   0  0  0  0  0  0  0  0  0  0  0  0
  187.4690  177.8120  145.3270 C   0  0  0  0  0  3  0  0  0  0  0  0
  189.7580  177.3760  146.3040 C   0  0  0  0  0  0  0  0  0  0  0  0
  186.1950  178.6150  137.8240 C   0  0  0  0  0  3  0  0  0  0  0  0
  186.2320  178.4740  139.1610 C   0  0  0  0  0  0  0  0  0  0  0  0
  186.3850  178.1580  143.3250 C   0  0  0  0  0  3  0  0  0  0  0  0
  185.1680  178.5280  141.3100 N   0  0  0  0  0  0  0  0  0  0  0  0
  182.1920  180.6020  138.5480 C   0  0  0  0  0  0  0  0  0  0  0  0
  181.2520  179.6050  138.2810 C   0  0  0  0  0  3  0  0  0  0  0  0
  182.7890  177.9210  139.1170 C   0  0  0  0  0  0  0  0  0  0  0  0
  180.6110  177.3190  138.3110 F   0  0  0  0  0  0  0  0  0  0  0  0
  181.5450  178.2690  138.5650 C   0  0  0  0  0  0  0  0  0  0  0  0
  183.4310  180.2650  139.0930 C   0  0  0  0  0  3  0  0  0  0  0  0
  181.9010  181.8970  138.2790 F   0  0  0  0  0  0  0  0  0  0  0  0
  183.0540  176.4920  139.4660 C   0  0  0  0  0  1  0  0  0  0  0  0
  183.7470  178.9290  139.3700 C   0  0  0  0  0  0  0  0  0  0  0  0
  190.5740  177.2050  147.4700 N   0  0  0  0  0  2  0  0  0  0  0  0
  191.6800  176.3410  147.5110 C   0  0  0  0  0  0  0  0  0  0  0  0
  192.5920  175.6290  147.5450 N   0  0  0  0  0  0  0  0  0  0  0  0
  1 16  1  0  0  0  0
  2 19  2  0  0  0  0
  3  8  1  0  0  0  0
  4  3  2  0  0  0  0
  4 17  1  0  0  0  0
  5 15  2  0  0  0  0
  6 14  2  0  0  0  0
  7  1  2  0  0  0  0
  8 10  1  0  0  0  0
  9  6  1  0  0  0  0
  9  2  1  0  0  0  0
 10  9  2  0  0  0  0
 11 20  2  0  0  0  0
 13 12  1  0  0  0  0
 14  7  1  0  0  0  0
 14  5  1  0  0  0  0
 15 13  1  0  0  0  0
 16 13  2  0  0  0  0
 16 30  1  0  0  0  0
 17 18  2  0  0  0  0
 18 10  1  0  0  0  0
 18 11  1  0  0  0  0
 19  5  1  0  0  0  0
 20  2  1  0  0  0  0
 21 26  1  0  0  0  0
 22 21  2  0  0  0  0
 22 25  1  0  0  0  0
 23 29  1  0  0  0  0
 23 28  1  0  0  0  0
 24 25  1  0  0  0  0
 25 23  2  0  0  0  0
 26 29  2  0  0  0  0
 27 21  1  0  0  0  0
 29 11  1  0  0  0  0
 30 31  1  0  0  0  0
 31 32  3  0  0  0  0
M  END
>  <MODEL>
4

>  <REMARK>
 VINA RESULT:      -8.9      2.767      4.951
  Name = 
  3 active torsions:
  status: ('A' for Active; 'I' for Inactive)
    1  A    between atoms: C_1  and  N_10
    2  A    between atoms: N_10  and  C_24
    3  A    between atoms: C_16  and  C_32
                            x       y       z     vdW  Elec       q    Type
                         _______ _______ _______ _____ _____    ______ ____

>  <TORSDO>
F 3

$$$$
=
 OpenBabel11052416563D

 32 36  0  0  1  0  0  0  0  0999 V2000
  192.6930  176.3760  138.2750 C   0  0  0  0  0  3  0  0  0  0  0  0
  188.6840  177.4990  141.5240 C   0  0  0  0  0  0  0  0  0  0  0  0
  191.0140  177.1300  145.8220 C   0  0  0  0  0  3  0  0  0  0  0  0
  189.8680  177.4160  146.4420 C   0  0  0  0  0  3  0  0  0  0  0  0
  189.8430  177.1120  139.4140 C   0  0  0  0  0  0  0  0  0  0  0  0
  191.0390  176.9560  141.5240 C   0  0  0  0  0  3  0  0  0  0  0  0
  192.3470  176.5600  139.5420 C   0  0  0  0  0  3  0  0  0  0  0  0
  191.0520  177.0800  144.3910 N   0  0  0  0  0  0  0  0  0  0  0  0
  189.8740  177.2640  142.2300 C   0  0  0  0  0  0  0  0  0  0  0  0
  189.8610  177.3370  143.6290 C   0  0  1  0  0  3  0  0  0  0  0  0
  187.4930  177.8990  143.5480 C   0  0  0  0  0  0  0  0  0  0  0  0
  189.8050  177.0020  135.3720 S   0  0  0  0  0  1  0  0  0  0  0  0
  190.5960  176.7850  136.9710 C   0  0  0  0  0  0  0  0  0  0  0  0
  191.0440  176.8760  140.1250 C   0  0  0  0  0  0  0  0  0  0  0  0
  189.6900  177.0750  138.0920 C   0  0  0  0  0  3  0  0  0  0  0  0
  191.8970  176.4280  137.0460 C   0  0  0  0  0  0  0  0  0  0  0  0
  188.6500  177.6820  145.6490 C   0  0  0  0  0  3  0  0  0  0  0  0
  188.6610  177.6490  144.3050 C   0  0  0  0  0  0  0  0  0  0  0  0
  188.6810  177.4220  140.1320 C   0  0  0  0  0  3  0  0  0  0  0  0
  187.5410  177.8030  142.1900 N   0  0  0  0  0  0  0  0  0  0  0  0
  184.8770  178.3860  146.2100 C   0  0  0  0  0  0  0  0  0  0  0  0
  183.7760  178.8150  145.4680 C   0  0  0  0  0  3  0  0  0  0  0  0
  185.0770  178.6490  143.4250 C   0  0  0  0  0  0  0  0  0  0  0  0
  182.7840  179.3510  143.3780 F   0  0  0  0  0  0  0  0  0  0  0  0
  183.8710  178.9470  144.0810 C   0  0  0  0  0  0  0  0  0  0  0  0
  186.0800  178.0920  145.5670 C   0  0  0  0  0  3  0  0  0  0  0  0
  184.7770  178.2530  147.5540 F   0  0  0  0  0  0  0  0  0  0  0  0
  185.1350  178.7410  141.9340 C   0  0  0  0  0  1  0  0  0  0  0  0
  186.1970  178.2320  144.1790 C   0  0  0  0  0  0  0  0  0  0  0  0
  192.6410  176.1230  135.8590 N   0  0  0  0  0  2  0  0  0  0  0  0
  194.0160  176.3760  135.7310 C   0  0  0  0  0  0  0  0  0  0  0  0
  195.1490  176.5840  135.6250 N   0  0  0  0  0  0  0  0  0  0  0  0
  1  7  1  0  0  0  0
  2 20  2  0  0  0  0
  2  9  1  0  0  0  0
  3  4  1  0  0  0  0
  5 14  1  0  0  0  0
  5 19  2  0  0  0  0
  6  9  2  0  0  0  0
  7 14  2  0  0  0  0
  8  3  2  0  0  0  0
 10  9  1  1  0  0  0
 10 18  1  0  0  0  0
 10  8  1  0  0  0  0
 11 29  1  0  0  0  0
 11 18  2  0  0  0  0
 12 13  1  0  0  0  0
 13 16  1  0  0  0  0
 13 15  2  0  0  0  0
 14  6  1  0  0  0  0
 15  5  1  0  0  0  0
 16  1  2  0  0  0  0
 17  4  2  0  0  0  0
 18 17  1  0  0  0  0
 19  2  1  0  0  0  0
 20 11  1  0  0  0  0
 21 27  1  0  0  0  0
 22 21  2  0  0  0  0
 23 25  2  0  0  0  0
 23 29  1  0  0  0  0
 24 25  1  0  0  0  0
 25 22  1  0  0  0  0
 26 21  1  0  0  0  0
 28 23  1  0  0  0  0
 29 26  2  0  0  0  0
 30 16  1  0  0  0  0
 31 30  1  0  0  0  0
 32 31  3  0  0  0  0
M  END
>  <MODEL>
5

>  <REMARK>
 VINA RESULT:      -8.7      5.683      8.975
  Name = 
  3 active torsions:
  status: ('A' for Active; 'I' for Inactive)
    1  A    between atoms: C_1  and  N_10
    2  A    between atoms: N_10  and  C_24
    3  A    between atoms: C_16  and  C_32
                            x       y       z     vdW  Elec       q    Type
                         _______ _______ _______ _____ _____    ______ ____

>  <TORSDO>
F 3

$$$$
=
 OpenBabel11052416563D

 32 36  0  0  1  0  0  0  0  0999 V2000
  180.7000  179.4880  142.7840 C   0  0  0  0  0  3  0  0  0  0  0  0
  185.8010  178.1710  143.1430 C   0  0  0  0  0  0  0  0  0  0  0  0
  186.3910  178.5850  147.9930 C   0  0  0  0  0  3  0  0  0  0  0  0
  187.6730  178.2470  147.8440 C   0  0  0  0  0  3  0  0  0  0  0  0
  183.6540  178.6280  142.0820 C   0  0  0  0  0  0  0  0  0  0  0  0
  183.9000  178.8070  144.4930 C   0  0  0  0  0  3  0  0  0  0  0  0
  181.7060  179.2770  143.6220 C   0  0  0  0  0  3  0  0  0  0  0  0
  185.5380  178.6520  146.8450 N   0  0  0  0  0  0  0  0  0  0  0  0
  185.2460  178.4450  144.4030 C   0  0  0  0  0  0  0  0  0  0  0  0
  186.0600  178.3570  145.5400 C   0  0  1  0  0  3  0  0  0  0  0  0
  187.9250  177.7020  144.1160 C   0  0  0  0  0  0  0  0  0  0  0  0
  181.3590  178.7810  138.7560 S   0  0  0  0  0  1  0  0  0  0  0  0
  181.6440  179.0120  140.5150 C   0  0  0  0  0  0  0  0  0  0  0  0
  183.0930  178.9030  143.3520 C   0  0  0  0  0  0  0  0  0  0  0  0
  183.0190  178.6730  140.9130 C   0  0  0  0  0  3  0  0  0  0  0  0
  180.6390  179.4180  141.3210 C   0  0  0  0  0  0  0  0  0  0  0  0
  188.1990  177.9410  146.4980 C   0  0  0  0  0  3  0  0  0  0  0  0
  187.4170  177.9890  145.4050 C   0  0  0  0  0  0  0  0  0  0  0  0
  185.0050  178.2630  142.0030 C   0  0  0  0  0  3  0  0  0  0  0  0
  187.1070  177.8150  143.0330 N   0  0  0  0  0  0  0  0  0  0  0  0
  191.3770  176.3640  144.7950 C   0  0  0  0  0  0  0  0  0  0  0  0
  192.0150  176.5580  143.5690 C   0  0  0  0  0  3  0  0  0  0  0  0
  189.9850  177.5240  142.6540 C   0  0  0  0  0  0  0  0  0  0  0  0
  191.9710  177.3280  141.3230 F   0  0  0  0  0  0  0  0  0  0  0  0
  191.3260  177.1360  142.5010 C   0  0  0  0  0  0  0  0  0  0  0  0
  190.0440  176.7440  144.9550 C   0  0  0  0  0  3  0  0  0  0  0  0
  192.0520  175.8110  145.8300 F   0  0  0  0  0  0  0  0  0  0  0  0
  189.2880  178.1940  141.5140 C   0  0  0  0  0  1  0  0  0  0  0  0
  189.3330  177.3110  143.8900 C   0  0  0  0  0  0  0  0  0  0  0  0
  179.3600  179.7660  140.7760 N   0  0  0  0  0  2  0  0  0  0  0  0
  179.1250  180.9590  140.0730 C   0  0  0  0  0  0  0  0  0  0  0  0
  178.9310  181.9410  139.4940 N   0  0  0  0  0  0  0  0  0  0  0  0
  1  7  1  0  0  0  0
  2  9  1  0  0  0  0
  4  3  1  0  0  0  0
  5 14  1  0  0  0  0
  8  3  2  0  0  0  0
  9  6  2  0  0  0  0
 10  9  1  6  0  0  0
 10  8  1  0  0  0  0
 11 18  2  0  0  0  0
 12 13  1  0  0  0  0
 13 15  2  0  0  0  0
 13 16  1  0  0  0  0
 14  7  2  0  0  0  0
 14  6  1  0  0  0  0
 15  5  1  0  0  0  0
 16  1  2  0  0  0  0
 17  4  2  0  0  0  0
 18 10  1  0  0  0  0
 18 17  1  0  0  0  0
 19  5  2  0  0  0  0
 19  2  1  0  0  0  0
 20  2  2  0  0  0  0
 20 11  1  0  0  0  0
 21 26  1  0  0  0  0
 21 27  1  0  0  0  0
 22 21  2  0  0  0  0
 23 29  1  0  0  0  0
 24 25  1  0  0  0  0
 25 23  2  0  0  0  0
 25 22  1  0  0  0  0
 28 23  1  0  0  0  0
 29 11  1  0  0  0  0
 29 26  2  0  0  0  0
 30 16  1  0  0  0  0
 31 30  1  0  0  0  0
 32 31  3  0  0  0  0
M  END
>  <MODEL>
6

>  <REMARK>
 VINA RESULT:      -8.6      4.460      9.027
  Name = 
  3 active torsions:
  status: ('A' for Active; 'I' for Inactive)
    1  A    between atoms: C_1  and  N_10
    2  A    between atoms: N_10  and  C_24
    3  A    between atoms: C_16  and  C_32
                            x       y       z     vdW  Elec       q    Type
                         _______ _______ _______ _____ _____    ______ ____

>  <TORSDO>
F 3

$$$$
=
 OpenBabel11052416563D

 32 36  0  0  0  0  0  0  0  0999 V2000
  190.0660  177.5830  145.1390 C   0  0  0  0  0  3  0  0  0  0  0  0
  185.4600  178.1450  142.6180 C   0  0  0  0  0  0  0  0  0  0  0  0
  187.1030  178.4190  138.0070 C   0  0  0  0  0  3  0  0  0  0  0  0
  185.8450  178.5690  137.5910 C   0  0  0  0  0  3  0  0  0  0  0  0
  186.9900  177.8780  144.4970 C   0  0  0  0  0  0  0  0  0  0  0  0
  187.8380  177.9720  142.2220 C   0  0  0  0  0  3  0  0  0  0  0  0
  189.4910  177.6880  143.9490 C   0  0  0  0  0  3  0  0  0  0  0  0
  187.3730  178.2540  139.4040 N   0  0  0  0  0  2  0  0  0  0  0  0
  186.5410  178.1190  141.7240 C   0  0  0  0  0  0  0  0  0  0  0  0
  186.2930  178.2510  140.3510 C   0  0  0  0  0  0  0  0  0  0  0  0
  183.9090  178.3980  140.8280 C   0  0  0  0  0  0  0  0  0  0  0  0
  187.6070  177.4260  148.4690 S   0  0  0  0  0  1  0  0  0  0  0  0
  188.1720  177.6250  146.7740 C   0  0  0  0  0  0  0  0  0  0  0  0
  188.0810  177.8510  143.5970 C   0  0  0  0  0  0  0  0  0  0  0  0
  187.0600  177.7720  145.8230 C   0  0  0  0  0  3  0  0  0  0  0  0
  189.4910  177.5940  146.4870 C   0  0  0  0  0  0  0  0  0  0  0  0
  184.7410  178.5600  138.5730 C   0  0  0  0  0  3  0  0  0  0  0  0
  184.9670  178.3990  139.8890 C   0  0  0  0  0  0  0  0  0  0  0  0
  185.6930  178.0230  143.9870 C   0  0  0  0  0  3  0  0  0  0  0  0
  184.1910  178.2840  142.1560 N   0  0  0  0  0  0  0  0  0  0  0  0
  180.5590  180.0000  140.2080 C   0  0  0  0  0  0  0  0  0  0  0  0
  179.8090  178.9330  139.7120 C   0  0  0  0  0  3  0  0  0  0  0  0
  181.7290  177.4640  139.9400 C   0  0  0  0  0  0  0  0  0  0  0  0
  179.6340  176.6430  139.1080 F   0  0  0  0  0  0  0  0  0  0  0  0
  180.3870  177.6690  139.5780 C   0  0  0  0  0  0  0  0  0  0  0  0
  181.8940  179.8060  140.5670 C   0  0  0  0  0  3  0  0  0  0  0  0
  179.9920  181.2220  140.3430 F   0  0  0  0  0  0  0  0  0  0  0  0
  182.3050  176.0890  139.8430 C   0  0  0  0  0  1  0  0  0  0  0  0
  182.4940  178.5490  140.4260 C   0  0  0  0  0  0  0  0  0  0  0  0
  190.4650  177.4990  147.5340 N   0  0  0  0  0  2  0  0  0  0  0  0
  191.5430  176.5990  147.5000 C   0  0  0  0  0  0  0  0  0  0  0  0
  192.4310  175.8580  147.4710 N   0  0  0  0  0  0  0  0  0  0  0  0
  1 16  1  0  0  0  0
  2 19  2  0  0  0  0
  3  8  1  0  0  0  0
  4  3  2  0  0  0  0
  4 17  1  0  0  0  0
  5 15  2  0  0  0  0
  6 14  2  0  0  0  0
  7  1  2  0  0  0  0
  8 10  1  0  0  0  0
  9  6  1  0  0  0  0
  9  2  1  0  0  0  0
 10  9  2  0  0  0  0
 11 20  2  0  0  0  0
 13 12  1  0  0  0  0
 14  7  1  0  0  0  0
 14  5  1  0  0  0  0
 15 13  1  0  0  0  0
 16 13  2  0  0  0  0
 16 30  1  0  0  0  0
 17 18  2  0  0  0  0
 18 10  1  0  0  0  0
 18 11  1  0  0  0  0
 19  5  1  0  0  0  0
 20  2  1  0  0  0  0
 21 27  1  0  0  0  0
 21 26  1  0  0  0  0
 22 21  2  0  0  0  0
 23 29  1  0  0  0  0
 24 25  1  0  0  0  0
 25 22  1  0  0  0  0
 25 23  2  0  0  0  0
 28 23  1  0  0  0  0
 29 26  2  0  0  0  0
 29 11  1  0  0  0  0
 31 30  1  0  0  0  0
 32 31  3  0  0  0  0
M  END
>  <MODEL>
7

>  <REMARK>
 VINA RESULT:      -8.4      2.473      4.507
  Name = 
  3 active torsions:
  status: ('A' for Active; 'I' for Inactive)
    1  A    between atoms: C_1  and  N_10
    2  A    between atoms: N_10  and  C_24
    3  A    between atoms: C_16  and  C_32
                            x       y       z     vdW  Elec       q    Type
                         _______ _______ _______ _____ _____    ______ ____

>  <TORSDO>
F 3

$$$$
=
 OpenBabel11052416563D

 32 36  0  0  0  0  0  0  0  0999 V2000
  186.8100  178.3080  144.2040 C   0  0  0  0  0  3  0  0  0  0  0  0
  190.0080  176.7390  140.3060 C   0  0  0  0  0  0  0  0  0  0  0  0
  187.3970  178.2950  136.4590 C   0  0  0  0  0  3  0  0  0  0  0  0
  188.3350  177.7990  135.6500 C   0  0  0  0  0  3  0  0  0  0  0  0
  189.2190  177.0630  142.5900 C   0  0  0  0  0  0  0  0  0  0  0  0
  187.9160  177.8810  140.7090 C   0  0  0  0  0  3  0  0  0  0  0  0
  186.9940  178.3060  142.8910 C   0  0  0  0  0  3  0  0  0  0  0  0
  187.5540  178.1830  137.8780 N   0  0  0  0  0  0  0  0  0  0  0  0
  188.8700  177.3950  139.8110 C   0  0  0  0  0  0  0  0  0  0  0  0
  188.7150  177.5380  138.4260 C   0  0  0  0  0  0  0  0  0  0  0  0
  190.8410  176.3960  138.1010 C   0  0  0  0  0  0  0  0  0  0  0  0
  189.7880  176.6730  146.5750 S   0  0  0  0  0  1  0  0  0  0  0  0
  188.8210  177.1430  145.1350 C   0  0  0  0  0  0  0  0  0  0  0  0
  188.0730  177.7260  142.0930 C   0  0  0  0  0  0  0  0  0  0  0  0
  189.5090  176.8420  143.8700 C   0  0  0  0  0  3  0  0  0  0  0  0
  187.6170  177.7360  145.2870 C   0  0  0  0  0  0  0  0  0  0  0  0
  189.5270  177.1420  136.2240 C   0  0  0  0  0  3  0  0  0  0  0  0
  189.7010  177.0310  137.5530 C   0  0  0  0  0  0  0  0  0  0  0  0
  190.1710  176.5810  141.6810 C   0  0  0  0  0  3  0  0  0  0  0  0
  190.9490  176.2610  139.4520 N   0  0  0  0  0  2  0  0  0  0  0  0
  194.0600  176.1710  136.1610 C   0  0  0  0  0  0  0  0  0  0  0  0
  194.0010  174.8780  135.6410 C   0  0  0  0  0  3  0  0  0  0  0  0
  191.8500  174.5340  136.7120 C   0  0  0  0  0  0  0  0  0  0  0  0
  192.8600  172.8120  135.3820 F   0  0  0  0  0  0  0  0  0  0  0  0
  192.9020  174.0600  135.9120 C   0  0  0  0  0  0  0  0  0  0  0  0
  193.0200  176.6490  136.9610 C   0  0  0  0  0  3  0  0  0  0  0  0
  195.1240  176.9640  135.8900 F   0  0  0  0  0  0  0  0  0  0  0  0
  190.6590  173.6600  136.9380 C   0  0  0  0  0  1  0  0  0  0  0  0
  191.9180  175.8370  137.2550 C   0  0  0  0  0  0  0  0  0  0  0  0
  187.0480  177.9140  146.5900 N   0  0  0  0  0  2  0  0  0  0  0  0
  185.7200  178.3190  146.7980 C   0  0  0  0  0  0  0  0  0  0  0  0
  184.6260  178.6530  146.9700 N   0  0  0  0  0  0  0  0  0  0  0  0
  1 16  1  0  0  0  0
  2 19  2  0  0  0  0
  3  8  2  0  0  0  0
  4 17  2  0  0  0  0
  4  3  1  0  0  0  0
  5 15  2  0  0  0  0
  6 14  2  0  0  0  0
  7  1  2  0  0  0  0
  8 10  1  0  0  0  0
  9  2  1  0  0  0  0
  9  6  1  0  0  0  0
 10  9  2  0  0  0  0
 11 20  1  0  0  0  0
 13 16  2  0  0  0  0
 13 12  1  0  0  0  0
 14  5  1  0  0  0  0
 14  7  1  0  0  0  0
 15 13  1  0  0  0  0
 16 30  1  0  0  0  0
 17 18  1  0  0  0  0
 18 11  2  0  0  0  0
 18 10  1  0  0  0  0
 19  5  1  0  0  0  0
 20  2  1  0  0  0  0
 21 26  1  0  0  0  0
 22 25  1  0  0  0  0
 22 21  2  0  0  0  0
 23 28  1  0  0  0  0
 23 29  1  0  0  0  0
 24 25  1  0  0  0  0
 25 23  2  0  0  0  0
 26 29  2  0  0  0  0
 27 21  1  0  0  0  0
 29 11  1  0  0  0  0
 30 31  1  0  0  0  0
 31 32  3  0  0  0  0
M  END
>  <MODEL>
8

>  <REMARK>
 VINA RESULT:      -8.3      6.599      8.924
  Name = 
  3 active torsions:
  status: ('A' for Active; 'I' for Inactive)
    1  A    between atoms: C_1  and  N_10
    2  A    between atoms: N_10  and  C_24
    3  A    between atoms: C_16  and  C_32
                            x       y       z     vdW  Elec       q    Type
                         _______ _______ _______ _____ _____    ______ ____

>  <TORSDO>
F 3

$$$$
=
 OpenBabel11052416563D

 32 36  0  0  1  0  0  0  0  0999 V2000
  190.9330  176.6680  136.0810 C   0  0  0  0  0  3  0  0  0  0  0  0
  189.3580  177.1720  141.0960 C   0  0  0  0  0  0  0  0  0  0  0  0
  184.9500  179.1840  140.3480 C   0  0  0  0  0  3  0  0  0  0  0  0
  184.7720  179.2320  141.6700 C   0  0  0  0  0  3  0  0  0  0  0  0
  190.8240  176.5980  139.2350 C   0  0  0  0  0  0  0  0  0  0  0  0
  188.6300  177.5600  138.8250 C   0  0  0  0  0  3  0  0  0  0  0  0
  189.9330  177.0410  136.8690 C   0  0  0  0  0  3  0  0  0  0  0  0
  186.1600  178.6350  139.8160 N   0  0  0  0  0  0  0  0  0  0  0  0
  188.3800  177.6250  140.1980 C   0  0  0  0  0  0  0  0  0  0  0  0
  187.1780  178.1390  140.7010 C   0  0  1  0  0  3  0  0  0  0  0  0
  187.9720  177.7000  142.9610 C   0  0  0  0  0  0  0  0  0  0  0  0
  194.2900  175.0260  137.8690 S   0  0  0  0  0  1  0  0  0  0  0  0
  192.7090  175.8500  137.6450 C   0  0  0  0  0  0  0  0  0  0  0  0
  189.8380  177.0530  138.3270 C   0  0  0  0  0  0  0  0  0  0  0  0
  192.0130  176.0910  138.9180 C   0  0  0  0  0  3  0  0  0  0  0  0
  192.2650  176.1470  136.4040 C   0  0  0  0  0  0  0  0  0  0  0  0
  185.8230  178.7160  142.5710 C   0  0  0  0  0  3  0  0  0  0  0  0
  186.9650  178.1890  142.0960 C   0  0  0  0  0  0  0  0  0  0  0  0
  190.5620  176.6660  140.6100 C   0  0  0  0  0  3  0  0  0  0  0  0
  189.1340  177.2230  142.4350 N   0  0  0  0  0  0  0  0  0  0  0  0
  186.3450  177.7940  146.3550 C   0  0  0  0  0  0  0  0  0  0  0  0
  187.4470  177.7770  147.2110 C   0  0  0  0  0  3  0  0  0  0  0  0
  188.9430  177.7180  145.3000 C   0  0  0  0  0  0  0  0  0  0  0  0
  189.7990  177.7390  147.5410 F   0  0  0  0  0  0  0  0  0  0  0  0
  188.7420  177.7400  146.6900 C   0  0  0  0  0  0  0  0  0  0  0  0
  186.5360  177.7690  144.9720 C   0  0  0  0  0  3  0  0  0  0  0  0
  185.0910  177.8370  146.8640 F   0  0  0  0  0  0  0  0  0  0  0  0
  190.3400  177.7400  144.7680 C   0  0  0  0  0  1  0  0  0  0  0  0
  187.8270  177.7170  144.4330 C   0  0  0  0  0  0  0  0  0  0  0  0
  193.0850  175.8990  135.2550 N   0  0  0  0  0  2  0  0  0  0  0  0
  194.1640  176.7210  134.8920 C   0  0  0  0  0  0  0  0  0  0  0  0
  195.0540  177.3980  134.5940 N   0  0  0  0  0  0  0  0  0  0  0  0
  1 16  2  0  0  0  0
  1  7  1  0  0  0  0
  2 20  2  0  0  0  0
  3  4  1  0  0  0  0
  4 17  2  0  0  0  0
  5 19  2  0  0  0  0
  6  9  2  0  0  0  0
  7 14  2  0  0  0  0
  8  3  2  0  0  0  0
  9 10  1  0  0  0  0
  9  2  1  0  0  0  0
 10  8  1  1  0  0  0
 10 18  1  0  0  0  0
 11 29  1  0  0  0  0
 13 12  1  0  0  0  0
 13 15  2  0  0  0  0
 14  6  1  0  0  0  0
 14  5  1  0  0  0  0
 15  5  1  0  0  0  0
 16 13  1  0  0  0  0
 18 17  1  0  0  0  0
 18 11  2  0  0  0  0
 19  2  1  0  0  0  0
 20 11  1  0  0  0  0
 21 27  1  0  0  0  0
 21 22  1  0  0  0  0
 23 25  1  0  0  0  0
 25 22  2  0  0  0  0
 25 24  1  0  0  0  0
 26 21  2  0  0  0  0
 28 23  1  0  0  0  0
 29 26  1  0  0  0  0
 29 23  2  0  0  0  0
 30 16  1  0  0  0  0
 31 30  1  0  0  0  0
 32 31  3  0  0  0  0
M  END
>  <MODEL>
9

>  <REMARK>
 VINA RESULT:      -8.0      6.381      9.437
  Name = 
  3 active torsions:
  status: ('A' for Active; 'I' for Inactive)
    1  A    between atoms: C_1  and  N_10
    2  A    between atoms: N_10  and  C_24
    3  A    between atoms: C_16  and  C_32
                            x       y       z     vdW  Elec       q    Type
                         _______ _______ _______ _____ _____    ______ ____

>  <TORSDO>
F 3

$$$$
