=
 OpenBabel11052414013D

 34 39  0  0  1  0  0  0  0  0999 V2000
  186.5600  178.2600  146.5990 C   0  0  0  0  0  0  0  0  0  0  0  0
  185.9900  178.0760  144.2280 C   0  0  0  0  0  0  0  0  0  0  0  0
  188.3200  177.9080  144.9410 C   0  0  0  0  0  0  0  0  0  0  0  0
  189.9810  177.3840  142.9840 C   0  0  1  0  0  0  0  0  0  0  0  0
  184.2510  178.4210  145.8810 C   0  0  0  0  0  3  0  0  0  0  0  0
  184.6420  178.2470  144.5480 C   0  0  0  0  0  3  0  0  0  0  0  0
  187.7010  177.7560  142.5370 C   0  0  0  0  0  0  0  0  0  0  0  0
  186.9590  178.0810  145.2570 C   0  0  0  0  0  0  0  0  0  0  0  0
  189.7720  177.4200  141.4610 C   0  0  0  0  0  2  0  0  0  0  0  0
  185.2070  178.4260  146.9040 C   0  0  0  0  0  3  0  0  0  0  0  0
  189.2730  177.9310  145.9660 C   0  0  0  0  0  3  0  0  0  0  0  0
  187.5220  178.2670  147.6130 C   0  0  0  0  0  3  0  0  0  0  0  0
  186.4030  177.9000  142.8220 C   0  0  0  0  0  3  0  0  0  0  0  0
  191.0420  178.4110  143.3570 C   0  0  0  0  0  1  0  0  0  0  0  0
  188.2690  177.5430  141.1860 C   0  0  2  0  0  3  0  0  0  0  0  0
  188.6840  177.7250  143.5570 N   0  0  0  0  0  0  0  0  0  0  0  0
  188.8750  178.1060  147.2970 C   0  0  0  0  0  3  0  0  0  0  0  0
  188.0280  178.7500  140.2910 C   0  0  0  0  0  2  0  0  0  0  0  0
  189.0460  178.8430  139.3310 O   0  0  0  0  0  0  0  0  0  0  0  0
  189.0950  179.0930  136.8660 C   0  0  0  0  0  2  0  0  0  0  0  0
  188.4890  178.4570  138.1010 C   0  0  1  0  0  0  0  0  0  0  0  0
  189.4780  177.6640  137.2400 C   0  0  1  0  0  3  0  0  0  0  0  0
  187.6910  175.9110  136.9800 C   0  0  0  0  0  2  0  0  0  0  0  0
  186.6640  176.8590  137.5250 C   0  0  0  0  0  3  0  0  0  0  0  0
  187.0350  178.0290  138.0560 C   0  0  0  0  0  3  0  0  0  0  0  0
  188.7940  176.6930  136.2740 C   0  0  0  0  0  2  0  0  0  0  0  0
  190.3960  175.9590  143.3600 C   0  0  0  0  0  2  0  0  0  0  0  0
  191.7410  175.8780  143.7450 O   0  0  0  0  0  0  0  0  0  0  0  0
  191.7250  175.2480  144.9980 C   0  0  1  0  0  3  0  0  0  0  0  0
  192.6160  173.9980  145.0430 C   0  0  0  0  0  2  0  0  0  0  0  0
  191.8520  172.7230  144.7240 C   0  0  0  0  0  1  0  0  0  0  0  0
  192.0060  176.2370  146.1340 C   0  0  0  0  0  2  0  0  0  0  0  0
  191.7200  175.6840  147.5270 C   0  0  0  0  0  2  0  0  0  0  0  0
  192.9350  175.8100  148.4270 C   0  0  0  0  0  1  0  0  0  0  0  0
  1 10  1  0  0  0  0
  1 12  1  0  0  0  0
  2  6  2  0  0  0  0
  2  8  1  0  0  0  0
  3  8  1  0  0  0  0
  3 11  2  0  0  0  0
  4 14  1  1  0  0  0
  4 27  1  0  0  0  0
  4 16  1  0  0  0  0
  5 10  2  0  0  0  0
  6  5  1  0  0  0  0
  7 13  2  0  0  0  0
  7 16  1  0  0  0  0
  8  1  2  0  0  0  0
  9  4  1  0  0  0  0
 11 17  1  0  0  0  0
 13  2  1  0  0  0  0
 15 18  1  6  0  0  0
 15  9  1  0  0  0  0
 15  7  1  0  0  0  0
 16  3  1  0  0  0  0
 17 12  2  0  0  0  0
 19 18  1  0  0  0  0
 20 22  1  0  0  0  0
 20 21  1  0  0  0  0
 21 19  1  1  0  0  0
 22 26  1  6  0  0  0
 22 21  1  0  0  0  0
 23 24  1  0  0  0  0
 24 25  2  0  0  0  0
 25 21  1  0  0  0  0
 26 23  1  0  0  0  0
 27 28  1  0  0  0  0
 28 29  1  0  0  0  0
 29 30  1  6  0  0  0
 29 32  1  0  0  0  0
 31 30  1  0  0  0  0
 32 33  1  0  0  0  0
 33 34  1  0  0  0  0
M  END
>  <MODEL>
1

>  <REMARK>
 VINA RESULT:      -8.0      0.000      0.000
  Name = 
  9 active torsions:
  status: ('A' for Active; 'I' for Inactive)
    1  A    between atoms: O_3  and  C_13
    2  A    between atoms: O_3  and  C_17
    3  A    between atoms: C_5  and  C_27
    4  A    between atoms: C_7  and  C_8
    5  A    between atoms: C_8  and  O_16
    6  A    between atoms: C_8  and  C_23
    7  A    between atoms: C_12  and  C_23
    8  A    between atoms: O_16  and  C_27
    9  A    between atoms: C_17  and  C_29
                            x       y       z     vdW  Elec       q    Type
                         _______ _______ _______ _____ _____    ______ ____

>  <TORSDO>
F 9

$$$$
=
 OpenBabel11052414013D

 34 39  0  0  1  0  0  0  0  0999 V2000
  184.2040  178.7710  144.4610 C   0  0  0  0  0  0  0  0  0  0  0  0
  185.0630  178.2280  142.2370 C   0  0  0  0  0  0  0  0  0  0  0  0
  186.5970  178.4050  144.1290 C   0  0  0  0  0  0  0  0  0  0  0  0
  189.0790  177.8210  143.5260 C   0  0  1  0  0  0  0  0  0  0  0  0
  182.6900  178.5880  142.5780 C   0  0  0  0  0  3  0  0  0  0  0  0
  183.7630  178.2910  141.7300 C   0  0  0  0  0  3  0  0  0  0  0  0
  187.4330  177.8850  141.8450 C   0  0  0  0  0  0  0  0  0  0  0  0
  185.2890  178.4680  143.6110 C   0  0  0  0  0  0  0  0  0  0  0  0
  189.7580  177.6420  142.1580 C   0  0  0  0  0  2  0  0  0  0  0  0
  182.9090  178.8270  143.9400 C   0  0  0  0  0  3  0  0  0  0  0  0
  186.8120  178.6610  145.4890 C   0  0  0  0  0  3  0  0  0  0  0  0
  184.4330  179.0100  145.8200 C   0  0  0  0  0  3  0  0  0  0  0  0
  186.1950  177.9220  141.3410 C   0  0  0  0  0  3  0  0  0  0  0  0
  189.7290  178.9960  144.2450 C   0  0  0  0  0  1  0  0  0  0  0  0
  188.6640  177.5660  141.0860 C   0  0  2  0  0  3  0  0  0  0  0  0
  187.6770  178.0900  143.2260 N   0  0  0  0  0  0  0  0  0  0  0  0
  185.7340  178.9580  146.3300 C   0  0  0  0  0  3  0  0  0  0  0  0
  188.9410  178.6170  140.0210 C   0  0  0  0  0  2  0  0  0  0  0  0
  189.9270  178.1520  139.1380 O   0  0  0  0  0  0  0  0  0  0  0  0
  190.0970  177.0370  136.9320 C   0  0  0  0  0  2  0  0  0  0  0  0
  189.2810  177.8280  137.9340 C   0  0  1  0  0  0  0  0  0  0  0  0
  189.0560  176.3190  137.7850 C   0  0  1  0  0  3  0  0  0  0  0  0
  186.6420  176.8300  137.2880 C   0  0  0  0  0  2  0  0  0  0  0  0
  186.9740  178.2810  137.1040 C   0  0  0  0  0  3  0  0  0  0  0  0
  188.1890  178.7440  137.4170 C   0  0  0  0  0  3  0  0  0  0  0  0
  187.8470  175.9720  136.9120 C   0  0  0  0  0  2  0  0  0  0  0  0
  189.2390  176.5090  144.2970 C   0  0  0  0  0  2  0  0  0  0  0  0
  190.5670  176.2690  144.6740 O   0  0  0  0  0  0  0  0  0  0  0  0
  190.5330  176.1370  146.0700 C   0  0  1  0  0  3  0  0  0  0  0  0
  191.8220  176.6290  146.7430 C   0  0  0  0  0  2  0  0  0  0  0  0
  192.4550  175.5740  147.6350 C   0  0  0  0  0  1  0  0  0  0  0  0
  189.2620  176.7520  146.6660 C   0  0  0  0  0  2  0  0  0  0  0  0
  189.5230  177.7710  147.7700 C   0  0  0  0  0  2  0  0  0  0  0  0
  188.3380  177.8730  148.7140 C   0  0  0  0  0  1  0  0  0  0  0  0
  1 12  1  0  0  0  0
  2  8  1  0  0  0  0
  3 11  2  0  0  0  0
  4 14  1  1  0  0  0
  4 27  1  0  0  0  0
  5 10  2  0  0  0  0
  6  2  2  0  0  0  0
  6  5  1  0  0  0  0
  7 16  1  0  0  0  0
  8  3  1  0  0  0  0
  8  1  2  0  0  0  0
  9  4  1  0  0  0  0
 10  1  1  0  0  0  0
 11 17  1  0  0  0  0
 12 17  2  0  0  0  0
 13  7  2  0  0  0  0
 13  2  1  0  0  0  0
 15 18  1  6  0  0  0
 15  7  1  0  0  0  0
 15  9  1  0  0  0  0
 16  4  1  0  0  0  0
 16  3  1  0  0  0  0
 19 18  1  0  0  0  0
 20 22  1  0  0  0  0
 20 21  1  0  0  0  0
 21 19  1  1  0  0  0
 22 26  1  6  0  0  0
 22 21  1  0  0  0  0
 24 23  1  0  0  0  0
 24 25  2  0  0  0  0
 25 21  1  0  0  0  0
 26 23  1  0  0  0  0
 27 28  1  0  0  0  0
 28 29  1  0  0  0  0
 29 32  1  1  0  0  0
 29 30  1  0  0  0  0
 30 31  1  0  0  0  0
 32 33  1  0  0  0  0
 33 34  1  0  0  0  0
M  END
>  <MODEL>
2

>  <REMARK>
 VINA RESULT:      -7.5      1.346      2.421
  Name = 
  9 active torsions:
  status: ('A' for Active; 'I' for Inactive)
    1  A    between atoms: O_3  and  C_13
    2  A    between atoms: O_3  and  C_17
    3  A    between atoms: C_5  and  C_27
    4  A    between atoms: C_7  and  C_8
    5  A    between atoms: C_8  and  O_16
    6  A    between atoms: C_8  and  C_23
    7  A    between atoms: C_12  and  C_23
    8  A    between atoms: O_16  and  C_27
    9  A    between atoms: C_17  and  C_29
                            x       y       z     vdW  Elec       q    Type
                         _______ _______ _______ _____ _____    ______ ____

>  <TORSDO>
F 9

$$$$
=
 OpenBabel11052414013D

 34 39  0  0  1  0  0  0  0  0999 V2000
  183.0080  178.7620  143.9840 C   0  0  0  0  0  0  0  0  0  0  0  0
  184.7710  178.6450  142.2940 C   0  0  0  0  0  0  0  0  0  0  0  0
  182.4370  178.8590  141.6100 C   0  0  0  0  0  0  0  0  0  0  0  0
  182.1180  179.0880  139.0200 C   0  0  1  0  0  0  0  0  0  0  0  0
  185.3280  178.5550  144.6520 C   0  0  0  0  0  3  0  0  0  0  0  0
  185.7250  178.5440  143.3090 C   0  0  0  0  0  3  0  0  0  0  0  0
  184.2570  178.7060  139.9230 C   0  0  0  0  0  0  0  0  0  0  0  0
  183.4030  178.7550  142.6290 C   0  0  0  0  0  0  0  0  0  0  0  0
  183.1100  178.8570  137.8680 C   0  0  0  0  0  2  0  0  0  0  0  0
  183.9740  178.6640  144.9890 C   0  0  0  0  0  3  0  0  0  0  0  0
  181.0820  178.9510  141.9530 C   0  0  0  0  0  3  0  0  0  0  0  0
  181.6530  178.8690  144.3110 C   0  0  0  0  0  3  0  0  0  0  0  0
  185.1890  178.6260  140.8780 C   0  0  0  0  0  3  0  0  0  0  0  0
  180.9690  178.0990  138.8830 C   0  0  0  0  0  1  0  0  0  0  0  0
  184.5170  178.7280  138.4650 C   0  0  2  0  0  3  0  0  0  0  0  0
  182.8830  178.8510  140.2390 N   0  0  0  0  0  0  0  0  0  0  0  0
  180.6930  178.9600  143.2980 C   0  0  0  0  0  3  0  0  0  0  0  0
  185.1350  177.4200  137.9960 C   0  0  0  0  0  2  0  0  0  0  0  0
  185.6530  177.5740  136.7020 O   0  0  0  0  0  0  0  0  0  0  0  0
  187.8280  177.7070  135.5220 C   0  0  0  0  0  2  0  0  0  0  0  0
  187.0520  177.5160  136.8090 C   0  0  1  0  0  0  0  0  0  0  0  0
  187.7130  178.8660  136.5070 C   0  0  1  0  0  3  0  0  0  0  0  0
  188.9610  178.6270  138.6800 C   0  0  0  0  0  2  0  0  0  0  0  0
  188.5630  177.1830  138.7650 C   0  0  0  0  0  3  0  0  0  0  0  0
  187.6700  176.6740  137.9090 C   0  0  0  0  0  3  0  0  0  0  0  0
  189.0560  179.0520  137.2180 C   0  0  0  0  0  2  0  0  0  0  0  0
  181.6440  180.5420  138.9380 C   0  0  0  0  0  2  0  0  0  0  0  0
  180.4050  180.6640  138.2950 O   0  0  0  0  0  0  0  0  0  0  0  0
  180.6360  181.5340  137.2190 C   0  0  1  0  0  3  0  0  0  0  0  0
  179.9550  181.0670  135.9250 C   0  0  0  0  0  2  0  0  0  0  0  0
  180.8060  181.3230  134.6910 C   0  0  0  0  0  1  0  0  0  0  0  0
  180.3150  182.9870  137.5860 C   0  0  0  0  0  2  0  0  0  0  0  0
  181.4210  183.9760  137.2360 C   0  0  0  0  0  2  0  0  0  0  0  0
  180.9980  184.8950  136.1050 C   0  0  0  0  0  1  0  0  0  0  0  0
  1 12  1  0  0  0  0
  1 10  2  0  0  0  0
  2  8  2  0  0  0  0
  2  6  1  0  0  0  0
  3 11  2  0  0  0  0
  3  8  1  0  0  0  0
  4 14  1  6  0  0  0
  4 16  1  0  0  0  0
  5 10  1  0  0  0  0
  6  5  2  0  0  0  0
  7 16  1  0  0  0  0
  7 13  2  0  0  0  0
  8  1  1  0  0  0  0
  9 15  1  0  0  0  0
  9  4  1  0  0  0  0
 11 17  1  0  0  0  0
 13  2  1  0  0  0  0
 15 18  1  6  0  0  0
 15  7  1  0  0  0  0
 16  3  1  0  0  0  0
 17 12  2  0  0  0  0
 19 18  1  0  0  0  0
 20 21  1  0  0  0  0
 21 19  1  6  0  0  0
 21 25  1  0  0  0  0
 22 20  1  6  0  0  0
 22 21  1  0  0  0  0
 22 26  1  0  0  0  0
 23 24  1  0  0  0  0
 25 24  2  0  0  0  0
 26 23  1  0  0  0  0
 27  4  1  0  0  0  0
 28 27  1  0  0  0  0
 29 30  1  6  0  0  0
 29 32  1  0  0  0  0
 29 28  1  0  0  0  0
 31 30  1  0  0  0  0
 33 32  1  0  0  0  0
 34 33  1  0  0  0  0
M  END
>  <MODEL>
3

>  <REMARK>
 VINA RESULT:      -7.4      4.776      9.030
  Name = 
  9 active torsions:
  status: ('A' for Active; 'I' for Inactive)
    1  A    between atoms: O_3  and  C_13
    2  A    between atoms: O_3  and  C_17
    3  A    between atoms: C_5  and  C_27
    4  A    between atoms: C_7  and  C_8
    5  A    between atoms: C_8  and  O_16
    6  A    between atoms: C_8  and  C_23
    7  A    between atoms: C_12  and  C_23
    8  A    between atoms: O_16  and  C_27
    9  A    between atoms: C_17  and  C_29
                            x       y       z     vdW  Elec       q    Type
                         _______ _______ _______ _____ _____    ______ ____

>  <TORSDO>
F 9

$$$$
=
 OpenBabel11052414013D

 34 39  0  0  1  0  0  0  0  0999 V2000
  189.8790  177.5870  145.7870 C   0  0  0  0  0  0  0  0  0  0  0  0
  187.5410  177.5760  145.0750 C   0  0  0  0  0  0  0  0  0  0  0  0
  189.3160  177.8860  143.4280 C   0  0  0  0  0  0  0  0  0  0  0  0
  188.4460  178.0360  140.9610 C   0  0  1  0  0  0  0  0  0  0  0  0
  188.1090  177.2750  147.4120 C   0  0  0  0  0  3  0  0  0  0  0  0
  187.1480  177.3730  146.4000 C   0  0  0  0  0  3  0  0  0  0  0  0
  186.9240  177.8990  142.7500 C   0  0  0  0  0  0  0  0  0  0  0  0
  188.9140  177.6830  144.7620 C   0  0  0  0  0  0  0  0  0  0  0  0
  187.0200  178.2150  140.4150 C   0  0  0  0  0  2  0  0  0  0  0  0
  189.4720  177.3800  147.1070 C   0  0  0  0  0  3  0  0  0  0  0  0
  190.6790  178.0080  143.1310 C   0  0  0  0  0  3  0  0  0  0  0  0
  191.2380  177.6960  145.4730 C   0  0  0  0  0  3  0  0  0  0  0  0
  186.5260  177.6870  144.0090 C   0  0  0  0  0  3  0  0  0  0  0  0
  189.2870  179.2320  140.5370 C   0  0  0  0  0  1  0  0  0  0  0  0
  186.0340  178.0050  141.5710 C   0  0  2  0  0  3  0  0  0  0  0  0
  188.2970  177.9770  142.4110 N   0  0  0  0  0  0  0  0  0  0  0  0
  191.6350  177.9090  144.1490 C   0  0  0  0  0  3  0  0  0  0  0  0
  185.1270  179.2220  141.6730 C   0  0  0  0  0  2  0  0  0  0  0  0
  184.9030  179.7590  140.3970 O   0  0  0  0  0  0  0  0  0  0  0  0
  183.0310  179.9860  138.7900 C   0  0  0  0  0  2  0  0  0  0  0  0
  183.6740  179.2480  139.9460 C   0  0  1  0  0  0  0  0  0  0  0  0
  183.7700  178.6770  138.5270 C   0  0  1  0  0  3  0  0  0  0  0  0
  182.6970  176.5780  139.4080 C   0  0  0  0  0  2  0  0  0  0  0  0
  182.3150  177.2880  140.6720 C   0  0  0  0  0  3  0  0  0  0  0  0
  182.7790  178.5170  140.9270 C   0  0  0  0  0  3  0  0  0  0  0  0
  182.7470  177.5720  138.2510 C   0  0  0  0  0  2  0  0  0  0  0  0
  188.9920  176.7170  140.4060 C   0  0  0  0  0  2  0  0  0  0  0  0
  190.0800  176.9090  139.5450 O   0  0  0  0  0  0  0  0  0  0  0  0
  189.8050  176.1110  138.4250 C   0  0  1  0  0  3  0  0  0  0  0  0
  188.8450  176.7890  137.4370 C   0  0  0  0  0  2  0  0  0  0  0  0
  189.3300  178.1620  136.9990 C   0  0  0  0  0  1  0  0  0  0  0  0
  191.0890  175.5930  137.7680 C   0  0  0  0  0  2  0  0  0  0  0  0
  192.3540  176.3150  138.2210 C   0  0  0  0  0  2  0  0  0  0  0  0
  193.5990  175.5860  137.7490 C   0  0  0  0  0  1  0  0  0  0  0  0
  1 10  2  0  0  0  0
  2  6  1  0  0  0  0
  3  8  1  0  0  0  0
  4 14  1  6  0  0  0
  4 16  1  0  0  0  0
  6  5  2  0  0  0  0
  7 13  2  0  0  0  0
  8  2  2  0  0  0  0
  8  1  1  0  0  0  0
  9  4  1  0  0  0  0
  9 15  1  0  0  0  0
 10  5  1  0  0  0  0
 11  3  2  0  0  0  0
 11 17  1  0  0  0  0
 12  1  1  0  0  0  0
 13  2  1  0  0  0  0
 15 18  1  1  0  0  0
 15  7  1  0  0  0  0
 16  7  1  0  0  0  0
 16  3  1  0  0  0  0
 17 12  2  0  0  0  0
 19 18  1  0  0  0  0
 20 21  1  0  0  0  0
 21 19  1  1  0  0  0
 21 25  1  0  0  0  0
 22 26  1  1  0  0  0
 22 20  1  0  0  0  0
 22 21  1  0  0  0  0
 23 24  1  0  0  0  0
 24 25  2  0  0  0  0
 26 23  1  0  0  0  0
 27  4  1  0  0  0  0
 28 27  1  0  0  0  0
 29 30  1  6  0  0  0
 29 28  1  0  0  0  0
 31 30  1  0  0  0  0
 32 33  1  0  0  0  0
 32 29  1  0  0  0  0
 34 33  1  0  0  0  0
M  END
>  <MODEL>
4

>  <REMARK>
 VINA RESULT:      -7.3      2.518      5.272
  Name = 
  9 active torsions:
  status: ('A' for Active; 'I' for Inactive)
    1  A    between atoms: O_3  and  C_13
    2  A    between atoms: O_3  and  C_17
    3  A    between atoms: C_5  and  C_27
    4  A    between atoms: C_7  and  C_8
    5  A    between atoms: C_8  and  O_16
    6  A    between atoms: C_8  and  C_23
    7  A    between atoms: C_12  and  C_23
    8  A    between atoms: O_16  and  C_27
    9  A    between atoms: C_17  and  C_29
                            x       y       z     vdW  Elec       q    Type
                         _______ _______ _______ _____ _____    ______ ____

>  <TORSDO>
F 9

$$$$
=
 OpenBabel11052414013D

 34 39  0  0  1  0  0  0  0  0999 V2000
  189.8590  177.4790  145.7190 C   0  0  0  0  0  0  0  0  0  0  0  0
  187.5390  177.5200  144.9490 C   0  0  0  0  0  0  0  0  0  0  0  0
  189.3610  177.8250  143.3530 C   0  0  0  0  0  0  0  0  0  0  0  0
  188.5570  178.0280  140.8670 C   0  0  1  0  0  0  0  0  0  0  0  0
  188.0430  177.1710  147.2950 C   0  0  0  0  0  3  0  0  0  0  0  0
  187.1090  177.3020  146.2600 C   0  0  0  0  0  3  0  0  0  0  0  0
  186.9880  177.8900  142.6150 C   0  0  0  0  0  0  0  0  0  0  0  0
  188.9220  177.6080  144.6730 C   0  0  0  0  0  0  0  0  0  0  0  0
  187.1490  178.2410  140.2890 C   0  0  0  0  0  2  0  0  0  0  0  0
  189.4150  177.2580  147.0260 C   0  0  0  0  0  3  0  0  0  0  0  0
  190.7340  177.9280  143.0920 C   0  0  0  0  0  3  0  0  0  0  0  0
  191.2270  177.5690  145.4420 C   0  0  0  0  0  3  0  0  0  0  0  0
  186.5540  177.6650  143.8600 C   0  0  0  0  0  3  0  0  0  0  0  0
  189.4290  179.2160  140.4840 C   0  0  0  0  0  1  0  0  0  0  0  0
  186.1310  178.0300  141.4160 C   0  0  2  0  0  3  0  0  0  0  0  0
  188.3710  177.9490  142.3120 N   0  0  0  0  0  0  0  0  0  0  0  0
  191.6620  177.7960  144.1320 C   0  0  0  0  0  3  0  0  0  0  0  0
  185.2410  179.2610  141.5150 C   0  0  0  0  0  2  0  0  0  0  0  0
  184.9620  179.7530  140.2310 O   0  0  0  0  0  0  0  0  0  0  0  0
  183.0110  179.9620  138.7180 C   0  0  0  0  0  2  0  0  0  0  0  0
  183.7020  179.2520  139.8640 C   0  0  1  0  0  0  0  0  0  0  0  0
  183.7110  178.6310  138.4630 C   0  0  1  0  0  3  0  0  0  0  0  0
  182.6470  176.5850  139.4740 C   0  0  0  0  0  2  0  0  0  0  0  0
  182.3470  177.3470  140.7310 C   0  0  0  0  0  3  0  0  0  0  0  0
  182.8470  178.5730  140.9170 C   0  0  0  0  0  3  0  0  0  0  0  0
  182.6540  177.5380  138.2810 C   0  0  0  0  0  2  0  0  0  0  0  0
  189.0940  176.7100  140.3050 C   0  0  0  0  0  2  0  0  0  0  0  0
  190.4340  176.8050  139.9060 O   0  0  0  0  0  0  0  0  0  0  0  0
  190.4100  176.6680  138.5100 C   0  0  1  0  0  3  0  0  0  0  0  0
  191.5530  175.7890  137.9830 C   0  0  0  0  0  2  0  0  0  0  0  0
  192.9240  176.3780  138.2700 C   0  0  0  0  0  1  0  0  0  0  0  0
  189.0280  176.2370  138.0070 C   0  0  0  0  0  2  0  0  0  0  0  0
  188.5190  177.0450  136.8170 C   0  0  0  0  0  2  0  0  0  0  0  0
  189.0510  178.4660  136.8520 C   0  0  0  0  0  1  0  0  0  0  0  0
  1 10  2  0  0  0  0
  2  6  1  0  0  0  0
  3  8  1  0  0  0  0
  4 14  1  6  0  0  0
  4 16  1  0  0  0  0
  6  5  2  0  0  0  0
  7 13  2  0  0  0  0
  8  2  2  0  0  0  0
  8  1  1  0  0  0  0
  9  4  1  0  0  0  0
  9 15  1  0  0  0  0
 10  5  1  0  0  0  0
 11  3  2  0  0  0  0
 11 17  1  0  0  0  0
 12  1  1  0  0  0  0
 13  2  1  0  0  0  0
 15 18  1  1  0  0  0
 15  7  1  0  0  0  0
 16  7  1  0  0  0  0
 16  3  1  0  0  0  0
 17 12  2  0  0  0  0
 19 18  1  0  0  0  0
 20 21  1  0  0  0  0
 21 19  1  1  0  0  0
 21 25  1  0  0  0  0
 22 26  1  1  0  0  0
 22 20  1  0  0  0  0
 22 21  1  0  0  0  0
 23 24  1  0  0  0  0
 24 25  2  0  0  0  0
 26 23  1  0  0  0  0
 27  4  1  0  0  0  0
 28 27  1  0  0  0  0
 29 30  1  1  0  0  0
 29 28  1  0  0  0  0
 30 31  1  0  0  0  0
 32 29  1  0  0  0  0
 33 34  1  0  0  0  0
 33 32  1  0  0  0  0
M  END
>  <MODEL>
5

>  <REMARK>
 VINA RESULT:      -7.1      2.448      5.306
  Name = 
  9 active torsions:
  status: ('A' for Active; 'I' for Inactive)
    1  A    between atoms: O_3  and  C_13
    2  A    between atoms: O_3  and  C_17
    3  A    between atoms: C_5  and  C_27
    4  A    between atoms: C_7  and  C_8
    5  A    between atoms: C_8  and  O_16
    6  A    between atoms: C_8  and  C_23
    7  A    between atoms: C_12  and  C_23
    8  A    between atoms: O_16  and  C_27
    9  A    between atoms: C_17  and  C_29
                            x       y       z     vdW  Elec       q    Type
                         _______ _______ _______ _____ _____    ______ ____

>  <TORSDO>
F 9

$$$$
=
 OpenBabel11052414013D

 34 39  0  0  1  0  0  0  0  0999 V2000
  189.9030  177.4950  145.9050 C   0  0  0  0  0  0  0  0  0  0  0  0
  187.5700  177.5030  145.1750 C   0  0  0  0  0  0  0  0  0  0  0  0
  189.3580  177.8500  143.5500 C   0  0  0  0  0  0  0  0  0  0  0  0
  188.5070  178.0580  141.0800 C   0  0  1  0  0  0  0  0  0  0  0  0
  188.1200  177.1460  147.5090 C   0  0  0  0  0  3  0  0  0  0  0  0
  187.1660  177.2690  146.4920 C   0  0  0  0  0  3  0  0  0  0  0  0
  186.9710  177.8810  142.8540 C   0  0  0  0  0  0  0  0  0  0  0  0
  188.9450  177.6160  144.8750 C   0  0  0  0  0  0  0  0  0  0  0  0
  187.0850  178.2520  140.5280 C   0  0  0  0  0  2  0  0  0  0  0  0
  189.4850  177.2570  147.2170 C   0  0  0  0  0  3  0  0  0  0  0  0
  190.7240  177.9780  143.2660 C   0  0  0  0  0  3  0  0  0  0  0  0
  191.2640  177.6100  145.6040 C   0  0  0  0  0  3  0  0  0  0  0  0
  186.5630  177.6400  144.1050 C   0  0  0  0  0  3  0  0  0  0  0  0
  189.3520  179.2630  140.6910 C   0  0  0  0  0  1  0  0  0  0  0  0
  186.0910  178.0160  141.6710 C   0  0  2  0  0  3  0  0  0  0  0  0
  188.3470  177.9650  142.5270 N   0  0  0  0  0  0  0  0  0  0  0  0
  191.6720  177.8540  144.2890 C   0  0  0  0  0  3  0  0  0  0  0  0
  185.1830  179.2310  141.7950 C   0  0  0  0  0  2  0  0  0  0  0  0
  183.8470  178.8190  141.9080 O   0  0  0  0  0  0  0  0  0  0  0  0
  183.0440  177.1730  140.2380 C   0  0  0  0  0  2  0  0  0  0  0  0
  183.3710  178.6070  140.6030 C   0  0  1  0  0  0  0  0  0  0  0  0
  181.9130  178.1350  140.5880 C   0  0  1  0  0  3  0  0  0  0  0  0
  181.4410  179.9720  138.9340 C   0  0  0  0  0  2  0  0  0  0  0  0
  182.9120  180.1750  138.7190 C   0  0  0  0  0  3  0  0  0  0  0  0
  183.8030  179.5550  139.5010 C   0  0  0  0  0  3  0  0  0  0  0  0
  181.1680  178.5180  139.3070 C   0  0  0  0  0  2  0  0  0  0  0  0
  189.0560  176.7530  140.4990 C   0  0  0  0  0  2  0  0  0  0  0  0
  190.2060  176.9550  139.7250 O   0  0  0  0  0  0  0  0  0  0  0  0
  189.8710  176.4900  138.4450 C   0  0  1  0  0  3  0  0  0  0  0  0
  189.6460  177.6310  137.4420 C   0  0  0  0  0  2  0  0  0  0  0  0
  188.1980  177.7370  136.9920 C   0  0  0  0  0  1  0  0  0  0  0  0
  190.8610  175.4300  137.9490 C   0  0  0  0  0  2  0  0  0  0  0  0
  191.9240  175.9680  136.9960 C   0  0  0  0  0  2  0  0  0  0  0  0
  193.1770  176.3790  137.7480 C   0  0  0  0  0  1  0  0  0  0  0  0
  1 10  2  0  0  0  0
  2  6  1  0  0  0  0
  3  8  1  0  0  0  0
  4 14  1  6  0  0  0
  4 16  1  0  0  0  0
  6  5  2  0  0  0  0
  7 13  2  0  0  0  0
  8  2  2  0  0  0  0
  8  1  1  0  0  0  0
  9  4  1  0  0  0  0
  9 15  1  0  0  0  0
 10  5  1  0  0  0  0
 11  3  2  0  0  0  0
 11 17  1  0  0  0  0
 12  1  1  0  0  0  0
 13  2  1  0  0  0  0
 15 18  1  1  0  0  0
 15  7  1  0  0  0  0
 16  7  1  0  0  0  0
 16  3  1  0  0  0  0
 17 12  2  0  0  0  0
 18 19  1  0  0  0  0
 20 22  1  0  0  0  0
 20 21  1  0  0  0  0
 21 19  1  1  0  0  0
 22 26  1  6  0  0  0
 22 21  1  0  0  0  0
 23 26  1  0  0  0  0
 24 23  1  0  0  0  0
 24 25  2  0  0  0  0
 25 21  1  0  0  0  0
 27  4  1  0  0  0  0
 28 27  1  0  0  0  0
 29 30  1  6  0  0  0
 29 28  1  0  0  0  0
 31 30  1  0  0  0  0
 32 29  1  0  0  0  0
 33 34  1  0  0  0  0
 33 32  1  0  0  0  0
M  END
>  <MODEL>
6

>  <REMARK>
 VINA RESULT:      -7.0      2.792      5.615
  Name = 
  9 active torsions:
  status: ('A' for Active; 'I' for Inactive)
    1  A    between atoms: O_3  and  C_13
    2  A    between atoms: O_3  and  C_17
    3  A    between atoms: C_5  and  C_27
    4  A    between atoms: C_7  and  C_8
    5  A    between atoms: C_8  and  O_16
    6  A    between atoms: C_8  and  C_23
    7  A    between atoms: C_12  and  C_23
    8  A    between atoms: O_16  and  C_27
    9  A    between atoms: C_17  and  C_29
                            x       y       z     vdW  Elec       q    Type
                         _______ _______ _______ _____ _____    ______ ____

>  <TORSDO>
F 9

$$$$
=
 OpenBabel11052414013D

 34 39  0  0  1  0  0  0  0  0999 V2000
  189.6700  177.3980  138.0650 C   0  0  0  0  0  0  0  0  0  0  0  0
  187.5440  178.4030  138.7350 C   0  0  0  0  0  0  0  0  0  0  0  0
  188.9370  177.2730  140.3920 C   0  0  0  0  0  0  0  0  0  0  0  0
  187.9910  177.4140  142.8310 C   0  0  1  0  0  0  0  0  0  0  0  0
  188.2820  178.5260  136.4290 C   0  0  0  0  0  3  0  0  0  0  0  0
  187.3340  178.8160  137.4180 C   0  0  0  0  0  3  0  0  0  0  0  0
  186.7550  178.2830  141.0270 C   0  0  0  0  0  0  0  0  0  0  0  0
  188.7180  177.6910  139.0650 C   0  0  0  0  0  0  0  0  0  0  0  0
  186.6090  177.8550  143.3410 C   0  0  0  0  0  2  0  0  0  0  0  0
  189.4470  177.8200  136.7510 C   0  0  0  0  0  3  0  0  0  0  0  0
  190.0960  176.5530  140.7060 C   0  0  0  0  0  3  0  0  0  0  0  0
  190.8290  176.6900  138.3950 C   0  0  0  0  0  3  0  0  0  0  0  0
  186.5410  178.7030  139.7760 C   0  0  0  0  0  3  0  0  0  0  0  0
  188.2060  175.9530  143.2010 C   0  0  0  0  0  1  0  0  0  0  0  0
  185.8620  178.5260  142.1830 C   0  0  2  0  0  3  0  0  0  0  0  0
  187.9410  177.5950  141.3850 N   0  0  0  0  0  0  0  0  0  0  0  0
  191.0400  176.2670  139.7110 C   0  0  0  0  0  3  0  0  0  0  0  0
  184.5180  177.8370  141.9960 C   0  0  0  0  0  2  0  0  0  0  0  0
  183.5200  178.7930  141.7590 O   0  0  0  0  0  0  0  0  0  0  0  0
  181.4760  179.0450  140.3810 C   0  0  0  0  0  2  0  0  0  0  0  0
  182.8170  178.3790  140.6160 C   0  0  1  0  0  0  0  0  0  0  0  0
  182.6910  179.4980  139.5760 C   0  0  1  0  0  3  0  0  0  0  0  0
  183.5840  177.8770  137.8700 C   0  0  0  0  0  2  0  0  0  0  0  0
  183.3680  176.7370  138.8220 C   0  0  0  0  0  3  0  0  0  0  0  0
  183.0280  176.9710  140.0940 C   0  0  0  0  0  3  0  0  0  0  0  0
  182.5630  178.9780  138.1420 C   0  0  0  0  0  2  0  0  0  0  0  0
  189.0350  178.3330  143.4700 C   0  0  0  0  0  2  0  0  0  0  0  0
  188.7240  178.6540  144.7980 O   0  0  0  0  0  0  0  0  0  0  0  0
  189.8120  178.1890  145.5500 C   0  0  1  0  0  3  0  0  0  0  0  0
  189.4150  177.0890  146.5460 C   0  0  0  0  0  2  0  0  0  0  0  0
  188.9980  177.6470  147.8980 C   0  0  0  0  0  1  0  0  0  0  0  0
  190.9950  177.8020  144.6560 C   0  0  0  0  0  2  0  0  0  0  0  0
  191.6860  176.5050  145.0650 C   0  0  0  0  0  2  0  0  0  0  0  0
  191.7540  175.5300  143.9040 C   0  0  0  0  0  1  0  0  0  0  0  0
  1 12  2  0  0  0  0
  1  8  1  0  0  0  0
  2  8  1  0  0  0  0
  2 13  1  0  0  0  0
  3 11  1  0  0  0  0
  3 16  1  0  0  0  0
  4 14  1  1  0  0  0
  4  9  1  0  0  0  0
  4 27  1  0  0  0  0
  5 10  2  0  0  0  0
  5  6  1  0  0  0  0
  6  2  2  0  0  0  0
  7 16  1  0  0  0  0
  7 15  1  0  0  0  0
  8  3  2  0  0  0  0
 10  1  1  0  0  0  0
 12 17  1  0  0  0  0
 13  7  2  0  0  0  0
 15 18  1  6  0  0  0
 15  9  1  0  0  0  0
 16  4  1  0  0  0  0
 17 11  2  0  0  0  0
 19 18  1  0  0  0  0
 20 21  1  0  0  0  0
 21 19  1  1  0  0  0
 22 26  1  6  0  0  0
 22 20  1  0  0  0  0
 22 21  1  0  0  0  0
 23 26  1  0  0  0  0
 23 24  1  0  0  0  0
 24 25  2  0  0  0  0
 25 21  1  0  0  0  0
 27 28  1  0  0  0  0
 28 29  1  0  0  0  0
 29 32  1  6  0  0  0
 29 30  1  0  0  0  0
 30 31  1  0  0  0  0
 32 33  1  0  0  0  0
 34 33  1  0  0  0  0
M  END
>  <MODEL>
7

>  <REMARK>
 VINA RESULT:      -7.0      2.628      5.874
  Name = 
  9 active torsions:
  status: ('A' for Active; 'I' for Inactive)
    1  A    between atoms: O_3  and  C_13
    2  A    between atoms: O_3  and  C_17
    3  A    between atoms: C_5  and  C_27
    4  A    between atoms: C_7  and  C_8
    5  A    between atoms: C_8  and  O_16
    6  A    between atoms: C_8  and  C_23
    7  A    between atoms: C_12  and  C_23
    8  A    between atoms: O_16  and  C_27
    9  A    between atoms: C_17  and  C_29
                            x       y       z     vdW  Elec       q    Type
                         _______ _______ _______ _____ _____    ______ ____

>  <TORSDO>
F 9

$$$$
=
 OpenBabel11052414013D

 34 39  0  0  1  0  0  0  0  0999 V2000
  190.3750  177.4150  144.4340 C   0  0  0  0  0  0  0  0  0  0  0  0
  187.9650  177.5960  144.0600 C   0  0  0  0  0  0  0  0  0  0  0  0
  189.5070  177.7150  142.1700 C   0  0  0  0  0  0  0  0  0  0  0  0
  188.3090  177.8900  139.8460 C   0  0  1  0  0  0  0  0  0  0  0  0
  188.8350  177.2940  146.3020 C   0  0  0  0  0  3  0  0  0  0  0  0
  187.7500  177.4560  145.4330 C   0  0  0  0  0  3  0  0  0  0  0  0
  187.0520  177.9240  141.8360 C   0  0  0  0  0  0  0  0  0  0  0  0
  189.2840  177.5750  143.5530 C   0  0  0  0  0  0  0  0  0  0  0  0
  186.8390  178.1830  139.5010 C   0  0  0  0  0  2  0  0  0  0  0  0
  190.1440  177.2720  145.8050 C   0  0  0  0  0  3  0  0  0  0  0  0
  190.8190  177.7100  141.6800 C   0  0  0  0  0  3  0  0  0  0  0  0
  191.6780  177.3980  143.9290 C   0  0  0  0  0  3  0  0  0  0  0  0
  186.8210  177.7750  143.1440 C   0  0  0  0  0  3  0  0  0  0  0  0
  189.1780  178.9980  139.2690 C   0  0  0  0  0  1  0  0  0  0  0  0
  186.0150  178.0850  140.7910 C   0  0  2  0  0  3  0  0  0  0  0  0
  188.3640  177.8740  141.3040 N   0  0  0  0  0  0  0  0  0  0  0  0
  191.8990  177.5480  142.5560 C   0  0  0  0  0  3  0  0  0  0  0  0
  185.2370  179.3790  140.9800 C   0  0  0  0  0  2  0  0  0  0  0  0
  184.7060  179.8000  139.7520 O   0  0  0  0  0  0  0  0  0  0  0  0
  182.4680  180.0610  138.7210 C   0  0  0  0  0  2  0  0  0  0  0  0
  183.3760  179.3500  139.7030 C   0  0  1  0  0  0  0  0  0  0  0  0
  183.0360  178.6910  138.3620 C   0  0  1  0  0  3  0  0  0  0  0  0
  182.1550  176.7260  139.6640 C   0  0  0  0  0  2  0  0  0  0  0  0
  182.1840  177.5340  140.9270 C   0  0  0  0  0  3  0  0  0  0  0  0
  182.7610  178.7400  140.9480 C   0  0  0  0  0  3  0  0  0  0  0  0
  181.9240  177.6450  138.4680 C   0  0  0  0  0  2  0  0  0  0  0  0
  188.6560  176.5170  139.2640 C   0  0  0  0  0  2  0  0  0  0  0  0
  188.1250  176.3320  137.9800 O   0  0  0  0  0  0  0  0  0  0  0  0
  189.2250  176.0100  137.1730 C   0  0  1  0  0  3  0  0  0  0  0  0
  189.4350  177.0140  136.0310 C   0  0  0  0  0  2  0  0  0  0  0  0
  188.1450  177.7020  135.6140 C   0  0  0  0  0  1  0  0  0  0  0  0
  190.4880  175.7640  138.0070 C   0  0  0  0  0  2  0  0  0  0  0  0
  191.7800  175.7760  137.1980 C   0  0  0  0  0  2  0  0  0  0  0  0
  192.9270  176.3570  138.0050 C   0  0  0  0  0  1  0  0  0  0  0  0
  1 10  2  0  0  0  0
  2  6  1  0  0  0  0
  3  8  1  0  0  0  0
  4 14  1  6  0  0  0
  4 16  1  0  0  0  0
  6  5  2  0  0  0  0
  7 13  2  0  0  0  0
  8  2  2  0  0  0  0
  8  1  1  0  0  0  0
  9  4  1  0  0  0  0
  9 15  1  0  0  0  0
 10  5  1  0  0  0  0
 11  3  2  0  0  0  0
 11 17  1  0  0  0  0
 12  1  1  0  0  0  0
 13  2  1  0  0  0  0
 15 18  1  1  0  0  0
 15  7  1  0  0  0  0
 16  7  1  0  0  0  0
 16  3  1  0  0  0  0
 17 12  2  0  0  0  0
 19 18  1  0  0  0  0
 20 21  1  0  0  0  0
 21 19  1  1  0  0  0
 21 25  1  0  0  0  0
 22 26  1  1  0  0  0
 22 20  1  0  0  0  0
 22 21  1  0  0  0  0
 23 24  1  0  0  0  0
 24 25  2  0  0  0  0
 26 23  1  0  0  0  0
 27  4  1  0  0  0  0
 28 27  1  0  0  0  0
 29 30  1  6  0  0  0
 29 28  1  0  0  0  0
 29 32  1  0  0  0  0
 31 30  1  0  0  0  0
 33 34  1  0  0  0  0
 33 32  1  0  0  0  0
M  END
>  <MODEL>
8

>  <REMARK>
 VINA RESULT:      -6.9      2.693      5.908
  Name = 
  9 active torsions:
  status: ('A' for Active; 'I' for Inactive)
    1  A    between atoms: O_3  and  C_13
    2  A    between atoms: O_3  and  C_17
    3  A    between atoms: C_5  and  C_27
    4  A    between atoms: C_7  and  C_8
    5  A    between atoms: C_8  and  O_16
    6  A    between atoms: C_8  and  C_23
    7  A    between atoms: C_12  and  C_23
    8  A    between atoms: O_16  and  C_27
    9  A    between atoms: C_17  and  C_29
                            x       y       z     vdW  Elec       q    Type
                         _______ _______ _______ _____ _____    ______ ____

>  <TORSDO>
F 9

$$$$
=
 OpenBabel11052414013D

 34 39  0  0  1  0  0  0  0  0999 V2000
  190.0440  177.1230  140.4330 C   0  0  0  0  0  0  0  0  0  0  0  0
  187.8930  178.2740  140.2750 C   0  0  0  0  0  0  0  0  0  0  0  0
  188.5410  177.1770  142.3580 C   0  0  0  0  0  0  0  0  0  0  0  0
  186.8170  177.5130  144.3030 C   0  0  1  0  0  0  0  0  0  0  0  0
  189.3930  178.2190  138.3720 C   0  0  0  0  0  3  0  0  0  0  0  0
  188.1820  178.6160  138.9530 C   0  0  0  0  0  3  0  0  0  0  0  0
  186.3490  178.3320  142.1470 C   0  0  0  0  0  0  0  0  0  0  0  0
  188.8270  177.5240  141.0240 C   0  0  0  0  0  0  0  0  0  0  0  0
  185.3770  178.0540  144.2780 C   0  0  0  0  0  2  0  0  0  0  0  0
  190.3220  177.4760  139.1100 C   0  0  0  0  0  3  0  0  0  0  0  0
  189.4660  176.4200  143.0870 C   0  0  0  0  0  3  0  0  0  0  0  0
  190.9650  176.3790  141.1780 C   0  0  0  0  0  3  0  0  0  0  0  0
  186.6130  178.6860  140.8850 C   0  0  0  0  0  3  0  0  0  0  0  0
  186.7890  176.0680  144.7820 C   0  0  0  0  0  1  0  0  0  0  0  0
  185.1280  178.6900  142.9050 C   0  0  2  0  0  3  0  0  0  0  0  0
  187.2860  177.6090  142.9250 N   0  0  0  0  0  0  0  0  0  0  0  0
  190.6750  176.0260  142.4990 C   0  0  0  0  0  3  0  0  0  0  0  0
  183.8900  178.0600  142.2860 C   0  0  0  0  0  2  0  0  0  0  0  0
  182.8520  179.0010  142.2300 O   0  0  0  0  0  0  0  0  0  0  0  0
  180.8980  178.0430  141.0460 C   0  0  0  0  0  2  0  0  0  0  0  0
  182.1970  178.8200  141.0010 C   0  0  1  0  0  0  0  0  0  0  0  0
  180.8590  179.5650  140.9410 C   0  0  1  0  0  3  0  0  0  0  0  0
  181.6280  180.5660  138.7630 C   0  0  0  0  0  2  0  0  0  0  0  0
  182.7510  179.5740  138.6890 C   0  0  0  0  0  3  0  0  0  0  0  0
  183.0230  178.7780  139.7290 C   0  0  0  0  0  3  0  0  0  0  0  0
  180.4500  179.9570  139.5190 C   0  0  0  0  0  2  0  0  0  0  0  0
  187.6340  178.4160  145.2310 C   0  0  0  0  0  2  0  0  0  0  0  0
  187.7580  177.8830  146.5210 O   0  0  0  0  0  0  0  0  0  0  0  0
  189.0580  178.2160  146.9300 C   0  0  1  0  0  3  0  0  0  0  0  0
  189.2060  178.2520  148.4570 C   0  0  0  0  0  2  0  0  0  0  0  0
  187.9210  177.8790  149.1790 C   0  0  0  0  0  1  0  0  0  0  0  0
  190.1110  177.3440  146.2360 C   0  0  0  0  0  2  0  0  0  0  0  0
  191.0820  176.6620  147.1940 C   0  0  0  0  0  2  0  0  0  0  0  0
  192.0550  175.7700  146.4440 C   0  0  0  0  0  1  0  0  0  0  0  0
  1  8  2  0  0  0  0
  1 12  1  0  0  0  0
  2 13  1  0  0  0  0
  2  8  1  0  0  0  0
  3 16  1  0  0  0  0
  3 11  2  0  0  0  0
  4 14  1  1  0  0  0
  4 27  1  0  0  0  0
  5  6  1  0  0  0  0
  5 10  2  0  0  0  0
  6  2  2  0  0  0  0
  7 15  1  0  0  0  0
  7 16  1  0  0  0  0
  8  3  1  0  0  0  0
  9  4  1  0  0  0  0
 10  1  1  0  0  0  0
 12 17  2  0  0  0  0
 13  7  2  0  0  0  0
 15 18  1  6  0  0  0
 15  9  1  0  0  0  0
 16  4  1  0  0  0  0
 17 11  1  0  0  0  0
 19 18  1  0  0  0  0
 21 20  1  0  0  0  0
 21 19  1  1  0  0  0
 22 26  1  6  0  0  0
 22 21  1  0  0  0  0
 22 20  1  0  0  0  0
 23 26  1  0  0  0  0
 24 23  1  0  0  0  0
 24 25  2  0  0  0  0
 25 21  1  0  0  0  0
 27 28  1  0  0  0  0
 28 29  1  0  0  0  0
 29 32  1  6  0  0  0
 29 30  1  0  0  0  0
 30 31  1  0  0  0  0
 32 33  1  0  0  0  0
 34 33  1  0  0  0  0
M  END
>  <MODEL>
9

>  <REMARK>
 VINA RESULT:      -6.7      3.027      5.864
  Name = 
  9 active torsions:
  status: ('A' for Active; 'I' for Inactive)
    1  A    between atoms: O_3  and  C_13
    2  A    between atoms: O_3  and  C_17
    3  A    between atoms: C_5  and  C_27
    4  A    between atoms: C_7  and  C_8
    5  A    between atoms: C_8  and  O_16
    6  A    between atoms: C_8  and  C_23
    7  A    between atoms: C_12  and  C_23
    8  A    between atoms: O_16  and  C_27
    9  A    between atoms: C_17  and  C_29
                            x       y       z     vdW  Elec       q    Type
                         _______ _______ _______ _____ _____    ______ ____

>  <TORSDO>
F 9

$$$$
