=
 OpenBabel11052413583D

 34 39  0  0  1  0  0  0  0  0999 V2000
  182.7320  178.0490  139.4930 C   0  0  1  0  0  3  0  0  0  0  0  0
  184.2640  178.3500  141.4610 C   0  0  1  0  0  3  0  0  0  0  0  0
  185.1250  178.0280  139.1140 C   0  0  1  0  0  3  0  0  0  0  0  0
  187.6810  178.6030  137.3410 C   0  0  0  0  0  2  0  0  0  0  0  0
  181.0370  178.6590  138.3810 C   0  0  0  0  0  2  0  0  0  0  0  0
  183.2580  178.8950  142.2590 O   0  0  0  0  0  1  0  0  0  0  0  0
  186.7080  178.3060  141.0380 C   0  0  0  0  0  2  0  0  0  0  0  0
  184.0110  178.6710  139.9900 C   0  0  1  0  0  3  0  0  0  0  0  0
  187.6780  177.9880  138.7260 C   0  0  2  0  0  3  0  0  0  0  0  0
  181.3160  178.4250  139.8700 C   0  0  0  0  0  2  0  0  0  0  0  0
  184.8100  178.0620  137.5610 C   0  0  1  0  0  3  0  0  0  0  0  0
  182.5340  178.6790  138.1580 C   0  0  2  0  0  3  0  0  0  0  0  0
  185.6030  178.9370  141.8700 C   0  0  0  0  0  2  0  0  0  0  0  0
  187.0560  177.6680  136.3170 C   0  0  0  0  0  2  0  0  0  0  0  0
  185.6800  177.1270  136.7060 C   0  0  1  0  0  3  0  0  0  0  0  0
  186.5050  178.5750  139.5410 C   0  0  1  0  0  3  0  0  0  0  0  0
  183.3180  177.8120  137.2120 C   0  0  0  0  0  2  0  0  0  0  0  0
  186.8490  173.5310  137.2980 C   0  0  0  0  0  0  0  0  0  0  0  0
  185.6370  172.9200  137.6320 C   0  0  0  0  0  3  0  0  0  0  0  0
  185.7020  175.6640  137.0590 C   0  0  0  0  0  0  0  0  0  0  0  0
  184.4630  173.6710  137.6690 C   0  0  0  0  0  3  0  0  0  0  0  0
  186.8800  174.8990  137.0110 C   0  0  0  0  0  3  0  0  0  0  0  0
  184.4930  175.0390  137.3820 C   0  0  0  0  0  3  0  0  0  0  0  0
  187.9940  172.8080  137.2870 F   0  0  0  0  0  0  0  0  0  0  0  0
  188.9650  178.2720  139.3530 N   0  0  0  0  0  2  0  0  0  0  0  0
  189.6500  177.0000  139.5130 C   0  0  0  0  0  2  0  0  0  0  0  0
  190.7260  177.1060  140.5810 C   0  0  0  0  0  2  0  0  0  0  0  0
  190.3180  175.2410  142.8420 O   0  0  0  0  0  1  0  0  0  0  0  0
  190.1390  177.4730  141.9390 C   0  0  1  0  0  3  0  0  0  0  0  0
  189.4210  176.2860  142.6070 C   0  0  2  0  0  3  0  0  0  0  0  0
  189.3770  177.9490  144.5700 C   0  0  0  0  0  2  0  0  0  0  0  0
  190.8840  177.9800  144.3440 C   0  0  0  0  0  2  0  0  0  0  0  0
  191.2190  178.0860  142.8490 C   0  0  0  0  0  2  0  0  0  0  0  0
  188.7510  176.6990  143.9310 C   0  0  0  0  0  2  0  0  0  0  0  0
  1 10  1  1  0  0  0
  1  8  1  0  0  0  0
  2 13  1  0  0  0  0
  2  6  1  1  0  0  0
  3 16  1  0  0  0  0
  3  8  1  0  0  0  0
  4  9  1  0  0  0  0
  5 10  1  0  0  0  0
  7 13  1  0  0  0  0
  8  2  1  0  0  0  0
  9 25  1  0  0  0  0
  9 16  1  0  0  0  0
 11  3  1  0  0  0  0
 12  5  1  0  0  0  0
 12  1  1  0  0  0  0
 14 15  1  0  0  0  0
 14  4  1  0  0  0  0
 15 20  1  0  0  0  0
 15 11  1  0  0  0  0
 16  7  1  0  0  0  0
 17 11  1  0  0  0  0
 17 12  1  0  0  0  0
 18 19  1  0  0  0  0
 19 21  2  0  0  0  0
 20 23  2  0  0  0  0
 22 20  1  0  0  0  0
 22 18  2  0  0  0  0
 23 21  1  0  0  0  0
 24 18  1  0  0  0  0
 25 26  1  0  0  0  0
 26 27  1  0  0  0  0
 27 29  1  0  0  0  0
 29 30  1  0  0  0  0
 29 33  1  0  0  0  0
 30 28  1  0  0  0  0
 30 34  1  0  0  0  0
 32 31  1  0  0  0  0
 33 32  1  0  0  0  0
 34 31  1  0  0  0  0
M  END
>  <MODEL>
1

>  <REMARK>
 VINA RESULT:      -7.7      0.000      0.000
  Name = 
  5 active torsions:
  status: ('A' for Active; 'I' for Inactive)
    1  A    between atoms: C_3  and  C_13
    2  A    between atoms: C_3  and  C_17
    3  A    between atoms: C_12  and  C_28
    4  A    between atoms: C_17  and  N_29
    5  A    between atoms: C_18  and  N_29
                            x       y       z     vdW  Elec       q    Type
                         _______ _______ _______ _____ _____    ______ ____

>  <TORSDO>
F 5

$$$$
=
 OpenBabel11052413583D

 34 39  0  0  1  0  0  0  0  0999 V2000
  182.4590  177.6660  138.9160 C   0  0  1  0  0  3  0  0  0  0  0  0
  183.8060  178.1660  140.9780 C   0  0  1  0  0  3  0  0  0  0  0  0
  184.8620  177.8960  138.7040 C   0  0  1  0  0  3  0  0  0  0  0  0
  187.4620  178.7080  137.0970 C   0  0  0  0  0  2  0  0  0  0  0  0
  180.7930  178.0710  137.6760 C   0  0  0  0  0  2  0  0  0  0  0  0
  182.6950  178.6140  141.6900 O   0  0  0  0  0  1  0  0  0  0  0  0
  186.2650  178.3760  140.7250 C   0  0  0  0  0  2  0  0  0  0  0  0
  183.6270  178.4310  139.4840 C   0  0  1  0  0  3  0  0  0  0  0  0
  187.4250  178.1220  138.4940 C   0  0  2  0  0  3  0  0  0  0  0  0
  180.9880  177.8950  139.1860 C   0  0  0  0  0  2  0  0  0  0  0  0
  184.6560  177.8670  137.1320 C   0  0  1  0  0  3  0  0  0  0  0  0
  182.2910  178.2470  137.5560 C   0  0  2  0  0  3  0  0  0  0  0  0
  185.0440  178.9010  141.4620 C   0  0  0  0  0  2  0  0  0  0  0  0
  187.0140  177.6930  136.0570 C   0  0  0  0  0  2  0  0  0  0  0  0
  185.6790  177.0150  136.3640 C   0  0  1  0  0  3  0  0  0  0  0  0
  186.1420  178.5940  139.2110 C   0  0  1  0  0  3  0  0  0  0  0  0
  183.2270  177.4520  136.6880 C   0  0  0  0  0  2  0  0  0  0  0  0
  184.9120  173.4340  137.4730 C   0  0  0  0  0  0  0  0  0  0  0  0
  186.2060  172.9160  137.5770 C   0  0  0  0  0  3  0  0  0  0  0  0
  185.8300  175.5700  136.7550 C   0  0  0  0  0  0  0  0  0  0  0  0
  187.3060  173.7190  137.2840 C   0  0  0  0  0  3  0  0  0  0  0  0
  184.7260  174.7580  137.0640 C   0  0  0  0  0  3  0  0  0  0  0  0
  187.1210  175.0440  136.8750 C   0  0  0  0  0  3  0  0  0  0  0  0
  183.8410  172.6460  137.7330 F   0  0  0  0  0  0  0  0  0  0  0  0
  188.6280  178.5540  139.2000 N   0  0  0  0  0  2  0  0  0  0  0  0
  189.4310  177.3660  139.4370 C   0  0  0  0  0  2  0  0  0  0  0  0
  190.3150  177.5580  140.6600 C   0  0  0  0  0  2  0  0  0  0  0  0
  190.0830  175.4310  142.7040 O   0  0  0  0  0  1  0  0  0  0  0  0
  189.4940  177.6440  141.9410 C   0  0  1  0  0  3  0  0  0  0  0  0
  189.0000  176.2660  142.4150 C   0  0  2  0  0  3  0  0  0  0  0  0
  188.3220  177.6700  144.4620 C   0  0  0  0  0  2  0  0  0  0  0  0
  189.7950  178.0620  144.4570 C   0  0  0  0  0  2  0  0  0  0  0  0
  190.2780  178.3910  143.0370 C   0  0  0  0  0  2  0  0  0  0  0  0
  188.0930  176.3820  143.6550 C   0  0  0  0  0  2  0  0  0  0  0  0
  1 10  1  1  0  0  0
  1  8  1  0  0  0  0
  2 13  1  0  0  0  0
  2  6  1  1  0  0  0
  3 16  1  0  0  0  0
  3  8  1  0  0  0  0
  4  9  1  0  0  0  0
  5 10  1  0  0  0  0
  7 13  1  0  0  0  0
  8  2  1  0  0  0  0
  9 25  1  0  0  0  0
  9 16  1  0  0  0  0
 11  3  1  0  0  0  0
 12  5  1  0  0  0  0
 12  1  1  0  0  0  0
 14 15  1  0  0  0  0
 14  4  1  0  0  0  0
 15 20  1  0  0  0  0
 15 11  1  0  0  0  0
 16  7  1  0  0  0  0
 17 11  1  0  0  0  0
 17 12  1  0  0  0  0
 18 19  1  0  0  0  0
 18 24  1  0  0  0  0
 20 23  2  0  0  0  0
 20 22  1  0  0  0  0
 21 19  2  0  0  0  0
 22 18  2  0  0  0  0
 23 21  1  0  0  0  0
 25 26  1  0  0  0  0
 26 27  1  0  0  0  0
 27 29  1  0  0  0  0
 29 30  1  0  0  0  0
 29 33  1  0  0  0  0
 30 28  1  0  0  0  0
 30 34  1  0  0  0  0
 32 31  1  0  0  0  0
 33 32  1  0  0  0  0
 34 31  1  0  0  0  0
M  END
>  <MODEL>
2

>  <REMARK>
 VINA RESULT:      -7.4      0.945      1.264
  Name = 
  5 active torsions:
  status: ('A' for Active; 'I' for Inactive)
    1  A    between atoms: C_3  and  C_13
    2  A    between atoms: C_3  and  C_17
    3  A    between atoms: C_12  and  C_28
    4  A    between atoms: C_17  and  N_29
    5  A    between atoms: C_18  and  N_29
                            x       y       z     vdW  Elec       q    Type
                         _______ _______ _______ _____ _____    ______ ____

>  <TORSDO>
F 5

$$$$
=
 OpenBabel11052413583D

 34 39  0  0  1  0  0  0  0  0999 V2000
  182.0800  176.1010  136.8230 C   0  0  1  0  0  3  0  0  0  0  0  0
  184.4190  176.9400  136.4490 C   0  0  1  0  0  3  0  0  0  0  0  0
  183.1080  177.4740  138.5350 C   0  0  1  0  0  3  0  0  0  0  0  0
  183.5390  178.3250  141.5510 C   0  0  0  0  0  2  0  0  0  0  0  0
  180.6790  174.5150  136.8040 C   0  0  0  0  0  2  0  0  0  0  0  0
  184.6840  175.9920  135.4610 O   0  0  0  0  0  1  0  0  0  0  0  0
  185.4320  178.3570  138.2150 C   0  0  0  0  0  2  0  0  0  0  0  0
  183.4140  176.3920  137.4600 C   0  0  1  0  0  3  0  0  0  0  0  0
  184.2060  178.9540  140.3440 C   0  0  2  0  0  3  0  0  0  0  0  0
  181.7510  175.0100  135.8270 C   0  0  0  0  0  2  0  0  0  0  0  0
  181.8760  177.1120  139.4660 C   0  0  1  0  0  3  0  0  0  0  0  0
  181.3470  175.3480  137.8770 C   0  0  2  0  0  3  0  0  0  0  0  0
  185.7080  177.2850  137.1740 C   0  0  0  0  0  2  0  0  0  0  0  0
  182.0470  178.6180  141.5760 C   0  0  0  0  0  2  0  0  0  0  0  0
  181.3130  178.2910  140.2760 C   0  0  1  0  0  3  0  0  0  0  0  0
  184.4120  177.8770  139.2570 C   0  0  1  0  0  3  0  0  0  0  0  0
  180.7050  176.4120  138.7240 C   0  0  0  0  0  2  0  0  0  0  0  0
  180.8400  180.9170  137.5320 C   0  0  0  0  0  0  0  0  0  0  0  0
  180.1080  181.8840  138.2270 C   0  0  0  0  0  3  0  0  0  0  0  0
  180.8750  179.5190  139.5240 C   0  0  0  0  0  0  0  0  0  0  0  0
  179.7700  181.6780  139.5630 C   0  0  0  0  0  3  0  0  0  0  0  0
  181.2230  179.7380  138.1800 C   0  0  0  0  0  3  0  0  0  0  0  0
  180.1530  180.5000  140.2120 C   0  0  0  0  0  3  0  0  0  0  0  0
  181.1470  181.1040  136.2260 F   0  0  0  0  0  0  0  0  0  0  0  0
  185.4740  179.5340  140.7750 N   0  0  0  0  0  2  0  0  0  0  0  0
  185.9510  178.7320  141.8890 C   0  0  0  0  0  2  0  0  0  0  0  0
  187.3880  178.2960  141.6530 C   0  0  0  0  0  2  0  0  0  0  0  0
  187.9310  175.8650  143.2510 O   0  0  0  0  0  1  0  0  0  0  0  0
  188.1830  178.2470  142.9510 C   0  0  1  0  0  3  0  0  0  0  0  0
  187.7320  177.1000  143.8740 C   0  0  2  0  0  3  0  0  0  0  0  0
  189.8300  177.8550  145.1570 C   0  0  0  0  0  2  0  0  0  0  0  0
  190.5170  177.6160  143.8190 C   0  0  0  0  0  2  0  0  0  0  0  0
  189.6950  178.1980  142.6600 C   0  0  0  0  0  2  0  0  0  0  0  0
  188.4790  177.1250  145.2200 C   0  0  0  0  0  2  0  0  0  0  0  0
  1 10  1  6  0  0  0
  1  8  1  0  0  0  0
  1 12  1  0  0  0  0
  2  6  1  6  0  0  0
  2 13  1  0  0  0  0
  2  8  1  0  0  0  0
  3 16  1  0  0  0  0
  3 11  1  0  0  0  0
  4 14  1  0  0  0  0
  5 12  1  0  0  0  0
  7 16  1  0  0  0  0
  8  3  1  0  0  0  0
  9 25  1  0  0  0  0
  9  4  1  0  0  0  0
 10  5  1  0  0  0  0
 11 15  1  0  0  0  0
 12 17  1  0  0  0  0
 13  7  1  0  0  0  0
 15 14  1  0  0  0  0
 16  9  1  0  0  0  0
 17 11  1  0  0  0  0
 18 22  2  0  0  0  0
 18 19  1  0  0  0  0
 19 21  2  0  0  0  0
 20 23  2  0  0  0  0
 20 15  1  0  0  0  0
 21 23  1  0  0  0  0
 22 20  1  0  0  0  0
 24 18  1  0  0  0  0
 25 26  1  0  0  0  0
 27 26  1  0  0  0  0
 27 29  1  0  0  0  0
 28 30  1  0  0  0  0
 29 30  1  0  0  0  0
 30 34  1  0  0  0  0
 31 34  1  0  0  0  0
 32 31  1  0  0  0  0
 33 29  1  0  0  0  0
 33 32  1  0  0  0  0
M  END
>  <MODEL>
3

>  <REMARK>
 VINA RESULT:      -7.1      2.979      5.460
  Name = 
  5 active torsions:
  status: ('A' for Active; 'I' for Inactive)
    1  A    between atoms: C_3  and  C_13
    2  A    between atoms: C_3  and  C_17
    3  A    between atoms: C_12  and  C_28
    4  A    between atoms: C_17  and  N_29
    5  A    between atoms: C_18  and  N_29
                            x       y       z     vdW  Elec       q    Type
                         _______ _______ _______ _____ _____    ______ ____

>  <TORSDO>
F 5

$$$$
=
 OpenBabel11052413583D

 34 39  0  0  1  0  0  0  0  0999 V2000
  192.2650  174.7670  137.3490 C   0  0  1  0  0  3  0  0  0  0  0  0
  190.3520  173.2580  136.7340 C   0  0  1  0  0  3  0  0  0  0  0  0
  190.0080  175.6420  137.4780 C   0  0  1  0  0  3  0  0  0  0  0  0
  187.9060  177.9960  137.2690 C   0  0  0  0  0  2  0  0  0  0  0  0
  194.1710  175.5770  136.9140 C   0  0  0  0  0  2  0  0  0  0  0  0
  191.1740  172.3700  136.0400 O   0  0  0  0  0  1  0  0  0  0  0  0
  188.0560  174.1820  136.8940 C   0  0  0  0  0  2  0  0  0  0  0  0
  190.9220  174.6740  136.6720 C   0  0  1  0  0  3  0  0  0  0  0  0
  187.5990  176.5570  137.6310 C   0  0  2  0  0  3  0  0  0  0  0  0
  193.5740  174.1650  136.8880 C   0  0  0  0  0  2  0  0  0  0  0  0
  190.6510  177.0720  137.7120 C   0  0  1  0  0  3  0  0  0  0  0  0
  192.7580  176.1170  136.9600 C   0  0  2  0  0  3  0  0  0  0  0  0
  188.9690  173.2560  136.1070 C   0  0  0  0  0  2  0  0  0  0  0  0
  188.7170  178.6810  138.3590 C   0  0  0  0  0  2  0  0  0  0  0  0
  189.9650  177.9170  138.7980 C   0  0  1  0  0  3  0  0  0  0  0  0
  188.5810  175.6240  136.8890 C   0  0  1  0  0  3  0  0  0  0  0  0
  192.1780  177.0430  137.9930 C   0  0  0  0  0  2  0  0  0  0  0  0
  188.5520  176.7960  142.1730 C   0  0  0  0  0  0  0  0  0  0  0  0
  189.7080  176.2990  142.7820 C   0  0  0  0  0  3  0  0  0  0  0  0
  189.8370  177.3250  140.1760 C   0  0  0  0  0  0  0  0  0  0  0  0
  190.9230  176.3240  142.1000 C   0  0  0  0  0  3  0  0  0  0  0  0
  188.6180  177.3090  140.8740 C   0  0  0  0  0  3  0  0  0  0  0  0
  190.9900  176.8360  140.8010 C   0  0  0  0  0  3  0  0  0  0  0  0
  187.3660  176.7480  142.8260 F   0  0  0  0  0  0  0  0  0  0  0  0
  186.2130  176.2820  137.2630 N   0  0  0  0  0  2  0  0  0  0  0  0
  185.5610  177.5670  137.0740 C   0  0  0  0  0  2  0  0  0  0  0  0
  184.2020  177.5790  137.7560 C   0  0  0  0  0  2  0  0  0  0  0  0
  184.5500  180.1280  139.2190 O   0  0  0  0  0  1  0  0  0  0  0  0
  184.3320  177.7240  139.2670 C   0  0  1  0  0  3  0  0  0  0  0  0
  185.1630  178.9550  139.6700 C   0  0  2  0  0  3  0  0  0  0  0  0
  184.2950  178.2710  141.9930 C   0  0  0  0  0  2  0  0  0  0  0  0
  182.9320  178.3800  141.3190 C   0  0  0  0  0  2  0  0  0  0  0  0
  182.9440  177.7160  139.9340 C   0  0  0  0  0  2  0  0  0  0  0  0
  185.3650  179.0320  141.1950 C   0  0  0  0  0  2  0  0  0  0  0  0
  1 10  1  6  0  0  0
  2  6  1  6  0  0  0
  3 11  1  0  0  0  0
  4  9  1  0  0  0  0
  4 14  1  0  0  0  0
  5 12  1  0  0  0  0
  8  2  1  0  0  0  0
  8  1  1  0  0  0  0
  8  3  1  0  0  0  0
 10  5  1  0  0  0  0
 11 17  1  0  0  0  0
 11 15  1  0  0  0  0
 12  1  1  0  0  0  0
 12 17  1  0  0  0  0
 13  2  1  0  0  0  0
 13  7  1  0  0  0  0
 14 15  1  0  0  0  0
 15 20  1  0  0  0  0
 16  7  1  0  0  0  0
 16  3  1  0  0  0  0
 16  9  1  0  0  0  0
 18 19  1  0  0  0  0
 18 24  1  0  0  0  0
 20 23  2  0  0  0  0
 20 22  1  0  0  0  0
 21 19  2  0  0  0  0
 22 18  2  0  0  0  0
 23 21  1  0  0  0  0
 25  9  1  0  0  0  0
 26 25  1  0  0  0  0
 26 27  1  0  0  0  0
 27 29  1  0  0  0  0
 28 30  1  0  0  0  0
 29 30  1  0  0  0  0
 29 33  1  0  0  0  0
 30 34  1  0  0  0  0
 32 31  1  0  0  0  0
 33 32  1  0  0  0  0
 34 31  1  0  0  0  0
M  END
>  <MODEL>
4

>  <REMARK>
 VINA RESULT:      -7.1      2.968      7.588
  Name = 
  5 active torsions:
  status: ('A' for Active; 'I' for Inactive)
    1  A    between atoms: C_3  and  C_13
    2  A    between atoms: C_3  and  C_17
    3  A    between atoms: C_12  and  C_28
    4  A    between atoms: C_17  and  N_29
    5  A    between atoms: C_18  and  N_29
                            x       y       z     vdW  Elec       q    Type
                         _______ _______ _______ _____ _____    ______ ____

>  <TORSDO>
F 5

$$$$
=
 OpenBabel11052413583D

 34 39  0  0  1  0  0  0  0  0999 V2000
  190.4630  174.0830  135.8560 C   0  0  1  0  0  3  0  0  0  0  0  0
  188.4240  172.7060  136.3700 C   0  0  1  0  0  3  0  0  0  0  0  0
  188.4230  175.2240  136.4960 C   0  0  1  0  0  3  0  0  0  0  0  0
  186.4380  177.6840  136.3720 C   0  0  0  0  0  2  0  0  0  0  0  0
  192.1020  174.5240  134.5940 C   0  0  0  0  0  2  0  0  0  0  0  0
  188.9220  171.5820  135.7130 O   0  0  0  0  0  1  0  0  0  0  0  0
  186.3600  173.9080  137.0390 C   0  0  0  0  0  2  0  0  0  0  0  0
  188.9640  173.9830  135.7300 C   0  0  1  0  0  3  0  0  0  0  0  0
  186.2500  176.4280  137.1990 C   0  0  2  0  0  3  0  0  0  0  0  0
  191.5050  173.2330  135.1630 C   0  0  0  0  0  2  0  0  0  0  0  0
  189.1380  176.5800  136.0920 C   0  0  1  0  0  3  0  0  0  0  0  0
  190.8130  175.2230  134.9650 C   0  0  2  0  0  3  0  0  0  0  0  0
  186.9090  172.7130  136.2780 C   0  0  0  0  0  2  0  0  0  0  0  0
  187.6010  178.5190  136.8860 C   0  0  0  0  0  2  0  0  0  0  0  0
  188.9070  177.7460  137.0680 C   0  0  1  0  0  3  0  0  0  0  0  0
  186.8800  175.2300  136.4570 C   0  0  1  0  0  3  0  0  0  0  0  0
  190.6630  176.4410  135.8350 C   0  0  0  0  0  2  0  0  0  0  0  0
  188.8360  177.7980  140.8940 C   0  0  0  0  0  0  0  0  0  0  0  0
  190.0700  177.2080  141.1810 C   0  0  0  0  0  3  0  0  0  0  0  0
  189.2700  177.5390  138.5140 C   0  0  0  0  0  0  0  0  0  0  0  0
  190.9050  176.7950  140.1440 C   0  0  0  0  0  3  0  0  0  0  0  0
  188.4390  177.9640  139.5640 C   0  0  0  0  0  3  0  0  0  0  0  0
  190.5080  176.9600  138.8130 C   0  0  0  0  0  3  0  0  0  0  0  0
  188.0130  178.1770  141.9010 F   0  0  0  0  0  0  0  0  0  0  0  0
  184.8190  176.2370  137.4160 N   0  0  0  0  0  2  0  0  0  0  0  0
  184.1340  177.2930  136.6880 C   0  0  0  0  0  2  0  0  0  0  0  0
  183.1230  177.9870  137.5860 C   0  0  0  0  0  2  0  0  0  0  0  0
  184.0820  180.3250  139.1270 O   0  0  0  0  0  1  0  0  0  0  0  0
  183.5590  177.9690  139.0460 C   0  0  1  0  0  3  0  0  0  0  0  0
  184.6090  179.0510  139.3580 C   0  0  2  0  0  3  0  0  0  0  0  0
  184.1200  178.2520  141.7540 C   0  0  0  0  0  2  0  0  0  0  0  0
  182.6800  178.5820  141.3800 C   0  0  0  0  0  2  0  0  0  0  0  0
  182.3360  178.0590  139.9780 C   0  0  0  0  0  2  0  0  0  0  0  0
  185.1090  178.9560  140.8120 C   0  0  0  0  0  2  0  0  0  0  0  0
  1 10  1  6  0  0  0
  2  6  1  6  0  0  0
  4 14  1  0  0  0  0
  4  9  1  0  0  0  0
  5 12  1  0  0  0  0
  5 10  1  0  0  0  0
  8  1  1  0  0  0  0
  8  2  1  0  0  0  0
  8  3  1  0  0  0  0
  9 25  1  0  0  0  0
 11  3  1  0  0  0  0
 11 15  1  0  0  0  0
 12 17  1  0  0  0  0
 12  1  1  0  0  0  0
 13  2  1  0  0  0  0
 13  7  1  0  0  0  0
 14 15  1  0  0  0  0
 15 20  1  0  0  0  0
 16  3  1  0  0  0  0
 16  7  1  0  0  0  0
 16  9  1  0  0  0  0
 17 11  1  0  0  0  0
 18 19  1  0  0  0  0
 18 24  1  0  0  0  0
 20 23  2  0  0  0  0
 20 22  1  0  0  0  0
 21 19  2  0  0  0  0
 22 18  2  0  0  0  0
 23 21  1  0  0  0  0
 26 25  1  0  0  0  0
 26 27  1  0  0  0  0
 27 29  1  0  0  0  0
 28 30  1  0  0  0  0
 29 30  1  0  0  0  0
 29 33  1  0  0  0  0
 30 34  1  0  0  0  0
 32 31  1  0  0  0  0
 33 32  1  0  0  0  0
 34 31  1  0  0  0  0
M  END
>  <MODEL>
5

>  <REMARK>
 VINA RESULT:      -7.0      2.989      7.303
  Name = 
  5 active torsions:
  status: ('A' for Active; 'I' for Inactive)
    1  A    between atoms: C_3  and  C_13
    2  A    between atoms: C_3  and  C_17
    3  A    between atoms: C_12  and  C_28
    4  A    between atoms: C_17  and  N_29
    5  A    between atoms: C_18  and  N_29
                            x       y       z     vdW  Elec       q    Type
                         _______ _______ _______ _____ _____    ______ ____

>  <TORSDO>
F 5

$$$$
=
 OpenBabel11052413583D

 34 39  0  0  1  0  0  0  0  0999 V2000
  183.4120  176.5780  135.8500 C   0  0  1  0  0  3  0  0  0  0  0  0
  185.6590  177.4720  136.5320 C   0  0  1  0  0  3  0  0  0  0  0  0
  183.6180  177.6830  137.9970 C   0  0  1  0  0  3  0  0  0  0  0  0
  182.8080  178.0770  141.0290 C   0  0  0  0  0  2  0  0  0  0  0  0
  182.2250  175.0070  135.0740 C   0  0  0  0  0  2  0  0  0  0  0  0
  186.3400  176.6830  135.6050 O   0  0  0  0  0  1  0  0  0  0  0  0
  185.8280  178.6130  138.7280 C   0  0  0  0  0  2  0  0  0  0  0  0
  184.3790  176.7750  136.9890 C   0  0  1  0  0  3  0  0  0  0  0  0
  183.8460  178.8810  140.2730 C   0  0  2  0  0  3  0  0  0  0  0  0
  183.5570  175.6470  134.6660 C   0  0  0  0  0  2  0  0  0  0  0  0
  182.1480  177.1820  138.3170 C   0  0  1  0  0  3  0  0  0  0  0  0
  182.3780  175.6730  136.4240 C   0  0  2  0  0  3  0  0  0  0  0  0
  186.5480  177.7090  137.7400 C   0  0  0  0  0  2  0  0  0  0  0  0
  181.4050  178.3570  140.5120 C   0  0  0  0  0  2  0  0  0  0  0  0
  181.2460  178.2250  138.9980 C   0  0  1  0  0  3  0  0  0  0  0  0
  184.5180  177.9790  139.2160 C   0  0  1  0  0  3  0  0  0  0  0  0
  181.3970  176.5970  137.0920 C   0  0  0  0  0  2  0  0  0  0  0  0
  180.8620  180.9200  136.3080 C   0  0  0  0  0  0  0  0  0  0  0  0
  180.8070  182.0690  137.1030 C   0  0  0  0  0  3  0  0  0  0  0  0
  181.0570  179.5500  138.3090 C   0  0  0  0  0  0  0  0  0  0  0  0
  180.8870  181.9630  138.4900 C   0  0  0  0  0  3  0  0  0  0  0  0
  180.9880  179.6650  136.9110 C   0  0  0  0  0  3  0  0  0  0  0  0
  181.0120  180.7080  139.0940 C   0  0  0  0  0  3  0  0  0  0  0  0
  180.7590  181.0200  134.9610 F   0  0  0  0  0  0  0  0  0  0  0  0
  184.8140  179.3950  141.2370 N   0  0  0  0  0  2  0  0  0  0  0  0
  184.5060  178.7780  142.5170 C   0  0  0  0  0  2  0  0  0  0  0  0
  184.8060  179.7390  143.6560 C   0  0  0  0  0  2  0  0  0  0  0  0
  184.1910  178.4740  146.2600 O   0  0  0  0  0  1  0  0  0  0  0  0
  185.8300  179.1630  144.6260 C   0  0  1  0  0  3  0  0  0  0  0  0
  185.3550  179.2290  146.0890 C   0  0  2  0  0  3  0  0  0  0  0  0
  187.4650  177.7930  146.4090 C   0  0  0  0  0  2  0  0  0  0  0  0
  186.8010  176.9030  145.3650 C   0  0  0  0  0  2  0  0  0  0  0  0
  186.2300  177.7360  144.2080 C   0  0  0  0  0  2  0  0  0  0  0  0
  186.4400  178.7330  147.0630 C   0  0  0  0  0  2  0  0  0  0  0  0
  1 10  1  6  0  0  0
  1 12  1  0  0  0  0
  1  8  1  0  0  0  0
  2  6  1  6  0  0  0
  2  8  1  0  0  0  0
  2 13  1  0  0  0  0
  3 11  1  0  0  0  0
  3 16  1  0  0  0  0
  5 12  1  0  0  0  0
  7 16  1  0  0  0  0
  8  3  1  0  0  0  0
  9  4  1  0  0  0  0
  9 25  1  0  0  0  0
 10  5  1  0  0  0  0
 11 15  1  0  0  0  0
 12 17  1  0  0  0  0
 13  7  1  0  0  0  0
 14  4  1  0  0  0  0
 15 14  1  0  0  0  0
 16  9  1  0  0  0  0
 17 11  1  0  0  0  0
 18 22  2  0  0  0  0
 18 19  1  0  0  0  0
 19 21  2  0  0  0  0
 20 15  1  0  0  0  0
 20 23  2  0  0  0  0
 21 23  1  0  0  0  0
 22 20  1  0  0  0  0
 24 18  1  0  0  0  0
 25 26  1  0  0  0  0
 26 27  1  0  0  0  0
 27 29  1  0  0  0  0
 29 30  1  0  0  0  0
 30 28  1  0  0  0  0
 30 34  1  0  0  0  0
 31 34  1  0  0  0  0
 32 31  1  0  0  0  0
 33 29  1  0  0  0  0
 33 32  1  0  0  0  0
M  END
>  <MODEL>
6

>  <REMARK>
 VINA RESULT:      -6.9      3.589      6.014
  Name = 
  5 active torsions:
  status: ('A' for Active; 'I' for Inactive)
    1  A    between atoms: C_3  and  C_13
    2  A    between atoms: C_3  and  C_17
    3  A    between atoms: C_12  and  C_28
    4  A    between atoms: C_17  and  N_29
    5  A    between atoms: C_18  and  N_29
                            x       y       z     vdW  Elec       q    Type
                         _______ _______ _______ _____ _____    ______ ____

>  <TORSDO>
F 5

$$$$
=
 OpenBabel11052413583D

 34 39  0  0  1  0  0  0  0  0999 V2000
  183.4430  178.3780  142.5850 C   0  0  1  0  0  3  0  0  0  0  0  0
  184.7670  178.5870  140.4590 C   0  0  1  0  0  3  0  0  0  0  0  0
  182.2480  178.6720  140.4980 C   0  0  1  0  0  3  0  0  0  0  0  0
  179.8050  179.7500  138.8020 C   0  0  0  0  0  2  0  0  0  0  0  0
  183.1150  178.9370  144.5990 C   0  0  0  0  0  2  0  0  0  0  0  0
  185.9450  178.9090  141.1330 O   0  0  0  0  0  1  0  0  0  0  0  0
  183.5090  178.8690  138.3400 C   0  0  0  0  0  2  0  0  0  0  0  0
  183.5510  179.0670  141.2490 C   0  0  1  0  0  3  0  0  0  0  0  0
  180.9840  178.9640  138.2650 C   0  0  2  0  0  3  0  0  0  0  0  0
  184.3510  178.5430  143.7840 C   0  0  0  0  0  2  0  0  0  0  0  0
  180.9330  178.8730  141.3600 C   0  0  1  0  0  3  0  0  0  0  0  0
  182.3850  179.1510  143.2910 C   0  0  2  0  0  3  0  0  0  0  0  0
  184.7670  179.2610  139.0980 C   0  0  0  0  0  2  0  0  0  0  0  0
  178.9310  178.8930  139.7040 C   0  0  0  0  0  2  0  0  0  0  0  0
  179.6870  178.1580  140.8110 C   0  0  1  0  0  3  0  0  0  0  0  0
  182.2430  179.3060  139.0900 C   0  0  1  0  0  3  0  0  0  0  0  0
  181.0960  178.5070  142.8600 C   0  0  0  0  0  2  0  0  0  0  0  0
  180.3270  174.7420  139.2080 C   0  0  0  0  0  0  0  0  0  0  0  0
  179.7880  173.8980  140.1830 C   0  0  0  0  0  3  0  0  0  0  0  0
  179.7690  176.6730  140.5800 C   0  0  0  0  0  0  0  0  0  0  0  0
  179.2340  174.4350  141.3440 C   0  0  0  0  0  3  0  0  0  0  0  0
  180.3150  176.1270  139.4070 C   0  0  0  0  0  3  0  0  0  0  0  0
  179.2220  175.8190  141.5430 C   0  0  0  0  0  3  0  0  0  0  0  0
  180.8890  174.2210  138.0920 F   0  0  0  0  0  0  0  0  0  0  0  0
  181.1540  179.3040  136.8560 N   0  0  0  0  0  2  0  0  0  0  0  0
  180.0900  180.2340  136.5120 C   0  0  0  0  0  2  0  0  0  0  0  0
  180.6140  181.3230  135.5900 C   0  0  0  0  0  2  0  0  0  0  0  0
  181.5730  182.8080  137.9630 O   0  0  0  0  0  1  0  0  0  0  0  0
  180.1400  182.7050  136.0230 C   0  0  1  0  0  3  0  0  0  0  0  0
  180.2430  182.9100  137.5450 C   0  0  2  0  0  3  0  0  0  0  0  0
  179.6580  185.3160  136.8460 C   0  0  0  0  0  2  0  0  0  0  0  0
  180.8810  185.1630  135.9490 C   0  0  0  0  0  2  0  0  0  0  0  0
  180.8790  183.8030  135.2360 C   0  0  0  0  0  2  0  0  0  0  0  0
  179.6700  184.2740  137.9750 C   0  0  0  0  0  2  0  0  0  0  0  0
  1 12  1  0  0  0  0
  1 10  1  1  0  0  0
  2  6  1  1  0  0  0
  2  8  1  0  0  0  0
  3  8  1  0  0  0  0
  3 11  1  0  0  0  0
  4 14  1  0  0  0  0
  7 16  1  0  0  0  0
  7 13  1  0  0  0  0
  8  1  1  0  0  0  0
  9  4  1  0  0  0  0
  9 16  1  0  0  0  0
 10  5  1  0  0  0  0
 11 17  1  0  0  0  0
 12  5  1  0  0  0  0
 13  2  1  0  0  0  0
 14 15  1  0  0  0  0
 15 11  1  0  0  0  0
 16  3  1  0  0  0  0
 17 12  1  0  0  0  0
 18 22  2  0  0  0  0
 18 19  1  0  0  0  0
 19 21  2  0  0  0  0
 20 15  1  0  0  0  0
 20 23  2  0  0  0  0
 21 23  1  0  0  0  0
 22 20  1  0  0  0  0
 24 18  1  0  0  0  0
 25  9  1  0  0  0  0
 26 25  1  0  0  0  0
 27 29  1  0  0  0  0
 27 26  1  0  0  0  0
 29 30  1  0  0  0  0
 30 28  1  0  0  0  0
 30 34  1  0  0  0  0
 31 34  1  0  0  0  0
 32 31  1  0  0  0  0
 33 32  1  0  0  0  0
 33 29  1  0  0  0  0
M  END
>  <MODEL>
7

>  <REMARK>
 VINA RESULT:      -6.8      4.411      8.425
  Name = 
  5 active torsions:
  status: ('A' for Active; 'I' for Inactive)
    1  A    between atoms: C_3  and  C_13
    2  A    between atoms: C_3  and  C_17
    3  A    between atoms: C_12  and  C_28
    4  A    between atoms: C_17  and  N_29
    5  A    between atoms: C_18  and  N_29
                            x       y       z     vdW  Elec       q    Type
                         _______ _______ _______ _____ _____    ______ ____

>  <TORSDO>
F 5

$$$$
=
 OpenBabel11052413583D

 34 39  0  0  1  0  0  0  0  0999 V2000
  190.6050  174.1470  136.8400 C   0  0  1  0  0  3  0  0  0  0  0  0
  188.2160  173.3830  136.6990 C   0  0  1  0  0  3  0  0  0  0  0  0
  188.8450  175.7990  137.0470 C   0  0  1  0  0  3  0  0  0  0  0  0
  187.6870  178.7150  136.6500 C   0  0  0  0  0  2  0  0  0  0  0  0
  192.5780  174.1370  136.0740 C   0  0  0  0  0  2  0  0  0  0  0  0
  188.5560  172.1760  136.0890 O   0  0  0  0  0  1  0  0  0  0  0  0
  186.4410  175.1000  136.9340 C   0  0  0  0  0  2  0  0  0  0  0  0
  189.2240  174.4700  136.3330 C   0  0  1  0  0  3  0  0  0  0  0  0
  186.9610  177.5480  137.2870 C   0  0  2  0  0  3  0  0  0  0  0  0
  191.5320  173.0520  136.3570 C   0  0  0  0  0  2  0  0  0  0  0  0
  189.9730  176.9100  136.9590 C   0  0  1  0  0  3  0  0  0  0  0  0
  191.4680  175.1600  136.1720 C   0  0  2  0  0  3  0  0  0  0  0  0
  186.8370  173.8120  136.2300 C   0  0  0  0  0  2  0  0  0  0  0  0
  188.8480  179.1850  137.5120 C   0  0  0  0  0  2  0  0  0  0  0  0
  189.8060  178.0770  137.9470 C   0  0  1  0  0  3  0  0  0  0  0  0
  187.4260  176.2350  136.6220 C   0  0  1  0  0  3  0  0  0  0  0  0
  191.4190  176.3560  137.0820 C   0  0  0  0  0  2  0  0  0  0  0  0
  188.5520  177.8400  141.5550 C   0  0  0  0  0  0  0  0  0  0  0  0
  189.6370  177.2010  142.1610 C   0  0  0  0  0  3  0  0  0  0  0  0
  189.7030  177.7520  139.4130 C   0  0  0  0  0  0  0  0  0  0  0  0
  190.7530  176.8480  141.4040 C   0  0  0  0  0  3  0  0  0  0  0  0
  188.5870  178.1160  140.1840 C   0  0  0  0  0  3  0  0  0  0  0  0
  190.7880  177.1230  140.0330 C   0  0  0  0  0  3  0  0  0  0  0  0
  187.4560  178.1600  142.2840 F   0  0  0  0  0  0  0  0  0  0  0  0
  185.5260  177.7590  137.1190 N   0  0  0  0  0  2  0  0  0  0  0  0
  185.0340  178.3380  138.3590 C   0  0  0  0  0  2  0  0  0  0  0  0
  183.5670  177.9930  138.5610 C   0  0  0  0  0  2  0  0  0  0  0  0
  182.1030  175.5700  139.4240 O   0  0  0  0  0  1  0  0  0  0  0  0
  183.1260  176.8520  137.6520 C   0  0  1  0  0  3  0  0  0  0  0  0
  183.0470  175.5070  138.3950 C   0  0  2  0  0  3  0  0  0  0  0  0
  181.9670  174.8080  136.1670 C   0  0  0  0  0  2  0  0  0  0  0  0
  181.0270  175.9700  136.4630 C   0  0  0  0  0  2  0  0  0  0  0  0
  181.8040  177.2040  136.9440 C   0  0  0  0  0  2  0  0  0  0  0  0
  182.6940  174.3500  137.4410 C   0  0  0  0  0  2  0  0  0  0  0  0
  1 10  1  6  0  0  0
  2  6  1  6  0  0  0
  4  9  1  0  0  0  0
  4 14  1  0  0  0  0
  5 12  1  0  0  0  0
  5 10  1  0  0  0  0
  8  2  1  0  0  0  0
  8  1  1  0  0  0  0
  8  3  1  0  0  0  0
 11  3  1  0  0  0  0
 11 17  1  0  0  0  0
 11 15  1  0  0  0  0
 12  1  1  0  0  0  0
 12 17  1  0  0  0  0
 13  2  1  0  0  0  0
 13  7  1  0  0  0  0
 14 15  1  0  0  0  0
 15 20  1  0  0  0  0
 16  7  1  0  0  0  0
 16  3  1  0  0  0  0
 16  9  1  0  0  0  0
 18 19  1  0  0  0  0
 18 24  1  0  0  0  0
 20 23  2  0  0  0  0
 20 22  1  0  0  0  0
 21 19  2  0  0  0  0
 22 18  2  0  0  0  0
 23 21  1  0  0  0  0
 25  9  1  0  0  0  0
 25 26  1  0  0  0  0
 26 27  1  0  0  0  0
 29 30  1  0  0  0  0
 29 27  1  0  0  0  0
 30 28  1  0  0  0  0
 31 32  1  0  0  0  0
 31 34  1  0  0  0  0
 32 33  1  0  0  0  0
 33 29  1  0  0  0  0
 34 30  1  0  0  0  0
M  END
>  <MODEL>
8

>  <REMARK>
 VINA RESULT:      -6.5      3.024      7.843
  Name = 
  5 active torsions:
  status: ('A' for Active; 'I' for Inactive)
    1  A    between atoms: C_3  and  C_13
    2  A    between atoms: C_3  and  C_17
    3  A    between atoms: C_12  and  C_28
    4  A    between atoms: C_17  and  N_29
    5  A    between atoms: C_18  and  N_29
                            x       y       z     vdW  Elec       q    Type
                         _______ _______ _______ _____ _____    ______ ____

>  <TORSDO>
F 5

$$$$
=
 OpenBabel11052413583D

 34 39  0  0  1  0  0  0  0  0999 V2000
  186.1900  177.9540  141.9160 C   0  0  1  0  0  3  0  0  0  0  0  0
  188.5450  177.1290  142.2140 C   0  0  1  0  0  3  0  0  0  0  0  0
  187.6330  177.8380  139.9730 C   0  0  1  0  0  3  0  0  0  0  0  0
  188.6070  178.8750  137.1470 C   0  0  0  0  0  2  0  0  0  0  0  0
  184.5950  179.1990  142.5350 C   0  0  0  0  0  2  0  0  0  0  0  0
  188.5310  177.3510  143.5900 O   0  0  0  0  0  1  0  0  0  0  0  0
  189.9870  177.0070  140.1990 C   0  0  0  0  0  2  0  0  0  0  0  0
  187.6290  178.1230  141.5020 C   0  0  1  0  0  3  0  0  0  0  0  0
  189.1740  177.6920  137.9060 C   0  0  2  0  0  3  0  0  0  0  0  0
  185.5740  178.2700  143.2610 C   0  0  0  0  0  2  0  0  0  0  0  0
  186.5090  178.6260  139.1790 C   0  0  1  0  0  3  0  0  0  0  0  0
  185.5180  179.1500  141.3370 C   0  0  2  0  0  3  0  0  0  0  0  0
  189.9600  177.3020  141.6900 C   0  0  0  0  0  2  0  0  0  0  0  0
  187.1880  178.6000  136.6710 C   0  0  0  0  0  2  0  0  0  0  0  0
  186.2370  178.1020  137.7590 C   0  0  1  0  0  3  0  0  0  0  0  0
  189.0700  177.9620  139.4230 C   0  0  1  0  0  3  0  0  0  0  0  0
  185.1590  178.7390  139.9360 C   0  0  0  0  0  2  0  0  0  0  0  0
  186.4310  174.3420  137.0730 C   0  0  0  0  0  0  0  0  0  0  0  0
  185.0880  173.9860  137.2200 C   0  0  0  0  0  3  0  0  0  0  0  0
  185.8710  176.6510  137.6000 C   0  0  0  0  0  0  0  0  0  0  0  0
  184.1390  174.9550  137.5440 C   0  0  0  0  0  3  0  0  0  0  0  0
  186.8210  175.6720  137.2610 C   0  0  0  0  0  3  0  0  0  0  0  0
  184.5280  176.2840  137.7330 C   0  0  0  0  0  3  0  0  0  0  0  0
  187.3570  173.3970  136.7840 F   0  0  0  0  0  0  0  0  0  0  0  0
  190.5590  177.5030  137.4850 N   0  0  0  0  0  2  0  0  0  0  0  0
  190.5890  176.3180  136.6440 C   0  0  0  0  0  2  0  0  0  0  0  0
  191.3950  175.2150  137.3110 C   0  0  0  0  0  2  0  0  0  0  0  0
  193.9290  176.6870  137.7280 O   0  0  0  0  0  1  0  0  0  0  0  0
  192.7050  174.9510  136.5780 C   0  0  1  0  0  3  0  0  0  0  0  0
  193.5750  176.2150  136.4600 C   0  0  2  0  0  3  0  0  0  0  0  0
  195.2630  174.4750  135.5990 C   0  0  0  0  0  2  0  0  0  0  0  0
  194.9710  173.7950  136.9320 C   0  0  0  0  0  2  0  0  0  0  0  0
  193.4650  173.7810  137.2290 C   0  0  0  0  0  2  0  0  0  0  0  0
  194.8490  175.9540  135.6340 C   0  0  0  0  0  2  0  0  0  0  0  0
  1 10  1  1  0  0  0
  2  6  1  1  0  0  0
  3  8  1  0  0  0  0
  4  9  1  0  0  0  0
  5 10  1  0  0  0  0
  7 13  1  0  0  0  0
  8  1  1  0  0  0  0
  8  2  1  0  0  0  0
  9 16  1  0  0  0  0
 11 17  1  0  0  0  0
 11  3  1  0  0  0  0
 12  1  1  0  0  0  0
 12  5  1  0  0  0  0
 13  2  1  0  0  0  0
 14  4  1  0  0  0  0
 14 15  1  0  0  0  0
 15 11  1  0  0  0  0
 16  3  1  0  0  0  0
 16  7  1  0  0  0  0
 17 12  1  0  0  0  0
 18 19  2  0  0  0  0
 18 22  1  0  0  0  0
 19 21  1  0  0  0  0
 20 23  1  0  0  0  0
 20 15  1  0  0  0  0
 21 23  2  0  0  0  0
 22 20  2  0  0  0  0
 24 18  1  0  0  0  0
 25  9  1  0  0  0  0
 26 27  1  0  0  0  0
 26 25  1  0  0  0  0
 29 33  1  0  0  0  0
 29 27  1  0  0  0  0
 30 29  1  0  0  0  0
 30 28  1  0  0  0  0
 31 34  1  0  0  0  0
 31 32  1  0  0  0  0
 32 33  1  0  0  0  0
 34 30  1  0  0  0  0
M  END
>  <MODEL>
9

>  <REMARK>
 VINA RESULT:      -6.5      3.053      4.834
  Name = 
  5 active torsions:
  status: ('A' for Active; 'I' for Inactive)
    1  A    between atoms: C_3  and  C_13
    2  A    between atoms: C_3  and  C_17
    3  A    between atoms: C_12  and  C_28
    4  A    between atoms: C_17  and  N_29
    5  A    between atoms: C_18  and  N_29
                            x       y       z     vdW  Elec       q    Type
                         _______ _______ _______ _____ _____    ______ ____

>  <TORSDO>
F 5

$$$$
