=
 OpenBabel11052416463D

 32 37  0  0  1  0  0  0  0  0999 V2000
  187.4860  177.4670  147.0450 O   0  0  0  0  0  0  0  0  0  0  0  0
  185.9120  178.6720  142.2570 C   0  0  1  0  0  3  0  0  0  0  0  0
  181.2090  178.9160  143.7400 C   0  0  0  0  0  3  0  0  0  0  0  0
  180.7770  178.4870  142.4880 C   0  0  0  0  0  3  0  0  0  0  0  0
  186.2840  178.3960  139.7950 C   0  0  0  0  0  0  0  0  0  0  0  0
  185.7520  178.1250  138.4630 C   0  0  0  0  0  0  0  0  0  0  0  0
  187.3030  177.8120  144.1580 C   0  0  1  0  0  3  0  0  0  0  0  0
  185.3340  179.3310  144.6350 C   0  0  0  0  0  2  0  0  0  0  0  0
  184.2890  177.6070  136.8880 N   0  0  0  0  0  0  0  0  0  0  0  0
  186.7620  178.5440  146.5150 C   0  0  0  0  0  2  0  0  0  0  0  0
  182.5700  179.0930  143.9820 C   0  0  0  0  0  3  0  0  0  0  0  0
  184.8370  179.0040  143.2560 C   0  0  0  0  0  0  0  0  0  0  0  0
  183.5270  178.8480  142.9800 C   0  0  0  0  0  0  0  0  0  0  0  0
  183.9650  178.1860  140.6990 C   0  0  0  0  0  0  0  0  0  0  0  0
  185.4730  177.7580  136.1470 N   0  0  0  0  0  0  0  0  0  0  0  0
  189.1540  177.2280  145.2820 C   0  0  0  0  0  2  0  0  0  0  0  0
  186.1790  178.1670  145.1560 C   0  0  2  0  0  3  0  0  0  0  0  0
  186.4830  178.1090  137.1610 C   0  0  0  0  0  3  0  0  0  0  0  0
  188.0250  176.7060  144.6270 O   0  0  0  0  0  0  0  0  0  0  0  0
  188.8280  177.7090  146.7070 C   0  0  2  0  0  3  0  0  0  0  0  0
  181.7070  178.2410  141.4790 C   0  0  0  0  0  3  0  0  0  0  0  0
  183.0870  178.4170  141.6980 C   0  0  0  0  0  0  0  0  0  0  0  0
  183.4710  177.6930  139.3460 C   0  0  0  0  0  2  0  0  0  0  0  0
  186.7210  177.4860  142.7800 C   0  0  0  0  0  2  0  0  0  0  0  0
  187.5120  178.6360  139.9490 O   0  0  0  0  0  0  0  0  0  0  0  0
  183.0210  177.2370  136.2850 C   0  0  0  0  0  1  0  0  0  0  0  0
  185.3830  178.3960  140.9170 N   0  0  0  0  0  0  0  0  0  0  0  0
  184.4980  177.8430  138.2610 C   0  0  0  0  0  0  0  0  0  0  0  0
  189.7480  177.0130  147.6950 C   0  0  0  0  0  2  0  0  0  0  0  0
  191.0490  176.6780  147.0520 C   0  0  0  0  0  0  0  0  0  0  0  0
  191.6620  177.5910  146.2050 O   0  0  0  0  0  0  0  0  0  0  0  0
  191.6080  175.5770  147.2990 O   0  0  0  0  0  1  0  0  0  0  0  0
  2 24  1  1  0  0  0
  2 12  1  0  0  0  0
  3 11  2  0  0  0  0
  4  3  1  0  0  0  0
  5 25  2  0  0  0  0
  5 27  1  0  0  0  0
  6  5  1  0  0  0  0
  7 24  1  6  0  0  0
  7 19  1  0  0  0  0
  7 17  1  0  0  0  0
  9 28  1  0  0  0  0
 10  1  1  0  0  0  0
 12  8  1  0  0  0  0
 13 12  2  0  0  0  0
 13 11  1  0  0  0  0
 14 27  1  0  0  0  0
 14 22  2  0  0  0  0
 15  9  1  0  0  0  0
 15 18  2  0  0  0  0
 16 20  1  0  0  0  0
 17  8  1  6  0  0  0
 17 10  1  0  0  0  0
 18  6  1  0  0  0  0
 19 16  1  0  0  0  0
 20  1  1  0  0  0  0
 20 29  1  1  0  0  0
 21 22  1  0  0  0  0
 21  4  2  0  0  0  0
 22 13  1  0  0  0  0
 23 14  1  0  0  0  0
 26  9  1  0  0  0  0
 27  2  1  0  0  0  0
 28  6  2  0  0  0  0
 28 23  1  0  0  0  0
 30 32  1  0  0  0  0
 30 29  1  0  0  0  0
 31 30  2  0  0  0  0
M  END
>  <MODEL>
1

>  <REMARK>
 VINA RESULT:     -10.0      0.000      0.000
  Name = 
  2 active torsions:
  status: ('A' for Active; 'I' for Inactive)
    1  A    between atoms: C_1  and  C_10
    2  A    between atoms: C_10  and  C_24
                            x       y       z     vdW  Elec       q    Type
                         _______ _______ _______ _____ _____    ______ ____

>  <TORSDO>
F 2

$$$$
=
 OpenBabel11052416463D

 32 37  0  0  1  0  0  0  0  0999 V2000
  192.6860  175.7120  138.4920 O   0  0  0  0  0  0  0  0  0  0  0  0
  189.1170  178.0790  141.4100 C   0  0  1  0  0  3  0  0  0  0  0  0
  191.6800  177.1280  145.5210 C   0  0  0  0  0  3  0  0  0  0  0  0
  190.5000  177.0460  146.2550 C   0  0  0  0  0  3  0  0  0  0  0  0
  186.6950  178.6370  141.7180 C   0  0  0  0  0  0  0  0  0  0  0  0
  185.5190  178.7110  142.5810 C   0  0  0  0  0  0  0  0  0  0  0  0
  190.2210  176.8990  139.4920 C   0  0  1  0  0  3  0  0  0  0  0  0
  191.6430  177.8740  141.3460 C   0  0  0  0  0  2  0  0  0  0  0  0
  184.2630  178.4870  144.3860 N   0  0  0  0  0  0  0  0  0  0  0  0
  192.7430  176.7750  139.4040 C   0  0  0  0  0  2  0  0  0  0  0  0
  191.6330  177.4280  144.1610 C   0  0  0  0  0  3  0  0  0  0  0  0
  190.3970  177.9170  142.1840 C   0  0  0  0  0  0  0  0  0  0  0  0
  190.4080  177.6540  143.5060 C   0  0  0  0  0  0  0  0  0  0  0  0
  188.0040  177.8040  143.6760 C   0  0  0  0  0  0  0  0  0  0  0  0
  183.3550  179.0390  143.4670 N   0  0  0  0  0  0  0  0  0  0  0  0
  190.6000  176.2880  137.3680 C   0  0  0  0  0  2  0  0  0  0  0  0
  191.5200  176.7520  140.3150 C   0  0  2  0  0  3  0  0  0  0  0  0
  184.1540  179.2110  142.2400 C   0  0  0  0  0  3  0  0  0  0  0  0
  190.1000  175.8270  138.5970 O   0  0  0  0  0  0  0  0  0  0  0  0
  192.1380  176.2500  137.3160 C   0  0  2  0  0  3  0  0  0  0  0  0
  189.2750  177.2690  145.6270 C   0  0  0  0  0  3  0  0  0  0  0  0
  189.2020  177.5780  144.2550 C   0  0  0  0  0  0  0  0  0  0  0  0
  186.7250  177.6840  144.4930 C   0  0  0  0  0  2  0  0  0  0  0  0
  188.9980  176.9280  140.4110 C   0  0  0  0  0  2  0  0  0  0  0  0
  186.6210  179.0030  140.5140 O   0  0  0  0  0  0  0  0  0  0  0  0
  183.8940  178.1310  145.7440 C   0  0  0  0  0  1  0  0  0  0  0  0
  187.9320  178.1520  142.2700 N   0  0  0  0  0  0  0  0  0  0  0  0
  185.5420  178.3170  143.8200 C   0  0  0  0  0  0  0  0  0  0  0  0
  192.5800  175.4330  136.1130 C   0  0  0  0  0  2  0  0  0  0  0  0
  194.0530  175.5440  135.9180 C   0  0  0  0  0  0  0  0  0  0  0  0
  194.6880  176.7650  136.0990 O   0  0  0  0  0  1  0  0  0  0  0  0
  194.7260  174.5240  135.6190 O   0  0  0  0  0  0  0  0  0  0  0  0
  1 10  1  0  0  0  0
  2 24  1  6  0  0  0
  2 12  1  0  0  0  0
  2 27  1  0  0  0  0
  3  4  1  0  0  0  0
  5 27  1  0  0  0  0
  5  6  1  0  0  0  0
  6 28  2  0  0  0  0
  7 17  1  0  0  0  0
  7 24  1  1  0  0  0
  8 12  1  0  0  0  0
  9 26  1  0  0  0  0
 11  3  2  0  0  0  0
 12 13  2  0  0  0  0
 13 11  1  0  0  0  0
 13 22  1  0  0  0  0
 14 22  2  0  0  0  0
 14 23  1  0  0  0  0
 15  9  1  0  0  0  0
 16 19  1  0  0  0  0
 17 10  1  6  0  0  0
 17  8  1  0  0  0  0
 18  6  1  0  0  0  0
 18 15  2  0  0  0  0
 19  7  1  0  0  0  0
 20 29  1  6  0  0  0
 20 16  1  0  0  0  0
 20  1  1  0  0  0  0
 21  4  2  0  0  0  0
 22 21  1  0  0  0  0
 25  5  2  0  0  0  0
 27 14  1  0  0  0  0
 28  9  1  0  0  0  0
 28 23  1  0  0  0  0
 30 31  1  0  0  0  0
 30 29  1  0  0  0  0
 32 30  2  0  0  0  0
M  END
>  <MODEL>
2

>  <REMARK>
 VINA RESULT:      -9.4      4.267      7.865
  Name = 
  2 active torsions:
  status: ('A' for Active; 'I' for Inactive)
    1  A    between atoms: C_1  and  C_10
    2  A    between atoms: C_10  and  C_24
                            x       y       z     vdW  Elec       q    Type
                         _______ _______ _______ _____ _____    ______ ____

>  <TORSDO>
F 2

$$$$
=
 OpenBabel11052416463D

 32 37  0  0  1  0  0  0  0  0999 V2000
  186.1020  177.5020  146.2790 O   0  0  0  0  0  0  0  0  0  0  0  0
  186.4940  178.7150  141.2570 C   0  0  1  0  0  3  0  0  0  0  0  0
  181.5820  178.7450  140.7620 C   0  0  0  0  0  3  0  0  0  0  0  0
  181.6980  178.3190  139.4410 C   0  0  0  0  0  3  0  0  0  0  0  0
  187.8200  178.4920  139.1430 C   0  0  0  0  0  0  0  0  0  0  0  0
  187.8690  178.2200  137.7090 C   0  0  0  0  0  0  0  0  0  0  0  0
  187.0580  177.8830  143.5540 C   0  0  1  0  0  3  0  0  0  0  0  0
  184.9970  179.3130  143.2130 C   0  0  0  0  0  2  0  0  0  0  0  0
  187.1700  177.6680  135.6860 N   0  0  0  0  0  0  0  0  0  0  0  0
  185.6000  178.5560  145.5050 C   0  0  0  0  0  2  0  0  0  0  0  0
  182.7280  178.9730  141.5220 C   0  0  0  0  0  3  0  0  0  0  0  0
  185.0990  178.9870  141.7500 C   0  0  0  0  0  0  0  0  0  0  0  0
  184.0120  178.7830  140.9790 C   0  0  0  0  0  0  0  0  0  0  0  0
  185.3430  178.1740  139.0580 C   0  0  0  0  0  0  0  0  0  0  0  0
  188.5420  177.8780  135.4720 N   0  0  0  0  0  0  0  0  0  0  0  0
  188.3390  177.3570  145.3190 C   0  0  0  0  0  2  0  0  0  0  0  0
  185.6170  178.1770  144.0270 C   0  0  2  0  0  3  0  0  0  0  0  0
  189.0540  178.2540  136.8020 C   0  0  0  0  0  3  0  0  0  0  0  0
  187.5830  176.8000  144.2730 O   0  0  0  0  0  0  0  0  0  0  0  0
  187.4570  177.8030  146.4990 C   0  0  2  0  0  3  0  0  0  0  0  0
  182.9610  178.1260  138.8830 C   0  0  0  0  0  3  0  0  0  0  0  0
  184.1330  178.3540  139.6290 C   0  0  0  0  0  0  0  0  0  0  0  0
  185.4450  177.6830  137.6200 C   0  0  0  0  0  2  0  0  0  0  0  0
  187.0820  177.5550  142.0600 C   0  0  0  0  0  2  0  0  0  0  0  0
  188.8760  178.7800  139.7690 O   0  0  0  0  0  0  0  0  0  0  0  0
  186.2600  177.2550  134.6320 C   0  0  0  0  0  1  0  0  0  0  0  0
  186.5490  178.4390  139.8180 N   0  0  0  0  0  0  0  0  0  0  0  0
  186.8090  177.8910  137.0290 C   0  0  0  0  0  0  0  0  0  0  0  0
  187.9410  177.1300  147.7710 C   0  0  0  0  0  2  0  0  0  0  0  0
  189.3270  177.5670  148.0990 C   0  0  0  0  0  0  0  0  0  0  0  0
  190.4130  176.8230  147.6590 O   0  0  0  0  0  0  0  0  0  0  0  0
  189.5140  178.6280  148.7510 O   0  0  0  0  0  1  0  0  0  0  0  0
  1 20  1  0  0  0  0
  2 12  1  0  0  0  0
  2 24  1  1  0  0  0
  3 11  2  0  0  0  0
  4  3  1  0  0  0  0
  5 25  2  0  0  0  0
  5 27  1  0  0  0  0
  6  5  1  0  0  0  0
  7 24  1  6  0  0  0
  7 17  1  0  0  0  0
  7 19  1  0  0  0  0
  9 28  1  0  0  0  0
 10  1  1  0  0  0  0
 12  8  1  0  0  0  0
 13 11  1  0  0  0  0
 13 12  2  0  0  0  0
 14 22  2  0  0  0  0
 14 27  1  0  0  0  0
 15  9  1  0  0  0  0
 15 18  2  0  0  0  0
 16 20  1  0  0  0  0
 17  8  1  6  0  0  0
 17 10  1  0  0  0  0
 18  6  1  0  0  0  0
 19 16  1  0  0  0  0
 20 29  1  1  0  0  0
 21  4  2  0  0  0  0
 21 22  1  0  0  0  0
 22 13  1  0  0  0  0
 23 14  1  0  0  0  0
 26  9  1  0  0  0  0
 27  2  1  0  0  0  0
 28 23  1  0  0  0  0
 28  6  2  0  0  0  0
 29 30  1  0  0  0  0
 30 32  1  0  0  0  0
 31 30  2  0  0  0  0
M  END
>  <MODEL>
3

>  <REMARK>
 VINA RESULT:      -9.4      1.519      2.222
  Name = 
  2 active torsions:
  status: ('A' for Active; 'I' for Inactive)
    1  A    between atoms: C_1  and  C_10
    2  A    between atoms: C_10  and  C_24
                            x       y       z     vdW  Elec       q    Type
                         _______ _______ _______ _____ _____    ______ ____

>  <TORSDO>
F 2

$$$$
=
 OpenBabel11052416463D

 32 37  0  0  1  0  0  0  0  0999 V2000
  186.0740  177.6920  144.2740 O   0  0  0  0  0  0  0  0  0  0  0  0
  189.3650  177.7410  140.2710 C   0  0  1  0  0  3  0  0  0  0  0  0
  185.6280  177.5580  137.0490 C   0  0  0  0  0  3  0  0  0  0  0  0
  186.4180  176.8460  136.1510 C   0  0  0  0  0  3  0  0  0  0  0  0
  191.6140  177.0710  139.3980 C   0  0  0  0  0  0  0  0  0  0  0  0
  192.4310  176.4810  138.3410 C   0  0  0  0  0  0  0  0  0  0  0  0
  188.4360  177.4640  142.5840 C   0  0  1  0  0  3  0  0  0  0  0  0
  187.1060  178.7370  140.8460 C   0  0  0  0  0  2  0  0  0  0  0  0
  192.9360  175.4690  136.4410 N   0  0  0  0  0  0  0  0  0  0  0  0
  186.2200  178.5330  143.1620 C   0  0  0  0  0  2  0  0  0  0  0  0
  186.1630  177.9760  138.2660 C   0  0  0  0  0  3  0  0  0  0  0  0
  187.9770  178.0900  139.8080 C   0  0  0  0  0  0  0  0  0  0  0  0
  187.4980  177.6930  138.6110 C   0  0  0  0  0  0  0  0  0  0  0  0
  189.6000  176.6910  137.9700 C   0  0  0  0  0  0  0  0  0  0  0  0
  194.2040  175.6530  137.0180 N   0  0  0  0  0  0  0  0  0  0  0  0
  188.4290  177.3790  144.8250 C   0  0  0  0  0  2  0  0  0  0  0  0
  187.0240  177.8290  142.0730 C   0  0  2  0  0  3  0  0  0  0  0  0
  193.9160  176.3320  138.2950 C   0  0  0  0  0  3  0  0  0  0  0  0
  188.3370  176.5840  143.6700 O   0  0  0  0  0  0  0  0  0  0  0  0
  187.0940  178.0630  145.1670 C   0  0  2  0  0  3  0  0  0  0  0  0
  187.7440  176.5560  136.4710 C   0  0  0  0  0  3  0  0  0  0  0  0
  188.3090  176.9720  137.6920 C   0  0  0  0  0  0  0  0  0  0  0  0
  190.4370  175.8890  136.9840 C   0  0  0  0  0  2  0  0  0  0  0  0
  189.2600  176.8060  141.4750 C   0  0  0  0  0  2  0  0  0  0  0  0
  192.1580  177.5140  140.4450 O   0  0  0  0  0  0  0  0  0  0  0  0
  192.7390  174.8100  135.1620 C   0  0  0  0  0  1  0  0  0  0  0  0
  190.1890  177.1460  139.2140 N   0  0  0  0  0  0  0  0  0  0  0  0
  191.9100  175.9850  137.2570 C   0  0  0  0  0  0  0  0  0  0  0  0
  186.6960  177.7060  146.5900 C   0  0  0  0  0  2  0  0  0  0  0  0
  185.6350  178.6280  147.0830 C   0  0  0  0  0  0  0  0  0  0  0  0
  185.9830  179.8120  147.7180 O   0  0  0  0  0  1  0  0  0  0  0  0
  184.4220  178.3470  146.8980 O   0  0  0  0  0  0  0  0  0  0  0  0
  1 20  1  0  0  0  0
  2 24  1  1  0  0  0
  3 11  2  0  0  0  0
  4 21  2  0  0  0  0
  4  3  1  0  0  0  0
  5 25  2  0  0  0  0
  6  5  1  0  0  0  0
  7 24  1  6  0  0  0
  7 19  1  0  0  0  0
  9 15  1  0  0  0  0
  9 28  1  0  0  0  0
 10  1  1  0  0  0  0
 11 13  1  0  0  0  0
 12  2  1  0  0  0  0
 12  8  1  0  0  0  0
 13 12  2  0  0  0  0
 14 27  1  0  0  0  0
 15 18  2  0  0  0  0
 16 20  1  0  0  0  0
 17  8  1  6  0  0  0
 17  7  1  0  0  0  0
 17 10  1  0  0  0  0
 18  6  1  0  0  0  0
 19 16  1  0  0  0  0
 20 29  1  1  0  0  0
 21 22  1  0  0  0  0
 22 14  2  0  0  0  0
 22 13  1  0  0  0  0
 23 28  1  0  0  0  0
 23 14  1  0  0  0  0
 26  9  1  0  0  0  0
 27  5  1  0  0  0  0
 27  2  1  0  0  0  0
 28  6  2  0  0  0  0
 29 30  1  0  0  0  0
 30 31  1  0  0  0  0
 32 30  2  0  0  0  0
M  END
>  <MODEL>
4

>  <REMARK>
 VINA RESULT:      -9.4      4.018      6.108
  Name = 
  2 active torsions:
  status: ('A' for Active; 'I' for Inactive)
    1  A    between atoms: C_1  and  C_10
    2  A    between atoms: C_10  and  C_24
                            x       y       z     vdW  Elec       q    Type
                         _______ _______ _______ _____ _____    ______ ____

>  <TORSDO>
F 2

$$$$
=
 OpenBabel11052416463D

 32 37  0  0  1  0  0  0  0  0999 V2000
  191.6880  176.0380  138.8770 O   0  0  0  0  0  0  0  0  0  0  0  0
  187.3590  178.4710  140.3590 C   0  0  1  0  0  3  0  0  0  0  0  0
  188.3570  177.5940  145.1140 C   0  0  0  0  0  3  0  0  0  0  0  0
  186.9970  177.5290  145.4020 C   0  0  0  0  0  3  0  0  0  0  0  0
  184.9820  179.0410  139.8120 C   0  0  0  0  0  0  0  0  0  0  0  0
  183.5830  179.1350  140.2200 C   0  0  0  0  0  0  0  0  0  0  0  0
  189.0400  177.2500  138.9540 C   0  0  1  0  0  3  0  0  0  0  0  0
  189.7530  178.2580  141.1650 C   0  0  0  0  0  2  0  0  0  0  0  0
  181.7850  178.9490  141.4920 N   0  0  0  0  0  0  0  0  0  0  0  0
  191.4400  177.1190  139.7340 C   0  0  0  0  0  2  0  0  0  0  0  0
  188.7800  177.8670  143.8140 C   0  0  0  0  0  3  0  0  0  0  0  0
  188.2970  178.3200  141.5260 C   0  0  0  0  0  0  0  0  0  0  0  0
  187.8530  178.0840  142.7770 C   0  0  0  0  0  0  0  0  0  0  0  0
  185.5370  178.2430  142.1140 C   0  0  0  0  0  0  0  0  0  0  0  0
  181.2500  179.4860  140.3090 N   0  0  0  0  0  0  0  0  0  0  0  0
  190.1160  176.5970  137.0980 C   0  0  0  0  0  2  0  0  0  0  0  0
  189.9790  177.1160  140.1740 C   0  0  2  0  0  3  0  0  0  0  0  0
  182.4210  179.6310  139.4260 C   0  0  0  0  0  3  0  0  0  0  0  0
  189.2220  176.1610  138.0910 O   0  0  0  0  0  0  0  0  0  0  0  0
  191.5790  176.5540  137.5740 C   0  0  2  0  0  3  0  0  0  0  0  0
  186.0610  177.7430  144.3910 C   0  0  0  0  0  3  0  0  0  0  0  0
  186.4630  178.0250  143.0710 C   0  0  0  0  0  0  0  0  0  0  0  0
  184.0550  178.1420  142.4470 C   0  0  0  0  0  2  0  0  0  0  0  0
  187.5770  177.3010  139.3990 C   0  0  0  0  0  2  0  0  0  0  0  0
  185.3270  179.3830  138.6490 O   0  0  0  0  0  0  0  0  0  0  0  0
  180.9710  178.6210  142.6490 C   0  0  0  0  0  1  0  0  0  0  0  0
  185.9530  178.5640  140.7620 N   0  0  0  0  0  0  0  0  0  0  0  0
  183.1780  178.7650  141.4000 C   0  0  0  0  0  0  0  0  0  0  0  0
  192.3970  175.7120  136.6100 C   0  0  0  0  0  2  0  0  0  0  0  0
  193.8490  176.0130  136.7550 C   0  0  0  0  0  0  0  0  0  0  0  0
  194.5980  175.3650  137.7280 O   0  0  0  0  0  1  0  0  0  0  0  0
  194.4030  176.8320  135.9770 O   0  0  0  0  0  0  0  0  0  0  0  0
  1 10  1  0  0  0  0
  2 24  1  6  0  0  0
  2 27  1  0  0  0  0
  2 12  1  0  0  0  0
  3  4  1  0  0  0  0
  5  6  1  0  0  0  0
  5 27  1  0  0  0  0
  6 28  2  0  0  0  0
  7 24  1  1  0  0  0
  7 17  1  0  0  0  0
  8 12  1  0  0  0  0
  9 26  1  0  0  0  0
 11  3  2  0  0  0  0
 12 13  2  0  0  0  0
 13 22  1  0  0  0  0
 13 11  1  0  0  0  0
 14 23  1  0  0  0  0
 14 22  2  0  0  0  0
 15  9  1  0  0  0  0
 16 20  1  0  0  0  0
 16 19  1  0  0  0  0
 17 10  1  6  0  0  0
 17  8  1  0  0  0  0
 18  6  1  0  0  0  0
 18 15  2  0  0  0  0
 19  7  1  0  0  0  0
 20 29  1  6  0  0  0
 20  1  1  0  0  0  0
 21  4  2  0  0  0  0
 22 21  1  0  0  0  0
 25  5  2  0  0  0  0
 27 14  1  0  0  0  0
 28  9  1  0  0  0  0
 28 23  1  0  0  0  0
 29 30  1  0  0  0  0
 30 31  1  0  0  0  0
 32 30  2  0  0  0  0
M  END
>  <MODEL>
5

>  <REMARK>
 VINA RESULT:      -9.3      3.732      6.505
  Name = 
  2 active torsions:
  status: ('A' for Active; 'I' for Inactive)
    1  A    between atoms: C_1  and  C_10
    2  A    between atoms: C_10  and  C_24
                            x       y       z     vdW  Elec       q    Type
                         _______ _______ _______ _____ _____    ______ ____

>  <TORSDO>
F 2

$$$$
=
 OpenBabel11052416463D

 32 37  0  0  1  0  0  0  0  0999 V2000
  182.0630  177.9080  138.2370 O   0  0  0  0  0  0  0  0  0  0  0  0
  185.2250  178.8180  142.2400 C   0  0  1  0  0  3  0  0  0  0  0  0
  189.1870  177.7120  139.5110 C   0  0  0  0  0  3  0  0  0  0  0  0
  189.8470  177.2300  140.6380 C   0  0  0  0  0  3  0  0  0  0  0  0
  185.5350  178.7480  144.7250 C   0  0  0  0  0  0  0  0  0  0  0  0
  186.3500  178.3920  145.8830 C   0  0  0  0  0  0  0  0  0  0  0  0
  183.1670  178.2990  140.9040 C   0  0  1  0  0  3  0  0  0  0  0  0
  185.2230  179.2030  139.7350 C   0  0  0  0  0  2  0  0  0  0  0  0
  188.0330  177.5540  147.0470 N   0  0  0  0  0  0  0  0  0  0  0  0
  183.1560  178.7660  138.4200 C   0  0  0  0  0  2  0  0  0  0  0  0
  187.9050  178.2450  139.6310 C   0  0  0  0  0  3  0  0  0  0  0  0
  186.0050  178.8050  140.9540 C   0  0  0  0  0  0  0  0  0  0  0  0
  187.2560  178.3080  140.8780 C   0  0  0  0  0  0  0  0  0  0  0  0
  187.3560  177.8780  143.2520 C   0  0  0  0  0  0  0  0  0  0  0  0
  187.1970  178.0510  148.0610 N   0  0  0  0  0  0  0  0  0  0  0  0
  180.9830  178.2000  140.4040 C   0  0  0  0  0  2  0  0  0  0  0  0
  183.9990  178.2960  139.6020 C   0  0  2  0  0  3  0  0  0  0  0  0
  186.0550  178.6260  147.3270 C   0  0  0  0  0  3  0  0  0  0  0  0
  182.0860  177.4150  140.7800 O   0  0  0  0  0  0  0  0  0  0  0  0
  180.9850  178.5200  138.8980 C   0  0  2  0  0  3  0  0  0  0  0  0
  189.2240  177.2850  141.8840 C   0  0  0  0  0  3  0  0  0  0  0  0
  187.9300  177.8220  142.0310 C   0  0  0  0  0  0  0  0  0  0  0  0
  188.0870  177.3210  144.4660 C   0  0  0  0  0  2  0  0  0  0  0  0
  184.0270  177.8790  142.0980 C   0  0  0  0  0  2  0  0  0  0  0  0
  184.4170  179.3080  144.8850 O   0  0  0  0  0  0  0  0  0  0  0  0
  189.2870  176.8750  147.3190 C   0  0  0  0  0  1  0  0  0  0  0  0
  186.0370  178.4590  143.4070 N   0  0  0  0  0  0  0  0  0  0  0  0
  187.4960  177.7860  145.7650 C   0  0  0  0  0  0  0  0  0  0  0  0
  179.6710  178.0650  138.2860 C   0  0  0  0  0  2  0  0  0  0  0  0
  179.7870  176.6710  137.7740 C   0  0  0  0  0  0  0  0  0  0  0  0
  179.7680  175.6010  138.6590 O   0  0  0  0  0  1  0  0  0  0  0  0
  179.8720  176.4610  136.5360 O   0  0  0  0  0  0  0  0  0  0  0  0
  1 10  1  0  0  0  0
  1 20  1  0  0  0  0
  2 24  1  6  0  0  0
  2 27  1  0  0  0  0
  3 11  2  0  0  0  0
  3  4  1  0  0  0  0
  4 21  2  0  0  0  0
  5 25  2  0  0  0  0
  5  6  1  0  0  0  0
  6 18  1  0  0  0  0
  7 24  1  1  0  0  0
  8 12  1  0  0  0  0
  9 26  1  0  0  0  0
  9 15  1  0  0  0  0
 11 13  1  0  0  0  0
 12  2  1  0  0  0  0
 13 12  2  0  0  0  0
 13 22  1  0  0  0  0
 14 27  1  0  0  0  0
 14 23  1  0  0  0  0
 16 19  1  0  0  0  0
 17 10  1  6  0  0  0
 17  8  1  0  0  0  0
 17  7  1  0  0  0  0
 18 15  2  0  0  0  0
 19  7  1  0  0  0  0
 20 29  1  6  0  0  0
 20 16  1  0  0  0  0
 21 22  1  0  0  0  0
 22 14  2  0  0  0  0
 23 28  1  0  0  0  0
 27  5  1  0  0  0  0
 28  6  2  0  0  0  0
 28  9  1  0  0  0  0
 30 29  1  0  0  0  0
 30 31  1  0  0  0  0
 32 30  2  0  0  0  0
M  END
>  <MODEL>
6

>  <REMARK>
 VINA RESULT:      -9.3      3.633      8.861
  Name = 
  2 active torsions:
  status: ('A' for Active; 'I' for Inactive)
    1  A    between atoms: C_1  and  C_10
    2  A    between atoms: C_10  and  C_24
                            x       y       z     vdW  Elec       q    Type
                         _______ _______ _______ _____ _____    ______ ____

>  <TORSDO>
F 2

$$$$
=
 OpenBabel11052416463D

 32 37  0  0  1  0  0  0  0  0999 V2000
  183.5270  179.2220  144.4970 O   0  0  0  0  0  0  0  0  0  0  0  0
  187.7970  177.1440  142.4210 C   0  0  1  0  0  3  0  0  0  0  0  0
  190.1150  177.2680  146.7780 C   0  0  0  0  0  3  0  0  0  0  0  0
  191.3370  177.4540  146.1390 C   0  0  0  0  0  3  0  0  0  0  0  0
  189.2550  176.9350  140.3950 C   0  0  0  0  0  0  0  0  0  0  0  0
  190.5850  176.9530  139.7930 C   0  0  0  0  0  0  0  0  0  0  0  0
  185.5990  178.3310  142.6530 C   0  0  1  0  0  3  0  0  0  0  0  0
  186.4950  176.9660  144.5890 C   0  0  0  0  0  2  0  0  0  0  0  0
  192.7780  177.1820  139.6340 N   0  0  0  0  0  0  0  0  0  0  0  0
  184.2770  178.0760  144.7920 C   0  0  0  0  0  2  0  0  0  0  0  0
  188.9520  177.1190  146.0250 C   0  0  0  0  0  3  0  0  0  0  0  0
  187.8380  177.0290  143.9200 C   0  0  0  0  0  0  0  0  0  0  0  0
  188.9860  177.1500  144.6180 C   0  0  0  0  0  0  0  0  0  0  0  0
  190.3210  177.3540  142.6160 C   0  0  0  0  0  0  0  0  0  0  0  0
  192.4210  176.8720  138.3110 N   0  0  0  0  0  0  0  0  0  0  0  0
  183.5740  179.0900  142.0620 C   0  0  0  0  0  2  0  0  0  0  0  0
  185.6750  178.1930  144.1900 C   0  0  2  0  0  3  0  0  0  0  0  0
  190.9580  176.7060  138.3690 C   0  0  0  0  0  3  0  0  0  0  0  0
  184.8960  179.4950  142.3140 O   0  0  0  0  0  0  0  0  0  0  0  0
  182.7690  178.8980  143.3590 C   0  0  2  0  0  3  0  0  0  0  0  0
  191.3950  177.4870  144.7460 C   0  0  0  0  0  3  0  0  0  0  0  0
  190.2340  177.3340  143.9630 C   0  0  0  0  0  0  0  0  0  0  0  0
  191.6650  177.5840  141.9390 C   0  0  0  0  0  2  0  0  0  0  0  0
  187.0030  178.3950  142.0460 C   0  0  0  0  0  2  0  0  0  0  0  0
  188.2400  176.7090  139.6820 O   0  0  0  0  0  0  0  0  0  0  0  0
  194.1460  177.4500  140.0410 C   0  0  0  0  0  1  0  0  0  0  0  0
  189.1290  177.1660  141.8110 N   0  0  0  0  0  0  0  0  0  0  0  0
  191.6560  177.2120  140.4850 C   0  0  0  0  0  0  0  0  0  0  0  0
  181.5160  179.7560  143.3060 C   0  0  0  0  0  2  0  0  0  0  0  0
  180.3200  178.9180  143.0100 C   0  0  0  0  0  0  0  0  0  0  0  0
  179.7300  178.1690  144.0180 O   0  0  0  0  0  1  0  0  0  0  0  0
  179.8270  178.9130  141.8520 O   0  0  0  0  0  0  0  0  0  0  0  0
  1 10  1  0  0  0  0
  2 24  1  1  0  0  0
  2 12  1  0  0  0  0
  4  3  1  0  0  0  0
  5 27  1  0  0  0  0
  6  5  1  0  0  0  0
  6 28  2  0  0  0  0
  7 24  1  1  0  0  0
  7 17  1  0  0  0  0
  9 26  1  0  0  0  0
  9 28  1  0  0  0  0
 11  3  2  0  0  0  0
 12  8  1  0  0  0  0
 12 13  2  0  0  0  0
 13 11  1  0  0  0  0
 14 22  2  0  0  0  0
 15 18  2  0  0  0  0
 15  9  1  0  0  0  0
 16 19  1  0  0  0  0
 16 20  1  0  0  0  0
 17  8  1  6  0  0  0
 17 10  1  0  0  0  0
 18  6  1  0  0  0  0
 19  7  1  0  0  0  0
 20 29  1  6  0  0  0
 20  1  1  0  0  0  0
 21  4  2  0  0  0  0
 22 13  1  0  0  0  0
 22 21  1  0  0  0  0
 23 14  1  0  0  0  0
 25  5  2  0  0  0  0
 27  2  1  0  0  0  0
 27 14  1  0  0  0  0
 28 23  1  0  0  0  0
 30 29  1  0  0  0  0
 30 31  1  0  0  0  0
 32 30  2  0  0  0  0
M  END
>  <MODEL>
7

>  <REMARK>
 VINA RESULT:      -9.1      3.916      7.367
  Name = 
  2 active torsions:
  status: ('A' for Active; 'I' for Inactive)
    1  A    between atoms: C_1  and  C_10
    2  A    between atoms: C_10  and  C_24
                            x       y       z     vdW  Elec       q    Type
                         _______ _______ _______ _____ _____    ______ ____

>  <TORSDO>
F 2

$$$$
=
 OpenBabel11052416463D

 32 37  0  0  1  0  0  0  0  0999 V2000
  189.9230  176.3800  145.5100 O   0  0  0  0  0  0  0  0  0  0  0  0
  188.7540  178.0830  140.7580 C   0  0  1  0  0  3  0  0  0  0  0  0
  184.0960  179.0060  142.1090 C   0  0  0  0  0  3  0  0  0  0  0  0
  183.6510  178.7220  140.8210 C   0  0  0  0  0  3  0  0  0  0  0  0
  189.1750  177.8840  138.2970 C   0  0  0  0  0  0  0  0  0  0  0  0
  188.6590  177.7750  136.9350 C   0  0  0  0  0  0  0  0  0  0  0  0
  189.9130  176.9070  142.6450 C   0  0  1  0  0  3  0  0  0  0  0  0
  188.1950  178.6960  143.1530 C   0  0  0  0  0  2  0  0  0  0  0  0
  187.1960  177.5880  135.2880 N   0  0  0  0  0  0  0  0  0  0  0  0
  189.4030  177.5880  145.0250 C   0  0  0  0  0  2  0  0  0  0  0  0
  185.4570  178.9460  142.4030 C   0  0  0  0  0  3  0  0  0  0  0  0
  187.7080  178.5300  141.7420 C   0  0  0  0  0  0  0  0  0  0  0  0
  186.4010  178.6040  141.4170 C   0  0  0  0  0  0  0  0  0  0  0  0
  186.8180  178.0040  139.1150 C   0  0  0  0  0  0  0  0  0  0  0  0
  188.4170  177.5850  134.5940 N   0  0  0  0  0  0  0  0  0  0  0  0
  191.5990  175.9690  143.7880 C   0  0  0  0  0  2  0  0  0  0  0  0
  188.8210  177.3850  143.6280 C   0  0  2  0  0  3  0  0  0  0  0  0
  189.4300  177.7120  135.6580 C   0  0  0  0  0  3  0  0  0  0  0  0
  190.4290  175.6740  143.0700 O   0  0  0  0  0  0  0  0  0  0  0  0
  191.2990  176.4190  145.2290 C   0  0  2  0  0  3  0  0  0  0  0  0
  184.5690  178.3830  139.8280 C   0  0  0  0  0  3  0  0  0  0  0  0
  185.9490  178.3200  140.0990 C   0  0  0  0  0  0  0  0  0  0  0  0
  186.3050  177.6730  137.7200 C   0  0  0  0  0  2  0  0  0  0  0  0
  189.3410  176.7550  141.2340 C   0  0  0  0  0  2  0  0  0  0  0  0
  190.4180  177.9130  138.5020 O   0  0  0  0  0  0  0  0  0  0  0  0
  185.9100  177.4620  134.6260 C   0  0  0  0  0  1  0  0  0  0  0  0
  188.2410  177.9700  139.3890 N   0  0  0  0  0  0  0  0  0  0  0  0
  187.3850  177.7130  136.6790 C   0  0  0  0  0  0  0  0  0  0  0  0
  192.0560  175.5300  146.2010 C   0  0  0  0  0  2  0  0  0  0  0  0
  192.1470  176.1780  147.5400 C   0  0  0  0  0  0  0  0  0  0  0  0
  191.4800  177.3710  147.7810 O   0  0  0  0  0  0  0  0  0  0  0  0
  192.8050  175.6280  148.4600 O   0  0  0  0  0  1  0  0  0  0  0  0
  2 24  1  1  0  0  0
  2 12  1  0  0  0  0
  3 11  2  0  0  0  0
  4  3  1  0  0  0  0
  5 25  2  0  0  0  0
  5 27  1  0  0  0  0
  6  5  1  0  0  0  0
  7 24  1  6  0  0  0
  7 19  1  0  0  0  0
  7 17  1  0  0  0  0
  9 28  1  0  0  0  0
 10  1  1  0  0  0  0
 12  8  1  0  0  0  0
 13 12  2  0  0  0  0
 13 11  1  0  0  0  0
 14 27  1  0  0  0  0
 14 22  2  0  0  0  0
 15  9  1  0  0  0  0
 15 18  2  0  0  0  0
 16 20  1  0  0  0  0
 17  8  1  6  0  0  0
 17 10  1  0  0  0  0
 18  6  1  0  0  0  0
 19 16  1  0  0  0  0
 20  1  1  0  0  0  0
 20 29  1  1  0  0  0
 21 22  1  0  0  0  0
 21  4  2  0  0  0  0
 22 13  1  0  0  0  0
 23 14  1  0  0  0  0
 26  9  1  0  0  0  0
 27  2  1  0  0  0  0
 28  6  2  0  0  0  0
 28 23  1  0  0  0  0
 29 30  1  0  0  0  0
 30 31  2  0  0  0  0
 30 32  1  0  0  0  0
M  END
>  <MODEL>
8

>  <REMARK>
 VINA RESULT:      -8.7      2.171      3.126
  Name = 
  2 active torsions:
  status: ('A' for Active; 'I' for Inactive)
    1  A    between atoms: C_1  and  C_10
    2  A    between atoms: C_10  and  C_24
                            x       y       z     vdW  Elec       q    Type
                         _______ _______ _______ _____ _____    ______ ____

>  <TORSDO>
F 2

$$$$
=
 OpenBabel11052416463D

 32 37  0  0  1  0  0  0  0  0999 V2000
  179.6750  181.6880  138.9840 O   0  0  0  0  0  0  0  0  0  0  0  0
  183.9050  178.8030  139.7850 C   0  0  1  0  0  3  0  0  0  0  0  0
  183.0590  178.7080  144.6480 C   0  0  0  0  0  3  0  0  0  0  0  0
  184.4270  178.6480  144.8990 C   0  0  0  0  0  3  0  0  0  0  0  0
  186.2360  178.2530  139.0550 C   0  0  0  0  0  0  0  0  0  0  0  0
  187.6370  178.0110  139.3880 C   0  0  0  0  0  0  0  0  0  0  0  0
  182.2580  180.3670  138.7200 C   0  0  1  0  0  3  0  0  0  0  0  0
  181.5430  178.9510  140.6940 C   0  0  0  0  0  2  0  0  0  0  0  0
  189.4700  177.8430  140.6120 N   0  0  0  0  0  0  0  0  0  0  0  0
  179.8860  180.4420  139.5880 C   0  0  0  0  0  2  0  0  0  0  0  0
  182.5940  178.7320  143.3340 C   0  0  0  0  0  3  0  0  0  0  0  0
  183.0020  178.7480  140.9870 C   0  0  0  0  0  0  0  0  0  0  0  0
  183.4840  178.6960  142.2450 C   0  0  0  0  0  0  0  0  0  0  0  0
  185.7750  178.5740  141.4880 C   0  0  0  0  0  0  0  0  0  0  0  0
  189.9510  177.5430  139.3260 N   0  0  0  0  0  0  0  0  0  0  0  0
  181.1760  181.4440  137.0770 C   0  0  0  0  0  2  0  0  0  0  0  0
  181.3550  180.2850  139.9710 C   0  0  2  0  0  3  0  0  0  0  0  0
  188.7550  177.6400  138.4710 C   0  0  0  0  0  3  0  0  0  0  0  0
  182.1130  181.6210  138.1100 O   0  0  0  0  0  0  0  0  0  0  0  0
  179.7290  181.4530  137.5990 C   0  0  2  0  0  3  0  0  0  0  0  0
  185.3270  178.6090  143.8350 C   0  0  0  0  0  3  0  0  0  0  0  0
  184.8820  178.6290  142.5000 C   0  0  0  0  0  0  0  0  0  0  0  0
  187.2670  178.5350  141.7880 C   0  0  0  0  0  2  0  0  0  0  0  0
  183.7260  180.1570  139.0980 C   0  0  0  0  0  2  0  0  0  0  0  0
  185.8490  178.1780  137.8570 O   0  0  0  0  0  0  0  0  0  0  0  0
  190.3250  177.8840  141.7850 C   0  0  0  0  0  1  0  0  0  0  0  0
  185.3130  178.5640  140.1140 N   0  0  0  0  0  0  0  0  0  0  0  0
  188.0860  178.1070  140.6060 C   0  0  0  0  0  0  0  0  0  0  0  0
  178.9340  182.5150  136.8590 C   0  0  0  0  0  2  0  0  0  0  0  0
  179.7290  183.7670  136.7250 C   0  0  0  0  0  0  0  0  0  0  0  0
  180.2910  184.1060  135.5020 O   0  0  0  0  0  0  0  0  0  0  0  0
  179.8670  184.5330  137.7140 O   0  0  0  0  0  1  0  0  0  0  0  0
  1 10  1  0  0  0  0
  2 24  1  1  0  0  0
  2 27  1  0  0  0  0
  2 12  1  0  0  0  0
  3  4  1  0  0  0  0
  5  6  1  0  0  0  0
  5 27  1  0  0  0  0
  6 28  2  0  0  0  0
  7 24  1  1  0  0  0
  7 17  1  0  0  0  0
  8 12  1  0  0  0  0
  9 26  1  0  0  0  0
 11  3  2  0  0  0  0
 12 13  2  0  0  0  0
 13 22  1  0  0  0  0
 13 11  1  0  0  0  0
 14 23  1  0  0  0  0
 14 22  2  0  0  0  0
 15  9  1  0  0  0  0
 16 20  1  0  0  0  0
 16 19  1  0  0  0  0
 17 10  1  6  0  0  0
 17  8  1  0  0  0  0
 18 15  2  0  0  0  0
 18  6  1  0  0  0  0
 19  7  1  0  0  0  0
 20 29  1  6  0  0  0
 20  1  1  0  0  0  0
 21  4  2  0  0  0  0
 22 21  1  0  0  0  0
 25  5  2  0  0  0  0
 27 14  1  0  0  0  0
 28  9  1  0  0  0  0
 28 23  1  0  0  0  0
 30 29  1  0  0  0  0
 30 32  1  0  0  0  0
 31 30  2  0  0  0  0
M  END
>  <MODEL>
9

>  <REMARK>
 VINA RESULT:      -8.5      4.271      8.440
  Name = 
  2 active torsions:
  status: ('A' for Active; 'I' for Inactive)
    1  A    between atoms: C_1  and  C_10
    2  A    between atoms: C_10  and  C_24
                            x       y       z     vdW  Elec       q    Type
                         _______ _______ _______ _____ _____    ______ ____

>  <TORSDO>
F 2

$$$$
