=
 OpenBabel11052412443D

 25 28  0  0  1  0  0  0  0  0999 V2000
  189.0630  176.7660  145.5310 C   0  0  2  0  0  3  0  0  0  0  0  0
  187.7090  177.3800  145.3330 C   0  0  0  0  0  0  0  0  0  0  0  0
  187.7760  178.4200  148.6740 O   0  0  0  0  0  0  0  0  0  0  0  0
  188.0730  177.9240  147.5550 C   0  0  0  0  0  0  0  0  0  0  0  0
  185.8640  178.5830  146.3410 C   0  0  0  0  0  0  0  0  0  0  0  0
  185.3510  179.1250  147.3550 O   0  0  0  0  0  0  0  0  0  0  0  0
  186.9360  177.2320  144.0480 C   0  0  0  0  0  2  0  0  0  0  0  0
  189.6210  177.0990  147.2510 S   0  0  0  0  0  0  0  0  0  0  0  0
  185.1540  178.5730  145.0990 N   0  0  0  0  0  0  0  0  0  0  0  0
  185.6340  178.0060  144.0270 C   0  0  0  0  0  0  0  0  0  0  0  0
  187.1960  177.9670  146.4010 C   0  0  0  0  0  0  0  0  0  0  0  0
  190.0680  177.2370  144.5170 C   0  0  0  0  0  0  0  0  0  0  0  0
  191.9570  178.2370  142.6980 C   0  0  0  0  0  3  0  0  0  0  0  0
  190.4480  176.4700  143.3920 C   0  0  0  0  0  0  0  0  0  0  0  0
  191.3880  176.9780  142.4900 C   0  0  0  0  0  3  0  0  0  0  0  0
  191.5860  178.9960  143.8100 C   0  0  0  0  0  3  0  0  0  0  0  0
  189.8980  175.1770  143.1570 N   0  0  0  0  0  1  0  0  0  0  0  0
  190.6450  178.4960  144.7140 C   0  0  0  0  0  3  0  0  0  0  0  0
  184.8200  177.9970  142.7570 C   0  0  2  0  0  3  0  0  0  0  0  0
  185.5750  178.3650  141.5230 N   0  0  0  0  0  0  0  0  0  0  0  0
  184.6770  179.3300  142.1710 C   0  0  0  0  0  2  0  0  0  0  0  0
  186.8800  178.8040  141.8130 N   0  0  0  0  0  2  0  0  0  0  0  0
  189.0760  179.1380  141.1350 O   0  0  0  0  0  0  0  0  0  0  0  0
  187.7200  177.9890  139.5600 C   0  0  0  0  0  1  0  0  0  0  0  0
  187.9390  178.6730  140.8640 C   0  0  0  0  0  0  0  0  0  0  0  0
  1 12  1  6  0  0  0
  1  8  1  0  0  0  0
  2  1  1  0  0  0  0
  2 11  2  0  0  0  0
  4  3  2  0  0  0  0
  5 11  1  0  0  0  0
  5  6  2  0  0  0  0
  7  2  1  0  0  0  0
  8  4  1  0  0  0  0
  9  5  1  0  0  0  0
 10  7  1  0  0  0  0
 10  9  2  0  0  0  0
 11  4  1  0  0  0  0
 12 18  1  0  0  0  0
 13 16  1  0  0  0  0
 14 12  2  0  0  0  0
 15 13  2  0  0  0  0
 15 14  1  0  0  0  0
 16 18  2  0  0  0  0
 17 14  1  0  0  0  0
 19 10  1  1  0  0  0
 20 22  1  0  0  0  0
 20 21  1  0  0  0  0
 20 19  1  0  0  0  0
 21 19  1  0  0  0  0
 24 25  1  0  0  0  0
 25 23  2  0  0  0  0
 25 22  1  0  0  0  0
M  END
>  <MODEL>
1

>  <REMARK>
 VINA RESULT:      -8.3      0.000      0.000
  Name = 
  3 active torsions:
  status: ('A' for Active; 'I' for Inactive)
    1  A    between atoms: C_1  and  C_5
    2  A    between atoms: N_2  and  N_15
    3  A    between atoms: C_6  and  C_23
                            x       y       z     vdW  Elec       q    Type
                         _______ _______ _______ _____ _____    ______ ____

>  <TORSDO>
F 3

$$$$
=
 OpenBabel11052412443D

 25 28  0  0  1  0  0  0  0  0999 V2000
  186.3150  177.2950  144.9890 C   0  0  2  0  0  3  0  0  0  0  0  0
  187.0420  177.4300  143.6840 C   0  0  0  0  0  0  0  0  0  0  0  0
  184.4950  179.5570  142.5730 O   0  0  0  0  0  0  0  0  0  0  0  0
  185.2160  178.7940  143.2670 C   0  0  0  0  0  0  0  0  0  0  0  0
  187.0510  178.3920  141.4620 C   0  0  0  0  0  0  0  0  0  0  0  0
  186.4890  179.1040  140.5890 O   0  0  0  0  0  0  0  0  0  0  0  0
  188.2900  176.6470  143.3720 C   0  0  0  0  0  2  0  0  0  0  0  0
  184.8050  178.3430  144.9400 S   0  0  0  0  0  0  0  0  0  0  0  0
  188.3040  177.7640  141.1740 N   0  0  0  0  0  0  0  0  0  0  0  0
  188.9150  177.0000  142.0380 C   0  0  0  0  0  0  0  0  0  0  0  0
  186.4500  178.2020  142.7880 C   0  0  0  0  0  0  0  0  0  0  0  0
  187.1830  177.6220  146.1730 C   0  0  0  0  0  0  0  0  0  0  0  0
  188.9080  178.1550  148.3220 C   0  0  0  0  0  3  0  0  0  0  0  0
  186.7390  178.4000  147.2660 C   0  0  0  0  0  0  0  0  0  0  0  0
  187.6050  178.6590  148.3330 C   0  0  0  0  0  3  0  0  0  0  0  0
  189.3510  177.3880  147.2430 C   0  0  0  0  0  3  0  0  0  0  0  0
  185.4210  178.9410  147.3030 N   0  0  0  0  0  1  0  0  0  0  0  0
  188.4900  177.1230  146.1740 C   0  0  0  0  0  3  0  0  0  0  0  0
  190.2150  176.3370  141.6610 C   0  0  2  0  0  3  0  0  0  0  0  0
  191.4420  177.1130  142.0110 N   0  0  0  0  0  0  0  0  0  0  0  0
  190.9450  177.0740  140.6290 C   0  0  0  0  0  2  0  0  0  0  0  0
  191.1350  178.3990  142.4920 N   0  0  0  0  0  2  0  0  0  0  0  0
  191.1180  179.9320  144.2360 O   0  0  0  0  0  0  0  0  0  0  0  0
  191.8130  177.7460  144.8500 C   0  0  0  0  0  1  0  0  0  0  0  0
  191.3410  178.7520  143.8600 C   0  0  0  0  0  0  0  0  0  0  0  0
  1 12  1  1  0  0  0
  2  1  1  0  0  0  0
  3  4  2  0  0  0  0
  4  8  1  0  0  0  0
  5 11  1  0  0  0  0
  6  5  2  0  0  0  0
  7  2  1  0  0  0  0
  8  1  1  0  0  0  0
  9  5  1  0  0  0  0
  9 10  2  0  0  0  0
 10  7  1  0  0  0  0
 11  4  1  0  0  0  0
 11  2  2  0  0  0  0
 12 18  2  0  0  0  0
 12 14  1  0  0  0  0
 13 15  1  0  0  0  0
 14 17  1  0  0  0  0
 14 15  2  0  0  0  0
 16 13  2  0  0  0  0
 18 16  1  0  0  0  0
 19 20  1  0  0  0  0
 19 10  1  1  0  0  0
 20 22  1  0  0  0  0
 21 19  1  0  0  0  0
 21 20  1  0  0  0  0
 22 25  1  0  0  0  0
 25 23  2  0  0  0  0
 25 24  1  0  0  0  0
M  END
>  <MODEL>
2

>  <REMARK>
 VINA RESULT:      -8.0      2.410      5.208
  Name = 
  3 active torsions:
  status: ('A' for Active; 'I' for Inactive)
    1  A    between atoms: C_1  and  C_5
    2  A    between atoms: N_2  and  N_15
    3  A    between atoms: C_6  and  C_23
                            x       y       z     vdW  Elec       q    Type
                         _______ _______ _______ _____ _____    ______ ____

>  <TORSDO>
F 3

$$$$
=
 OpenBabel11052412443D

 25 28  0  0  1  0  0  0  0  0999 V2000
  185.8730  177.5510  143.7780 C   0  0  2  0  0  3  0  0  0  0  0  0
  187.0070  177.5230  142.7970 C   0  0  0  0  0  0  0  0  0  0  0  0
  185.1830  179.6900  140.7420 O   0  0  0  0  0  0  0  0  0  0  0  0
  185.5580  178.9510  141.6900 C   0  0  0  0  0  0  0  0  0  0  0  0
  187.8520  178.2780  140.6560 C   0  0  0  0  0  0  0  0  0  0  0  0
  187.6830  178.9410  139.5990 O   0  0  0  0  0  0  0  0  0  0  0  0
  188.2150  176.6410  142.9840 C   0  0  0  0  0  2  0  0  0  0  0  0
  184.5670  178.6790  143.1440 S   0  0  0  0  0  0  0  0  0  0  0  0
  189.0680  177.5530  140.8580 N   0  0  0  0  0  0  0  0  0  0  0  0
  189.2820  176.8340  141.9260 C   0  0  0  0  0  0  0  0  0  0  0  0
  186.8240  178.2450  141.7040 C   0  0  0  0  0  0  0  0  0  0  0  0
  186.3140  177.9300  145.1640 C   0  0  0  0  0  0  0  0  0  0  0  0
  187.2670  178.5830  147.7220 C   0  0  0  0  0  3  0  0  0  0  0  0
  185.4630  178.5560  146.1020 C   0  0  0  0  0  0  0  0  0  0  0  0
  185.9460  178.8760  147.3750 C   0  0  0  0  0  3  0  0  0  0  0  0
  188.1120  177.9670  146.7970 C   0  0  0  0  0  3  0  0  0  0  0  0
  184.1150  178.8810  145.7760 N   0  0  0  0  0  1  0  0  0  0  0  0
  187.6360  177.6420  145.5240 C   0  0  0  0  0  3  0  0  0  0  0  0
  190.5700  176.0620  142.0630 C   0  0  2  0  0  3  0  0  0  0  0  0
  191.6970  176.8230  142.6800 N   0  0  0  0  0  0  0  0  0  0  0  0
  191.6420  176.6030  141.2280 C   0  0  0  0  0  2  0  0  0  0  0  0
  191.3760  178.1790  142.8740 N   0  0  0  0  0  2  0  0  0  0  0  0
  191.0350  179.9690  144.3130 O   0  0  0  0  0  0  0  0  0  0  0  0
  191.3860  177.8850  145.3950 C   0  0  0  0  0  1  0  0  0  0  0  0
  191.2560  178.7380  144.1820 C   0  0  0  0  0  0  0  0  0  0  0  0
  1 12  1  1  0  0  0
  2  7  1  0  0  0  0
  2  1  1  0  0  0  0
  3  4  2  0  0  0  0
  4 11  1  0  0  0  0
  4  8  1  0  0  0  0
  5  9  1  0  0  0  0
  5 11  1  0  0  0  0
  6  5  2  0  0  0  0
  8  1  1  0  0  0  0
  9 10  2  0  0  0  0
 10  7  1  0  0  0  0
 11  2  2  0  0  0  0
 12 18  2  0  0  0  0
 12 14  1  0  0  0  0
 14 15  2  0  0  0  0
 15 13  1  0  0  0  0
 16 13  2  0  0  0  0
 17 14  1  0  0  0  0
 18 16  1  0  0  0  0
 19 10  1  6  0  0  0
 19 20  1  0  0  0  0
 20 22  1  0  0  0  0
 21 19  1  0  0  0  0
 21 20  1  0  0  0  0
 22 25  1  0  0  0  0
 25 23  2  0  0  0  0
 25 24  1  0  0  0  0
M  END
>  <MODEL>
3

>  <REMARK>
 VINA RESULT:      -7.8      2.637      5.808
  Name = 
  3 active torsions:
  status: ('A' for Active; 'I' for Inactive)
    1  A    between atoms: C_1  and  C_5
    2  A    between atoms: N_2  and  N_15
    3  A    between atoms: C_6  and  C_23
                            x       y       z     vdW  Elec       q    Type
                         _______ _______ _______ _____ _____    ______ ____

>  <TORSDO>
F 3

$$$$
=
 OpenBabel11052412443D

 25 28  0  0  1  0  0  0  0  0999 V2000
  188.5930  176.8510  145.0060 C   0  0  2  0  0  3  0  0  0  0  0  0
  187.3590  177.6270  144.6540 C   0  0  0  0  0  0  0  0  0  0  0  0
  186.8510  178.2200  148.0650 O   0  0  0  0  0  0  0  0  0  0  0  0
  187.3210  177.8420  146.9600 C   0  0  0  0  0  0  0  0  0  0  0  0
  185.4550  178.8830  145.4700 C   0  0  0  0  0  0  0  0  0  0  0  0
  184.7990  179.3440  146.4400 O   0  0  0  0  0  0  0  0  0  0  0  0
  186.8440  177.7270  143.2410 C   0  0  0  0  0  2  0  0  0  0  0  0
  188.8270  176.9010  146.8290 S   0  0  0  0  0  0  0  0  0  0  0  0
  185.0050  179.1070  144.1310 N   0  0  0  0  0  0  0  0  0  0  0  0
  185.6390  178.6320  143.0930 C   0  0  0  0  0  0  0  0  0  0  0  0
  186.6940  178.1250  145.6830 C   0  0  0  0  0  0  0  0  0  0  0  0
  189.8130  177.3370  144.2720 C   0  0  0  0  0  0  0  0  0  0  0  0
  192.0820  178.3640  142.9800 C   0  0  0  0  0  3  0  0  0  0  0  0
  190.4660  176.5810  143.2740 C   0  0  0  0  0  0  0  0  0  0  0  0
  191.5950  177.1020  142.6340 C   0  0  0  0  0  3  0  0  0  0  0  0
  191.4410  179.1140  143.9680 C   0  0  0  0  0  3  0  0  0  0  0  0
  190.0040  175.2840  142.9060 N   0  0  0  0  0  1  0  0  0  0  0  0
  190.3110  178.6010  144.6110 C   0  0  0  0  0  3  0  0  0  0  0  0
  185.0920  178.8720  141.7090 C   0  0  2  0  0  3  0  0  0  0  0  0
  183.6090  179.0340  141.6370 N   0  0  0  0  0  0  0  0  0  0  0  0
  184.2490  177.7730  141.2380 C   0  0  0  0  0  2  0  0  0  0  0  0
  182.9880  178.7730  142.8720 N   0  0  0  0  0  2  0  0  0  0  0  0
  181.0500  178.5780  144.1360 O   0  0  0  0  0  0  0  0  0  0  0  0
  180.7100  179.3630  141.9210 C   0  0  0  0  0  1  0  0  0  0  0  0
  181.5740  178.8850  143.0340 C   0  0  0  0  0  0  0  0  0  0  0  0
  1 12  1  6  0  0  0
  1  8  1  0  0  0  0
  2  1  1  0  0  0  0
  2 11  2  0  0  0  0
  4  3  2  0  0  0  0
  5 11  1  0  0  0  0
  5  6  2  0  0  0  0
  7  2  1  0  0  0  0
  8  4  1  0  0  0  0
  9  5  1  0  0  0  0
 10  7  1  0  0  0  0
 10  9  2  0  0  0  0
 11  4  1  0  0  0  0
 12 18  1  0  0  0  0
 13 16  1  0  0  0  0
 14 12  2  0  0  0  0
 15 13  2  0  0  0  0
 15 14  1  0  0  0  0
 16 18  2  0  0  0  0
 17 14  1  0  0  0  0
 19 10  1  1  0  0  0
 20 19  1  0  0  0  0
 20 22  1  0  0  0  0
 21 20  1  0  0  0  0
 21 19  1  0  0  0  0
 22 25  1  0  0  0  0
 24 25  1  0  0  0  0
 25 23  2  0  0  0  0
M  END
>  <MODEL>
4

>  <REMARK>
 VINA RESULT:      -7.8      1.920      2.918
  Name = 
  3 active torsions:
  status: ('A' for Active; 'I' for Inactive)
    1  A    between atoms: C_1  and  C_5
    2  A    between atoms: N_2  and  N_15
    3  A    between atoms: C_6  and  C_23
                            x       y       z     vdW  Elec       q    Type
                         _______ _______ _______ _____ _____    ______ ____

>  <TORSDO>
F 3

$$$$
=
 OpenBabel11052412443D

 25 28  0  0  1  0  0  0  0  0999 V2000
  184.9790  179.2980  142.6270 C   0  0  2  0  0  3  0  0  0  0  0  0
  186.0100  178.3940  143.2350 C   0  0  0  0  0  0  0  0  0  0  0  0
  184.5870  179.0100  146.3720 O   0  0  0  0  0  0  0  0  0  0  0  0
  184.8350  178.9980  145.1380 C   0  0  0  0  0  0  0  0  0  0  0  0
  186.9030  177.4180  145.2640 C   0  0  0  0  0  0  0  0  0  0  0  0
  186.8600  177.2980  146.5170 O   0  0  0  0  0  0  0  0  0  0  0  0
  187.1240  177.7810  142.4270 C   0  0  0  0  0  2  0  0  0  0  0  0
  183.8580  179.9000  143.9540 S   0  0  0  0  0  0  0  0  0  0  0  0
  187.8990  176.7200  144.5130 N   0  0  0  0  0  0  0  0  0  0  0  0
  187.9990  176.8290  143.2160 C   0  0  0  0  0  0  0  0  0  0  0  0
  185.9340  178.2580  144.5480 C   0  0  0  0  0  0  0  0  0  0  0  0
  184.2190  178.6410  141.5080 C   0  0  0  0  0  0  0  0  0  0  0  0
  182.6930  177.3900  139.5120 C   0  0  0  0  0  3  0  0  0  0  0  0
  184.7260  178.5220  140.1940 C   0  0  0  0  0  0  0  0  0  0  0  0
  183.9590  177.8950  139.2070 C   0  0  0  0  0  3  0  0  0  0  0  0
  182.1870  177.5090  140.8080 C   0  0  0  0  0  3  0  0  0  0  0  0
  186.0080  179.0370  139.8460 N   0  0  0  0  0  1  0  0  0  0  0  0
  182.9480  178.1320  141.8010 C   0  0  0  0  0  3  0  0  0  0  0  0
  189.0950  176.0950  142.4850 C   0  0  2  0  0  3  0  0  0  0  0  0
  190.3780  176.8470  142.3570 N   0  0  0  0  0  0  0  0  0  0  0  0
  189.4540  176.7350  141.2200 C   0  0  0  0  0  2  0  0  0  0  0  0
  190.2630  178.1730  142.8140 N   0  0  0  0  0  2  0  0  0  0  0  0
  190.8620  179.8260  144.3300 O   0  0  0  0  0  0  0  0  0  0  0  0
  191.7220  177.6700  144.8300 C   0  0  0  0  0  1  0  0  0  0  0  0
  190.9360  178.6160  143.9920 C   0  0  0  0  0  0  0  0  0  0  0  0
  1 12  1  6  0  0  0
  1  2  1  0  0  0  0
  1  8  1  0  0  0  0
  2 11  2  0  0  0  0
  4  3  2  0  0  0  0
  5  6  2  0  0  0  0
  7 10  1  0  0  0  0
  7  2  1  0  0  0  0
  8  4  1  0  0  0  0
  9  5  1  0  0  0  0
 10  9  2  0  0  0  0
 11  4  1  0  0  0  0
 11  5  1  0  0  0  0
 12 18  1  0  0  0  0
 13 16  1  0  0  0  0
 14 12  2  0  0  0  0
 15 13  2  0  0  0  0
 15 14  1  0  0  0  0
 16 18  2  0  0  0  0
 17 14  1  0  0  0  0
 19 10  1  1  0  0  0
 20 19  1  0  0  0  0
 20 22  1  0  0  0  0
 21 20  1  0  0  0  0
 21 19  1  0  0  0  0
 22 25  1  0  0  0  0
 25 23  2  0  0  0  0
 25 24  1  0  0  0  0
M  END
>  <MODEL>
5

>  <REMARK>
 VINA RESULT:      -7.3      2.577      5.636
  Name = 
  3 active torsions:
  status: ('A' for Active; 'I' for Inactive)
    1  A    between atoms: C_1  and  C_5
    2  A    between atoms: N_2  and  N_15
    3  A    between atoms: C_6  and  C_23
                            x       y       z     vdW  Elec       q    Type
                         _______ _______ _______ _____ _____    ______ ____

>  <TORSDO>
F 3

$$$$
=
 OpenBabel11052412443D

 25 28  0  0  1  0  0  0  0  0999 V2000
  187.8760  176.6640  143.5700 C   0  0  2  0  0  3  0  0  0  0  0  0
  187.7210  177.4050  142.2740 C   0  0  0  0  0  0  0  0  0  0  0  0
  184.7290  178.7530  143.4900 O   0  0  0  0  0  0  0  0  0  0  0  0
  185.8110  178.1190  143.3730 C   0  0  0  0  0  0  0  0  0  0  0  0
  186.3550  178.9020  140.9480 C   0  0  0  0  0  0  0  0  0  0  0  0
  185.3110  179.5950  140.8310 O   0  0  0  0  0  0  0  0  0  0  0  0
  188.6730  177.2200  141.1210 C   0  0  0  0  0  2  0  0  0  0  0  0
  186.4720  177.0990  144.6740 S   0  0  0  0  0  0  0  0  0  0  0  0
  187.3030  178.8510  139.8790 N   0  0  0  0  0  0  0  0  0  0  0  0
  188.3890  178.1300  139.9440 C   0  0  0  0  0  0  0  0  0  0  0  0
  186.6320  178.1480  142.1780 C   0  0  0  0  0  0  0  0  0  0  0  0
  189.2040  176.9170  144.2280 C   0  0  0  0  0  0  0  0  0  0  0  0
  191.6200  177.4930  145.5340 C   0  0  0  0  0  3  0  0  0  0  0  0
  190.3730  176.1890  143.9140 C   0  0  0  0  0  0  0  0  0  0  0  0
  191.5730  176.4850  144.5680 C   0  0  0  0  0  3  0  0  0  0  0  0
  190.4670  178.2120  145.8490 C   0  0  0  0  0  3  0  0  0  0  0  0
  190.3570  175.1450  142.9430 N   0  0  0  0  0  1  0  0  0  0  0  0
  189.2640  177.9250  145.1980 C   0  0  0  0  0  3  0  0  0  0  0  0
  189.3310  178.0890  138.7670 C   0  0  2  0  0  3  0  0  0  0  0  0
  188.8440  177.2970  137.5990 N   0  0  0  0  0  0  0  0  0  0  0  0
  189.8550  176.7470  138.5120 C   0  0  0  0  0  2  0  0  0  0  0  0
  187.6520  176.6070  137.8870 N   0  0  0  0  0  2  0  0  0  0  0  0
  185.5710  175.8370  137.2060 O   0  0  0  0  0  0  0  0  0  0  0  0
  186.6730  177.2270  135.6280 C   0  0  0  0  0  1  0  0  0  0  0  0
  186.5920  176.5200  136.9350 C   0  0  0  0  0  0  0  0  0  0  0  0
  1 12  1  1  0  0  0
  1  8  1  0  0  0  0
  2  1  1  0  0  0  0
  4  3  2  0  0  0  0
  4  8  1  0  0  0  0
  5 11  1  0  0  0  0
  6  5  2  0  0  0  0
  7  2  1  0  0  0  0
  9 10  2  0  0  0  0
  9  5  1  0  0  0  0
 10  7  1  0  0  0  0
 11  2  2  0  0  0  0
 11  4  1  0  0  0  0
 12 18  1  0  0  0  0
 13 16  1  0  0  0  0
 14 12  2  0  0  0  0
 14 15  1  0  0  0  0
 15 13  2  0  0  0  0
 17 14  1  0  0  0  0
 18 16  2  0  0  0  0
 19 10  1  1  0  0  0
 20 22  1  0  0  0  0
 20 21  1  0  0  0  0
 20 19  1  0  0  0  0
 21 19  1  0  0  0  0
 24 25  1  0  0  0  0
 25 23  2  0  0  0  0
 25 22  1  0  0  0  0
M  END
>  <MODEL>
6

>  <REMARK>
 VINA RESULT:      -7.2      2.802      4.384
  Name = 
  3 active torsions:
  status: ('A' for Active; 'I' for Inactive)
    1  A    between atoms: C_1  and  C_5
    2  A    between atoms: N_2  and  N_15
    3  A    between atoms: C_6  and  C_23
                            x       y       z     vdW  Elec       q    Type
                         _______ _______ _______ _____ _____    ______ ____

>  <TORSDO>
F 3

$$$$
=
 OpenBabel11052412443D

 25 28  0  0  1  0  0  0  0  0999 V2000
  188.6540  177.0280  141.8970 C   0  0  2  0  0  3  0  0  0  0  0  0
  188.9890  177.2790  140.4570 C   0  0  0  0  0  0  0  0  0  0  0  0
  186.0540  179.1660  140.1820 O   0  0  0  0  0  0  0  0  0  0  0  0
  187.0020  178.4600  140.6160 C   0  0  0  0  0  0  0  0  0  0  0  0
  188.3140  178.3070  138.3700 C   0  0  0  0  0  0  0  0  0  0  0  0
  187.4760  178.9850  137.7190 O   0  0  0  0  0  0  0  0  0  0  0  0
  190.1740  176.6390  139.7810 C   0  0  0  0  0  2  0  0  0  0  0  0
  187.0970  177.9160  142.3090 S   0  0  0  0  0  0  0  0  0  0  0  0
  189.4950  177.8210  137.7260 N   0  0  0  0  0  0  0  0  0  0  0  0
  190.3820  177.0970  138.3520 C   0  0  0  0  0  0  0  0  0  0  0  0
  188.1110  178.0140  139.7940 C   0  0  0  0  0  0  0  0  0  0  0  0
  189.7740  177.4050  142.8270 C   0  0  0  0  0  0  0  0  0  0  0  0
  191.8260  178.2440  144.5480 C   0  0  0  0  0  3  0  0  0  0  0  0
  190.6520  176.4580  143.4020 C   0  0  0  0  0  0  0  0  0  0  0  0
  191.6730  176.8860  144.2560 C   0  0  0  0  0  3  0  0  0  0  0  0
  190.9580  179.1810  143.9850 C   0  0  0  0  0  3  0  0  0  0  0  0
  190.5160  175.0650  143.1360 N   0  0  0  0  0  1  0  0  0  0  0  0
  189.9370  178.7620  143.1280 C   0  0  0  0  0  3  0  0  0  0  0  0
  191.5890  176.5840  137.6070 C   0  0  2  0  0  3  0  0  0  0  0  0
  191.4520  175.1990  137.0670 N   0  0  0  0  0  0  0  0  0  0  0  0
  192.2320  175.4580  138.2850 C   0  0  0  0  0  2  0  0  0  0  0  0
  190.2660  174.5780  137.4980 N   0  0  0  0  0  2  0  0  0  0  0  0
  188.6220  172.9680  137.1840 O   0  0  0  0  0  0  0  0  0  0  0  0
  190.1840  173.1440  135.4040 C   0  0  0  0  0  1  0  0  0  0  0  0
  189.6440  173.5460  136.7320 C   0  0  0  0  0  0  0  0  0  0  0  0
  1  8  1  0  0  0  0
  1 12  1  1  0  0  0
  2  1  1  0  0  0  0
  3  4  2  0  0  0  0
  4  8  1  0  0  0  0
  5 11  1  0  0  0  0
  6  5  2  0  0  0  0
  7  2  1  0  0  0  0
  9 10  2  0  0  0  0
  9  5  1  0  0  0  0
 10  7  1  0  0  0  0
 11  2  2  0  0  0  0
 11  4  1  0  0  0  0
 12 18  2  0  0  0  0
 12 14  1  0  0  0  0
 14 15  2  0  0  0  0
 15 13  1  0  0  0  0
 16 13  2  0  0  0  0
 17 14  1  0  0  0  0
 18 16  1  0  0  0  0
 19 21  1  0  0  0  0
 19 10  1  1  0  0  0
 20 22  1  0  0  0  0
 20 19  1  0  0  0  0
 20 21  1  0  0  0  0
 24 25  1  0  0  0  0
 25 23  2  0  0  0  0
 25 22  1  0  0  0  0
M  END
>  <MODEL>
7

>  <REMARK>
 VINA RESULT:      -7.2      4.023      6.324
  Name = 
  3 active torsions:
  status: ('A' for Active; 'I' for Inactive)
    1  A    between atoms: C_1  and  C_5
    2  A    between atoms: N_2  and  N_15
    3  A    between atoms: C_6  and  C_23
                            x       y       z     vdW  Elec       q    Type
                         _______ _______ _______ _____ _____    ______ ____

>  <TORSDO>
F 3

$$$$
=
 OpenBabel11052412443D

 25 28  0  0  1  0  0  0  0  0999 V2000
  188.9790  176.6400  145.3510 C   0  0  2  0  0  3  0  0  0  0  0  0
  187.6770  177.3800  145.2720 C   0  0  0  0  0  0  0  0  0  0  0  0
  188.2510  178.5790  148.5090 O   0  0  0  0  0  0  0  0  0  0  0  0
  188.3590  177.9980  147.3980 C   0  0  0  0  0  0  0  0  0  0  0  0
  186.0940  178.8200  146.4080 C   0  0  0  0  0  0  0  0  0  0  0  0
  185.7640  179.4640  147.4370 O   0  0  0  0  0  0  0  0  0  0  0  0
  186.7430  177.2480  144.0970 C   0  0  0  0  0  2  0  0  0  0  0  0
  189.7720  177.0010  146.9690 S   0  0  0  0  0  0  0  0  0  0  0  0
  185.2410  178.8200  145.2600 N   0  0  0  0  0  0  0  0  0  0  0  0
  185.5290  178.1500  144.1770 C   0  0  0  0  0  0  0  0  0  0  0  0
  187.3570  178.0720  146.3520 C   0  0  0  0  0  0  0  0  0  0  0  0
  189.8940  176.9500  144.1980 C   0  0  0  0  0  0  0  0  0  0  0  0
  191.5640  177.4050  141.9890 C   0  0  0  0  0  3  0  0  0  0  0  0
  190.6540  178.1380  144.1140 C   0  0  0  0  0  0  0  0  0  0  0  0
  191.4850  178.3550  143.0110 C   0  0  0  0  0  3  0  0  0  0  0  0
  190.8110  176.2320  142.0670 C   0  0  0  0  0  3  0  0  0  0  0  0
  190.5880  179.1340  145.1320 N   0  0  0  0  0  1  0  0  0  0  0  0
  189.9800  176.0070  143.1680 C   0  0  0  0  0  3  0  0  0  0  0  0
  184.5700  178.1610  143.0130 C   0  0  2  0  0  3  0  0  0  0  0  0
  185.2070  178.3250  141.6740 N   0  0  0  0  0  0  0  0  0  0  0  0
  184.5300  179.4530  142.3280 C   0  0  0  0  0  2  0  0  0  0  0  0
  186.5840  178.5960  141.7730 N   0  0  0  0  0  2  0  0  0  0  0  0
  188.6550  178.8370  140.7510 O   0  0  0  0  0  0  0  0  0  0  0  0
  186.9280  178.0710  139.3130 C   0  0  0  0  0  1  0  0  0  0  0  0
  187.4430  178.5210  140.6350 C   0  0  0  0  0  0  0  0  0  0  0  0
  1 12  1  6  0  0  0
  1  8  1  0  0  0  0
  2  1  1  0  0  0  0
  2 11  2  0  0  0  0
  4  3  2  0  0  0  0
  5  6  2  0  0  0  0
  7 10  1  0  0  0  0
  7  2  1  0  0  0  0
  8  4  1  0  0  0  0
  9  5  1  0  0  0  0
 10  9  2  0  0  0  0
 11  5  1  0  0  0  0
 11  4  1  0  0  0  0
 13 16  2  0  0  0  0
 13 15  1  0  0  0  0
 14 12  1  0  0  0  0
 14 17  1  0  0  0  0
 15 14  2  0  0  0  0
 16 18  1  0  0  0  0
 18 12  2  0  0  0  0
 19 10  1  1  0  0  0
 20 22  1  0  0  0  0
 20 21  1  0  0  0  0
 20 19  1  0  0  0  0
 21 19  1  0  0  0  0
 24 25  1  0  0  0  0
 25 23  2  0  0  0  0
 25 22  1  0  0  0  0
M  END
>  <MODEL>
8

>  <REMARK>
 VINA RESULT:      -6.9      1.024      1.422
  Name = 
  3 active torsions:
  status: ('A' for Active; 'I' for Inactive)
    1  A    between atoms: C_1  and  C_5
    2  A    between atoms: N_2  and  N_15
    3  A    between atoms: C_6  and  C_23
                            x       y       z     vdW  Elec       q    Type
                         _______ _______ _______ _____ _____    ______ ____

>  <TORSDO>
F 3

$$$$
=
 OpenBabel11052412443D

 25 28  0  0  1  0  0  0  0  0999 V2000
  181.9740  177.9560  140.4420 C   0  0  2  0  0  3  0  0  0  0  0  0
  183.2910  178.3620  141.0340 C   0  0  0  0  0  0  0  0  0  0  0  0
  184.7680  177.8460  137.9030 O   0  0  0  0  0  0  0  0  0  0  0  0
  183.9450  177.9410  138.8520 C   0  0  0  0  0  0  0  0  0  0  0  0
  185.6630  178.6860  140.6640 C   0  0  0  0  0  0  0  0  0  0  0  0
  186.6520  178.6420  139.8870 O   0  0  0  0  0  0  0  0  0  0  0  0
  183.4590  178.6610  142.5010 C   0  0  0  0  0  2  0  0  0  0  0  0
  182.2090  177.5980  138.6540 S   0  0  0  0  0  0  0  0  0  0  0  0
  185.8380  179.0980  142.0220 N   0  0  0  0  0  0  0  0  0  0  0  0
  184.8480  179.1400  142.8710 C   0  0  0  0  0  0  0  0  0  0  0  0
  184.3150  178.3340  140.1980 C   0  0  0  0  0  0  0  0  0  0  0  0
  180.8960  178.9800  140.6700 C   0  0  0  0  0  0  0  0  0  0  0  0
  178.9400  180.9670  140.9880 C   0  0  0  0  0  3  0  0  0  0  0  0
  179.9000  178.8460  141.6640 C   0  0  0  0  0  0  0  0  0  0  0  0
  178.9320  179.8430  141.8170 C   0  0  0  0  0  3  0  0  0  0  0  0
  179.9200  181.1020  140.0030 C   0  0  0  0  0  3  0  0  0  0  0  0
  179.8550  177.7060  142.5170 N   0  0  0  0  0  1  0  0  0  0  0  0
  180.8930  180.1110  139.8460 C   0  0  0  0  0  3  0  0  0  0  0  0
  185.1040  179.5480  144.3000 C   0  0  2  0  0  3  0  0  0  0  0  0
  186.0230  178.6460  145.0560 N   0  0  0  0  0  0  0  0  0  0  0  0
  184.5700  178.5860  145.2640 C   0  0  0  0  0  2  0  0  0  0  0  0
  186.3530  177.4910  144.3230 N   0  0  0  0  0  2  0  0  0  0  0  0
  187.9540  175.9860  143.5720 O   0  0  0  0  0  0  0  0  0  0  0  0
  188.8310  177.8660  144.7280 C   0  0  0  0  0  1  0  0  0  0  0  0
  187.7060  177.0610  144.1770 C   0  0  0  0  0  0  0  0  0  0  0  0
  1 12  1  6  0  0  0
  1  2  1  0  0  0  0
  2  7  1  0  0  0  0
  3  4  2  0  0  0  0
  4 11  1  0  0  0  0
  5  9  1  0  0  0  0
  6  5  2  0  0  0  0
  7 10  1  0  0  0  0
  8  4  1  0  0  0  0
  8  1  1  0  0  0  0
  9 10  2  0  0  0  0
 11  5  1  0  0  0  0
 11  2  2  0  0  0  0
 12 14  1  0  0  0  0
 13 15  1  0  0  0  0
 14 15  2  0  0  0  0
 14 17  1  0  0  0  0
 16 13  2  0  0  0  0
 18 16  1  0  0  0  0
 18 12  2  0  0  0  0
 19 10  1  6  0  0  0
 19 20  1  0  0  0  0
 19 21  1  0  0  0  0
 20 21  1  0  0  0  0
 22 20  1  0  0  0  0
 23 25  2  0  0  0  0
 25 22  1  0  0  0  0
 25 24  1  0  0  0  0
M  END
>  <MODEL>
9

>  <REMARK>
 VINA RESULT:      -6.8      4.166      8.186
  Name = 
  3 active torsions:
  status: ('A' for Active; 'I' for Inactive)
    1  A    between atoms: C_1  and  C_5
    2  A    between atoms: N_2  and  N_15
    3  A    between atoms: C_6  and  C_23
                            x       y       z     vdW  Elec       q    Type
                         _______ _______ _______ _____ _____    ______ ____

>  <TORSDO>
F 3

$$$$
