=
 OpenBabel11052412543D

 25 26  0  0  1  0  0  0  0  0999 V2000
  189.9570  177.5760  141.4590 C   0  0  1  0  0  3  0  0  0  0  0  0
  189.6160  177.9540  143.9280 C   0  0  0  0  0  2  0  0  0  0  0  0
  191.5310  176.5150  143.1290 C   0  0  0  0  0  2  0  0  0  0  0  0
  191.8430  177.2630  146.5210 O   0  0  0  0  0  0  0  0  0  0  0  0
  191.1910  176.9380  145.5430 C   0  0  0  0  0  0  0  0  0  0  0  0
  191.7490  175.9760  144.5450 C   0  0  0  0  0  2  0  0  0  0  0  0
  190.0700  176.9330  142.8620 C   0  0  0  0  0  0  0  0  0  0  0  0
  189.7970  177.4440  145.3600 C   0  0  0  0  0  2  0  0  0  0  0  0
  189.1710  175.6880  142.9180 C   0  0  0  0  0  2  0  0  0  0  0  0
  187.9040  176.0030  143.4180 O   0  0  0  0  0  1  0  0  0  0  0  0
  192.1370  177.7600  140.5060 O   0  0  0  0  0  0  0  0  0  0  0  0
  191.0380  177.1430  140.5100 C   0  0  0  0  0  0  0  0  0  0  0  0
  190.8250  176.0610  139.6540 O   0  0  0  0  0  0  0  0  0  0  0  0
  191.3480  176.0350  138.3350 C   0  0  0  0  0  1  0  0  0  0  0  0
  188.6460  177.3360  140.8660 N   0  0  0  0  0  2  0  0  0  0  0  0
  187.9940  178.6280  140.7320 C   0  0  0  0  0  2  0  0  0  0  0  0
  186.7810  178.6910  141.6400 C   0  0  0  0  0  2  0  0  0  0  0  0
  185.6980  179.3920  140.9710 N   0  0  0  0  0  2  0  0  0  0  0  0
  184.4570  178.9620  141.5970 C   0  0  0  0  0  2  0  0  0  0  0  0
  184.7540  178.1380  142.8370 C   0  0  0  0  0  2  0  0  0  0  0  0
  184.1800  178.7820  144.0070 N   0  0  0  0  0  2  0  0  0  0  0  0
  186.0500  177.8650  145.2380 C   0  0  0  0  0  2  0  0  0  0  0  0
  185.0760  178.4630  146.2280 C   0  0  1  0  0  3  0  0  0  0  0  0
  185.8440  179.2370  147.2790 C   0  0  0  0  0  1  0  0  0  0  0  0
  185.2880  179.1240  144.8810 C   0  0  2  0  0  3  0  0  0  0  0  0
  1 12  1  6  0  0  0
  1  7  1  0  0  0  0
  2  8  1  0  0  0  0
  3  6  1  0  0  0  0
  5  4  2  0  0  0  0
  6  5  1  0  0  0  0
  7  9  1  0  0  0  0
  7  3  1  0  0  0  0
  7  2  1  0  0  0  0
  8  5  1  0  0  0  0
  9 10  1  0  0  0  0
 11 12  2  0  0  0  0
 13 12  1  0  0  0  0
 14 13  1  0  0  0  0
 15  1  1  0  0  0  0
 16 15  1  0  0  0  0
 16 17  1  0  0  0  0
 18 19  1  0  0  0  0
 18 17  1  0  0  0  0
 19 20  1  0  0  0  0
 20 21  1  0  0  0  0
 22 23  1  0  0  0  0
 23 24  1  1  0  0  0
 25 21  1  6  0  0  0
 25 22  1  0  0  0  0
 25 23  1  0  0  0  0
M  END
>  <MODEL>
1

>  <REMARK>
 VINA RESULT:      -6.6      0.000      0.000
  Name = 
  12 active torsions:
  status: ('A' for Active; 'I' for Inactive)
    1  A    between atoms: C_1  and  N_3
    2  A    between atoms: C_1  and  C_18
    3  A    between atoms: C_1  and  C_24
    4  A    between atoms: N_3  and  C_16
    5  A    between atoms: C_6  and  C_15
    6  A    between atoms: C_6  and  N_21
    7  A    between atoms: O_13  and  C_24
    8  A    between atoms: C_15  and  N_20
    9  A    between atoms: C_16  and  C_23
   10  A    between atoms: C_17  and  C_18
   11  A    between atoms: N_20  and  C_23
   12  A    between atoms: N_21  and  C_25
                            x       y       z     vdW  Elec       q    Type
                         _______ _______ _______ _____ _____    ______ ____

>  <TORSDO>
F 12

$$$$
=
 OpenBabel11052412543D

 25 26  0  0  1  0  0  0  0  0999 V2000
  188.6120  178.3000  141.2330 C   0  0  1  0  0  3  0  0  0  0  0  0
  189.5050  176.3040  142.4890 C   0  0  0  0  0  2  0  0  0  0  0  0
  190.5260  178.5840  142.8610 C   0  0  0  0  0  2  0  0  0  0  0  0
  191.6370  176.2980  145.2480 O   0  0  0  0  0  0  0  0  0  0  0  0
  191.3530  176.6120  144.1050 C   0  0  0  0  0  0  0  0  0  0  0  0
  191.7270  177.9570  143.5730 C   0  0  0  0  0  2  0  0  0  0  0  0
  189.8850  177.6440  141.8190 C   0  0  0  0  0  0  0  0  0  0  0  0
  190.6860  175.6330  143.1940 C   0  0  0  0  0  2  0  0  0  0  0  0
  190.8880  177.3910  140.6840 C   0  0  0  0  0  2  0  0  0  0  0  0
  190.7360  176.1060  140.1530 O   0  0  0  0  0  1  0  0  0  0  0  0
  187.9570  177.1960  139.2210 O   0  0  0  0  0  0  0  0  0  0  0  0
  188.5180  178.2000  139.7380 C   0  0  0  0  0  0  0  0  0  0  0  0
  189.0380  179.2170  138.9350 O   0  0  0  0  0  0  0  0  0  0  0  0
  189.0950  179.1010  137.5210 C   0  0  0  0  0  1  0  0  0  0  0  0
  187.4030  177.7620  141.8480 N   0  0  0  0  0  2  0  0  0  0  0  0
  186.4250  178.8370  141.8780 C   0  0  0  0  0  2  0  0  0  0  0  0
  185.1600  178.3650  142.5670 C   0  0  0  0  0  2  0  0  0  0  0  0
  184.6560  179.4080  143.4470 N   0  0  0  0  0  2  0  0  0  0  0  0
  184.0950  178.7490  144.6160 C   0  0  0  0  0  2  0  0  0  0  0  0
  184.9840  178.9790  145.8260 C   0  0  0  0  0  2  0  0  0  0  0  0
  185.8110  177.8070  146.0600 N   0  0  0  0  0  2  0  0  0  0  0  0
  188.1550  177.8530  145.4630 C   0  0  0  0  0  2  0  0  0  0  0  0
  188.0110  177.1090  146.7730 C   0  0  1  0  0  3  0  0  0  0  0  0
  189.1060  177.5510  147.7210 C   0  0  0  0  0  1  0  0  0  0  0  0
  187.1150  178.2930  146.4720 C   0  0  2  0  0  3  0  0  0  0  0  0
  1 12  1  6  0  0  0
  1  7  1  0  0  0  0
  1 15  1  0  0  0  0
  2  8  1  0  0  0  0
  3  6  1  0  0  0  0
  5  4  2  0  0  0  0
  6  5  1  0  0  0  0
  7  2  1  0  0  0  0
  7  3  1  0  0  0  0
  8  5  1  0  0  0  0
  9  7  1  0  0  0  0
 10  9  1  0  0  0  0
 11 12  2  0  0  0  0
 13 12  1  0  0  0  0
 14 13  1  0  0  0  0
 15 16  1  0  0  0  0
 16 17  1  0  0  0  0
 17 18  1  0  0  0  0
 18 19  1  0  0  0  0
 19 20  1  0  0  0  0
 20 21  1  0  0  0  0
 22 25  1  0  0  0  0
 22 23  1  0  0  0  0
 23 24  1  1  0  0  0
 25 21  1  6  0  0  0
 25 23  1  0  0  0  0
M  END
>  <MODEL>
2

>  <REMARK>
 VINA RESULT:      -6.4      1.779      2.815
  Name = 
  12 active torsions:
  status: ('A' for Active; 'I' for Inactive)
    1  A    between atoms: C_1  and  N_3
    2  A    between atoms: C_1  and  C_18
    3  A    between atoms: C_1  and  C_24
    4  A    between atoms: N_3  and  C_16
    5  A    between atoms: C_6  and  C_15
    6  A    between atoms: C_6  and  N_21
    7  A    between atoms: O_13  and  C_24
    8  A    between atoms: C_15  and  N_20
    9  A    between atoms: C_16  and  C_23
   10  A    between atoms: C_17  and  C_18
   11  A    between atoms: N_20  and  C_23
   12  A    between atoms: N_21  and  C_25
                            x       y       z     vdW  Elec       q    Type
                         _______ _______ _______ _____ _____    ______ ____

>  <TORSDO>
F 12

$$$$
=
 OpenBabel11052412543D

 25 26  0  0  1  0  0  0  0  0999 V2000
  189.6060  177.6410  142.5750 C   0  0  1  0  0  3  0  0  0  0  0  0
  191.2000  176.8690  144.3700 C   0  0  0  0  0  2  0  0  0  0  0  0
  188.8710  177.6200  144.9940 C   0  0  0  0  0  2  0  0  0  0  0  0
  190.4580  176.0610  147.6800 O   0  0  0  0  0  0  0  0  0  0  0  0
  190.4470  176.8200  146.7260 C   0  0  0  0  0  0  0  0  0  0  0  0
  189.2660  177.7000  146.4700 C   0  0  0  0  0  2  0  0  0  0  0  0
  190.0590  177.8570  144.0390 C   0  0  0  0  0  0  0  0  0  0  0  0
  191.6410  176.9330  145.8340 C   0  0  0  0  0  2  0  0  0  0  0  0
  190.5580  179.3000  144.2030 C   0  0  0  0  0  2  0  0  0  0  0  0
  191.9070  179.4110  143.8540 O   0  0  0  0  0  1  0  0  0  0  0  0
  190.0180  175.2910  142.6590 O   0  0  0  0  0  0  0  0  0  0  0  0
  190.0920  176.3500  141.9790 C   0  0  0  0  0  0  0  0  0  0  0  0
  190.6080  176.3300  140.6820 O   0  0  0  0  0  0  0  0  0  0  0  0
  191.5140  177.3200  140.2200 C   0  0  0  0  0  1  0  0  0  0  0  0
  188.1560  177.7360  142.4460 N   0  0  0  0  0  2  0  0  0  0  0  0
  187.8840  178.6510  141.3490 C   0  0  0  0  0  2  0  0  0  0  0  0
  186.6710  178.1780  140.5720 C   0  0  0  0  0  2  0  0  0  0  0  0
  185.8440  179.3170  140.2050 N   0  0  0  0  0  2  0  0  0  0  0  0
  184.4930  179.0290  140.6610 C   0  0  0  0  0  2  0  0  0  0  0  0
  184.5330  178.2550  141.9670 C   0  0  0  0  0  2  0  0  0  0  0  0
  184.7760  179.1650  143.0730 N   0  0  0  0  0  2  0  0  0  0  0  0
  183.6270  178.9100  145.1870 C   0  0  0  0  0  2  0  0  0  0  0  0
  185.0740  179.2500  145.4700 C   0  0  1  0  0  3  0  0  0  0  0  0
  185.5810  178.3740  146.5960 C   0  0  0  0  0  1  0  0  0  0  0  0
  184.7190  178.3710  144.2870 C   0  0  2  0  0  3  0  0  0  0  0  0
  1 12  1  1  0  0  0
  1  7  1  0  0  0  0
  2  8  1  0  0  0  0
  3  6  1  0  0  0  0
  5  4  2  0  0  0  0
  6  5  1  0  0  0  0
  7  9  1  0  0  0  0
  7  2  1  0  0  0  0
  7  3  1  0  0  0  0
  8  5  1  0  0  0  0
 10  9  1  0  0  0  0
 12 11  2  0  0  0  0
 13 12  1  0  0  0  0
 14 13  1  0  0  0  0
 15  1  1  0  0  0  0
 16 15  1  0  0  0  0
 17 16  1  0  0  0  0
 18 17  1  0  0  0  0
 18 19  1  0  0  0  0
 19 20  1  0  0  0  0
 20 21  1  0  0  0  0
 22 23  1  0  0  0  0
 23 24  1  1  0  0  0
 25 21  1  6  0  0  0
 25 22  1  0  0  0  0
 25 23  1  0  0  0  0
M  END
>  <MODEL>
3

>  <REMARK>
 VINA RESULT:      -6.4      1.379      2.293
  Name = 
  12 active torsions:
  status: ('A' for Active; 'I' for Inactive)
    1  A    between atoms: C_1  and  N_3
    2  A    between atoms: C_1  and  C_18
    3  A    between atoms: C_1  and  C_24
    4  A    between atoms: N_3  and  C_16
    5  A    between atoms: C_6  and  C_15
    6  A    between atoms: C_6  and  N_21
    7  A    between atoms: O_13  and  C_24
    8  A    between atoms: C_15  and  N_20
    9  A    between atoms: C_16  and  C_23
   10  A    between atoms: C_17  and  C_18
   11  A    between atoms: N_20  and  C_23
   12  A    between atoms: N_21  and  C_25
                            x       y       z     vdW  Elec       q    Type
                         _______ _______ _______ _____ _____    ______ ____

>  <TORSDO>
F 12

$$$$
=
 OpenBabel11052412543D

 25 26  0  0  1  0  0  0  0  0999 V2000
  189.6310  177.6130  142.6500 C   0  0  1  0  0  3  0  0  0  0  0  0
  191.2930  176.8550  144.3890 C   0  0  0  0  0  2  0  0  0  0  0  0
  188.9780  177.5790  145.0930 C   0  0  0  0  0  2  0  0  0  0  0  0
  190.6710  176.0320  147.7200 O   0  0  0  0  0  0  0  0  0  0  0  0
  190.6200  176.7930  146.7690 C   0  0  0  0  0  0  0  0  0  0  0  0
  189.4220  177.6610  146.5550 C   0  0  0  0  0  2  0  0  0  0  0  0
  190.1310  177.8310  144.0990 C   0  0  0  0  0  0  0  0  0  0  0  0
  191.7820  176.9220  145.8370 C   0  0  0  0  0  2  0  0  0  0  0  0
  190.6190  179.2790  144.2490 C   0  0  0  0  0  2  0  0  0  0  0  0
  191.9650  179.3990  143.8900 O   0  0  0  0  0  1  0  0  0  0  0  0
  189.6890  175.2270  142.6610 O   0  0  0  0  0  0  0  0  0  0  0  0
  190.0310  176.2860  142.0700 C   0  0  0  0  0  0  0  0  0  0  0  0
  190.7640  176.2350  140.8820 O   0  0  0  0  0  0  0  0  0  0  0  0
  190.8320  177.3410  139.9960 C   0  0  0  0  0  1  0  0  0  0  0  0
  188.1860  177.7860  142.5530 N   0  0  0  0  0  2  0  0  0  0  0  0
  187.9440  178.7810  141.5200 C   0  0  0  0  0  2  0  0  0  0  0  0
  186.5310  178.6410  140.9900 C   0  0  0  0  0  2  0  0  0  0  0  0
  185.6250  179.4670  141.7730 N   0  0  0  0  0  2  0  0  0  0  0  0
  184.6620  178.5730  142.3970 C   0  0  0  0  0  2  0  0  0  0  0  0
  183.7590  179.3490  143.3400 C   0  0  0  0  0  2  0  0  0  0  0  0
  183.7580  178.7220  144.6510 N   0  0  0  0  0  2  0  0  0  0  0  0
  185.7610  177.6740  145.5130 C   0  0  0  0  0  2  0  0  0  0  0  0
  185.0860  178.4160  146.6460 C   0  0  1  0  0  3  0  0  0  0  0  0
  186.1340  179.1540  147.4520 C   0  0  0  0  0  1  0  0  0  0  0  0
  185.0570  178.9870  145.2420 C   0  0  2  0  0  3  0  0  0  0  0  0
  1 12  1  1  0  0  0
  1  7  1  0  0  0  0
  2  8  1  0  0  0  0
  3  6  1  0  0  0  0
  5  4  2  0  0  0  0
  6  5  1  0  0  0  0
  7  9  1  0  0  0  0
  7  2  1  0  0  0  0
  7  3  1  0  0  0  0
  8  5  1  0  0  0  0
 10  9  1  0  0  0  0
 12 11  2  0  0  0  0
 13 12  1  0  0  0  0
 14 13  1  0  0  0  0
 15  1  1  0  0  0  0
 16 15  1  0  0  0  0
 17 16  1  0  0  0  0
 17 18  1  0  0  0  0
 18 19  1  0  0  0  0
 19 20  1  0  0  0  0
 20 21  1  0  0  0  0
 22 23  1  0  0  0  0
 23 24  1  1  0  0  0
 25 21  1  6  0  0  0
 25 22  1  0  0  0  0
 25 23  1  0  0  0  0
M  END
>  <MODEL>
4

>  <REMARK>
 VINA RESULT:      -6.3      1.298      2.235
  Name = 
  12 active torsions:
  status: ('A' for Active; 'I' for Inactive)
    1  A    between atoms: C_1  and  N_3
    2  A    between atoms: C_1  and  C_18
    3  A    between atoms: C_1  and  C_24
    4  A    between atoms: N_3  and  C_16
    5  A    between atoms: C_6  and  C_15
    6  A    between atoms: C_6  and  N_21
    7  A    between atoms: O_13  and  C_24
    8  A    between atoms: C_15  and  N_20
    9  A    between atoms: C_16  and  C_23
   10  A    between atoms: C_17  and  C_18
   11  A    between atoms: N_20  and  C_23
   12  A    between atoms: N_21  and  C_25
                            x       y       z     vdW  Elec       q    Type
                         _______ _______ _______ _____ _____    ______ ____

>  <TORSDO>
F 12

$$$$
=
 OpenBabel11052412543D

 25 26  0  0  1  0  0  0  0  0999 V2000
  189.4650  177.6150  141.1310 C   0  0  1  0  0  3  0  0  0  0  0  0
  187.8150  177.0250  142.9450 C   0  0  0  0  0  2  0  0  0  0  0  0
  189.9420  178.2530  143.5310 C   0  0  0  0  0  2  0  0  0  0  0  0
  187.7160  178.2310  146.2150 O   0  0  0  0  0  0  0  0  0  0  0  0
  188.2840  177.6930  145.2800 C   0  0  0  0  0  0  0  0  0  0  0  0
  189.7310  177.9590  145.0180 C   0  0  0  0  0  2  0  0  0  0  0  0
  189.3140  177.1860  142.6110 C   0  0  0  0  0  0  0  0  0  0  0  0
  187.5610  176.7080  144.4200 C   0  0  0  0  0  2  0  0  0  0  0  0
  190.0400  175.8480  142.8220 C   0  0  0  0  0  2  0  0  0  0  0  0
  191.2550  176.0330  143.4880 O   0  0  0  0  0  1  0  0  0  0  0  0
  191.8190  177.7120  140.7510 O   0  0  0  0  0  0  0  0  0  0  0  0
  190.7320  177.1280  140.4900 C   0  0  0  0  0  0  0  0  0  0  0  0
  190.7020  176.0330  139.6240 O   0  0  0  0  0  0  0  0  0  0  0  0
  191.1740  176.1210  138.2890 C   0  0  0  0  0  1  0  0  0  0  0  0
  188.3120  177.2050  140.3370 N   0  0  0  0  0  2  0  0  0  0  0  0
  187.7930  178.3980  139.6890 C   0  0  0  0  0  2  0  0  0  0  0  0
  187.1760  178.0330  138.3530 C   0  0  0  0  0  2  0  0  0  0  0  0
  185.7340  177.9060  138.4920 N   0  0  0  0  0  2  0  0  0  0  0  0
  185.3120  178.8820  139.4840 C   0  0  0  0  0  2  0  0  0  0  0  0
  184.0450  178.4110  140.1770 C   0  0  0  0  0  2  0  0  0  0  0  0
  184.3720  177.8660  141.4840 N   0  0  0  0  0  2  0  0  0  0  0  0
  185.0520  179.5160  143.1160 C   0  0  0  0  0  2  0  0  0  0  0  0
  184.3530  178.3890  143.8430 C   0  0  1  0  0  3  0  0  0  0  0  0
  183.4190  178.9690  144.8830 C   0  0  0  0  0  1  0  0  0  0  0  0
  183.8790  178.8130  142.4670 C   0  0  2  0  0  3  0  0  0  0  0  0
  1 15  1  6  0  0  0
  1  7  1  0  0  0  0
  2  8  1  0  0  0  0
  3  6  1  0  0  0  0
  5  4  2  0  0  0  0
  6  5  1  0  0  0  0
  7  9  1  0  0  0  0
  7  2  1  0  0  0  0
  7  3  1  0  0  0  0
  8  5  1  0  0  0  0
  9 10  1  0  0  0  0
 12 11  2  0  0  0  0
 12  1  1  0  0  0  0
 13 12  1  0  0  0  0
 14 13  1  0  0  0  0
 16 15  1  0  0  0  0
 17 18  1  0  0  0  0
 17 16  1  0  0  0  0
 18 19  1  0  0  0  0
 19 20  1  0  0  0  0
 20 21  1  0  0  0  0
 22 23  1  0  0  0  0
 23 24  1  1  0  0  0
 25 21  1  6  0  0  0
 25 22  1  0  0  0  0
 25 23  1  0  0  0  0
M  END
>  <MODEL>
5

>  <REMARK>
 VINA RESULT:      -6.0      1.800      2.379
  Name = 
  12 active torsions:
  status: ('A' for Active; 'I' for Inactive)
    1  A    between atoms: C_1  and  N_3
    2  A    between atoms: C_1  and  C_18
    3  A    between atoms: C_1  and  C_24
    4  A    between atoms: N_3  and  C_16
    5  A    between atoms: C_6  and  C_15
    6  A    between atoms: C_6  and  N_21
    7  A    between atoms: O_13  and  C_24
    8  A    between atoms: C_15  and  N_20
    9  A    between atoms: C_16  and  C_23
   10  A    between atoms: C_17  and  C_18
   11  A    between atoms: N_20  and  C_23
   12  A    between atoms: N_21  and  C_25
                            x       y       z     vdW  Elec       q    Type
                         _______ _______ _______ _____ _____    ______ ____

>  <TORSDO>
F 12

$$$$
=
 OpenBabel11052412543D

 25 26  0  0  1  0  0  0  0  0999 V2000
  188.3700  177.6200  144.2980 C   0  0  1  0  0  3  0  0  0  0  0  0
  190.5800  176.4640  144.6730 C   0  0  0  0  0  2  0  0  0  0  0  0
  189.3350  177.4630  146.6300 C   0  0  0  0  0  2  0  0  0  0  0  0
  191.9690  175.4450  147.7040 O   0  0  0  0  0  0  0  0  0  0  0  0
  191.4870  176.2880  146.9680 C   0  0  0  0  0  0  0  0  0  0  0  0
  190.5790  177.3430  147.5130 C   0  0  0  0  0  2  0  0  0  0  0  0
  189.6730  177.6270  145.1330 C   0  0  0  0  0  0  0  0  0  0  0  0
  191.8480  176.3230  145.5180 C   0  0  0  0  0  2  0  0  0  0  0  0
  190.3970  178.9650  144.9240 C   0  0  0  0  0  2  0  0  0  0  0  0
  190.9440  179.0470  143.6400 O   0  0  0  0  0  1  0  0  0  0  0  0
  188.0330  175.5660  143.1300 O   0  0  0  0  0  0  0  0  0  0  0  0
  188.4470  176.7550  143.0720 C   0  0  0  0  0  0  0  0  0  0  0  0
  188.9620  177.2740  141.8820 O   0  0  0  0  0  0  0  0  0  0  0  0
  188.2410  178.2130  141.1000 C   0  0  0  0  0  1  0  0  0  0  0  0
  187.2190  177.2370  145.1090 N   0  0  0  0  0  2  0  0  0  0  0  0
  186.2050  178.2610  144.9200 C   0  0  0  0  0  2  0  0  0  0  0  0
  185.5200  178.5590  146.2400 C   0  0  0  0  0  2  0  0  0  0  0  0
  184.1230  178.8910  146.0090 N   0  0  0  0  0  2  0  0  0  0  0  0
  183.9960  179.2600  144.6080 C   0  0  0  0  0  2  0  0  0  0  0  0
  182.5420  179.1860  144.1750 C   0  0  0  0  0  2  0  0  0  0  0  0
  182.4050  178.2630  143.0610 N   0  0  0  0  0  2  0  0  0  0  0  0
  182.3050  178.3030  140.6440 C   0  0  0  0  0  2  0  0  0  0  0  0
  183.7320  178.0150  141.0570 C   0  0  1  0  0  3  0  0  0  0  0  0
  184.6750  178.8290  140.1960 C   0  0  0  0  0  1  0  0  0  0  0  0
  182.8810  178.9610  141.8800 C   0  0  2  0  0  3  0  0  0  0  0  0
  1 12  1  6  0  0  0
  1 15  1  0  0  0  0
  1  7  1  0  0  0  0
  2  7  1  0  0  0  0
  2  8  1  0  0  0  0
  3  6  1  0  0  0  0
  5  6  1  0  0  0  0
  5  4  2  0  0  0  0
  7  3  1  0  0  0  0
  8  5  1  0  0  0  0
  9  7  1  0  0  0  0
 10  9  1  0  0  0  0
 12 11  2  0  0  0  0
 13 12  1  0  0  0  0
 14 13  1  0  0  0  0
 16 15  1  0  0  0  0
 16 17  1  0  0  0  0
 18 17  1  0  0  0  0
 19 18  1  0  0  0  0
 20 19  1  0  0  0  0
 21 20  1  0  0  0  0
 22 23  1  0  0  0  0
 22 25  1  0  0  0  0
 23 24  1  6  0  0  0
 23 25  1  0  0  0  0
 25 21  1  1  0  0  0
M  END
>  <MODEL>
6

>  <REMARK>
 VINA RESULT:      -6.0      2.249      4.077
  Name = 
  12 active torsions:
  status: ('A' for Active; 'I' for Inactive)
    1  A    between atoms: C_1  and  N_3
    2  A    between atoms: C_1  and  C_18
    3  A    between atoms: C_1  and  C_24
    4  A    between atoms: N_3  and  C_16
    5  A    between atoms: C_6  and  C_15
    6  A    between atoms: C_6  and  N_21
    7  A    between atoms: O_13  and  C_24
    8  A    between atoms: C_15  and  N_20
    9  A    between atoms: C_16  and  C_23
   10  A    between atoms: C_17  and  C_18
   11  A    between atoms: N_20  and  C_23
   12  A    between atoms: N_21  and  C_25
                            x       y       z     vdW  Elec       q    Type
                         _______ _______ _______ _____ _____    ______ ____

>  <TORSDO>
F 12

$$$$
=
 OpenBabel11052412543D

 25 26  0  0  1  0  0  0  0  0999 V2000
  189.7350  177.7340  141.2110 C   0  0  1  0  0  3  0  0  0  0  0  0
  187.9400  177.1300  142.8750 C   0  0  0  0  0  2  0  0  0  0  0  0
  190.0690  178.2340  143.6670 C   0  0  0  0  0  2  0  0  0  0  0  0
  187.6600  178.1800  146.1890 O   0  0  0  0  0  0  0  0  0  0  0  0
  188.2710  177.6630  145.2680 C   0  0  0  0  0  0  0  0  0  0  0  0
  189.7420  177.8770  145.1190 C   0  0  0  0  0  2  0  0  0  0  0  0
  189.4640  177.2410  142.6520 C   0  0  0  0  0  0  0  0  0  0  0  0
  187.5710  176.7530  144.3120 C   0  0  0  0  0  2  0  0  0  0  0  0
  190.1180  175.8640  142.8430 C   0  0  0  0  0  2  0  0  0  0  0  0
  191.2800  175.9600  143.6160 O   0  0  0  0  0  1  0  0  0  0  0  0
  192.0790  177.5030  140.8250 O   0  0  0  0  0  0  0  0  0  0  0  0
  190.9210  177.0780  140.5640 C   0  0  0  0  0  0  0  0  0  0  0  0
  190.7360  176.0030  139.6920 O   0  0  0  0  0  0  0  0  0  0  0  0
  191.2550  176.0110  138.3710 C   0  0  0  0  0  1  0  0  0  0  0  0
  188.5560  177.5830  140.3640 N   0  0  0  0  0  2  0  0  0  0  0  0
  188.6500  178.5880  139.3180 C   0  0  0  0  0  2  0  0  0  0  0  0
  188.0910  178.0360  138.0210 C   0  0  0  0  0  2  0  0  0  0  0  0
  186.7070  178.4520  137.8610 N   0  0  0  0  0  2  0  0  0  0  0  0
  185.9800  177.3200  137.3100 C   0  0  0  0  0  2  0  0  0  0  0  0
  186.9000  176.1200  137.1750 C   0  0  0  0  0  2  0  0  0  0  0  0
  186.2770  175.1110  136.3350 N   0  0  0  0  0  2  0  0  0  0  0  0
  186.3580  173.0030  137.5180 C   0  0  0  0  0  2  0  0  0  0  0  0
  185.2440  172.9330  136.4970 C   0  0  1  0  0  3  0  0  0  0  0  0
  184.0310  172.2810  137.1260 C   0  0  0  0  0  1  0  0  0  0  0  0
  185.5300  174.2350  137.2190 C   0  0  2  0  0  3  0  0  0  0  0  0
  1 15  1  6  0  0  0
  1  7  1  0  0  0  0
  2  8  1  0  0  0  0
  3  6  1  0  0  0  0
  5  4  2  0  0  0  0
  6  5  1  0  0  0  0
  7  9  1  0  0  0  0
  7  2  1  0  0  0  0
  7  3  1  0  0  0  0
  8  5  1  0  0  0  0
  9 10  1  0  0  0  0
 12 11  2  0  0  0  0
 12  1  1  0  0  0  0
 13 12  1  0  0  0  0
 14 13  1  0  0  0  0
 16 15  1  0  0  0  0
 17 16  1  0  0  0  0
 18 17  1  0  0  0  0
 19 18  1  0  0  0  0
 20 19  1  0  0  0  0
 21 20  1  0  0  0  0
 23 24  1  1  0  0  0
 23 25  1  0  0  0  0
 23 22  1  0  0  0  0
 25 21  1  6  0  0  0
 25 22  1  0  0  0  0
M  END
>  <MODEL>
7

>  <REMARK>
 VINA RESULT:      -5.6      3.544      5.222
  Name = 
  12 active torsions:
  status: ('A' for Active; 'I' for Inactive)
    1  A    between atoms: C_1  and  N_3
    2  A    between atoms: C_1  and  C_18
    3  A    between atoms: C_1  and  C_24
    4  A    between atoms: N_3  and  C_16
    5  A    between atoms: C_6  and  C_15
    6  A    between atoms: C_6  and  N_21
    7  A    between atoms: O_13  and  C_24
    8  A    between atoms: C_15  and  N_20
    9  A    between atoms: C_16  and  C_23
   10  A    between atoms: C_17  and  C_18
   11  A    between atoms: N_20  and  C_23
   12  A    between atoms: N_21  and  C_25
                            x       y       z     vdW  Elec       q    Type
                         _______ _______ _______ _____ _____    ______ ____

>  <TORSDO>
F 12

$$$$
=
 OpenBabel11052412543D

 25 26  0  0  1  0  0  0  0  0999 V2000
  188.6810  177.2630  145.6130 C   0  0  1  0  0  3  0  0  0  0  0  0
  188.5060  177.8570  143.1690 C   0  0  0  0  0  2  0  0  0  0  0  0
  190.3780  176.3620  143.9690 C   0  0  0  0  0  2  0  0  0  0  0  0
  190.1720  176.3770  140.4870 O   0  0  0  0  0  0  0  0  0  0  0  0
  190.1540  176.9340  141.5710 C   0  0  0  0  0  0  0  0  0  0  0  0
  191.1200  176.5410  142.6420 C   0  0  0  0  0  2  0  0  0  0  0  0
  189.4860  177.5690  144.3270 C   0  0  0  0  0  0  0  0  0  0  0  0
  189.2110  178.0650  141.8270 C   0  0  0  0  0  2  0  0  0  0  0  0
  190.3760  178.7970  144.5730 C   0  0  0  0  0  2  0  0  0  0  0  0
  191.7160  178.4290  144.7190 O   0  0  0  0  0  1  0  0  0  0  0  0
  189.4180  178.1740  147.6930 O   0  0  0  0  0  0  0  0  0  0  0  0
  189.5230  177.2350  146.8570 C   0  0  0  0  0  0  0  0  0  0  0  0
  190.4020  176.1740  147.0840 O   0  0  0  0  0  0  0  0  0  0  0  0
  191.7270  176.3850  147.5440 C   0  0  0  0  0  1  0  0  0  0  0  0
  187.5700  178.1920  145.7820 N   0  0  0  0  0  2  0  0  0  0  0  0
  186.4080  177.4040  146.1590 C   0  0  0  0  0  2  0  0  0  0  0  0
  185.1900  178.3010  146.2710 C   0  0  0  0  0  2  0  0  0  0  0  0
  185.4080  179.5260  145.5190 N   0  0  0  0  0  2  0  0  0  0  0  0
  184.6350  179.4180  144.2910 C   0  0  0  0  0  2  0  0  0  0  0  0
  183.2830  178.7870  144.5750 C   0  0  0  0  0  2  0  0  0  0  0  0
  182.5390  178.6360  143.3360 N   0  0  0  0  0  2  0  0  0  0  0  0
  180.2110  178.4240  143.9590 C   0  0  0  0  0  2  0  0  0  0  0  0
  180.2790  178.8520  142.5090 C   0  0  1  0  0  3  0  0  0  0  0  0
  179.2460  179.9290  142.2580 C   0  0  0  0  0  1  0  0  0  0  0  0
  181.2990  179.3720  143.5020 C   0  0  2  0  0  3  0  0  0  0  0  0
  1 15  1  1  0  0  0
  1 12  1  0  0  0  0
  2  7  1  0  0  0  0
  3  7  1  0  0  0  0
  4  5  2  0  0  0  0
  5  8  1  0  0  0  0
  5  6  1  0  0  0  0
  6  3  1  0  0  0  0
  7  9  1  0  0  0  0
  7  1  1  0  0  0  0
  8  2  1  0  0  0  0
  9 10  1  0  0  0  0
 12 13  1  0  0  0  0
 12 11  2  0  0  0  0
 13 14  1  0  0  0  0
 15 16  1  0  0  0  0
 16 17  1  0  0  0  0
 18 17  1  0  0  0  0
 19 20  1  0  0  0  0
 19 18  1  0  0  0  0
 21 20  1  0  0  0  0
 23 24  1  1  0  0  0
 23 25  1  0  0  0  0
 23 22  1  0  0  0  0
 25 21  1  6  0  0  0
 25 22  1  0  0  0  0
M  END
>  <MODEL>
8

>  <REMARK>
 VINA RESULT:      -5.6      2.404      5.135
  Name = 
  12 active torsions:
  status: ('A' for Active; 'I' for Inactive)
    1  A    between atoms: C_1  and  N_3
    2  A    between atoms: C_1  and  C_18
    3  A    between atoms: C_1  and  C_24
    4  A    between atoms: N_3  and  C_16
    5  A    between atoms: C_6  and  C_15
    6  A    between atoms: C_6  and  N_21
    7  A    between atoms: O_13  and  C_24
    8  A    between atoms: C_15  and  N_20
    9  A    between atoms: C_16  and  C_23
   10  A    between atoms: C_17  and  C_18
   11  A    between atoms: N_20  and  C_23
   12  A    between atoms: N_21  and  C_25
                            x       y       z     vdW  Elec       q    Type
                         _______ _______ _______ _____ _____    ______ ____

>  <TORSDO>
F 12

$$$$
=
 OpenBabel11052412543D

 25 26  0  0  1  0  0  0  0  0999 V2000
  188.6900  177.2430  145.9500 C   0  0  1  0  0  3  0  0  0  0  0  0
  189.6040  176.1730  143.8580 C   0  0  0  0  0  2  0  0  0  0  0  0
  190.4480  178.4400  144.5840 C   0  0  0  0  0  2  0  0  0  0  0  0
  192.4330  177.1070  142.0450 O   0  0  0  0  0  0  0  0  0  0  0  0
  191.3520  177.3450  142.5570 C   0  0  0  0  0  0  0  0  0  0  0  0
  191.0990  178.6620  143.2170 C   0  0  0  0  0  2  0  0  0  0  0  0
  189.2160  177.5140  144.5200 C   0  0  0  0  0  0  0  0  0  0  0  0
  190.2400  176.3500  142.4770 C   0  0  0  0  0  2  0  0  0  0  0  0
  188.1120  178.1980  143.7000 C   0  0  0  0  0  2  0  0  0  0  0  0
  187.2900  177.2550  143.0750 O   0  0  0  0  0  1  0  0  0  0  0  0
  189.8960  177.9510  147.8840 O   0  0  0  0  0  0  0  0  0  0  0  0
  189.7800  177.0890  146.9720 C   0  0  0  0  0  0  0  0  0  0  0  0
  190.6440  175.9930  146.9130 O   0  0  0  0  0  0  0  0  0  0  0  0
  192.0170  176.1040  147.2530 C   0  0  0  0  0  1  0  0  0  0  0  0
  187.7470  178.2720  146.3760 N   0  0  0  0  0  2  0  0  0  0  0  0
  186.4880  177.6050  146.6630 C   0  0  0  0  0  2  0  0  0  0  0  0
  185.4510  178.6230  147.0940 C   0  0  0  0  0  2  0  0  0  0  0  0
  184.3100  178.5800  146.1930 N   0  0  0  0  0  2  0  0  0  0  0  0
  184.7870  178.9830  144.8790 C   0  0  0  0  0  2  0  0  0  0  0  0
  183.7440  178.6640  143.8220 C   0  0  0  0  0  2  0  0  0  0  0  0
  184.0800  179.3360  142.5780 N   0  0  0  0  0  2  0  0  0  0  0  0
  184.8360  178.9040  140.3210 C   0  0  0  0  0  2  0  0  0  0  0  0
  183.3500  178.6270  140.3860 C   0  0  1  0  0  3  0  0  0  0  0  0
  183.0480  177.3480  139.6350 C   0  0  0  0  0  1  0  0  0  0  0  0
  184.2350  178.3000  141.5730 C   0  0  2  0  0  3  0  0  0  0  0  0
  1 15  1  1  0  0  0
  1 12  1  0  0  0  0
  2  7  1  0  0  0  0
  4  5  2  0  0  0  0
  5  6  1  0  0  0  0
  6  3  1  0  0  0  0
  7  3  1  0  0  0  0
  7  1  1  0  0  0  0
  8  5  1  0  0  0  0
  8  2  1  0  0  0  0
  9  7  1  0  0  0  0
 10  9  1  0  0  0  0
 12 11  2  0  0  0  0
 13 12  1  0  0  0  0
 13 14  1  0  0  0  0
 15 16  1  0  0  0  0
 16 17  1  0  0  0  0
 18 17  1  0  0  0  0
 19 18  1  0  0  0  0
 20 19  1  0  0  0  0
 21 20  1  0  0  0  0
 22 23  1  0  0  0  0
 22 25  1  0  0  0  0
 23 24  1  6  0  0  0
 23 25  1  0  0  0  0
 25 21  1  1  0  0  0
M  END
>  <MODEL>
9

>  <REMARK>
 VINA RESULT:      -5.6      2.124      4.996
  Name = 
  12 active torsions:
  status: ('A' for Active; 'I' for Inactive)
    1  A    between atoms: C_1  and  N_3
    2  A    between atoms: C_1  and  C_18
    3  A    between atoms: C_1  and  C_24
    4  A    between atoms: N_3  and  C_16
    5  A    between atoms: C_6  and  C_15
    6  A    between atoms: C_6  and  N_21
    7  A    between atoms: O_13  and  C_24
    8  A    between atoms: C_15  and  N_20
    9  A    between atoms: C_16  and  C_23
   10  A    between atoms: C_17  and  C_18
   11  A    between atoms: N_20  and  C_23
   12  A    between atoms: N_21  and  C_25
                            x       y       z     vdW  Elec       q    Type
                         _______ _______ _______ _____ _____    ______ ____

>  <TORSDO>
F 12

$$$$
