=
 OpenBabel11052416123D

 43 49  0  0  1  0  0  0  0  0999 V2000
  190.3550  177.2930  141.3940 C   0  0  0  0  0  2  0  0  0  0  0  0
  189.0040  177.4620  140.8510 N   0  0  0  0  0  0  0  0  0  0  0  0
  190.3840  176.1090  142.3590 C   0  0  0  0  0  2  0  0  0  0  0  0
  188.0730  177.8050  141.9280 C   0  0  0  0  0  2  0  0  0  0  0  0
  188.0100  176.6650  142.9460 C   0  0  1  0  0  3  0  0  0  0  0  0
  189.4040  176.3550  143.5010 C   0  0  0  0  0  2  0  0  0  0  0  0
  188.7400  178.0480  147.8070 C   0  0  0  0  0  0  0  0  0  0  0  0
  185.8690  177.9140  143.6440 C   0  0  0  0  0  0  0  0  0  0  0  0
  186.8770  178.1150  146.2810 C   0  0  0  0  0  0  0  0  0  0  0  0
  189.4400  177.3040  146.9100 N   0  0  0  0  0  0  0  0  0  0  0  0
  189.3520  178.4070  149.1130 C   0  0  0  0  0  1  0  0  0  0  0  0
  187.6160  177.3630  145.3560 C   0  0  0  0  0  0  0  0  0  0  0  0
  187.4370  178.4550  147.5140 C   0  0  0  0  0  3  0  0  0  0  0  0
  188.9090  176.9500  145.7080 C   0  0  0  0  0  3  0  0  0  0  0  0
  186.9730  176.9480  144.0490 C   0  0  2  0  0  3  0  0  0  0  0  0
  185.2200  178.5930  144.5480 N   0  0  0  0  0  0  0  0  0  0  0  0
  185.5100  178.0510  142.2650 N   0  0  0  0  0  2  0  0  0  0  0  0
  185.4510  178.4630  145.9880 C   0  0  0  0  0  2  0  0  0  0  0  0
  184.3650  178.8390  141.8240 C   0  0  0  0  0  2  0  0  0  0  0  0
  183.4960  177.9160  138.1730 C   0  0  0  0  0  2  0  0  0  0  0  0
  182.0570  178.2180  138.2080 N   0  0  0  0  0  0  0  0  0  0  0  0
  182.1620  178.4640  140.6890 C   0  0  0  0  0  2  0  0  0  0  0  0
  184.2610  178.5670  139.3290 C   0  0  0  0  0  2  0  0  0  0  0  0
  183.6530  178.1500  140.6650 C   0  0  0  0  0  3  0  0  0  0  0  0
  181.4700  177.8080  139.4910 C   0  0  0  0  0  2  0  0  0  0  0  0
  180.9680  179.8500  136.7580 C   0  0  0  0  0  1  0  0  0  0  0  0
  181.8300  179.6450  137.9890 C   0  0  0  0  0  2  0  0  0  0  0  0
  189.0020  178.5260  139.8410 C   0  0  0  0  0  2  0  0  0  0  0  0
  188.0640  178.2490  138.6670 C   0  0  0  0  0  2  0  0  0  0  0  0
  188.1510  176.7810  138.2990 C   0  0  0  0  0  2  0  0  0  0  0  0
  187.1110  176.4410  137.2330 C   0  0  1  0  0  0  0  0  0  0  0  0
  187.6610  175.6150  136.0850 C   0  0  1  0  0  0  0  0  0  0  0  0
  186.8650  174.9940  137.1570 N   0  0  0  0  0  0  0  0  0  0  0  0
  187.3890  177.0940  135.9030 C   0  0  0  0  0  2  0  0  0  0  0  0
  189.1370  175.2640  136.1840 C   0  0  0  0  0  0  0  0  0  0  0  0
  191.4610  175.7260  135.6260 C   0  0  0  0  0  3  0  0  0  0  0  0
  190.8960  173.7240  136.8640 C   0  0  0  0  0  3  0  0  0  0  0  0
  191.8550  174.5530  136.2750 C   0  0  0  0  0  3  0  0  0  0  0  0
  189.5440  174.0740  136.8130 C   0  0  0  0  0  3  0  0  0  0  0  0
  190.1090  176.0760  135.5740 C   0  0  0  0  0  3  0  0  0  0  0  0
  185.5190  174.8040  136.6400 C   0  0  0  0  0  2  0  0  0  0  0  0
  185.6030  172.9080  138.0850 O   0  0  0  0  0  1  0  0  0  0  0  0
  184.7430  173.8680  137.5490 C   0  0  0  0  0  2  0  0  0  0  0  0
  1  3  1  0  0  0  0
  2  1  1  0  0  0  0
  2  4  1  0  0  0  0
  3  6  1  0  0  0  0
  5  4  1  6  0  0  0
  5  6  1  0  0  0  0
  5 15  1  0  0  0  0
  7 11  1  0  0  0  0
  8 16  2  0  0  0  0
  9 13  2  0  0  0  0
 10  7  2  0  0  0  0
 12 14  2  0  0  0  0
 12  9  1  0  0  0  0
 13  7  1  0  0  0  0
 14 10  1  0  0  0  0
 15  8  1  6  0  0  0
 15 12  1  0  0  0  0
 16 18  1  0  0  0  0
 17  8  1  0  0  0  0
 18  9  1  0  0  0  0
 19 17  1  0  0  0  0
 20 21  1  0  0  0  0
 20 23  1  0  0  0  0
 21 25  1  0  0  0  0
 23 24  1  0  0  0  0
 24 22  1  0  0  0  0
 24 19  1  0  0  0  0
 25 22  1  0  0  0  0
 26 27  1  0  0  0  0
 27 21  1  0  0  0  0
 28  2  1  0  0  0  0
 29 28  1  0  0  0  0
 30 29  1  0  0  0  0
 31 30  1  1  0  0  0
 32 35  1  1  0  0  0
 32 33  1  0  0  0  0
 32 31  1  0  0  0  0
 33 31  1  0  0  0  0
 34 32  1  0  0  0  0
 34 31  1  0  0  0  0
 35 39  1  0  0  0  0
 36 38  2  0  0  0  0
 38 37  1  0  0  0  0
 39 37  2  0  0  0  0
 40 36  1  0  0  0  0
 40 35  2  0  0  0  0
 41 33  1  0  0  0  0
 41 43  1  0  0  0  0
 43 42  1  0  0  0  0
M  END
>  <MODEL>
1

>  <REMARK>
 VINA RESULT:      -8.5      0.000      0.000
  Name = 
  11 active torsions:
  status: ('A' for Active; 'I' for Inactive)
    1  A    between atoms: C_1  and  N_34
    2  A    between atoms: C_1  and  C_35
    3  A    between atoms: C_3  and  C_4
    4  A    between atoms: C_3  and  C_12
    5  A    between atoms: N_6  and  C_17
    6  A    between atoms: C_10  and  N_22
    7  A    between atoms: C_10  and  C_42
    8  A    between atoms: C_11  and  C_14
    9  A    between atoms: C_12  and  C_17
   10  A    between atoms: N_19  and  C_37
   11  A    between atoms: C_27  and  C_30
                            x       y       z     vdW  Elec       q    Type
                         _______ _______ _______ _____ _____    ______ ____

>  <TORSDO>
F 11

$$$$
=
 OpenBabel11052416123D

 43 49  0  0  1  0  0  0  0  0999 V2000
  189.1880  177.3510  142.1790 C   0  0  0  0  0  2  0  0  0  0  0  0
  188.2490  177.6770  141.1030 N   0  0  0  0  0  0  0  0  0  0  0  0
  188.4630  176.6030  143.2950 C   0  0  0  0  0  2  0  0  0  0  0  0
  187.2240  178.5990  141.5970 C   0  0  0  0  0  2  0  0  0  0  0  0
  186.4170  177.9320  142.7130 C   0  0  1  0  0  3  0  0  0  0  0  0
  187.3380  177.4710  143.8480 C   0  0  0  0  0  2  0  0  0  0  0  0
  181.5910  178.2180  141.0690 C   0  0  0  0  0  0  0  0  0  0  0  0
  185.0530  178.8250  144.7070 C   0  0  0  0  0  0  0  0  0  0  0  0
  182.7530  178.9170  143.0590 C   0  0  0  0  0  0  0  0  0  0  0  0
  182.7820  177.9120  140.4870 N   0  0  0  0  0  0  0  0  0  0  0  0
  180.3250  178.0190  140.3150 C   0  0  0  0  0  1  0  0  0  0  0  0
  183.9750  178.5800  142.4570 C   0  0  0  0  0  0  0  0  0  0  0  0
  181.5570  178.7410  142.3620 C   0  0  0  0  0  3  0  0  0  0  0  0
  183.9610  178.0870  141.1430 C   0  0  0  0  0  3  0  0  0  0  0  0
  185.2690  178.8360  143.2000 C   0  0  2  0  0  3  0  0  0  0  0  0
  183.8930  179.1400  145.2100 N   0  0  0  0  0  0  0  0  0  0  0  0
  186.1400  178.5050  145.5820 N   0  0  0  0  0  2  0  0  0  0  0  0
  182.7430  179.5630  144.4090 C   0  0  0  0  0  2  0  0  0  0  0  0
  186.0450  178.6250  147.0320 C   0  0  0  0  0  2  0  0  0  0  0  0
  189.6380  178.3870  148.4330 C   0  0  0  0  0  2  0  0  0  0  0  0
  190.0830  177.1960  147.6940 N   0  0  0  0  0  0  0  0  0  0  0  0
  187.7400  176.7820  146.9400 C   0  0  0  0  0  2  0  0  0  0  0  0
  188.3960  179.0340  147.8140 C   0  0  0  0  0  2  0  0  0  0  0  0
  187.2690  178.0120  147.7040 C   0  0  0  0  0  3  0  0  0  0  0  0
  188.9990  176.2090  147.5970 C   0  0  0  0  0  2  0  0  0  0  0  0
  191.5680  176.5670  145.8630 C   0  0  0  0  0  1  0  0  0  0  0  0
  190.5400  177.5680  146.3570 C   0  0  0  0  0  2  0  0  0  0  0  0
  188.9680  178.2960  139.9840 C   0  0  0  0  0  2  0  0  0  0  0  0
  190.0830  177.4180  139.4180 C   0  0  0  0  0  2  0  0  0  0  0  0
  189.4670  176.2120  138.7360 C   0  0  0  0  0  2  0  0  0  0  0  0
  190.4910  175.5420  137.8210 C   0  0  1  0  0  0  0  0  0  0  0  0
  190.1130  175.5780  136.3520 C   0  0  1  0  0  0  0  0  0  0  0  0
  191.1120  176.5070  136.9030 N   0  0  0  0  0  0  0  0  0  0  0  0
  189.9640  174.2990  137.1510 C   0  0  0  0  0  2  0  0  0  0  0  0
  188.7950  176.2680  136.0350 C   0  0  0  0  0  0  0  0  0  0  0  0
  187.5090  178.3040  135.6770 C   0  0  0  0  0  3  0  0  0  0  0  0
  186.3870  176.1580  135.6910 C   0  0  0  0  0  3  0  0  0  0  0  0
  186.3390  177.5480  135.5570 C   0  0  0  0  0  3  0  0  0  0  0  0
  187.6080  175.5220  135.9360 C   0  0  0  0  0  3  0  0  0  0  0  0
  188.7290  177.6670  135.9220 C   0  0  0  0  0  3  0  0  0  0  0  0
  192.4250  175.9920  136.5460 C   0  0  0  0  0  2  0  0  0  0  0  0
  193.5080  177.0570  138.3860 O   0  0  0  0  0  1  0  0  0  0  0  0
  193.2690  175.8150  137.7950 C   0  0  0  0  0  2  0  0  0  0  0  0
  1  3  1  0  0  0  0
  2  4  1  0  0  0  0
  2  1  1  0  0  0  0
  3  6  1  0  0  0  0
  5  4  1  6  0  0  0
  5 15  1  0  0  0  0
  5  6  1  0  0  0  0
  7 13  1  0  0  0  0
  8 16  2  0  0  0  0
  8 17  1  0  0  0  0
  9 18  1  0  0  0  0
 10  7  2  0  0  0  0
 10 14  1  0  0  0  0
 11  7  1  0  0  0  0
 12  9  1  0  0  0  0
 13  9  2  0  0  0  0
 14 12  2  0  0  0  0
 15 12  1  6  0  0  0
 15  8  1  0  0  0  0
 17 19  1  0  0  0  0
 18 16  1  0  0  0  0
 19 24  1  0  0  0  0
 21 20  1  0  0  0  0
 22 25  1  0  0  0  0
 22 24  1  0  0  0  0
 23 20  1  0  0  0  0
 24 23  1  0  0  0  0
 25 21  1  0  0  0  0
 26 27  1  0  0  0  0
 27 21  1  0  0  0  0
 28  2  1  0  0  0  0
 29 28  1  0  0  0  0
 30 29  1  0  0  0  0
 31 30  1  1  0  0  0
 32 35  1  6  0  0  0
 32 33  1  0  0  0  0
 32 34  1  0  0  0  0
 32 31  1  0  0  0  0
 33 31  1  0  0  0  0
 34 31  1  0  0  0  0
 36 40  1  0  0  0  0
 37 39  2  0  0  0  0
 38 36  2  0  0  0  0
 38 37  1  0  0  0  0
 39 35  1  0  0  0  0
 40 35  2  0  0  0  0
 41 33  1  0  0  0  0
 41 43  1  0  0  0  0
 43 42  1  0  0  0  0
M  END
>  <MODEL>
2

>  <REMARK>
 VINA RESULT:      -8.4      2.226      6.750
  Name = 
  11 active torsions:
  status: ('A' for Active; 'I' for Inactive)
    1  A    between atoms: C_1  and  N_34
    2  A    between atoms: C_1  and  C_35
    3  A    between atoms: C_3  and  C_4
    4  A    between atoms: C_3  and  C_12
    5  A    between atoms: N_6  and  C_17
    6  A    between atoms: C_10  and  N_22
    7  A    between atoms: C_10  and  C_42
    8  A    between atoms: C_11  and  C_14
    9  A    between atoms: C_12  and  C_17
   10  A    between atoms: N_19  and  C_37
   11  A    between atoms: C_27  and  C_30
                            x       y       z     vdW  Elec       q    Type
                         _______ _______ _______ _____ _____    ______ ____

>  <TORSDO>
F 11

$$$$
=
 OpenBabel11052416123D

 43 49  0  0  1  0  0  0  0  0999 V2000
  182.7870  179.1810  143.1230 C   0  0  0  0  0  2  0  0  0  0  0  0
  183.7470  178.6190  142.1690 N   0  0  0  0  0  0  0  0  0  0  0  0
  181.4720  178.4070  143.0570 C   0  0  0  0  0  2  0  0  0  0  0  0
  183.2510  178.7930  140.8020 C   0  0  0  0  0  2  0  0  0  0  0  0
  181.9370  178.0300  140.6220 C   0  0  1  0  0  3  0  0  0  0  0  0
  180.8960  178.4920  141.6480 C   0  0  0  0  0  2  0  0  0  0  0  0
  180.2590  182.0790  137.9990 C   0  0  0  0  0  0  0  0  0  0  0  0
  182.3480  177.4730  138.1410 C   0  0  0  0  0  0  0  0  0  0  0  0
  181.0490  179.8800  137.4120 C   0  0  0  0  0  0  0  0  0  0  0  0
  180.2470  181.7170  139.3110 N   0  0  0  0  0  0  0  0  0  0  0  0
  179.8340  183.4460  137.6030 C   0  0  0  0  0  1  0  0  0  0  0  0
  181.0500  179.5240  138.7690 C   0  0  0  0  0  0  0  0  0  0  0  0
  180.6470  181.1600  137.0240 C   0  0  0  0  0  3  0  0  0  0  0  0
  180.6220  180.4720  139.7110 C   0  0  0  0  0  3  0  0  0  0  0  0
  181.4280  178.1140  139.1700 C   0  0  2  0  0  3  0  0  0  0  0  0
  182.3080  177.8500  136.8940 N   0  0  0  0  0  0  0  0  0  0  0  0
  183.2370  176.4230  138.5340 N   0  0  0  0  0  2  0  0  0  0  0  0
  181.3780  178.8540  136.3740 C   0  0  0  0  0  2  0  0  0  0  0  0
  184.0320  175.6640  137.5760 C   0  0  0  0  0  2  0  0  0  0  0  0
  187.6730  176.4490  136.5460 C   0  0  0  0  0  2  0  0  0  0  0  0
  187.9250  177.5660  137.4690 N   0  0  0  0  0  0  0  0  0  0  0  0
  185.5010  177.6370  138.0560 C   0  0  0  0  0  2  0  0  0  0  0  0
  186.4670  175.6030  136.9630 C   0  0  0  0  0  2  0  0  0  0  0  0
  185.2280  176.4820  137.1010 C   0  0  0  0  0  3  0  0  0  0  0  0
  186.7340  178.4170  137.5940 C   0  0  0  0  0  2  0  0  0  0  0  0
  189.5730  177.7710  139.2570 C   0  0  0  0  0  1  0  0  0  0  0  0
  188.3180  177.0620  138.7830 C   0  0  0  0  0  2  0  0  0  0  0  0
  185.0430  179.2900  142.3110 C   0  0  0  0  0  2  0  0  0  0  0  0
  186.1720  178.5980  141.5490 C   0  0  0  0  0  2  0  0  0  0  0  0
  187.3560  178.4130  142.4770 C   0  0  0  0  0  2  0  0  0  0  0  0
  186.9560  177.5610  143.6800 C   0  0  1  0  0  0  0  0  0  0  0  0
  188.1350  177.0580  144.4910 C   0  0  1  0  0  0  0  0  0  0  0  0
  187.3300  178.2020  144.9480 N   0  0  0  0  0  0  0  0  0  0  0  0
  187.3930  176.1230  143.5600 C   0  0  0  0  0  2  0  0  0  0  0  0
  189.5050  177.4820  143.9820 C   0  0  0  0  0  0  0  0  0  0  0  0
  191.4710  177.0630  142.6100 C   0  0  0  0  0  3  0  0  0  0  0  0
  191.4170  178.9860  144.0800 C   0  0  0  0  0  3  0  0  0  0  0  0
  192.0810  178.2100  143.1260 C   0  0  0  0  0  3  0  0  0  0  0  0
  190.1390  178.6200  144.5110 C   0  0  0  0  0  3  0  0  0  0  0  0
  190.1930  176.6970  143.0410 C   0  0  0  0  0  3  0  0  0  0  0  0
  186.4230  177.7100  145.9740 C   0  0  0  0  0  2  0  0  0  0  0  0
  184.3950  178.9380  146.2360 O   0  0  0  0  0  1  0  0  0  0  0  0
  185.7260  178.8760  146.6510 C   0  0  0  0  0  2  0  0  0  0  0  0
  2 28  1  0  0  0  0
  2  1  1  0  0  0  0
  3  1  1  0  0  0  0
  4  2  1  0  0  0  0
  5  4  1  6  0  0  0
  5  6  1  0  0  0  0
  6  3  1  0  0  0  0
  7 10  1  0  0  0  0
  8 17  1  0  0  0  0
  9 12  2  0  0  0  0
 10 14  2  0  0  0  0
 11  7  1  0  0  0  0
 12 15  1  0  0  0  0
 12 14  1  0  0  0  0
 13  9  1  0  0  0  0
 13  7  2  0  0  0  0
 15  8  1  6  0  0  0
 15  5  1  0  0  0  0
 16  8  2  0  0  0  0
 18 16  1  0  0  0  0
 18  9  1  0  0  0  0
 19 17  1  0  0  0  0
 20 23  1  0  0  0  0
 20 21  1  0  0  0  0
 21 25  1  0  0  0  0
 21 27  1  0  0  0  0
 23 24  1  0  0  0  0
 24 19  1  0  0  0  0
 24 22  1  0  0  0  0
 25 22  1  0  0  0  0
 27 26  1  0  0  0  0
 29 28  1  0  0  0  0
 29 30  1  0  0  0  0
 31 30  1  6  0  0  0
 31 32  1  0  0  0  0
 31 33  1  0  0  0  0
 32 35  1  6  0  0  0
 32 33  1  0  0  0  0
 33 41  1  0  0  0  0
 34 31  1  0  0  0  0
 34 32  1  0  0  0  0
 35 39  1  0  0  0  0
 36 40  1  0  0  0  0
 36 38  2  0  0  0  0
 37 39  2  0  0  0  0
 38 37  1  0  0  0  0
 40 35  2  0  0  0  0
 41 43  1  0  0  0  0
 42 43  1  0  0  0  0
M  END
>  <MODEL>
3

>  <REMARK>
 VINA RESULT:      -8.4      2.563      8.382
  Name = 
  11 active torsions:
  status: ('A' for Active; 'I' for Inactive)
    1  A    between atoms: C_1  and  N_34
    2  A    between atoms: C_1  and  C_35
    3  A    between atoms: C_3  and  C_4
    4  A    between atoms: C_3  and  C_12
    5  A    between atoms: N_6  and  C_17
    6  A    between atoms: C_10  and  N_22
    7  A    between atoms: C_10  and  C_42
    8  A    between atoms: C_11  and  C_14
    9  A    between atoms: C_12  and  C_17
   10  A    between atoms: N_19  and  C_37
   11  A    between atoms: C_27  and  C_30
                            x       y       z     vdW  Elec       q    Type
                         _______ _______ _______ _____ _____    ______ ____

>  <TORSDO>
F 11

$$$$
=
 OpenBabel11052416123D

 43 49  0  0  1  0  0  0  0  0999 V2000
  189.6370  178.4360  139.7880 C   0  0  0  0  0  2  0  0  0  0  0  0
  189.7140  177.0540  140.2700 N   0  0  0  0  0  0  0  0  0  0  0  0
  188.8410  178.4890  138.4850 C   0  0  0  0  0  2  0  0  0  0  0  0
  190.4610  176.2330  139.3140 C   0  0  0  0  0  2  0  0  0  0  0  0
  189.7300  176.2020  137.9700 C   0  0  1  0  0  3  0  0  0  0  0  0
  189.5220  177.6210  137.4320 C   0  0  0  0  0  2  0  0  0  0  0  0
  194.6210  174.7460  137.7790 C   0  0  0  0  0  0  0  0  0  0  0  0
  189.7370  173.9420  136.7330 C   0  0  0  0  0  0  0  0  0  0  0  0
  192.5670  173.9340  136.8190 C   0  0  0  0  0  0  0  0  0  0  0  0
  193.9720  175.8600  138.2110 N   0  0  0  0  0  0  0  0  0  0  0  0
  196.0740  174.5820  138.0490 C   0  0  0  0  0  1  0  0  0  0  0  0
  191.9030  175.0780  137.2860 C   0  0  0  0  0  0  0  0  0  0  0  0
  193.9320  173.7680  137.0600 C   0  0  0  0  0  3  0  0  0  0  0  0
  192.6450  176.0490  137.9760 C   0  0  0  0  0  3  0  0  0  0  0  0
  190.4370  175.2750  136.9630 C   0  0  2  0  0  3  0  0  0  0  0  0
  190.4080  172.9100  136.3050 N   0  0  0  0  0  0  0  0  0  0  0  0
  188.3270  173.8290  136.9500 N   0  0  0  0  0  2  0  0  0  0  0  0
  191.8330  172.9420  135.9720 C   0  0  0  0  0  2  0  0  0  0  0  0
  187.5710  172.6320  136.6040 C   0  0  0  0  0  2  0  0  0  0  0  0
  184.5890  174.7540  135.3610 C   0  0  0  0  0  2  0  0  0  0  0  0
  183.7320  174.6460  136.5520 N   0  0  0  0  0  0  0  0  0  0  0  0
  185.2370  172.8860  137.4820 C   0  0  0  0  0  2  0  0  0  0  0  0
  186.0480  174.3870  135.6510 C   0  0  0  0  0  2  0  0  0  0  0  0
  186.1300  172.9880  136.2520 C   0  0  0  0  0  3  0  0  0  0  0  0
  183.8060  173.2950  137.1240 C   0  0  0  0  0  2  0  0  0  0  0  0
  183.0620  175.7320  138.6310 C   0  0  0  0  0  1  0  0  0  0  0  0
  184.1250  175.6350  137.5530 C   0  0  0  0  0  2  0  0  0  0  0  0
  190.3810  177.0180  141.5750 C   0  0  0  0  0  2  0  0  0  0  0  0
  190.2690  178.3290  142.3520 C   0  0  0  0  0  2  0  0  0  0  0  0
  189.3980  178.1090  143.5730 C   0  0  0  0  0  2  0  0  0  0  0  0
  188.0600  177.4960  143.1630 C   0  0  1  0  0  0  0  0  0  0  0  0
  187.1720  177.1290  144.3380 C   0  0  1  0  0  0  0  0  0  0  0  0
  186.9290  178.3510  143.5530 N   0  0  0  0  0  0  0  0  0  0  0  0
  187.9170  176.0530  143.5770 C   0  0  0  0  0  2  0  0  0  0  0  0
  187.7500  177.4310  145.7120 C   0  0  0  0  0  0  0  0  0  0  0  0
  189.5400  177.2040  147.3470 C   0  0  0  0  0  3  0  0  0  0  0  0
  187.4910  178.3420  147.9550 C   0  0  0  0  0  3  0  0  0  0  0  0
  188.7730  177.8960  148.2890 C   0  0  0  0  0  3  0  0  0  0  0  0
  186.9800  178.1040  146.6760 C   0  0  0  0  0  3  0  0  0  0  0  0
  189.0290  176.9670  146.0680 C   0  0  0  0  0  3  0  0  0  0  0  0
  185.8310  178.0680  142.6430 C   0  0  0  0  0  2  0  0  0  0  0  0
  185.4450  179.4210  140.7160 O   0  0  0  0  0  1  0  0  0  0  0  0
  185.2620  179.3660  142.0990 C   0  0  0  0  0  2  0  0  0  0  0  0
  1  2  1  0  0  0  0
  2 28  1  0  0  0  0
  3  1  1  0  0  0  0
  4  2  1  0  0  0  0
  5  6  1  6  0  0  0
  5  4  1  0  0  0  0
  6  3  1  0  0  0  0
  7 11  1  0  0  0  0
  7 10  1  0  0  0  0
  8 17  1  0  0  0  0
  9 13  1  0  0  0  0
  9 12  2  0  0  0  0
 12 14  1  0  0  0  0
 13  7  2  0  0  0  0
 14 10  2  0  0  0  0
 15  8  1  1  0  0  0
 15 12  1  0  0  0  0
 15  5  1  0  0  0  0
 16  8  2  0  0  0  0
 18 16  1  0  0  0  0
 18  9  1  0  0  0  0
 19 17  1  0  0  0  0
 20 23  1  0  0  0  0
 20 21  1  0  0  0  0
 21 25  1  0  0  0  0
 21 27  1  0  0  0  0
 23 24  1  0  0  0  0
 24 19  1  0  0  0  0
 24 22  1  0  0  0  0
 25 22  1  0  0  0  0
 27 26  1  0  0  0  0
 28 29  1  0  0  0  0
 29 30  1  0  0  0  0
 31 33  1  0  0  0  0
 31 30  1  1  0  0  0
 31 34  1  0  0  0  0
 31 32  1  0  0  0  0
 32 35  1  1  0  0  0
 33 32  1  0  0  0  0
 34 32  1  0  0  0  0
 35 40  2  0  0  0  0
 35 39  1  0  0  0  0
 36 38  2  0  0  0  0
 37 38  1  0  0  0  0
 39 37  2  0  0  0  0
 40 36  1  0  0  0  0
 41 33  1  0  0  0  0
 42 43  1  0  0  0  0
 43 41  1  0  0  0  0
M  END
>  <MODEL>
4

>  <REMARK>
 VINA RESULT:      -8.4      2.318      8.430
  Name = 
  11 active torsions:
  status: ('A' for Active; 'I' for Inactive)
    1  A    between atoms: C_1  and  N_34
    2  A    between atoms: C_1  and  C_35
    3  A    between atoms: C_3  and  C_4
    4  A    between atoms: C_3  and  C_12
    5  A    between atoms: N_6  and  C_17
    6  A    between atoms: C_10  and  N_22
    7  A    between atoms: C_10  and  C_42
    8  A    between atoms: C_11  and  C_14
    9  A    between atoms: C_12  and  C_17
   10  A    between atoms: N_19  and  C_37
   11  A    between atoms: C_27  and  C_30
                            x       y       z     vdW  Elec       q    Type
                         _______ _______ _______ _____ _____    ______ ____

>  <TORSDO>
F 11

$$$$
=
 OpenBabel11052416123D

 43 49  0  0  1  0  0  0  0  0999 V2000
  189.3390  177.2990  140.8830 C   0  0  0  0  0  2  0  0  0  0  0  0
  188.2040  177.9040  140.1810 N   0  0  0  0  0  0  0  0  0  0  0  0
  188.8340  176.3520  141.9700 C   0  0  0  0  0  2  0  0  0  0  0  0
  187.4310  178.7360  141.1060 C   0  0  0  0  0  2  0  0  0  0  0  0
  186.8570  177.8720  142.2300 C   0  0  1  0  0  3  0  0  0  0  0  0
  187.9740  177.1230  142.9650 C   0  0  0  0  0  2  0  0  0  0  0  0
  181.8080  178.6270  142.0810 C   0  0  0  0  0  0  0  0  0  0  0  0
  186.1570  178.3880  144.6550 C   0  0  0  0  0  0  0  0  0  0  0  0
  183.5170  178.8790  143.7610 C   0  0  0  0  0  0  0  0  0  0  0  0
  182.7700  178.4080  141.1440 N   0  0  0  0  0  0  0  0  0  0  0  0
  180.3750  178.6220  141.6880 C   0  0  0  0  0  1  0  0  0  0  0  0
  184.4990  178.6320  142.7900 C   0  0  0  0  0  0  0  0  0  0  0  0
  182.1660  178.8820  143.4060 C   0  0  0  0  0  3  0  0  0  0  0  0
  184.0930  178.4130  141.4660 C   0  0  0  0  0  3  0  0  0  0  0  0
  185.9620  178.6950  143.1770 C   0  0  2  0  0  3  0  0  0  0  0  0
  185.2050  178.6310  145.5110 N   0  0  0  0  0  0  0  0  0  0  0  0
  187.4070  177.8670  145.1170 N   0  0  0  0  0  2  0  0  0  0  0  0
  183.9230  179.2410  145.1550 C   0  0  0  0  0  2  0  0  0  0  0  0
  187.7150  177.6960  146.5320 C   0  0  0  0  0  2  0  0  0  0  0  0
  191.4810  177.8940  145.6880 C   0  0  0  0  0  2  0  0  0  0  0  0
  191.9110  176.6310  146.3080 N   0  0  0  0  0  0  0  0  0  0  0  0
  189.6770  176.3990  147.3960 C   0  0  0  0  0  2  0  0  0  0  0  0
  189.9690  177.9480  145.4530 C   0  0  0  0  0  2  0  0  0  0  0  0
  189.2220  177.7060  146.7610 C   0  0  0  0  0  3  0  0  0  0  0  0
  191.1980  176.4040  147.5720 C   0  0  0  0  0  2  0  0  0  0  0  0
  191.8290  175.9740  143.9600 C   0  0  0  0  0  1  0  0  0  0  0  0
  191.6800  175.5120  145.3970 C   0  0  0  0  0  2  0  0  0  0  0  0
  188.6880  178.7260  139.0670 C   0  0  0  0  0  2  0  0  0  0  0  0
  188.3320  178.1580  137.6940 C   0  0  0  0  0  2  0  0  0  0  0  0
  187.2330  177.1260  137.8530 C   0  0  0  0  0  2  0  0  0  0  0  0
  186.1390  177.3540  136.8110 C   0  0  1  0  0  0  0  0  0  0  0  0
  185.8650  176.1420  135.9400 C   0  0  1  0  0  0  0  0  0  0  0  0
  184.9710  176.4960  137.0550 N   0  0  0  0  0  0  0  0  0  0  0  0
  186.6530  177.3140  135.3940 C   0  0  0  0  0  2  0  0  0  0  0  0
  186.7100  174.9140  136.2460 C   0  0  0  0  0  0  0  0  0  0  0  0
  188.7550  173.6290  135.9420 C   0  0  0  0  0  3  0  0  0  0  0  0
  186.9380  172.7090  137.2520 C   0  0  0  0  0  3  0  0  0  0  0  0
  188.2270  172.5960  136.7230 C   0  0  0  0  0  3  0  0  0  0  0  0
  186.1810  173.8590  137.0090 C   0  0  0  0  0  3  0  0  0  0  0  0
  187.9980  174.7780  135.6990 C   0  0  0  0  0  3  0  0  0  0  0  0
  183.8110  177.1620  136.4840 C   0  0  0  0  0  2  0  0  0  0  0  0
  181.8570  178.4100  137.0460 O   0  0  0  0  0  1  0  0  0  0  0  0
  183.0320  177.8720  137.5750 C   0  0  0  0  0  2  0  0  0  0  0  0
  1  3  1  0  0  0  0
  2  1  1  0  0  0  0
  2  4  1  0  0  0  0
  3  6  1  0  0  0  0
  5  4  1  6  0  0  0
  5  6  1  0  0  0  0
  5 15  1  0  0  0  0
  7 13  1  0  0  0  0
  8 17  1  0  0  0  0
  8 16  2  0  0  0  0
  9 18  1  0  0  0  0
 10 14  1  0  0  0  0
 10  7  2  0  0  0  0
 11  7  1  0  0  0  0
 12  9  1  0  0  0  0
 13  9  2  0  0  0  0
 14 12  2  0  0  0  0
 15 12  1  6  0  0  0
 15  8  1  0  0  0  0
 17 19  1  0  0  0  0
 18 16  1  0  0  0  0
 19 24  1  0  0  0  0
 20 21  1  0  0  0  0
 21 25  1  0  0  0  0
 22 25  1  0  0  0  0
 23 20  1  0  0  0  0
 23 24  1  0  0  0  0
 24 22  1  0  0  0  0
 26 27  1  0  0  0  0
 27 21  1  0  0  0  0
 28  2  1  0  0  0  0
 29 30  1  0  0  0  0
 29 28  1  0  0  0  0
 31 33  1  0  0  0  0
 31 30  1  1  0  0  0
 32 35  1  1  0  0  0
 32 31  1  0  0  0  0
 32 33  1  0  0  0  0
 34 32  1  0  0  0  0
 34 31  1  0  0  0  0
 35 39  1  0  0  0  0
 36 38  2  0  0  0  0
 38 37  1  0  0  0  0
 39 37  2  0  0  0  0
 40 36  1  0  0  0  0
 40 35  2  0  0  0  0
 41 33  1  0  0  0  0
 41 43  1  0  0  0  0
 42 43  1  0  0  0  0
M  END
>  <MODEL>
5

>  <REMARK>
 VINA RESULT:      -8.3      2.047      6.276
  Name = 
  11 active torsions:
  status: ('A' for Active; 'I' for Inactive)
    1  A    between atoms: C_1  and  N_34
    2  A    between atoms: C_1  and  C_35
    3  A    between atoms: C_3  and  C_4
    4  A    between atoms: C_3  and  C_12
    5  A    between atoms: N_6  and  C_17
    6  A    between atoms: C_10  and  N_22
    7  A    between atoms: C_10  and  C_42
    8  A    between atoms: C_11  and  C_14
    9  A    between atoms: C_12  and  C_17
   10  A    between atoms: N_19  and  C_37
   11  A    between atoms: C_27  and  C_30
                            x       y       z     vdW  Elec       q    Type
                         _______ _______ _______ _____ _____    ______ ____

>  <TORSDO>
F 11

$$$$
=
 OpenBabel11052416123D

 43 49  0  0  1  0  0  0  0  0999 V2000
  184.3070  179.0830  141.3400 C   0  0  0  0  0  2  0  0  0  0  0  0
  184.8890  179.3780  140.0280 N   0  0  0  0  0  0  0  0  0  0  0  0
  185.3650  179.2450  142.4280 C   0  0  0  0  0  2  0  0  0  0  0  0
  185.9340  178.4010  139.7140 C   0  0  0  0  0  2  0  0  0  0  0  0
  187.0640  178.4970  140.7410 C   0  0  1  0  0  3  0  0  0  0  0  0
  186.5260  178.2920  142.1610 C   0  0  0  0  0  2  0  0  0  0  0  0
  189.2220  177.5220  136.2170 C   0  0  0  0  0  0  0  0  0  0  0  0
  189.4630  177.7200  141.2660 C   0  0  0  0  0  0  0  0  0  0  0  0
  189.8660  177.1930  138.5140 C   0  0  0  0  0  0  0  0  0  0  0  0
  187.9730  177.8740  136.6240 N   0  0  0  0  0  0  0  0  0  0  0  0
  189.5510  177.4960  134.7670 C   0  0  0  0  0  1  0  0  0  0  0  0
  188.5800  177.5760  138.9240 C   0  0  0  0  0  0  0  0  0  0  0  0
  190.1880  177.1590  137.1560 C   0  0  0  0  0  3  0  0  0  0  0  0
  187.6330  177.9010  137.9410 C   0  0  0  0  0  3  0  0  0  0  0  0
  188.2260  177.5470  140.3960 C   0  0  2  0  0  3  0  0  0  0  0  0
  190.6340  177.3520  140.8300 N   0  0  0  0  0  0  0  0  0  0  0  0
  189.3360  178.2530  142.5880 N   0  0  0  0  0  2  0  0  0  0  0  0
  190.8590  176.7190  139.5290 C   0  0  0  0  0  2  0  0  0  0  0  0
  190.4510  178.3030  143.5270 C   0  0  0  0  0  2  0  0  0  0  0  0
  188.6540  176.6000  146.4950 C   0  0  0  0  0  2  0  0  0  0  0  0
  189.7060  176.7640  147.5100 N   0  0  0  0  0  0  0  0  0  0  0  0
  191.3050  177.5030  145.7430 C   0  0  0  0  0  2  0  0  0  0  0  0
  188.8420  177.5350  145.2970 C   0  0  0  0  0  2  0  0  0  0  0  0
  190.2240  177.3350  144.6830 C   0  0  0  0  0  3  0  0  0  0  0  0
  191.0350  176.5610  146.9200 C   0  0  0  0  0  2  0  0  0  0  0  0
  188.3020  178.2530  148.8400 C   0  0  0  0  0  1  0  0  0  0  0  0
  189.6260  178.0910  148.1160 C   0  0  0  0  0  2  0  0  0  0  0  0
  183.8460  179.3310  138.9970 C   0  0  0  0  0  2  0  0  0  0  0  0
  182.5400  180.0000  139.4230 C   0  0  0  0  0  2  0  0  0  0  0  0
  181.3810  179.3090  138.7310 C   0  0  0  0  0  2  0  0  0  0  0  0
  180.3390  178.8700  139.7580 C   0  0  1  0  0  0  0  0  0  0  0  0
  180.1760  177.3650  139.8570 C   0  0  1  0  0  0  0  0  0  0  0  0
  180.9490  178.1150  140.8610 N   0  0  0  0  0  0  0  0  0  0  0  0
  179.1390  178.2020  139.1370 C   0  0  0  0  0  2  0  0  0  0  0  0
  181.0670  176.5500  138.9320 C   0  0  0  0  0  0  0  0  0  0  0  0
  181.4550  175.4640  136.7890 C   0  0  0  0  0  3  0  0  0  0  0  0
  183.0760  175.2230  138.5710 C   0  0  0  0  0  3  0  0  0  0  0  0
  182.6670  174.9530  137.2620 C   0  0  0  0  0  3  0  0  0  0  0  0
  182.2770  176.0110  139.4040 C   0  0  0  0  0  3  0  0  0  0  0  0
  180.6560  176.2520  137.6220 C   0  0  0  0  0  3  0  0  0  0  0  0
  180.0960  178.2770  142.0290 C   0  0  0  0  0  2  0  0  0  0  0  0
  180.2710  180.5040  142.8670 O   0  0  0  0  0  1  0  0  0  0  0  0
  180.7600  179.2070  143.0280 C   0  0  0  0  0  2  0  0  0  0  0  0
  1  3  1  0  0  0  0
  2  1  1  0  0  0  0
  4  2  1  0  0  0  0
  5  4  1  6  0  0  0
  5  6  1  0  0  0  0
  6  3  1  0  0  0  0
  7 10  2  0  0  0  0
  7 13  1  0  0  0  0
  8 17  1  0  0  0  0
  9 12  1  0  0  0  0
  9 18  1  0  0  0  0
 10 14  1  0  0  0  0
 11  7  1  0  0  0  0
 13  9  2  0  0  0  0
 14 12  2  0  0  0  0
 15 12  1  6  0  0  0
 15  5  1  0  0  0  0
 15  8  1  0  0  0  0
 16  8  2  0  0  0  0
 17 19  1  0  0  0  0
 18 16  1  0  0  0  0
 19 24  1  0  0  0  0
 20 21  1  0  0  0  0
 21 27  1  0  0  0  0
 22 25  1  0  0  0  0
 23 20  1  0  0  0  0
 24 23  1  0  0  0  0
 24 22  1  0  0  0  0
 25 21  1  0  0  0  0
 27 26  1  0  0  0  0
 28 29  1  0  0  0  0
 28  2  1  0  0  0  0
 30 29  1  0  0  0  0
 31 30  1  6  0  0  0
 31 32  1  0  0  0  0
 31 33  1  0  0  0  0
 32 35  1  6  0  0  0
 32 33  1  0  0  0  0
 33 41  1  0  0  0  0
 34 31  1  0  0  0  0
 34 32  1  0  0  0  0
 35 39  1  0  0  0  0
 36 38  2  0  0  0  0
 36 40  1  0  0  0  0
 37 39  2  0  0  0  0
 38 37  1  0  0  0  0
 40 35  2  0  0  0  0
 41 43  1  0  0  0  0
 42 43  1  0  0  0  0
M  END
>  <MODEL>
6

>  <REMARK>
 VINA RESULT:      -8.3      2.652      8.613
  Name = 
  11 active torsions:
  status: ('A' for Active; 'I' for Inactive)
    1  A    between atoms: C_1  and  N_34
    2  A    between atoms: C_1  and  C_35
    3  A    between atoms: C_3  and  C_4
    4  A    between atoms: C_3  and  C_12
    5  A    between atoms: N_6  and  C_17
    6  A    between atoms: C_10  and  N_22
    7  A    between atoms: C_10  and  C_42
    8  A    between atoms: C_11  and  C_14
    9  A    between atoms: C_12  and  C_17
   10  A    between atoms: N_19  and  C_37
   11  A    between atoms: C_27  and  C_30
                            x       y       z     vdW  Elec       q    Type
                         _______ _______ _______ _____ _____    ______ ____

>  <TORSDO>
F 11

$$$$
=
 OpenBabel11052416123D

 43 49  0  0  1  0  0  0  0  0999 V2000
  188.1540  178.2530  139.7690 C   0  0  0  0  0  2  0  0  0  0  0  0
  186.7280  177.9810  139.5720 N   0  0  0  0  0  0  0  0  0  0  0  0
  188.6120  177.6860  141.1110 C   0  0  0  0  0  2  0  0  0  0  0  0
  185.9420  178.6830  140.5890 C   0  0  0  0  0  2  0  0  0  0  0  0
  186.3110  178.1680  141.9820 C   0  0  1  0  0  3  0  0  0  0  0  0
  187.8120  178.3290  142.2400 C   0  0  0  0  0  2  0  0  0  0  0  0
  181.2310  178.6280  142.2390 C   0  0  0  0  0  0  0  0  0  0  0  0
  185.7530  178.3530  144.4900 C   0  0  0  0  0  0  0  0  0  0  0  0
  183.0350  178.7830  143.8280 C   0  0  0  0  0  0  0  0  0  0  0  0
  182.1360  178.5800  141.2250 N   0  0  0  0  0  0  0  0  0  0  0  0
  179.7760  178.5820  141.9380 C   0  0  0  0  0  1  0  0  0  0  0  0
  183.9600  178.7130  142.7750 C   0  0  0  0  0  0  0  0  0  0  0  0
  181.6650  178.7470  143.5600 C   0  0  0  0  0  3  0  0  0  0  0  0
  183.4750  178.6270  141.4620 C   0  0  0  0  0  3  0  0  0  0  0  0
  185.4410  178.8180  143.0750 C   0  0  2  0  0  3  0  0  0  0  0  0
  184.8510  178.4350  145.4270 N   0  0  0  0  0  0  0  0  0  0  0  0
  187.0580  177.8580  144.8070 N   0  0  0  0  0  2  0  0  0  0  0  0
  183.5170  179.0030  145.2280 C   0  0  0  0  0  2  0  0  0  0  0  0
  187.4710  177.5410  146.1680 C   0  0  0  0  0  2  0  0  0  0  0  0
  191.1790  178.0330  145.1980 C   0  0  0  0  0  2  0  0  0  0  0  0
  191.7680  176.9830  146.0420 N   0  0  0  0  0  0  0  0  0  0  0  0
  189.5850  176.6950  147.2160 C   0  0  0  0  0  2  0  0  0  0  0  0
  189.6720  177.8510  144.9980 C   0  0  0  0  0  2  0  0  0  0  0  0
  188.9650  177.7830  146.3490 C   0  0  0  0  0  3  0  0  0  0  0  0
  191.0930  176.9240  147.3450 C   0  0  0  0  0  2  0  0  0  0  0  0
  191.6810  175.8730  143.8710 C   0  0  0  0  0  1  0  0  0  0  0  0
  191.6800  175.6850  145.3760 C   0  0  0  0  0  2  0  0  0  0  0  0
  186.3150  178.4260  138.2370 C   0  0  0  0  0  2  0  0  0  0  0  0
  185.4640  177.4000  137.4900 C   0  0  0  0  0  2  0  0  0  0  0  0
  184.0410  177.4640  138.0100 C   0  0  0  0  0  2  0  0  0  0  0  0
  183.4290  176.0640  138.0470 C   0  0  1  0  0  0  0  0  0  0  0  0
  182.1330  175.9440  137.2680 C   0  0  1  0  0  0  0  0  0  0  0  0
  183.4030  175.4480  136.7130 N   0  0  0  0  0  0  0  0  0  0  0  0
  182.1130  176.0120  138.7810 C   0  0  0  0  0  2  0  0  0  0  0  0
  181.6630  177.2190  136.5840 C   0  0  0  0  0  0  0  0  0  0  0  0
  180.3250  179.2530  136.5960 C   0  0  0  0  0  3  0  0  0  0  0  0
  181.5550  178.6330  134.6050 C   0  0  0  0  0  3  0  0  0  0  0  0
  180.7090  179.5190  135.2790 C   0  0  0  0  0  3  0  0  0  0  0  0
  182.0230  177.4860  135.2520 C   0  0  0  0  0  3  0  0  0  0  0  0
  180.7930  178.1060  137.2430 C   0  0  0  0  0  3  0  0  0  0  0  0
  183.4200  174.0050  136.8950 C   0  0  0  0  0  2  0  0  0  0  0  0
  185.4700  172.7950  136.7400 O   0  0  0  0  0  1  0  0  0  0  0  0
  184.7000  173.5860  137.5950 C   0  0  0  0  0  2  0  0  0  0  0  0
  1  3  1  0  0  0  0
  2  1  1  0  0  0  0
  2  4  1  0  0  0  0
  3  6  1  0  0  0  0
  5  4  1  6  0  0  0
  5  6  1  0  0  0  0
  5 15  1  0  0  0  0
  7 13  1  0  0  0  0
  8 17  1  0  0  0  0
  8 16  2  0  0  0  0
  9 18  1  0  0  0  0
 10 14  1  0  0  0  0
 10  7  2  0  0  0  0
 11  7  1  0  0  0  0
 12  9  1  0  0  0  0
 13  9  2  0  0  0  0
 14 12  2  0  0  0  0
 15 12  1  6  0  0  0
 15  8  1  0  0  0  0
 17 19  1  0  0  0  0
 18 16  1  0  0  0  0
 19 24  1  0  0  0  0
 20 21  1  0  0  0  0
 21 25  1  0  0  0  0
 22 25  1  0  0  0  0
 23 20  1  0  0  0  0
 23 24  1  0  0  0  0
 24 22  1  0  0  0  0
 26 27  1  0  0  0  0
 27 21  1  0  0  0  0
 28  2  1  0  0  0  0
 29 30  1  0  0  0  0
 29 28  1  0  0  0  0
 31 30  1  6  0  0  0
 31 34  1  0  0  0  0
 32 35  1  6  0  0  0
 32 31  1  0  0  0  0
 32 34  1  0  0  0  0
 33 41  1  0  0  0  0
 33 32  1  0  0  0  0
 33 31  1  0  0  0  0
 35 40  1  0  0  0  0
 36 40  2  0  0  0  0
 37 39  1  0  0  0  0
 37 38  2  0  0  0  0
 38 36  1  0  0  0  0
 39 35  2  0  0  0  0
 41 43  1  0  0  0  0
 42 43  1  0  0  0  0
M  END
>  <MODEL>
7

>  <REMARK>
 VINA RESULT:      -8.2      2.685      7.340
  Name = 
  11 active torsions:
  status: ('A' for Active; 'I' for Inactive)
    1  A    between atoms: C_1  and  N_34
    2  A    between atoms: C_1  and  C_35
    3  A    between atoms: C_3  and  C_4
    4  A    between atoms: C_3  and  C_12
    5  A    between atoms: N_6  and  C_17
    6  A    between atoms: C_10  and  N_22
    7  A    between atoms: C_10  and  C_42
    8  A    between atoms: C_11  and  C_14
    9  A    between atoms: C_12  and  C_17
   10  A    between atoms: N_19  and  C_37
   11  A    between atoms: C_27  and  C_30
                            x       y       z     vdW  Elec       q    Type
                         _______ _______ _______ _____ _____    ______ ____

>  <TORSDO>
F 11

$$$$
=
 OpenBabel11052416123D

 43 49  0  0  1  0  0  0  0  0999 V2000
  191.3260  177.7400  141.2930 C   0  0  0  0  0  2  0  0  0  0  0  0
  190.4580  176.6050  140.9690 N   0  0  0  0  0  0  0  0  0  0  0  0
  191.5210  177.8310  142.8050 C   0  0  0  0  0  2  0  0  0  0  0  0
  189.1220  176.8230  141.5290 C   0  0  0  0  0  2  0  0  0  0  0  0
  189.2030  176.9070  143.0540 C   0  0  1  0  0  3  0  0  0  0  0  0
  190.1690  178.0150  143.4870 C   0  0  0  0  0  2  0  0  0  0  0  0
  187.9210  177.8150  147.9140 C   0  0  0  0  0  0  0  0  0  0  0  0
  186.8800  178.0150  142.9670 C   0  0  0  0  0  0  0  0  0  0  0  0
  186.7850  177.9800  145.7960 C   0  0  0  0  0  0  0  0  0  0  0  0
  188.9600  177.1850  147.3000 N   0  0  0  0  0  0  0  0  0  0  0  0
  187.9620  178.0580  149.3790 C   0  0  0  0  0  1  0  0  0  0  0  0
  187.8700  177.3470  145.1710 C   0  0  0  0  0  0  0  0  0  0  0  0
  186.8070  178.2100  147.1730 C   0  0  0  0  0  3  0  0  0  0  0  0
  188.9550  176.9390  145.9620 C   0  0  0  0  0  3  0  0  0  0  0  0
  187.8060  177.0460  143.6890 C   0  0  2  0  0  3  0  0  0  0  0  0
  185.8910  178.5800  143.6020 N   0  0  0  0  0  0  0  0  0  0  0  0
  187.0680  178.2790  141.5730 N   0  0  0  0  0  2  0  0  0  0  0  0
  185.5610  178.3120  145.0030 C   0  0  0  0  0  2  0  0  0  0  0  0
  186.1300  179.0730  140.7880 C   0  0  0  0  0  2  0  0  0  0  0  0
  183.8220  177.4770  138.1310 C   0  0  0  0  0  2  0  0  0  0  0  0
  182.5250  177.8170  138.7360 N   0  0  0  0  0  0  0  0  0  0  0  0
  183.6820  178.5400  140.8260 C   0  0  0  0  0  2  0  0  0  0  0  0
  184.9710  178.3210  138.6910 C   0  0  0  0  0  2  0  0  0  0  0  0
  185.0300  178.1900  140.2100 C   0  0  0  0  0  3  0  0  0  0  0  0
  182.5810  177.6810  140.1980 C   0  0  0  0  0  2  0  0  0  0  0  0
  180.7760  179.1690  137.7040 C   0  0  0  0  0  1  0  0  0  0  0  0
  182.1360  179.1780  138.3760 C   0  0  0  0  0  2  0  0  0  0  0  0
  190.3620  176.4510  139.5130 C   0  0  0  0  0  2  0  0  0  0  0  0
  189.2450  177.2840  138.8860 C   0  0  0  0  0  2  0  0  0  0  0  0
  188.4620  176.4160  137.9210 C   0  0  0  0  0  2  0  0  0  0  0  0
  189.4120  175.5370  137.1110 C   0  0  1  0  0  0  0  0  0  0  0  0
  188.9480  175.2860  135.6880 C   0  0  1  0  0  0  0  0  0  0  0  0
  190.0010  176.2710  135.9820 N   0  0  0  0  0  0  0  0  0  0  0  0
  188.8150  174.2030  136.7390 C   0  0  0  0  0  2  0  0  0  0  0  0
  187.6310  175.9440  135.3060 C   0  0  0  0  0  0  0  0  0  0  0  0
  186.3780  177.9070  134.5960 C   0  0  0  0  0  3  0  0  0  0  0  0
  185.2040  175.8580  135.1310 C   0  0  0  0  0  3  0  0  0  0  0  0
  185.1830  177.1890  134.7070 C   0  0  0  0  0  3  0  0  0  0  0  0
  186.4210  175.2410  135.4360 C   0  0  0  0  0  3  0  0  0  0  0  0
  187.5950  177.2900  134.9020 C   0  0  0  0  0  3  0  0  0  0  0  0
  191.2770  175.6470  135.6690 C   0  0  0  0  0  2  0  0  0  0  0  0
  192.7750  174.7260  137.2810 O   0  0  0  0  0  1  0  0  0  0  0  0
  192.2770  175.9280  136.7760 C   0  0  0  0  0  2  0  0  0  0  0  0
  1  3  1  0  0  0  0
  2  1  1  0  0  0  0
  2  4  1  0  0  0  0
  3  6  1  0  0  0  0
  5  4  1  6  0  0  0
  5  6  1  0  0  0  0
  5 15  1  0  0  0  0
  7 11  1  0  0  0  0
  8 16  2  0  0  0  0
  9 13  1  0  0  0  0
 10  7  1  0  0  0  0
 12  9  2  0  0  0  0
 12 14  1  0  0  0  0
 13  7  2  0  0  0  0
 14 10  2  0  0  0  0
 15  8  1  6  0  0  0
 15 12  1  0  0  0  0
 16 18  1  0  0  0  0
 17  8  1  0  0  0  0
 18  9  1  0  0  0  0
 19 17  1  0  0  0  0
 20 23  1  0  0  0  0
 20 21  1  0  0  0  0
 21 25  1  0  0  0  0
 23 24  1  0  0  0  0
 24 19  1  0  0  0  0
 24 22  1  0  0  0  0
 25 22  1  0  0  0  0
 26 27  1  0  0  0  0
 27 21  1  0  0  0  0
 28  2  1  0  0  0  0
 29 28  1  0  0  0  0
 30 29  1  0  0  0  0
 31 30  1  1  0  0  0
 32 35  1  6  0  0  0
 32 33  1  0  0  0  0
 32 34  1  0  0  0  0
 32 31  1  0  0  0  0
 33 31  1  0  0  0  0
 34 31  1  0  0  0  0
 35 39  1  0  0  0  0
 36 38  2  0  0  0  0
 36 40  1  0  0  0  0
 37 39  2  0  0  0  0
 38 37  1  0  0  0  0
 40 35  2  0  0  0  0
 41 33  1  0  0  0  0
 41 43  1  0  0  0  0
 43 42  1  0  0  0  0
M  END
>  <MODEL>
8

>  <REMARK>
 VINA RESULT:      -8.2      1.749      2.991
  Name = 
  11 active torsions:
  status: ('A' for Active; 'I' for Inactive)
    1  A    between atoms: C_1  and  N_34
    2  A    between atoms: C_1  and  C_35
    3  A    between atoms: C_3  and  C_4
    4  A    between atoms: C_3  and  C_12
    5  A    between atoms: N_6  and  C_17
    6  A    between atoms: C_10  and  N_22
    7  A    between atoms: C_10  and  C_42
    8  A    between atoms: C_11  and  C_14
    9  A    between atoms: C_12  and  C_17
   10  A    between atoms: N_19  and  C_37
   11  A    between atoms: C_27  and  C_30
                            x       y       z     vdW  Elec       q    Type
                         _______ _______ _______ _____ _____    ______ ____

>  <TORSDO>
F 11

$$$$
=
 OpenBabel11052416123D

 43 49  0  0  1  0  0  0  0  0999 V2000
  189.0480  178.4210  141.4010 C   0  0  0  0  0  2  0  0  0  0  0  0
  189.5150  177.0480  141.1910 N   0  0  0  0  0  0  0  0  0  0  0  0
  187.7060  178.6280  140.7010 C   0  0  0  0  0  2  0  0  0  0  0  0
  189.7710  176.8200  139.7670 C   0  0  0  0  0  2  0  0  0  0  0  0
  188.4740  176.9820  138.9720 C   0  0  1  0  0  3  0  0  0  0  0  0
  187.8610  178.3660  139.2060 C   0  0  0  0  0  2  0  0  0  0  0  0
  191.9120  173.9230  136.7560 C   0  0  0  0  0  0  0  0  0  0  0  0
  187.4170  176.2440  136.7420 C   0  0  0  0  0  0  0  0  0  0  0  0
  189.8190  174.9030  136.0760 C   0  0  0  0  0  0  0  0  0  0  0  0
  191.8960  174.6870  137.8820 N   0  0  0  0  0  0  0  0  0  0  0  0
  193.0440  172.9940  136.5050 C   0  0  0  0  0  1  0  0  0  0  0  0
  189.8040  175.6720  137.2490 C   0  0  0  0  0  0  0  0  0  0  0  0
  190.8780  174.0290  135.8240 C   0  0  0  0  0  3  0  0  0  0  0  0
  190.8810  175.5550  138.1410 C   0  0  0  0  0  3  0  0  0  0  0  0
  188.6810  176.6620  137.4790 C   0  0  2  0  0  3  0  0  0  0  0  0
  187.4910  175.5220  135.6590 N   0  0  0  0  0  0  0  0  0  0  0  0
  186.1380  176.6800  137.2140 N   0  0  0  0  0  2  0  0  0  0  0  0
  188.7510  175.0970  135.0460 C   0  0  0  0  0  2  0  0  0  0  0  0
  184.9030  176.4470  136.4740 C   0  0  0  0  0  2  0  0  0  0  0  0
  182.8970  178.7990  138.7930 C   0  0  0  0  0  2  0  0  0  0  0  0
  182.3510  177.7880  139.7110 N   0  0  0  0  0  0  0  0  0  0  0  0
  183.1390  175.9730  138.1900 C   0  0  0  0  0  2  0  0  0  0  0  0
  184.0920  178.2790  137.9890 C   0  0  0  0  0  2  0  0  0  0  0  0
  183.7070  177.0120  137.2320 C   0  0  0  0  0  3  0  0  0  0  0  0
  181.9720  176.5720  138.9790 C   0  0  0  0  0  2  0  0  0  0  0  0
  183.5020  178.6420  141.6850 C   0  0  0  0  0  1  0  0  0  0  0  0
  183.3270  177.4620  140.7490 C   0  0  0  0  0  2  0  0  0  0  0  0
  190.7460  176.8180  141.9540 C   0  0  0  0  0  2  0  0  0  0  0  0
  190.5870  175.7840  143.0680 C   0  0  0  0  0  2  0  0  0  0  0  0
  189.6060  176.3110  144.0960 C   0  0  0  0  0  2  0  0  0  0  0  0
  190.3510  177.0330  145.2170 C   0  0  1  0  0  0  0  0  0  0  0  0
  189.4550  177.8820  146.0990 C   0  0  1  0  0  0  0  0  0  0  0  0
  189.9270  176.5600  146.5430 N   0  0  0  0  0  0  0  0  0  0  0  0
  190.3470  178.5320  145.0630 C   0  0  0  0  0  2  0  0  0  0  0  0
  187.9790  177.8730  145.7290 C   0  0  0  0  0  0  0  0  0  0  0  0
  186.2240  177.8800  144.0420 C   0  0  0  0  0  3  0  0  0  0  0  0
  185.6400  178.0220  146.3870 C   0  0  0  0  0  3  0  0  0  0  0  0
  185.2540  177.9660  145.0450 C   0  0  0  0  0  3  0  0  0  0  0  0
  186.9950  177.9830  146.7270 C   0  0  0  0  0  3  0  0  0  0  0  0
  187.5790  177.8410  144.3820 C   0  0  0  0  0  3  0  0  0  0  0  0
  191.0320  176.7840  147.4630 C   0  0  0  0  0  2  0  0  0  0  0  0
  193.1750  175.9560  148.1070 O   0  0  0  0  0  1  0  0  0  0  0  0
  192.0560  175.6730  147.3220 C   0  0  0  0  0  2  0  0  0  0  0  0
  2  1  1  0  0  0  0
  2 28  1  0  0  0  0
  3  1  1  0  0  0  0
  4  2  1  0  0  0  0
  5  6  1  6  0  0  0
  5  4  1  0  0  0  0
  6  3  1  0  0  0  0
  7 10  1  0  0  0  0
  8 17  1  0  0  0  0
  9 12  2  0  0  0  0
 10 14  2  0  0  0  0
 11  7  1  0  0  0  0
 12 15  1  0  0  0  0
 12 14  1  0  0  0  0
 13  9  1  0  0  0  0
 13  7  2  0  0  0  0
 15  8  1  1  0  0  0
 15  5  1  0  0  0  0
 16  8  2  0  0  0  0
 18 16  1  0  0  0  0
 18  9  1  0  0  0  0
 19 17  1  0  0  0  0
 19 24  1  0  0  0  0
 20 21  1  0  0  0  0
 21 27  1  0  0  0  0
 22 25  1  0  0  0  0
 23 20  1  0  0  0  0
 24 23  1  0  0  0  0
 24 22  1  0  0  0  0
 25 21  1  0  0  0  0
 27 26  1  0  0  0  0
 28 29  1  0  0  0  0
 29 30  1  0  0  0  0
 31 30  1  6  0  0  0
 31 32  1  0  0  0  0
 31 33  1  0  0  0  0
 32 35  1  6  0  0  0
 32 33  1  0  0  0  0
 33 41  1  0  0  0  0
 34 31  1  0  0  0  0
 34 32  1  0  0  0  0
 35 39  1  0  0  0  0
 36 40  1  0  0  0  0
 36 38  2  0  0  0  0
 37 39  2  0  0  0  0
 38 37  1  0  0  0  0
 40 35  2  0  0  0  0
 43 41  1  0  0  0  0
 43 42  1  0  0  0  0
M  END
>  <MODEL>
9

>  <REMARK>
 VINA RESULT:      -8.2      2.591      8.388
  Name = 
  11 active torsions:
  status: ('A' for Active; 'I' for Inactive)
    1  A    between atoms: C_1  and  N_34
    2  A    between atoms: C_1  and  C_35
    3  A    between atoms: C_3  and  C_4
    4  A    between atoms: C_3  and  C_12
    5  A    between atoms: N_6  and  C_17
    6  A    between atoms: C_10  and  N_22
    7  A    between atoms: C_10  and  C_42
    8  A    between atoms: C_11  and  C_14
    9  A    between atoms: C_12  and  C_17
   10  A    between atoms: N_19  and  C_37
   11  A    between atoms: C_27  and  C_30
                            x       y       z     vdW  Elec       q    Type
                         _______ _______ _______ _____ _____    ______ ____

>  <TORSDO>
F 11

$$$$
