=
 OpenBabel11052413483D

 27 31  0  0  1  0  0  0  0  0999 V2000
  187.5050  178.6260  141.8930 N   0  0  0  0  0  2  0  0  0  0  0  0
  187.7340  177.3600  144.0510 C   0  0  1  0  0  3  0  0  0  0  0  0
  189.5210  176.5630  142.5450 N   0  0  0  0  0  2  0  0  0  0  0  0
  190.2770  176.8090  147.3440 C   0  0  0  0  0  3  0  0  0  0  0  0
  192.2810  175.8750  148.3080 O   0  0  0  0  0  1  0  0  0  0  0  0
  187.5150  178.2530  145.2740 C   0  0  0  0  0  2  0  0  0  0  0  0
  191.3080  176.3500  144.7810 C   0  0  0  0  0  3  0  0  0  0  0  0
  190.1610  177.1740  138.9350 C   0  0  0  0  0  0  0  0  0  0  0  0
  192.0560  176.0030  145.9100 C   0  0  0  0  0  3  0  0  0  0  0  0
  190.9660  176.6890  137.9600 F   0  0  0  0  0  0  0  0  0  0  0  0
  190.0310  176.9100  144.9270 C   0  0  0  0  0  0  0  0  0  0  0  0
  186.8590  177.7140  142.8330 C   0  0  1  0  0  3  0  0  0  0  0  0
  191.5390  176.2270  147.1890 C   0  0  0  0  0  0  0  0  0  0  0  0
  189.5270  177.1640  146.2190 C   0  0  0  0  0  0  0  0  0  0  0  0
  188.4790  178.1710  140.9460 C   0  0  0  0  0  0  0  0  0  0  0  0
  189.2310  177.3590  143.7300 C   0  0  2  0  0  3  0  0  0  0  0  0
  190.1800  176.5980  140.2060 C   0  0  0  0  0  3  0  0  0  0  0  0
  188.2630  177.7470  146.3820 O   0  0  0  0  0  0  0  0  0  0  0  0
  189.3310  178.2670  138.6750 C   0  0  0  0  0  3  0  0  0  0  0  0
  188.4910  178.7590  139.6760 C   0  0  0  0  0  3  0  0  0  0  0  0
  189.3590  177.0950  141.2240 C   0  0  0  0  0  0  0  0  0  0  0  0
  182.8620  178.8950  143.7400 N   0  0  0  0  0  0  0  0  0  0  0  0
  185.4620  178.1470  143.1660 C   0  0  0  0  0  0  0  0  0  0  0  0
  184.5170  178.2530  142.1420 C   0  0  0  0  0  3  0  0  0  0  0  0
  183.2100  178.6340  142.4520 C   0  0  0  0  0  3  0  0  0  0  0  0
  183.7630  178.7930  144.7550 C   0  0  0  0  0  3  0  0  0  0  0  0
  185.0800  178.4140  144.4870 C   0  0  0  0  0  3  0  0  0  0  0  0
  1 12  1  0  0  0  0
  2  6  1  1  0  0  0
  6 18  1  0  0  0  0
  7 11  2  0  0  0  0
  7  9  1  0  0  0  0
  8 17  1  0  0  0  0
  9 13  2  0  0  0  0
 10  8  1  0  0  0  0
 11 14  1  0  0  0  0
 12 23  1  1  0  0  0
 12  2  1  0  0  0  0
 13  4  1  0  0  0  0
 13  5  1  0  0  0  0
 14 18  1  0  0  0  0
 14  4  2  0  0  0  0
 15 21  1  0  0  0  0
 15  1  1  0  0  0  0
 16  3  1  6  0  0  0
 16  2  1  0  0  0  0
 16 11  1  0  0  0  0
 17 21  2  0  0  0  0
 19  8  2  0  0  0  0
 19 20  1  0  0  0  0
 20 15  2  0  0  0  0
 21  3  1  0  0  0  0
 22 26  1  0  0  0  0
 23 27  1  0  0  0  0
 24 25  1  0  0  0  0
 24 23  2  0  0  0  0
 25 22  2  0  0  0  0
 27 26  2  0  0  0  0
M  END
>  <MODEL>
1

>  <REMARK>
 VINA RESULT:     -10.6      0.000      0.000
  Name = 
  1 active torsions:
  status: ('A' for Active; 'I' for Inactive)
    1  A    between atoms: C_9  and  C_15
                            x       y       z     vdW  Elec       q    Type
                         _______ _______ _______ _____ _____    ______ ____

>  <TORSDO>
F 1

$$$$
=
 OpenBabel11052413483D

 27 31  0  0  1  0  0  0  0  0999 V2000
  189.3340  176.7270  142.9480 N   0  0  0  0  0  2  0  0  0  0  0  0
  187.5510  178.0580  144.1160 C   0  0  1  0  0  3  0  0  0  0  0  0
  187.4490  178.6470  141.7210 N   0  0  0  0  0  2  0  0  0  0  0  0
  183.3910  178.5350  144.4010 C   0  0  0  0  0  3  0  0  0  0  0  0
  181.3100  179.3430  143.4890 O   0  0  0  0  0  1  0  0  0  0  0  0
  186.8130  177.2350  145.1750 C   0  0  0  0  0  2  0  0  0  0  0  0
  184.5870  178.8060  141.8840 C   0  0  0  0  0  3  0  0  0  0  0  0
  189.7090  177.8420  138.8820 C   0  0  0  0  0  0  0  0  0  0  0  0
  183.2410  179.1370  142.0590 C   0  0  0  0  0  3  0  0  0  0  0  0
  189.8800  178.2210  137.5930 F   0  0  0  0  0  0  0  0  0  0  0  0
  185.3490  178.3560  142.9710 C   0  0  0  0  0  0  0  0  0  0  0  0
  189.0490  177.7260  143.9750 C   0  0  1  0  0  3  0  0  0  0  0  0
  182.6450  179.0070  143.3170 C   0  0  0  0  0  0  0  0  0  0  0  0
  184.7360  178.1960  144.2310 C   0  0  0  0  0  0  0  0  0  0  0  0
  189.3720  177.0650  141.5560 C   0  0  0  0  0  0  0  0  0  0  0  0
  186.7840  177.9250  142.7970 C   0  0  2  0  0  3  0  0  0  0  0  0
  188.7400  178.4650  139.6700 C   0  0  0  0  0  3  0  0  0  0  0  0
  185.4780  177.7230  145.3220 O   0  0  0  0  0  0  0  0  0  0  0  0
  190.4850  176.8090  139.4140 C   0  0  0  0  0  3  0  0  0  0  0  0
  190.3180  176.4270  140.7470 C   0  0  0  0  0  3  0  0  0  0  0  0
  188.5490  178.0770  141.0000 C   0  0  0  0  0  0  0  0  0  0  0  0
  191.1010  176.8800  147.6170 N   0  0  0  0  0  0  0  0  0  0  0  0
  189.7500  177.4200  145.2650 C   0  0  0  0  0  0  0  0  0  0  0  0
  190.9900  176.7760  145.2340 C   0  0  0  0  0  3  0  0  0  0  0  0
  191.6550  176.5110  146.4320 C   0  0  0  0  0  3  0  0  0  0  0  0
  189.8990  177.5140  147.6730 C   0  0  0  0  0  3  0  0  0  0  0  0
  189.2010  177.7990  146.4970 C   0  0  0  0  0  3  0  0  0  0  0  0
  1 12  1  0  0  0  0
  2  6  1  1  0  0  0
  6 18  1  0  0  0  0
  7  9  2  0  0  0  0
  7 11  1  0  0  0  0
  8 19  2  0  0  0  0
  8 17  1  0  0  0  0
  9 13  1  0  0  0  0
 10  8  1  0  0  0  0
 11 14  2  0  0  0  0
 12  2  1  0  0  0  0
 12 23  1  1  0  0  0
 13  5  1  0  0  0  0
 13  4  2  0  0  0  0
 14  4  1  0  0  0  0
 14 18  1  0  0  0  0
 15  1  1  0  0  0  0
 16  3  1  6  0  0  0
 16 11  1  0  0  0  0
 16  2  1  0  0  0  0
 17 21  2  0  0  0  0
 19 20  1  0  0  0  0
 20 15  2  0  0  0  0
 21 15  1  0  0  0  0
 21  3  1  0  0  0  0
 22 26  1  0  0  0  0
 23 27  1  0  0  0  0
 24 23  2  0  0  0  0
 24 25  1  0  0  0  0
 25 22  2  0  0  0  0
 27 26  2  0  0  0  0
M  END
>  <MODEL>
2

>  <REMARK>
 VINA RESULT:     -10.4      2.016      5.865
  Name = 
  1 active torsions:
  status: ('A' for Active; 'I' for Inactive)
    1  A    between atoms: C_9  and  C_15
                            x       y       z     vdW  Elec       q    Type
                         _______ _______ _______ _____ _____    ______ ____

>  <TORSDO>
F 1

$$$$
=
 OpenBabel11052413483D

 27 31  0  0  1  0  0  0  0  0999 V2000
  186.8190  178.8880  140.6240 N   0  0  0  0  0  2  0  0  0  0  0  0
  185.9530  178.0680  142.8350 C   0  0  1  0  0  3  0  0  0  0  0  0
  188.1840  177.0620  142.5070 N   0  0  0  0  0  2  0  0  0  0  0  0
  186.6550  178.2510  146.9690 C   0  0  0  0  0  3  0  0  0  0  0  0
  187.9300  177.5920  148.9070 O   0  0  0  0  0  1  0  0  0  0  0  0
  185.2470  179.1710  143.6270 C   0  0  0  0  0  2  0  0  0  0  0  0
  188.7220  177.3470  145.3120 C   0  0  0  0  0  3  0  0  0  0  0  0
  190.4500  176.9920  139.5620 C   0  0  0  0  0  0  0  0  0  0  0  0
  188.8440  177.2490  146.7010 C   0  0  0  0  0  3  0  0  0  0  0  0
  191.5850  176.3580  139.1810 F   0  0  0  0  0  0  0  0  0  0  0  0
  187.5570  177.8780  144.7430 C   0  0  0  0  0  0  0  0  0  0  0  0
  185.7610  178.1510  141.3090 C   0  0  1  0  0  3  0  0  0  0  0  0
  187.8100  177.6960  147.5280 C   0  0  0  0  0  0  0  0  0  0  0  0
  186.5290  178.3560  145.5810 C   0  0  0  0  0  0  0  0  0  0  0  0
  188.0920  178.2940  140.3390 C   0  0  0  0  0  0  0  0  0  0  0  0
  187.4270  178.0600  143.2520 C   0  0  2  0  0  3  0  0  0  0  0  0
  189.8480  176.6710  140.7800 C   0  0  0  0  0  3  0  0  0  0  0  0
  185.3690  178.9150  145.0280 O   0  0  0  0  0  0  0  0  0  0  0  0
  189.8990  177.9840  138.7490 C   0  0  0  0  0  3  0  0  0  0  0  0
  188.7220  178.6280  139.1350 C   0  0  0  0  0  3  0  0  0  0  0  0
  188.6810  177.3240  141.1890 C   0  0  0  0  0  0  0  0  0  0  0  0
  181.8930  179.3780  139.9950 N   0  0  0  0  0  0  0  0  0  0  0  0
  184.3950  178.5890  140.8690 C   0  0  0  0  0  0  0  0  0  0  0  0
  184.2650  179.3620  139.7120 C   0  0  0  0  0  3  0  0  0  0  0  0
  182.9930  179.7520  139.2880 C   0  0  0  0  0  3  0  0  0  0  0  0
  181.9940  178.6200  141.1200 C   0  0  0  0  0  3  0  0  0  0  0  0
  183.2480  178.2090  141.5770 C   0  0  0  0  0  3  0  0  0  0  0  0
  1 12  1  0  0  0  0
  2 16  1  0  0  0  0
  2  6  1  1  0  0  0
  4 13  1  0  0  0  0
  6 18  1  0  0  0  0
  7  9  1  0  0  0  0
  8 17  1  0  0  0  0
  9 13  2  0  0  0  0
 10  8  1  0  0  0  0
 11  7  2  0  0  0  0
 11 14  1  0  0  0  0
 12 23  1  1  0  0  0
 12  2  1  0  0  0  0
 13  5  1  0  0  0  0
 14  4  2  0  0  0  0
 15  1  1  0  0  0  0
 15 21  1  0  0  0  0
 16  3  1  6  0  0  0
 16 11  1  0  0  0  0
 17 21  2  0  0  0  0
 18 14  1  0  0  0  0
 19 20  1  0  0  0  0
 19  8  2  0  0  0  0
 20 15  2  0  0  0  0
 21  3  1  0  0  0  0
 22 26  1  0  0  0  0
 23 27  1  0  0  0  0
 24 23  2  0  0  0  0
 25 24  1  0  0  0  0
 25 22  2  0  0  0  0
 26 27  2  0  0  0  0
M  END
>  <MODEL>
3

>  <REMARK>
 VINA RESULT:     -10.3      1.924      2.740
  Name = 
  1 active torsions:
  status: ('A' for Active; 'I' for Inactive)
    1  A    between atoms: C_9  and  C_15
                            x       y       z     vdW  Elec       q    Type
                         _______ _______ _______ _____ _____    ______ ____

>  <TORSDO>
F 1

$$$$
=
 OpenBabel11052413483D

 27 31  0  0  1  0  0  0  0  0999 V2000
  190.1500  177.9700  142.7130 N   0  0  0  0  0  2  0  0  0  0  0  0
  188.3150  177.5160  141.0580 C   0  0  1  0  0  3  0  0  0  0  0  0
  187.3550  177.2130  143.3120 N   0  0  0  0  0  2  0  0  0  0  0  0
  184.6210  178.9660  139.6900 C   0  0  0  0  0  3  0  0  0  0  0  0
  182.2470  179.2610  139.9930 O   0  0  0  0  0  1  0  0  0  0  0  0
  188.3290  178.5060  139.8900 C   0  0  0  0  0  2  0  0  0  0  0  0
  184.8830  178.3630  142.4110 C   0  0  0  0  0  3  0  0  0  0  0  0
  188.9360  177.1040  146.6740 C   0  0  0  0  0  0  0  0  0  0  0  0
  183.6280  178.6680  141.8790 C   0  0  0  0  0  3  0  0  0  0  0  0
  188.5830  176.7830  147.9420 F   0  0  0  0  0  0  0  0  0  0  0  0
  186.0120  178.3360  141.5810 C   0  0  0  0  0  0  0  0  0  0  0  0
  189.7080  177.1390  141.5960 C   0  0  1  0  0  3  0  0  0  0  0  0
  183.4960  178.9640  140.5200 C   0  0  0  0  0  0  0  0  0  0  0  0
  185.8800  178.6660  140.2170 C   0  0  0  0  0  0  0  0  0  0  0  0
  189.6770  177.7540  144.0480 C   0  0  0  0  0  0  0  0  0  0  0  0
  187.3890  178.0780  142.1400 C   0  0  2  0  0  3  0  0  0  0  0  0
  188.0220  176.9350  145.6320 C   0  0  0  0  0  3  0  0  0  0  0  0
  187.0040  178.6690  139.3790 O   0  0  0  0  0  0  0  0  0  0  0  0
  190.2030  177.6290  146.4150 C   0  0  0  0  0  3  0  0  0  0  0  0
  190.5720  177.9470  145.1060 C   0  0  0  0  0  3  0  0  0  0  0  0
  188.3720  177.2700  144.3190 C   0  0  0  0  0  0  0  0  0  0  0  0
  192.7740  176.7170  138.6610 N   0  0  0  0  0  0  0  0  0  0  0  0
  190.7710  176.9980  140.5470 C   0  0  0  0  0  0  0  0  0  0  0  0
  192.0480  177.5080  140.7940 C   0  0  0  0  0  3  0  0  0  0  0  0
  193.0460  177.3580  139.8290 C   0  0  0  0  0  3  0  0  0  0  0  0
  191.5410  176.2060  138.3990 C   0  0  0  0  0  3  0  0  0  0  0  0
  190.5160  176.3350  139.3390 C   0  0  0  0  0  3  0  0  0  0  0  0
  1 15  1  0  0  0  0
  2  6  1  6  0  0  0
  2 12  1  0  0  0  0
  2 16  1  0  0  0  0
  3 21  1  0  0  0  0
  4 14  2  0  0  0  0
  4 13  1  0  0  0  0
  5 13  1  0  0  0  0
  8 10  1  0  0  0  0
  9  7  1  0  0  0  0
 11  7  2  0  0  0  0
 12 23  1  6  0  0  0
 12  1  1  0  0  0  0
 13  9  2  0  0  0  0
 14 11  1  0  0  0  0
 15 21  2  0  0  0  0
 15 20  1  0  0  0  0
 16 11  1  6  0  0  0
 16  3  1  0  0  0  0
 17  8  2  0  0  0  0
 18  6  1  0  0  0  0
 18 14  1  0  0  0  0
 19  8  1  0  0  0  0
 20 19  2  0  0  0  0
 21 17  1  0  0  0  0
 22 25  1  0  0  0  0
 23 24  1  0  0  0  0
 25 24  2  0  0  0  0
 26 22  2  0  0  0  0
 26 27  1  0  0  0  0
 27 23  2  0  0  0  0
M  END
>  <MODEL>
4

>  <REMARK>
 VINA RESULT:     -10.2      3.554      7.591
  Name = 
  1 active torsions:
  status: ('A' for Active; 'I' for Inactive)
    1  A    between atoms: C_9  and  C_15
                            x       y       z     vdW  Elec       q    Type
                         _______ _______ _______ _____ _____    ______ ____

>  <TORSDO>
F 1

$$$$
=
 OpenBabel11052413483D

 27 31  0  0  1  0  0  0  0  0999 V2000
  189.6870  176.6350  141.6350 N   0  0  0  0  0  2  0  0  0  0  0  0
  188.1290  177.8610  143.1790 C   0  0  1  0  0  3  0  0  0  0  0  0
  187.7140  178.7110  140.8980 N   0  0  0  0  0  2  0  0  0  0  0  0
  184.0670  178.3790  144.1000 C   0  0  0  0  0  3  0  0  0  0  0  0
  181.9070  179.3200  143.5840 O   0  0  0  0  0  1  0  0  0  0  0  0
  187.5190  176.9410  144.2390 C   0  0  0  0  0  2  0  0  0  0  0  0
  184.9100  178.9020  141.4820 C   0  0  0  0  0  3  0  0  0  0  0  0
  189.5300  178.1800  137.6990 C   0  0  0  0  0  0  0  0  0  0  0  0
  183.6130  179.2370  141.8800 C   0  0  0  0  0  3  0  0  0  0  0  0
  189.5310  178.6950  136.4460 F   0  0  0  0  0  0  0  0  0  0  0  0
  185.8000  178.3230  142.3960 C   0  0  0  0  0  0  0  0  0  0  0  0
  189.5800  177.5200  142.7930 C   0  0  1  0  0  3  0  0  0  0  0  0
  183.1940  178.9810  143.1890 C   0  0  0  0  0  0  0  0  0  0  0  0
  185.3640  178.0370  143.7060 C   0  0  0  0  0  0  0  0  0  0  0  0
  189.5420  177.1220  140.2960 C   0  0  0  0  0  0  0  0  0  0  0  0
  187.1810  177.8880  141.9760 C   0  0  2  0  0  3  0  0  0  0  0  0
  188.7010  178.7310  138.6770 C   0  0  0  0  0  3  0  0  0  0  0  0
  186.2340  177.4340  144.6250 O   0  0  0  0  0  0  0  0  0  0  0  0
  190.3370  177.0820  138.0030 C   0  0  0  0  0  3  0  0  0  0  0  0
  190.3450  176.5600  139.2980 C   0  0  0  0  0  3  0  0  0  0  0  0
  188.6830  178.2030  139.9730 C   0  0  0  0  0  0  0  0  0  0  0  0
  191.9840  176.2260  146.0700 N   0  0  0  0  0  0  0  0  0  0  0  0
  190.4440  177.0620  143.9310 C   0  0  0  0  0  0  0  0  0  0  0  0
  190.4230  177.7720  145.1330 C   0  0  0  0  0  3  0  0  0  0  0  0
  191.2090  177.3350  146.2010 C   0  0  0  0  0  3  0  0  0  0  0  0
  192.0170  175.5140  144.9110 C   0  0  0  0  0  3  0  0  0  0  0  0
  191.2450  175.9180  143.8190 C   0  0  0  0  0  3  0  0  0  0  0  0
  1 12  1  0  0  0  0
  2  6  1  1  0  0  0
  6 18  1  0  0  0  0
  7  9  2  0  0  0  0
  7 11  1  0  0  0  0
  8 19  2  0  0  0  0
  8 17  1  0  0  0  0
  9 13  1  0  0  0  0
 10  8  1  0  0  0  0
 11 14  2  0  0  0  0
 12  2  1  0  0  0  0
 12 23  1  1  0  0  0
 13  5  1  0  0  0  0
 13  4  2  0  0  0  0
 14  4  1  0  0  0  0
 14 18  1  0  0  0  0
 15  1  1  0  0  0  0
 16  3  1  6  0  0  0
 16 11  1  0  0  0  0
 16  2  1  0  0  0  0
 17 21  2  0  0  0  0
 19 20  1  0  0  0  0
 20 15  2  0  0  0  0
 21 15  1  0  0  0  0
 21  3  1  0  0  0  0
 22 25  1  0  0  0  0
 23 24  1  0  0  0  0
 24 25  2  0  0  0  0
 26 22  2  0  0  0  0
 27 23  2  0  0  0  0
 27 26  1  0  0  0  0
M  END
>  <MODEL>
5

>  <REMARK>
 VINA RESULT:      -9.9      2.150      5.921
  Name = 
  1 active torsions:
  status: ('A' for Active; 'I' for Inactive)
    1  A    between atoms: C_9  and  C_15
                            x       y       z     vdW  Elec       q    Type
                         _______ _______ _______ _____ _____    ______ ____

>  <TORSDO>
F 1

$$$$
=
 OpenBabel11052413483D

 27 31  0  0  1  0  0  0  0  0999 V2000
  188.9740  178.1440  145.9990 N   0  0  0  0  0  2  0  0  0  0  0  0
  190.1150  176.9180  144.1260 C   0  0  1  0  0  3  0  0  0  0  0  0
  187.7490  177.1990  143.4790 N   0  0  0  0  0  2  0  0  0  0  0  0
  191.2490  177.2840  140.1010 C   0  0  0  0  0  3  0  0  0  0  0  0
  190.6760  177.2950  137.7580 O   0  0  0  0  0  1  0  0  0  0  0  0
  191.5080  177.4790  143.8290 C   0  0  0  0  0  2  0  0  0  0  0  0
  188.5460  177.6160  140.7530 C   0  0  0  0  0  3  0  0  0  0  0  0
  184.7940  178.3960  145.3890 C   0  0  0  0  0  0  0  0  0  0  0  0
  188.9400  177.5450  139.4140 C   0  0  0  0  0  3  0  0  0  0  0  0
  183.4490  178.4410  145.2370 F   0  0  0  0  0  0  0  0  0  0  0  0
  189.4990  177.5010  141.7750 C   0  0  0  0  0  0  0  0  0  0  0  0
  189.7170  176.9460  145.6140 C   0  0  1  0  0  3  0  0  0  0  0  0
  190.2880  177.3730  139.0890 C   0  0  0  0  0  0  0  0  0  0  0  0
  190.8620  177.3600  141.4420 C   0  0  0  0  0  0  0  0  0  0  0  0
  187.5770  178.2900  145.7170 C   0  0  0  0  0  0  0  0  0  0  0  0
  189.1130  177.6450  143.2250 C   0  0  2  0  0  3  0  0  0  0  0  0
  185.5840  177.7710  144.4230 C   0  0  0  0  0  3  0  0  0  0  0  0
  191.8300  177.2710  142.4520 O   0  0  0  0  0  0  0  0  0  0  0  0
  185.3910  178.9990  146.4980 C   0  0  0  0  0  3  0  0  0  0  0  0
  186.7770  178.9410  146.6620 C   0  0  0  0  0  3  0  0  0  0  0  0
  186.9750  177.7240  144.5640 C   0  0  0  0  0  0  0  0  0  0  0  0
  192.8450  176.0930  148.3850 N   0  0  0  0  0  0  0  0  0  0  0  0
  190.8320  176.6450  146.5700 C   0  0  0  0  0  0  0  0  0  0  0  0
  190.9590  177.4060  147.7350 C   0  0  0  0  0  3  0  0  0  0  0  0
  191.9820  177.1130  148.6380 C   0  0  0  0  0  3  0  0  0  0  0  0
  192.7380  175.3330  147.2620 C   0  0  0  0  0  3  0  0  0  0  0  0
  191.7270  175.5930  146.3340 C   0  0  0  0  0  3  0  0  0  0  0  0
  2  6  1  1  0  0  0
  2 12  1  0  0  0  0
  3 21  1  0  0  0  0
  4 14  1  0  0  0  0
  5 13  1  0  0  0  0
  7 11  1  0  0  0  0
  8 19  1  0  0  0  0
  9  7  2  0  0  0  0
 10  8  1  0  0  0  0
 12  1  1  0  0  0  0
 12 23  1  1  0  0  0
 13  9  1  0  0  0  0
 13  4  2  0  0  0  0
 14 11  2  0  0  0  0
 14 18  1  0  0  0  0
 15  1  1  0  0  0  0
 15 20  1  0  0  0  0
 16 11  1  6  0  0  0
 16  3  1  0  0  0  0
 16  2  1  0  0  0  0
 17 21  1  0  0  0  0
 17  8  2  0  0  0  0
 18  6  1  0  0  0  0
 19 20  2  0  0  0  0
 21 15  2  0  0  0  0
 22 25  1  0  0  0  0
 23 24  1  0  0  0  0
 24 25  2  0  0  0  0
 26 22  2  0  0  0  0
 27 23  2  0  0  0  0
 27 26  1  0  0  0  0
M  END
>  <MODEL>
6

>  <REMARK>
 VINA RESULT:      -9.8      3.408      7.092
  Name = 
  1 active torsions:
  status: ('A' for Active; 'I' for Inactive)
    1  A    between atoms: C_9  and  C_15
                            x       y       z     vdW  Elec       q    Type
                         _______ _______ _______ _____ _____    ______ ____

>  <TORSDO>
F 1

$$$$
=
 OpenBabel11052413483D

 27 31  0  0  1  0  0  0  0  0999 V2000
  189.9970  177.9680  142.5580 N   0  0  0  0  0  2  0  0  0  0  0  0
  187.6310  177.5750  141.8080 C   0  0  1  0  0  3  0  0  0  0  0  0
  187.7050  177.1540  144.2390 N   0  0  0  0  0  2  0  0  0  0  0  0
  183.7210  179.0500  142.1910 C   0  0  0  0  0  3  0  0  0  0  0  0
  181.6970  179.3050  143.4780 O   0  0  0  0  0  1  0  0  0  0  0  0
  187.1640  178.6190  140.7920 C   0  0  0  0  0  2  0  0  0  0  0  0
  185.0960  178.3190  144.5180 C   0  0  0  0  0  3  0  0  0  0  0  0
  190.5520  176.9000  146.6150 C   0  0  0  0  0  0  0  0  0  0  0  0
  183.7360  178.6370  144.5780 C   0  0  0  0  0  3  0  0  0  0  0  0
  190.7610  176.5150  147.8970 F   0  0  0  0  0  0  0  0  0  0  0  0
  185.7710  178.3440  143.2900 C   0  0  0  0  0  0  0  0  0  0  0  0
  189.1170  177.1870  141.6910 C   0  0  1  0  0  3  0  0  0  0  0  0
  183.0480  178.9960  143.4160 C   0  0  0  0  0  0  0  0  0  0  0  0
  185.0810  178.7380  142.1250 C   0  0  0  0  0  0  0  0  0  0  0  0
  190.1270  177.6830  143.9560 C   0  0  0  0  0  0  0  0  0  0  0  0
  187.2520  178.0750  143.2050 C   0  0  2  0  0  3  0  0  0  0  0  0
  189.2830  176.7720  146.0470 C   0  0  0  0  0  3  0  0  0  0  0  0
  185.7480  178.7940  140.8940 O   0  0  0  0  0  0  0  0  0  0  0  0
  191.5980  177.4500  145.8730 C   0  0  0  0  0  3  0  0  0  0  0  0
  191.3860  177.8350  144.5470 C   0  0  0  0  0  3  0  0  0  0  0  0
  189.0520  177.1730  144.7270 C   0  0  0  0  0  0  0  0  0  0  0  0
  190.6430  176.9120  137.7180 N   0  0  0  0  0  0  0  0  0  0  0  0
  189.6390  177.1080  140.2870 C   0  0  0  0  0  0  0  0  0  0  0  0
  191.0190  177.0530  140.0720 C   0  0  0  0  0  3  0  0  0  0  0  0
  191.5060  176.9560  138.7680 C   0  0  0  0  0  3  0  0  0  0  0  0
  189.2960  176.9570  137.9020 C   0  0  0  0  0  3  0  0  0  0  0  0
  188.7680  177.0530  139.1910 C   0  0  0  0  0  3  0  0  0  0  0  0
  1 15  1  0  0  0  0
  2  6  1  6  0  0  0
  2 16  1  0  0  0  0
  3 21  1  0  0  0  0
  4 13  1  0  0  0  0
  6 18  1  0  0  0  0
  7  9  1  0  0  0  0
  8 10  1  0  0  0  0
 11  7  2  0  0  0  0
 12 23  1  6  0  0  0
 12  2  1  0  0  0  0
 12  1  1  0  0  0  0
 13  5  1  0  0  0  0
 13  9  2  0  0  0  0
 14  4  2  0  0  0  0
 14 11  1  0  0  0  0
 15 20  2  0  0  0  0
 15 21  1  0  0  0  0
 16 11  1  6  0  0  0
 16  3  1  0  0  0  0
 17  8  1  0  0  0  0
 18 14  1  0  0  0  0
 19  8  2  0  0  0  0
 20 19  1  0  0  0  0
 21 17  2  0  0  0  0
 22 26  2  0  0  0  0
 22 25  1  0  0  0  0
 24 23  1  0  0  0  0
 25 24  2  0  0  0  0
 26 27  1  0  0  0  0
 27 23  2  0  0  0  0
M  END
>  <MODEL>
7

>  <REMARK>
 VINA RESULT:      -9.6      3.357      6.883
  Name = 
  1 active torsions:
  status: ('A' for Active; 'I' for Inactive)
    1  A    between atoms: C_9  and  C_15
                            x       y       z     vdW  Elec       q    Type
                         _______ _______ _______ _____ _____    ______ ____

>  <TORSDO>
F 1

$$$$
=
 OpenBabel11052413483D

 27 31  0  0  1  0  0  0  0  0999 V2000
  187.1770  177.3590  142.0650 N   0  0  0  0  0  2  0  0  0  0  0  0
  189.5020  177.5450  142.9970 C   0  0  1  0  0  3  0  0  0  0  0  0
  187.9480  178.2930  144.7630 N   0  0  0  0  0  2  0  0  0  0  0  0
  192.0590  175.9690  145.9290 C   0  0  0  0  0  3  0  0  0  0  0  0
  192.7490  175.8030  148.2340 O   0  0  0  0  0  1  0  0  0  0  0  0
  190.3810  176.3550  142.6070 C   0  0  0  0  0  2  0  0  0  0  0  0
  189.6170  177.0640  146.7490 C   0  0  0  0  0  3  0  0  0  0  0  0
  184.2960  178.9860  144.7050 C   0  0  0  0  0  0  0  0  0  0  0  0
  190.5750  176.7000  147.6990 C   0  0  0  0  0  3  0  0  0  0  0  0
  183.3660  179.5480  145.5140 F   0  0  0  0  0  0  0  0  0  0  0  0
  189.8820  176.9030  145.3830 C   0  0  0  0  0  0  0  0  0  0  0  0
  188.4920  177.9770  141.9180 C   0  0  1  0  0  3  0  0  0  0  0  0
  191.7970  176.1580  147.2890 C   0  0  0  0  0  0  0  0  0  0  0  0
  191.1030  176.3270  144.9750 C   0  0  0  0  0  0  0  0  0  0  0  0
  186.2210  177.8350  143.0210 C   0  0  0  0  0  0  0  0  0  0  0  0
  188.8410  177.2220  144.3400 C   0  0  2  0  0  3  0  0  0  0  0  0
  185.6400  178.9820  145.0850 C   0  0  0  0  0  3  0  0  0  0  0  0
  191.3730  176.1350  143.6130 O   0  0  0  0  0  0  0  0  0  0  0  0
  183.9070  178.3860  143.5060 C   0  0  0  0  0  3  0  0  0  0  0  0
  184.8680  177.8180  142.6660 C   0  0  0  0  0  3  0  0  0  0  0  0
  186.6090  178.3970  144.2630 C   0  0  0  0  0  0  0  0  0  0  0  0
  189.9080  177.7890  137.8990 N   0  0  0  0  0  0  0  0  0  0  0  0
  188.9990  177.8890  140.5090 C   0  0  0  0  0  0  0  0  0  0  0  0
  188.1550  178.2500  139.4550 C   0  0  0  0  0  3  0  0  0  0  0  0
  188.6320  178.1900  138.1440 C   0  0  0  0  0  3  0  0  0  0  0  0
  190.7500  177.4390  138.9090 C   0  0  0  0  0  3  0  0  0  0  0  0
  190.3120  177.4850  140.2340 C   0  0  0  0  0  3  0  0  0  0  0  0
  1 15  1  0  0  0  0
  2  6  1  6  0  0  0
  2 16  1  0  0  0  0
  4 13  1  0  0  0  0
  6 18  1  0  0  0  0
  7  9  1  0  0  0  0
  8 17  1  0  0  0  0
  8 10  1  0  0  0  0
 11  7  2  0  0  0  0
 12 23  1  6  0  0  0
 12  1  1  0  0  0  0
 12  2  1  0  0  0  0
 13  9  2  0  0  0  0
 13  5  1  0  0  0  0
 14 11  1  0  0  0  0
 14  4  2  0  0  0  0
 15 21  1  0  0  0  0
 16  3  1  1  0  0  0
 16 11  1  0  0  0  0
 18 14  1  0  0  0  0
 19  8  2  0  0  0  0
 20 15  2  0  0  0  0
 20 19  1  0  0  0  0
 21  3  1  0  0  0  0
 21 17  2  0  0  0  0
 22 25  2  0  0  0  0
 22 26  1  0  0  0  0
 24 23  2  0  0  0  0
 25 24  1  0  0  0  0
 26 27  2  0  0  0  0
 27 23  1  0  0  0  0
M  END
>  <MODEL>
8

>  <REMARK>
 VINA RESULT:      -9.5      2.662      5.220
  Name = 
  1 active torsions:
  status: ('A' for Active; 'I' for Inactive)
    1  A    between atoms: C_9  and  C_15
                            x       y       z     vdW  Elec       q    Type
                         _______ _______ _______ _____ _____    ______ ____

>  <TORSDO>
F 1

$$$$
=
 OpenBabel11052413483D

 27 31  0  0  1  0  0  0  0  0999 V2000
  184.8420  177.8390  141.1380 N   0  0  0  0  0  2  0  0  0  0  0  0
  186.8340  178.4060  142.5600 C   0  0  1  0  0  3  0  0  0  0  0  0
  184.8240  179.1050  143.8110 N   0  0  0  0  0  2  0  0  0  0  0  0
  188.7360  177.4430  146.1760 C   0  0  0  0  0  3  0  0  0  0  0  0
  188.8490  177.5760  148.5810 O   0  0  0  0  0  1  0  0  0  0  0  0
  187.8990  177.3070  142.5310 C   0  0  0  0  0  2  0  0  0  0  0  0
  186.0680  178.2850  146.2650 C   0  0  0  0  0  3  0  0  0  0  0  0
  181.2480  179.3150  142.8160 C   0  0  0  0  0  0  0  0  0  0  0  0
  186.7940  178.1340  147.4490 C   0  0  0  0  0  3  0  0  0  0  0  0
  180.0950  179.8250  143.3110 F   0  0  0  0  0  0  0  0  0  0  0  0
  186.6770  178.0370  145.0280 C   0  0  0  0  0  0  0  0  0  0  0  0
  186.0830  178.6050  141.2310 C   0  0  1  0  0  3  0  0  0  0  0  0
  188.1280  177.7190  147.4040 C   0  0  0  0  0  0  0  0  0  0  0  0
  188.0130  177.5870  144.9880 C   0  0  0  0  0  0  0  0  0  0  0  0
  183.6370  178.2730  141.7800 C   0  0  0  0  0  0  0  0  0  0  0  0
  185.8990  178.1240  143.7390 C   0  0  2  0  0  3  0  0  0  0  0  0
  182.4500  179.5180  143.4990 C   0  0  0  0  0  3  0  0  0  0  0  0
  188.6290  177.3090  143.7610 O   0  0  0  0  0  0  0  0  0  0  0  0
  181.2310  178.5650  141.6390 C   0  0  0  0  0  3  0  0  0  0  0  0
  182.4220  178.0510  141.1220 C   0  0  0  0  0  3  0  0  0  0  0  0
  183.6460  178.9900  143.0020 C   0  0  0  0  0  0  0  0  0  0  0  0
  188.4440  178.2220  137.7000 N   0  0  0  0  0  0  0  0  0  0  0  0
  186.9280  178.4560  140.0000 C   0  0  0  0  0  0  0  0  0  0  0  0
  186.3100  178.2050  138.7730 C   0  0  0  0  0  3  0  0  0  0  0  0
  187.0930  178.0870  137.6230 C   0  0  0  0  0  3  0  0  0  0  0  0
  189.0680  178.4730  138.8820 C   0  0  0  0  0  3  0  0  0  0  0  0
  188.3210  178.5980  140.0560 C   0  0  0  0  0  3  0  0  0  0  0  0
  1 12  1  0  0  0  0
  1 15  1  0  0  0  0
  2  6  1  6  0  0  0
  2 16  1  0  0  0  0
  4 13  1  0  0  0  0
  6 18  1  0  0  0  0
  7  9  1  0  0  0  0
  8 10  1  0  0  0  0
  8 17  1  0  0  0  0
 11  7  2  0  0  0  0
 12 23  1  6  0  0  0
 12  2  1  0  0  0  0
 13  9  2  0  0  0  0
 13  5  1  0  0  0  0
 14 11  1  0  0  0  0
 14  4  2  0  0  0  0
 15 21  1  0  0  0  0
 16  3  1  1  0  0  0
 16 11  1  0  0  0  0
 18 14  1  0  0  0  0
 19  8  2  0  0  0  0
 20 19  1  0  0  0  0
 20 15  2  0  0  0  0
 21 17  2  0  0  0  0
 21  3  1  0  0  0  0
 22 26  1  0  0  0  0
 23 27  1  0  0  0  0
 24 23  2  0  0  0  0
 25 22  2  0  0  0  0
 25 24  1  0  0  0  0
 26 27  2  0  0  0  0
M  END
>  <MODEL>
9

>  <REMARK>
 VINA RESULT:      -9.2      3.235      5.869
  Name = 
  1 active torsions:
  status: ('A' for Active; 'I' for Inactive)
    1  A    between atoms: C_9  and  C_15
                            x       y       z     vdW  Elec       q    Type
                         _______ _______ _______ _____ _____    ______ ____

>  <TORSDO>
F 1

$$$$
