=
 OpenBabel11052413163D

 31 34  0  0  1  0  0  0  0  0999 V2000
  188.6100  177.4710  147.6810 C   0  0  0  0  0  0  0  0  0  0  0  0
  187.1200  177.9960  144.2580 C   0  0  0  0  0  0  0  0  0  0  0  0
  185.7320  178.3020  144.4510 C   0  0  0  0  0  0  0  0  0  0  0  0
  191.5860  176.7360  141.7550 O   0  0  0  0  0  0  0  0  0  0  0  0
  190.7680  177.2080  140.9200 C   0  0  0  0  0  0  0  0  0  0  0  0
  183.7890  178.6650  145.8910 C   0  0  0  0  0  3  0  0  0  0  0  0
  188.0440  177.7290  145.3170 C   0  0  0  0  0  0  0  0  0  0  0  0
  189.9350  177.1920  147.3480 C   0  0  0  0  0  3  0  0  0  0  0  0
  185.1410  178.3650  145.7270 C   0  0  0  0  0  3  0  0  0  0  0  0
  188.9670  177.6550  142.6730 C   0  0  0  0  0  0  0  0  0  0  0  0
  188.2280  177.4880  148.9800 F   0  0  0  0  0  0  0  0  0  0  0  0
  185.4270  178.5070  142.0390 C   0  0  0  0  0  3  0  0  0  0  0  0
  182.9890  178.9100  144.7790 C   0  0  0  0  0  3  0  0  0  0  0  0
  189.8050  177.4110  143.7100 N   0  0  0  0  0  0  0  0  0  0  0  0
  187.6170  177.9550  142.9220 C   0  0  0  0  0  0  0  0  0  0  0  0
  189.4580  177.6200  141.3230 N   0  0  0  0  0  2  0  0  0  0  0  0
  187.6790  177.7360  146.6750 C   0  0  0  0  0  3  0  0  0  0  0  0
  182.7390  179.1010  142.4290 F   0  0  0  0  0  0  0  0  0  0  0  0
  189.3940  177.4380  144.9990 C   0  0  0  0  0  0  0  0  0  0  0  0
  190.3250  177.1750  146.0090 C   0  0  0  0  0  3  0  0  0  0  0  0
  186.7670  178.2110  141.8410 C   0  0  0  0  0  3  0  0  0  0  0  0
  184.8990  178.5560  143.3260 C   0  0  0  0  0  0  0  0  0  0  0  0
  183.5370  178.8570  143.4980 C   0  0  0  0  0  0  0  0  0  0  0  0
  192.5510  176.7750  139.2310 C   0  0  0  0  0  1  0  0  0  0  0  0
  191.1350  177.2860  139.4730 C   0  0  1  0  0  3  0  0  0  0  0  0
  190.5470  175.3130  138.2140 O   0  0  0  0  0  1  0  0  0  0  0  0
  190.0950  176.5770  138.6000 C   0  0  2  0  0  3  0  0  0  0  0  0
  189.7470  177.3940  137.3640 C   0  0  0  0  0  2  0  0  0  0  0  0
  188.8020  178.4960  137.7000 C   0  0  0  0  0  0  0  0  0  0  0  0
  187.5870  178.2090  138.3820 N   0  0  0  0  0  1  0  0  0  0  0  0
  189.0840  179.6830  137.3930 O   0  0  0  0  0  0  0  0  0  0  0  0
  1 11  1  0  0  0  0
  2  3  1  0  0  0  0
  2  7  1  0  0  0  0
  3  9  1  0  0  0  0
  5 16  1  0  0  0  0
  5  4  2  0  0  0  0
  7 17  1  0  0  0  0
  8  1  1  0  0  0  0
  9  6  2  0  0  0  0
 10 15  1  0  0  0  0
 10 14  2  0  0  0  0
 12 22  1  0  0  0  0
 13  6  1  0  0  0  0
 14 19  1  0  0  0  0
 15  2  2  0  0  0  0
 16 10  1  0  0  0  0
 17  1  2  0  0  0  0
 18 23  1  0  0  0  0
 19  7  2  0  0  0  0
 19 20  1  0  0  0  0
 20  8  2  0  0  0  0
 21 12  2  0  0  0  0
 21 15  1  0  0  0  0
 22 23  1  0  0  0  0
 22  3  2  0  0  0  0
 23 13  2  0  0  0  0
 25 24  1  1  0  0  0
 25  5  1  0  0  0  0
 27 26  1  6  0  0  0
 27 25  1  0  0  0  0
 28 29  1  0  0  0  0
 28 27  1  0  0  0  0
 29 30  1  0  0  0  0
 31 29  2  0  0  0  0
M  END
>  <MODEL>
1

>  <REMARK>
 VINA RESULT:     -11.2      0.000      0.000
  Name = 
  4 active torsions:
  status: ('A' for Active; 'I' for Inactive)
    1  A    between atoms: C_1  and  C_24
    2  A    between atoms: C_9  and  C_22
    3  A    between atoms: C_19  and  C_22
    4  A    between atoms: C_19  and  C_24
                            x       y       z     vdW  Elec       q    Type
                         _______ _______ _______ _____ _____    ______ ____

>  <TORSDO>
F 4

$$$$
=
 OpenBabel11052413163D

 31 34  0  0  1  0  0  0  0  0999 V2000
  190.5080  176.9210  146.5720 C   0  0  0  0  0  0  0  0  0  0  0  0
  187.8120  177.6660  144.0440 C   0  0  0  0  0  0  0  0  0  0  0  0
  186.6350  178.0200  144.7840 C   0  0  0  0  0  0  0  0  0  0  0  0
  190.8350  176.3430  139.9330 O   0  0  0  0  0  0  0  0  0  0  0  0
  189.7810  176.8860  139.5070 C   0  0  0  0  0  0  0  0  0  0  0  0
  185.4490  178.3940  146.8900 C   0  0  0  0  0  3  0  0  0  0  0  0
  189.0630  177.3120  144.6390 C   0  0  0  0  0  0  0  0  0  0  0  0
  191.5730  176.6030  145.7300 C   0  0  0  0  0  3  0  0  0  0  0  0
  186.6040  178.0480  146.1910 C   0  0  0  0  0  3  0  0  0  0  0  0
  188.8530  177.3240  141.8450 C   0  0  0  0  0  0  0  0  0  0  0  0
  190.6760  176.8930  147.9150 F   0  0  0  0  0  0  0  0  0  0  0  0
  185.4080  178.3500  142.7010 C   0  0  0  0  0  3  0  0  0  0  0  0
  184.2870  178.7250  146.1970 C   0  0  0  0  0  3  0  0  0  0  0  0
  190.0200  176.9980  142.4540 N   0  0  0  0  0  0  0  0  0  0  0  0
  187.7330  177.6680  142.6210 C   0  0  0  0  0  0  0  0  0  0  0  0
  188.7640  177.3320  140.4110 N   0  0  0  0  0  2  0  0  0  0  0  0
  189.2700  177.2710  146.0290 C   0  0  0  0  0  3  0  0  0  0  0  0
  183.1340  179.0350  144.1480 F   0  0  0  0  0  0  0  0  0  0  0  0
  190.1580  176.9810  143.7990 C   0  0  0  0  0  0  0  0  0  0  0  0
  191.3970  176.6340  144.3470 C   0  0  0  0  0  3  0  0  0  0  0  0
  186.5390  178.0090  141.9770 C   0  0  0  0  0  3  0  0  0  0  0  0
  185.4380  178.3610  144.0930 C   0  0  0  0  0  0  0  0  0  0  0  0
  184.2770  178.7090  144.8030 C   0  0  0  0  0  0  0  0  0  0  0  0
  190.7550  176.5450  137.2370 C   0  0  0  0  0  1  0  0  0  0  0  0
  189.5450  177.0170  138.0370 C   0  0  1  0  0  3  0  0  0  0  0  0
  188.5220  175.0510  137.0800 O   0  0  0  0  0  1  0  0  0  0  0  0
  188.2510  176.3120  137.6200 C   0  0  2  0  0  3  0  0  0  0  0  0
  187.4600  177.1370  136.6140 C   0  0  0  0  0  2  0  0  0  0  0  0
  187.0400  178.4380  137.2060 C   0  0  0  0  0  0  0  0  0  0  0  0
  186.1570  178.4630  138.3210 N   0  0  0  0  0  1  0  0  0  0  0  0
  187.4760  179.5170  136.7280 O   0  0  0  0  0  0  0  0  0  0  0  0
  1 11  1  0  0  0  0
  2  7  1  0  0  0  0
  2  3  1  0  0  0  0
  3  9  1  0  0  0  0
  5  4  2  0  0  0  0
  5 16  1  0  0  0  0
  7 17  2  0  0  0  0
  8  1  2  0  0  0  0
  9  6  2  0  0  0  0
 10 14  2  0  0  0  0
 10 15  1  0  0  0  0
 12 22  1  0  0  0  0
 13  6  1  0  0  0  0
 14 19  1  0  0  0  0
 15  2  2  0  0  0  0
 16 10  1  0  0  0  0
 17  1  1  0  0  0  0
 18 23  1  0  0  0  0
 19 20  2  0  0  0  0
 19  7  1  0  0  0  0
 20  8  1  0  0  0  0
 21 15  1  0  0  0  0
 21 12  2  0  0  0  0
 22  3  2  0  0  0  0
 22 23  1  0  0  0  0
 23 13  2  0  0  0  0
 25 24  1  6  0  0  0
 25  5  1  0  0  0  0
 27 26  1  6  0  0  0
 27 25  1  0  0  0  0
 28 29  1  0  0  0  0
 28 27  1  0  0  0  0
 29 30  1  0  0  0  0
 31 29  2  0  0  0  0
M  END
>  <MODEL>
2

>  <REMARK>
 VINA RESULT:     -11.2      1.406      1.756
  Name = 
  4 active torsions:
  status: ('A' for Active; 'I' for Inactive)
    1  A    between atoms: C_1  and  C_24
    2  A    between atoms: C_9  and  C_22
    3  A    between atoms: C_19  and  C_22
    4  A    between atoms: C_19  and  C_24
                            x       y       z     vdW  Elec       q    Type
                         _______ _______ _______ _____ _____    ______ ____

>  <TORSDO>
F 4

$$$$
=
 OpenBabel11052413163D

 31 34  0  0  1  0  0  0  0  0999 V2000
  184.6870  178.5090  146.0850 C   0  0  0  0  0  0  0  0  0  0  0  0
  187.9210  177.6620  144.3430 C   0  0  0  0  0  0  0  0  0  0  0  0
  188.8810  177.3670  145.3690 C   0  0  0  0  0  0  0  0  0  0  0  0
  186.0000  178.7100  139.5470 O   0  0  0  0  0  0  0  0  0  0  0  0
  187.1270  178.1590  139.4240 C   0  0  0  0  0  0  0  0  0  0  0  0
  189.5140  177.1280  147.7190 C   0  0  0  0  0  3  0  0  0  0  0  0
  186.5620  178.0310  144.5910 C   0  0  0  0  0  0  0  0  0  0  0  0
  183.8620  178.7640  144.9910 C   0  0  0  0  0  3  0  0  0  0  0  0
  188.5650  177.4190  146.7390 C   0  0  0  0  0  3  0  0  0  0  0  0
  187.4520  177.8650  141.9400 C   0  0  0  0  0  0  0  0  0  0  0  0
  184.1950  178.6100  147.3430 F   0  0  0  0  0  0  0  0  0  0  0  0
  190.5810  176.9380  143.6720 C   0  0  0  0  0  3  0  0  0  0  0  0
  190.8100  176.7760  147.3510 C   0  0  0  0  0  3  0  0  0  0  0  0
  186.1720  178.2080  142.2240 N   0  0  0  0  0  0  0  0  0  0  0  0
  188.3470  177.5810  142.9850 C   0  0  0  0  0  0  0  0  0  0  0  0
  187.8900  177.7780  140.5750 N   0  0  0  0  0  2  0  0  0  0  0  0
  186.0200  178.1470  145.8840 C   0  0  0  0  0  3  0  0  0  0  0  0
  192.4300  176.3680  145.6690 F   0  0  0  0  0  0  0  0  0  0  0  0
  185.7080  178.2990  143.4920 C   0  0  0  0  0  0  0  0  0  0  0  0
  184.3720  178.6580  143.6980 C   0  0  0  0  0  3  0  0  0  0  0  0
  189.6630  177.2220  142.6740 C   0  0  0  0  0  3  0  0  0  0  0  0
  190.2110  177.0050  145.0120 C   0  0  0  0  0  0  0  0  0  0  0  0
  191.1620  176.7130  146.0040 C   0  0  0  0  0  0  0  0  0  0  0  0
  186.8020  178.4950  136.9750 C   0  0  0  0  0  1  0  0  0  0  0  0
  187.7160  177.9490  138.0670 C   0  0  1  0  0  3  0  0  0  0  0  0
  189.1630  179.6840  137.2180 O   0  0  0  0  0  1  0  0  0  0  0  0
  189.1360  178.5170  137.9870 C   0  0  2  0  0  3  0  0  0  0  0  0
  190.1160  177.5040  137.4120 C   0  0  0  0  0  2  0  0  0  0  0  0
  190.7120  176.6670  138.4900 C   0  0  0  0  0  0  0  0  0  0  0  0
  190.7810  175.2540  138.3410 N   0  0  0  0  0  1  0  0  0  0  0  0
  191.1670  177.2100  139.5300 O   0  0  0  0  0  0  0  0  0  0  0  0
  1 11  1  0  0  0  0
  2  7  1  0  0  0  0
  2  3  1  0  0  0  0
  3  9  1  0  0  0  0
  5  4  2  0  0  0  0
  5 16  1  0  0  0  0
  7 17  2  0  0  0  0
  8  1  2  0  0  0  0
  9  6  2  0  0  0  0
 10 14  2  0  0  0  0
 10 15  1  0  0  0  0
 12 22  1  0  0  0  0
 13  6  1  0  0  0  0
 14 19  1  0  0  0  0
 15  2  2  0  0  0  0
 16 10  1  0  0  0  0
 17  1  1  0  0  0  0
 18 23  1  0  0  0  0
 19 20  2  0  0  0  0
 19  7  1  0  0  0  0
 20  8  1  0  0  0  0
 21 15  1  0  0  0  0
 21 12  2  0  0  0  0
 22  3  2  0  0  0  0
 22 23  1  0  0  0  0
 23 13  2  0  0  0  0
 25 24  1  6  0  0  0
 25  5  1  0  0  0  0
 27 26  1  6  0  0  0
 27 25  1  0  0  0  0
 28 27  1  0  0  0  0
 28 29  1  0  0  0  0
 29 31  2  0  0  0  0
 30 29  1  0  0  0  0
M  END
>  <MODEL>
3

>  <REMARK>
 VINA RESULT:     -11.0      2.036      4.906
  Name = 
  4 active torsions:
  status: ('A' for Active; 'I' for Inactive)
    1  A    between atoms: C_1  and  C_24
    2  A    between atoms: C_9  and  C_22
    3  A    between atoms: C_19  and  C_22
    4  A    between atoms: C_19  and  C_24
                            x       y       z     vdW  Elec       q    Type
                         _______ _______ _______ _____ _____    ______ ____

>  <TORSDO>
F 4

$$$$
=
 OpenBabel11052413163D

 31 34  0  0  1  0  0  0  0  0999 V2000
  183.9930  178.7580  144.5340 C   0  0  0  0  0  0  0  0  0  0  0  0
  187.6640  177.8990  144.5590 C   0  0  0  0  0  0  0  0  0  0  0  0
  188.0630  177.8210  145.9350 C   0  0  0  0  0  0  0  0  0  0  0  0
  188.0910  178.1140  139.3090 O   0  0  0  0  0  0  0  0  0  0  0  0
  189.1530  177.6310  139.7860 C   0  0  0  0  0  0  0  0  0  0  0  0
  187.5790  177.9650  148.3270 C   0  0  0  0  0  3  0  0  0  0  0  0
  186.3380  178.2030  144.1190 C   0  0  0  0  0  0  0  0  0  0  0  0
  183.7450  178.7950  143.1630 C   0  0  0  0  0  3  0  0  0  0  0  0
  187.1690  178.0460  146.9970 C   0  0  0  0  0  3  0  0  0  0  0  0
  188.3190  177.7230  142.1970 C   0  0  0  0  0  0  0  0  0  0  0  0
  182.9910  179.0020  145.4110 F   0  0  0  0  0  0  0  0  0  0  0  0
  190.3430  177.2740  145.2560 C   0  0  0  0  0  3  0  0  0  0  0  0
  188.9020  177.6560  148.6310 C   0  0  0  0  0  3  0  0  0  0  0  0
  187.0470  178.0130  141.8280 N   0  0  0  0  0  0  0  0  0  0  0  0
  188.6520  177.6550  143.5610 C   0  0  0  0  0  0  0  0  0  0  0  0
  189.3220  177.4730  141.1990 N   0  0  0  0  0  2  0  0  0  0  0  0
  185.2750  178.4650  145.0030 C   0  0  0  0  0  3  0  0  0  0  0  0
  191.1030  177.1260  147.9270 F   0  0  0  0  0  0  0  0  0  0  0  0
  186.0650  178.2510  142.7280 C   0  0  0  0  0  0  0  0  0  0  0  0
  184.7790  178.5420  142.2630 C   0  0  0  0  0  3  0  0  0  0  0  0
  189.9680  177.3480  143.9240 C   0  0  0  0  0  3  0  0  0  0  0  0
  189.4120  177.5060  146.2650 C   0  0  0  0  0  0  0  0  0  0  0  0
  189.8190  177.4260  147.6070 C   0  0  0  0  0  0  0  0  0  0  0  0
  191.5920  177.1280  139.6550 C   0  0  0  0  0  1  0  0  0  0  0  0
  190.2870  177.2710  138.8800 C   0  0  1  0  0  3  0  0  0  0  0  0
  190.8320  174.9830  138.3430 O   0  0  0  0  0  1  0  0  0  0  0  0
  189.9550  176.0290  138.0470 C   0  0  2  0  0  3  0  0  0  0  0  0
  190.0000  176.3250  136.5540 C   0  0  0  0  0  2  0  0  0  0  0  0
  188.6950  176.8630  136.0780 C   0  0  0  0  0  0  0  0  0  0  0  0
  187.4790  176.2410  136.4760 N   0  0  0  0  0  1  0  0  0  0  0  0
  188.6660  177.8770  135.3340 O   0  0  0  0  0  0  0  0  0  0  0  0
  1 17  1  0  0  0  0
  1 11  1  0  0  0  0
  2  3  1  0  0  0  0
  3 22  2  0  0  0  0
  3  9  1  0  0  0  0
  4  5  2  0  0  0  0
  5 16  1  0  0  0  0
  6 13  1  0  0  0  0
  7  2  1  0  0  0  0
  7 17  2  0  0  0  0
  8  1  2  0  0  0  0
  9  6  2  0  0  0  0
 10 15  1  0  0  0  0
 12 22  1  0  0  0  0
 14 10  2  0  0  0  0
 14 19  1  0  0  0  0
 15 21  1  0  0  0  0
 15  2  2  0  0  0  0
 16 10  1  0  0  0  0
 19  7  1  0  0  0  0
 20 19  2  0  0  0  0
 20  8  1  0  0  0  0
 21 12  2  0  0  0  0
 22 23  1  0  0  0  0
 23 18  1  0  0  0  0
 23 13  2  0  0  0  0
 25 24  1  1  0  0  0
 25  5  1  0  0  0  0
 27 26  1  6  0  0  0
 27 25  1  0  0  0  0
 28 27  1  0  0  0  0
 29 30  1  0  0  0  0
 29 28  1  0  0  0  0
 31 29  2  0  0  0  0
M  END
>  <MODEL>
4

>  <REMARK>
 VINA RESULT:     -11.0      1.599      4.416
  Name = 
  4 active torsions:
  status: ('A' for Active; 'I' for Inactive)
    1  A    between atoms: C_1  and  C_24
    2  A    between atoms: C_9  and  C_22
    3  A    between atoms: C_19  and  C_22
    4  A    between atoms: C_19  and  C_24
                            x       y       z     vdW  Elec       q    Type
                         _______ _______ _______ _____ _____    ______ ____

>  <TORSDO>
F 4

$$$$
=
 OpenBabel11052413163D

 31 34  0  0  1  0  0  0  0  0999 V2000
  190.7200  176.7690  146.2870 C   0  0  0  0  0  0  0  0  0  0  0  0
  187.8200  177.6670  144.0520 C   0  0  0  0  0  0  0  0  0  0  0  0
  186.7220  178.0050  144.9110 C   0  0  0  0  0  0  0  0  0  0  0  0
  190.4290  176.4790  139.6280 O   0  0  0  0  0  0  0  0  0  0  0  0
  189.3510  177.0570  139.3240 C   0  0  0  0  0  0  0  0  0  0  0  0
  185.7400  178.3050  147.1310 C   0  0  0  0  0  3  0  0  0  0  0  0
  189.1130  177.2670  144.5130 C   0  0  0  0  0  0  0  0  0  0  0  0
  191.6970  176.4730  145.3380 C   0  0  0  0  0  3  0  0  0  0  0  0
  186.8200  177.9710  146.3140 C   0  0  0  0  0  3  0  0  0  0  0  0
  188.6490  177.4060  141.7540 C   0  0  0  0  0  0  0  0  0  0  0  0
  191.0090  176.6790  147.6070 F   0  0  0  0  0  0  0  0  0  0  0  0
  185.3170  178.4460  142.9660 C   0  0  0  0  0  3  0  0  0  0  0  0
  184.5270  178.6830  146.5620 C   0  0  0  0  0  3  0  0  0  0  0  0
  189.8600  177.0350  142.2380 N   0  0  0  0  0  0  0  0  0  0  0  0
  187.6110  177.7330  142.6430 C   0  0  0  0  0  0  0  0  0  0  0  0
  188.4300  177.4790  140.3360 N   0  0  0  0  0  2  0  0  0  0  0  0
  189.4450  177.1620  145.8760 C   0  0  0  0  0  3  0  0  0  0  0  0
  183.1980  179.1010  144.6430 F   0  0  0  0  0  0  0  0  0  0  0  0
  190.1190  176.9570  143.5640 C   0  0  0  0  0  0  0  0  0  0  0  0
  191.3960  176.5670  143.9800 C   0  0  0  0  0  3  0  0  0  0  0  0
  186.3700  178.1190  142.1270 C   0  0  0  0  0  3  0  0  0  0  0  0
  185.4740  178.3950  144.3480 C   0  0  0  0  0  0  0  0  0  0  0  0
  184.3890  178.7290  145.1760 C   0  0  0  0  0  0  0  0  0  0  0  0
  189.1860  178.7050  137.4600 C   0  0  0  0  0  1  0  0  0  0  0  0
  188.9860  177.2560  137.8880 C   0  0  1  0  0  3  0  0  0  0  0  0
  190.3000  176.9210  135.8920 O   0  0  0  0  0  1  0  0  0  0  0  0
  189.7300  176.2660  136.9870 C   0  0  2  0  0  3  0  0  0  0  0  0
  188.8130  175.1550  136.4950 C   0  0  0  0  0  2  0  0  0  0  0  0
  189.2600  173.8290  137.0070 C   0  0  0  0  0  0  0  0  0  0  0  0
  188.4320  172.6840  136.8420 N   0  0  0  0  0  1  0  0  0  0  0  0
  190.3770  173.7180  137.5750 O   0  0  0  0  0  0  0  0  0  0  0  0
  1 11  1  0  0  0  0
  2  7  1  0  0  0  0
  2  3  1  0  0  0  0
  3  9  1  0  0  0  0
  5  4  2  0  0  0  0
  5 16  1  0  0  0  0
  7 17  2  0  0  0  0
  8  1  2  0  0  0  0
  9  6  2  0  0  0  0
 10 14  2  0  0  0  0
 10 15  1  0  0  0  0
 12 22  1  0  0  0  0
 13  6  1  0  0  0  0
 14 19  1  0  0  0  0
 15  2  2  0  0  0  0
 16 10  1  0  0  0  0
 17  1  1  0  0  0  0
 18 23  1  0  0  0  0
 19 20  2  0  0  0  0
 19  7  1  0  0  0  0
 20  8  1  0  0  0  0
 21 15  1  0  0  0  0
 21 12  2  0  0  0  0
 22  3  2  0  0  0  0
 22 23  1  0  0  0  0
 23 13  2  0  0  0  0
 25 24  1  6  0  0  0
 25  5  1  0  0  0  0
 27 26  1  6  0  0  0
 27 25  1  0  0  0  0
 28 27  1  0  0  0  0
 28 29  1  0  0  0  0
 29 31  2  0  0  0  0
 30 29  1  0  0  0  0
M  END
>  <MODEL>
5

>  <REMARK>
 VINA RESULT:     -10.7      1.874      2.658
  Name = 
  4 active torsions:
  status: ('A' for Active; 'I' for Inactive)
    1  A    between atoms: C_1  and  C_24
    2  A    between atoms: C_9  and  C_22
    3  A    between atoms: C_19  and  C_22
    4  A    between atoms: C_19  and  C_24
                            x       y       z     vdW  Elec       q    Type
                         _______ _______ _______ _____ _____    ______ ____

>  <TORSDO>
F 4

$$$$
=
 OpenBabel11052413163D

 31 34  0  0  1  0  0  0  0  0999 V2000
  191.1910  177.2790  141.4840 C   0  0  0  0  0  0  0  0  0  0  0  0
  188.0200  177.8910  143.4290 C   0  0  0  0  0  0  0  0  0  0  0  0
  188.3370  177.6910  144.8140 C   0  0  0  0  0  0  0  0  0  0  0  0
  185.1060  178.6100  139.0950 O   0  0  0  0  0  0  0  0  0  0  0  0
  184.4230  178.9310  140.1040 C   0  0  0  0  0  0  0  0  0  0  0  0
  189.9110  177.1440  146.6040 C   0  0  0  0  0  3  0  0  0  0  0  0
  188.9580  177.7540  142.3580 C   0  0  0  0  0  0  0  0  0  0  0  0
  190.7460  177.5070  140.1820 C   0  0  0  0  0  3  0  0  0  0  0  0
  189.6250  177.3320  145.2520 C   0  0  0  0  0  3  0  0  0  0  0  0
  186.3130  178.4520  141.7520 C   0  0  0  0  0  0  0  0  0  0  0  0
  192.4840  176.9410  141.7080 F   0  0  0  0  0  0  0  0  0  0  0  0
  186.0340  178.2110  145.4290 C   0  0  0  0  0  3  0  0  0  0  0  0
  188.9100  177.3100  147.5570 C   0  0  0  0  0  3  0  0  0  0  0  0
  187.2390  178.3140  140.7710 N   0  0  0  0  0  0  0  0  0  0  0  0
  186.6820  178.2510  143.0930 C   0  0  0  0  0  0  0  0  0  0  0  0
  184.9630  178.8180  141.4260 N   0  0  0  0  0  2  0  0  0  0  0  0
  190.3050  177.4020  142.5560 C   0  0  0  0  0  3  0  0  0  0  0  0
  186.6620  177.8220  148.1100 F   0  0  0  0  0  0  0  0  0  0  0  0
  188.5240  177.9770  141.0270 C   0  0  0  0  0  0  0  0  0  0  0  0
  189.4150  177.8560  139.9550 C   0  0  0  0  0  3  0  0  0  0  0  0
  185.7170  178.4040  144.0940 C   0  0  0  0  0  3  0  0  0  0  0  0
  187.3270  177.8570  145.8030 C   0  0  0  0  0  0  0  0  0  0  0  0
  187.6210  177.6650  147.1630 C   0  0  0  0  0  0  0  0  0  0  0  0
  182.5900  179.3790  138.4740 C   0  0  0  0  0  1  0  0  0  0  0  0
  183.0070  179.3790  139.9400 C   0  0  1  0  0  3  0  0  0  0  0  0
  181.7810  177.3210  140.2340 O   0  0  0  0  0  1  0  0  0  0  0  0
  182.0620  178.5570  140.8220 C   0  0  2  0  0  3  0  0  0  0  0  0
  180.7610  179.2990  141.0970 C   0  0  0  0  0  2  0  0  0  0  0  0
  180.6920  179.7460  142.5170 C   0  0  0  0  0  0  0  0  0  0  0  0
  181.3570  179.0030  143.5320 N   0  0  0  0  0  1  0  0  0  0  0  0
  180.0560  180.7880  142.8180 O   0  0  0  0  0  0  0  0  0  0  0  0
  1 11  1  0  0  0  0
  1 17  1  0  0  0  0
  2  3  1  0  0  0  0
  3  9  2  0  0  0  0
  3 22  1  0  0  0  0
  4  5  2  0  0  0  0
  5 16  1  0  0  0  0
  6 13  2  0  0  0  0
  7 17  2  0  0  0  0
  7  2  1  0  0  0  0
  8  1  2  0  0  0  0
  9  6  1  0  0  0  0
 10 15  1  0  0  0  0
 12 22  1  0  0  0  0
 14 19  1  0  0  0  0
 14 10  2  0  0  0  0
 15  2  2  0  0  0  0
 15 21  1  0  0  0  0
 16 10  1  0  0  0  0
 19  7  1  0  0  0  0
 20  8  1  0  0  0  0
 20 19  2  0  0  0  0
 21 12  2  0  0  0  0
 22 23  2  0  0  0  0
 23 13  1  0  0  0  0
 23 18  1  0  0  0  0
 25 24  1  6  0  0  0
 25  5  1  0  0  0  0
 25 27  1  0  0  0  0
 27 26  1  6  0  0  0
 27 28  1  0  0  0  0
 28 29  1  0  0  0  0
 29 31  2  0  0  0  0
 29 30  1  0  0  0  0
M  END
>  <MODEL>
6

>  <REMARK>
 VINA RESULT:     -10.0      3.795      6.551
  Name = 
  4 active torsions:
  status: ('A' for Active; 'I' for Inactive)
    1  A    between atoms: C_1  and  C_24
    2  A    between atoms: C_9  and  C_22
    3  A    between atoms: C_19  and  C_22
    4  A    between atoms: C_19  and  C_24
                            x       y       z     vdW  Elec       q    Type
                         _______ _______ _______ _____ _____    ______ ____

>  <TORSDO>
F 4

$$$$
=
 OpenBabel11052413163D

 31 34  0  0  1  0  0  0  0  0999 V2000
  189.0060  177.9410  147.6160 C   0  0  0  0  0  0  0  0  0  0  0  0
  188.1410  177.8790  143.9470 C   0  0  0  0  0  0  0  0  0  0  0  0
  189.3710  177.6940  143.2320 C   0  0  0  0  0  0  0  0  0  0  0  0
  183.0420  178.9200  144.7900 O   0  0  0  0  0  0  0  0  0  0  0  0
  183.2000  178.6090  143.5790 C   0  0  0  0  0  0  0  0  0  0  0  0
  191.7970  177.3930  143.1680 C   0  0  0  0  0  3  0  0  0  0  0  0
  188.0370  177.9570  145.3710 C   0  0  0  0  0  0  0  0  0  0  0  0
  187.7420  178.1190  148.1770 C   0  0  0  0  0  3  0  0  0  0  0  0
  190.6130  177.5730  143.8820 C   0  0  0  0  0  3  0  0  0  0  0  0
  185.7040  178.1820  143.8360 C   0  0  0  0  0  0  0  0  0  0  0  0
  190.0950  177.8430  148.4150 F   0  0  0  0  0  0  0  0  0  0  0  0
  188.1640  177.7400  141.1130 C   0  0  0  0  0  3  0  0  0  0  0  0
  191.7690  177.3290  141.7780 C   0  0  0  0  0  3  0  0  0  0  0  0
  185.6560  178.2460  145.1890 N   0  0  0  0  0  0  0  0  0  0  0  0
  186.9380  177.9930  143.1890 C   0  0  0  0  0  0  0  0  0  0  0  0
  184.4980  178.2920  143.0630 N   0  0  0  0  0  2  0  0  0  0  0  0
  189.1480  177.8610  146.2290 C   0  0  0  0  0  3  0  0  0  0  0  0
  190.5550  177.3790  139.7410 F   0  0  0  0  0  0  0  0  0  0  0  0
  186.7620  178.1420  145.9620 C   0  0  0  0  0  0  0  0  0  0  0  0
  186.6230  178.2190  147.3510 C   0  0  0  0  0  3  0  0  0  0  0  0
  186.9700  177.9220  141.7930 C   0  0  0  0  0  3  0  0  0  0  0  0
  189.3620  177.6260  141.8110 C   0  0  0  0  0  0  0  0  0  0  0  0
  190.5590  177.4450  141.0970 C   0  0  0  0  0  0  0  0  0  0  0  0
  180.8700  179.4200  143.2190 C   0  0  0  0  0  1  0  0  0  0  0  0
  182.0370  178.6280  142.6410 C   0  0  1  0  0  3  0  0  0  0  0  0
  181.3880  179.7480  140.6050 O   0  0  0  0  0  1  0  0  0  0  0  0
  182.4550  179.1210  141.2520 C   0  0  2  0  0  3  0  0  0  0  0  0
  182.9810  177.9850  140.3860 C   0  0  0  0  0  2  0  0  0  0  0  0
  184.0050  178.4780  139.4240 C   0  0  0  0  0  0  0  0  0  0  0  0
  184.6120  179.7510  139.6170 N   0  0  0  0  0  1  0  0  0  0  0  0
  184.3460  177.7640  138.4460 O   0  0  0  0  0  0  0  0  0  0  0  0
  1  8  1  0  0  0  0
  1 11  1  0  0  0  0
  2  7  1  0  0  0  0
  3  9  1  0  0  0  0
  3  2  1  0  0  0  0
  5  4  2  0  0  0  0
  6  9  2  0  0  0  0
  7 19  2  0  0  0  0
  7 17  1  0  0  0  0
 10 14  2  0  0  0  0
 12 21  2  0  0  0  0
 12 22  1  0  0  0  0
 13  6  1  0  0  0  0
 14 19  1  0  0  0  0
 15 10  1  0  0  0  0
 15  2  2  0  0  0  0
 16  5  1  0  0  0  0
 16 10  1  0  0  0  0
 17  1  2  0  0  0  0
 18 23  1  0  0  0  0
 19 20  1  0  0  0  0
 20  8  2  0  0  0  0
 21 15  1  0  0  0  0
 22  3  2  0  0  0  0
 23 13  2  0  0  0  0
 23 22  1  0  0  0  0
 25 24  1  1  0  0  0
 25  5  1  0  0  0  0
 27 26  1  6  0  0  0
 27 25  1  0  0  0  0
 28 27  1  0  0  0  0
 29 30  1  0  0  0  0
 29 28  1  0  0  0  0
 31 29  2  0  0  0  0
M  END
>  <MODEL>
7

>  <REMARK>
 VINA RESULT:      -9.8      3.494      6.173
  Name = 
  4 active torsions:
  status: ('A' for Active; 'I' for Inactive)
    1  A    between atoms: C_1  and  C_24
    2  A    between atoms: C_9  and  C_22
    3  A    between atoms: C_19  and  C_22
    4  A    between atoms: C_19  and  C_24
                            x       y       z     vdW  Elec       q    Type
                         _______ _______ _______ _____ _____    ______ ____

>  <TORSDO>
F 4

$$$$
=
 OpenBabel11052413163D

 31 34  0  0  1  0  0  0  0  0999 V2000
  190.2960  177.7960  140.9030 C   0  0  0  0  0  0  0  0  0  0  0  0
  187.8860  177.7680  143.8010 C   0  0  0  0  0  0  0  0  0  0  0  0
  188.6620  177.5320  144.9850 C   0  0  0  0  0  0  0  0  0  0  0  0
  183.6460  178.2920  140.7130 O   0  0  0  0  0  0  0  0  0  0  0  0
  183.2950  178.4340  141.9160 C   0  0  0  0  0  0  0  0  0  0  0  0
  190.7920  177.1280  146.1160 C   0  0  0  0  0  3  0  0  0  0  0  0
  188.4310  177.8510  142.4820 C   0  0  0  0  0  0  0  0  0  0  0  0
  189.4240  178.0340  139.8420 C   0  0  0  0  0  3  0  0  0  0  0  0
  190.0570  177.3550  144.9530 C   0  0  0  0  0  3  0  0  0  0  0  0
  185.6670  178.1570  142.8210 C   0  0  0  0  0  0  0  0  0  0  0  0
  191.6230  177.6540  140.6700 F   0  0  0  0  0  0  0  0  0  0  0  0
  186.6410  177.6370  146.3480 C   0  0  0  0  0  3  0  0  0  0  0  0
  190.1470  177.0700  147.3480 C   0  0  0  0  0  3  0  0  0  0  0  0
  186.2290  178.2320  141.5900 N   0  0  0  0  0  0  0  0  0  0  0  0
  186.4770  177.9310  143.9470 C   0  0  0  0  0  0  0  0  0  0  0  0
  184.2480  178.3230  142.9790 N   0  0  0  0  0  2  0  0  0  0  0  0
  189.8020  177.7070  142.2050 C   0  0  0  0  0  3  0  0  0  0  0  0
  188.1570  177.1810  148.6330 F   0  0  0  0  0  0  0  0  0  0  0  0
  187.5590  178.0890  141.3890 C   0  0  0  0  0  0  0  0  0  0  0  0
  188.0580  178.1800  140.0850 C   0  0  0  0  0  3  0  0  0  0  0  0
  185.8820  177.8630  145.2100 C   0  0  0  0  0  3  0  0  0  0  0  0
  188.0190  177.4700  146.2540 C   0  0  0  0  0  0  0  0  0  0  0  0
  188.7650  177.2410  147.4220 C   0  0  0  0  0  0  0  0  0  0  0  0
  181.7110  179.3780  143.5930 C   0  0  0  0  0  1  0  0  0  0  0  0
  181.8580  178.6600  142.2570 C   0  0  1  0  0  3  0  0  0  0  0  0
  180.4300  180.4910  141.5970 O   0  0  0  0  0  1  0  0  0  0  0  0
  181.1260  179.3780  141.1180 C   0  0  2  0  0  3  0  0  0  0  0  0
  180.1640  178.4470  140.3930 C   0  0  0  0  0  2  0  0  0  0  0  0
  180.6780  178.0970  139.0400 C   0  0  0  0  0  0  0  0  0  0  0  0
  180.7710  176.7340  138.6420 N   0  0  0  0  0  1  0  0  0  0  0  0
  181.0190  179.0080  138.2410 O   0  0  0  0  0  0  0  0  0  0  0  0
  1 17  1  0  0  0  0
  2 15  2  0  0  0  0
  2  3  1  0  0  0  0
  3 22  1  0  0  0  0
  4  5  2  0  0  0  0
  5 25  1  0  0  0  0
  5 16  1  0  0  0  0
  6 13  2  0  0  0  0
  7  2  1  0  0  0  0
  8 20  1  0  0  0  0
  8  1  2  0  0  0  0
  9  3  2  0  0  0  0
  9  6  1  0  0  0  0
 10 16  1  0  0  0  0
 10 15  1  0  0  0  0
 11  1  1  0  0  0  0
 13 23  1  0  0  0  0
 14 10  2  0  0  0  0
 15 21  1  0  0  0  0
 17  7  2  0  0  0  0
 19 14  1  0  0  0  0
 19  7  1  0  0  0  0
 20 19  2  0  0  0  0
 21 12  2  0  0  0  0
 22 12  1  0  0  0  0
 22 23  2  0  0  0  0
 23 18  1  0  0  0  0
 25 24  1  1  0  0  0
 27 26  1  1  0  0  0
 27 25  1  0  0  0  0
 28 27  1  0  0  0  0
 29 28  1  0  0  0  0
 30 29  1  0  0  0  0
 31 29  2  0  0  0  0
M  END
>  <MODEL>
8

>  <REMARK>
 VINA RESULT:      -9.6      3.859      7.052
  Name = 
  4 active torsions:
  status: ('A' for Active; 'I' for Inactive)
    1  A    between atoms: C_1  and  C_24
    2  A    between atoms: C_9  and  C_22
    3  A    between atoms: C_19  and  C_22
    4  A    between atoms: C_19  and  C_24
                            x       y       z     vdW  Elec       q    Type
                         _______ _______ _______ _____ _____    ______ ____

>  <TORSDO>
F 4

$$$$
=
 OpenBabel11052413163D

 31 34  0  0  1  0  0  0  0  0999 V2000
  187.2300  178.0680  147.6480 C   0  0  0  0  0  0  0  0  0  0  0  0
  187.7190  177.8770  143.9150 C   0  0  0  0  0  0  0  0  0  0  0  0
  189.1180  177.6530  143.6900 C   0  0  0  0  0  0  0  0  0  0  0  0
  182.6760  178.9970  142.8610 O   0  0  0  0  0  0  0  0  0  0  0  0
  183.2470  178.6390  141.7950 C   0  0  0  0  0  0  0  0  0  0  0  0
  191.4020  177.3270  144.5000 C   0  0  0  0  0  3  0  0  0  0  0  0
  187.1200  178.0090  145.2060 C   0  0  0  0  0  0  0  0  0  0  0  0
  185.8530  178.2790  147.7190 C   0  0  0  0  0  3  0  0  0  0  0  0
  190.0460  177.5450  144.7410 C   0  0  0  0  0  3  0  0  0  0  0  0
  185.4870  178.1980  142.9370 C   0  0  0  0  0  0  0  0  0  0  0  0
  187.9620  177.9900  148.7840 F   0  0  0  0  0  0  0  0  0  0  0  0
  188.7410  177.6320  141.2790 C   0  0  0  0  0  3  0  0  0  0  0  0
  191.8680  177.2120  143.1930 C   0  0  0  0  0  3  0  0  0  0  0  0
  184.9640  178.3140  144.1820 N   0  0  0  0  0  0  0  0  0  0  0  0
  186.8660  177.9730  142.7770 C   0  0  0  0  0  0  0  0  0  0  0  0
  184.6360  178.2910  141.7840 N   0  0  0  0  0  2  0  0  0  0  0  0
  187.8520  177.9350  146.4050 C   0  0  0  0  0  3  0  0  0  0  0  0
  191.4550  177.1970  140.8580 F   0  0  0  0  0  0  0  0  0  0  0  0
  185.7220  178.2290  145.3000 C   0  0  0  0  0  0  0  0  0  0  0  0
  185.1020  178.3590  146.5470 C   0  0  0  0  0  3  0  0  0  0  0  0
  187.3880  177.8490  141.4850 C   0  0  0  0  0  3  0  0  0  0  0  0
  189.6120  177.5330  142.3600 C   0  0  0  0  0  0  0  0  0  0  0  0
  190.9800  177.3130  142.1230 C   0  0  0  0  0  0  0  0  0  0  0  0
  181.1510  179.3460  140.6440 C   0  0  0  0  0  1  0  0  0  0  0  0
  182.4920  178.6340  140.5050 C   0  0  1  0  0  3  0  0  0  0  0  0
  182.6810  180.2420  138.7160 O   0  0  0  0  0  1  0  0  0  0  0  0
  183.3440  179.1970  139.3640 C   0  0  2  0  0  3  0  0  0  0  0  0
  183.7120  178.1200  138.3520 C   0  0  0  0  0  2  0  0  0  0  0  0
  185.1500  178.2130  137.9740 C   0  0  0  0  0  0  0  0  0  0  0  0
  185.6430  177.4800  136.8580 N   0  0  0  0  0  1  0  0  0  0  0  0
  185.9280  178.9510  138.6320 O   0  0  0  0  0  0  0  0  0  0  0  0
  1  8  1  0  0  0  0
  1 11  1  0  0  0  0
  2  7  1  0  0  0  0
  3  2  1  0  0  0  0
  3  9  1  0  0  0  0
  5  4  2  0  0  0  0
  6  9  2  0  0  0  0
  7 19  2  0  0  0  0
  7 17  1  0  0  0  0
 10 14  2  0  0  0  0
 12 21  2  0  0  0  0
 12 22  1  0  0  0  0
 13  6  1  0  0  0  0
 14 19  1  0  0  0  0
 15 10  1  0  0  0  0
 15  2  2  0  0  0  0
 16  5  1  0  0  0  0
 16 10  1  0  0  0  0
 17  1  2  0  0  0  0
 18 23  1  0  0  0  0
 19 20  1  0  0  0  0
 20  8  2  0  0  0  0
 21 15  1  0  0  0  0
 22  3  2  0  0  0  0
 23 22  1  0  0  0  0
 23 13  2  0  0  0  0
 25 24  1  1  0  0  0
 25  5  1  0  0  0  0
 27 26  1  6  0  0  0
 27 25  1  0  0  0  0
 28 27  1  0  0  0  0
 29 28  1  0  0  0  0
 29 31  2  0  0  0  0
 30 29  1  0  0  0  0
M  END
>  <MODEL>
9

>  <REMARK>
 VINA RESULT:      -9.6      3.359      5.849
  Name = 
  4 active torsions:
  status: ('A' for Active; 'I' for Inactive)
    1  A    between atoms: C_1  and  C_24
    2  A    between atoms: C_9  and  C_22
    3  A    between atoms: C_19  and  C_22
    4  A    between atoms: C_19  and  C_24
                            x       y       z     vdW  Elec       q    Type
                         _______ _______ _______ _____ _____    ______ ____

>  <TORSDO>
F 4

$$$$
