=
 OpenBabel11052412203D

 30 32  0  0  1  0  0  0  0  0999 V2000
  184.9310  178.2040  143.0470 C   0  0  0  0  0  0  0  0  0  0  0  0
  183.8280  178.7100  143.7360 C   0  0  0  0  0  3  0  0  0  0  0  0
  184.8270  177.9800  141.7120 F   0  0  0  0  0  0  0  0  0  0  0  0
  186.2160  178.1650  145.1250 C   0  0  0  0  0  0  0  0  0  0  0  0
  183.9040  178.9350  145.1090 C   0  0  0  0  0  3  0  0  0  0  0  0
  186.1270  177.9190  143.7290 C   0  0  0  0  0  0  0  0  0  0  0  0
  185.0870  178.6630  145.7950 C   0  0  0  0  0  3  0  0  0  0  0  0
  188.4120  176.7920  147.9310 C   0  0  0  0  0  3  0  0  0  0  0  0
  189.6220  176.7970  147.3520 C   0  0  0  0  0  3  0  0  0  0  0  0
  187.3290  177.7150  147.4270 C   0  0  1  0  0  3  0  0  0  0  0  0
  188.6610  177.9190  145.3660 C   0  0  0  0  0  3  0  0  0  0  0  0
  187.4320  178.9400  148.0630 F   0  0  0  0  0  0  0  0  0  0  0  0
  189.8980  177.7350  146.2030 C   0  0  2  0  0  3  0  0  0  0  0  0
  187.4400  177.9100  145.9290 C   0  0  0  0  0  0  0  0  0  0  0  0
  191.0420  177.2250  145.3390 C   0  0  0  0  0  2  0  0  0  0  0  0
  191.8230  179.0840  144.0550 O   0  0  0  0  0  1  0  0  0  0  0  0
  191.0630  177.9170  143.9850 C   0  0  1  0  0  3  0  0  0  0  0  0
  191.6690  176.9880  142.9560 C   0  0  0  0  0  1  0  0  0  0  0  0
  187.2620  177.3260  142.9530 C   0  0  0  0  0  2  0  0  0  0  0  0
  187.8240  178.3230  142.0600 N   0  0  0  0  0  2  0  0  0  0  0  0
  188.5880  177.6000  141.0600 C   0  0  0  0  0  2  0  0  0  0  0  0
  188.5120  178.3200  139.7210 C   0  0  2  0  0  3  0  0  0  0  0  0
  187.0790  178.2520  139.2130 C   0  0  0  0  0  1  0  0  0  0  0  0
  191.2910  175.8830  138.4950 C   0  0  0  0  0  2  0  0  0  0  0  0
  189.4730  177.6850  138.7120 C   0  0  2  0  0  3  0  0  0  0  0  0
  190.0030  176.4020  136.3780 C   0  0  2  0  0  3  0  0  0  0  0  0
  188.5680  176.6580  137.4980 S   0  0  0  0  0  0  0  0  0  0  0  0
  190.5350  176.8360  139.4260 C   0  0  0  0  0  2  0  0  0  0  0  0
  189.8280  175.0940  135.6330 C   0  0  0  0  0  1  0  0  0  0  0  0
  191.3690  176.4270  137.0740 C   0  0  0  0  0  2  0  0  0  0  0  0
  1  6  2  0  0  0  0
  1  2  1  0  0  0  0
  2  5  2  0  0  0  0
  3  1  1  0  0  0  0
  4  7  2  0  0  0  0
  4 14  1  0  0  0  0
  5  7  1  0  0  0  0
  6  4  1  0  0  0  0
  9  8  2  0  0  0  0
 10  8  1  0  0  0  0
 10 12  1  1  0  0  0
 11 14  2  0  0  0  0
 11 13  1  0  0  0  0
 13 15  1  6  0  0  0
 13  9  1  0  0  0  0
 14 10  1  0  0  0  0
 17 18  1  6  0  0  0
 17 16  1  0  0  0  0
 17 15  1  0  0  0  0
 19  6  1  0  0  0  0
 20 19  1  0  0  0  0
 21 20  1  0  0  0  0
 22 23  1  6  0  0  0
 22 21  1  0  0  0  0
 24 28  1  0  0  0  0
 25 28  1  0  0  0  0
 25 22  1  1  0  0  0
 26 29  1  1  0  0  0
 26 30  1  0  0  0  0
 26 27  1  0  0  0  0
 27 25  1  0  0  0  0
 30 24  1  0  0  0  0
M  END
>  <MODEL>
1

>  <REMARK>
 VINA RESULT:      -9.3      0.000      0.000
  Name = 
  8 active torsions:
  status: ('A' for Active; 'I' for Inactive)
    1  A    between atoms: N_1  and  C_4
    2  A    between atoms: N_1  and  C_5
    3  A    between atoms: C_4  and  C_27
    4  A    between atoms: C_5  and  C_22
    5  A    between atoms: C_8  and  C_27
    6  A    between atoms: C_15  and  C_16
    7  A    between atoms: C_16  and  C_25
    8  A    between atoms: C_19  and  C_29
                            x       y       z     vdW  Elec       q    Type
                         _______ _______ _______ _____ _____    ______ ____

>  <TORSDO>
F 8

$$$$
=
 OpenBabel11052412203D

 30 32  0  0  1  0  0  0  0  0999 V2000
  189.8760  177.1320  146.7150 C   0  0  0  0  0  0  0  0  0  0  0  0
  189.7340  177.4070  148.0770 C   0  0  0  0  0  3  0  0  0  0  0  0
  191.0550  176.6350  146.2640 F   0  0  0  0  0  0  0  0  0  0  0  0
  187.5880  177.8960  146.3200 C   0  0  0  0  0  0  0  0  0  0  0  0
  188.5390  177.9310  148.5630 C   0  0  0  0  0  3  0  0  0  0  0  0
  188.8160  177.3800  145.8250 C   0  0  0  0  0  0  0  0  0  0  0  0
  187.4780  178.1740  147.6920 C   0  0  0  0  0  3  0  0  0  0  0  0
  184.4080  179.6130  145.0860 C   0  0  0  0  0  3  0  0  0  0  0  0
  184.4260  179.3040  143.7810 C   0  0  0  0  0  3  0  0  0  0  0  0
  185.1470  178.7470  146.0780 C   0  0  1  0  0  3  0  0  0  0  0  0
  186.4050  177.8650  144.1530 C   0  0  0  0  0  3  0  0  0  0  0  0
  184.3250  177.7140  146.4930 F   0  0  0  0  0  0  0  0  0  0  0  0
  185.1780  178.0830  143.3110 C   0  0  2  0  0  3  0  0  0  0  0  0
  186.4080  178.1750  145.4610 C   0  0  0  0  0  0  0  0  0  0  0  0
  185.5650  178.2080  141.8450 C   0  0  0  0  0  2  0  0  0  0  0  0
  185.0270  179.5420  139.9350 O   0  0  0  0  0  1  0  0  0  0  0  0
  184.4740  178.8970  141.0410 C   0  0  1  0  0  3  0  0  0  0  0  0
  183.4730  177.8660  140.5670 C   0  0  0  0  0  1  0  0  0  0  0  0
  189.0380  177.1190  144.3680 C   0  0  0  0  0  2  0  0  0  0  0  0
  189.8720  178.1640  143.8000 N   0  0  0  0  0  2  0  0  0  0  0  0
  189.5300  178.2480  142.3920 C   0  0  0  0  0  2  0  0  0  0  0  0
  190.2040  177.1200  141.6220 C   0  0  2  0  0  3  0  0  0  0  0  0
  191.6860  177.4390  141.4900 C   0  0  0  0  0  1  0  0  0  0  0  0
  188.3760  178.2650  138.3790 C   0  0  0  0  0  2  0  0  0  0  0  0
  189.5610  176.9520  140.2420 C   0  0  2  0  0  3  0  0  0  0  0  0
  189.6340  176.1970  137.6350 C   0  0  2  0  0  3  0  0  0  0  0  0
  190.8280  176.6350  138.9610 S   0  0  0  0  0  0  0  0  0  0  0  0
  188.7370  178.1920  139.8660 C   0  0  0  0  0  2  0  0  0  0  0  0
  190.2490  176.5140  136.2860 C   0  0  0  0  0  1  0  0  0  0  0  0
  188.2660  176.8780  137.7570 C   0  0  0  0  0  2  0  0  0  0  0  0
  1  2  1  0  0  0  0
  2  5  2  0  0  0  0
  3  1  1  0  0  0  0
  4  7  2  0  0  0  0
  6  4  1  0  0  0  0
  6  1  2  0  0  0  0
  7  5  1  0  0  0  0
  8 10  1  0  0  0  0
  9  8  2  0  0  0  0
 10 12  1  6  0  0  0
 11 14  2  0  0  0  0
 13 15  1  6  0  0  0
 13  9  1  0  0  0  0
 13 11  1  0  0  0  0
 14 10  1  0  0  0  0
 14  4  1  0  0  0  0
 16 17  1  0  0  0  0
 17 18  1  6  0  0  0
 17 15  1  0  0  0  0
 19  6  1  0  0  0  0
 20 19  1  0  0  0  0
 21 20  1  0  0  0  0
 22 23  1  6  0  0  0
 22 21  1  0  0  0  0
 24 28  1  0  0  0  0
 25 22  1  1  0  0  0
 26 29  1  6  0  0  0
 26 30  1  0  0  0  0
 26 27  1  0  0  0  0
 27 25  1  0  0  0  0
 28 25  1  0  0  0  0
 30 24  1  0  0  0  0
M  END
>  <MODEL>
2

>  <REMARK>
 VINA RESULT:      -9.1      2.258      4.765
  Name = 
  8 active torsions:
  status: ('A' for Active; 'I' for Inactive)
    1  A    between atoms: N_1  and  C_4
    2  A    between atoms: N_1  and  C_5
    3  A    between atoms: C_4  and  C_27
    4  A    between atoms: C_5  and  C_22
    5  A    between atoms: C_8  and  C_27
    6  A    between atoms: C_15  and  C_16
    7  A    between atoms: C_16  and  C_25
    8  A    between atoms: C_19  and  C_29
                            x       y       z     vdW  Elec       q    Type
                         _______ _______ _______ _____ _____    ______ ____

>  <TORSDO>
F 8

$$$$
=
 OpenBabel11052412203D

 30 32  0  0  1  0  0  0  0  0999 V2000
  184.8920  178.3000  143.0240 C   0  0  0  0  0  0  0  0  0  0  0  0
  183.7500  178.7240  143.7070 C   0  0  0  0  0  3  0  0  0  0  0  0
  184.8340  178.1470  141.6770 F   0  0  0  0  0  0  0  0  0  0  0  0
  186.1190  178.1940  145.1350 C   0  0  0  0  0  0  0  0  0  0  0  0
  183.7790  178.8750  145.0910 C   0  0  0  0  0  3  0  0  0  0  0  0
  186.0790  178.0230  143.7250 C   0  0  0  0  0  0  0  0  0  0  0  0
  184.9530  178.6110  145.7960 C   0  0  0  0  0  3  0  0  0  0  0  0
  188.2360  176.9990  148.0790 C   0  0  0  0  0  3  0  0  0  0  0  0
  189.4350  176.8400  147.5000 C   0  0  0  0  0  3  0  0  0  0  0  0
  187.2210  177.9370  147.4710 C   0  0  1  0  0  3  0  0  0  0  0  0
  188.5400  177.7900  145.3960 C   0  0  0  0  0  3  0  0  0  0  0  0
  187.4260  179.2170  147.9550 F   0  0  0  0  0  0  0  0  0  0  0  0
  189.7690  177.6110  146.2460 C   0  0  2  0  0  3  0  0  0  0  0  0
  187.3300  177.9430  145.9590 C   0  0  0  0  0  0  0  0  0  0  0  0
  190.8600  176.9140  145.4470 C   0  0  0  0  0  2  0  0  0  0  0  0
  191.6660  177.8990  143.4220 O   0  0  0  0  0  1  0  0  0  0  0  0
  190.6530  177.0980  143.9520 C   0  0  1  0  0  3  0  0  0  0  0  0
  190.6790  175.7480  143.2700 C   0  0  0  0  0  1  0  0  0  0  0  0
  187.2580  177.5180  142.9530 C   0  0  0  0  0  2  0  0  0  0  0  0
  187.3910  178.2610  141.7120 N   0  0  0  0  0  2  0  0  0  0  0  0
  188.8020  178.2500  141.3720 C   0  0  0  0  0  2  0  0  0  0  0  0
  189.0640  177.2440  140.2600 C   0  0  2  0  0  3  0  0  0  0  0  0
  190.5680  177.1200  140.0600 C   0  0  0  0  0  1  0  0  0  0  0  0
  188.7510  179.1040  136.8520 C   0  0  0  0  0  2  0  0  0  0  0  0
  188.3810  177.6860  138.9620 C   0  0  2  0  0  3  0  0  0  0  0  0
  187.1390  177.1670  136.6040 C   0  0  2  0  0  3  0  0  0  0  0  0
  188.2480  176.2950  137.7820 S   0  0  0  0  0  0  0  0  0  0  0  0
  189.1400  178.8520  138.3120 C   0  0  0  0  0  2  0  0  0  0  0  0
  187.3410  176.5970  135.2140 C   0  0  0  0  0  1  0  0  0  0  0  0
  187.3110  178.6900  136.5740 C   0  0  0  0  0  2  0  0  0  0  0  0
  1  2  2  0  0  0  0
  1  6  1  0  0  0  0
  2  5  1  0  0  0  0
  3  1  1  0  0  0  0
  4  7  1  0  0  0  0
  4 14  1  0  0  0  0
  5  7  2  0  0  0  0
  6  4  2  0  0  0  0
  9  8  2  0  0  0  0
 10 12  1  1  0  0  0
 10  8  1  0  0  0  0
 11 14  2  0  0  0  0
 11 13  1  0  0  0  0
 13 15  1  6  0  0  0
 13  9  1  0  0  0  0
 14 10  1  0  0  0  0
 16 17  1  0  0  0  0
 17 18  1  6  0  0  0
 17 15  1  0  0  0  0
 19  6  1  0  0  0  0
 20 19  1  0  0  0  0
 21 20  1  0  0  0  0
 22 23  1  6  0  0  0
 22 21  1  0  0  0  0
 24 28  1  0  0  0  0
 25 22  1  1  0  0  0
 26 29  1  6  0  0  0
 26 27  1  0  0  0  0
 27 25  1  0  0  0  0
 28 25  1  0  0  0  0
 30 26  1  0  0  0  0
 30 24  1  0  0  0  0
M  END
>  <MODEL>
3

>  <REMARK>
 VINA RESULT:      -9.1      1.198      1.736
  Name = 
  8 active torsions:
  status: ('A' for Active; 'I' for Inactive)
    1  A    between atoms: N_1  and  C_4
    2  A    between atoms: N_1  and  C_5
    3  A    between atoms: C_4  and  C_27
    4  A    between atoms: C_5  and  C_22
    5  A    between atoms: C_8  and  C_27
    6  A    between atoms: C_15  and  C_16
    7  A    between atoms: C_16  and  C_25
    8  A    between atoms: C_19  and  C_29
                            x       y       z     vdW  Elec       q    Type
                         _______ _______ _______ _____ _____    ______ ____

>  <TORSDO>
F 8

$$$$
=
 OpenBabel11052412203D

 30 32  0  0  1  0  0  0  0  0999 V2000
  191.3980  176.8460  144.8930 C   0  0  0  0  0  0  0  0  0  0  0  0
  192.0590  176.3280  146.0080 C   0  0  0  0  0  3  0  0  0  0  0  0
  192.0570  176.9100  143.7090 F   0  0  0  0  0  0  0  0  0  0  0  0
  189.4010  177.2260  146.2500 C   0  0  0  0  0  0  0  0  0  0  0  0
  191.4100  176.2640  147.2390 C   0  0  0  0  0  3  0  0  0  0  0  0
  190.0740  177.3070  145.0010 C   0  0  0  0  0  0  0  0  0  0  0  0
  190.0940  176.7110  147.3570 C   0  0  0  0  0  3  0  0  0  0  0  0
  186.4870  179.3110  147.5690 C   0  0  0  0  0  3  0  0  0  0  0  0
  185.5550  179.0940  146.6300 C   0  0  0  0  0  3  0  0  0  0  0  0
  187.6010  178.3140  147.7730 C   0  0  1  0  0  3  0  0  0  0  0  0
  187.0500  177.4560  145.5310 C   0  0  0  0  0  3  0  0  0  0  0  0
  187.1900  177.3350  148.6600 F   0  0  0  0  0  0  0  0  0  0  0  0
  185.6190  177.8440  145.7850 C   0  0  2  0  0  3  0  0  0  0  0  0
  187.9990  177.6720  146.4580 C   0  0  0  0  0  0  0  0  0  0  0  0
  184.8870  178.0340  144.4650 C   0  0  0  0  0  2  0  0  0  0  0  0
  184.4990  180.1510  143.4230 O   0  0  0  0  0  1  0  0  0  0  0  0
  184.0780  179.3220  144.4630 C   0  0  1  0  0  3  0  0  0  0  0  0
  182.6130  178.9950  144.2760 C   0  0  0  0  0  1  0  0  0  0  0  0
  189.4300  177.9040  143.7890 C   0  0  0  0  0  2  0  0  0  0  0  0
  189.2000  176.8730  142.7920 N   0  0  0  0  0  2  0  0  0  0  0  0
  189.0220  177.5560  141.5240 C   0  0  0  0  0  2  0  0  0  0  0  0
  189.8630  176.8860  140.4460 C   0  0  2  0  0  3  0  0  0  0  0  0
  191.2770  177.4450  140.5150 C   0  0  0  0  0  1  0  0  0  0  0  0
  188.8120  178.9690  137.3270 C   0  0  0  0  0  2  0  0  0  0  0  0
  189.2540  177.1250  139.0610 C   0  0  2  0  0  3  0  0  0  0  0  0
  189.0750  176.6270  136.3980 C   0  0  2  0  0  3  0  0  0  0  0  0
  190.2990  176.3950  137.7490 S   0  0  0  0  0  0  0  0  0  0  0  0
  189.0590  178.6260  138.7990 C   0  0  0  0  0  2  0  0  0  0  0  0
  189.8070  176.7550  135.0770 C   0  0  0  0  0  1  0  0  0  0  0  0
  188.1320  177.8220  136.5890 C   0  0  0  0  0  2  0  0  0  0  0  0
  1  6  2  0  0  0  0
  1  2  1  0  0  0  0
  2  5  2  0  0  0  0
  3  1  1  0  0  0  0
  4 14  1  0  0  0  0
  4  7  2  0  0  0  0
  5  7  1  0  0  0  0
  6  4  1  0  0  0  0
  8 10  1  0  0  0  0
  9  8  2  0  0  0  0
 10 12  1  1  0  0  0
 11 13  1  0  0  0  0
 11 14  2  0  0  0  0
 13 15  1  6  0  0  0
 13  9  1  0  0  0  0
 14 10  1  0  0  0  0
 16 17  1  0  0  0  0
 17 18  1  6  0  0  0
 17 15  1  0  0  0  0
 19  6  1  0  0  0  0
 20 19  1  0  0  0  0
 21 20  1  0  0  0  0
 22 23  1  6  0  0  0
 22 21  1  0  0  0  0
 24 28  1  0  0  0  0
 25 22  1  1  0  0  0
 26 29  1  6  0  0  0
 26 30  1  0  0  0  0
 26 27  1  0  0  0  0
 27 25  1  0  0  0  0
 28 25  1  0  0  0  0
 30 24  1  0  0  0  0
M  END
>  <MODEL>
4

>  <REMARK>
 VINA RESULT:      -8.7      2.376      4.767
  Name = 
  8 active torsions:
  status: ('A' for Active; 'I' for Inactive)
    1  A    between atoms: N_1  and  C_4
    2  A    between atoms: N_1  and  C_5
    3  A    between atoms: C_4  and  C_27
    4  A    between atoms: C_5  and  C_22
    5  A    between atoms: C_8  and  C_27
    6  A    between atoms: C_15  and  C_16
    7  A    between atoms: C_16  and  C_25
    8  A    between atoms: C_19  and  C_29
                            x       y       z     vdW  Elec       q    Type
                         _______ _______ _______ _____ _____    ______ ____

>  <TORSDO>
F 8

$$$$
=
 OpenBabel11052412203D

 30 32  0  0  1  0  0  0  0  0999 V2000
  188.2790  177.2920  145.7380 C   0  0  0  0  0  0  0  0  0  0  0  0
  188.0260  177.6690  147.0580 C   0  0  0  0  0  3  0  0  0  0  0  0
  189.4540  176.6820  145.4420 F   0  0  0  0  0  0  0  0  0  0  0  0
  186.1080  178.1890  145.0630 C   0  0  0  0  0  0  0  0  0  0  0  0
  186.8330  178.3090  147.3860 C   0  0  0  0  0  3  0  0  0  0  0  0
  187.3340  177.5530  144.7300 C   0  0  0  0  0  0  0  0  0  0  0  0
  185.8850  178.5660  146.3970 C   0  0  0  0  0  3  0  0  0  0  0  0
  184.2430  178.1930  141.7310 C   0  0  0  0  0  3  0  0  0  0  0  0
  182.9820  178.4150  142.1300 C   0  0  0  0  0  3  0  0  0  0  0  0
  185.3980  178.6210  142.6030 C   0  0  1  0  0  3  0  0  0  0  0  0
  183.7760  178.7250  144.4540 C   0  0  0  0  0  3  0  0  0  0  0  0
  185.7290  179.9350  142.3210 F   0  0  0  0  0  0  0  0  0  0  0  0
  182.7230  179.1040  143.4480 C   0  0  2  0  0  3  0  0  0  0  0  0
  185.0430  178.4910  144.0710 C   0  0  0  0  0  0  0  0  0  0  0  0
  181.3410  178.7630  143.9840 C   0  0  0  0  0  2  0  0  0  0  0  0
  179.2390  177.9870  143.1500 O   0  0  0  0  0  1  0  0  0  0  0  0
  180.2840  178.8760  142.8970 C   0  0  1  0  0  3  0  0  0  0  0  0
  179.7400  180.2870  142.8700 C   0  0  0  0  0  1  0  0  0  0  0  0
  187.6770  177.1790  143.3220 C   0  0  0  0  0  2  0  0  0  0  0  0
  188.8140  177.9600  142.8660 N   0  0  0  0  0  2  0  0  0  0  0  0
  188.6340  178.1580  141.4390 C   0  0  0  0  0  2  0  0  0  0  0  0
  189.3730  177.0760  140.6630 C   0  0  2  0  0  3  0  0  0  0  0  0
  190.8640  177.2150  140.9350 C   0  0  0  0  0  1  0  0  0  0  0  0
  189.1240  178.8660  137.2130 C   0  0  0  0  0  2  0  0  0  0  0  0
  189.0830  177.1950  139.1640 C   0  0  2  0  0  3  0  0  0  0  0  0
  189.4360  176.4340  136.5820 C   0  0  2  0  0  3  0  0  0  0  0  0
  190.3340  176.2950  138.1790 S   0  0  0  0  0  0  0  0  0  0  0  0
  189.0360  178.6670  138.7290 C   0  0  0  0  0  2  0  0  0  0  0  0
  190.4360  176.3970  135.4430 C   0  0  0  0  0  1  0  0  0  0  0  0
  188.5470  177.6760  136.4550 C   0  0  0  0  0  2  0  0  0  0  0  0
  1  2  1  0  0  0  0
  2  5  2  0  0  0  0
  3  1  1  0  0  0  0
  4  7  2  0  0  0  0
  6  4  1  0  0  0  0
  6  1  2  0  0  0  0
  7  5  1  0  0  0  0
  8  9  2  0  0  0  0
  8 10  1  0  0  0  0
  9 13  1  0  0  0  0
 10 12  1  6  0  0  0
 10 14  1  0  0  0  0
 13 15  1  1  0  0  0
 13 11  1  0  0  0  0
 14 11  2  0  0  0  0
 14  4  1  0  0  0  0
 17 18  1  1  0  0  0
 17 16  1  0  0  0  0
 17 15  1  0  0  0  0
 19  6  1  0  0  0  0
 20 19  1  0  0  0  0
 21 20  1  0  0  0  0
 22 23  1  6  0  0  0
 22 21  1  0  0  0  0
 24 28  1  0  0  0  0
 25 22  1  1  0  0  0
 26 29  1  6  0  0  0
 26 27  1  0  0  0  0
 27 25  1  0  0  0  0
 28 25  1  0  0  0  0
 30 26  1  0  0  0  0
 30 24  1  0  0  0  0
M  END
>  <MODEL>
5

>  <REMARK>
 VINA RESULT:      -8.7      2.917      5.740
  Name = 
  8 active torsions:
  status: ('A' for Active; 'I' for Inactive)
    1  A    between atoms: N_1  and  C_4
    2  A    between atoms: N_1  and  C_5
    3  A    between atoms: C_4  and  C_27
    4  A    between atoms: C_5  and  C_22
    5  A    between atoms: C_8  and  C_27
    6  A    between atoms: C_15  and  C_16
    7  A    between atoms: C_16  and  C_25
    8  A    between atoms: C_19  and  C_29
                            x       y       z     vdW  Elec       q    Type
                         _______ _______ _______ _____ _____    ______ ____

>  <TORSDO>
F 8

$$$$
=
 OpenBabel11052412203D

 30 32  0  0  1  0  0  0  0  0999 V2000
  186.7080  178.1410  147.2120 C   0  0  0  0  0  0  0  0  0  0  0  0
  187.5100  178.2730  148.3480 C   0  0  0  0  0  3  0  0  0  0  0  0
  185.3630  178.2680  147.3380 F   0  0  0  0  0  0  0  0  0  0  0  0
  188.6980  177.7430  145.8500 C   0  0  0  0  0  0  0  0  0  0  0  0
  188.8920  178.1330  148.2480 C   0  0  0  0  0  3  0  0  0  0  0  0
  187.2870  177.8670  145.9600 C   0  0  0  0  0  0  0  0  0  0  0  0
  189.4780  177.8690  147.0100 C   0  0  0  0  0  3  0  0  0  0  0  0
  191.0350  176.0240  143.3670 C   0  0  0  0  0  3  0  0  0  0  0  0
  190.4740  176.3580  142.1950 C   0  0  0  0  0  3  0  0  0  0  0  0
  190.7960  176.8770  144.5900 C   0  0  1  0  0  3  0  0  0  0  0  0
  188.8580  177.8060  143.3870 C   0  0  0  0  0  3  0  0  0  0  0  0
  191.7330  177.8940  144.6350 F   0  0  0  0  0  0  0  0  0  0  0  0
  189.6130  177.5940  142.1030 C   0  0  2  0  0  3  0  0  0  0  0  0
  189.4020  177.4710  144.5700 C   0  0  0  0  0  0  0  0  0  0  0  0
  188.6420  177.5020  140.9360 C   0  0  0  0  0  2  0  0  0  0  0  0
  190.2800  177.5450  139.1940 O   0  0  0  0  0  1  0  0  0  0  0  0
  189.1790  178.2270  139.7120 C   0  0  1  0  0  3  0  0  0  0  0  0
  188.0970  178.3000  138.6570 C   0  0  0  0  0  1  0  0  0  0  0  0
  186.3800  177.6810  144.7850 C   0  0  0  0  0  2  0  0  0  0  0  0
  185.6750  178.9190  144.5020 N   0  0  0  0  0  2  0  0  0  0  0  0
  184.5160  178.5630  143.7040 C   0  0  0  0  0  2  0  0  0  0  0  0
  184.9430  178.2330  142.2800 C   0  0  2  0  0  3  0  0  0  0  0  0
  185.8190  179.3640  141.7610 C   0  0  0  0  0  1  0  0  0  0  0  0
  181.2890  178.8180  141.0650 C   0  0  0  0  0  2  0  0  0  0  0  0
  183.7170  178.0420  141.3820 C   0  0  2  0  0  3  0  0  0  0  0  0
  182.4850  178.0700  138.9620 C   0  0  2  0  0  3  0  0  0  0  0  0
  183.9810  178.8020  139.7390 S   0  0  0  0  0  0  0  0  0  0  0  0
  182.4600  178.6340  142.0350 C   0  0  0  0  0  2  0  0  0  0  0  0
  182.0130  178.9730  137.8400 C   0  0  0  0  0  1  0  0  0  0  0  0
  181.3290  177.7990  139.9330 C   0  0  0  0  0  2  0  0  0  0  0  0
  1  3  1  0  0  0  0
  1  2  1  0  0  0  0
  4  6  1  0  0  0  0
  4  7  2  0  0  0  0
  5  2  2  0  0  0  0
  6  1  2  0  0  0  0
  7  5  1  0  0  0  0
  8 10  1  0  0  0  0
  9  8  2  0  0  0  0
 10 12  1  6  0  0  0
 11 14  2  0  0  0  0
 13 15  1  6  0  0  0
 13  9  1  0  0  0  0
 13 11  1  0  0  0  0
 14 10  1  0  0  0  0
 14  4  1  0  0  0  0
 16 17  1  0  0  0  0
 17 18  1  6  0  0  0
 17 15  1  0  0  0  0
 19  6  1  0  0  0  0
 20 19  1  0  0  0  0
 21 20  1  0  0  0  0
 22 23  1  6  0  0  0
 22 21  1  0  0  0  0
 24 28  1  0  0  0  0
 25 28  1  0  0  0  0
 25 22  1  1  0  0  0
 26 29  1  6  0  0  0
 26 27  1  0  0  0  0
 26 30  1  0  0  0  0
 27 25  1  0  0  0  0
 30 24  1  0  0  0  0
M  END
>  <MODEL>
6

>  <REMARK>
 VINA RESULT:      -8.5      2.728      5.740
  Name = 
  8 active torsions:
  status: ('A' for Active; 'I' for Inactive)
    1  A    between atoms: N_1  and  C_4
    2  A    between atoms: N_1  and  C_5
    3  A    between atoms: C_4  and  C_27
    4  A    between atoms: C_5  and  C_22
    5  A    between atoms: C_8  and  C_27
    6  A    between atoms: C_15  and  C_16
    7  A    between atoms: C_16  and  C_25
    8  A    between atoms: C_19  and  C_29
                            x       y       z     vdW  Elec       q    Type
                         _______ _______ _______ _____ _____    ______ ____

>  <TORSDO>
F 8

$$$$
=
 OpenBabel11052412203D

 30 32  0  0  1  0  0  0  0  0999 V2000
  190.2420  177.3530  147.2670 C   0  0  0  0  0  0  0  0  0  0  0  0
  191.3760  176.5960  147.5690 C   0  0  0  0  0  3  0  0  0  0  0  0
  189.5830  177.9810  148.2740 F   0  0  0  0  0  0  0  0  0  0  0  0
  190.4920  176.7900  144.9020 C   0  0  0  0  0  0  0  0  0  0  0  0
  192.0610  175.9300  146.5570 C   0  0  0  0  0  3  0  0  0  0  0  0
  189.7850  177.4520  145.9410 C   0  0  0  0  0  0  0  0  0  0  0  0
  191.6220  176.0260  145.2370 C   0  0  0  0  0  3  0  0  0  0  0  0
  188.4350  177.6800  141.8110 C   0  0  0  0  0  3  0  0  0  0  0  0
  189.3600  177.6070  140.8430 C   0  0  0  0  0  3  0  0  0  0  0  0
  188.6280  176.9180  143.1000 C   0  0  1  0  0  3  0  0  0  0  0  0
  191.0090  176.7680  142.4880 C   0  0  0  0  0  3  0  0  0  0  0  0
  188.1230  175.6370  142.9610 F   0  0  0  0  0  0  0  0  0  0  0  0
  190.5880  176.7530  141.0440 C   0  0  2  0  0  3  0  0  0  0  0  0
  190.0960  176.8480  143.4710 C   0  0  0  0  0  0  0  0  0  0  0  0
  191.7340  177.2220  140.1600 C   0  0  0  0  0  2  0  0  0  0  0  0
  190.8800  177.1190  137.9290 O   0  0  0  0  0  1  0  0  0  0  0  0
  191.7410  176.4890  138.8280 C   0  0  1  0  0  3  0  0  0  0  0  0
  193.1430  176.4930  138.2600 C   0  0  0  0  0  1  0  0  0  0  0  0
  188.5340  178.2310  145.6790 C   0  0  0  0  0  2  0  0  0  0  0  0
  187.4060  177.5890  146.3300 N   0  0  0  0  0  2  0  0  0  0  0  0
  186.4250  177.3240  145.2930 C   0  0  0  0  0  2  0  0  0  0  0  0
  185.4920  178.5180  145.1380 C   0  0  2  0  0  3  0  0  0  0  0  0
  184.6440  178.6390  146.3950 C   0  0  0  0  0  1  0  0  0  0  0  0
  182.3830  179.1300  142.8730 C   0  0  0  0  0  2  0  0  0  0  0  0
  184.6050  178.3500  143.9000 C   0  0  2  0  0  3  0  0  0  0  0  0
  184.1770  178.4480  141.2210 C   0  0  2  0  0  3  0  0  0  0  0  0
  185.3540  179.1590  142.4400 S   0  0  0  0  0  0  0  0  0  0  0  0
  183.2010  178.9200  144.1510 C   0  0  0  0  0  2  0  0  0  0  0  0
  184.0640  179.3820  140.0330 C   0  0  0  0  0  1  0  0  0  0  0  0
  182.7820  178.1450  141.7810 C   0  0  0  0  0  2  0  0  0  0  0  0
  1  2  1  0  0  0  0
  1  3  1  0  0  0  0
  4  7  2  0  0  0  0
  4  6  1  0  0  0  0
  5  2  2  0  0  0  0
  6  1  2  0  0  0  0
  7  5  1  0  0  0  0
  8 10  1  0  0  0  0
  9 13  1  0  0  0  0
  9  8  2  0  0  0  0
 10 12  1  6  0  0  0
 10 14  1  0  0  0  0
 11 14  2  0  0  0  0
 13 15  1  6  0  0  0
 13 11  1  0  0  0  0
 14  4  1  0  0  0  0
 16 17  1  0  0  0  0
 17 18  1  6  0  0  0
 17 15  1  0  0  0  0
 19  6  1  0  0  0  0
 19 20  1  0  0  0  0
 21 20  1  0  0  0  0
 22 21  1  0  0  0  0
 22 23  1  1  0  0  0
 24 28  1  0  0  0  0
 25 28  1  0  0  0  0
 25 22  1  1  0  0  0
 26 29  1  6  0  0  0
 26 30  1  0  0  0  0
 26 27  1  0  0  0  0
 27 25  1  0  0  0  0
 30 24  1  0  0  0  0
M  END
>  <MODEL>
7

>  <REMARK>
 VINA RESULT:      -8.3      2.556      6.673
  Name = 
  8 active torsions:
  status: ('A' for Active; 'I' for Inactive)
    1  A    between atoms: N_1  and  C_4
    2  A    between atoms: N_1  and  C_5
    3  A    between atoms: C_4  and  C_27
    4  A    between atoms: C_5  and  C_22
    5  A    between atoms: C_8  and  C_27
    6  A    between atoms: C_15  and  C_16
    7  A    between atoms: C_16  and  C_25
    8  A    between atoms: C_19  and  C_29
                            x       y       z     vdW  Elec       q    Type
                         _______ _______ _______ _____ _____    ______ ____

>  <TORSDO>
F 8

$$$$
=
 OpenBabel11052412203D

 30 32  0  0  1  0  0  0  0  0999 V2000
  191.0020  177.2130  144.9220 C   0  0  0  0  0  0  0  0  0  0  0  0
  191.2500  176.7880  146.2280 C   0  0  0  0  0  3  0  0  0  0  0  0
  192.0300  177.2530  144.0370 F   0  0  0  0  0  0  0  0  0  0  0  0
  188.6460  177.5510  145.4750 C   0  0  0  0  0  0  0  0  0  0  0  0
  190.2150  176.7510  147.1590 C   0  0  0  0  0  3  0  0  0  0  0  0
  189.7090  177.6050  144.5340 C   0  0  0  0  0  0  0  0  0  0  0  0
  188.9270  177.1300  146.7850 C   0  0  0  0  0  3  0  0  0  0  0  0
  185.4150  179.5840  145.4950 C   0  0  0  0  0  3  0  0  0  0  0  0
  184.8520  179.2060  144.3380 C   0  0  0  0  0  3  0  0  0  0  0  0
  186.4190  178.6870  146.1760 C   0  0  1  0  0  3  0  0  0  0  0  0
  186.6640  177.5520  144.0040 C   0  0  0  0  0  3  0  0  0  0  0  0
  185.7580  177.7890  146.9960 F   0  0  0  0  0  0  0  0  0  0  0  0
  185.2210  177.8770  143.7250 C   0  0  2  0  0  3  0  0  0  0  0  0
  187.2450  177.9290  145.1560 C   0  0  0  0  0  0  0  0  0  0  0  0
  184.9650  177.8730  142.2260 C   0  0  0  0  0  2  0  0  0  0  0  0
  186.6620  179.3110  141.3470 O   0  0  0  0  0  1  0  0  0  0  0  0
  185.2940  179.2220  141.6060 C   0  0  1  0  0  3  0  0  0  0  0  0
  184.5320  179.3780  140.3080 C   0  0  0  0  0  1  0  0  0  0  0  0
  189.5080  178.1040  143.1380 C   0  0  0  0  0  2  0  0  0  0  0  0
  189.3310  176.9830  142.2320 N   0  0  0  0  0  2  0  0  0  0  0  0
  189.6340  177.4740  140.9000 C   0  0  0  0  0  2  0  0  0  0  0  0
  190.7990  176.6930  140.3070 C   0  0  2  0  0  3  0  0  0  0  0  0
  192.0740  177.5020  140.4970 C   0  0  0  0  0  1  0  0  0  0  0  0
  189.7180  177.5020  136.6540 C   0  0  0  0  0  2  0  0  0  0  0  0
  190.5560  176.4080  138.8220 C   0  0  2  0  0  3  0  0  0  0  0  0
  191.3870  175.6190  136.3610 C   0  0  2  0  0  3  0  0  0  0  0  0
  192.1370  176.2490  137.9160 S   0  0  0  0  0  0  0  0  0  0  0  0
  189.6970  177.5100  138.1850 C   0  0  0  0  0  2  0  0  0  0  0  0
  192.2760  175.9930  135.1910 C   0  0  0  0  0  1  0  0  0  0  0  0
  189.9540  176.1010  136.1020 C   0  0  0  0  0  2  0  0  0  0  0  0
  1  2  1  0  0  0  0
  2  5  2  0  0  0  0
  3  1  1  0  0  0  0
  4  7  2  0  0  0  0
  6  1  2  0  0  0  0
  6  4  1  0  0  0  0
  7  5  1  0  0  0  0
  8 10  1  0  0  0  0
  9  8  2  0  0  0  0
 10 12  1  1  0  0  0
 11 14  2  0  0  0  0
 13 15  1  6  0  0  0
 13 11  1  0  0  0  0
 13  9  1  0  0  0  0
 14  4  1  0  0  0  0
 14 10  1  0  0  0  0
 16 17  1  0  0  0  0
 17 18  1  6  0  0  0
 17 15  1  0  0  0  0
 19  6  1  0  0  0  0
 20 19  1  0  0  0  0
 21 20  1  0  0  0  0
 22 23  1  6  0  0  0
 22 21  1  0  0  0  0
 24 28  1  0  0  0  0
 25 22  1  1  0  0  0
 26 29  1  6  0  0  0
 26 27  1  0  0  0  0
 27 25  1  0  0  0  0
 28 25  1  0  0  0  0
 30 26  1  0  0  0  0
 30 24  1  0  0  0  0
M  END
>  <MODEL>
8

>  <REMARK>
 VINA RESULT:      -8.2      2.139      4.568
  Name = 
  8 active torsions:
  status: ('A' for Active; 'I' for Inactive)
    1  A    between atoms: N_1  and  C_4
    2  A    between atoms: N_1  and  C_5
    3  A    between atoms: C_4  and  C_27
    4  A    between atoms: C_5  and  C_22
    5  A    between atoms: C_8  and  C_27
    6  A    between atoms: C_15  and  C_16
    7  A    between atoms: C_16  and  C_25
    8  A    between atoms: C_19  and  C_29
                            x       y       z     vdW  Elec       q    Type
                         _______ _______ _______ _____ _____    ______ ____

>  <TORSDO>
F 8

$$$$
=
 OpenBabel11052412203D

 30 32  0  0  1  0  0  0  0  0999 V2000
  184.4140  179.1120  144.4400 C   0  0  0  0  0  0  0  0  0  0  0  0
  184.0640  178.9320  145.7790 C   0  0  0  0  0  3  0  0  0  0  0  0
  183.5480  179.7500  143.6130 F   0  0  0  0  0  0  0  0  0  0  0  0
  186.5350  177.9640  144.8370 C   0  0  0  0  0  0  0  0  0  0  0  0
  184.9290  178.2670  146.6450 C   0  0  0  0  0  3  0  0  0  0  0  0
  185.6410  178.6260  143.9540 C   0  0  0  0  0  0  0  0  0  0  0  0
  186.1520  177.7880  146.1760 C   0  0  0  0  0  3  0  0  0  0  0  0
  189.3920  176.9410  142.5200 C   0  0  0  0  0  3  0  0  0  0  0  0
  190.4450  177.0040  143.3470 C   0  0  0  0  0  3  0  0  0  0  0  0
  188.0030  176.7440  143.0770 C   0  0  1  0  0  3  0  0  0  0  0  0
  188.9220  177.4790  145.2410 C   0  0  0  0  0  3  0  0  0  0  0  0
  187.7480  175.3910  143.2180 F   0  0  0  0  0  0  0  0  0  0  0  0
  190.2360  176.8680  144.8360 C   0  0  2  0  0  3  0  0  0  0  0  0
  187.8580  177.4300  144.4210 C   0  0  0  0  0  0  0  0  0  0  0  0
  191.3740  177.5160  145.6120 C   0  0  0  0  0  2  0  0  0  0  0  0
  190.5490  176.7400  147.7180 O   0  0  0  0  0  1  0  0  0  0  0  0
  191.6740  176.7530  146.8920 C   0  0  1  0  0  3  0  0  0  0  0  0
  192.0560  175.3290  146.5510 C   0  0  0  0  0  1  0  0  0  0  0  0
  185.9440  178.7950  142.4980 C   0  0  0  0  0  2  0  0  0  0  0  0
  184.8860  178.2020  141.6990 N   0  0  0  0  0  2  0  0  0  0  0  0
  184.7780  179.0030  140.4940 C   0  0  0  0  0  2  0  0  0  0  0  0
  183.3800  178.8740  139.9040 C   0  0  2  0  0  3  0  0  0  0  0  0
  182.4600  178.2760  140.9590 C   0  0  0  0  0  1  0  0  0  0  0  0
  185.0090  176.8150  137.0270 C   0  0  0  0  0  2  0  0  0  0  0  0
  183.4040  177.9970  138.6480 C   0  0  2  0  0  3  0  0  0  0  0  0
  182.7160  175.7660  137.2630 C   0  0  2  0  0  3  0  0  0  0  0  0
  182.8200  176.3040  139.0170 S   0  0  0  0  0  0  0  0  0  0  0  0
  184.8150  177.9440  138.0440 C   0  0  0  0  0  2  0  0  0  0  0  0
  182.9060  174.2640  137.1890 C   0  0  0  0  0  1  0  0  0  0  0  0
  183.7040  176.4640  136.3210 C   0  0  0  0  0  2  0  0  0  0  0  0
  1  2  1  0  0  0  0
  2  5  2  0  0  0  0
  3  1  1  0  0  0  0
  4  7  2  0  0  0  0
  6  1  2  0  0  0  0
  6  4  1  0  0  0  0
  7  5  1  0  0  0  0
  8 10  1  0  0  0  0
  8  9  2  0  0  0  0
  9 13  1  0  0  0  0
 10 12  1  1  0  0  0
 10 14  1  0  0  0  0
 13 11  1  0  0  0  0
 13 15  1  1  0  0  0
 14  4  1  0  0  0  0
 14 11  2  0  0  0  0
 15 17  1  0  0  0  0
 17 18  1  6  0  0  0
 17 16  1  0  0  0  0
 19  6  1  0  0  0  0
 20 19  1  0  0  0  0
 21 20  1  0  0  0  0
 22 21  1  0  0  0  0
 22 23  1  1  0  0  0
 24 28  1  0  0  0  0
 25 27  1  0  0  0  0
 25 22  1  1  0  0  0
 26 29  1  1  0  0  0
 26 27  1  0  0  0  0
 28 25  1  0  0  0  0
 30 24  1  0  0  0  0
 30 26  1  0  0  0  0
M  END
>  <MODEL>
9

>  <REMARK>
 VINA RESULT:      -7.9      3.120      4.377
  Name = 
  8 active torsions:
  status: ('A' for Active; 'I' for Inactive)
    1  A    between atoms: N_1  and  C_4
    2  A    between atoms: N_1  and  C_5
    3  A    between atoms: C_4  and  C_27
    4  A    between atoms: C_5  and  C_22
    5  A    between atoms: C_8  and  C_27
    6  A    between atoms: C_15  and  C_16
    7  A    between atoms: C_16  and  C_25
    8  A    between atoms: C_19  and  C_29
                            x       y       z     vdW  Elec       q    Type
                         _______ _______ _______ _____ _____    ______ ____

>  <TORSDO>
F 8

$$$$
