=
 OpenBabel11052416563D

 32 37  0  0  1  0  0  0  0  0999 V2000
  180.0850  180.8790  139.8430 C   0  0  0  0  0  0  0  0  0  0  0  0
  181.2330  180.1200  143.0600 O   0  0  0  0  0  0  0  0  0  0  0  0
  185.7560  178.1240  143.2890 C   0  0  0  0  0  0  0  0  0  0  0  0
  186.2490  178.5780  148.0940 C   0  0  0  0  0  3  0  0  0  0  0  0
  187.6170  178.3230  147.9680 C   0  0  0  0  0  3  0  0  0  0  0  0
  183.5910  178.3920  142.2470 C   0  0  0  0  0  0  0  0  0  0  0  0
  183.8300  178.6130  144.6250 N   0  0  0  0  0  0  0  0  0  0  0  0
  179.8920  180.7200  141.2360 N   0  0  0  0  0  2  0  0  0  0  0  0
  181.5700  178.9180  143.6960 C   0  0  0  0  0  2  0  0  0  0  0  0
  185.4330  178.5950  146.9610 C   0  0  0  0  0  3  0  0  0  0  0  0
  185.1670  178.3690  144.5440 C   0  0  0  0  0  0  0  0  0  0  0  0
  185.9760  178.3550  145.6900 C   0  0  0  0  0  0  0  0  0  0  0  0
  187.9020  177.8560  144.2840 C   0  0  0  0  0  0  0  0  0  0  0  0
  181.3850  179.8980  139.1270 S   0  0  0  0  0  0  0  0  0  0  0  0
  182.0230  179.7060  140.8250 C   0  0  2  0  0  3  0  0  0  0  0  0
  179.4310  181.7230  139.1770 O   0  0  0  0  0  0  0  0  0  0  0  0
  183.0310  178.6280  143.5230 C   0  0  0  0  0  0  0  0  0  0  0  0
  182.7680  178.3900  140.9900 C   0  0  0  0  0  2  0  0  0  0  0  0
  180.8230  179.7500  141.7740 C   0  0  1  0  0  3  0  0  0  0  0  0
  188.1710  178.0830  146.7090 C   0  0  0  0  0  3  0  0  0  0  0  0
  187.3630  178.0960  145.5620 C   0  0  0  0  0  0  0  0  0  0  0  0
  184.9600  178.1370  142.1450 C   0  0  0  0  0  3  0  0  0  0  0  0
  187.0880  177.8780  143.1910 N   0  0  0  0  0  0  0  0  0  0  0  0
  191.6320  178.6060  144.0880 C   0  0  2  0  0  3  0  0  0  0  0  0
  191.6930  178.3020  142.6630 N   0  0  0  0  0  2  0  0  0  0  0  0
  189.6830  177.0970  142.6690 C   0  0  1  0  0  3  0  0  0  0  0  0
  191.3920  176.7020  141.0650 C   0  0  0  0  0  1  0  0  0  0  0  0
  191.1410  177.0210  142.4640 N   0  0  0  0  0  0  0  0  0  0  0  0
  190.1790  178.8130  144.4740 C   0  0  0  0  0  2  0  0  0  0  0  0
  192.3450  179.7610  144.3440 F   0  0  0  0  0  0  0  0  0  0  0  0
  189.0500  175.7210  142.4690 C   0  0  0  0  0  1  0  0  0  0  0  0
  189.3690  177.5760  144.1010 C   0  0  1  0  0  3  0  0  0  0  0  0
  1  8  1  0  0  0  0
  2  9  1  0  0  0  0
  3 11  1  0  0  0  0
  5  4  1  0  0  0  0
  6 17  1  0  0  0  0
 10  4  2  0  0  0  0
 11  7  1  0  0  0  0
 11 12  2  0  0  0  0
 12 10  1  0  0  0  0
 13 21  2  0  0  0  0
 14  1  1  0  0  0  0
 14 15  1  0  0  0  0
 15 18  1  6  0  0  0
 15 19  1  0  0  0  0
 16  1  2  0  0  0  0
 17  9  1  0  0  0  0
 17  7  2  0  0  0  0
 18  6  1  0  0  0  0
 19  8  1  6  0  0  0
 19  2  1  0  0  0  0
 20  5  2  0  0  0  0
 21 12  1  0  0  0  0
 21 20  1  0  0  0  0
 22  6  2  0  0  0  0
 22  3  1  0  0  0  0
 23  3  2  0  0  0  0
 23 13  1  0  0  0  0
 24 30  1  6  0  0  0
 24 29  1  0  0  0  0
 25 24  1  0  0  0  0
 26 31  1  1  0  0  0
 26 32  1  0  0  0  0
 27 28  1  0  0  0  0
 28 25  1  0  0  0  0
 28 26  1  0  0  0  0
 32 13  1  6  0  0  0
 32 29  1  0  0  0  0
M  END
>  <MODEL>
1

>  <REMARK>
 VINA RESULT:      -9.5      0.000      0.000
  Name = 
  1 active torsions:
  status: ('A' for Active; 'I' for Inactive)
    1  A    between atoms: C_16  and  C_32
                            x       y       z     vdW  Elec       q    Type
                         _______ _______ _______ _____ _____    ______ ____

>  <TORSDO>
F 1

$$$$
=
 OpenBabel11052416563D

 32 37  0  0  1  0  0  0  0  0999 V2000
  191.0740  175.5730  137.3600 C   0  0  0  0  0  0  0  0  0  0  0  0
  190.2930  176.4050  140.6680 O   0  0  0  0  0  0  0  0  0  0  0  0
  185.8490  178.4750  141.3480 C   0  0  0  0  0  0  0  0  0  0  0  0
  185.8750  178.1110  146.1860 C   0  0  0  0  0  3  0  0  0  0  0  0
  184.5050  178.3850  146.2050 C   0  0  0  0  0  3  0  0  0  0  0  0
  187.8840  178.1550  140.0830 C   0  0  0  0  0  0  0  0  0  0  0  0
  187.9030  177.9790  142.4760 N   0  0  0  0  0  0  0  0  0  0  0  0
  191.4190  175.7530  138.7210 N   0  0  0  0  0  2  0  0  0  0  0  0
  190.0440  177.6230  141.3140 C   0  0  0  0  0  2  0  0  0  0  0  0
  186.5630  178.0620  144.9720 C   0  0  0  0  0  3  0  0  0  0  0  0
  186.5680  178.2420  142.5360 C   0  0  0  0  0  0  0  0  0  0  0  0
  185.8890  178.2880  143.7630 C   0  0  0  0  0  0  0  0  0  0  0  0
  183.8280  178.7930  142.5640 C   0  0  0  0  0  0  0  0  0  0  0  0
  189.7180  176.5610  136.7710 S   0  0  0  0  0  0  0  0  0  0  0  0
  189.2710  176.7930  138.5250 C   0  0  2  0  0  3  0  0  0  0  0  0
  191.6400  174.7070  136.6440 O   0  0  0  0  0  0  0  0  0  0  0  0
  188.5770  177.9320  141.2950 C   0  0  0  0  0  0  0  0  0  0  0  0
  188.5650  178.1230  138.7440 C   0  0  0  0  0  2  0  0  0  0  0  0
  190.5650  176.7470  139.3380 C   0  0  1  0  0  3  0  0  0  0  0  0
  183.8210  178.6120  145.0090 C   0  0  0  0  0  3  0  0  0  0  0  0
  184.4990  178.5660  143.7810 C   0  0  0  0  0  0  0  0  0  0  0  0
  186.5160  178.4300  140.1250 C   0  0  0  0  0  3  0  0  0  0  0  0
  184.5180  178.7400  141.3910 N   0  0  0  0  0  0  0  0  0  0  0  0
  180.1880  178.6740  143.6840 C   0  0  2  0  0  3  0  0  0  0  0  0
  179.7690  177.9470  142.4920 N   0  0  0  0  0  2  0  0  0  0  0  0
  181.6820  178.5270  141.2690 C   0  0  1  0  0  3  0  0  0  0  0  0
  179.6190  177.9920  140.2160 C   0  0  0  0  0  1  0  0  0  0  0  0
  180.2170  178.6610  141.3640 N   0  0  0  0  0  0  0  0  0  0  0  0
  181.6970  178.5660  143.8080 C   0  0  0  0  0  2  0  0  0  0  0  0
  179.5950  178.1130  144.7990 F   0  0  0  0  0  0  0  0  0  0  0  0
  182.2060  179.2970  140.0580 C   0  0  0  0  0  1  0  0  0  0  0  0
  182.3540  179.0920  142.5360 C   0  0  1  0  0  3  0  0  0  0  0  0
  1  8  1  0  0  0  0
  2  9  1  0  0  0  0
  3 23  2  0  0  0  0
  3 11  1  0  0  0  0
  4  5  1  0  0  0  0
  6 22  2  0  0  0  0
  6 17  1  0  0  0  0
  7 11  1  0  0  0  0
 10  4  2  0  0  0  0
 11 12  2  0  0  0  0
 12 21  1  0  0  0  0
 12 10  1  0  0  0  0
 13 21  2  0  0  0  0
 14  1  1  0  0  0  0
 14 15  1  0  0  0  0
 15 18  1  6  0  0  0
 15 19  1  0  0  0  0
 16  1  2  0  0  0  0
 17  9  1  0  0  0  0
 17  7  2  0  0  0  0
 18  6  1  0  0  0  0
 19  8  1  6  0  0  0
 19  2  1  0  0  0  0
 20  5  2  0  0  0  0
 21 20  1  0  0  0  0
 22  3  1  0  0  0  0
 23 13  1  0  0  0  0
 24 29  1  0  0  0  0
 24 30  1  1  0  0  0
 25 24  1  0  0  0  0
 26 31  1  6  0  0  0
 26 28  1  0  0  0  0
 26 32  1  0  0  0  0
 27 28  1  0  0  0  0
 28 25  1  0  0  0  0
 32 13  1  1  0  0  0
 32 29  1  0  0  0  0
M  END
>  <MODEL>
2

>  <REMARK>
 VINA RESULT:      -9.4      4.555      8.210
  Name = 
  1 active torsions:
  status: ('A' for Active; 'I' for Inactive)
    1  A    between atoms: C_16  and  C_32
                            x       y       z     vdW  Elec       q    Type
                         _______ _______ _______ _____ _____    ______ ____

>  <TORSDO>
F 1

$$$$
=
 OpenBabel11052416563D

 32 37  0  0  1  0  0  0  0  0999 V2000
  190.3260  176.3440  143.4210 C   0  0  0  0  0  0  0  0  0  0  0  0
  187.1560  177.2420  144.6010 O   0  0  0  0  0  0  0  0  0  0  0  0
  183.9470  178.7480  141.1470 C   0  0  0  0  0  0  0  0  0  0  0  0
  180.0440  178.6490  144.0260 C   0  0  0  0  0  3  0  0  0  0  0  0
  179.2230  178.7430  142.9000 C   0  0  0  0  0  3  0  0  0  0  0  0
  186.1710  178.6300  142.0890 C   0  0  0  0  0  0  0  0  0  0  0  0
  184.2430  178.5850  143.5170 N   0  0  0  0  0  0  0  0  0  0  0  0
  189.4150  176.6400  144.4640 N   0  0  0  0  0  2  0  0  0  0  0  0
  186.4460  178.4500  144.6100 C   0  0  0  0  0  2  0  0  0  0  0  0
  181.4330  178.6250  143.8800 C   0  0  0  0  0  3  0  0  0  0  0  0
  183.4090  178.6750  142.4450 C   0  0  0  0  0  0  0  0  0  0  0  0
  182.0150  178.6970  142.6060 C   0  0  0  0  0  0  0  0  0  0  0  0
  181.7730  178.8650  140.1870 C   0  0  0  0  0  0  0  0  0  0  0  0
  189.9810  177.1150  141.8550 S   0  0  0  0  0  0  0  0  0  0  0  0
  188.2890  177.3790  142.4830 C   0  0  2  0  0  3  0  0  0  0  0  0
  191.2660  175.5230  143.5780 O   0  0  0  0  0  0  0  0  0  0  0  0
  185.5970  178.5640  143.3790 C   0  0  0  0  0  0  0  0  0  0  0  0
  187.6560  178.6160  141.8630 C   0  0  0  0  0  2  0  0  0  0  0  0
  188.3830  177.5450  144.0010 C   0  0  1  0  0  3  0  0  0  0  0  0
  179.7890  178.8140  141.6260 C   0  0  0  0  0  3  0  0  0  0  0  0
  181.1830  178.7920  141.4630 C   0  0  0  0  0  0  0  0  0  0  0  0
  185.3310  178.7260  140.9780 C   0  0  0  0  0  3  0  0  0  0  0  0
  183.1290  178.8400  140.0670 N   0  0  0  0  0  0  0  0  0  0  0  0
  180.5480  178.0180  136.6800 C   0  0  2  0  0  3  0  0  0  0  0  0
  180.9820  179.3000  136.1390 N   0  0  0  0  0  2  0  0  0  0  0  0
  181.1120  180.3260  138.2420 C   0  0  1  0  0  3  0  0  0  0  0  0
  180.7450  181.5660  136.2480 C   0  0  0  0  0  1  0  0  0  0  0  0
  180.4290  180.3220  136.9350 N   0  0  0  0  0  0  0  0  0  0  0  0
  181.2370  177.8000  138.0150 C   0  0  0  0  0  2  0  0  0  0  0  0
  180.9040  177.0060  135.8090 F   0  0  0  0  0  0  0  0  0  0  0  0
  180.5310  181.4190  139.1380 C   0  0  0  0  0  1  0  0  0  0  0  0
  180.9270  178.9670  138.9470 C   0  0  1  0  0  3  0  0  0  0  0  0
  1 16  2  0  0  0  0
  1  8  1  0  0  0  0
  2  9  1  0  0  0  0
  3 11  1  0  0  0  0
  5  4  2  0  0  0  0
  6 17  2  0  0  0  0
 10  4  1  0  0  0  0
 11 12  1  0  0  0  0
 11  7  2  0  0  0  0
 12 10  2  0  0  0  0
 13 21  1  0  0  0  0
 14 15  1  0  0  0  0
 14  1  1  0  0  0  0
 15 18  1  6  0  0  0
 15 19  1  0  0  0  0
 17  7  1  0  0  0  0
 17  9  1  0  0  0  0
 18  6  1  0  0  0  0
 19  8  1  1  0  0  0
 19  2  1  0  0  0  0
 20  5  1  0  0  0  0
 21 20  2  0  0  0  0
 21 12  1  0  0  0  0
 22  3  2  0  0  0  0
 22  6  1  0  0  0  0
 23 13  2  0  0  0  0
 23  3  1  0  0  0  0
 24 30  1  6  0  0  0
 24 29  1  0  0  0  0
 25 24  1  0  0  0  0
 25 28  1  0  0  0  0
 26 32  1  0  0  0  0
 26 31  1  1  0  0  0
 27 28  1  0  0  0  0
 28 26  1  0  0  0  0
 29 32  1  0  0  0  0
 32 13  1  1  0  0  0
M  END
>  <MODEL>
3

>  <REMARK>
 VINA RESULT:      -9.3      4.416      8.887
  Name = 
  1 active torsions:
  status: ('A' for Active; 'I' for Inactive)
    1  A    between atoms: C_16  and  C_32
                            x       y       z     vdW  Elec       q    Type
                         _______ _______ _______ _____ _____    ______ ____

>  <TORSDO>
F 1

$$$$
=
 OpenBabel11052416563D

 32 37  0  0  1  0  0  0  0  0999 V2000
  189.3470  176.9190  146.6500 C   0  0  0  0  0  0  0  0  0  0  0  0
  186.1010  178.2240  146.5620 O   0  0  0  0  0  0  0  0  0  0  0  0
  183.9020  178.1580  142.1280 C   0  0  0  0  0  0  0  0  0  0  0  0
  179.4700  179.2610  143.7630 C   0  0  0  0  0  3  0  0  0  0  0  0
  178.9310  178.8790  142.5320 C   0  0  0  0  0  3  0  0  0  0  0  0
  185.8390  178.4430  143.5460 C   0  0  0  0  0  0  0  0  0  0  0  0
  183.6490  178.9940  144.3570 N   0  0  0  0  0  0  0  0  0  0  0  0
  188.2630  177.6210  147.2300 N   0  0  0  0  0  2  0  0  0  0  0  0
  185.5310  179.3260  145.9100 C   0  0  0  0  0  2  0  0  0  0  0  0
  180.8470  179.1800  143.9800 C   0  0  0  0  0  3  0  0  0  0  0  0
  183.0850  178.6300  143.1730 C   0  0  0  0  0  0  0  0  0  0  0  0
  181.7000  178.7170  142.9680 C   0  0  0  0  0  0  0  0  0  0  0  0
  182.0160  177.8650  140.7070 C   0  0  0  0  0  0  0  0  0  0  0  0
  189.4360  176.9700  144.8740 S   0  0  0  0  0  0  0  0  0  0  0  0
  187.6820  177.4700  144.9120 C   0  0  2  0  0  3  0  0  0  0  0  0
  190.1420  176.2380  147.3470 O   0  0  0  0  0  0  0  0  0  0  0  0
  184.9910  178.9180  144.5720 C   0  0  0  0  0  0  0  0  0  0  0  0
  187.3290  178.3370  143.7120 C   0  0  0  0  0  2  0  0  0  0  0  0
  187.4550  178.2520  146.2070 C   0  0  1  0  0  3  0  0  0  0  0  0
  179.7680  178.4150  141.5160 C   0  0  0  0  0  3  0  0  0  0  0  0
  181.1540  178.3280  141.7190 C   0  0  0  0  0  0  0  0  0  0  0  0
  185.2790  178.0680  142.3230 C   0  0  0  0  0  3  0  0  0  0  0  0
  183.3560  177.7920  140.9400 N   0  0  0  0  0  0  0  0  0  0  0  0
  181.0600  175.4890  137.8860 C   0  0  2  0  0  3  0  0  0  0  0  0
  182.0690  176.0330  136.9860 N   0  0  0  0  0  2  0  0  0  0  0  0
  182.3220  178.0160  138.2090 C   0  0  1  0  0  3  0  0  0  0  0  0
  182.8040  177.8910  135.8850 C   0  0  0  0  0  1  0  0  0  0  0  0
  181.8950  177.4300  136.9250 N   0  0  0  0  0  0  0  0  0  0  0  0
  181.3930  175.9210  139.3020 C   0  0  0  0  0  2  0  0  0  0  0  0
  181.0720  174.1090  137.8110 F   0  0  0  0  0  0  0  0  0  0  0  0
  182.1400  179.5330  138.1830 C   0  0  0  0  0  1  0  0  0  0  0  0
  181.4800  177.4420  139.3660 C   0  0  1  0  0  3  0  0  0  0  0  0
  1  8  1  0  0  0  0
  1 16  2  0  0  0  0
  3 22  2  0  0  0  0
  3 11  1  0  0  0  0
  4 10  1  0  0  0  0
  5  4  2  0  0  0  0
  6 18  1  0  0  0  0
  6 17  2  0  0  0  0
  7 17  1  0  0  0  0
  9  2  1  0  0  0  0
 11  7  2  0  0  0  0
 12 11  1  0  0  0  0
 12 10  2  0  0  0  0
 13 23  2  0  0  0  0
 13 21  1  0  0  0  0
 14 15  1  0  0  0  0
 14  1  1  0  0  0  0
 15 18  1  6  0  0  0
 15 19  1  0  0  0  0
 17  9  1  0  0  0  0
 19  2  1  1  0  0  0
 19  8  1  0  0  0  0
 20 21  2  0  0  0  0
 20  5  1  0  0  0  0
 21 12  1  0  0  0  0
 22  6  1  0  0  0  0
 23  3  1  0  0  0  0
 24 30  1  1  0  0  0
 24 29  1  0  0  0  0
 25 24  1  0  0  0  0
 26 31  1  6  0  0  0
 26 32  1  0  0  0  0
 27 28  1  0  0  0  0
 28 25  1  0  0  0  0
 28 26  1  0  0  0  0
 29 32  1  0  0  0  0
 32 13  1  1  0  0  0
M  END
>  <MODEL>
4

>  <REMARK>
 VINA RESULT:      -9.1      4.586      8.514
  Name = 
  1 active torsions:
  status: ('A' for Active; 'I' for Inactive)
    1  A    between atoms: C_16  and  C_32
                            x       y       z     vdW  Elec       q    Type
                         _______ _______ _______ _____ _____    ______ ____

>  <TORSDO>
F 1

$$$$
=
 OpenBabel11052416563D

 32 37  0  0  1  0  0  0  0  0999 V2000
  180.2230  178.3370  142.0970 C   0  0  0  0  0  0  0  0  0  0  0  0
  183.0140  178.4650  139.9900 O   0  0  0  0  0  0  0  0  0  0  0  0
  187.4060  178.2130  142.2590 C   0  0  0  0  0  0  0  0  0  0  0  0
  190.0060  177.5340  138.2200 C   0  0  0  0  0  3  0  0  0  0  0  0
  191.0990  177.1490  139.0000 C   0  0  0  0  0  3  0  0  0  0  0  0
  185.1090  178.9580  142.1300 C   0  0  0  0  0  0  0  0  0  0  0  0
  186.3930  178.6280  140.1290 N   0  0  0  0  0  0  0  0  0  0  0  0
  180.8330  178.5510  140.8380 N   0  0  0  0  0  2  0  0  0  0  0  0
  184.0660  179.3810  139.8510 C   0  0  0  0  0  2  0  0  0  0  0  0
  188.8040  177.8980  138.8300 C   0  0  0  0  0  3  0  0  0  0  0  0
  187.4810  178.2460  140.8540 C   0  0  0  0  0  0  0  0  0  0  0  0
  188.6830  177.8820  140.2280 C   0  0  0  0  0  0  0  0  0  0  0  0
  189.6640  177.4780  142.4210 C   0  0  0  0  0  0  0  0  0  0  0  0
  181.2560  178.6370  143.5140 S   0  0  0  0  0  0  0  0  0  0  0  0
  182.6720  178.5040  142.3710 C   0  0  2  0  0  3  0  0  0  0  0  0
  179.0540  177.8840  142.1970 O   0  0  0  0  0  0  0  0  0  0  0  0
  185.2210  178.9850  140.7200 C   0  0  0  0  0  0  0  0  0  0  0  0
  183.8480  179.3430  142.8490 C   0  0  0  0  0  2  0  0  0  0  0  0
  182.2020  178.9940  141.0000 C   0  0  1  0  0  3  0  0  0  0  0  0
  190.9930  177.1280  140.3920 C   0  0  0  0  0  3  0  0  0  0  0  0
  189.7910  177.4920  141.0190 C   0  0  0  0  0  0  0  0  0  0  0  0
  186.2150  178.5720  142.8890 C   0  0  0  0  0  3  0  0  0  0  0  0
  188.4820  177.8360  142.9970 N   0  0  0  0  0  0  0  0  0  0  0  0
  191.9900  175.1270  144.3140 C   0  0  2  0  0  3  0  0  0  0  0  0
  191.5480  175.6180  145.6130 N   0  0  0  0  0  2  0  0  0  0  0  0
  190.6460  177.5970  144.7400 C   0  0  1  0  0  3  0  0  0  0  0  0
  191.3990  177.4330  146.9880 C   0  0  0  0  0  1  0  0  0  0  0  0
  191.6800  177.0210  145.6200 N   0  0  0  0  0  0  0  0  0  0  0  0
  190.9760  175.5550  143.2680 C   0  0  0  0  0  2  0  0  0  0  0  0
  192.0660  173.7480  144.3440 F   0  0  0  0  0  0  0  0  0  0  0  0
  190.7630  179.1200  144.7160 C   0  0  0  0  0  1  0  0  0  0  0  0
  190.8140  177.0710  143.3010 C   0  0  1  0  0  3  0  0  0  0  0  0
  1 16  2  0  0  0  0
  1 14  1  0  0  0  0
  3 22  2  0  0  0  0
  3 23  1  0  0  0  0
  4 10  2  0  0  0  0
  4  5  1  0  0  0  0
  5 20  2  0  0  0  0
  6 18  1  0  0  0  0
  6 22  1  0  0  0  0
  7 17  1  0  0  0  0
  7 11  2  0  0  0  0
  8 19  1  0  0  0  0
  8  1  1  0  0  0  0
  9  2  1  0  0  0  0
  9 17  1  0  0  0  0
 10 12  1  0  0  0  0
 11  3  1  0  0  0  0
 12 11  1  0  0  0  0
 12 21  2  0  0  0  0
 13 23  2  0  0  0  0
 15 18  1  1  0  0  0
 15 14  1  0  0  0  0
 17  6  2  0  0  0  0
 19  2  1  6  0  0  0
 19 15  1  0  0  0  0
 20 21  1  0  0  0  0
 21 13  1  0  0  0  0
 24 30  1  1  0  0  0
 24 25  1  0  0  0  0
 25 28  1  0  0  0  0
 26 31  1  6  0  0  0
 26 28  1  0  0  0  0
 28 27  1  0  0  0  0
 29 32  1  0  0  0  0
 29 24  1  0  0  0  0
 32 13  1  6  0  0  0
 32 26  1  0  0  0  0
M  END
>  <MODEL>
5

>  <REMARK>
 VINA RESULT:      -8.9      2.877      4.797
  Name = 
  1 active torsions:
  status: ('A' for Active; 'I' for Inactive)
    1  A    between atoms: C_16  and  C_32
                            x       y       z     vdW  Elec       q    Type
                         _______ _______ _______ _____ _____    ______ ____

>  <TORSDO>
F 1

$$$$
=
 OpenBabel11052416563D

 32 37  0  0  1  0  0  0  0  0999 V2000
  191.3690  175.8820  138.0390 C   0  0  0  0  0  0  0  0  0  0  0  0
  189.6630  177.1740  140.8070 O   0  0  0  0  0  0  0  0  0  0  0  0
  184.9350  178.4030  140.0090 C   0  0  0  0  0  0  0  0  0  0  0  0
  183.7900  179.0110  144.6840 C   0  0  0  0  0  3  0  0  0  0  0  0
  182.4360  179.0030  144.3440 C   0  0  0  0  0  3  0  0  0  0  0  0
  187.2480  178.2550  139.3210 C   0  0  0  0  0  0  0  0  0  0  0  0
  186.6860  178.5610  141.6340 N   0  0  0  0  0  0  0  0  0  0  0  0
  191.3280  176.3910  139.3590 N   0  0  0  0  0  2  0  0  0  0  0  0
  189.0800  178.4200  141.0750 C   0  0  0  0  0  2  0  0  0  0  0  0
  184.7620  178.8630  143.6920 C   0  0  0  0  0  3  0  0  0  0  0  0
  185.3560  178.5580  141.3430 C   0  0  0  0  0  0  0  0  0  0  0  0
  184.3900  178.7070  142.3490 C   0  0  0  0  0  0  0  0  0  0  0  0
  182.6480  178.5430  140.6530 C   0  0  0  0  0  0  0  0  0  0  0  0
  190.0740  176.4430  136.9550 S   0  0  0  0  0  0  0  0  0  0  0  0
  189.1690  176.9200  138.4660 C   0  0  2  0  0  3  0  0  0  0  0  0
  192.2190  175.0230  137.6880 O   0  0  0  0  0  0  0  0  0  0  0  0
  187.6370  178.4190  140.6700 C   0  0  0  0  0  0  0  0  0  0  0  0
  188.2420  178.0980  138.2060 C   0  0  0  0  0  2  0  0  0  0  0  0
  190.2080  177.2950  139.5240 C   0  0  1  0  0  3  0  0  0  0  0  0
  182.0500  178.8480  143.0110 C   0  0  0  0  0  3  0  0  0  0  0  0
  183.0160  178.6990  142.0030 C   0  0  0  0  0  0  0  0  0  0  0  0
  185.8880  178.2530  139.0030 C   0  0  0  0  0  3  0  0  0  0  0  0
  183.6120  178.3990  139.7020 N   0  0  0  0  0  0  0  0  0  0  0  0
  179.3300  177.0690  139.4980 C   0  0  2  0  0  3  0  0  0  0  0  0
  179.3890  177.7540  138.2130 N   0  0  0  0  0  2  0  0  0  0  0  0
  180.9720  179.3220  138.9380 C   0  0  1  0  0  3  0  0  0  0  0  0
  179.4640  179.7760  137.1580 C   0  0  0  0  0  1  0  0  0  0  0  0
  179.5930  179.1260  138.4560 N   0  0  0  0  0  0  0  0  0  0  0  0
  180.7150  177.0880  140.1180 C   0  0  0  0  0  2  0  0  0  0  0  0
  178.9310  175.7610  139.3050 F   0  0  0  0  0  0  0  0  0  0  0  0
  181.2280  180.8010  139.2210 C   0  0  0  0  0  1  0  0  0  0  0  0
  181.2010  178.5280  140.2400 C   0  0  1  0  0  3  0  0  0  0  0  0
  1  8  1  0  0  0  0
  2  9  1  0  0  0  0
  3 11  1  0  0  0  0
  5  4  1  0  0  0  0
  6 17  1  0  0  0  0
 10  4  2  0  0  0  0
 11  7  1  0  0  0  0
 11 12  2  0  0  0  0
 12 10  1  0  0  0  0
 13 21  2  0  0  0  0
 14  1  1  0  0  0  0
 14 15  1  0  0  0  0
 15 18  1  6  0  0  0
 15 19  1  0  0  0  0
 16  1  2  0  0  0  0
 17  9  1  0  0  0  0
 17  7  2  0  0  0  0
 18  6  1  0  0  0  0
 19  8  1  1  0  0  0
 19  2  1  0  0  0  0
 20  5  2  0  0  0  0
 21 12  1  0  0  0  0
 21 20  1  0  0  0  0
 22  6  2  0  0  0  0
 22  3  1  0  0  0  0
 23  3  2  0  0  0  0
 23 13  1  0  0  0  0
 24 30  1  6  0  0  0
 24 29  1  0  0  0  0
 25 28  1  0  0  0  0
 25 24  1  0  0  0  0
 26 31  1  1  0  0  0
 26 32  1  0  0  0  0
 27 28  1  0  0  0  0
 28 26  1  0  0  0  0
 29 32  1  0  0  0  0
 32 13  1  6  0  0  0
M  END
>  <MODEL>
6

>  <REMARK>
 VINA RESULT:      -8.8      4.909      8.961
  Name = 
  1 active torsions:
  status: ('A' for Active; 'I' for Inactive)
    1  A    between atoms: C_16  and  C_32
                            x       y       z     vdW  Elec       q    Type
                         _______ _______ _______ _____ _____    ______ ____

>  <TORSDO>
F 1

$$$$
=
 OpenBabel11052416563D

 32 37  0  0  1  0  0  0  0  0999 V2000
  190.4680  176.2820  146.9140 C   0  0  0  0  0  0  0  0  0  0  0  0
  187.1600  177.4220  146.9290 O   0  0  0  0  0  0  0  0  0  0  0  0
  185.2260  178.4000  142.4790 C   0  0  0  0  0  0  0  0  0  0  0  0
  180.6480  178.8500  144.0230 C   0  0  0  0  0  3  0  0  0  0  0  0
  180.2050  178.7730  142.7000 C   0  0  0  0  0  3  0  0  0  0  0  0
  187.0580  178.3960  144.0570 C   0  0  0  0  0  0  0  0  0  0  0  0
  184.7950  178.6230  144.8250 N   0  0  0  0  0  0  0  0  0  0  0  0
  189.3120  176.7630  147.5750 N   0  0  0  0  0  2  0  0  0  0  0  0
  186.5620  178.6280  146.5400 C   0  0  0  0  0  2  0  0  0  0  0  0
  182.0130  178.7760  144.3090 C   0  0  0  0  0  3  0  0  0  0  0  0
  184.3230  178.5520  143.5490 C   0  0  0  0  0  0  0  0  0  0  0  0
  182.9490  178.6260  143.2760 C   0  0  0  0  0  0  0  0  0  0  0  0
  183.4450  178.3990  140.9010 C   0  0  0  0  0  0  0  0  0  0  0  0
  190.6550  176.7910  145.2200 S   0  0  0  0  0  0  0  0  0  0  0  0
  188.8750  177.1870  145.2590 C   0  0  2  0  0  3  0  0  0  0  0  0
  191.2620  175.4800  147.4700 O   0  0  0  0  0  0  0  0  0  0  0  0
  186.1250  178.5540  145.1070 C   0  0  0  0  0  0  0  0  0  0  0  0
  188.5390  178.3170  144.2960 C   0  0  0  0  0  2  0  0  0  0  0  0
  188.5270  177.5990  146.6900 C   0  0  1  0  0  3  0  0  0  0  0  0
  181.1250  178.6230  141.6610 C   0  0  0  0  0  3  0  0  0  0  0  0
  182.5000  178.5480  141.9340 C   0  0  0  0  0  0  0  0  0  0  0  0
  186.5920  178.3240  142.7430 C   0  0  0  0  0  3  0  0  0  0  0  0
  184.7710  178.3280  141.2020 N   0  0  0  0  0  0  0  0  0  0  0  0
  181.8470  179.5220  137.6290 C   0  0  2  0  0  3  0  0  0  0  0  0
  180.8100  178.5000  137.6990 N   0  0  0  0  0  2  0  0  0  0  0  0
  181.9850  177.1840  139.2430 C   0  0  1  0  0  3  0  0  0  0  0  0
  180.3740  176.2610  137.7590 C   0  0  0  0  0  1  0  0  0  0  0  0
  181.4370  177.2510  137.8760 N   0  0  0  0  0  0  0  0  0  0  0  0
  182.4780  179.6630  139.0020 C   0  0  0  0  0  2  0  0  0  0  0  0
  181.2830  180.7260  137.2560 F   0  0  0  0  0  0  0  0  0  0  0  0
  182.6800  175.8430  139.4680 C   0  0  0  0  0  1  0  0  0  0  0  0
  183.0130  178.3120  139.4620 C   0  0  1  0  0  3  0  0  0  0  0  0
  1 16  2  0  0  0  0
  1  8  1  0  0  0  0
  3 22  2  0  0  0  0
  3 11  1  0  0  0  0
  4 10  1  0  0  0  0
  5  4  2  0  0  0  0
  6 18  1  0  0  0  0
  6 17  2  0  0  0  0
  7 17  1  0  0  0  0
  9  2  1  0  0  0  0
 11  7  2  0  0  0  0
 12 11  1  0  0  0  0
 12 10  2  0  0  0  0
 13 23  2  0  0  0  0
 13 21  1  0  0  0  0
 14 15  1  0  0  0  0
 14  1  1  0  0  0  0
 15 18  1  6  0  0  0
 15 19  1  0  0  0  0
 17  9  1  0  0  0  0
 19  2  1  1  0  0  0
 19  8  1  0  0  0  0
 20 21  2  0  0  0  0
 20  5  1  0  0  0  0
 21 12  1  0  0  0  0
 22  6  1  0  0  0  0
 23  3  1  0  0  0  0
 24 30  1  1  0  0  0
 24 25  1  0  0  0  0
 24 29  1  0  0  0  0
 25 28  1  0  0  0  0
 26 32  1  0  0  0  0
 26 31  1  6  0  0  0
 27 28  1  0  0  0  0
 28 26  1  0  0  0  0
 29 32  1  0  0  0  0
 32 13  1  1  0  0  0
M  END
>  <MODEL>
7

>  <REMARK>
 VINA RESULT:      -8.7      4.573      8.529
  Name = 
  1 active torsions:
  status: ('A' for Active; 'I' for Inactive)
    1  A    between atoms: C_16  and  C_32
                            x       y       z     vdW  Elec       q    Type
                         _______ _______ _______ _____ _____    ______ ____

>  <TORSDO>
F 1

$$$$
=
 OpenBabel11052416563D

 32 37  0  0  1  0  0  0  0  0999 V2000
  191.8140  175.1540  135.4450 C   0  0  0  0  0  0  0  0  0  0  0  0
  191.5040  175.7320  138.8820 O   0  0  0  0  0  0  0  0  0  0  0  0
  187.4700  178.2470  140.2630 C   0  0  0  0  0  0  0  0  0  0  0  0
  187.9590  177.3880  145.0130 C   0  0  0  0  0  3  0  0  0  0  0  0
  186.6480  177.8240  145.2170 C   0  0  0  0  0  3  0  0  0  0  0  0
  189.3000  177.8130  138.7420 C   0  0  0  0  0  0  0  0  0  0  0  0
  189.5480  177.3920  141.0920 N   0  0  0  0  0  0  0  0  0  0  0  0
  192.3210  175.1510  136.7660 N   0  0  0  0  0  2  0  0  0  0  0  0
  191.4880  176.8990  139.6580 C   0  0  0  0  0  2  0  0  0  0  0  0
  188.5020  177.3810  143.7260 C   0  0  0  0  0  3  0  0  0  0  0  0
  188.2740  177.8080  141.3320 C   0  0  0  0  0  0  0  0  0  0  0  0
  187.7400  177.8100  142.6300 C   0  0  0  0  0  0  0  0  0  0  0  0
  185.6490  178.6830  141.7320 C   0  0  0  0  0  0  0  0  0  0  0  0
  190.5450  176.3560  135.1100 S   0  0  0  0  0  0  0  0  0  0  0  0
  190.3210  176.4590  136.9180 C   0  0  2  0  0  3  0  0  0  0  0  0
  192.1810  174.3050  134.5940 O   0  0  0  0  0  0  0  0  0  0  0  0
  190.0810  177.3850  139.8400 C   0  0  0  0  0  0  0  0  0  0  0  0
  189.8250  177.8360  137.3350 C   0  0  0  0  0  2  0  0  0  0  0  0
  191.6770  176.1730  137.5650 C   0  0  1  0  0  3  0  0  0  0  0  0
  185.8770  178.2540  144.1350 C   0  0  0  0  0  3  0  0  0  0  0  0
  186.4100  178.2520  142.8360 C   0  0  0  0  0  0  0  0  0  0  0  0
  187.9920  178.2460  138.9700 C   0  0  0  0  0  3  0  0  0  0  0  0
  186.1980  178.6660  140.4850 N   0  0  0  0  0  0  0  0  0  0  0  0
  182.2120  179.0030  143.3450 C   0  0  2  0  0  3  0  0  0  0  0  0
  181.5460  178.3410  142.2300 N   0  0  0  0  0  2  0  0  0  0  0  0
  183.3280  178.6900  140.7480 C   0  0  1  0  0  3  0  0  0  0  0  0
  181.0900  178.4190  139.9960 C   0  0  0  0  0  1  0  0  0  0  0  0
  181.9180  179.0020  141.0430 N   0  0  0  0  0  0  0  0  0  0  0  0
  183.6990  178.7100  143.2600 C   0  0  0  0  0  2  0  0  0  0  0  0
  181.7150  178.5110  144.5360 F   0  0  0  0  0  0  0  0  0  0  0  0
  183.7700  179.3980  139.4680 C   0  0  0  0  0  1  0  0  0  0  0  0
  184.2330  179.1600  141.9040 C   0  0  1  0  0  3  0  0  0  0  0  0
  1  8  1  0  0  0  0
  2  9  1  0  0  0  0
  3 23  2  0  0  0  0
  3 11  1  0  0  0  0
  4  5  1  0  0  0  0
  6 22  2  0  0  0  0
  6 17  1  0  0  0  0
  7 11  1  0  0  0  0
  9 17  1  0  0  0  0
 10  4  2  0  0  0  0
 11 12  2  0  0  0  0
 12 21  1  0  0  0  0
 12 10  1  0  0  0  0
 13 21  2  0  0  0  0
 14  1  1  0  0  0  0
 14 15  1  0  0  0  0
 15 18  1  6  0  0  0
 15 19  1  0  0  0  0
 16  1  2  0  0  0  0
 17  7  2  0  0  0  0
 18  6  1  0  0  0  0
 19  8  1  6  0  0  0
 19  2  1  0  0  0  0
 20  5  2  0  0  0  0
 21 20  1  0  0  0  0
 22  3  1  0  0  0  0
 23 13  1  0  0  0  0
 24 30  1  1  0  0  0
 25 24  1  0  0  0  0
 26 31  1  6  0  0  0
 26 28  1  0  0  0  0
 26 32  1  0  0  0  0
 27 28  1  0  0  0  0
 28 25  1  0  0  0  0
 29 24  1  0  0  0  0
 32 13  1  6  0  0  0
 32 29  1  0  0  0  0
M  END
>  <MODEL>
8

>  <REMARK>
 VINA RESULT:      -8.7      5.034      8.483
  Name = 
  1 active torsions:
  status: ('A' for Active; 'I' for Inactive)
    1  A    between atoms: C_16  and  C_32
                            x       y       z     vdW  Elec       q    Type
                         _______ _______ _______ _____ _____    ______ ____

>  <TORSDO>
F 1

$$$$
=
 OpenBabel11052416563D

 32 37  0  0  1  0  0  0  0  0999 V2000
  188.3180  177.3860  146.0770 C   0  0  0  0  0  0  0  0  0  0  0  0
  187.2560  177.8130  142.7700 O   0  0  0  0  0  0  0  0  0  0  0  0
  190.5330  176.5060  139.2980 C   0  0  0  0  0  0  0  0  0  0  0  0
  187.4210  176.7160  135.5830 C   0  0  0  0  0  3  0  0  0  0  0  0
  188.3370  176.0230  134.7880 C   0  0  0  0  0  3  0  0  0  0  0  0
  189.9610  177.4830  141.4350 C   0  0  0  0  0  0  0  0  0  0  0  0
  188.4200  177.5930  139.5980 N   0  0  0  0  0  0  0  0  0  0  0  0
  187.4130  177.8780  145.1050 N   0  0  0  0  0  2  0  0  0  0  0  0
  187.7060  178.6220  141.7180 C   0  0  0  0  0  2  0  0  0  0  0  0
  187.7310  177.0150  136.9110 C   0  0  0  0  0  3  0  0  0  0  0  0
  189.2860  176.9190  138.7920 C   0  0  0  0  0  0  0  0  0  0  0  0
  188.9620  176.6250  137.4580 C   0  0  0  0  0  0  0  0  0  0  0  0
  191.1260  175.5340  137.2080 C   0  0  0  0  0  0  0  0  0  0  0  0
  189.9980  177.1780  145.5300 S   0  0  0  0  0  0  0  0  0  0  0  0
  189.3340  177.2260  143.8320 C   0  0  2  0  0  3  0  0  0  0  0  0
  187.9330  177.0420  147.2240 O   0  0  0  0  0  0  0  0  0  0  0  0
  188.7200  177.8880  140.8920 C   0  0  0  0  0  0  0  0  0  0  0  0
  190.3590  177.7780  142.8530 C   0  0  0  0  0  2  0  0  0  0  0  0
  188.0930  178.1190  143.8490 C   0  0  1  0  0  3  0  0  0  0  0  0
  189.5660  175.6280  135.3200 C   0  0  0  0  0  3  0  0  0  0  0  0
  189.8920  175.9220  136.6530 C   0  0  0  0  0  0  0  0  0  0  0  0
  190.8630  176.7940  140.6210 C   0  0  0  0  0  3  0  0  0  0  0  0
  191.4090  175.8340  138.5070 N   0  0  0  0  0  0  0  0  0  0  0  0
  193.0130  172.5260  135.8270 C   0  0  2  0  0  3  0  0  0  0  0  0
  194.2540  172.9070  136.4900 N   0  0  0  0  0  2  0  0  0  0  0  0
  193.5840  175.1280  136.8210 C   0  0  1  0  0  3  0  0  0  0  0  0
  195.8730  174.5030  136.6810 C   0  0  0  0  0  1  0  0  0  0  0  0
  194.5460  174.2400  136.1420 N   0  0  0  0  0  0  0  0  0  0  0  0
  191.8700  173.2890  136.4710 C   0  0  0  0  0  2  0  0  0  0  0  0
  192.8050  171.1690  135.9830 F   0  0  0  0  0  0  0  0  0  0  0  0
  193.8650  176.5860  136.4600 C   0  0  0  0  0  1  0  0  0  0  0  0
  192.1440  174.7860  136.3900 C   0  0  1  0  0  3  0  0  0  0  0  0
  1 16  2  0  0  0  0
  3 22  1  0  0  0  0
  4 10  1  0  0  0  0
  5 20  1  0  0  0  0
  5  4  2  0  0  0  0
  6 18  1  0  0  0  0
  7 17  2  0  0  0  0
  8  1  1  0  0  0  0
  9  2  1  0  0  0  0
 10 12  2  0  0  0  0
 11  3  2  0  0  0  0
 11  7  1  0  0  0  0
 12 11  1  0  0  0  0
 13 23  2  0  0  0  0
 14  1  1  0  0  0  0
 15 18  1  6  0  0  0
 15 19  1  0  0  0  0
 15 14  1  0  0  0  0
 17  6  1  0  0  0  0
 17  9  1  0  0  0  0
 19  2  1  6  0  0  0
 19  8  1  0  0  0  0
 20 21  2  0  0  0  0
 21 13  1  0  0  0  0
 21 12  1  0  0  0  0
 22  6  2  0  0  0  0
 23  3  1  0  0  0  0
 24 30  1  1  0  0  0
 24 29  1  0  0  0  0
 24 25  1  0  0  0  0
 26 31  1  6  0  0  0
 28 25  1  0  0  0  0
 28 27  1  0  0  0  0
 28 26  1  0  0  0  0
 32 29  1  0  0  0  0
 32 26  1  0  0  0  0
 32 13  1  1  0  0  0
M  END
>  <MODEL>
9

>  <REMARK>
 VINA RESULT:      -8.5      5.564      9.009
  Name = 
  1 active torsions:
  status: ('A' for Active; 'I' for Inactive)
    1  A    between atoms: C_16  and  C_32
                            x       y       z     vdW  Elec       q    Type
                         _______ _______ _______ _____ _____    ______ ____

>  <TORSDO>
F 1

$$$$
