=
 OpenBabel11052416473D

 32 36  0  0  1  0  0  0  0  0999 V2000
  190.4070  177.3210  139.2810 C   0  0  0  0  0  0  0  0  0  0  0  0
  185.8110  178.9970  140.6830 C   0  0  1  0  0  3  0  0  0  0  0  0
  185.4270  178.6840  145.5160 C   0  0  0  0  0  3  0  0  0  0  0  0
  184.0350  178.7910  145.4350 C   0  0  0  0  0  3  0  0  0  0  0  0
  183.5870  179.0650  139.2730 C   0  0  2  0  0  3  0  0  0  0  0  0
  182.0980  179.4120  139.4170 C   0  0  2  0  0  3  0  0  0  0  0  0
  187.7300  178.1640  139.3970 C   0  0  0  0  0  0  0  0  0  0  0  0
  187.8300  178.2220  141.9300 C   0  0  0  0  0  2  0  0  0  0  0  0
  189.7960  177.5540  140.5210 C   0  0  0  0  0  3  0  0  0  0  0  0
  186.1840  178.4710  144.3590 C   0  0  0  0  0  3  0  0  0  0  0  0
  186.3080  178.1020  141.8330 C   0  0  1  0  0  3  0  0  0  0  0  0
  185.5490  178.3750  143.1120 C   0  0  0  0  0  0  0  0  0  0  0  0
  183.5090  178.3250  141.6820 C   0  0  1  0  0  3  0  0  0  0  0  0
  189.6680  177.5080  138.1040 C   0  0  0  0  0  3  0  0  0  0  0  0
  188.4620  177.9620  140.5880 C   0  0  0  0  0  0  0  0  0  0  0  0
  181.8250  180.6400  138.6900 N   0  0  0  0  0  1  0  0  0  0  0  0
  188.3360  177.9270  138.1610 C   0  0  0  0  0  3  0  0  0  0  0  0
  183.3930  178.6810  144.1980 C   0  0  0  0  0  3  0  0  0  0  0  0
  184.1460  178.4730  143.0360 C   0  0  0  0  0  0  0  0  0  0  0  0
  182.0920  178.4720  141.6880 O   0  0  0  0  0  0  0  0  0  0  0  0
  186.3930  178.5770  139.4500 O   0  0  0  0  0  0  0  0  0  0  0  0
  183.7110  177.7750  138.7530 O   0  0  0  0  0  1  0  0  0  0  0  0
  184.2740  179.1570  140.6310 C   0  0  1  0  0  3  0  0  0  0  0  0
  181.6680  179.5650  140.8950 C   0  0  2  0  0  3  0  0  0  0  0  0
  192.6320  177.2640  140.1020 O   0  0  0  0  0  0  0  0  0  0  0  0
  192.2530  176.0360  138.1530 N   0  0  0  0  0  2  0  0  0  0  0  0
  191.8140  176.8860  139.2160 C   0  0  0  0  0  0  0  0  0  0  0  0
  193.5800  175.6000  138.0450 C   0  0  0  0  0  0  0  0  0  0  0  0
  194.6770  175.2390  137.9560 N   0  0  0  0  0  0  0  0  0  0  0  0
  180.1870  179.7180  141.0090 C   0  0  0  0  0  0  0  0  0  0  0  0
  179.4290  178.8250  140.5490 O   0  0  0  0  0  0  0  0  0  0  0  0
  179.6260  180.8640  141.6430 N   0  0  0  0  0  1  0  0  0  0  0  0
  1  9  1  0  0  0  0
  2 21  1  6  0  0  0
  2 11  1  0  0  0  0
  4  3  1  0  0  0  0
  5 22  1  1  0  0  0
  5  6  1  0  0  0  0
  5 23  1  0  0  0  0
  6 16  1  6  0  0  0
  6 24  1  0  0  0  0
  7 21  1  0  0  0  0
  7 15  1  0  0  0  0
  9 15  2  0  0  0  0
 10  3  2  0  0  0  0
 11  8  1  1  0  0  0
 11 12  1  0  0  0  0
 12 10  1  0  0  0  0
 13 20  1  1  0  0  0
 13 19  1  0  0  0  0
 14 17  1  0  0  0  0
 14  1  2  0  0  0  0
 15  8  1  0  0  0  0
 17  7  2  0  0  0  0
 18  4  2  0  0  0  0
 19 12  2  0  0  0  0
 19 18  1  0  0  0  0
 23  2  1  0  0  0  0
 23 13  1  0  0  0  0
 24 30  1  0  0  0  0
 24 20  1  0  0  0  0
 26 27  1  0  0  0  0
 27  1  1  0  0  0  0
 27 25  2  0  0  0  0
 28 26  1  0  0  0  0
 29 28  3  0  0  0  0
 30 32  1  0  0  0  0
 31 30  2  0  0  0  0
M  END
>  <MODEL>
1

>  <REMARK>
 VINA RESULT:      -9.4      0.000      0.000
  Name = 
  3 active torsions:
  status: ('A' for Active; 'I' for Inactive)
    1  A    between atoms: C_1  and  N_20
    2  A    between atoms: C_2  and  C_24
    3  A    between atoms: C_11  and  C_32
                            x       y       z     vdW  Elec       q    Type
                         _______ _______ _______ _____ _____    ______ ____

>  <TORSDO>
F 3

$$$$
=
 OpenBabel11052416473D

 32 36  0  0  1  0  0  0  0  0999 V2000
  190.6670  176.8390  146.8370 C   0  0  0  0  0  0  0  0  0  0  0  0
  187.4200  177.3350  142.9500 C   0  0  1  0  0  3  0  0  0  0  0  0
  189.8960  177.0410  138.7810 C   0  0  0  0  0  3  0  0  0  0  0  0
  188.8310  177.6170  138.0810 C   0  0  0  0  0  3  0  0  0  0  0  0
  185.0790  178.5430  142.9090 C   0  0  2  0  0  3  0  0  0  0  0  0
  183.9530  178.9220  141.9350 C   0  0  2  0  0  3  0  0  0  0  0  0
  188.4620  177.3520  145.1730 C   0  0  0  0  0  0  0  0  0  0  0  0
  189.8650  176.8630  143.1180 C   0  0  0  0  0  2  0  0  0  0  0  0
  190.7960  176.7340  145.4450 C   0  0  0  0  0  3  0  0  0  0  0  0
  189.9040  177.0470  140.1790 C   0  0  0  0  0  3  0  0  0  0  0  0
  188.8080  177.7000  142.3950 C   0  0  1  0  0  3  0  0  0  0  0  0
  188.8370  177.6230  140.8850 C   0  0  0  0  0  0  0  0  0  0  0  0
  186.6690  178.8500  140.9770 C   0  0  1  0  0  3  0  0  0  0  0  0
  189.4300  177.2080  147.3870 C   0  0  0  0  0  3  0  0  0  0  0  0
  189.7080  176.9980  144.6090 C   0  0  0  0  0  0  0  0  0  0  0  0
  182.7890  178.0960  142.2120 N   0  0  0  0  0  1  0  0  0  0  0  0
  188.3330  177.4630  146.5590 C   0  0  0  0  0  3  0  0  0  0  0  0
  187.7720  178.2060  138.7760 C   0  0  0  0  0  3  0  0  0  0  0  0
  187.7710  178.2110  140.1770 C   0  0  0  0  0  0  0  0  0  0  0  0
  185.6150  179.3900  140.1860 O   0  0  0  0  0  0  0  0  0  0  0  0
  187.3620  177.6160  144.3480 O   0  0  0  0  0  0  0  0  0  0  0  0
  185.4980  179.6840  143.5950 O   0  0  0  0  0  1  0  0  0  0  0  0
  186.2440  177.9290  142.1400 C   0  0  1  0  0  3  0  0  0  0  0  0
  184.3740  178.7630  140.4550 C   0  0  2  0  0  3  0  0  0  0  0  0
  192.4820  175.4980  147.5670 O   0  0  0  0  0  0  0  0  0  0  0  0
  192.1890  177.5030  148.7270 N   0  0  0  0  0  2  0  0  0  0  0  0
  191.8200  176.5640  147.7130 C   0  0  0  0  0  0  0  0  0  0  0  0
  193.2740  177.2840  149.5870 C   0  0  0  0  0  0  0  0  0  0  0  0
  194.1700  177.1040  150.2980 N   0  0  0  0  0  0  0  0  0  0  0  0
  183.3300  179.3110  139.5390 C   0  0  0  0  0  0  0  0  0  0  0  0
  183.4040  180.5050  139.1510 O   0  0  0  0  0  0  0  0  0  0  0  0
  182.2560  178.4870  139.0950 N   0  0  0  0  0  1  0  0  0  0  0  0
  1 14  1  0  0  0  0
  1 27  1  0  0  0  0
  2 21  1  1  0  0  0
  3 10  1  0  0  0  0
  4 18  1  0  0  0  0
  4  3  2  0  0  0  0
  5 22  1  6  0  0  0
  6 16  1  1  0  0  0
  6  5  1  0  0  0  0
  7 17  1  0  0  0  0
  8 15  1  0  0  0  0
  9  1  2  0  0  0  0
 10 12  2  0  0  0  0
 11  2  1  0  0  0  0
 11  8  1  1  0  0  0
 12 11  1  0  0  0  0
 13 19  1  6  0  0  0
 13 23  1  0  0  0  0
 15  7  2  0  0  0  0
 15  9  1  0  0  0  0
 17 14  2  0  0  0  0
 18 19  2  0  0  0  0
 19 12  1  0  0  0  0
 20 24  1  0  0  0  0
 20 13  1  0  0  0  0
 21  7  1  0  0  0  0
 23  5  1  0  0  0  0
 23  2  1  0  0  0  0
 24  6  1  0  0  0  0
 25 27  2  0  0  0  0
 26 28  1  0  0  0  0
 27 26  1  0  0  0  0
 28 29  3  0  0  0  0
 30 24  1  0  0  0  0
 31 30  2  0  0  0  0
 32 30  1  0  0  0  0
M  END
>  <MODEL>
2

>  <REMARK>
 VINA RESULT:      -9.4      4.489      6.417
  Name = 
  3 active torsions:
  status: ('A' for Active; 'I' for Inactive)
    1  A    between atoms: C_1  and  N_20
    2  A    between atoms: C_2  and  C_24
    3  A    between atoms: C_11  and  C_32
                            x       y       z     vdW  Elec       q    Type
                         _______ _______ _______ _____ _____    ______ ____

>  <TORSDO>
F 3

$$$$
=
 OpenBabel11052416473D

 32 36  0  0  1  0  0  0  0  0999 V2000
  182.4030  178.9010  142.5770 C   0  0  0  0  0  0  0  0  0  0  0  0
  187.1250  178.3910  144.4030 C   0  0  1  0  0  3  0  0  0  0  0  0
  190.1390  177.4010  140.7240 C   0  0  0  0  0  3  0  0  0  0  0  0
  191.1130  176.9410  141.6160 C   0  0  0  0  0  3  0  0  0  0  0  0
  187.8820  177.7070  146.8330 C   0  0  2  0  0  3  0  0  0  0  0  0
  189.1510  177.4000  147.6400 C   0  0  2  0  0  3  0  0  0  0  0  0
  184.6860  178.5620  144.1780 C   0  0  0  0  0  0  0  0  0  0  0  0
  186.1410  178.3680  142.1090 C   0  0  0  0  0  2  0  0  0  0  0  0
  183.6590  178.7220  141.9820 C   0  0  0  0  0  3  0  0  0  0  0  0
  188.8380  177.6480  141.1710 C   0  0  0  0  0  3  0  0  0  0  0  0
  187.1080  177.6500  143.0530 C   0  0  1  0  0  3  0  0  0  0  0  0
  188.5070  177.4440  142.5190 C   0  0  0  0  0  0  0  0  0  0  0  0
  189.0770  176.7310  144.8390 C   0  0  1  0  0  3  0  0  0  0  0  0
  182.2980  178.9030  143.9760 C   0  0  0  0  0  3  0  0  0  0  0  0
  184.7990  178.5420  142.7700 C   0  0  0  0  0  0  0  0  0  0  0  0
  189.3920  178.4840  148.5760 N   0  0  0  0  0  1  0  0  0  0  0  0
  183.4340  178.7340  144.7720 C   0  0  0  0  0  3  0  0  0  0  0  0
  190.7890  176.7210  142.9570 C   0  0  0  0  0  3  0  0  0  0  0  0
  189.4880  176.9710  143.4120 C   0  0  0  0  0  0  0  0  0  0  0  0
  190.1350  176.2870  145.6820 O   0  0  0  0  0  0  0  0  0  0  0  0
  185.8200  178.3860  144.9800 O   0  0  0  0  0  0  0  0  0  0  0  0
  186.9820  176.6480  146.9670 O   0  0  0  0  0  1  0  0  0  0  0  0
  188.2390  177.9160  145.3650 C   0  0  1  0  0  3  0  0  0  0  0  0
  190.3910  177.1960  146.7370 C   0  0  2  0  0  3  0  0  0  0  0  0
  180.3680  179.9890  142.0270 O   0  0  0  0  0  0  0  0  0  0  0  0
  180.9870  178.2450  140.6040 N   0  0  0  0  0  2  0  0  0  0  0  0
  181.2030  179.0860  141.7400 C   0  0  0  0  0  0  0  0  0  0  0  0
  179.8600  178.3790  139.7800 C   0  0  0  0  0  0  0  0  0  0  0  0
  178.9310  178.4910  139.0990 N   0  0  0  0  0  0  0  0  0  0  0  0
  191.5610  176.7190  147.5330 C   0  0  0  0  0  0  0  0  0  0  0  0
  192.0680  177.4660  148.4080 O   0  0  0  0  0  0  0  0  0  0  0  0
  192.1000  175.4180  147.3140 N   0  0  0  0  0  1  0  0  0  0  0  0
  1 14  1  0  0  0  0
  2 21  1  1  0  0  0
  2 23  1  0  0  0  0
  3 10  2  0  0  0  0
  3  4  1  0  0  0  0
  4 18  2  0  0  0  0
  5 22  1  6  0  0  0
  5  6  1  0  0  0  0
  6 16  1  1  0  0  0
  7 17  1  0  0  0  0
  7 21  1  0  0  0  0
  8 15  1  0  0  0  0
  9  1  2  0  0  0  0
  9 15  1  0  0  0  0
 10 12  1  0  0  0  0
 11  8  1  6  0  0  0
 11  2  1  0  0  0  0
 12 11  1  0  0  0  0
 12 19  2  0  0  0  0
 13 19  1  6  0  0  0
 13 23  1  0  0  0  0
 13 20  1  0  0  0  0
 14 17  2  0  0  0  0
 15  7  2  0  0  0  0
 18 19  1  0  0  0  0
 20 24  1  0  0  0  0
 23  5  1  0  0  0  0
 24 30  1  0  0  0  0
 24  6  1  0  0  0  0
 26 27  1  0  0  0  0
 27 25  2  0  0  0  0
 27  1  1  0  0  0  0
 28 26  1  0  0  0  0
 29 28  3  0  0  0  0
 30 31  2  0  0  0  0
 32 30  1  0  0  0  0
M  END
>  <MODEL>
3

>  <REMARK>
 VINA RESULT:      -9.3      4.214      9.421
  Name = 
  3 active torsions:
  status: ('A' for Active; 'I' for Inactive)
    1  A    between atoms: C_1  and  N_20
    2  A    between atoms: C_2  and  C_24
    3  A    between atoms: C_11  and  C_32
                            x       y       z     vdW  Elec       q    Type
                         _______ _______ _______ _____ _____    ______ ____

>  <TORSDO>
F 3

$$$$
=
 OpenBabel11052416473D

 32 36  0  0  1  0  0  0  0  0999 V2000
  188.6900  177.4550  146.4810 C   0  0  0  0  0  0  0  0  0  0  0  0
  185.3890  177.7520  142.6190 C   0  0  1  0  0  3  0  0  0  0  0  0
  187.8590  177.8510  138.4380 C   0  0  0  0  0  3  0  0  0  0  0  0
  186.7380  178.3400  137.7610 C   0  0  0  0  0  3  0  0  0  0  0  0
  182.9380  178.7200  142.6250 C   0  0  2  0  0  3  0  0  0  0  0  0
  181.7740  179.0170  141.6670 C   0  0  2  0  0  3  0  0  0  0  0  0
  186.4360  177.7990  144.8400 C   0  0  0  0  0  0  0  0  0  0  0  0
  187.8700  177.5240  142.7660 C   0  0  0  0  0  2  0  0  0  0  0  0
  188.8220  177.4100  145.0860 C   0  0  0  0  0  3  0  0  0  0  0  0
  187.8730  177.8100  139.8350 C   0  0  0  0  0  3  0  0  0  0  0  0
  186.7300  178.2740  142.0740 C   0  0  1  0  0  3  0  0  0  0  0  0
  186.7580  178.2520  140.5630 C   0  0  0  0  0  0  0  0  0  0  0  0
  184.4790  179.2500  140.7010 C   0  0  1  0  0  3  0  0  0  0  0  0
  187.4260  177.6780  147.0450 C   0  0  0  0  0  3  0  0  0  0  0  0
  187.7080  177.5920  144.2620 C   0  0  0  0  0  0  0  0  0  0  0  0
  180.7010  178.0700  141.9180 N   0  0  0  0  0  1  0  0  0  0  0  0
  186.3040  177.8500  146.2290 C   0  0  0  0  0  3  0  0  0  0  0  0
  185.6280  178.7960  138.4770 C   0  0  0  0  0  3  0  0  0  0  0  0
  185.6350  178.7540  139.8770 C   0  0  0  0  0  0  0  0  0  0  0  0
  183.3710  179.7080  139.9310 O   0  0  0  0  0  0  0  0  0  0  0  0
  185.3110  177.9790  144.0260 O   0  0  0  0  0  0  0  0  0  0  0  0
  183.2440  179.8740  143.3490 O   0  0  0  0  0  1  0  0  0  0  0  0
  184.1550  178.2530  141.8330 C   0  0  1  0  0  3  0  0  0  0  0  0
  182.2010  178.9510  140.1820 C   0  0  2  0  0  3  0  0  0  0  0  0
  189.9520  177.8870  148.4420 O   0  0  0  0  0  0  0  0  0  0  0  0
  190.9190  176.3830  146.9410 N   0  0  0  0  0  2  0  0  0  0  0  0
  189.8700  177.2670  147.3450 C   0  0  0  0  0  0  0  0  0  0  0  0
  192.0620  176.1750  147.7260 C   0  0  0  0  0  0  0  0  0  0  0  0
  193.0070  176.0030  148.3730 N   0  0  0  0  0  0  0  0  0  0  0  0
  181.1020  179.4220  139.2870 C   0  0  0  0  0  0  0  0  0  0  0  0
  180.6920  178.6810  138.3580 O   0  0  0  0  0  0  0  0  0  0  0  0
  180.5090  180.7020  139.4870 N   0  0  0  0  0  1  0  0  0  0  0  0
  1 14  1  0  0  0  0
  1 27  1  0  0  0  0
  2 21  1  1  0  0  0
  3 10  1  0  0  0  0
  4  3  2  0  0  0  0
  4 18  1  0  0  0  0
  5 22  1  6  0  0  0
  6 16  1  6  0  0  0
  6  5  1  0  0  0  0
  7 17  1  0  0  0  0
  8 15  1  0  0  0  0
  9  1  2  0  0  0  0
 10 12  2  0  0  0  0
 11  2  1  0  0  0  0
 11  8  1  1  0  0  0
 12 11  1  0  0  0  0
 13 19  1  6  0  0  0
 13 23  1  0  0  0  0
 15  7  2  0  0  0  0
 15  9  1  0  0  0  0
 17 14  2  0  0  0  0
 18 19  2  0  0  0  0
 19 12  1  0  0  0  0
 20 24  1  0  0  0  0
 20 13  1  0  0  0  0
 21  7  1  0  0  0  0
 23  2  1  0  0  0  0
 23  5  1  0  0  0  0
 24  6  1  0  0  0  0
 26 27  1  0  0  0  0
 26 28  1  0  0  0  0
 27 25  2  0  0  0  0
 28 29  3  0  0  0  0
 30 32  1  0  0  0  0
 30 24  1  0  0  0  0
 31 30  2  0  0  0  0
M  END
>  <MODEL>
4

>  <REMARK>
 VINA RESULT:      -9.1      3.676      5.686
  Name = 
  3 active torsions:
  status: ('A' for Active; 'I' for Inactive)
    1  A    between atoms: C_1  and  N_20
    2  A    between atoms: C_2  and  C_24
    3  A    between atoms: C_11  and  C_32
                            x       y       z     vdW  Elec       q    Type
                         _______ _______ _______ _____ _____    ______ ____

>  <TORSDO>
F 3

$$$$
=
 OpenBabel11052416473D

 32 36  0  0  1  0  0  0  0  0999 V2000
  191.1900  176.7550  137.9290 C   0  0  0  0  0  0  0  0  0  0  0  0
  188.7880  178.0980  142.2100 C   0  0  1  0  0  3  0  0  0  0  0  0
  191.4850  176.7520  146.0190 C   0  0  0  0  0  3  0  0  0  0  0  0
  190.3840  176.8770  146.8720 C   0  0  0  0  0  3  0  0  0  0  0  0
  186.2090  178.4720  142.5970 C   0  0  2  0  0  3  0  0  0  0  0  0
  185.2080  178.7820  143.7200 C   0  0  2  0  0  3  0  0  0  0  0  0
  189.3320  177.5580  139.8770 C   0  0  0  0  0  0  0  0  0  0  0  0
  191.0080  177.0690  141.7160 C   0  0  0  0  0  2  0  0  0  0  0  0
  191.5340  176.7170  139.2870 C   0  0  0  0  0  3  0  0  0  0  0  0
  191.3080  176.7920  144.6330 C   0  0  0  0  0  3  0  0  0  0  0  0
  189.7650  176.9750  142.6030 C   0  0  1  0  0  3  0  0  0  0  0  0
  190.0260  176.9680  144.0930 C   0  0  0  0  0  0  0  0  0  0  0  0
  187.5580  177.2310  144.3280 C   0  0  1  0  0  3  0  0  0  0  0  0
  189.9110  177.1920  137.5550 C   0  0  0  0  0  3  0  0  0  0  0  0
  190.6120  177.1030  140.2640 C   0  0  0  0  0  0  0  0  0  0  0  0
  184.7140  180.1390  143.5540 N   0  0  0  0  0  1  0  0  0  0  0  0
  188.9860  177.5910  138.5240 C   0  0  0  0  0  3  0  0  0  0  0  0
  189.1010  177.0370  146.3420 C   0  0  0  0  0  3  0  0  0  0  0  0
  188.9180  177.0820  144.9540 C   0  0  0  0  0  0  0  0  0  0  0  0
  186.4980  177.3750  145.2680 O   0  0  0  0  0  0  0  0  0  0  0  0
  188.3990  177.9520  140.8440 O   0  0  0  0  0  0  0  0  0  0  0  0
  185.7970  177.3240  141.9180 O   0  0  0  0  0  1  0  0  0  0  0  0
  187.6010  178.2680  143.1860 C   0  0  1  0  0  3  0  0  0  0  0  0
  185.8290  178.6150  145.1270 C   0  0  2  0  0  3  0  0  0  0  0  0
  191.7630  175.9500  135.7730 O   0  0  0  0  0  0  0  0  0  0  0  0
  193.5660  176.3850  137.1900 N   0  0  0  0  0  2  0  0  0  0  0  0
  192.1660  176.3420  136.9040 C   0  0  0  0  0  0  0  0  0  0  0  0
  194.5320  175.9980  136.2500 C   0  0  0  0  0  0  0  0  0  0  0  0
  195.3290  175.6780  135.4740 N   0  0  0  0  0  0  0  0  0  0  0  0
  184.7880  178.7420  146.1910 C   0  0  0  0  0  0  0  0  0  0  0  0
  185.1120  178.6280  147.4000 O   0  0  0  0  0  0  0  0  0  0  0  0
  183.4300  179.0030  145.8440 N   0  0  0  0  0  1  0  0  0  0  0  0
  1  9  1  0  0  0  0
  2 21  1  6  0  0  0
  2 11  1  0  0  0  0
  2 23  1  0  0  0  0
  3  4  1  0  0  0  0
  5 22  1  1  0  0  0
  5 23  1  0  0  0  0
  5  6  1  0  0  0  0
  6 16  1  6  0  0  0
  6 24  1  0  0  0  0
  7 15  1  0  0  0  0
  7 21  1  0  0  0  0
  9 15  2  0  0  0  0
 10  3  2  0  0  0  0
 11  8  1  6  0  0  0
 11 12  1  0  0  0  0
 12 10  1  0  0  0  0
 12 19  2  0  0  0  0
 13 19  1  1  0  0  0
 13 20  1  0  0  0  0
 14  1  2  0  0  0  0
 14 17  1  0  0  0  0
 15  8  1  0  0  0  0
 17  7  2  0  0  0  0
 18  4  2  0  0  0  0
 19 18  1  0  0  0  0
 23 13  1  0  0  0  0
 24 20  1  0  0  0  0
 24 30  1  0  0  0  0
 25 27  2  0  0  0  0
 27 26  1  0  0  0  0
 27  1  1  0  0  0  0
 28 26  1  0  0  0  0
 29 28  3  0  0  0  0
 30 31  2  0  0  0  0
 32 30  1  0  0  0  0
M  END
>  <MODEL>
5

>  <REMARK>
 VINA RESULT:      -8.9      3.208      4.608
  Name = 
  3 active torsions:
  status: ('A' for Active; 'I' for Inactive)
    1  A    between atoms: C_1  and  N_20
    2  A    between atoms: C_2  and  C_24
    3  A    between atoms: C_11  and  C_32
                            x       y       z     vdW  Elec       q    Type
                         _______ _______ _______ _____ _____    ______ ____

>  <TORSDO>
F 3

$$$$
=
 OpenBabel11052416473D

 32 36  0  0  1  0  0  0  0  0999 V2000
  182.7240  179.5800  139.5000 C   0  0  0  0  0  0  0  0  0  0  0  0
  186.2780  177.6640  142.5970 C   0  0  1  0  0  3  0  0  0  0  0  0
  184.8730  178.3180  147.2010 C   0  0  0  0  0  3  0  0  0  0  0  0
  186.1780  178.0970  147.6550 C   0  0  0  0  0  3  0  0  0  0  0  0
  188.8470  177.3150  142.1310 C   0  0  2  0  0  3  0  0  0  0  0  0
  190.1340  176.8650  142.8390 C   0  0  2  0  0  3  0  0  0  0  0  0
  185.0670  178.5430  140.6500 C   0  0  0  0  0  0  0  0  0  0  0  0
  184.0300  178.6880  142.9600 C   0  0  0  0  0  2  0  0  0  0  0  0
  182.8050  179.3970  140.8870 C   0  0  0  0  0  3  0  0  0  0  0  0
  184.6250  178.4990  145.8380 C   0  0  0  0  0  3  0  0  0  0  0  0
  185.4840  178.6810  143.4370 C   0  0  1  0  0  3  0  0  0  0  0  0
  185.6830  178.4490  144.9180 C   0  0  0  0  0  0  0  0  0  0  0  0
  188.1020  178.2300  144.3590 C   0  0  1  0  0  3  0  0  0  0  0  0
  183.8240  179.2460  138.6960 C   0  0  0  0  0  3  0  0  0  0  0  0
  183.9710  178.8920  141.4690 C   0  0  0  0  0  0  0  0  0  0  0  0
  190.5310  175.5670  142.3220 N   0  0  0  0  0  1  0  0  0  0  0  0
  184.9900  178.7300  139.2680 C   0  0  0  0  0  3  0  0  0  0  0  0
  187.2390  178.0610  146.7470 C   0  0  0  0  0  3  0  0  0  0  0  0
  186.9960  178.2370  145.3790 C   0  0  0  0  0  0  0  0  0  0  0  0
  189.3930  177.9740  144.9040 O   0  0  0  0  0  0  0  0  0  0  0  0
  186.2400  178.0320  141.2190 O   0  0  0  0  0  0  0  0  0  0  0  0
  189.0560  178.5660  141.5490 O   0  0  0  0  0  1  0  0  0  0  0  0
  187.7000  177.3820  143.1340 C   0  0  1  0  0  3  0  0  0  0  0  0
  189.9670  176.7930  144.3760 C   0  0  2  0  0  3  0  0  0  0  0  0
  180.4410  179.4180  138.8770 O   0  0  0  0  0  0  0  0  0  0  0  0
  181.4890  181.4290  138.3220 N   0  0  0  0  0  2  0  0  0  0  0  0
  181.4930  180.1170  138.8920 C   0  0  0  0  0  0  0  0  0  0  0  0
  180.3450  181.9820  137.7290 C   0  0  0  0  0  0  0  0  0  0  0  0
  179.4010  182.4380  137.2380 N   0  0  0  0  0  0  0  0  0  0  0  0
  191.2770  176.5340  145.0450 C   0  0  0  0  0  0  0  0  0  0  0  0
  192.0280  175.6200  144.6170 O   0  0  0  0  0  0  0  0  0  0  0  0
  191.6870  177.3240  146.1580 N   0  0  0  0  0  1  0  0  0  0  0  0
  1  9  1  0  0  0  0
  2 21  1  6  0  0  0
  2 23  1  0  0  0  0
  2 11  1  0  0  0  0
  3  4  1  0  0  0  0
  5 22  1  1  0  0  0
  5  6  1  0  0  0  0
  5 23  1  0  0  0  0
  6 16  1  6  0  0  0
  6 24  1  0  0  0  0
  7 21  1  0  0  0  0
  7 15  1  0  0  0  0
  9 15  2  0  0  0  0
 10  3  2  0  0  0  0
 11  8  1  1  0  0  0
 11 12  1  0  0  0  0
 12 19  2  0  0  0  0
 12 10  1  0  0  0  0
 13 20  1  1  0  0  0
 13 19  1  0  0  0  0
 14 17  1  0  0  0  0
 14  1  2  0  0  0  0
 15  8  1  0  0  0  0
 17  7  2  0  0  0  0
 18  4  2  0  0  0  0
 19 18  1  0  0  0  0
 23 13  1  0  0  0  0
 24 20  1  0  0  0  0
 24 30  1  0  0  0  0
 25 27  2  0  0  0  0
 26 27  1  0  0  0  0
 27  1  1  0  0  0  0
 28 26  1  0  0  0  0
 29 28  3  0  0  0  0
 30 32  1  0  0  0  0
 31 30  2  0  0  0  0
M  END
>  <MODEL>
6

>  <REMARK>
 VINA RESULT:      -7.9      2.864      8.273
  Name = 
  3 active torsions:
  status: ('A' for Active; 'I' for Inactive)
    1  A    between atoms: C_1  and  N_20
    2  A    between atoms: C_2  and  C_24
    3  A    between atoms: C_11  and  C_32
                            x       y       z     vdW  Elec       q    Type
                         _______ _______ _______ _____ _____    ______ ____

>  <TORSDO>
F 3

$$$$
=
 OpenBabel11052416473D

 32 36  0  0  1  0  0  0  0  0999 V2000
  185.1310  179.0030  139.8460 C   0  0  0  0  0  0  0  0  0  0  0  0
  187.9310  177.1590  143.6740 C   0  0  1  0  0  3  0  0  0  0  0  0
  185.7030  178.1480  147.8760 C   0  0  0  0  0  3  0  0  0  0  0  0
  186.8850  177.9100  148.5850 C   0  0  0  0  0  3  0  0  0  0  0  0
  190.5230  176.6900  143.7350 C   0  0  2  0  0  3  0  0  0  0  0  0
  191.6280  176.2400  144.7030 C   0  0  2  0  0  3  0  0  0  0  0  0
  187.1590  177.9570  141.4840 C   0  0  0  0  0  0  0  0  0  0  0  0
  185.7070  178.2820  143.5370 C   0  0  0  0  0  2  0  0  0  0  0  0
  184.9360  178.9040  141.2310 C   0  0  0  0  0  3  0  0  0  0  0  0
  185.7290  178.2530  146.4820 C   0  0  0  0  0  3  0  0  0  0  0  0
  187.0400  178.2540  144.2870 C   0  0  1  0  0  3  0  0  0  0  0  0
  186.9400  178.1080  145.7890 C   0  0  0  0  0  0  0  0  0  0  0  0
  189.4080  177.7680  145.7230 C   0  0  1  0  0  3  0  0  0  0  0  0
  186.3470  178.5800  139.2910 C   0  0  0  0  0  3  0  0  0  0  0  0
  185.9440  178.3950  142.0550 C   0  0  0  0  0  0  0  0  0  0  0  0
  192.0550  174.8980  144.3440 N   0  0  0  0  0  1  0  0  0  0  0  0
  187.3570  178.0600  140.1060 C   0  0  0  0  0  3  0  0  0  0  0  0
  188.0980  177.7790  147.9040 C   0  0  0  0  0  3  0  0  0  0  0  0
  188.1290  177.8780  146.5070 C   0  0  0  0  0  0  0  0  0  0  0  0
  190.5580  177.5010  146.5210 O   0  0  0  0  0  0  0  0  0  0  0  0
  188.1760  177.4410  142.2970 O   0  0  0  0  0  0  0  0  0  0  0  0
  190.8980  177.8940  143.1370 O   0  0  0  0  0  1  0  0  0  0  0  0
  189.2100  176.8600  144.4920 C   0  0  1  0  0  3  0  0  0  0  0  0
  191.1670  176.2690  146.1800 C   0  0  2  0  0  3  0  0  0  0  0  0
  184.0360  180.7790  138.7190 O   0  0  0  0  0  0  0  0  0  0  0  0
  183.0680  178.6730  138.4450 N   0  0  0  0  0  2  0  0  0  0  0  0
  184.0650  179.5450  138.9830 C   0  0  0  0  0  0  0  0  0  0  0  0
  182.0330  179.1410  137.6230 C   0  0  0  0  0  0  0  0  0  0  0  0
  181.1790  179.5290  136.9440 N   0  0  0  0  0  0  0  0  0  0  0  0
  192.3110  176.0070  147.1030 C   0  0  0  0  0  0  0  0  0  0  0  0
  193.1610  175.1270  146.8100 O   0  0  0  0  0  0  0  0  0  0  0  0
  192.4510  176.7530  148.3090 N   0  0  0  0  0  1  0  0  0  0  0  0
  1  9  1  0  0  0  0
  2 21  1  6  0  0  0
  2 11  1  0  0  0  0
  2 23  1  0  0  0  0
  3  4  1  0  0  0  0
  5 22  1  1  0  0  0
  5 23  1  0  0  0  0
  5  6  1  0  0  0  0
  6 16  1  6  0  0  0
  6 24  1  0  0  0  0
  7 15  1  0  0  0  0
  7 21  1  0  0  0  0
  9 15  2  0  0  0  0
 10  3  2  0  0  0  0
 11  8  1  6  0  0  0
 11 12  1  0  0  0  0
 12 10  1  0  0  0  0
 12 19  2  0  0  0  0
 13 19  1  1  0  0  0
 13 20  1  0  0  0  0
 14  1  2  0  0  0  0
 14 17  1  0  0  0  0
 15  8  1  0  0  0  0
 17  7  2  0  0  0  0
 18  4  2  0  0  0  0
 19 18  1  0  0  0  0
 23 13  1  0  0  0  0
 24 20  1  0  0  0  0
 24 30  1  0  0  0  0
 25 27  2  0  0  0  0
 26 27  1  0  0  0  0
 27  1  1  0  0  0  0
 28 26  1  0  0  0  0
 29 28  3  0  0  0  0
 30 32  1  0  0  0  0
 31 30  2  0  0  0  0
M  END
>  <MODEL>
7

>  <REMARK>
 VINA RESULT:      -7.8      3.888      8.402
  Name = 
  3 active torsions:
  status: ('A' for Active; 'I' for Inactive)
    1  A    between atoms: C_1  and  N_20
    2  A    between atoms: C_2  and  C_24
    3  A    between atoms: C_11  and  C_32
                            x       y       z     vdW  Elec       q    Type
                         _______ _______ _______ _____ _____    ______ ____

>  <TORSDO>
F 3

$$$$
=
 OpenBabel11052416473D

 32 36  0  0  1  0  0  0  0  0999 V2000
  183.0340  178.9390  142.1020 C   0  0  0  0  0  0  0  0  0  0  0  0
  187.8380  177.4020  141.4250 C   0  0  1  0  0  3  0  0  0  0  0  0
  190.0030  177.0420  145.7590 C   0  0  0  0  0  3  0  0  0  0  0  0
  191.2640  177.0450  145.1550 C   0  0  0  0  0  3  0  0  0  0  0  0
  189.3720  177.6920  139.3030 C   0  0  2  0  0  3  0  0  0  0  0  0
  190.8100  177.4330  138.8310 C   0  0  2  0  0  3  0  0  0  0  0  0
  185.5690  178.2760  141.0880 C   0  0  0  0  0  0  0  0  0  0  0  0
  186.4260  177.8470  143.4350 C   0  0  0  0  0  2  0  0  0  0  0  0
  184.0680  178.5730  142.9750 C   0  0  0  0  0  3  0  0  0  0  0  0
  188.8660  177.3660  145.0130 C   0  0  0  0  0  3  0  0  0  0  0  0
  187.8000  178.0860  142.8040 C   0  0  1  0  0  3  0  0  0  0  0  0
  188.9850  177.6840  143.6520 C   0  0  0  0  0  0  0  0  0  0  0  0
  190.3400  178.0810  141.5980 C   0  0  1  0  0  3  0  0  0  0  0  0
  183.2800  178.9750  140.7220 C   0  0  0  0  0  3  0  0  0  0  0  0
  185.3350  178.2530  142.4800 C   0  0  0  0  0  0  0  0  0  0  0  0
  190.8040  176.3440  137.8690 N   0  0  0  0  0  1  0  0  0  0  0  0
  184.5410  178.6460  140.2170 C   0  0  0  0  0  3  0  0  0  0  0  0
  191.3940  177.3760  143.8040 C   0  0  0  0  0  3  0  0  0  0  0  0
  190.2580  177.6960  143.0500 C   0  0  0  0  0  0  0  0  0  0  0  0
  191.6570  178.0340  141.0580 O   0  0  0  0  0  0  0  0  0  0  0  0
  186.8320  177.9540  140.5770 O   0  0  0  0  0  0  0  0  0  0  0  0
  189.0480  179.0320  139.0780 O   0  0  0  0  0  1  0  0  0  0  0  0
  189.2450  177.3580  140.7860 C   0  0  1  0  0  3  0  0  0  0  0  0
  191.7650  177.0980  140.0010 C   0  0  2  0  0  3  0  0  0  0  0  0
  180.9780  180.1180  142.0230 O   0  0  0  0  0  0  0  0  0  0  0  0
  181.2270  178.6620  143.8300 N   0  0  0  0  0  2  0  0  0  0  0  0
  181.7010  179.2800  142.6310 C   0  0  0  0  0  0  0  0  0  0  0  0
  179.9690  178.9570  144.3750 C   0  0  0  0  0  0  0  0  0  0  0  0
  178.9310  179.2020  144.8240 N   0  0  0  0  0  0  0  0  0  0  0  0
  193.1820  177.0340  139.5350 C   0  0  0  0  0  0  0  0  0  0  0  0
  194.0880  177.5830  140.2120 O   0  0  0  0  0  0  0  0  0  0  0  0
  193.5150  176.3450  138.3330 N   0  0  0  0  0  1  0  0  0  0  0  0
  1 27  1  0  0  0  0
  1  9  1  0  0  0  0
  2 21  1  6  0  0  0
  2 11  1  0  0  0  0
  4  3  1  0  0  0  0
  5 22  1  1  0  0  0
  5 23  1  0  0  0  0
  6 16  1  6  0  0  0
  6  5  1  0  0  0  0
  6 24  1  0  0  0  0
  7 15  1  0  0  0  0
 10  3  2  0  0  0  0
 11  8  1  1  0  0  0
 11 12  1  0  0  0  0
 12 10  1  0  0  0  0
 13 20  1  6  0  0  0
 13 19  1  0  0  0  0
 14  1  2  0  0  0  0
 15  9  2  0  0  0  0
 15  8  1  0  0  0  0
 17 14  1  0  0  0  0
 17  7  2  0  0  0  0
 18  4  2  0  0  0  0
 19 12  2  0  0  0  0
 19 18  1  0  0  0  0
 21  7  1  0  0  0  0
 23  2  1  0  0  0  0
 23 13  1  0  0  0  0
 24 20  1  0  0  0  0
 25 27  2  0  0  0  0
 26 28  1  0  0  0  0
 27 26  1  0  0  0  0
 28 29  3  0  0  0  0
 30 24  1  0  0  0  0
 30 31  2  0  0  0  0
 32 30  1  0  0  0  0
M  END
>  <MODEL>
8

>  <REMARK>
 VINA RESULT:      -7.6      2.171      8.894
  Name = 
  3 active torsions:
  status: ('A' for Active; 'I' for Inactive)
    1  A    between atoms: C_1  and  N_20
    2  A    between atoms: C_2  and  C_24
    3  A    between atoms: C_11  and  C_32
                            x       y       z     vdW  Elec       q    Type
                         _______ _______ _______ _____ _____    ______ ____

>  <TORSDO>
F 3

$$$$
=
 OpenBabel11052416473D

 32 36  0  0  1  0  0  0  0  0999 V2000
  191.8620  176.7610  138.2710 C   0  0  0  0  0  0  0  0  0  0  0  0
  187.6450  178.4190  140.5880 C   0  0  1  0  0  3  0  0  0  0  0  0
  188.1280  177.7880  145.3800 C   0  0  0  0  0  3  0  0  0  0  0  0
  186.7480  177.9240  145.5600 C   0  0  0  0  0  3  0  0  0  0  0  0
  185.2060  178.6190  139.6110 C   0  0  2  0  0  3  0  0  0  0  0  0
  183.7780  178.9810  140.0450 C   0  0  2  0  0  3  0  0  0  0  0  0
  189.2750  177.6410  138.9250 C   0  0  0  0  0  0  0  0  0  0  0  0
  189.8310  177.5270  141.3960 C   0  0  0  0  0  2  0  0  0  0  0  0
  191.4910  176.9210  139.6130 C   0  0  0  0  0  3  0  0  0  0  0  0
  188.6570  177.6400  144.0940 C   0  0  0  0  0  3  0  0  0  0  0  0
  188.3140  177.4390  141.5690 C   0  0  1  0  0  3  0  0  0  0  0  0
  187.8060  177.6390  142.9790 C   0  0  0  0  0  0  0  0  0  0  0  0
  185.5410  177.7210  141.9430 C   0  0  1  0  0  3  0  0  0  0  0  0
  190.9290  177.0400  137.2620 C   0  0  0  0  0  3  0  0  0  0  0  0
  190.2030  177.3470  139.9480 C   0  0  0  0  0  0  0  0  0  0  0  0
  183.4140  180.2600  139.4590 N   0  0  0  0  0  1  0  0  0  0  0  0
  189.6410  177.4770  137.5870 C   0  0  0  0  0  3  0  0  0  0  0  0
  185.8910  177.9080  144.4560 C   0  0  0  0  0  3  0  0  0  0  0  0
  186.4160  177.7660  143.1660 C   0  0  0  0  0  0  0  0  0  0  0  0
  184.1530  177.8910  142.2150 O   0  0  0  0  0  0  0  0  0  0  0  0
  187.9820  178.0720  139.2450 O   0  0  0  0  0  0  0  0  0  0  0  0
  185.1970  177.3650  138.9970 O   0  0  0  0  0  1  0  0  0  0  0  0
  186.1290  178.6080  140.8260 C   0  0  1  0  0  3  0  0  0  0  0  0
  183.6250  179.0420  141.5830 C   0  0  2  0  0  3  0  0  0  0  0  0
  193.8550  176.8730  136.9900 O   0  0  0  0  0  0  0  0  0  0  0  0
  193.8210  175.2280  138.6470 N   0  0  0  0  0  2  0  0  0  0  0  0
  193.2210  176.3070  137.9250 C   0  0  0  0  0  0  0  0  0  0  0  0
  195.1080  174.7580  138.3520 C   0  0  0  0  0  0  0  0  0  0  0  0
  196.1710  174.3690  138.1090 N   0  0  0  0  0  0  0  0  0  0  0  0
  182.1940  179.2130  141.9730 C   0  0  0  0  0  0  0  0  0  0  0  0
  181.2840  178.8640  141.1790 O   0  0  0  0  0  0  0  0  0  0  0  0
  181.8530  179.7590  143.2440 N   0  0  0  0  0  1  0  0  0  0  0  0
  1  9  1  0  0  0  0
  2 21  1  6  0  0  0
  2 23  1  0  0  0  0
  2 11  1  0  0  0  0
  3  4  1  0  0  0  0
  5 22  1  1  0  0  0
  5  6  1  0  0  0  0
  5 23  1  0  0  0  0
  6 16  1  6  0  0  0
  6 24  1  0  0  0  0
  7 21  1  0  0  0  0
  7 15  1  0  0  0  0
  9 15  2  0  0  0  0
 10  3  2  0  0  0  0
 11  8  1  1  0  0  0
 11 12  1  0  0  0  0
 12 19  2  0  0  0  0
 12 10  1  0  0  0  0
 13 20  1  1  0  0  0
 13 19  1  0  0  0  0
 14 17  1  0  0  0  0
 14  1  2  0  0  0  0
 15  8  1  0  0  0  0
 17  7  2  0  0  0  0
 18  4  2  0  0  0  0
 19 18  1  0  0  0  0
 23 13  1  0  0  0  0
 24 30  1  0  0  0  0
 24 20  1  0  0  0  0
 25 27  2  0  0  0  0
 27  1  1  0  0  0  0
 27 26  1  0  0  0  0
 28 26  1  0  0  0  0
 29 28  3  0  0  0  0
 30 32  1  0  0  0  0
 31 30  2  0  0  0  0
M  END
>  <MODEL>
9

>  <REMARK>
 VINA RESULT:      -7.4      1.543      2.155
  Name = 
  3 active torsions:
  status: ('A' for Active; 'I' for Inactive)
    1  A    between atoms: C_1  and  N_20
    2  A    between atoms: C_2  and  C_24
    3  A    between atoms: C_11  and  C_32
                            x       y       z     vdW  Elec       q    Type
                         _______ _______ _______ _____ _____    ______ ____

>  <TORSDO>
F 3

$$$$
