=
 OpenBabel11052414083D

 34 38  0  0  0  0  0  0  0  0999 V2000
  184.4860  178.7850  144.9200 C   0  0  0  0  0  0  0  0  0  0  0  0
  186.5160  177.4590  144.8060 C   0  0  0  0  0  0  0  0  0  0  0  0
  185.4280  178.3560  142.6970 C   0  0  0  0  0  0  0  0  0  0  0  0
  186.2970  178.2830  140.4330 C   0  0  0  0  0  0  0  0  0  0  0  0
  185.6440  178.1740  146.9520 C   0  0  0  0  0  3  0  0  0  0  0  0
  181.7930  176.7670  138.9530 C   0  0  0  0  0  2  0  0  0  0  0  0
  181.5200  177.7680  137.8360 C   0  0  0  0  0  2  0  0  0  0  0  0
  186.5940  177.4900  146.2010 C   0  0  0  0  0  3  0  0  0  0  0  0
  187.8160  178.0430  142.1320 N   0  0  0  0  0  0  0  0  0  0  0  0
  182.7680  179.1930  140.0970 N   0  0  0  0  0  0  0  0  0  0  0  0
  185.5140  178.2080  144.1230 C   0  0  0  0  0  0  0  0  0  0  0  0
  182.7090  178.7110  137.6820 C   0  0  0  0  0  2  0  0  0  0  0  0
  190.0200  177.8110  141.0900 N   0  0  0  0  0  2  0  0  0  0  0  0
  187.7400  178.1270  139.5920 S   0  0  0  0  0  0  0  0  0  0  0  0
  184.5770  178.7950  146.3130 C   0  0  0  0  0  3  0  0  0  0  0  0
  183.1850  179.2940  142.9570 C   0  0  0  0  0  3  0  0  0  0  0  0
  181.4940  178.7140  140.6240 C   0  0  0  0  0  2  0  0  0  0  0  0
  183.3420  179.3130  144.3360 C   0  0  0  0  0  3  0  0  0  0  0  0
  187.3770  176.5920  144.1480 O   0  0  0  0  0  1  0  0  0  0  0  0
  185.0960  178.5920  139.9010 N   0  0  0  0  0  0  0  0  0  0  0  0
  182.7340  179.7890  138.7650 C   0  0  0  0  0  2  0  0  0  0  0  0
  184.0290  178.8460  140.7080 C   0  0  0  0  0  0  0  0  0  0  0  0
  188.6040  177.9720  141.0330 C   0  0  0  0  0  0  0  0  0  0  0  0
  181.2790  177.2290  140.3220 C   0  0  0  0  0  2  0  0  0  0  0  0
  186.5070  178.1820  141.7980 C   0  0  0  0  0  0  0  0  0  0  0  0
  184.1950  178.8060  142.1230 C   0  0  0  0  0  0  0  0  0  0  0  0
  190.7210  177.6910  142.3560 C   0  0  0  0  0  2  0  0  0  0  0  0
  190.5640  176.2840  142.8890 C   0  0  0  0  0  2  0  0  0  0  0  0
  191.6790  175.9710  143.7660 N   0  0  0  0  0  2  0  0  0  0  0  0
  189.9210  176.8650  145.5190 O   0  0  0  0  0  0  0  0  0  0  0  0
  191.9830  178.1550  145.2350 O   0  0  0  0  0  0  0  0  0  0  0  0
  191.4010  176.7700  145.2770 S   0  0  0  0  0  0  0  0  0  0  0  0
  192.1240  176.6120  147.7730 O   0  0  0  0  0  1  0  0  0  0  0  0
  192.1520  175.8530  146.6050 C   0  0  0  0  0  2  0  0  0  0  0  0
  1 15  2  0  0  0  0
  2  8  1  0  0  0  0
  3 11  1  0  0  0  0
  4 25  1  0  0  0  0
  6 24  1  0  0  0  0
  7  6  1  0  0  0  0
  8  5  2  0  0  0  0
 10 17  1  0  0  0  0
 10 22  1  0  0  0  0
 11  2  2  0  0  0  0
 11  1  1  0  0  0  0
 12  7  1  0  0  0  0
 12 21  1  0  0  0  0
 13 27  1  0  0  0  0
 14  4  1  0  0  0  0
 14 23  1  0  0  0  0
 15  5  1  0  0  0  0
 16 18  2  0  0  0  0
 18  1  1  0  0  0  0
 19  2  1  0  0  0  0
 20  4  2  0  0  0  0
 20 22  1  0  0  0  0
 21 10  1  0  0  0  0
 22 26  2  0  0  0  0
 23 13  1  0  0  0  0
 23  9  2  0  0  0  0
 24 17  1  0  0  0  0
 25  9  1  0  0  0  0
 25  3  2  0  0  0  0
 26  3  1  0  0  0  0
 26 16  1  0  0  0  0
 27 28  1  0  0  0  0
 28 29  1  0  0  0  0
 29 32  1  0  0  0  0
 31 32  2  0  0  0  0
 32 30  2  0  0  0  0
 32 34  1  0  0  0  0
 34 33  1  0  0  0  0
M  END
>  <MODEL>
1

>  <REMARK>
 VINA RESULT:      -9.7      0.000      0.000
  Name = 
  5 active torsions:
  status: ('A' for Active; 'I' for Inactive)
    1  A    between atoms: C_3  and  C_13
    2  A    between atoms: C_3  and  N_17
    3  A    between atoms: C_13  and  N_33
    4  A    between atoms: C_14  and  S_34
    5  A    between atoms: N_33  and  S_34
                            x       y       z     vdW  Elec       q    Type
                         _______ _______ _______ _____ _____    ______ ____

>  <TORSDO>
F 5

$$$$
=
 OpenBabel11052414083D

 34 38  0  0  0  0  0  0  0  0999 V2000
  184.4440  178.7220  145.0770 C   0  0  0  0  0  0  0  0  0  0  0  0
  186.4210  177.6450  144.1680 C   0  0  0  0  0  0  0  0  0  0  0  0
  184.5680  178.4620  142.6420 C   0  0  0  0  0  0  0  0  0  0  0  0
  184.5720  178.5470  140.2170 C   0  0  0  0  0  0  0  0  0  0  0  0
  186.3070  178.2000  146.5260 C   0  0  0  0  0  3  0  0  0  0  0  0
  180.0130  176.5540  140.3240 C   0  0  0  0  0  2  0  0  0  0  0  0
  179.2600  177.5450  139.4410 C   0  0  0  0  0  2  0  0  0  0  0  0
  186.9880  177.6490  145.4450 C   0  0  0  0  0  3  0  0  0  0  0  0
  186.6140  178.4430  141.2520 N   0  0  0  0  0  0  0  0  0  0  0  0
  181.0840  179.0490  141.2050 N   0  0  0  0  0  0  0  0  0  0  0  0
  185.1720  178.2890  143.9330 C   0  0  0  0  0  0  0  0  0  0  0  0
  180.2150  178.6230  138.9400 C   0  0  0  0  0  2  0  0  0  0  0  0
  188.3110  178.4950  139.4880 N   0  0  0  0  0  2  0  0  0  0  0  0
  185.6270  178.5810  138.9130 S   0  0  0  0  0  0  0  0  0  0  0  0
  185.0250  178.7080  146.3460 C   0  0  0  0  0  3  0  0  0  0  0  0
  182.4840  179.1260  143.7350 C   0  0  0  0  0  3  0  0  0  0  0  0
  180.1370  178.4120  142.1150 C   0  0  0  0  0  2  0  0  0  0  0  0
  183.1200  179.1280  144.9680 C   0  0  0  0  0  3  0  0  0  0  0  0
  187.0720  176.9010  143.1940 O   0  0  0  0  0  1  0  0  0  0  0  0
  183.2360  178.7270  140.1630 N   0  0  0  0  0  0  0  0  0  0  0  0
  180.5170  179.6690  140.0130 C   0  0  0  0  0  2  0  0  0  0  0  0
  182.5080  178.8350  141.3090 C   0  0  0  0  0  0  0  0  0  0  0  0
  186.9600  178.4920  139.9440 C   0  0  0  0  0  0  0  0  0  0  0  0
  179.9780  176.9190  141.8130 C   0  0  0  0  0  2  0  0  0  0  0  0
  185.2650  178.4370  141.4100 C   0  0  0  0  0  0  0  0  0  0  0  0
  183.1720  178.7790  142.5690 C   0  0  0  0  0  0  0  0  0  0  0  0
  189.4270  178.4250  140.4140 C   0  0  0  0  0  2  0  0  0  0  0  0
  189.9940  177.0230  140.4170 C   0  0  0  0  0  2  0  0  0  0  0  0
  189.7640  176.4110  141.7150 N   0  0  0  0  0  2  0  0  0  0  0  0
  192.2120  177.3700  141.9340 O   0  0  0  0  0  0  0  0  0  0  0  0
  191.4890  175.7370  143.6090 O   0  0  0  0  0  0  0  0  0  0  0  0
  191.0510  176.9000  142.7640 S   0  0  0  0  0  0  0  0  0  0  0  0
  191.4550  179.2560  143.7990 O   0  0  0  0  0  1  0  0  0  0  0  0
  190.5130  178.2290  143.8200 C   0  0  0  0  0  2  0  0  0  0  0  0
  1 15  2  0  0  0  0
  2  8  1  0  0  0  0
  3 11  1  0  0  0  0
  4 25  1  0  0  0  0
  6 24  1  0  0  0  0
  7  6  1  0  0  0  0
  8  5  2  0  0  0  0
  9 25  1  0  0  0  0
 10 22  1  0  0  0  0
 10 17  1  0  0  0  0
 11  2  2  0  0  0  0
 11  1  1  0  0  0  0
 12  7  1  0  0  0  0
 12 21  1  0  0  0  0
 13 23  1  0  0  0  0
 13 27  1  0  0  0  0
 14 23  1  0  0  0  0
 14  4  1  0  0  0  0
 15  5  1  0  0  0  0
 16 18  2  0  0  0  0
 18  1  1  0  0  0  0
 19  2  1  0  0  0  0
 20  4  2  0  0  0  0
 20 22  1  0  0  0  0
 21 10  1  0  0  0  0
 22 26  2  0  0  0  0
 23  9  2  0  0  0  0
 24 17  1  0  0  0  0
 25  3  2  0  0  0  0
 26  3  1  0  0  0  0
 26 16  1  0  0  0  0
 27 28  1  0  0  0  0
 28 29  1  0  0  0  0
 29 32  1  0  0  0  0
 30 32  2  0  0  0  0
 32 31  2  0  0  0  0
 32 34  1  0  0  0  0
 33 34  1  0  0  0  0
M  END
>  <MODEL>
2

>  <REMARK>
 VINA RESULT:      -9.3      1.859      2.229
  Name = 
  5 active torsions:
  status: ('A' for Active; 'I' for Inactive)
    1  A    between atoms: C_3  and  C_13
    2  A    between atoms: C_3  and  N_17
    3  A    between atoms: C_13  and  N_33
    4  A    between atoms: C_14  and  S_34
    5  A    between atoms: N_33  and  S_34
                            x       y       z     vdW  Elec       q    Type
                         _______ _______ _______ _____ _____    ______ ____

>  <TORSDO>
F 5

$$$$
=
 OpenBabel11052414083D

 34 38  0  0  0  0  0  0  0  0999 V2000
  184.6430  178.6520  145.1480 C   0  0  0  0  0  0  0  0  0  0  0  0
  186.5600  177.5320  144.1650 C   0  0  0  0  0  0  0  0  0  0  0  0
  184.6950  178.4400  142.7060 C   0  0  0  0  0  0  0  0  0  0  0  0
  184.6380  178.5760  140.2840 C   0  0  0  0  0  0  0  0  0  0  0  0
  186.5260  178.0400  146.5350 C   0  0  0  0  0  3  0  0  0  0  0  0
  180.0210  176.7270  140.4730 C   0  0  0  0  0  2  0  0  0  0  0  0
  179.2780  177.7590  139.6310 C   0  0  0  0  0  2  0  0  0  0  0  0
  187.1610  177.4920  145.4260 C   0  0  0  0  0  3  0  0  0  0  0  0
  186.7030  178.3860  141.2620 N   0  0  0  0  0  0  0  0  0  0  0  0
  181.1960  179.1670  141.3760 N   0  0  0  0  0  0  0  0  0  0  0  0
  185.3270  178.2210  143.9760 C   0  0  0  0  0  0  0  0  0  0  0  0
  180.2540  178.8170  139.1270 C   0  0  0  0  0  2  0  0  0  0  0  0
  188.3530  178.4220  139.4540 N   0  0  0  0  0  2  0  0  0  0  0  0
  185.6590  178.6050  138.9530 S   0  0  0  0  0  0  0  0  0  0  0  0
  185.2570  178.5920  146.4010 C   0  0  0  0  0  3  0  0  0  0  0  0
  182.6630  179.1460  143.8680 C   0  0  0  0  0  3  0  0  0  0  0  0
  180.2520  178.5400  142.2980 C   0  0  0  0  0  2  0  0  0  0  0  0
  183.3310  179.1020  145.0830 C   0  0  0  0  0  3  0  0  0  0  0  0
  187.1610  176.7890  143.1590 O   0  0  0  0  0  1  0  0  0  0  0  0
  183.3070  178.8000  140.2700 N   0  0  0  0  0  0  0  0  0  0  0  0
  180.6170  179.8300  140.2120 C   0  0  0  0  0  2  0  0  0  0  0  0
  182.6140  178.9070  141.4370 C   0  0  0  0  0  0  0  0  0  0  0  0
  187.0150  178.4520  139.9450 C   0  0  0  0  0  0  0  0  0  0  0  0
  180.0380  177.0610  141.9700 C   0  0  0  0  0  2  0  0  0  0  0  0
  185.3590  178.4190  141.4550 C   0  0  0  0  0  0  0  0  0  0  0  0
  183.3080  178.8020  142.6770 C   0  0  0  0  0  0  0  0  0  0  0  0
  189.4900  178.2980  140.3480 C   0  0  0  0  0  2  0  0  0  0  0  0
  190.1270  176.9370  140.1690 C   0  0  0  0  0  2  0  0  0  0  0  0
  191.4760  177.0980  139.6540 N   0  0  0  0  0  2  0  0  0  0  0  0
  190.5990  177.0100  137.1670 O   0  0  0  0  0  0  0  0  0  0  0  0
  191.1440  174.8790  138.2450 O   0  0  0  0  0  0  0  0  0  0  0  0
  191.5460  176.3210  138.1090 S   0  0  0  0  0  0  0  0  0  0  0  0
  194.0890  175.8040  138.3280 O   0  0  0  0  0  1  0  0  0  0  0  0
  193.1970  176.4140  137.4480 C   0  0  0  0  0  2  0  0  0  0  0  0
  1 15  2  0  0  0  0
  2  8  1  0  0  0  0
  3 11  1  0  0  0  0
  4 25  1  0  0  0  0
  6 24  1  0  0  0  0
  7  6  1  0  0  0  0
  8  5  2  0  0  0  0
  9 25  1  0  0  0  0
 10 22  1  0  0  0  0
 10 17  1  0  0  0  0
 11  2  2  0  0  0  0
 11  1  1  0  0  0  0
 12  7  1  0  0  0  0
 12 21  1  0  0  0  0
 13 23  1  0  0  0  0
 13 27  1  0  0  0  0
 14 23  1  0  0  0  0
 14  4  1  0  0  0  0
 15  5  1  0  0  0  0
 16 18  2  0  0  0  0
 18  1  1  0  0  0  0
 19  2  1  0  0  0  0
 20  4  2  0  0  0  0
 20 22  1  0  0  0  0
 21 10  1  0  0  0  0
 22 26  2  0  0  0  0
 23  9  2  0  0  0  0
 24 17  1  0  0  0  0
 25  3  2  0  0  0  0
 26  3  1  0  0  0  0
 26 16  1  0  0  0  0
 28 27  1  0  0  0  0
 29 28  1  0  0  0  0
 30 32  2  0  0  0  0
 32 31  2  0  0  0  0
 32 29  1  0  0  0  0
 34 32  1  0  0  0  0
 34 33  1  0  0  0  0
M  END
>  <MODEL>
3

>  <REMARK>
 VINA RESULT:      -9.3      2.870      3.714
  Name = 
  5 active torsions:
  status: ('A' for Active; 'I' for Inactive)
    1  A    between atoms: C_3  and  C_13
    2  A    between atoms: C_3  and  N_17
    3  A    between atoms: C_13  and  N_33
    4  A    between atoms: C_14  and  S_34
    5  A    between atoms: N_33  and  S_34
                            x       y       z     vdW  Elec       q    Type
                         _______ _______ _______ _____ _____    ______ ____

>  <TORSDO>
F 5

$$$$
=
 OpenBabel11052414083D

 34 38  0  0  0  0  0  0  0  0999 V2000
  185.0000  178.8810  142.3740 C   0  0  0  0  0  0  0  0  0  0  0  0
  186.6670  177.7810  143.7540 C   0  0  0  0  0  0  0  0  0  0  0  0
  187.0470  178.1060  141.2670 C   0  0  0  0  0  0  0  0  0  0  0  0
  189.0700  177.6610  140.0050 C   0  0  0  0  0  0  0  0  0  0  0  0
  184.7320  178.8260  144.7750 C   0  0  0  0  0  3  0  0  0  0  0  0
  186.2270  175.4070  136.5980 C   0  0  0  0  0  2  0  0  0  0  0  0
  186.6930  176.1230  135.3350 C   0  0  0  0  0  2  0  0  0  0  0  0
  185.9160  178.1060  144.8870 C   0  0  0  0  0  3  0  0  0  0  0  0
  189.3020  177.9370  142.2690 N   0  0  0  0  0  0  0  0  0  0  0  0
  186.4360  178.1060  137.5040 N   0  0  0  0  0  0  0  0  0  0  0  0
  186.2790  178.2640  142.4710 C   0  0  0  0  0  0  0  0  0  0  0  0
  187.7810  177.1340  135.6830 C   0  0  0  0  0  2  0  0  0  0  0  0
  191.6900  177.7290  142.7710 N   0  0  0  0  0  2  0  0  0  0  0  0
  190.7260  177.4890  140.2100 S   0  0  0  0  0  0  0  0  0  0  0  0
  184.2610  179.1860  143.5180 C   0  0  0  0  0  3  0  0  0  0  0  0
  185.1090  178.8360  139.9670 C   0  0  0  0  0  3  0  0  0  0  0  0
  185.0780  177.6140  137.2940 C   0  0  0  0  0  2  0  0  0  0  0  0
  184.4320  179.1540  141.1360 C   0  0  0  0  0  3  0  0  0  0  0  0
  187.7180  176.8930  143.9300 O   0  0  0  0  0  1  0  0  0  0  0  0
  188.4170  177.7260  138.8260 N   0  0  0  0  0  0  0  0  0  0  0  0
  187.2070  178.4080  136.3020 C   0  0  0  0  0  2  0  0  0  0  0  0
  187.0900  178.0270  138.7880 C   0  0  0  0  0  0  0  0  0  0  0  0
  190.5810  177.7250  141.8740 C   0  0  0  0  0  0  0  0  0  0  0  0
  185.0270  176.0840  137.2730 C   0  0  0  0  0  2  0  0  0  0  0  0
  188.4410  177.8660  141.2210 C   0  0  0  0  0  0  0  0  0  0  0  0
  186.3970  178.2960  140.0040 C   0  0  0  0  0  0  0  0  0  0  0  0
  191.5160  177.9460  144.1960 C   0  0  0  0  0  2  0  0  0  0  0  0
  191.0640  176.6600  144.8510 C   0  0  0  0  0  2  0  0  0  0  0  0
  192.0880  176.2020  145.7750 N   0  0  0  0  0  2  0  0  0  0  0  0
  192.1720  177.2340  148.2030 O   0  0  0  0  0  0  0  0  0  0  0  0
  191.5210  174.8810  148.0010 O   0  0  0  0  0  0  0  0  0  0  0  0
  191.4130  176.2410  147.3690 S   0  0  0  0  0  0  0  0  0  0  0  0
  189.5220  177.9150  148.0040 O   0  0  0  0  0  1  0  0  0  0  0  0
  189.7010  176.7250  147.3010 C   0  0  0  0  0  2  0  0  0  0  0  0
  1 11  1  0  0  0  0
  1 15  2  0  0  0  0
  2 19  1  0  0  0  0
  2  8  1  0  0  0  0
  3 11  1  0  0  0  0
  4 14  1  0  0  0  0
  4 25  2  0  0  0  0
  5  8  2  0  0  0  0
  6 24  1  0  0  0  0
  7 12  1  0  0  0  0
  7  6  1  0  0  0  0
 10 22  1  0  0  0  0
 11  2  2  0  0  0  0
 12 21  1  0  0  0  0
 13 27  1  0  0  0  0
 14 23  1  0  0  0  0
 15  5  1  0  0  0  0
 16 26  1  0  0  0  0
 16 18  2  0  0  0  0
 17 10  1  0  0  0  0
 18  1  1  0  0  0  0
 20  4  1  0  0  0  0
 21 10  1  0  0  0  0
 22 20  2  0  0  0  0
 22 26  1  0  0  0  0
 23  9  2  0  0  0  0
 23 13  1  0  0  0  0
 24 17  1  0  0  0  0
 25  3  1  0  0  0  0
 25  9  1  0  0  0  0
 26  3  2  0  0  0  0
 27 28  1  0  0  0  0
 28 29  1  0  0  0  0
 29 32  1  0  0  0  0
 32 31  2  0  0  0  0
 32 30  2  0  0  0  0
 34 32  1  0  0  0  0
 34 33  1  0  0  0  0
M  END
>  <MODEL>
4

>  <REMARK>
 VINA RESULT:      -9.3      2.392      3.371
  Name = 
  5 active torsions:
  status: ('A' for Active; 'I' for Inactive)
    1  A    between atoms: C_3  and  C_13
    2  A    between atoms: C_3  and  N_17
    3  A    between atoms: C_13  and  N_33
    4  A    between atoms: C_14  and  S_34
    5  A    between atoms: N_33  and  S_34
                            x       y       z     vdW  Elec       q    Type
                         _______ _______ _______ _____ _____    ______ ____

>  <TORSDO>
F 5

$$$$
=
 OpenBabel11052414083D

 34 38  0  0  0  0  0  0  0  0999 V2000
  186.5240  178.2480  144.5200 C   0  0  0  0  0  0  0  0  0  0  0  0
  188.4060  176.9000  143.7890 C   0  0  0  0  0  0  0  0  0  0  0  0
  186.9060  178.0610  142.1050 C   0  0  0  0  0  0  0  0  0  0  0  0
  187.2240  178.2320  139.7050 C   0  0  0  0  0  0  0  0  0  0  0  0
  188.0880  177.3800  146.1440 C   0  0  0  0  0  3  0  0  0  0  0  0
  182.4320  176.9990  139.1690 C   0  0  0  0  0  2  0  0  0  0  0  0
  181.9580  178.1290  138.2620 C   0  0  0  0  0  2  0  0  0  0  0  0
  188.8040  176.7660  145.1220 C   0  0  0  0  0  3  0  0  0  0  0  0
  189.0810  177.7620  140.9640 N   0  0  0  0  0  0  0  0  0  0  0  0
  183.7620  179.2540  140.3070 N   0  0  0  0  0  0  0  0  0  0  0  0
  187.3110  177.7460  143.4460 C   0  0  0  0  0  0  0  0  0  0  0  0
  183.1240  179.0570  137.9360 C   0  0  0  0  0  2  0  0  0  0  0  0
  190.9710  177.6030  139.4150 N   0  0  0  0  0  2  0  0  0  0  0  0
  188.4250  178.1430  138.5370 S   0  0  0  0  0  0  0  0  0  0  0  0
  186.9340  178.0940  145.8450 C   0  0  0  0  0  3  0  0  0  0  0  0
  184.8320  179.0120  142.9830 C   0  0  0  0  0  3  0  0  0  0  0  0
  182.6220  178.7450  141.0640 C   0  0  0  0  0  2  0  0  0  0  0  0
  185.3030  178.8670  144.2800 C   0  0  0  0  0  3  0  0  0  0  0  0
  189.0480  176.0960  142.8580 O   0  0  0  0  0  1  0  0  0  0  0  0
  185.9490  178.6270  139.5070 N   0  0  0  0  0  0  0  0  0  0  0  0
  183.4510  180.0010  139.0930 C   0  0  0  0  0  2  0  0  0  0  0  0
  185.1110  178.8100  140.5640 C   0  0  0  0  0  0  0  0  0  0  0  0
  189.5900  177.8020  139.7100 C   0  0  0  0  0  0  0  0  0  0  0  0
  182.2710  177.3100  140.6620 C   0  0  0  0  0  2  0  0  0  0  0  0
  187.7390  177.9680  140.9630 C   0  0  0  0  0  0  0  0  0  0  0  0
  185.5970  178.6010  141.8880 C   0  0  0  0  0  0  0  0  0  0  0  0
  191.9390  177.3210  140.4600 C   0  0  0  0  0  2  0  0  0  0  0  0
  193.3060  177.1270  139.8430 C   0  0  0  0  0  2  0  0  0  0  0  0
  193.1650  176.9180  138.4120 N   0  0  0  0  0  2  0  0  0  0  0  0
  194.7600  175.6260  136.7530 O   0  0  0  0  0  0  0  0  0  0  0  0
  192.9490  174.3500  137.7970 O   0  0  0  0  0  0  0  0  0  0  0  0
  193.9660  175.4350  138.0150 S   0  0  0  0  0  0  0  0  0  0  0  0
  195.5700  173.6830  139.0820 O   0  0  0  0  0  1  0  0  0  0  0  0
  195.0670  174.9590  139.3310 C   0  0  0  0  0  2  0  0  0  0  0  0
  1 15  2  0  0  0  0
  2  8  1  0  0  0  0
  3 11  1  0  0  0  0
  4 25  1  0  0  0  0
  6 24  1  0  0  0  0
  7  6  1  0  0  0  0
  8  5  2  0  0  0  0
 10 22  1  0  0  0  0
 10 17  1  0  0  0  0
 11  2  2  0  0  0  0
 11  1  1  0  0  0  0
 12  7  1  0  0  0  0
 12 21  1  0  0  0  0
 13 23  1  0  0  0  0
 13 27  1  0  0  0  0
 14  4  1  0  0  0  0
 14 23  1  0  0  0  0
 15  5  1  0  0  0  0
 16 18  2  0  0  0  0
 18  1  1  0  0  0  0
 19  2  1  0  0  0  0
 20  4  2  0  0  0  0
 20 22  1  0  0  0  0
 21 10  1  0  0  0  0
 22 26  2  0  0  0  0
 23  9  2  0  0  0  0
 24 17  1  0  0  0  0
 25  9  1  0  0  0  0
 25  3  2  0  0  0  0
 26  3  1  0  0  0  0
 26 16  1  0  0  0  0
 28 27  1  0  0  0  0
 29 28  1  0  0  0  0
 30 32  2  0  0  0  0
 31 32  2  0  0  0  0
 32 29  1  0  0  0  0
 32 34  1  0  0  0  0
 33 34  1  0  0  0  0
M  END
>  <MODEL>
5

>  <REMARK>
 VINA RESULT:      -8.9      3.386      3.905
  Name = 
  5 active torsions:
  status: ('A' for Active; 'I' for Inactive)
    1  A    between atoms: C_3  and  C_13
    2  A    between atoms: C_3  and  N_17
    3  A    between atoms: C_13  and  N_33
    4  A    between atoms: C_14  and  S_34
    5  A    between atoms: N_33  and  S_34
                            x       y       z     vdW  Elec       q    Type
                         _______ _______ _______ _____ _____    ______ ____

>  <TORSDO>
F 5

$$$$
=
 OpenBabel11052414083D

 34 38  0  0  0  0  0  0  0  0999 V2000
  185.4650  178.6440  140.2200 C   0  0  0  0  0  0  0  0  0  0  0  0
  186.6040  177.9570  142.2510 C   0  0  0  0  0  0  0  0  0  0  0  0
  187.7790  177.8590  140.0050 C   0  0  0  0  0  0  0  0  0  0  0  0
  190.1150  177.3660  139.5740 C   0  0  0  0  0  0  0  0  0  0  0  0
  184.4190  179.0020  142.3680 C   0  0  0  0  0  3  0  0  0  0  0  0
  188.6070  174.3010  135.9540 C   0  0  0  0  0  2  0  0  0  0  0  0
  189.4510  174.8130  134.7920 C   0  0  0  0  0  2  0  0  0  0  0  0
  185.5140  178.4170  142.9960 C   0  0  0  0  0  3  0  0  0  0  0  0
  189.5790  178.0650  141.6900 N   0  0  0  0  0  0  0  0  0  0  0  0
  188.4490  177.1260  136.3240 N   0  0  0  0  0  0  0  0  0  0  0  0
  186.6530  178.1660  140.8420 C   0  0  0  0  0  0  0  0  0  0  0  0
  190.3410  175.9590  135.2620 C   0  0  0  0  0  2  0  0  0  0  0  0
  191.6690  178.1550  142.9620 N   0  0  0  0  0  2  0  0  0  0  0  0
  191.6130  177.3750  140.3280 S   0  0  0  0  0  0  0  0  0  0  0  0
  184.3830  179.0880  140.9820 C   0  0  0  0  0  3  0  0  0  0  0  0
  186.3660  178.1750  138.0350 C   0  0  0  0  0  3  0  0  0  0  0  0
  187.2470  176.4910  135.7920 C   0  0  0  0  0  2  0  0  0  0  0  0
  185.3340  178.6400  138.8370 C   0  0  0  0  0  3  0  0  0  0  0  0
  187.5560  177.2080  142.9280 O   0  0  0  0  0  1  0  0  0  0  0  0
  189.8880  177.1610  138.2590 N   0  0  0  0  0  0  0  0  0  0  0  0
  189.5680  177.2710  135.3980 C   0  0  0  0  0  2  0  0  0  0  0  0
  188.6420  177.3370  137.7390 C   0  0  0  0  0  0  0  0  0  0  0  0
  190.9200  177.8950  141.7760 C   0  0  0  0  0  0  0  0  0  0  0  0
  187.2380  174.9840  136.0600 C   0  0  0  0  0  2  0  0  0  0  0  0
  189.1150  177.7330  140.4570 C   0  0  0  0  0  0  0  0  0  0  0  0
  187.5800  177.7610  138.5890 C   0  0  0  0  0  0  0  0  0  0  0  0
  191.0290  178.6100  144.1830 C   0  0  0  0  0  2  0  0  0  0  0  0
  190.4530  177.4240  144.9240 C   0  0  0  0  0  2  0  0  0  0  0  0
  189.3560  177.8670  145.7670 N   0  0  0  0  0  2  0  0  0  0  0  0
  188.3920  176.3770  147.7210 O   0  0  0  0  0  0  0  0  0  0  0  0
  189.7820  178.2950  148.3470 O   0  0  0  0  0  0  0  0  0  0  0  0
  189.5980  177.1910  147.3430 S   0  0  0  0  0  0  0  0  0  0  0  0
  192.0710  176.7680  148.0400 O   0  0  0  0  0  1  0  0  0  0  0  0
  191.0360  176.1410  147.3480 C   0  0  0  0  0  2  0  0  0  0  0  0
  1 11  1  0  0  0  0
  1 15  2  0  0  0  0
  2 19  1  0  0  0  0
  2  8  1  0  0  0  0
  3 25  1  0  0  0  0
  3 11  1  0  0  0  0
  4 14  1  0  0  0  0
  4 25  2  0  0  0  0
  5  8  2  0  0  0  0
  6 24  1  0  0  0  0
  7 12  1  0  0  0  0
  7  6  1  0  0  0  0
  9 23  2  0  0  0  0
 10 22  1  0  0  0  0
 11  2  2  0  0  0  0
 12 21  1  0  0  0  0
 13 27  1  0  0  0  0
 14 23  1  0  0  0  0
 15  5  1  0  0  0  0
 16 26  1  0  0  0  0
 16 18  2  0  0  0  0
 17 24  1  0  0  0  0
 17 10  1  0  0  0  0
 18  1  1  0  0  0  0
 20  4  1  0  0  0  0
 21 10  1  0  0  0  0
 22 20  2  0  0  0  0
 22 26  1  0  0  0  0
 23 13  1  0  0  0  0
 25  9  1  0  0  0  0
 26  3  2  0  0  0  0
 27 28  1  0  0  0  0
 28 29  1  0  0  0  0
 29 32  1  0  0  0  0
 32 34  1  0  0  0  0
 32 30  2  0  0  0  0
 32 31  2  0  0  0  0
 34 33  1  0  0  0  0
M  END
>  <MODEL>
6

>  <REMARK>
 VINA RESULT:      -8.0      3.259      4.961
  Name = 
  5 active torsions:
  status: ('A' for Active; 'I' for Inactive)
    1  A    between atoms: C_3  and  C_13
    2  A    between atoms: C_3  and  N_17
    3  A    between atoms: C_13  and  N_33
    4  A    between atoms: C_14  and  S_34
    5  A    between atoms: N_33  and  S_34
                            x       y       z     vdW  Elec       q    Type
                         _______ _______ _______ _____ _____    ______ ____

>  <TORSDO>
F 5

$$$$
=
 OpenBabel11052414083D

 34 38  0  0  0  0  0  0  0  0999 V2000
  185.3080  177.1730  136.0900 C   0  0  0  0  0  0  0  0  0  0  0  0
  187.3240  178.0980  137.0770 C   0  0  0  0  0  0  0  0  0  0  0  0
  185.1060  178.2080  138.3040 C   0  0  0  0  0  0  0  0  0  0  0  0
  184.7050  178.9440  140.5800 C   0  0  0  0  0  0  0  0  0  0  0  0
  187.4470  176.8150  135.0230 C   0  0  0  0  0  3  0  0  0  0  0  0
  180.8770  181.6100  138.8480 C   0  0  0  0  0  2  0  0  0  0  0  0
  179.7680  181.1360  139.7810 C   0  0  0  0  0  2  0  0  0  0  0  0
  188.0660  177.5570  136.0240 C   0  0  0  0  0  3  0  0  0  0  0  0
  186.8450  178.3050  140.0610 N   0  0  0  0  0  0  0  0  0  0  0  0
  181.4060  178.8100  139.0020 N   0  0  0  0  0  0  0  0  0  0  0  0
  185.9310  177.8190  137.1940 C   0  0  0  0  0  0  0  0  0  0  0  0
  180.3260  180.1280  140.7800 C   0  0  0  0  0  2  0  0  0  0  0  0
  188.1720  178.5280  142.1070 N   0  0  0  0  0  2  0  0  0  0  0  0
  185.4970  179.1510  142.0450 S   0  0  0  0  0  0  0  0  0  0  0  0
  186.0670  176.6490  135.0420 C   0  0  0  0  0  3  0  0  0  0  0  0
  183.1230  177.6230  137.0000 C   0  0  0  0  0  3  0  0  0  0  0  0
  180.8080  179.2710  137.7530 C   0  0  0  0  0  2  0  0  0  0  0  0
  183.9240  177.0850  136.0030 C   0  0  0  0  0  3  0  0  0  0  0  0
  187.9790  178.9880  137.9150 O   0  0  0  0  0  1  0  0  0  0  0  0
  183.3760  179.0490  140.3740 N   0  0  0  0  0  0  0  0  0  0  0  0
  180.5190  178.7460  140.1590 C   0  0  0  0  0  2  0  0  0  0  0  0
  182.8360  178.7020  139.1730 C   0  0  0  0  0  0  0  0  0  0  0  0
  186.9550  178.6340  141.3700 C   0  0  0  0  0  0  0  0  0  0  0  0
  180.9870  180.7800  137.5630 C   0  0  0  0  0  2  0  0  0  0  0  0
  185.5840  178.5130  139.6010 C   0  0  0  0  0  0  0  0  0  0  0  0
  183.6830  178.2040  138.1410 C   0  0  0  0  0  0  0  0  0  0  0  0
  189.4010  178.0700  141.4840 C   0  0  0  0  0  2  0  0  0  0  0  0
  189.8180  176.7530  142.1010 C   0  0  0  0  0  2  0  0  0  0  0  0
  189.5500  176.7820  143.5290 N   0  0  0  0  0  2  0  0  0  0  0  0
  191.8790  177.9470  143.9540 O   0  0  0  0  0  0  0  0  0  0  0  0
  191.8260  175.4980  143.9690 O   0  0  0  0  0  0  0  0  0  0  0  0
  191.0730  176.7420  144.3510 S   0  0  0  0  0  0  0  0  0  0  0  0
  192.0550  176.7720  146.7630 O   0  0  0  0  0  1  0  0  0  0  0  0
  190.8220  176.7630  146.1140 C   0  0  0  0  0  2  0  0  0  0  0  0
  1 11  1  0  0  0  0
  2 11  1  0  0  0  0
  2 19  1  0  0  0  0
  3 25  1  0  0  0  0
  4 14  1  0  0  0  0
  5 15  2  0  0  0  0
  5  8  1  0  0  0  0
  6  7  1  0  0  0  0
  7 12  1  0  0  0  0
  8  2  2  0  0  0  0
  9 23  2  0  0  0  0
 10 22  1  0  0  0  0
 10 21  1  0  0  0  0
 11  3  2  0  0  0  0
 15  1  1  0  0  0  0
 16 26  2  0  0  0  0
 17 10  1  0  0  0  0
 18  1  2  0  0  0  0
 18 16  1  0  0  0  0
 20  4  1  0  0  0  0
 21 12  1  0  0  0  0
 22 20  2  0  0  0  0
 23 14  1  0  0  0  0
 23 13  1  0  0  0  0
 24 17  1  0  0  0  0
 24  6  1  0  0  0  0
 25  9  1  0  0  0  0
 25  4  2  0  0  0  0
 26  3  1  0  0  0  0
 26 22  1  0  0  0  0
 27 28  1  0  0  0  0
 27 13  1  0  0  0  0
 28 29  1  0  0  0  0
 29 32  1  0  0  0  0
 30 32  2  0  0  0  0
 31 32  2  0  0  0  0
 32 34  1  0  0  0  0
 34 33  1  0  0  0  0
M  END
>  <MODEL>
7

>  <REMARK>
 VINA RESULT:      -7.9      2.702      5.268
  Name = 
  5 active torsions:
  status: ('A' for Active; 'I' for Inactive)
    1  A    between atoms: C_3  and  C_13
    2  A    between atoms: C_3  and  N_17
    3  A    between atoms: C_13  and  N_33
    4  A    between atoms: C_14  and  S_34
    5  A    between atoms: N_33  and  S_34
                            x       y       z     vdW  Elec       q    Type
                         _______ _______ _______ _____ _____    ______ ____

>  <TORSDO>
F 5

$$$$
=
 OpenBabel11052414083D

 34 38  0  0  0  0  0  0  0  0999 V2000
  188.2110  178.0930  137.1470 C   0  0  0  0  0  0  0  0  0  0  0  0
  185.8500  177.5260  137.1530 C   0  0  0  0  0  0  0  0  0  0  0  0
  187.0330  178.1910  139.2960 C   0  0  0  0  0  0  0  0  0  0  0  0
  186.0420  178.6000  141.4720 C   0  0  0  0  0  0  0  0  0  0  0  0
  187.0530  177.7280  135.0570 C   0  0  0  0  0  3  0  0  0  0  0  0
  189.6650  175.8150  143.4420 C   0  0  0  0  0  2  0  0  0  0  0  0
  190.1830  176.7610  144.5200 C   0  0  0  0  0  2  0  0  0  0  0  0
  185.8800  177.4620  135.7570 C   0  0  0  0  0  3  0  0  0  0  0  0
  184.6470  178.7320  139.6580 N   0  0  0  0  0  0  0  0  0  0  0  0
  189.6400  178.3210  142.0750 N   0  0  0  0  0  0  0  0  0  0  0  0
  186.9980  177.9580  137.8790 C   0  0  0  0  0  0  0  0  0  0  0  0
  189.3730  178.0530  144.5090 C   0  0  0  0  0  2  0  0  0  0  0  0
  182.4290  179.3290  140.5060 N   0  0  0  0  0  2  0  0  0  0  0  0
  184.5780  179.0020  142.1860 S   0  0  0  0  0  0  0  0  0  0  0  0
  188.2210  178.0140  135.7530 C   0  0  0  0  0  3  0  0  0  0  0  0
  189.4730  178.3100  139.1880 C   0  0  0  0  0  3  0  0  0  0  0  0
  190.7120  177.4050  141.6950 C   0  0  0  0  0  2  0  0  0  0  0  0
  189.4240  178.2620  137.8020 C   0  0  0  0  0  3  0  0  0  0  0  0
  184.7060  177.0510  137.7790 O   0  0  0  0  0  1  0  0  0  0  0  0
  187.2390  178.5400  142.0930 N   0  0  0  0  0  0  0  0  0  0  0  0
  189.7840  178.9830  143.3680 C   0  0  0  0  0  2  0  0  0  0  0  0
  188.3800  178.3590  141.3730 C   0  0  0  0  0  0  0  0  0  0  0  0
  183.8090  179.0190  140.6830 C   0  0  0  0  0  0  0  0  0  0  0  0
  190.3950  175.9630  142.1010 C   0  0  0  0  0  2  0  0  0  0  0  0
  185.9010  178.4590  140.1020 C   0  0  0  0  0  0  0  0  0  0  0  0
  188.3050  178.2550  139.9530 C   0  0  0  0  0  0  0  0  0  0  0  0
  181.8140  179.3400  139.1910 C   0  0  0  0  0  2  0  0  0  0  0  0
  180.9590  180.5790  139.0440 C   0  0  0  0  0  2  0  0  0  0  0  0
  181.7110  181.6050  138.3420 N   0  0  0  0  0  2  0  0  0  0  0  0
  179.2510  182.3370  137.7330 O   0  0  0  0  0  0  0  0  0  0  0  0
  180.6800  181.5620  135.9020 O   0  0  0  0  0  0  0  0  0  0  0  0
  180.6510  182.3400  137.1880 S   0  0  0  0  0  0  0  0  0  0  0  0
  182.3110  184.3050  137.5920 O   0  0  0  0  0  1  0  0  0  0  0  0
  181.1510  184.0190  136.8740 C   0  0  0  0  0  2  0  0  0  0  0  0
  1 18  2  0  0  0  0
  1 11  1  0  0  0  0
  2 19  1  0  0  0  0
  2 11  1  0  0  0  0
  3 26  1  0  0  0  0
  3 25  1  0  0  0  0
  4 20  1  0  0  0  0
  4 14  1  0  0  0  0
  5 15  2  0  0  0  0
  5  8  1  0  0  0  0
  6  7  1  0  0  0  0
  8  2  2  0  0  0  0
  9 25  1  0  0  0  0
  9 23  2  0  0  0  0
 10 21  1  0  0  0  0
 11  3  2  0  0  0  0
 12  7  1  0  0  0  0
 13 23  1  0  0  0  0
 15  1  1  0  0  0  0
 16 26  2  0  0  0  0
 17 10  1  0  0  0  0
 17 24  1  0  0  0  0
 18 16  1  0  0  0  0
 21 12  1  0  0  0  0
 22 10  1  0  0  0  0
 22 20  2  0  0  0  0
 23 14  1  0  0  0  0
 24  6  1  0  0  0  0
 25  4  2  0  0  0  0
 26 22  1  0  0  0  0
 27 13  1  0  0  0  0
 28 27  1  0  0  0  0
 29 28  1  0  0  0  0
 31 32  2  0  0  0  0
 32 30  2  0  0  0  0
 32 29  1  0  0  0  0
 34 32  1  0  0  0  0
 34 33  1  0  0  0  0
M  END
>  <MODEL>
8

>  <REMARK>
 VINA RESULT:      -7.5      4.612      9.521
  Name = 
  5 active torsions:
  status: ('A' for Active; 'I' for Inactive)
    1  A    between atoms: C_3  and  C_13
    2  A    between atoms: C_3  and  N_17
    3  A    between atoms: C_13  and  N_33
    4  A    between atoms: C_14  and  S_34
    5  A    between atoms: N_33  and  S_34
                            x       y       z     vdW  Elec       q    Type
                         _______ _______ _______ _____ _____    ______ ____

>  <TORSDO>
F 5

$$$$
=
 OpenBabel11052414083D

 34 38  0  0  0  0  0  0  0  0999 V2000
  185.5340  177.5330  137.5650 C   0  0  0  0  0  0  0  0  0  0  0  0
  187.0420  178.2500  139.3270 C   0  0  0  0  0  0  0  0  0  0  0  0
  184.5290  178.2880  139.6710 C   0  0  0  0  0  0  0  0  0  0  0  0
  183.3200  178.7450  141.7240 C   0  0  0  0  0  0  0  0  0  0  0  0
  187.9180  177.2330  137.3080 C   0  0  0  0  0  3  0  0  0  0  0  0
  180.3540  181.7490  139.0880 C   0  0  0  0  0  2  0  0  0  0  0  0
  178.9870  181.2030  139.4860 C   0  0  0  0  0  2  0  0  0  0  0  0
  188.1230  177.8190  138.5530 C   0  0  0  0  0  3  0  0  0  0  0  0
  185.5090  178.0970  141.9350 N   0  0  0  0  0  0  0  0  0  0  0  0
  180.8220  178.9340  139.0560 N   0  0  0  0  0  0  0  0  0  0  0  0
  185.7050  178.0110  138.8950 C   0  0  0  0  0  0  0  0  0  0  0  0
  179.1550  180.0570  140.4790 C   0  0  0  0  0  2  0  0  0  0  0  0
  185.9980  178.0110  144.3320 N   0  0  0  0  0  2  0  0  0  0  0  0
  183.5220  178.7350  143.3890 S   0  0  0  0  0  0  0  0  0  0  0  0
  186.6280  177.1180  136.8040 C   0  0  0  0  0  3  0  0  0  0  0  0
  183.1630  177.9460  137.6730 C   0  0  0  0  0  3  0  0  0  0  0  0
  180.7140  179.5710  137.7470 C   0  0  0  0  0  2  0  0  0  0  0  0
  184.2780  177.5090  136.9720 C   0  0  0  0  0  3  0  0  0  0  0  0
  187.3380  179.0030  140.4550 O   0  0  0  0  0  1  0  0  0  0  0  0
  182.1550  178.9240  141.0660 N   0  0  0  0  0  0  0  0  0  0  0  0
  179.5760  178.7570  139.7940 C   0  0  0  0  0  2  0  0  0  0  0  0
  182.0930  178.7520  139.7160 C   0  0  0  0  0  0  0  0  0  0  0  0
  185.1310  178.2540  143.2260 C   0  0  0  0  0  0  0  0  0  0  0  0
  180.9330  181.0840  137.8340 C   0  0  0  0  0  2  0  0  0  0  0  0
  184.4990  178.4080  141.0820 C   0  0  0  0  0  0  0  0  0  0  0  0
  183.2630  178.3580  139.0050 C   0  0  0  0  0  0  0  0  0  0  0  0
  187.3740  177.5890  144.1430 C   0  0  0  0  0  2  0  0  0  0  0  0
  188.1620  177.8530  145.4070 C   0  0  0  0  0  2  0  0  0  0  0  0
  189.1200  176.7800  145.6120 N   0  0  0  0  0  2  0  0  0  0  0  0
  191.6810  177.1330  146.1400 O   0  0  0  0  0  0  0  0  0  0  0  0
  190.5840  178.8000  144.7200 O   0  0  0  0  0  0  0  0  0  0  0  0
  190.6620  177.3360  145.0550 S   0  0  0  0  0  0  0  0  0  0  0  0
  190.1110  175.6100  143.1850 O   0  0  0  0  0  1  0  0  0  0  0  0
  191.1590  176.4240  143.6090 C   0  0  0  0  0  2  0  0  0  0  0  0
  1 11  1  0  0  0  0
  2 19  1  0  0  0  0
  3 25  1  0  0  0  0
  4 14  1  0  0  0  0
  5  8  1  0  0  0  0
  6  7  1  0  0  0  0
  7 12  1  0  0  0  0
  8  2  2  0  0  0  0
  9 23  2  0  0  0  0
 10 22  1  0  0  0  0
 10 21  1  0  0  0  0
 11  2  1  0  0  0  0
 11  3  2  0  0  0  0
 15  5  2  0  0  0  0
 15  1  1  0  0  0  0
 16 26  2  0  0  0  0
 17 24  1  0  0  0  0
 17 10  1  0  0  0  0
 18  1  2  0  0  0  0
 18 16  1  0  0  0  0
 20  4  1  0  0  0  0
 21 12  1  0  0  0  0
 22 20  2  0  0  0  0
 23 14  1  0  0  0  0
 23 13  1  0  0  0  0
 24  6  1  0  0  0  0
 25  4  2  0  0  0  0
 25  9  1  0  0  0  0
 26  3  1  0  0  0  0
 26 22  1  0  0  0  0
 27 13  1  0  0  0  0
 27 28  1  0  0  0  0
 28 29  1  0  0  0  0
 31 32  2  0  0  0  0
 32 29  1  0  0  0  0
 32 30  2  0  0  0  0
 33 34  1  0  0  0  0
 34 32  1  0  0  0  0
M  END
>  <MODEL>
9

>  <REMARK>
 VINA RESULT:      -7.4      2.454      4.892
  Name = 
  5 active torsions:
  status: ('A' for Active; 'I' for Inactive)
    1  A    between atoms: C_3  and  C_13
    2  A    between atoms: C_3  and  N_17
    3  A    between atoms: C_13  and  N_33
    4  A    between atoms: C_14  and  S_34
    5  A    between atoms: N_33  and  S_34
                            x       y       z     vdW  Elec       q    Type
                         _______ _______ _______ _____ _____    ______ ____

>  <TORSDO>
F 5

$$$$
