=
 OpenBabel11052416303D

 43 48  0  0  1  0  0  0  0  0999 V2000
  193.3200  174.7250  136.0210 C   0  0  0  0  0  0  0  0  0  0  0  0
  191.7350  177.1540  140.1330 C   0  0  0  0  0  0  0  0  0  0  0  0
  193.2190  176.0320  138.0810 C   0  0  0  0  0  0  0  0  0  0  0  0
  191.9950  174.5410  135.9700 C   0  0  0  0  0  3  0  0  0  0  0  0
  194.3290  174.0290  134.7710 Cl  0  0  0  0  0  0  0  0  0  0  0  0
  191.7440  175.8620  138.0860 C   0  0  0  0  0  0  0  0  0  0  0  0
  193.9520  175.4970  137.1060 C   0  0  0  0  0  3  0  0  0  0  0  0
  191.0420  175.1000  136.9970 C   0  0  0  0  0  2  0  0  0  0  0  0
  189.7020  176.4350  139.3340 N   0  0  0  0  0  2  0  0  0  0  0  0
  191.0890  176.4260  139.0990 C   0  0  0  0  0  0  0  0  0  0  0  0
  193.0570  177.3380  140.1520 C   0  0  0  0  0  3  0  0  0  0  0  0
  190.6800  177.6440  141.0610 C   0  0  1  0  0  3  0  0  0  0  0  0
  189.3870  177.1610  140.5070 N   0  0  1  0  0  0  0  0  0  0  0  0
  193.8280  176.7670  139.1180 O   0  0  0  0  0  0  0  0  0  0  0  0
  187.1420  177.9860  140.1230 C   0  0  2  0  0  3  0  0  0  0  0  0
  187.7490  178.8090  141.2370 C   0  0  0  0  0  2  0  0  0  0  0  0
  188.6200  178.3280  140.0930 C   0  0  1  0  0  3  0  0  0  0  0  0
  186.4560  178.8250  139.2430 O   0  0  0  0  0  0  0  0  0  0  0  0
  185.8740  177.9620  138.3050 C   0  0  2  0  0  3  0  0  0  0  0  0
  186.5590  178.0870  136.9470 C   0  0  0  0  0  2  0  0  0  0  0  0
  187.2140  179.3140  136.8290 O   0  0  0  0  0  1  0  0  0  0  0  0
  184.3550  178.1490  138.2200 C   0  0  1  0  0  3  0  0  0  0  0  0
  183.7170  176.9380  138.5030 O   0  0  0  0  0  0  0  0  0  0  0  0
  181.8060  176.1140  137.3570 C   0  0  0  0  0  1  0  0  0  0  0  0
  183.2790  176.4570  137.2670 C   0  0  0  0  0  2  0  0  0  0  0  0
  183.8640  179.2300  139.1820 C   0  0  0  0  0  2  0  0  0  0  0  0
  182.5990  178.7950  139.9140 C   0  0  2  0  0  3  0  0  0  0  0  0
  181.5420  179.6330  139.5550 O   0  0  0  0  0  1  0  0  0  0  0  0
  182.7780  178.8100  141.3990 C   0  0  0  0  0  0  0  0  0  0  0  0
  184.2400  178.7650  143.3250 C   0  0  0  0  0  3  0  0  0  0  0  0
  181.8730  178.9190  143.6130 N   0  0  0  0  0  0  0  0  0  0  0  0
  183.1190  178.8590  144.1530 C   0  0  0  0  0  3  0  0  0  0  0  0
  181.6800  178.8920  142.2660 C   0  0  0  0  0  3  0  0  0  0  0  0
  184.0630  178.7390  141.9400 C   0  0  0  0  0  3  0  0  0  0  0  0
  190.8920  177.0510  142.4450 C   0  0  0  0  0  2  0  0  0  0  0  0
  189.6980  176.1960  142.8340 C   0  0  0  0  0  2  0  0  0  0  0  0
  189.1680  177.7200  146.2630 C   0  0  0  0  0  3  0  0  0  0  0  0
  187.0070  177.3550  145.2300 C   0  0  0  0  0  3  0  0  0  0  0  0
  187.7720  177.7980  146.3130 C   0  0  0  0  0  0  0  0  0  0  0  0
  189.7980  177.2040  145.1270 C   0  0  0  0  0  3  0  0  0  0  0  0
  189.0340  176.7650  144.0390 C   0  0  0  0  0  0  0  0  0  0  0  0
  187.1630  178.2930  147.4160 F   0  0  0  0  0  0  0  0  0  0  0  0
  187.6370  176.8370  144.0940 C   0  0  0  0  0  3  0  0  0  0  0  0
  1  7  1  0  0  0  0
  2 11  2  0  0  0  0
  2 12  1  0  0  0  0
  3  6  1  0  0  0  0
  3 14  1  0  0  0  0
  4  1  2  0  0  0  0
  4  8  1  0  0  0  0
  5  1  1  0  0  0  0
  6 10  2  0  0  0  0
  7  3  2  0  0  0  0
  8  6  1  0  0  0  0
 10  9  1  0  0  0  0
 10  2  1  0  0  0  0
 12 35  1  1  0  0  0
 13  9  1  6  0  0  0
 13 12  1  0  0  0  0
 14 11  1  0  0  0  0
 15 18  1  6  0  0  0
 15 16  1  0  0  0  0
 17 15  1  0  0  0  0
 17 13  1  0  0  0  0
 17 16  1  1  0  0  0
 19 20  1  6  0  0  0
 19 18  1  0  0  0  0
 21 20  1  0  0  0  0
 22 19  1  0  0  0  0
 22 23  1  0  0  0  0
 22 26  1  1  0  0  0
 25 24  1  0  0  0  0
 25 23  1  0  0  0  0
 26 27  1  0  0  0  0
 27 28  1  1  0  0  0
 27 29  1  0  0  0  0
 29 34  2  0  0  0  0
 29 33  1  0  0  0  0
 30 32  2  0  0  0  0
 31 32  1  0  0  0  0
 33 31  2  0  0  0  0
 34 30  1  0  0  0  0
 35 36  1  0  0  0  0
 36 41  1  0  0  0  0
 37 39  1  0  0  0  0
 38 39  2  0  0  0  0
 39 42  1  0  0  0  0
 40 37  2  0  0  0  0
 41 43  2  0  0  0  0
 41 40  1  0  0  0  0
 43 38  1  0  0  0  0
M  END
>  <MODEL>
1

>  <REMARK>
 VINA RESULT:      -8.3      0.000      0.000
  Name = 
  13 active torsions:
  status: ('A' for Active; 'I' for Inactive)
    1  A    between atoms: C_1  and  C_28
    2  A    between atoms: C_1  and  C_34
    3  A    between atoms: C_2  and  O_6
    4  A    between atoms: C_3  and  C_4
    5  A    between atoms: C_3  and  O_6
    6  A    between atoms: C_3  and  C_12
    7  A    between atoms: C_4  and  O_15
    8  A    between atoms: C_4  and  C_22
    9  A    between atoms: C_11  and  C_14
   10  A    between atoms: C_13  and  N_38
   11  A    between atoms: C_14  and  C_22
   12  A    between atoms: O_15  and  C_42
   13  A    between atoms: C_28  and  C_35
                            x       y       z     vdW  Elec       q    Type
                         _______ _______ _______ _____ _____    ______ ____

>  <TORSDO>
F 13

$$$$
=
 OpenBabel11052416303D

 43 48  0  0  1  0  0  0  0  0999 V2000
  180.3630  179.3820  138.1690 C   0  0  0  0  0  0  0  0  0  0  0  0
  183.4790  178.7260  142.0650 C   0  0  0  0  0  0  0  0  0  0  0  0
  181.2940  178.8790  140.3700 C   0  0  0  0  0  0  0  0  0  0  0  0
  181.5510  179.7090  137.6450 C   0  0  0  0  0  3  0  0  0  0  0  0
  178.9310  179.4730  137.1660 Cl  0  0  0  0  0  0  0  0  0  0  0  0
  182.6410  179.2320  139.8520 C   0  0  0  0  0  0  0  0  0  0  0  0
  180.2300  178.9500  139.5720 C   0  0  0  0  0  3  0  0  0  0  0  0
  182.8410  179.6620  138.4250 C   0  0  0  0  0  2  0  0  0  0  0  0
  185.0130  179.3890  140.4860 N   0  0  0  0  0  2  0  0  0  0  0  0
  183.6490  179.1370  140.7170 C   0  0  0  0  0  0  0  0  0  0  0  0
  182.2860  178.3890  142.5600 C   0  0  0  0  0  3  0  0  0  0  0  0
  184.8230  178.7240  142.7040 C   0  0  1  0  0  3  0  0  0  0  0  0
  185.7810  179.1540  141.6510 N   0  0  1  0  0  0  0  0  0  0  0  0
  181.1620  178.4670  141.7110 O   0  0  0  0  0  0  0  0  0  0  0  0
  187.6930  178.4520  140.3380 C   0  0  2  0  0  3  0  0  0  0  0  0
  188.0740  178.3460  141.7980 C   0  0  0  0  0  2  0  0  0  0  0  0
  186.6570  178.0260  141.3630 C   0  0  1  0  0  3  0  0  0  0  0  0
  188.1530  177.3270  139.6520 O   0  0  0  0  0  0  0  0  0  0  0  0
  189.2860  177.7700  138.9570 C   0  0  2  0  0  3  0  0  0  0  0  0
  188.9080  178.3190  137.5850 C   0  0  0  0  0  2  0  0  0  0  0  0
  189.0470  179.7070  137.5460 O   0  0  0  0  0  1  0  0  0  0  0  0
  190.3700  176.6880  138.8830 C   0  0  1  0  0  3  0  0  0  0  0  0
  191.4100  177.1240  138.0570 O   0  0  0  0  0  0  0  0  0  0  0  0
  193.2640  176.2260  136.8740 C   0  0  0  0  0  1  0  0  0  0  0  0
  191.8700  175.9750  137.4090 C   0  0  0  0  0  2  0  0  0  0  0  0
  190.9170  176.3400  140.2660 C   0  0  0  0  0  2  0  0  0  0  0  0
  191.6370  177.5260  140.8980 C   0  0  2  0  0  3  0  0  0  0  0  0
  192.9730  177.5300  140.4930 O   0  0  0  0  0  1  0  0  0  0  0  0
  191.5580  177.4980  142.3910 C   0  0  0  0  0  0  0  0  0  0  0  0
  191.2500  176.2530  144.4420 C   0  0  0  0  0  3  0  0  0  0  0  0
  191.6640  178.6050  144.5110 N   0  0  0  0  0  0  0  0  0  0  0  0
  191.4340  177.4350  145.1630 C   0  0  0  0  0  3  0  0  0  0  0  0
  191.7260  178.6620  143.1530 C   0  0  0  0  0  3  0  0  0  0  0  0
  191.3120  176.2900  143.0470 C   0  0  0  0  0  3  0  0  0  0  0  0
  184.8520  179.7190  143.8530 C   0  0  0  0  0  2  0  0  0  0  0  0
  184.5090  179.0200  145.1570 C   0  0  0  0  0  2  0  0  0  0  0  0
  187.2090  178.2870  147.7110 C   0  0  0  0  0  3  0  0  0  0  0  0
  187.7960  177.2040  145.6240 C   0  0  0  0  0  3  0  0  0  0  0  0
  188.0870  177.4970  146.9600 C   0  0  0  0  0  0  0  0  0  0  0  0
  186.0390  178.7800  147.1270 C   0  0  0  0  0  3  0  0  0  0  0  0
  185.7440  178.4830  145.7900 C   0  0  0  0  0  0  0  0  0  0  0  0
  189.2220  177.0250  147.5250 F   0  0  0  0  0  0  0  0  0  0  0  0
  186.6250  177.6980  145.0380 C   0  0  0  0  0  3  0  0  0  0  0  0
  1  7  1  0  0  0  0
  2 11  2  0  0  0  0
  2 12  1  0  0  0  0
  3 14  1  0  0  0  0
  4  1  2  0  0  0  0
  4  8  1  0  0  0  0
  5  1  1  0  0  0  0
  6  3  1  0  0  0  0
  6 10  2  0  0  0  0
  7  3  2  0  0  0  0
  8  6  1  0  0  0  0
  9 10  1  0  0  0  0
 10  2  1  0  0  0  0
 12 35  1  1  0  0  0
 13  9  1  6  0  0  0
 13 12  1  0  0  0  0
 14 11  1  0  0  0  0
 15 18  1  6  0  0  0
 15 17  1  0  0  0  0
 15 16  1  0  0  0  0
 17 13  1  0  0  0  0
 17 16  1  1  0  0  0
 19 20  1  6  0  0  0
 19 18  1  0  0  0  0
 21 20  1  0  0  0  0
 22 19  1  0  0  0  0
 22 26  1  1  0  0  0
 23 22  1  0  0  0  0
 24 25  1  0  0  0  0
 25 23  1  0  0  0  0
 26 27  1  0  0  0  0
 27 28  1  1  0  0  0
 27 29  1  0  0  0  0
 29 34  2  0  0  0  0
 29 33  1  0  0  0  0
 30 32  2  0  0  0  0
 31 32  1  0  0  0  0
 33 31  2  0  0  0  0
 34 30  1  0  0  0  0
 35 36  1  0  0  0  0
 36 41  1  0  0  0  0
 38 39  1  0  0  0  0
 39 42  1  0  0  0  0
 39 37  2  0  0  0  0
 40 37  1  0  0  0  0
 41 40  2  0  0  0  0
 43 38  2  0  0  0  0
 43 41  1  0  0  0  0
M  END
>  <MODEL>
2

>  <REMARK>
 VINA RESULT:      -8.1      3.295      8.212
  Name = 
  13 active torsions:
  status: ('A' for Active; 'I' for Inactive)
    1  A    between atoms: C_1  and  C_28
    2  A    between atoms: C_1  and  C_34
    3  A    between atoms: C_2  and  O_6
    4  A    between atoms: C_3  and  C_4
    5  A    between atoms: C_3  and  O_6
    6  A    between atoms: C_3  and  C_12
    7  A    between atoms: C_4  and  O_15
    8  A    between atoms: C_4  and  C_22
    9  A    between atoms: C_11  and  C_14
   10  A    between atoms: C_13  and  N_38
   11  A    between atoms: C_14  and  C_22
   12  A    between atoms: O_15  and  C_42
   13  A    between atoms: C_28  and  C_35
                            x       y       z     vdW  Elec       q    Type
                         _______ _______ _______ _____ _____    ______ ____

>  <TORSDO>
F 13

$$$$
=
 OpenBabel11052416303D

 43 48  0  0  1  0  0  0  0  0999 V2000
  192.9510  175.6240  136.0960 C   0  0  0  0  0  0  0  0  0  0  0  0
  191.1100  177.3260  140.4580 C   0  0  0  0  0  0  0  0  0  0  0  0
  192.7210  176.5540  138.3420 C   0  0  0  0  0  0  0  0  0  0  0  0
  191.6320  175.4720  135.9290 C   0  0  0  0  0  3  0  0  0  0  0  0
  194.0370  175.1390  134.8110 Cl  0  0  0  0  0  0  0  0  0  0  0  0
  191.2480  176.4090  138.2230 C   0  0  0  0  0  0  0  0  0  0  0  0
  193.5140  176.1850  137.3370 C   0  0  0  0  0  3  0  0  0  0  0  0
  190.6160  175.8590  136.9740 C   0  0  0  0  0  2  0  0  0  0  0  0
  189.1300  176.7890  139.4170 N   0  0  0  0  0  2  0  0  0  0  0  0
  190.5300  176.7990  139.2740 C   0  0  0  0  0  0  0  0  0  0  0  0
  192.4290  177.4830  140.5940 C   0  0  0  0  0  3  0  0  0  0  0  0
  189.9980  177.6640  141.3880 C   0  0  1  0  0  3  0  0  0  0  0  0
  188.7420  177.3050  140.6760 N   0  0  1  0  0  0  0  0  0  0  0  0
  193.2640  177.0890  139.5270 O   0  0  0  0  0  0  0  0  0  0  0  0
  186.6890  178.4910  141.1700 C   0  0  2  0  0  3  0  0  0  0  0  0
  187.8360  179.3120  141.7170 C   0  0  0  0  0  2  0  0  0  0  0  0
  188.0100  178.5380  140.4240 C   0  0  1  0  0  3  0  0  0  0  0  0
  185.7710  179.3330  140.5380 O   0  0  0  0  0  0  0  0  0  0  0  0
  184.5180  178.9010  140.9900 C   0  0  2  0  0  3  0  0  0  0  0  0
  184.6110  178.3280  142.4010 C   0  0  0  0  0  2  0  0  0  0  0  0
  184.3140  179.3020  143.3560 O   0  0  0  0  0  1  0  0  0  0  0  0
  183.8570  177.9320  140.0020 C   0  0  1  0  0  3  0  0  0  0  0  0
  182.5630  177.6310  140.4360 O   0  0  0  0  0  0  0  0  0  0  0  0
  180.9110  179.0250  141.4230 C   0  0  0  0  0  1  0  0  0  0  0  0
  181.8280  178.8020  140.2380 C   0  0  0  0  0  2  0  0  0  0  0  0
  183.8070  178.5120  138.5890 C   0  0  0  0  0  2  0  0  0  0  0  0
  183.8980  177.4180  137.5310 C   0  0  2  0  0  3  0  0  0  0  0  0
  183.7900  176.1680  138.1420 O   0  0  0  0  0  1  0  0  0  0  0  0
  185.1740  177.4950  136.7540 C   0  0  0  0  0  0  0  0  0  0  0  0
  186.3890  177.1270  134.6950 C   0  0  0  0  0  3  0  0  0  0  0  0
  187.4880  178.0840  136.5880 N   0  0  0  0  0  0  0  0  0  0  0  0
  187.5310  177.6570  135.2980 C   0  0  0  0  0  3  0  0  0  0  0  0
  186.3450  178.0100  137.3240 C   0  0  0  0  0  3  0  0  0  0  0  0
  185.2050  177.0460  135.4320 C   0  0  0  0  0  3  0  0  0  0  0  0
  190.1160  176.8360  142.6580 C   0  0  0  0  0  2  0  0  0  0  0  0
  188.7530  176.2990  143.0580 C   0  0  0  0  0  2  0  0  0  0  0  0
  188.9490  177.5870  146.6160 C   0  0  0  0  0  3  0  0  0  0  0  0
  186.6300  177.5860  145.9140 C   0  0  0  0  0  3  0  0  0  0  0  0
  187.6000  177.8360  146.8900 C   0  0  0  0  0  0  0  0  0  0  0  0
  189.3280  177.0910  145.3660 C   0  0  0  0  0  3  0  0  0  0  0  0
  188.3580  176.8450  144.3850 C   0  0  0  0  0  0  0  0  0  0  0  0
  187.2330  178.3120  148.1030 F   0  0  0  0  0  0  0  0  0  0  0  0
  187.0080  177.0890  144.6630 C   0  0  0  0  0  3  0  0  0  0  0  0
  1  7  1  0  0  0  0
  2 11  2  0  0  0  0
  2 12  1  0  0  0  0
  3 14  1  0  0  0  0
  4  1  2  0  0  0  0
  4  8  1  0  0  0  0
  5  1  1  0  0  0  0
  6  3  1  0  0  0  0
  6 10  2  0  0  0  0
  7  3  2  0  0  0  0
  8  6  1  0  0  0  0
 10  9  1  0  0  0  0
 10  2  1  0  0  0  0
 12 35  1  1  0  0  0
 13  9  1  6  0  0  0
 13 12  1  0  0  0  0
 14 11  1  0  0  0  0
 15 18  1  6  0  0  0
 15 16  1  0  0  0  0
 17 13  1  0  0  0  0
 17 15  1  0  0  0  0
 17 16  1  1  0  0  0
 18 19  1  0  0  0  0
 19 20  1  1  0  0  0
 20 21  1  0  0  0  0
 22 26  1  6  0  0  0
 22 23  1  0  0  0  0
 22 19  1  0  0  0  0
 25 23  1  0  0  0  0
 25 24  1  0  0  0  0
 27 28  1  1  0  0  0
 27 26  1  0  0  0  0
 29 33  1  0  0  0  0
 29 27  1  0  0  0  0
 30 32  2  0  0  0  0
 30 34  1  0  0  0  0
 31 33  2  0  0  0  0
 32 31  1  0  0  0  0
 34 29  2  0  0  0  0
 35 36  1  0  0  0  0
 36 41  1  0  0  0  0
 37 39  1  0  0  0  0
 38 39  2  0  0  0  0
 39 42  1  0  0  0  0
 40 37  2  0  0  0  0
 41 43  2  0  0  0  0
 41 40  1  0  0  0  0
 43 38  1  0  0  0  0
M  END
>  <MODEL>
3

>  <REMARK>
 VINA RESULT:      -7.9      1.679      3.672
  Name = 
  13 active torsions:
  status: ('A' for Active; 'I' for Inactive)
    1  A    between atoms: C_1  and  C_28
    2  A    between atoms: C_1  and  C_34
    3  A    between atoms: C_2  and  O_6
    4  A    between atoms: C_3  and  C_4
    5  A    between atoms: C_3  and  O_6
    6  A    between atoms: C_3  and  C_12
    7  A    between atoms: C_4  and  O_15
    8  A    between atoms: C_4  and  C_22
    9  A    between atoms: C_11  and  C_14
   10  A    between atoms: C_13  and  N_38
   11  A    between atoms: C_14  and  C_22
   12  A    between atoms: O_15  and  C_42
   13  A    between atoms: C_28  and  C_35
                            x       y       z     vdW  Elec       q    Type
                         _______ _______ _______ _____ _____    ______ ____

>  <TORSDO>
F 13

$$$$
=
 OpenBabel11052416303D

 43 48  0  0  1  0  0  0  0  0999 V2000
  192.1830  176.0190  147.7020 C   0  0  0  0  0  0  0  0  0  0  0  0
  188.4130  177.7500  144.8530 C   0  0  0  0  0  0  0  0  0  0  0  0
  190.1830  177.1720  146.9040 C   0  0  0  0  0  0  0  0  0  0  0  0
  192.4430  175.4640  146.5120 C   0  0  0  0  0  3  0  0  0  0  0  0
  193.2430  175.6840  149.0540 Cl  0  0  0  0  0  0  0  0  0  0  0  0
  190.4130  176.5850  145.5590 C   0  0  0  0  0  0  0  0  0  0  0  0
  191.0200  176.9030  147.9040 C   0  0  0  0  0  3  0  0  0  0  0  0
  191.5920  175.6900  145.2890 C   0  0  0  0  0  2  0  0  0  0  0  0
  189.5190  176.5050  143.2680 N   0  0  0  0  0  2  0  0  0  0  0  0
  189.5270  176.9020  144.6170 C   0  0  0  0  0  0  0  0  0  0  0  0
  188.1840  178.3060  146.0460 C   0  0  0  0  0  3  0  0  0  0  0  0
  187.6740  177.8850  143.5690 C   0  0  1  0  0  3  0  0  0  0  0  0
  188.4230  177.0700  142.5750 N   0  0  1  0  0  0  0  0  0  0  0  0
  189.0720  178.0160  147.1020 O   0  0  0  0  0  0  0  0  0  0  0  0
  189.0460  177.2660  140.2430 C   0  0  2  0  0  3  0  0  0  0  0  0
  187.9360  178.2590  140.5060 C   0  0  0  0  0  2  0  0  0  0  0  0
  188.9710  177.9810  141.5800 C   0  0  1  0  0  3  0  0  0  0  0  0
  190.0310  177.8640  139.4540 O   0  0  0  0  0  0  0  0  0  0  0  0
  191.0710  176.9270  139.4080 C   0  0  2  0  0  3  0  0  0  0  0  0
  192.3280  177.4710  140.0810 C   0  0  0  0  0  2  0  0  0  0  0  0
  192.2150  177.4150  141.4710 O   0  0  0  0  0  1  0  0  0  0  0  0
  191.3320  176.4320  137.9800 C   0  0  1  0  0  3  0  0  0  0  0  0
  192.5480  175.7440  137.9380 O   0  0  0  0  0  0  0  0  0  0  0  0
  193.4120  173.8690  136.7620 C   0  0  0  0  0  1  0  0  0  0  0  0
  192.2270  174.4570  137.5010 C   0  0  0  0  0  2  0  0  0  0  0  0
  190.2070  175.5250  137.4830 C   0  0  0  0  0  2  0  0  0  0  0  0
  189.5020  176.1220  136.2690 C   0  0  2  0  0  3  0  0  0  0  0  0
  190.3760  176.9770  135.5970 O   0  0  0  0  0  1  0  0  0  0  0  0
  188.2600  176.8620  136.6510 C   0  0  0  0  0  0  0  0  0  0  0  0
  185.9920  176.8380  137.4910 C   0  0  0  0  0  3  0  0  0  0  0  0
  187.0430  178.9060  136.9170 N   0  0  0  0  0  0  0  0  0  0  0  0
  185.9590  178.2300  137.3840 C   0  0  0  0  0  3  0  0  0  0  0  0
  188.1810  178.2570  136.5480 C   0  0  0  0  0  3  0  0  0  0  0  0
  187.1510  176.1540  137.1200 C   0  0  0  0  0  3  0  0  0  0  0  0
  186.2660  177.3310  143.7220 C   0  0  0  0  0  2  0  0  0  0  0  0
  185.3270  178.4220  144.2080 C   0  0  0  0  0  2  0  0  0  0  0  0
  181.7950  178.9870  142.9590 C   0  0  0  0  0  3  0  0  0  0  0  0
  183.1780  178.2870  141.0960 C   0  0  0  0  0  3  0  0  0  0  0  0
  181.9340  178.6770  141.6010 C   0  0  0  0  0  0  0  0  0  0  0  0
  182.9010  178.9100  143.8090 C   0  0  0  0  0  3  0  0  0  0  0  0
  184.1500  178.5240  143.3030 C   0  0  0  0  0  0  0  0  0  0  0  0
  180.8600  178.7470  140.7800 F   0  0  0  0  0  0  0  0  0  0  0  0
  184.2850  178.2080  141.9470 C   0  0  0  0  0  3  0  0  0  0  0  0
  1  7  1  0  0  0  0
  1  5  1  0  0  0  0
  2 11  2  0  0  0  0
  3 14  1  0  0  0  0
  3  7  2  0  0  0  0
  4  1  2  0  0  0  0
  6  3  1  0  0  0  0
  8  6  1  0  0  0  0
  8  4  1  0  0  0  0
  9 10  1  0  0  0  0
 10  2  1  0  0  0  0
 10  6  2  0  0  0  0
 11 14  1  0  0  0  0
 12 35  1  1  0  0  0
 12  2  1  0  0  0  0
 13  9  1  1  0  0  0
 13 12  1  0  0  0  0
 15 18  1  6  0  0  0
 15 16  1  0  0  0  0
 15 17  1  0  0  0  0
 17 16  1  6  0  0  0
 17 13  1  0  0  0  0
 19 18  1  0  0  0  0
 19 20  1  6  0  0  0
 20 21  1  0  0  0  0
 22 26  1  1  0  0  0
 22 19  1  0  0  0  0
 23 22  1  0  0  0  0
 24 25  1  0  0  0  0
 25 23  1  0  0  0  0
 27 28  1  1  0  0  0
 27 29  1  0  0  0  0
 27 26  1  0  0  0  0
 29 34  1  0  0  0  0
 31 32  2  0  0  0  0
 32 30  1  0  0  0  0
 33 29  2  0  0  0  0
 33 31  1  0  0  0  0
 34 30  2  0  0  0  0
 35 36  1  0  0  0  0
 37 40  1  0  0  0  0
 38 39  1  0  0  0  0
 38 43  2  0  0  0  0
 39 37  2  0  0  0  0
 41 40  2  0  0  0  0
 41 36  1  0  0  0  0
 42 39  1  0  0  0  0
 43 41  1  0  0  0  0
M  END
>  <MODEL>
4

>  <REMARK>
 VINA RESULT:      -7.9      3.680      7.630
  Name = 
  13 active torsions:
  status: ('A' for Active; 'I' for Inactive)
    1  A    between atoms: C_1  and  C_28
    2  A    between atoms: C_1  and  C_34
    3  A    between atoms: C_2  and  O_6
    4  A    between atoms: C_3  and  C_4
    5  A    between atoms: C_3  and  O_6
    6  A    between atoms: C_3  and  C_12
    7  A    between atoms: C_4  and  O_15
    8  A    between atoms: C_4  and  C_22
    9  A    between atoms: C_11  and  C_14
   10  A    between atoms: C_13  and  N_38
   11  A    between atoms: C_14  and  C_22
   12  A    between atoms: O_15  and  C_42
   13  A    between atoms: C_28  and  C_35
                            x       y       z     vdW  Elec       q    Type
                         _______ _______ _______ _____ _____    ______ ____

>  <TORSDO>
F 13

$$$$
=
 OpenBabel11052416303D

 43 48  0  0  1  0  0  0  0  0999 V2000
  192.4340  176.3410  136.8480 C   0  0  0  0  0  0  0  0  0  0  0  0
  189.9500  177.4690  141.0760 C   0  0  0  0  0  0  0  0  0  0  0  0
  191.8640  176.9320  139.1480 C   0  0  0  0  0  0  0  0  0  0  0  0
  191.1560  176.2950  136.4520 C   0  0  0  0  0  3  0  0  0  0  0  0
  193.7020  175.9920  135.6920 Cl  0  0  0  0  0  0  0  0  0  0  0  0
  190.4280  176.8950  138.7740 C   0  0  0  0  0  0  0  0  0  0  0  0
  192.8010  176.6730  138.2370 C   0  0  0  0  0  3  0  0  0  0  0  0
  189.9940  176.5790  137.3700 C   0  0  0  0  0  2  0  0  0  0  0  0
  188.1550  177.2150  139.6620 N   0  0  0  0  0  2  0  0  0  0  0  0
  189.5580  177.1630  139.7470 C   0  0  0  0  0  0  0  0  0  0  0  0
  191.2330  177.5250  141.4440 C   0  0  0  0  0  3  0  0  0  0  0  0
  188.7110  177.7280  141.8590 C   0  0  1  0  0  3  0  0  0  0  0  0
  187.5800  177.5560  140.9090 N   0  0  1  0  0  0  0  0  0  0  0  0
  192.2200  177.2470  140.4750 O   0  0  0  0  0  0  0  0  0  0  0  0
  185.4460  178.6550  140.5830 C   0  0  2  0  0  3  0  0  0  0  0  0
  186.0080  179.1260  141.9060 C   0  0  0  0  0  2  0  0  0  0  0  0
  186.9420  178.8550  140.7430 C   0  0  1  0  0  3  0  0  0  0  0  0
  184.9060  179.7410  139.8920 O   0  0  0  0  0  0  0  0  0  0  0  0
  183.9710  179.1770  139.0130 C   0  0  2  0  0  3  0  0  0  0  0  0
  182.8000  180.1260  138.7770 C   0  0  0  0  0  2  0  0  0  0  0  0
  183.2340  181.4520  138.7250 O   0  0  0  0  0  1  0  0  0  0  0  0
  183.5210  177.7860  139.4750 C   0  0  1  0  0  3  0  0  0  0  0  0
  182.3560  177.9000  140.2390 O   0  0  0  0  0  0  0  0  0  0  0  0
  180.1670  176.9900  140.3980 C   0  0  0  0  0  1  0  0  0  0  0  0
  181.5820  176.7890  139.8980 C   0  0  0  0  0  2  0  0  0  0  0  0
  183.2740  176.8500  138.2920 C   0  0  0  0  0  2  0  0  0  0  0  0
  184.4890  176.7760  137.3740 C   0  0  2  0  0  3  0  0  0  0  0  0
  184.1210  177.1580  136.0830 O   0  0  0  0  0  1  0  0  0  0  0  0
  185.0890  175.4060  137.3470 C   0  0  0  0  0  0  0  0  0  0  0  0
  186.9880  173.9680  136.9320 C   0  0  0  0  0  3  0  0  0  0  0  0
  184.9220  173.0440  137.6980 N   0  0  0  0  0  0  0  0  0  0  0  0
  186.2160  172.8700  137.3180 C   0  0  0  0  0  3  0  0  0  0  0  0
  184.3460  174.2770  137.7160 C   0  0  0  0  0  3  0  0  0  0  0  0
  186.4160  175.2420  136.9470 C   0  0  0  0  0  3  0  0  0  0  0  0
  188.5880  176.7110  142.9830 C   0  0  0  0  0  2  0  0  0  0  0  0
  188.1970  177.4080  144.2750 C   0  0  0  0  0  2  0  0  0  0  0  0
  191.5220  176.6050  145.9050 C   0  0  0  0  0  3  0  0  0  0  0  0
  189.9220  177.1670  147.6350 C   0  0  0  0  0  3  0  0  0  0  0  0
  191.2120  176.7830  147.2570 C   0  0  0  0  0  0  0  0  0  0  0  0
  190.5420  176.8140  144.9300 C   0  0  0  0  0  3  0  0  0  0  0  0
  189.2500  177.2020  145.3070 C   0  0  0  0  0  0  0  0  0  0  0  0
  192.1610  176.5760  148.2000 F   0  0  0  0  0  0  0  0  0  0  0  0
  188.9400  177.3740  146.6610 C   0  0  0  0  0  3  0  0  0  0  0  0
  1  7  1  0  0  0  0
  2 11  2  0  0  0  0
  2 12  1  0  0  0  0
  3 14  1  0  0  0  0
  4  1  2  0  0  0  0
  4  8  1  0  0  0  0
  5  1  1  0  0  0  0
  6  3  1  0  0  0  0
  6 10  2  0  0  0  0
  7  3  2  0  0  0  0
  8  6  1  0  0  0  0
  9 10  1  0  0  0  0
 10  2  1  0  0  0  0
 12 35  1  1  0  0  0
 13  9  1  6  0  0  0
 13 12  1  0  0  0  0
 14 11  1  0  0  0  0
 15 18  1  6  0  0  0
 15 17  1  0  0  0  0
 15 16  1  0  0  0  0
 17 13  1  0  0  0  0
 17 16  1  1  0  0  0
 19 20  1  1  0  0  0
 19 22  1  0  0  0  0
 19 18  1  0  0  0  0
 21 20  1  0  0  0  0
 22 26  1  6  0  0  0
 22 23  1  0  0  0  0
 25 23  1  0  0  0  0
 25 24  1  0  0  0  0
 27 28  1  6  0  0  0
 27 26  1  0  0  0  0
 29 27  1  0  0  0  0
 29 33  1  0  0  0  0
 30 34  1  0  0  0  0
 30 32  2  0  0  0  0
 31 33  2  0  0  0  0
 32 31  1  0  0  0  0
 34 29  2  0  0  0  0
 35 36  1  0  0  0  0
 36 41  1  0  0  0  0
 37 39  1  0  0  0  0
 39 38  2  0  0  0  0
 39 42  1  0  0  0  0
 40 41  1  0  0  0  0
 40 37  2  0  0  0  0
 41 43  2  0  0  0  0
 43 38  1  0  0  0  0
M  END
>  <MODEL>
5

>  <REMARK>
 VINA RESULT:      -7.7      2.263      3.893
  Name = 
  13 active torsions:
  status: ('A' for Active; 'I' for Inactive)
    1  A    between atoms: C_1  and  C_28
    2  A    between atoms: C_1  and  C_34
    3  A    between atoms: C_2  and  O_6
    4  A    between atoms: C_3  and  C_4
    5  A    between atoms: C_3  and  O_6
    6  A    between atoms: C_3  and  C_12
    7  A    between atoms: C_4  and  O_15
    8  A    between atoms: C_4  and  C_22
    9  A    between atoms: C_11  and  C_14
   10  A    between atoms: C_13  and  N_38
   11  A    between atoms: C_14  and  C_22
   12  A    between atoms: O_15  and  C_42
   13  A    between atoms: C_28  and  C_35
                            x       y       z     vdW  Elec       q    Type
                         _______ _______ _______ _____ _____    ______ ____

>  <TORSDO>
F 13

$$$$
=
 OpenBabel11052416303D

 43 48  0  0  1  0  0  0  0  0999 V2000
  193.3690  175.6090  135.8850 C   0  0  0  0  0  0  0  0  0  0  0  0
  191.4880  177.1470  140.2920 C   0  0  0  0  0  0  0  0  0  0  0  0
  193.1190  176.4540  138.1630 C   0  0  0  0  0  0  0  0  0  0  0  0
  192.0520  175.4650  135.7020 C   0  0  0  0  0  3  0  0  0  0  0  0
  194.4670  175.1720  134.5940 Cl  0  0  0  0  0  0  0  0  0  0  0  0
  191.6470  176.3140  138.0250 C   0  0  0  0  0  0  0  0  0  0  0  0
  193.9210  176.1220  137.1530 C   0  0  0  0  0  3  0  0  0  0  0  0
  191.0260  175.8130  136.7510 C   0  0  0  0  0  2  0  0  0  0  0  0
  189.5180  176.6510  139.2140 N   0  0  0  0  0  2  0  0  0  0  0  0
  190.9190  176.6650  139.0840 C   0  0  0  0  0  0  0  0  0  0  0  0
  192.8060  177.2970  140.4460 C   0  0  0  0  0  3  0  0  0  0  0  0
  190.3680  177.4500  141.2240 C   0  0  1  0  0  3  0  0  0  0  0  0
  189.1190  177.1190  140.4880 N   0  0  1  0  0  0  0  0  0  0  0  0
  193.6510  176.9430  139.3730 O   0  0  0  0  0  0  0  0  0  0  0  0
  186.9730  178.2000  140.7980 C   0  0  2  0  0  3  0  0  0  0  0  0
  187.9950  178.9660  141.6100 C   0  0  0  0  0  2  0  0  0  0  0  0
  188.3900  178.3620  140.2760 C   0  0  1  0  0  3  0  0  0  0  0  0
  186.1330  179.0980  140.1390 O   0  0  0  0  0  0  0  0  0  0  0  0
  185.0410  178.3260  139.7210 C   0  0  2  0  0  3  0  0  0  0  0  0
  185.1200  178.0280  138.2270 C   0  0  0  0  0  2  0  0  0  0  0  0
  186.1540  178.7500  137.6280 O   0  0  0  0  0  1  0  0  0  0  0  0
  183.7040  178.9600  140.1270 C   0  0  1  0  0  3  0  0  0  0  0  0
  183.8250  179.5320  141.3970 O   0  0  0  0  0  0  0  0  0  0  0  0
  184.3520  178.2610  143.3330 C   0  0  0  0  0  1  0  0  0  0  0  0
  183.3120  178.5780  142.2790 C   0  0  0  0  0  2  0  0  0  0  0  0
  183.2520  180.0180  139.1230 C   0  0  0  0  0  2  0  0  0  0  0  0
  181.7690  179.8810  138.7940 C   0  0  2  0  0  3  0  0  0  0  0  0
  181.5110  178.5870  138.3390 O   0  0  0  0  0  1  0  0  0  0  0  0
  181.3280  180.8780  137.7700 C   0  0  0  0  0  0  0  0  0  0  0  0
  180.3560  181.3580  135.6080 C   0  0  0  0  0  3  0  0  0  0  0  0
  181.0250  183.1410  137.0510 N   0  0  0  0  0  0  0  0  0  0  0  0
  180.4850  182.7230  135.8760 C   0  0  0  0  0  3  0  0  0  0  0  0
  181.4490  182.2560  137.9940 C   0  0  0  0  0  3  0  0  0  0  0  0
  180.7830  180.4340  136.5640 C   0  0  0  0  0  3  0  0  0  0  0  0
  190.4740  176.5740  142.4630 C   0  0  0  0  0  2  0  0  0  0  0  0
  191.1720  177.3320  143.5780 C   0  0  0  0  0  2  0  0  0  0  0  0
  188.2820  177.5070  146.0220 C   0  0  0  0  0  3  0  0  0  0  0  0
  190.2610  176.7660  147.2080 C   0  0  0  0  0  3  0  0  0  0  0  0
  188.9030  177.0990  147.2080 C   0  0  0  0  0  0  0  0  0  0  0  0
  189.0180  177.5790  144.8370 C   0  0  0  0  0  3  0  0  0  0  0  0
  190.3780  177.2410  144.8340 C   0  0  0  0  0  0  0  0  0  0  0  0
  188.1900  177.0360  148.3570 F   0  0  0  0  0  0  0  0  0  0  0  0
  190.9990  176.8390  146.0220 C   0  0  0  0  0  3  0  0  0  0  0  0
  1  7  1  0  0  0  0
  2 11  2  0  0  0  0
  2 12  1  0  0  0  0
  3 14  1  0  0  0  0
  4  1  2  0  0  0  0
  4  8  1  0  0  0  0
  5  1  1  0  0  0  0
  6  3  1  0  0  0  0
  6 10  2  0  0  0  0
  7  3  2  0  0  0  0
  8  6  1  0  0  0  0
 10  9  1  0  0  0  0
 10  2  1  0  0  0  0
 12 35  1  1  0  0  0
 13  9  1  6  0  0  0
 13 12  1  0  0  0  0
 14 11  1  0  0  0  0
 15 18  1  6  0  0  0
 15 16  1  0  0  0  0
 17 13  1  0  0  0  0
 17 15  1  0  0  0  0
 17 16  1  1  0  0  0
 19 20  1  6  0  0  0
 19 22  1  0  0  0  0
 19 18  1  0  0  0  0
 21 20  1  0  0  0  0
 22 26  1  6  0  0  0
 22 23  1  0  0  0  0
 23 25  1  0  0  0  0
 25 24  1  0  0  0  0
 27 28  1  6  0  0  0
 27 26  1  0  0  0  0
 29 33  1  0  0  0  0
 29 27  1  0  0  0  0
 30 32  2  0  0  0  0
 30 34  1  0  0  0  0
 31 33  2  0  0  0  0
 32 31  1  0  0  0  0
 34 29  2  0  0  0  0
 35 36  1  0  0  0  0
 36 41  1  0  0  0  0
 37 39  1  0  0  0  0
 38 39  2  0  0  0  0
 39 42  1  0  0  0  0
 40 37  2  0  0  0  0
 41 40  1  0  0  0  0
 41 43  2  0  0  0  0
 43 38  1  0  0  0  0
M  END
>  <MODEL>
6

>  <REMARK>
 VINA RESULT:      -7.6      2.227      3.370
  Name = 
  13 active torsions:
  status: ('A' for Active; 'I' for Inactive)
    1  A    between atoms: C_1  and  C_28
    2  A    between atoms: C_1  and  C_34
    3  A    between atoms: C_2  and  O_6
    4  A    between atoms: C_3  and  C_4
    5  A    between atoms: C_3  and  O_6
    6  A    between atoms: C_3  and  C_12
    7  A    between atoms: C_4  and  O_15
    8  A    between atoms: C_4  and  C_22
    9  A    between atoms: C_11  and  C_14
   10  A    between atoms: C_13  and  N_38
   11  A    between atoms: C_14  and  C_22
   12  A    between atoms: O_15  and  C_42
   13  A    between atoms: C_28  and  C_35
                            x       y       z     vdW  Elec       q    Type
                         _______ _______ _______ _____ _____    ______ ____

>  <TORSDO>
F 13

$$$$
=
 OpenBabel11052416303D

 43 48  0  0  1  0  0  0  0  0999 V2000
  192.0840  175.8800  146.9060 C   0  0  0  0  0  0  0  0  0  0  0  0
  189.3910  177.7920  143.1100 C   0  0  0  0  0  0  0  0  0  0  0  0
  190.5720  177.2390  145.5540 C   0  0  0  0  0  0  0  0  0  0  0  0
  192.4370  175.0970  145.8800 C   0  0  0  0  0  3  0  0  0  0  0  0
  192.7720  175.5800  148.4880 Cl  0  0  0  0  0  0  0  0  0  0  0  0
  190.9180  176.4050  144.3750 C   0  0  0  0  0  0  0  0  0  0  0  0
  191.1260  176.9870  146.7390 C   0  0  0  0  0  3  0  0  0  0  0  0
  191.9020  175.2730  144.4810 C   0  0  0  0  0  2  0  0  0  0  0  0
  190.4770  176.1160  141.9710 N   0  0  0  0  0  2  0  0  0  0  0  0
  190.3170  176.7230  143.2300 C   0  0  0  0  0  0  0  0  0  0  0  0
  189.0670  178.5700  144.1460 C   0  0  0  0  0  3  0  0  0  0  0  0
  188.9540  177.8480  141.6890 C   0  0  1  0  0  3  0  0  0  0  0  0
  189.6810  176.7540  140.9910 N   0  0  1  0  0  0  0  0  0  0  0  0
  189.6550  178.2980  145.3990 O   0  0  0  0  0  0  0  0  0  0  0  0
  190.5700  176.5680  138.7450 C   0  0  2  0  0  3  0  0  0  0  0  0
  189.8180  177.8780  138.8350 C   0  0  0  0  0  2  0  0  0  0  0  0
  190.5930  177.3680  140.0350 C   0  0  1  0  0  3  0  0  0  0  0  0
  191.7710  176.7640  138.0600 O   0  0  0  0  0  0  0  0  0  0  0  0
  191.6640  175.9650  136.9140 C   0  0  2  0  0  3  0  0  0  0  0  0
  190.5840  174.9010  137.0870 C   0  0  0  0  0  2  0  0  0  0  0  0
  190.0940  174.4810  135.8490 O   0  0  0  0  0  1  0  0  0  0  0  0
  193.0170  175.3720  136.5030 C   0  0  1  0  0  3  0  0  0  0  0  0
  193.9820  176.3830  136.4770 O   0  0  0  0  0  0  0  0  0  0  0  0
  195.6960  177.2260  135.0640 C   0  0  0  0  0  1  0  0  0  0  0  0
  194.3870  176.4690  135.1430 C   0  0  0  0  0  2  0  0  0  0  0  0
  193.4590  174.2590  137.4530 C   0  0  0  0  0  2  0  0  0  0  0  0
  194.7620  173.6150  136.9920 C   0  0  2  0  0  3  0  0  0  0  0  0
  194.6600  172.2280  137.1020 O   0  0  0  0  0  1  0  0  0  0  0  0
  195.9370  174.1020  137.7800 C   0  0  0  0  0  0  0  0  0  0  0  0
  198.2820  174.6840  137.8860 C   0  0  0  0  0  3  0  0  0  0  0  0
  196.8980  174.9020  139.8210 N   0  0  0  0  0  0  0  0  0  0  0  0
  198.1160  175.0270  139.2290 C   0  0  0  0  0  3  0  0  0  0  0  0
  195.8160  174.4460  139.1330 C   0  0  0  0  0  3  0  0  0  0  0  0
  197.1830  174.2170  137.1610 C   0  0  0  0  0  3  0  0  0  0  0  0
  187.4570  177.6020  141.5970 C   0  0  0  0  0  2  0  0  0  0  0  0
  186.7140  178.9260  141.5310 C   0  0  0  0  0  2  0  0  0  0  0  0
  184.2480  178.7340  144.4010 C   0  0  0  0  0  3  0  0  0  0  0  0
  183.0240  178.6200  142.3130 C   0  0  0  0  0  3  0  0  0  0  0  0
  183.0360  178.6280  143.7110 C   0  0  0  0  0  0  0  0  0  0  0  0
  185.4480  178.8370  143.6920 C   0  0  0  0  0  3  0  0  0  0  0  0
  185.4380  178.8350  142.2910 C   0  0  0  0  0  0  0  0  0  0  0  0
  181.8750  178.5230  144.3990 F   0  0  0  0  0  0  0  0  0  0  0  0
  184.2250  178.7220  141.6030 C   0  0  0  0  0  3  0  0  0  0  0  0
  1  5  1  0  0  0  0
  2 10  1  0  0  0  0
  2 11  2  0  0  0  0
  3  7  2  0  0  0  0
  4  1  2  0  0  0  0
  6  8  1  0  0  0  0
  6  3  1  0  0  0  0
  7  1  1  0  0  0  0
  8  4  1  0  0  0  0
  9 10  1  0  0  0  0
 10  6  2  0  0  0  0
 11 14  1  0  0  0  0
 12 35  1  1  0  0  0
 12  2  1  0  0  0  0
 13 12  1  0  0  0  0
 13  9  1  1  0  0  0
 14  3  1  0  0  0  0
 15 18  1  6  0  0  0
 15 16  1  0  0  0  0
 15 17  1  0  0  0  0
 17 16  1  6  0  0  0
 17 13  1  0  0  0  0
 19 20  1  1  0  0  0
 19 18  1  0  0  0  0
 21 20  1  0  0  0  0
 22 19  1  0  0  0  0
 22 26  1  1  0  0  0
 23 22  1  0  0  0  0
 24 25  1  0  0  0  0
 25 23  1  0  0  0  0
 27 28  1  1  0  0  0
 27 26  1  0  0  0  0
 27 29  1  0  0  0  0
 29 33  1  0  0  0  0
 30 32  2  0  0  0  0
 32 31  1  0  0  0  0
 33 31  2  0  0  0  0
 34 29  2  0  0  0  0
 34 30  1  0  0  0  0
 36 35  1  0  0  0  0
 36 41  1  0  0  0  0
 38 39  2  0  0  0  0
 39 42  1  0  0  0  0
 39 37  1  0  0  0  0
 40 37  2  0  0  0  0
 41 40  1  0  0  0  0
 43 41  2  0  0  0  0
 43 38  1  0  0  0  0
M  END
>  <MODEL>
7

>  <REMARK>
 VINA RESULT:      -7.5      4.004      9.240
  Name = 
  13 active torsions:
  status: ('A' for Active; 'I' for Inactive)
    1  A    between atoms: C_1  and  C_28
    2  A    between atoms: C_1  and  C_34
    3  A    between atoms: C_2  and  O_6
    4  A    between atoms: C_3  and  C_4
    5  A    between atoms: C_3  and  O_6
    6  A    between atoms: C_3  and  C_12
    7  A    between atoms: C_4  and  O_15
    8  A    between atoms: C_4  and  C_22
    9  A    between atoms: C_11  and  C_14
   10  A    between atoms: C_13  and  N_38
   11  A    between atoms: C_14  and  C_22
   12  A    between atoms: O_15  and  C_42
   13  A    between atoms: C_28  and  C_35
                            x       y       z     vdW  Elec       q    Type
                         _______ _______ _______ _____ _____    ______ ____

>  <TORSDO>
F 13

$$$$
=
 OpenBabel11052416303D

 43 48  0  0  1  0  0  0  0  0999 V2000
  182.8100  178.6990  143.6880 C   0  0  0  0  0  0  0  0  0  0  0  0
  187.7680  177.8470  143.6010 C   0  0  0  0  0  0  0  0  0  0  0  0
  185.0970  178.0920  144.2910 C   0  0  0  0  0  0  0  0  0  0  0  0
  183.1380  179.0410  142.4360 C   0  0  0  0  0  3  0  0  0  0  0  0
  181.1440  178.8470  144.2060 Cl  0  0  0  0  0  0  0  0  0  0  0  0
  185.5280  178.4580  142.9180 C   0  0  0  0  0  0  0  0  0  0  0  0
  183.8180  178.2070  144.6440 C   0  0  0  0  0  3  0  0  0  0  0  0
  184.5420  178.9500  141.8940 C   0  0  0  0  0  2  0  0  0  0  0  0
  187.4900  178.5690  141.4350 N   0  0  0  0  0  2  0  0  0  0  0  0
  186.8250  178.3170  142.6490 C   0  0  0  0  0  0  0  0  0  0  0  0
  187.4130  177.4970  144.8400 C   0  0  0  0  0  3  0  0  0  0  0  0
  189.0970  177.8060  142.9310 C   0  0  1  0  0  3  0  0  0  0  0  0
  188.8700  178.2750  141.5380 N   0  0  1  0  0  0  0  0  0  0  0  0
  186.0580  177.6220  145.2090 O   0  0  0  0  0  0  0  0  0  0  0  0
  189.6610  177.6870  139.3250 C   0  0  2  0  0  3  0  0  0  0  0  0
  190.6170  177.0830  140.3300 C   0  0  0  0  0  2  0  0  0  0  0  0
  189.1350  177.1550  140.6460 C   0  0  1  0  0  3  0  0  0  0  0  0
  189.3970  176.7600  138.3160 O   0  0  0  0  0  0  0  0  0  0  0  0
  189.3620  177.5140  137.1360 C   0  0  2  0  0  3  0  0  0  0  0  0
  189.0300  178.9750  137.4290 C   0  0  0  0  0  2  0  0  0  0  0  0
  187.8370  179.3500  136.8090 O   0  0  0  0  0  1  0  0  0  0  0  0
  188.4290  176.8940  136.0880 C   0  0  1  0  0  3  0  0  0  0  0  0
  189.1860  176.3960  135.0240 O   0  0  0  0  0  0  0  0  0  0  0  0
  190.9810  174.8460  134.8950 C   0  0  0  0  0  1  0  0  0  0  0  0
  189.5910  175.1220  135.4280 C   0  0  0  0  0  2  0  0  0  0  0  0
  187.5740  175.7770  136.6840 C   0  0  0  0  0  2  0  0  0  0  0  0
  186.0870  176.1050  136.6010 C   0  0  2  0  0  3  0  0  0  0  0  0
  185.7530  177.0100  137.6100 O   0  0  0  0  0  1  0  0  0  0  0  0
  185.2360  174.8800  136.7140 C   0  0  0  0  0  0  0  0  0  0  0  0
  184.9330  172.6160  137.5080 C   0  0  0  0  0  3  0  0  0  0  0  0
  183.1930  173.7080  136.2870 N   0  0  0  0  0  0  0  0  0  0  0  0
  183.6540  172.6120  136.9470 C   0  0  0  0  0  3  0  0  0  0  0  0
  183.9520  174.8300  136.1560 C   0  0  0  0  0  3  0  0  0  0  0  0
  185.7260  173.7590  137.3870 C   0  0  0  0  0  3  0  0  0  0  0  0
  190.0600  178.7500  143.6340 C   0  0  0  0  0  2  0  0  0  0  0  0
  191.4260  178.0980  143.7630 C   0  0  0  0  0  2  0  0  0  0  0  0
  191.0170  176.9180  147.3410 C   0  0  0  0  0  3  0  0  0  0  0  0
  192.1180  175.1760  146.0660 C   0  0  0  0  0  3  0  0  0  0  0  0
  191.5970  175.6470  147.2760 C   0  0  0  0  0  0  0  0  0  0  0  0
  190.9560  177.7170  146.1950 C   0  0  0  0  0  3  0  0  0  0  0  0
  191.4720  177.2450  144.9820 C   0  0  0  0  0  0  0  0  0  0  0  0
  191.6610  174.8760  148.3870 F   0  0  0  0  0  0  0  0  0  0  0  0
  192.0570  175.9750  144.9200 C   0  0  0  0  0  3  0  0  0  0  0  0
  1  5  1  0  0  0  0
  1  7  1  0  0  0  0
  2 11  2  0  0  0  0
  3  7  2  0  0  0  0
  3 14  1  0  0  0  0
  4  1  2  0  0  0  0
  6  3  1  0  0  0  0
  8  4  1  0  0  0  0
  8  6  1  0  0  0  0
  9 10  1  0  0  0  0
 10  6  2  0  0  0  0
 10  2  1  0  0  0  0
 11 14  1  0  0  0  0
 12  2  1  0  0  0  0
 12 35  1  1  0  0  0
 13  9  1  1  0  0  0
 13 12  1  0  0  0  0
 15 18  1  6  0  0  0
 15 16  1  0  0  0  0
 15 17  1  0  0  0  0
 17 16  1  1  0  0  0
 17 13  1  0  0  0  0
 19 20  1  1  0  0  0
 19 18  1  0  0  0  0
 21 20  1  0  0  0  0
 22 26  1  1  0  0  0
 22 19  1  0  0  0  0
 23 25  1  0  0  0  0
 23 22  1  0  0  0  0
 24 25  1  0  0  0  0
 27 26  1  0  0  0  0
 27 29  1  0  0  0  0
 27 28  1  1  0  0  0
 29 34  1  0  0  0  0
 31 32  2  0  0  0  0
 32 30  1  0  0  0  0
 33 31  1  0  0  0  0
 33 29  2  0  0  0  0
 34 30  2  0  0  0  0
 35 36  1  0  0  0  0
 36 41  1  0  0  0  0
 38 39  2  0  0  0  0
 39 37  1  0  0  0  0
 39 42  1  0  0  0  0
 40 37  2  0  0  0  0
 41 40  1  0  0  0  0
 43 41  2  0  0  0  0
 43 38  1  0  0  0  0
M  END
>  <MODEL>
8

>  <REMARK>
 VINA RESULT:      -7.4      3.793      7.075
  Name = 
  13 active torsions:
  status: ('A' for Active; 'I' for Inactive)
    1  A    between atoms: C_1  and  C_28
    2  A    between atoms: C_1  and  C_34
    3  A    between atoms: C_2  and  O_6
    4  A    between atoms: C_3  and  C_4
    5  A    between atoms: C_3  and  O_6
    6  A    between atoms: C_3  and  C_12
    7  A    between atoms: C_4  and  O_15
    8  A    between atoms: C_4  and  C_22
    9  A    between atoms: C_11  and  C_14
   10  A    between atoms: C_13  and  N_38
   11  A    between atoms: C_14  and  C_22
   12  A    between atoms: O_15  and  C_42
   13  A    between atoms: C_28  and  C_35
                            x       y       z     vdW  Elec       q    Type
                         _______ _______ _______ _____ _____    ______ ____

>  <TORSDO>
F 13

$$$$
=
 OpenBabel11052416303D

 43 48  0  0  1  0  0  0  0  0999 V2000
  182.8090  178.7290  143.7050 C   0  0  0  0  0  0  0  0  0  0  0  0
  187.7660  177.8810  143.5420 C   0  0  0  0  0  0  0  0  0  0  0  0
  185.1140  178.1680  144.2860 C   0  0  0  0  0  0  0  0  0  0  0  0
  183.1020  178.9840  142.4250 C   0  0  0  0  0  3  0  0  0  0  0  0
  181.1580  178.9090  144.2580 Cl  0  0  0  0  0  0  0  0  0  0  0  0
  185.5070  178.4400  142.8800 C   0  0  0  0  0  0  0  0  0  0  0  0
  183.8450  178.3050  144.6650 C   0  0  0  0  0  3  0  0  0  0  0  0
  184.4920  178.8590  141.8520 C   0  0  0  0  0  2  0  0  0  0  0  0
  187.4270  178.4520  141.3400 N   0  0  0  0  0  2  0  0  0  0  0  0
  186.7960  178.2830  142.5860 C   0  0  0  0  0  0  0  0  0  0  0  0
  187.4460  177.6160  144.8110 C   0  0  0  0  0  3  0  0  0  0  0  0
  189.0760  177.7960  142.8400 C   0  0  1  0  0  3  0  0  0  0  0  0
  188.8100  178.1680  141.4250 N   0  0  1  0  0  0  0  0  0  0  0  0
  186.1000  177.7640  145.2070 O   0  0  0  0  0  0  0  0  0  0  0  0
  189.3440  177.4300  139.1810 C   0  0  2  0  0  3  0  0  0  0  0  0
  190.4800  177.0070  140.0860 C   0  0  0  0  0  2  0  0  0  0  0  0
  189.0550  176.9900  140.6050 C   0  0  1  0  0  3  0  0  0  0  0  0
  189.0320  176.3880  138.3050 O   0  0  0  0  0  0  0  0  0  0  0  0
  188.3180  176.9970  137.2640 C   0  0  2  0  0  3  0  0  0  0  0  0
  187.6030  178.2530  137.7520 C   0  0  0  0  0  2  0  0  0  0  0  0
  187.8230  179.3220  136.8820 O   0  0  0  0  0  1  0  0  0  0  0  0
  187.3730  176.0100  136.5670 C   0  0  1  0  0  3  0  0  0  0  0  0
  187.3370  174.8110  137.2840 O   0  0  0  0  0  0  0  0  0  0  0  0
  187.5500  172.4700  136.9390 C   0  0  0  0  0  1  0  0  0  0  0  0
  187.8870  173.8550  136.4270 C   0  0  0  0  0  2  0  0  0  0  0  0
  185.9610  176.5780  136.4360 C   0  0  0  0  0  2  0  0  0  0  0  0
  184.9160  175.6110  136.9810 C   0  0  2  0  0  3  0  0  0  0  0  0
  184.3260  174.9170  135.9230 O   0  0  0  0  0  1  0  0  0  0  0  0
  183.8630  176.3140  137.7770 C   0  0  0  0  0  0  0  0  0  0  0  0
  182.7970  178.3720  138.4690 C   0  0  0  0  0  3  0  0  0  0  0  0
  181.9910  176.2700  139.2680 N   0  0  0  0  0  0  0  0  0  0  0  0
  181.8980  177.6260  139.2340 C   0  0  0  0  0  3  0  0  0  0  0  0
  182.9490  175.6050  138.5660 C   0  0  0  0  0  3  0  0  0  0  0  0
  183.7850  177.7080  137.7390 C   0  0  0  0  0  3  0  0  0  0  0  0
  190.0550  178.7870  143.4510 C   0  0  0  0  0  2  0  0  0  0  0  0
  191.4220  178.1420  143.6030 C   0  0  0  0  0  2  0  0  0  0  0  0
  190.9420  176.9210  147.1580 C   0  0  0  0  0  3  0  0  0  0  0  0
  192.0840  175.2010  145.8900 C   0  0  0  0  0  3  0  0  0  0  0  0
  191.5330  175.6550  147.0920 C   0  0  0  0  0  0  0  0  0  0  0  0
  190.9000  177.7320  146.0200 C   0  0  0  0  0  3  0  0  0  0  0  0
  191.4470  177.2770  144.8130 C   0  0  0  0  0  0  0  0  0  0  0  0
  191.5780  174.8730  148.1960 F   0  0  0  0  0  0  0  0  0  0  0  0
  192.0430  176.0120  144.7510 C   0  0  0  0  0  3  0  0  0  0  0  0
  1  5  1  0  0  0  0
  1  7  1  0  0  0  0
  2 11  2  0  0  0  0
  3  7  2  0  0  0  0
  3 14  1  0  0  0  0
  4  1  2  0  0  0  0
  6  3  1  0  0  0  0
  8  4  1  0  0  0  0
  8  6  1  0  0  0  0
  9 10  1  0  0  0  0
 10  6  2  0  0  0  0
 10  2  1  0  0  0  0
 11 14  1  0  0  0  0
 12 35  1  1  0  0  0
 12  2  1  0  0  0  0
 13  9  1  1  0  0  0
 13 12  1  0  0  0  0
 15 18  1  6  0  0  0
 15 16  1  0  0  0  0
 15 17  1  0  0  0  0
 17 16  1  1  0  0  0
 17 13  1  0  0  0  0
 19 20  1  1  0  0  0
 19 18  1  0  0  0  0
 21 20  1  0  0  0  0
 22 26  1  1  0  0  0
 22 19  1  0  0  0  0
 22 23  1  0  0  0  0
 25 24  1  0  0  0  0
 25 23  1  0  0  0  0
 26 27  1  0  0  0  0
 27 28  1  6  0  0  0
 27 29  1  0  0  0  0
 29 33  1  0  0  0  0
 30 32  2  0  0  0  0
 32 31  1  0  0  0  0
 33 31  2  0  0  0  0
 34 29  2  0  0  0  0
 34 30  1  0  0  0  0
 35 36  1  0  0  0  0
 36 41  1  0  0  0  0
 38 39  2  0  0  0  0
 39 37  1  0  0  0  0
 39 42  1  0  0  0  0
 40 37  2  0  0  0  0
 41 40  1  0  0  0  0
 43 41  2  0  0  0  0
 43 38  1  0  0  0  0
M  END
>  <MODEL>
9

>  <REMARK>
 VINA RESULT:      -7.3      3.740      6.445
  Name = 
  13 active torsions:
  status: ('A' for Active; 'I' for Inactive)
    1  A    between atoms: C_1  and  C_28
    2  A    between atoms: C_1  and  C_34
    3  A    between atoms: C_2  and  O_6
    4  A    between atoms: C_3  and  C_4
    5  A    between atoms: C_3  and  O_6
    6  A    between atoms: C_3  and  C_12
    7  A    between atoms: C_4  and  O_15
    8  A    between atoms: C_4  and  C_22
    9  A    between atoms: C_11  and  C_14
   10  A    between atoms: C_13  and  N_38
   11  A    between atoms: C_14  and  C_22
   12  A    between atoms: O_15  and  C_42
   13  A    between atoms: C_28  and  C_35
                            x       y       z     vdW  Elec       q    Type
                         _______ _______ _______ _____ _____    ______ ____

>  <TORSDO>
F 13

$$$$
