=
 OpenBabel11052413543D

 27 31  0  0  1  0  0  0  0  0999 V2000
  186.6840  178.8970  140.5680 N   0  0  0  0  0  0  0  0  0  0  0  0
  188.6020  177.4130  140.5360 N   0  0  0  0  0  0  0  0  0  0  0  0
  187.2280  177.5960  144.0500 C   0  0  0  0  0  2  0  0  0  0  0  0
  189.8150  176.8620  140.1020 N   0  0  0  0  0  2  0  0  0  0  0  0
  184.9790  178.7400  143.7490 C   0  0  0  0  0  0  0  0  0  0  0  0
  187.8410  178.4210  139.7840 C   0  0  1  0  0  3  0  0  0  0  0  0
  189.5400  176.3900  142.3940 C   0  0  1  0  0  3  0  0  0  0  0  0
  186.4800  178.6160  141.8230 C   0  0  0  0  0  0  0  0  0  0  0  0
  188.4310  177.2160  141.9050 C   0  0  0  0  0  0  0  0  0  0  0  0
  185.7390  177.6070  144.4120 C   0  0  0  0  0  2  0  0  0  0  0  0
  190.3120  176.0770  141.1790 N   0  0  0  0  0  2  0  0  0  0  0  0
  185.3100  179.1610  142.5230 C   0  0  0  0  0  3  0  0  0  0  0  0
  187.4100  177.7500  142.5690 C   0  0  0  0  0  0  0  0  0  0  0  0
  190.8620  178.4270  143.1120 C   0  0  0  0  0  3  0  0  0  0  0  0
  191.9790  178.4520  145.2240 N   0  0  0  0  0  0  0  0  0  0  0  0
  191.5440  177.1930  145.5000 C   0  0  0  0  0  3  0  0  0  0  0  0
  190.7460  176.5090  144.5790 C   0  0  0  0  0  3  0  0  0  0  0  0
  190.4000  177.1300  143.3770 C   0  0  0  0  0  0  0  0  0  0  0  0
  191.6570  179.0770  144.0590 C   0  0  0  0  0  3  0  0  0  0  0  0
  186.4550  177.2890  135.8540 C   0  0  0  0  0  2  0  0  0  0  0  0
  187.3700  177.8650  138.4330 C   0  0  0  0  0  3  0  0  0  0  0  0
  188.1820  178.4700  137.2730 C   0  0  0  0  0  2  0  0  0  0  0  0
  187.4530  178.4400  135.9230 C   0  0  0  0  0  2  0  0  0  0  0  0
  185.3760  177.4240  136.9360 C   0  0  0  0  0  2  0  0  0  0  0  0
  185.8740  178.1130  138.2140 C   0  0  0  0  0  2  0  0  0  0  0  0
  182.5420  179.0540  143.9740 C   0  0  0  0  0  1  0  0  0  0  0  0
  183.8760  179.3240  144.3760 O   0  0  0  0  0  0  0  0  0  0  0  0
  1  8  2  0  0  0  0
  2  9  1  0  0  0  0
  3 10  1  0  0  0  0
  4  2  1  0  0  0  0
  4 11  1  0  0  0  0
  5 27  1  0  0  0  0
  5 10  1  0  0  0  0
  6 21  1  6  0  0  0
  6  2  1  0  0  0  0
  6  1  1  0  0  0  0
  7 18  1  1  0  0  0
  8 12  1  0  0  0  0
  8 13  1  0  0  0  0
  9  7  1  0  0  0  0
  9 13  2  0  0  0  0
 11  7  1  0  0  0  0
 12  5  2  0  0  0  0
 13  3  1  0  0  0  0
 14 18  2  0  0  0  0
 14 19  1  0  0  0  0
 15 16  1  0  0  0  0
 17 16  2  0  0  0  0
 18 17  1  0  0  0  0
 19 15  2  0  0  0  0
 20 23  1  0  0  0  0
 20 24  1  0  0  0  0
 22 21  1  0  0  0  0
 23 22  1  0  0  0  0
 24 25  1  0  0  0  0
 25 21  1  0  0  0  0
 26 27  1  0  0  0  0
M  END
>  <MODEL>
1

>  <REMARK>
 VINA RESULT:      -8.0      0.000      0.000
  Name = 
  3 active torsions:
  status: ('A' for Active; 'I' for Inactive)
    1  A    between atoms: C_9  and  C_15
    2  A    between atoms: C_13  and  O_22
    3  A    between atoms: C_14  and  C_17
                            x       y       z     vdW  Elec       q    Type
                         _______ _______ _______ _____ _____    ______ ____

>  <TORSDO>
F 3

$$$$
=
 OpenBabel11052413543D

 27 31  0  0  1  0  0  0  0  0999 V2000
  188.2700  176.6810  143.9800 N   0  0  0  0  0  0  0  0  0  0  0  0
  190.2650  177.1830  142.6950 N   0  0  0  0  0  0  0  0  0  0  0  0
  187.2330  178.4590  140.8370 C   0  0  0  0  0  2  0  0  0  0  0  0
  191.5820  177.0600  142.2330 N   0  0  0  0  0  2  0  0  0  0  0  0
  185.3730  178.3090  142.5620 C   0  0  0  0  0  0  0  0  0  0  0  0
  189.7170  176.4280  143.8300 C   0  0  1  0  0  3  0  0  0  0  0  0
  190.2970  178.1540  140.5890 C   0  0  1  0  0  3  0  0  0  0  0  0
  187.5430  177.3220  143.1110 C   0  0  0  0  0  0  0  0  0  0  0  0
  189.4530  177.7660  141.7230 C   0  0  0  0  0  0  0  0  0  0  0  0
  186.0320  179.1520  141.4870 C   0  0  0  0  0  2  0  0  0  0  0  0
  191.6610  177.8090  141.0270 N   0  0  0  0  0  2  0  0  0  0  0  0
  186.1020  177.4990  143.3390 C   0  0  0  0  0  3  0  0  0  0  0  0
  188.1380  177.8830  141.8850 C   0  0  0  0  0  0  0  0  0  0  0  0
  190.5060  176.1370  139.0720 C   0  0  0  0  0  3  0  0  0  0  0  0
  189.2640  176.0310  137.0340 N   0  0  0  0  0  0  0  0  0  0  0  0
  188.7110  177.2500  137.2760 C   0  0  0  0  0  3  0  0  0  0  0  0
  189.0440  177.9540  138.4350 C   0  0  0  0  0  3  0  0  0  0  0  0
  189.9470  177.3930  139.3420 C   0  0  0  0  0  0  0  0  0  0  0  0
  190.1470  175.4650  137.9010 C   0  0  0  0  0  3  0  0  0  0  0  0
  191.7080  176.9740  147.6220 C   0  0  0  0  0  2  0  0  0  0  0  0
  190.4510  176.7740  145.1320 C   0  0  0  0  0  3  0  0  0  0  0  0
  191.6220  175.8070  145.3810 C   0  0  0  0  0  2  0  0  0  0  0  0
  192.0340  175.6970  146.8560 C   0  0  0  0  0  2  0  0  0  0  0  0
  190.2010  177.2630  147.6050 C   0  0  0  0  0  2  0  0  0  0  0  0
  189.4990  176.7690  146.3330 C   0  0  0  0  0  2  0  0  0  0  0  0
  183.4820  178.8430  144.0540 C   0  0  0  0  0  1  0  0  0  0  0  0
  184.0020  178.4070  142.8070 O   0  0  0  0  0  0  0  0  0  0  0  0
  2  6  1  0  0  0  0
  3 10  1  0  0  0  0
  3 13  1  0  0  0  0
  4  2  1  0  0  0  0
  5 27  1  0  0  0  0
  5 12  2  0  0  0  0
  6  1  1  0  0  0  0
  6 21  1  1  0  0  0
  7 18  1  6  0  0  0
  7 11  1  0  0  0  0
  7  9  1  0  0  0  0
  8 12  1  0  0  0  0
  8  1  2  0  0  0  0
  9 13  2  0  0  0  0
  9  2  1  0  0  0  0
 10  5  1  0  0  0  0
 11  4  1  0  0  0  0
 13  8  1  0  0  0  0
 14 18  1  0  0  0  0
 15 16  2  0  0  0  0
 15 19  1  0  0  0  0
 16 17  1  0  0  0  0
 17 18  2  0  0  0  0
 19 14  2  0  0  0  0
 21 22  1  0  0  0  0
 21 25  1  0  0  0  0
 22 23  1  0  0  0  0
 23 20  1  0  0  0  0
 24 20  1  0  0  0  0
 25 24  1  0  0  0  0
 27 26  1  0  0  0  0
M  END
>  <MODEL>
2

>  <REMARK>
 VINA RESULT:      -7.5      2.041      6.300
  Name = 
  3 active torsions:
  status: ('A' for Active; 'I' for Inactive)
    1  A    between atoms: C_9  and  C_15
    2  A    between atoms: C_13  and  O_22
    3  A    between atoms: C_14  and  C_17
                            x       y       z     vdW  Elec       q    Type
                         _______ _______ _______ _____ _____    ______ ____

>  <TORSDO>
F 3

$$$$
=
 OpenBabel11052413543D

 27 31  0  0  1  0  0  0  0  0999 V2000
  186.0500  178.8520  141.0480 N   0  0  0  0  0  0  0  0  0  0  0  0
  183.6620  178.5670  141.3610 N   0  0  0  0  0  0  0  0  0  0  0  0
  184.5410  177.8460  137.7580 C   0  0  0  0  0  2  0  0  0  0  0  0
  182.3940  178.7380  141.9310 N   0  0  0  0  0  2  0  0  0  0  0  0
  187.0770  177.6850  137.7860 C   0  0  0  0  0  0  0  0  0  0  0  0
  184.9060  179.0760  141.9540 C   0  0  1  0  0  3  0  0  0  0  0  0
  182.1370  178.0810  139.6820 C   0  0  1  0  0  3  0  0  0  0  0  0
  185.9430  178.4450  139.8160 C   0  0  0  0  0  0  0  0  0  0  0  0
  183.5570  178.2430  140.0080 C   0  0  0  0  0  0  0  0  0  0  0  0
  185.7790  177.0730  137.2930 C   0  0  0  0  0  2  0  0  0  0  0  0
  181.4510  178.2690  140.9740 N   0  0  0  0  0  2  0  0  0  0  0  0
  187.1420  178.2770  138.9850 C   0  0  0  0  0  3  0  0  0  0  0  0
  184.6270  178.1440  139.2250 C   0  0  0  0  0  0  0  0  0  0  0  0
  181.8280  180.4800  138.9330 C   0  0  0  0  0  3  0  0  0  0  0  0
  180.7870  180.9610  136.8380 N   0  0  0  0  0  0  0  0  0  0  0  0
  180.6180  179.6350  136.5860 C   0  0  0  0  0  3  0  0  0  0  0  0
  181.0550  178.6840  137.5120 C   0  0  0  0  0  3  0  0  0  0  0  0
  181.6660  179.1080  138.6940 C   0  0  0  0  0  0  0  0  0  0  0  0
  181.3780  181.3990  137.9820 C   0  0  0  0  0  3  0  0  0  0  0  0
  185.9190  177.6090  145.8870 C   0  0  0  0  0  2  0  0  0  0  0  0
  185.1770  178.4250  143.3160 C   0  0  0  0  0  3  0  0  0  0  0  0
  184.7890  179.3710  144.4680 C   0  0  0  0  0  2  0  0  0  0  0  0
  185.5210  179.0770  145.7850 C   0  0  0  0  0  2  0  0  0  0  0  0
  186.8750  177.2140  144.7530 C   0  0  0  0  0  2  0  0  0  0  0  0
  186.6420  178.0000  143.4550 C   0  0  0  0  0  2  0  0  0  0  0  0
  189.1780  178.6550  136.9300 C   0  0  0  0  0  1  0  0  0  0  0  0
  188.2460  177.5890  137.0290 O   0  0  0  0  0  0  0  0  0  0  0  0
  1  6  1  0  0  0  0
  2  4  1  0  0  0  0
  2  6  1  0  0  0  0
  3 13  1  0  0  0  0
  5 12  2  0  0  0  0
  6 21  1  1  0  0  0
  7 18  1  6  0  0  0
  7  9  1  0  0  0  0
  7 11  1  0  0  0  0
  8  1  2  0  0  0  0
  9  2  1  0  0  0  0
 10  3  1  0  0  0  0
 10  5  1  0  0  0  0
 11  4  1  0  0  0  0
 12  8  1  0  0  0  0
 13  8  1  0  0  0  0
 13  9  2  0  0  0  0
 15 19  1  0  0  0  0
 16 15  2  0  0  0  0
 16 17  1  0  0  0  0
 17 18  2  0  0  0  0
 18 14  1  0  0  0  0
 19 14  2  0  0  0  0
 21 25  1  0  0  0  0
 21 22  1  0  0  0  0
 22 23  1  0  0  0  0
 23 20  1  0  0  0  0
 24 20  1  0  0  0  0
 25 24  1  0  0  0  0
 26 27  1  0  0  0  0
 27  5  1  0  0  0  0
M  END
>  <MODEL>
3

>  <REMARK>
 VINA RESULT:      -7.2      3.612      8.442
  Name = 
  3 active torsions:
  status: ('A' for Active; 'I' for Inactive)
    1  A    between atoms: C_9  and  C_15
    2  A    between atoms: C_13  and  O_22
    3  A    between atoms: C_14  and  C_17
                            x       y       z     vdW  Elec       q    Type
                         _______ _______ _______ _____ _____    ______ ____

>  <TORSDO>
F 3

$$$$
=
 OpenBabel11052413543D

 27 31  0  0  1  0  0  0  0  0999 V2000
  187.9300  176.7230  143.5950 N   0  0  0  0  0  0  0  0  0  0  0  0
  189.6720  177.2070  141.9780 N   0  0  0  0  0  0  0  0  0  0  0  0
  186.4080  178.6780  140.7700 C   0  0  0  0  0  2  0  0  0  0  0  0
  190.8730  177.0540  141.2730 N   0  0  0  0  0  2  0  0  0  0  0  0
  184.8970  178.5220  142.8070 C   0  0  0  0  0  0  0  0  0  0  0  0
  189.3110  176.4220  143.1670 C   0  0  1  0  0  3  0  0  0  0  0  0
  189.3550  178.2680  139.9400 C   0  0  1  0  0  3  0  0  0  0  0  0
  187.0830  177.4290  142.9020 C   0  0  0  0  0  0  0  0  0  0  0  0
  188.7200  177.8630  141.1980 C   0  0  0  0  0  0  0  0  0  0  0  0
  185.3810  179.3870  141.6590 C   0  0  0  0  0  2  0  0  0  0  0  0
  190.7600  177.8530  140.1010 N   0  0  0  0  0  2  0  0  0  0  0  0
  185.7200  177.6510  143.4030 C   0  0  0  0  0  3  0  0  0  0  0  0
  187.4650  178.0220  141.6080 C   0  0  0  0  0  0  0  0  0  0  0  0
  187.8980  178.2590  137.8690 C   0  0  0  0  0  3  0  0  0  0  0  0
  187.6530  176.2620  136.5820 N   0  0  0  0  0  0  0  0  0  0  0  0
  188.4710  175.5820  137.4290 C   0  0  0  0  0  3  0  0  0  0  0  0
  189.0310  176.2290  138.5320 C   0  0  0  0  0  3  0  0  0  0  0  0
  188.7450  177.5780  138.7550 C   0  0  0  0  0  0  0  0  0  0  0  0
  187.3580  177.5750  136.7770 C   0  0  0  0  0  3  0  0  0  0  0  0
  191.9720  176.7320  146.5530 C   0  0  0  0  0  2  0  0  0  0  0  0
  190.2890  176.6820  144.3200 C   0  0  0  0  0  3  0  0  0  0  0  0
  191.3880  175.6050  144.3670 C   0  0  0  0  0  2  0  0  0  0  0  0
  192.0360  175.4390  145.7480 C   0  0  0  0  0  2  0  0  0  0  0  0
  190.5200  177.1640  146.7960 C   0  0  0  0  0  2  0  0  0  0  0  0
  189.5630  176.7530  145.6680 C   0  0  0  0  0  2  0  0  0  0  0  0
  183.3400  178.9010  144.6830 C   0  0  0  0  0  1  0  0  0  0  0  0
  183.6010  178.6600  143.3090 O   0  0  0  0  0  0  0  0  0  0  0  0
  2  6  1  0  0  0  0
  3 13  1  0  0  0  0
  3 10  1  0  0  0  0
  4  2  1  0  0  0  0
  5 27  1  0  0  0  0
  5 12  2  0  0  0  0
  6  1  1  0  0  0  0
  6 21  1  1  0  0  0
  7 18  1  6  0  0  0
  7 11  1  0  0  0  0
  7  9  1  0  0  0  0
  8 12  1  0  0  0  0
  8  1  2  0  0  0  0
  9 13  2  0  0  0  0
  9  2  1  0  0  0  0
 10  5  1  0  0  0  0
 11  4  1  0  0  0  0
 13  8  1  0  0  0  0
 14 18  1  0  0  0  0
 15 19  1  0  0  0  0
 15 16  2  0  0  0  0
 16 17  1  0  0  0  0
 17 18  2  0  0  0  0
 19 14  2  0  0  0  0
 20 24  1  0  0  0  0
 21 22  1  0  0  0  0
 21 25  1  0  0  0  0
 22 23  1  0  0  0  0
 23 20  1  0  0  0  0
 25 24  1  0  0  0  0
 27 26  1  0  0  0  0
M  END
>  <MODEL>
4

>  <REMARK>
 VINA RESULT:      -7.1      1.699      6.139
  Name = 
  3 active torsions:
  status: ('A' for Active; 'I' for Inactive)
    1  A    between atoms: C_9  and  C_15
    2  A    between atoms: C_13  and  O_22
    3  A    between atoms: C_14  and  C_17
                            x       y       z     vdW  Elec       q    Type
                         _______ _______ _______ _____ _____    ______ ____

>  <TORSDO>
F 3

$$$$
=
 OpenBabel11052413543D

 27 31  0  0  1  0  0  0  0  0999 V2000
  186.9080  177.3160  144.2410 N   0  0  0  0  0  0  0  0  0  0  0  0
  189.1160  177.7800  143.3500 N   0  0  0  0  0  0  0  0  0  0  0  0
  186.5180  178.6310  140.7430 C   0  0  0  0  0  2  0  0  0  0  0  0
  190.5050  177.6810  143.1960 N   0  0  0  0  0  2  0  0  0  0  0  0
  184.3340  178.5790  142.0420 C   0  0  0  0  0  0  0  0  0  0  0  0
  188.3610  177.1360  144.4340 C   0  0  1  0  0  3  0  0  0  0  0  0
  189.5710  178.4860  141.1880 C   0  0  1  0  0  3  0  0  0  0  0  0
  186.3650  177.8010  143.1610 C   0  0  0  0  0  0  0  0  0  0  0  0
  188.5140  178.1890  142.1600 C   0  0  0  0  0  0  0  0  0  0  0  0
  185.1810  179.3240  141.0280 C   0  0  0  0  0  2  0  0  0  0  0  0
  190.8180  178.2820  141.9450 N   0  0  0  0  0  2  0  0  0  0  0  0
  184.9040  177.9170  143.0550 C   0  0  0  0  0  3  0  0  0  0  0  0
  187.1920  178.2430  142.0250 C   0  0  0  0  0  0  0  0  0  0  0  0
  188.4550  177.5810  139.1030 C   0  0  0  0  0  3  0  0  0  0  0  0
  189.4920  175.8350  137.8460 N   0  0  0  0  0  0  0  0  0  0  0  0
  190.5400  175.7950  138.7130 C   0  0  0  0  0  3  0  0  0  0  0  0
  190.5740  176.6570  139.8110 C   0  0  0  0  0  3  0  0  0  0  0  0
  189.5250  177.5590  140.0080 C   0  0  0  0  0  0  0  0  0  0  0  0
  188.4590  176.7020  138.0170 C   0  0  0  0  0  3  0  0  0  0  0  0
  189.5620  178.2450  148.4300 C   0  0  0  0  0  2  0  0  0  0  0  0
  188.7830  177.6830  145.8040 C   0  0  0  0  0  3  0  0  0  0  0  0
  190.1010  177.0410  146.2740 C   0  0  0  0  0  2  0  0  0  0  0  0
  190.2980  177.0710  147.7960 C   0  0  0  0  0  2  0  0  0  0  0  0
  188.0500  178.1530  148.1820 C   0  0  0  0  0  2  0  0  0  0  0  0
  187.6890  177.4710  146.8560 C   0  0  0  0  0  2  0  0  0  0  0  0
  182.1390  178.9890  143.0910 C   0  0  0  0  0  1  0  0  0  0  0  0
  182.9400  178.6220  141.9780 O   0  0  0  0  0  0  0  0  0  0  0  0
  1  6  1  0  0  0  0
  2  6  1  0  0  0  0
  3 10  1  0  0  0  0
  3 13  1  0  0  0  0
  4  2  1  0  0  0  0
  5 12  2  0  0  0  0
  6 21  1  1  0  0  0
  7 18  1  6  0  0  0
  7 11  1  0  0  0  0
  7  9  1  0  0  0  0
  8  1  2  0  0  0  0
  9  2  1  0  0  0  0
 10  5  1  0  0  0  0
 11  4  1  0  0  0  0
 12  8  1  0  0  0  0
 13  9  2  0  0  0  0
 13  8  1  0  0  0  0
 14 18  1  0  0  0  0
 15 19  1  0  0  0  0
 15 16  2  0  0  0  0
 16 17  1  0  0  0  0
 17 18  2  0  0  0  0
 19 14  2  0  0  0  0
 21 22  1  0  0  0  0
 21 25  1  0  0  0  0
 22 23  1  0  0  0  0
 23 20  1  0  0  0  0
 24 20  1  0  0  0  0
 25 24  1  0  0  0  0
 27  5  1  0  0  0  0
 27 26  1  0  0  0  0
M  END
>  <MODEL>
5

>  <REMARK>
 VINA RESULT:      -7.1      2.359      6.136
  Name = 
  3 active torsions:
  status: ('A' for Active; 'I' for Inactive)
    1  A    between atoms: C_9  and  C_15
    2  A    between atoms: C_13  and  O_22
    3  A    between atoms: C_14  and  C_17
                            x       y       z     vdW  Elec       q    Type
                         _______ _______ _______ _____ _____    ______ ____

>  <TORSDO>
F 3

$$$$
=
 OpenBabel11052413543D

 27 31  0  0  1  0  0  0  0  0999 V2000
  187.8560  177.1200  142.8930 N   0  0  0  0  0  0  0  0  0  0  0  0
  187.0080  178.0860  140.8350 N   0  0  0  0  0  0  0  0  0  0  0  0
  184.6660  178.9470  143.6720 C   0  0  0  0  0  2  0  0  0  0  0  0
  186.8040  178.2440  139.4580 N   0  0  0  0  0  2  0  0  0  0  0  0
  185.9890  178.3120  145.7470 C   0  0  0  0  0  0  0  0  0  0  0  0
  187.9760  177.1480  141.4210 C   0  0  1  0  0  3  0  0  0  0  0  0
  185.0000  179.2250  140.6140 C   0  0  1  0  0  3  0  0  0  0  0  0
  186.8960  177.6920  143.5620 C   0  0  0  0  0  0  0  0  0  0  0  0
  185.9280  178.5940  141.5570 C   0  0  0  0  0  0  0  0  0  0  0  0
  185.1060  179.3510  145.0830 C   0  0  0  0  0  2  0  0  0  0  0  0
  185.6750  179.0970  139.3110 N   0  0  0  0  0  2  0  0  0  0  0  0
  186.8500  177.5840  145.0270 C   0  0  0  0  0  3  0  0  0  0  0  0
  185.8390  178.4550  142.8770 C   0  0  0  0  0  0  0  0  0  0  0  0
  182.5440  179.0660  141.2110 C   0  0  0  0  0  3  0  0  0  0  0  0
  181.2480  177.1970  140.4790 N   0  0  0  0  0  0  0  0  0  0  0  0
  182.3310  176.6530  139.8610 C   0  0  0  0  0  3  0  0  0  0  0  0
  183.5640  177.3080  139.9010 C   0  0  0  0  0  3  0  0  0  0  0  0
  183.6720  178.5250  140.5790 C   0  0  0  0  0  0  0  0  0  0  0  0
  181.3290  178.3790  141.1470 C   0  0  0  0  0  3  0  0  0  0  0  0
  192.0810  177.7170  140.2110 C   0  0  0  0  0  2  0  0  0  0  0  0
  189.4110  177.5080  141.0160 C   0  0  0  0  0  3  0  0  0  0  0  0
  189.7430  176.9640  139.6140 C   0  0  0  0  0  2  0  0  0  0  0  0
  191.2440  176.7640  139.3650 C   0  0  0  0  0  2  0  0  0  0  0  0
  191.8470  177.4820  141.7090 C   0  0  0  0  0  2  0  0  0  0  0  0
  190.4300  176.9900  142.0360 C   0  0  0  0  0  2  0  0  0  0  0  0
  187.1510  178.1660  147.9190 C   0  0  0  0  0  1  0  0  0  0  0  0
  185.9690  178.1380  147.1320 O   0  0  0  0  0  0  0  0  0  0  0  0
  1  8  2  0  0  0  0
  2  6  1  0  0  0  0
  2  9  1  0  0  0  0
  3 10  1  0  0  0  0
  4  2  1  0  0  0  0
  5 27  1  0  0  0  0
  6 21  1  1  0  0  0
  6  1  1  0  0  0  0
  7 18  1  6  0  0  0
  7  9  1  0  0  0  0
  8 12  1  0  0  0  0
  9 13  2  0  0  0  0
 10  5  1  0  0  0  0
 11  4  1  0  0  0  0
 11  7  1  0  0  0  0
 12  5  2  0  0  0  0
 13  8  1  0  0  0  0
 13  3  1  0  0  0  0
 15 19  2  0  0  0  0
 16 17  2  0  0  0  0
 16 15  1  0  0  0  0
 17 18  1  0  0  0  0
 18 14  2  0  0  0  0
 19 14  1  0  0  0  0
 20 24  1  0  0  0  0
 21 25  1  0  0  0  0
 22 21  1  0  0  0  0
 23 22  1  0  0  0  0
 23 20  1  0  0  0  0
 24 25  1  0  0  0  0
 27 26  1  0  0  0  0
M  END
>  <MODEL>
6

>  <REMARK>
 VINA RESULT:      -6.9      2.680      5.982
  Name = 
  3 active torsions:
  status: ('A' for Active; 'I' for Inactive)
    1  A    between atoms: C_9  and  C_15
    2  A    between atoms: C_13  and  O_22
    3  A    between atoms: C_14  and  C_17
                            x       y       z     vdW  Elec       q    Type
                         _______ _______ _______ _____ _____    ______ ____

>  <TORSDO>
F 3

$$$$
=
 OpenBabel11052413543D

 27 31  0  0  1  0  0  0  0  0999 V2000
  185.7470  177.5100  143.4890 N   0  0  0  0  0  0  0  0  0  0  0  0
  188.0320  177.9670  142.8170 N   0  0  0  0  0  0  0  0  0  0  0  0
  185.7040  178.8040  139.9620 C   0  0  0  0  0  2  0  0  0  0  0  0
  189.4300  177.8670  142.8020 N   0  0  0  0  0  2  0  0  0  0  0  0
  183.4030  178.7610  141.0400 C   0  0  0  0  0  0  0  0  0  0  0  0
  187.1730  177.3300  143.8260 C   0  0  1  0  0  3  0  0  0  0  0  0
  188.6980  178.6600  140.7070 C   0  0  1  0  0  3  0  0  0  0  0  0
  185.3130  177.9880  142.3580 C   0  0  0  0  0  0  0  0  0  0  0  0
  187.5510  178.3690  141.5720 C   0  0  0  0  0  0  0  0  0  0  0  0
  184.3470  179.4990  140.1100 C   0  0  0  0  0  2  0  0  0  0  0  0
  189.8650  178.4590  141.5840 N   0  0  0  0  0  2  0  0  0  0  0  0
  183.8700  178.1040  142.1080 C   0  0  0  0  0  3  0  0  0  0  0  0
  186.2490  178.4240  141.3070 C   0  0  0  0  0  0  0  0  0  0  0  0
  187.8270  177.7840  138.4960 C   0  0  0  0  0  3  0  0  0  0  0  0
  188.9460  175.9870  137.3900 N   0  0  0  0  0  0  0  0  0  0  0  0
  189.8690  175.9120  138.3860 C   0  0  0  0  0  3  0  0  0  0  0  0
  189.7960  176.7810  139.4770 C   0  0  0  0  0  3  0  0  0  0  0  0
  188.7680  177.7260  139.5330 C   0  0  0  0  0  0  0  0  0  0  0  0
  187.9350  176.8970  137.4230 C   0  0  0  0  0  3  0  0  0  0  0  0
  187.9040  178.4720  147.9250 C   0  0  0  0  0  2  0  0  0  0  0  0
  187.4590  177.8850  145.2270 C   0  0  0  0  0  3  0  0  0  0  0  0
  188.5790  177.0880  145.9200 C   0  0  0  0  0  2  0  0  0  0  0  0
  188.5440  177.1720  147.4520 C   0  0  0  0  0  2  0  0  0  0  0  0
  186.4510  178.5830  147.4430 C   0  0  0  0  0  2  0  0  0  0  0  0
  186.1980  177.8890  146.0980 C   0  0  0  0  0  2  0  0  0  0  0  0
  181.1010  178.9140  141.9130 C   0  0  0  0  0  1  0  0  0  0  0  0
  182.0220  178.8040  140.8390 O   0  0  0  0  0  0  0  0  0  0  0  0
  1  6  1  0  0  0  0
  2  6  1  0  0  0  0
  3 10  1  0  0  0  0
  3 13  1  0  0  0  0
  4  2  1  0  0  0  0
  5 12  2  0  0  0  0
  6 21  1  1  0  0  0
  7 18  1  6  0  0  0
  7  9  1  0  0  0  0
  7 11  1  0  0  0  0
  8  1  2  0  0  0  0
  9  2  1  0  0  0  0
 10  5  1  0  0  0  0
 11  4  1  0  0  0  0
 12  8  1  0  0  0  0
 13  9  2  0  0  0  0
 13  8  1  0  0  0  0
 14 18  1  0  0  0  0
 15 19  1  0  0  0  0
 15 16  2  0  0  0  0
 16 17  1  0  0  0  0
 17 18  2  0  0  0  0
 19 14  2  0  0  0  0
 21 22  1  0  0  0  0
 21 25  1  0  0  0  0
 22 23  1  0  0  0  0
 23 20  1  0  0  0  0
 24 20  1  0  0  0  0
 25 24  1  0  0  0  0
 27  5  1  0  0  0  0
 27 26  1  0  0  0  0
M  END
>  <MODEL>
7

>  <REMARK>
 VINA RESULT:      -6.6      2.385      6.084
  Name = 
  3 active torsions:
  status: ('A' for Active; 'I' for Inactive)
    1  A    between atoms: C_9  and  C_15
    2  A    between atoms: C_13  and  O_22
    3  A    between atoms: C_14  and  C_17
                            x       y       z     vdW  Elec       q    Type
                         _______ _______ _______ _____ _____    ______ ____

>  <TORSDO>
F 3

$$$$
=
 OpenBabel11052413543D

 27 31  0  0  1  0  0  0  0  0999 V2000
  189.4700  176.1830  137.9370 N   0  0  0  0  0  0  0  0  0  0  0  0
  188.2250  177.7200  139.3410 N   0  0  0  0  0  0  0  0  0  0  0  0
  191.7880  177.5130  140.5780 C   0  0  0  0  0  2  0  0  0  0  0  0
  187.1170  178.3040  139.9690 N   0  0  0  0  0  2  0  0  0  0  0  0
  193.0000  176.3050  138.6980 C   0  0  0  0  0  0  0  0  0  0  0  0
  188.1300  176.6890  138.2980 C   0  0  1  0  0  3  0  0  0  0  0  0
  189.0470  178.7760  141.2340 C   0  0  1  0  0  3  0  0  0  0  0  0
  190.5620  176.4640  138.5890 C   0  0  0  0  0  0  0  0  0  0  0  0
  189.3820  177.9180  140.0940 C   0  0  0  0  0  0  0  0  0  0  0  0
  193.0290  177.4610  139.6800 C   0  0  0  0  0  2  0  0  0  0  0  0
  187.6260  179.1060  141.0270 N   0  0  0  0  0  2  0  0  0  0  0  0
  191.8450  175.8890  138.1660 C   0  0  0  0  0  3  0  0  0  0  0  0
  190.5410  177.3580  139.7600 C   0  0  0  0  0  0  0  0  0  0  0  0
  188.4730  176.9270  142.8670 C   0  0  0  0  0  3  0  0  0  0  0  0
  189.6000  176.7870  144.9690 N   0  0  0  0  0  0  0  0  0  0  0  0
  190.3400  177.8900  144.6770 C   0  0  0  0  0  3  0  0  0  0  0  0
  190.1650  178.5500  143.4580 C   0  0  0  0  0  3  0  0  0  0  0  0
  189.2270  178.0650  142.5440 C   0  0  0  0  0  0  0  0  0  0  0  0
  188.6780  176.2960  144.0960 C   0  0  0  0  0  3  0  0  0  0  0  0
  186.1160  177.7720  134.6360 C   0  0  0  0  0  2  0  0  0  0  0  0
  187.4160  177.2260  137.0510 C   0  0  0  0  0  3  0  0  0  0  0  0
  186.0920  176.4780  136.8070 C   0  0  0  0  0  2  0  0  0  0  0  0
  185.6140  176.5220  135.3500 C   0  0  0  0  0  2  0  0  0  0  0  0
  187.6500  177.8110  134.5980 C   0  0  0  0  0  2  0  0  0  0  0  0
  188.3080  177.1350  135.8090 C   0  0  0  0  0  2  0  0  0  0  0  0
  194.2040  174.4020  137.6910 C   0  0  0  0  0  1  0  0  0  0  0  0
  194.1830  175.6930  138.2800 O   0  0  0  0  0  0  0  0  0  0  0  0
  1  6  1  0  0  0  0
  1  8  2  0  0  0  0
  2  4  1  0  0  0  0
  2  9  1  0  0  0  0
  4 11  1  0  0  0  0
  5 10  1  0  0  0  0
  6 21  1  6  0  0  0
  6  2  1  0  0  0  0
  7 18  1  1  0  0  0
  8 13  1  0  0  0  0
  9  7  1  0  0  0  0
 10  3  1  0  0  0  0
 11  7  1  0  0  0  0
 12  8  1  0  0  0  0
 12  5  2  0  0  0  0
 13  9  2  0  0  0  0
 13  3  1  0  0  0  0
 14 19  1  0  0  0  0
 16 15  1  0  0  0  0
 17 16  2  0  0  0  0
 18 14  2  0  0  0  0
 18 17  1  0  0  0  0
 19 15  2  0  0  0  0
 20 23  1  0  0  0  0
 22 21  1  0  0  0  0
 23 22  1  0  0  0  0
 24 20  1  0  0  0  0
 24 25  1  0  0  0  0
 25 21  1  0  0  0  0
 26 27  1  0  0  0  0
 27  5  1  0  0  0  0
M  END
>  <MODEL>
8

>  <REMARK>
 VINA RESULT:      -6.4      3.562      5.560
  Name = 
  3 active torsions:
  status: ('A' for Active; 'I' for Inactive)
    1  A    between atoms: C_9  and  C_15
    2  A    between atoms: C_13  and  O_22
    3  A    between atoms: C_14  and  C_17
                            x       y       z     vdW  Elec       q    Type
                         _______ _______ _______ _____ _____    ______ ____

>  <TORSDO>
F 3

$$$$
=
 OpenBabel11052413543D

 27 31  0  0  1  0  0  0  0  0999 V2000
  187.5990  178.7400  140.4500 N   0  0  0  0  0  0  0  0  0  0  0  0
  188.3650  177.4140  142.3310 N   0  0  0  0  0  0  0  0  0  0  0  0
  184.6520  178.0220  142.6670 C   0  0  0  0  0  2  0  0  0  0  0  0
  189.2530  176.8950  143.2830 N   0  0  0  0  0  2  0  0  0  0  0  0
  183.9920  178.9370  140.3900 C   0  0  0  0  0  0  0  0  0  0  0  0
  188.7770  178.2370  141.1850 C   0  0  1  0  0  3  0  0  0  0  0  0
  187.0590  176.7550  144.1300 C   0  0  1  0  0  3  0  0  0  0  0  0
  186.3710  178.6360  140.8710 C   0  0  0  0  0  0  0  0  0  0  0  0
  187.0590  177.4130  142.8200 C   0  0  0  0  0  0  0  0  0  0  0  0
  183.6460  177.9770  141.5120 C   0  0  0  0  0  2  0  0  0  0  0  0
  188.4550  176.3210  144.3110 N   0  0  0  0  0  2  0  0  0  0  0  0
  185.2670  179.1920  140.0760 C   0  0  0  0  0  3  0  0  0  0  0  0
  186.0560  177.9640  142.1430 C   0  0  0  0  0  0  0  0  0  0  0  0
  185.4860  178.4530  145.1590 C   0  0  0  0  0  3  0  0  0  0  0  0
  185.9800  179.4120  147.2900 N   0  0  0  0  0  0  0  0  0  0  0  0
  187.1290  178.6880  147.3810 C   0  0  0  0  0  3  0  0  0  0  0  0
  187.4910  177.8180  146.3510 C   0  0  0  0  0  3  0  0  0  0  0  0
  186.6640  177.6960  145.2310 C   0  0  0  0  0  0  0  0  0  0  0  0
  185.1590  179.3130  146.2110 C   0  0  0  0  0  3  0  0  0  0  0  0
  191.5970  176.4090  138.4750 C   0  0  0  0  0  2  0  0  0  0  0  0
  189.6940  177.4520  140.2400 C   0  0  0  0  0  3  0  0  0  0  0  0
  191.1620  177.5350  140.6970 C   0  0  0  0  0  2  0  0  0  0  0  0
  192.1770  177.2970  139.5700 C   0  0  0  0  0  2  0  0  0  0  0  0
  190.3650  177.0560  137.8300 C   0  0  0  0  0  2  0  0  0  0  0  0
  189.5640  177.9420  138.7940 C   0  0  0  0  0  2  0  0  0  0  0  0
  181.6090  179.3710  139.9180 C   0  0  0  0  0  1  0  0  0  0  0  0
  182.9880  179.5250  139.6180 O   0  0  0  0  0  0  0  0  0  0  0  0
  1  8  2  0  0  0  0
  1  6  1  0  0  0  0
  2  9  1  0  0  0  0
  2  4  1  0  0  0  0
  4 11  1  0  0  0  0
  5 10  1  0  0  0  0
  6 21  1  6  0  0  0
  6  2  1  0  0  0  0
  7 11  1  0  0  0  0
  7 18  1  1  0  0  0
  8 13  1  0  0  0  0
  9  7  1  0  0  0  0
 10  3  1  0  0  0  0
 12  5  2  0  0  0  0
 12  8  1  0  0  0  0
 13  3  1  0  0  0  0
 13  9  2  0  0  0  0
 14 18  2  0  0  0  0
 14 19  1  0  0  0  0
 15 16  1  0  0  0  0
 17 16  2  0  0  0  0
 18 17  1  0  0  0  0
 19 15  2  0  0  0  0
 20 23  1  0  0  0  0
 21 22  1  0  0  0  0
 23 22  1  0  0  0  0
 24 20  1  0  0  0  0
 24 25  1  0  0  0  0
 25 21  1  0  0  0  0
 27 26  1  0  0  0  0
 27  5  1  0  0  0  0
M  END
>  <MODEL>
9

>  <REMARK>
 VINA RESULT:      -6.4      2.790      4.071
  Name = 
  3 active torsions:
  status: ('A' for Active; 'I' for Inactive)
    1  A    between atoms: C_9  and  C_15
    2  A    between atoms: C_13  and  O_22
    3  A    between atoms: C_14  and  C_17
                            x       y       z     vdW  Elec       q    Type
                         _______ _______ _______ _____ _____    ______ ____

>  <TORSDO>
F 3

$$$$
