=
 OpenBabel11052414433D

 32 35  0  0  0  0  0  0  0  0999 V2000
  187.4120  178.0280  141.6690 N   0  0  0  0  0  0  0  0  0  0  0  0
  188.6360  177.5440  141.8210 N   0  0  0  0  0  0  0  0  0  0  0  0
  186.7420  177.8620  142.8310 C   0  0  0  0  0  0  0  0  0  0  0  0
  187.5800  177.2380  143.7480 C   0  0  0  0  0  0  0  0  0  0  0  0
  190.0050  176.4310  143.6370 C   0  0  0  0  0  1  0  0  0  0  0  0
  189.6220  177.5670  140.7750 C   0  0  0  0  0  0  0  0  0  0  0  0
  190.7550  177.0440  140.9450 O   0  0  0  0  0  0  0  0  0  0  0  0
  188.7710  177.0570  143.0750 C   0  0  0  0  0  0  0  0  0  0  0  0
  185.3390  178.2880  143.0180 C   0  0  0  0  0  0  0  0  0  0  0  0
  184.8840  178.7850  144.2490 C   0  0  0  0  0  3  0  0  0  0  0  0
  180.7080  178.3850  141.4130 C   0  0  0  0  0  2  0  0  0  0  0  0
  184.4370  178.1850  141.9490 C   0  0  0  0  0  3  0  0  0  0  0  0
  181.3190  179.4430  143.5120 O   0  0  0  0  0  0  0  0  0  0  0  0
  182.6590  179.0720  143.3430 C   0  0  0  0  0  0  0  0  0  0  0  0
  183.5510  179.1750  144.4120 C   0  0  0  0  0  3  0  0  0  0  0  0
  183.1010  178.5640  142.1080 C   0  0  0  0  0  0  0  0  0  0  0  0
  180.4140  179.5070  142.4090 C   0  0  0  0  0  2  0  0  0  0  0  0
  182.1600  178.4870  140.9420 C   0  0  0  0  0  2  0  0  0  0  0  0
  189.3260  178.2570  139.4820 C   0  0  0  0  0  2  0  0  0  0  0  0
  188.8540  177.2940  138.5000 N   0  0  0  0  0  0  0  0  0  0  0  0
  189.8080  176.6000  137.6890 C   0  0  0  0  0  0  0  0  0  0  0  0
  190.4850  176.4470  136.4750 C   0  0  0  0  0  2  0  0  0  0  0  0
  190.7840  175.5490  137.5040 C   0  0  0  0  0  0  0  0  0  0  0  0
  191.4920  174.4610  137.9920 O   0  0  0  0  0  1  0  0  0  0  0  0
  185.2850  178.1240  137.7780 O   0  0  0  0  0  1  0  0  0  0  0  0
  187.4710  177.1760  138.2820 N   0  0  0  0  0  2  0  0  0  0  0  0
  187.1960  179.1020  136.9840 O   0  0  0  0  0  0  0  0  0  0  0  0
  186.6670  178.1890  137.6700 C   0  0  0  0  0  0  0  0  0  0  0  0
  187.3000  176.8680  145.1710 C   0  0  0  0  0  2  0  0  0  0  0  0
  187.9210  177.8720  146.1370 C   0  0  0  0  0  2  0  0  0  0  0  0
  188.5280  178.0930  148.5490 C   0  0  0  0  0  1  0  0  0  0  0  0
  188.5650  177.1860  147.3340 C   0  0  0  0  0  2  0  0  0  0  0  0
  1  2  1  0  0  0  0
  1  3  2  0  0  0  0
  2  8  1  0  0  0  0
  3  9  1  0  0  0  0
  3  4  1  0  0  0  0
  4 29  1  0  0  0  0
  6  7  2  0  0  0  0
  6  2  1  0  0  0  0
  8  5  1  0  0  0  0
  8  4  2  0  0  0  0
  9 10  1  0  0  0  0
 10 15  2  0  0  0  0
 11 17  1  0  0  0  0
 12 16  1  0  0  0  0
 12  9  2  0  0  0  0
 14 13  1  0  0  0  0
 14 15  1  0  0  0  0
 16 14  2  0  0  0  0
 17 13  1  0  0  0  0
 18 11  1  0  0  0  0
 18 16  1  0  0  0  0
 19  6  1  0  0  0  0
 20 19  1  0  0  0  0
 21 20  1  0  0  0  0
 22 23  1  0  0  0  0
 22 21  1  0  0  0  0
 23 21  2  0  0  0  0
 23 24  1  0  0  0  0
 26 20  1  0  0  0  0
 27 28  2  0  0  0  0
 28 25  1  0  0  0  0
 28 26  1  0  0  0  0
 29 30  1  0  0  0  0
 30 32  1  0  0  0  0
 32 31  1  0  0  0  0
M  END
>  <MODEL>
1

>  <REMARK>
 VINA RESULT:      -8.9      0.000      0.000
  Name = 
  8 active torsions:
  status: ('A' for Active; 'I' for Inactive)
    1  A    between atoms: C_2  and  C_5
    2  A    between atoms: C_3  and  N_20
    3  A    between atoms: C_13  and  C_18
    4  A    between atoms: C_13  and  C_29
    5  A    between atoms: C_14  and  C_18
    6  A    between atoms: N_15  and  N_20
    7  A    between atoms: C_16  and  N_20
    8  A    between atoms: C_16  and  C_24
                            x       y       z     vdW  Elec       q    Type
                         _______ _______ _______ _____ _____    ______ ____

>  <TORSDO>
F 8

$$$$
=
 OpenBabel11052414433D

 32 35  0  0  0  0  0  0  0  0999 V2000
  187.2650  178.0770  142.0000 N   0  0  0  0  0  0  0  0  0  0  0  0
  188.4790  177.6420  142.3030 N   0  0  0  0  0  0  0  0  0  0  0  0
  186.4790  177.9360  143.0900 C   0  0  0  0  0  0  0  0  0  0  0  0
  187.2320  177.3790  144.1180 C   0  0  0  0  0  0  0  0  0  0  0  0
  189.6770  176.6510  144.3020 C   0  0  0  0  0  1  0  0  0  0  0  0
  189.5710  177.6550  141.3670 C   0  0  0  0  0  0  0  0  0  0  0  0
  190.6940  177.1780  141.6800 O   0  0  0  0  0  0  0  0  0  0  0  0
  188.4930  177.2120  143.5840 C   0  0  0  0  0  0  0  0  0  0  0  0
  185.0520  178.3220  143.1090 C   0  0  0  0  0  0  0  0  0  0  0  0
  184.4310  178.7710  144.2840 C   0  0  0  0  0  3  0  0  0  0  0  0
  180.6610  178.3520  140.9280 C   0  0  0  0  0  2  0  0  0  0  0  0
  184.2960  178.2290  141.9310 C   0  0  0  0  0  3  0  0  0  0  0  0
  180.9710  179.3620  143.1160 O   0  0  0  0  0  0  0  0  0  0  0  0
  182.3310  179.0290  143.1090 C   0  0  0  0  0  0  0  0  0  0  0  0
  183.0770  179.1220  144.2860 C   0  0  0  0  0  3  0  0  0  0  0  0
  182.9410  178.5700  141.9280 C   0  0  0  0  0  0  0  0  0  0  0  0
  180.2120  179.4370  141.9080 C   0  0  0  0  0  2  0  0  0  0  0  0
  182.1580  178.5040  140.6500 C   0  0  0  0  0  2  0  0  0  0  0  0
  189.3960  178.2800  140.0210 C   0  0  0  0  0  2  0  0  0  0  0  0
  189.0150  177.2700  139.0470 N   0  0  0  0  0  0  0  0  0  0  0  0
  187.8440  177.4750  138.2500 C   0  0  0  0  0  0  0  0  0  0  0  0
  187.1270  177.2590  137.0690 C   0  0  0  0  0  2  0  0  0  0  0  0
  186.5310  178.0480  138.0560 C   0  0  0  0  0  0  0  0  0  0  0  0
  185.4680  178.8120  138.5150 O   0  0  0  0  0  1  0  0  0  0  0  0
  191.2720  174.5010  137.9570 O   0  0  0  0  0  1  0  0  0  0  0  0
  189.7300  176.0600  139.0160 N   0  0  0  0  0  2  0  0  0  0  0  0
  191.4480  176.7530  137.5870 O   0  0  0  0  0  0  0  0  0  0  0  0
  190.8330  175.8050  138.1420 C   0  0  0  0  0  0  0  0  0  0  0  0
  186.8110  177.0590  145.5180 C   0  0  0  0  0  2  0  0  0  0  0  0
  187.4020  178.0510  146.5150 C   0  0  0  0  0  2  0  0  0  0  0  0
  189.0550  178.2500  148.3770 C   0  0  0  0  0  1  0  0  0  0  0  0
  188.0330  177.3490  147.7110 C   0  0  0  0  0  2  0  0  0  0  0  0
  1  2  1  0  0  0  0
  1  3  2  0  0  0  0
  2  8  1  0  0  0  0
  3  9  1  0  0  0  0
  3  4  1  0  0  0  0
  4 29  1  0  0  0  0
  6  7  2  0  0  0  0
  6  2  1  0  0  0  0
  8  4  2  0  0  0  0
  8  5  1  0  0  0  0
  9 10  1  0  0  0  0
 10 15  2  0  0  0  0
 11 17  1  0  0  0  0
 12  9  2  0  0  0  0
 14 13  1  0  0  0  0
 14 15  1  0  0  0  0
 16 12  1  0  0  0  0
 16 14  2  0  0  0  0
 17 13  1  0  0  0  0
 18 11  1  0  0  0  0
 18 16  1  0  0  0  0
 19  6  1  0  0  0  0
 20 19  1  0  0  0  0
 21 20  1  0  0  0  0
 22 23  1  0  0  0  0
 22 21  1  0  0  0  0
 23 21  2  0  0  0  0
 23 24  1  0  0  0  0
 25 28  1  0  0  0  0
 26 20  1  0  0  0  0
 27 28  2  0  0  0  0
 28 26  1  0  0  0  0
 29 30  1  0  0  0  0
 30 32  1  0  0  0  0
 32 31  1  0  0  0  0
M  END
>  <MODEL>
2

>  <REMARK>
 VINA RESULT:      -8.8      0.829      2.544
  Name = 
  8 active torsions:
  status: ('A' for Active; 'I' for Inactive)
    1  A    between atoms: C_2  and  C_5
    2  A    between atoms: C_3  and  N_20
    3  A    between atoms: C_13  and  C_18
    4  A    between atoms: C_13  and  C_29
    5  A    between atoms: C_14  and  C_18
    6  A    between atoms: N_15  and  N_20
    7  A    between atoms: C_16  and  N_20
    8  A    between atoms: C_16  and  C_24
                            x       y       z     vdW  Elec       q    Type
                         _______ _______ _______ _____ _____    ______ ____

>  <TORSDO>
F 8

$$$$
=
 OpenBabel11052414433D

 32 35  0  0  0  0  0  0  0  0999 V2000
  186.1580  177.5790  142.6770 N   0  0  0  0  0  0  0  0  0  0  0  0
  186.5430  177.6590  143.9430 N   0  0  0  0  0  0  0  0  0  0  0  0
  184.9910  178.2480  142.5450 C   0  0  0  0  0  0  0  0  0  0  0  0
  184.6240  178.7610  143.7850 C   0  0  0  0  0  0  0  0  0  0  0  0
  185.7070  178.6880  146.1000 C   0  0  0  0  0  1  0  0  0  0  0  0
  187.7550  177.0590  144.4310 C   0  0  0  0  0  0  0  0  0  0  0  0
  188.0520  177.1110  145.6540 O   0  0  0  0  0  0  0  0  0  0  0  0
  185.6320  178.3720  144.6420 C   0  0  0  0  0  0  0  0  0  0  0  0
  184.2710  178.3620  141.2600 C   0  0  0  0  0  0  0  0  0  0  0  0
  184.6310  179.3230  140.3030 C   0  0  0  0  0  3  0  0  0  0  0  0
  180.3900  177.2350  138.4830 C   0  0  0  0  0  2  0  0  0  0  0  0
  183.1960  177.5020  140.9910 C   0  0  0  0  0  3  0  0  0  0  0  0
  182.1520  178.6770  137.6330 O   0  0  0  0  0  0  0  0  0  0  0  0
  182.8640  178.5630  138.8330 C   0  0  0  0  0  0  0  0  0  0  0  0
  183.9310  179.4240  139.0950 C   0  0  0  0  0  3  0  0  0  0  0  0
  182.4870  177.6030  139.7910 C   0  0  0  0  0  0  0  0  0  0  0  0
  181.1630  177.7180  137.2550 C   0  0  0  0  0  2  0  0  0  0  0  0
  181.3680  176.6470  139.5020 C   0  0  0  0  0  2  0  0  0  0  0  0
  188.7020  176.4040  143.4790 C   0  0  0  0  0  2  0  0  0  0  0  0
  189.6130  177.3910  142.9220 N   0  0  0  0  0  0  0  0  0  0  0  0
  190.6870  177.8850  143.7290 C   0  0  0  0  0  0  0  0  0  0  0  0
  191.6790  178.8390  143.9770 C   0  0  0  0  0  2  0  0  0  0  0  0
  191.5510  177.7830  144.8840 C   0  0  0  0  0  0  0  0  0  0  0  0
  191.9490  177.1250  146.0380 O   0  0  0  0  0  1  0  0  0  0  0  0
  189.8270  178.2530  139.2940 O   0  0  0  0  0  0  0  0  0  0  0  0
  189.3280  177.9310  141.6560 N   0  0  0  0  0  2  0  0  0  0  0  0
  190.4740  176.3420  140.3770 O   0  0  0  0  0  1  0  0  0  0  0  0
  189.9220  177.4720  140.4380 C   0  0  0  0  0  0  0  0  0  0  0  0
  183.4300  179.5910  144.1370 C   0  0  0  0  0  2  0  0  0  0  0  0
  182.2050  178.7190  144.3940 C   0  0  0  0  0  2  0  0  0  0  0  0
  179.7530  178.5160  143.9690 C   0  0  0  0  0  1  0  0  0  0  0  0
  181.0720  179.0290  143.4250 C   0  0  0  0  0  2  0  0  0  0  0  0
  1  2  1  0  0  0  0
  2  6  1  0  0  0  0
  2  8  1  0  0  0  0
  3  1  2  0  0  0  0
  3  4  1  0  0  0  0
  4 29  1  0  0  0  0
  4  8  2  0  0  0  0
  6  7  2  0  0  0  0
  8  5  1  0  0  0  0
  9  3  1  0  0  0  0
 10  9  2  0  0  0  0
 11 18  1  0  0  0  0
 12  9  1  0  0  0  0
 13 14  1  0  0  0  0
 14 15  2  0  0  0  0
 14 16  1  0  0  0  0
 15 10  1  0  0  0  0
 16 12  2  0  0  0  0
 17 13  1  0  0  0  0
 17 11  1  0  0  0  0
 18 16  1  0  0  0  0
 19  6  1  0  0  0  0
 20 19  1  0  0  0  0
 20 21  1  0  0  0  0
 21 22  1  0  0  0  0
 21 23  2  0  0  0  0
 22 23  1  0  0  0  0
 23 24  1  0  0  0  0
 25 28  2  0  0  0  0
 26 20  1  0  0  0  0
 27 28  1  0  0  0  0
 28 26  1  0  0  0  0
 29 30  1  0  0  0  0
 32 31  1  0  0  0  0
 32 30  1  0  0  0  0
M  END
>  <MODEL>
3

>  <REMARK>
 VINA RESULT:      -8.5      2.490      5.219
  Name = 
  8 active torsions:
  status: ('A' for Active; 'I' for Inactive)
    1  A    between atoms: C_2  and  C_5
    2  A    between atoms: C_3  and  N_20
    3  A    between atoms: C_13  and  C_18
    4  A    between atoms: C_13  and  C_29
    5  A    between atoms: C_14  and  C_18
    6  A    between atoms: N_15  and  N_20
    7  A    between atoms: C_16  and  N_20
    8  A    between atoms: C_16  and  C_24
                            x       y       z     vdW  Elec       q    Type
                         _______ _______ _______ _____ _____    ______ ____

>  <TORSDO>
F 8

$$$$
=
 OpenBabel11052414433D

 32 35  0  0  0  0  0  0  0  0999 V2000
  188.0960  178.0520  140.0380 N   0  0  0  0  0  0  0  0  0  0  0  0
  189.1030  177.6830  139.2610 N   0  0  0  0  0  0  0  0  0  0  0  0
  188.3670  177.6550  141.3010 C   0  0  0  0  0  0  0  0  0  0  0  0
  189.5940  177.0010  141.3140 C   0  0  0  0  0  0  0  0  0  0  0  0
  191.3170  176.4770  139.4980 C   0  0  0  0  0  1  0  0  0  0  0  0
  189.1420  177.9550  137.8500 C   0  0  0  0  0  0  0  0  0  0  0  0
  190.0930  177.5350  137.1380 O   0  0  0  0  0  0  0  0  0  0  0  0
  190.0310  177.0430  140.0060 C   0  0  0  0  0  0  0  0  0  0  0  0
  187.4520  177.9020  142.4360 C   0  0  0  0  0  0  0  0  0  0  0  0
  186.1590  178.4090  142.2360 C   0  0  0  0  0  3  0  0  0  0  0  0
  186.7510  178.3670  147.2660 C   0  0  0  0  0  2  0  0  0  0  0  0
  187.8850  177.6350  143.7430 C   0  0  0  0  0  3  0  0  0  0  0  0
  184.9040  178.6320  145.7090 O   0  0  0  0  0  0  0  0  0  0  0  0
  185.7470  178.3760  144.6210 C   0  0  0  0  0  0  0  0  0  0  0  0
  185.3100  178.6460  143.3230 C   0  0  0  0  0  3  0  0  0  0  0  0
  187.0450  177.8780  144.8340 C   0  0  0  0  0  0  0  0  0  0  0  0
  185.2460  178.2210  147.0350 C   0  0  0  0  0  2  0  0  0  0  0  0
  187.5090  177.5470  146.2210 C   0  0  0  0  0  2  0  0  0  0  0  0
  188.0710  178.7840  137.2170 C   0  0  0  0  0  2  0  0  0  0  0  0
  186.9320  177.9480  136.8720 N   0  0  0  0  0  0  0  0  0  0  0  0
  185.7310  178.0500  137.6450 C   0  0  0  0  0  0  0  0  0  0  0  0
  184.4990  177.5270  138.0460 C   0  0  0  0  0  2  0  0  0  0  0  0
  184.8900  178.7550  138.5850 C   0  0  0  0  0  0  0  0  0  0  0  0
  184.6530  179.8440  139.4130 O   0  0  0  0  0  1  0  0  0  0  0  0
  187.7830  174.7550  135.1320 O   0  0  0  0  0  0  0  0  0  0  0  0
  187.0920  176.9670  135.8780 N   0  0  0  0  0  2  0  0  0  0  0  0
  187.0790  175.0960  137.2830 O   0  0  0  0  0  1  0  0  0  0  0  0
  187.3310  175.5830  136.1500 C   0  0  0  0  0  0  0  0  0  0  0  0
  190.3270  176.4090  142.4760 C   0  0  0  0  0  2  0  0  0  0  0  0
  191.5770  177.2150  142.8120 C   0  0  0  0  0  2  0  0  0  0  0  0
  191.1260  179.3520  144.0220 C   0  0  0  0  0  1  0  0  0  0  0  0
  191.4740  177.8840  144.1760 C   0  0  0  0  0  2  0  0  0  0  0  0
  1  3  2  0  0  0  0
  2  8  1  0  0  0  0
  2  1  1  0  0  0  0
  3  4  1  0  0  0  0
  3  9  1  0  0  0  0
  4 29  1  0  0  0  0
  5  8  1  0  0  0  0
  6  2  1  0  0  0  0
  7  6  2  0  0  0  0
  8  4  2  0  0  0  0
  9 12  1  0  0  0  0
 10  9  2  0  0  0  0
 10 15  1  0  0  0  0
 12 16  2  0  0  0  0
 13 17  1  0  0  0  0
 14 16  1  0  0  0  0
 14 13  1  0  0  0  0
 15 14  2  0  0  0  0
 16 18  1  0  0  0  0
 17 11  1  0  0  0  0
 18 11  1  0  0  0  0
 19  6  1  0  0  0  0
 20 19  1  0  0  0  0
 20 21  1  0  0  0  0
 21 22  1  0  0  0  0
 21 23  2  0  0  0  0
 22 23  1  0  0  0  0
 23 24  1  0  0  0  0
 25 28  2  0  0  0  0
 26 28  1  0  0  0  0
 26 20  1  0  0  0  0
 28 27  1  0  0  0  0
 29 30  1  0  0  0  0
 30 32  1  0  0  0  0
 31 32  1  0  0  0  0
M  END
>  <MODEL>
4

>  <REMARK>
 VINA RESULT:      -8.5      2.429      4.607
  Name = 
  8 active torsions:
  status: ('A' for Active; 'I' for Inactive)
    1  A    between atoms: C_2  and  C_5
    2  A    between atoms: C_3  and  N_20
    3  A    between atoms: C_13  and  C_18
    4  A    between atoms: C_13  and  C_29
    5  A    between atoms: C_14  and  C_18
    6  A    between atoms: N_15  and  N_20
    7  A    between atoms: C_16  and  N_20
    8  A    between atoms: C_16  and  C_24
                            x       y       z     vdW  Elec       q    Type
                         _______ _______ _______ _____ _____    ______ ____

>  <TORSDO>
F 8

$$$$
=
 OpenBabel11052414433D

 32 35  0  0  0  0  0  0  0  0999 V2000
  184.5170  177.8850  141.3450 N   0  0  0  0  0  0  0  0  0  0  0  0
  183.2530  178.1450  141.6440 N   0  0  0  0  0  0  0  0  0  0  0  0
  185.2930  178.3280  142.3590 C   0  0  0  0  0  0  0  0  0  0  0  0
  184.4800  178.9000  143.3310 C   0  0  0  0  0  0  0  0  0  0  0  0
  181.9490  179.2130  143.5340 C   0  0  0  0  0  1  0  0  0  0  0  0
  182.1580  177.7970  140.7800 C   0  0  0  0  0  0  0  0  0  0  0  0
  180.9760  178.1150  141.0780 O   0  0  0  0  0  0  0  0  0  0  0  0
  183.1960  178.7610  142.8450 C   0  0  0  0  0  0  0  0  0  0  0  0
  186.7660  178.2030  142.3590 C   0  0  0  0  0  0  0  0  0  0  0  0
  187.5290  178.5420  141.2320 C   0  0  0  0  0  3  0  0  0  0  0  0
  190.8530  176.4820  144.4500 C   0  0  0  0  0  2  0  0  0  0  0  0
  187.4180  177.7230  143.5050 C   0  0  0  0  0  3  0  0  0  0  0  0
  190.9560  177.7780  142.3980 O   0  0  0  0  0  0  0  0  0  0  0  0
  189.5640  177.9320  142.3900 C   0  0  0  0  0  0  0  0  0  0  0  0
  188.9220  178.4070  141.2460 C   0  0  0  0  0  3  0  0  0  0  0  0
  188.8080  177.5780  143.5230 C   0  0  0  0  0  0  0  0  0  0  0  0
  191.6680  177.4510  143.5930 C   0  0  0  0  0  2  0  0  0  0  0  0
  189.4930  177.1040  144.7710 C   0  0  0  0  0  2  0  0  0  0  0  0
  182.4070  177.0090  139.5350 C   0  0  0  0  0  2  0  0  0  0  0  0
  182.9800  177.8660  138.5090 N   0  0  0  0  0  0  0  0  0  0  0  0
  184.2390  177.5130  137.9280 C   0  0  0  0  0  0  0  0  0  0  0  0
  185.0310  176.6230  137.1960 C   0  0  0  0  0  2  0  0  0  0  0  0
  185.6290  177.8000  137.6530 C   0  0  0  0  0  0  0  0  0  0  0  0
  186.7340  178.6320  137.7610 O   0  0  0  0  0  1  0  0  0  0  0  0
  181.9720  181.4610  138.6010 O   0  0  0  0  0  0  0  0  0  0  0  0
  182.3450  179.0850  138.2170 N   0  0  0  0  0  2  0  0  0  0  0  0
  184.0020  180.5060  139.0590 O   0  0  0  0  0  1  0  0  0  0  0  0
  182.8150  180.3600  138.6650 C   0  0  0  0  0  0  0  0  0  0  0  0
  184.8720  179.5020  144.6430 C   0  0  0  0  0  2  0  0  0  0  0  0
  184.8680  178.4590  145.7560 C   0  0  0  0  0  2  0  0  0  0  0  0
  186.9040  178.0090  147.1290 C   0  0  0  0  0  1  0  0  0  0  0  0
  185.6920  178.9050  146.9570 C   0  0  0  0  0  2  0  0  0  0  0  0
  1  2  1  0  0  0  0
  1  3  2  0  0  0  0
  2  8  1  0  0  0  0
  3  4  1  0  0  0  0
  4 29  1  0  0  0  0
  6  7  2  0  0  0  0
  6  2  1  0  0  0  0
  8  4  2  0  0  0  0
  8  5  1  0  0  0  0
  9  3  1  0  0  0  0
  9 12  1  0  0  0  0
 10 15  1  0  0  0  0
 10  9  2  0  0  0  0
 11 18  1  0  0  0  0
 12 16  2  0  0  0  0
 13 17  1  0  0  0  0
 14 13  1  0  0  0  0
 14 16  1  0  0  0  0
 15 14  2  0  0  0  0
 16 18  1  0  0  0  0
 17 11  1  0  0  0  0
 19  6  1  0  0  0  0
 20 19  1  0  0  0  0
 21 20  1  0  0  0  0
 22 23  1  0  0  0  0
 22 21  1  0  0  0  0
 23 24  1  0  0  0  0
 23 21  2  0  0  0  0
 25 28  2  0  0  0  0
 26 20  1  0  0  0  0
 26 28  1  0  0  0  0
 28 27  1  0  0  0  0
 29 30  1  0  0  0  0
 30 32  1  0  0  0  0
 32 31  1  0  0  0  0
M  END
>  <MODEL>
5

>  <REMARK>
 VINA RESULT:      -8.5      2.620      6.198
  Name = 
  8 active torsions:
  status: ('A' for Active; 'I' for Inactive)
    1  A    between atoms: C_2  and  C_5
    2  A    between atoms: C_3  and  N_20
    3  A    between atoms: C_13  and  C_18
    4  A    between atoms: C_13  and  C_29
    5  A    between atoms: C_14  and  C_18
    6  A    between atoms: N_15  and  N_20
    7  A    between atoms: C_16  and  N_20
    8  A    between atoms: C_16  and  C_24
                            x       y       z     vdW  Elec       q    Type
                         _______ _______ _______ _____ _____    ______ ____

>  <TORSDO>
F 8

$$$$
=
 OpenBabel11052414433D

 32 35  0  0  0  0  0  0  0  0999 V2000
  186.1230  177.6270  142.5240 N   0  0  0  0  0  0  0  0  0  0  0  0
  186.5590  177.6820  143.7740 N   0  0  0  0  0  0  0  0  0  0  0  0
  184.9360  178.2690  142.4600 C   0  0  0  0  0  0  0  0  0  0  0  0
  184.6100  178.7380  143.7280 C   0  0  0  0  0  0  0  0  0  0  0  0
  185.7920  178.6300  145.9930 C   0  0  0  0  0  1  0  0  0  0  0  0
  187.8050  177.1000  144.1940 C   0  0  0  0  0  0  0  0  0  0  0  0
  188.1530  177.1260  145.4050 O   0  0  0  0  0  0  0  0  0  0  0  0
  185.6630  178.3520  144.5310 C   0  0  0  0  0  0  0  0  0  0  0  0
  184.1590  178.4000  141.2090 C   0  0  0  0  0  0  0  0  0  0  0  0
  184.4720  179.3780  140.2530 C   0  0  0  0  0  3  0  0  0  0  0  0
  180.1650  177.2980  138.5880 C   0  0  0  0  0  2  0  0  0  0  0  0
  183.0780  177.5390  140.9740 C   0  0  0  0  0  3  0  0  0  0  0  0
  181.8810  178.7620  137.6850 O   0  0  0  0  0  0  0  0  0  0  0  0
  182.6460  178.6330  138.8510 C   0  0  0  0  0  0  0  0  0  0  0  0
  183.7200  179.4950  139.0790 C   0  0  0  0  0  3  0  0  0  0  0  0
  182.3160  177.6560  139.8080 C   0  0  0  0  0  0  0  0  0  0  0  0
  180.8810  177.8040  137.3350 C   0  0  0  0  0  2  0  0  0  0  0  0
  181.1890  176.6990  139.5530 C   0  0  0  0  0  2  0  0  0  0  0  0
  188.7270  176.4940  143.1860 C   0  0  0  0  0  2  0  0  0  0  0  0
  189.3580  177.5400  142.3960 N   0  0  0  0  0  0  0  0  0  0  0  0
  189.2420  177.5040  140.9700 C   0  0  0  0  0  0  0  0  0  0  0  0
  189.6860  177.0400  139.7280 C   0  0  0  0  0  2  0  0  0  0  0  0
  188.5920  177.9090  139.7440 C   0  0  0  0  0  0  0  0  0  0  0  0
  187.6060  178.6260  139.0810 O   0  0  0  0  0  1  0  0  0  0  0  0
  192.0510  179.0550  144.4950 O   0  0  0  0  0  1  0  0  0  0  0  0
  190.1780  178.4760  143.0500 N   0  0  0  0  0  2  0  0  0  0  0  0
  192.0810  177.1300  143.2560 O   0  0  0  0  0  0  0  0  0  0  0  0
  191.4590  178.1660  143.6070 C   0  0  0  0  0  0  0  0  0  0  0  0
  183.4120  179.5280  144.1530 C   0  0  0  0  0  2  0  0  0  0  0  0
  182.2000  178.6270  144.3630 C   0  0  0  0  0  2  0  0  0  0  0  0
  179.7550  178.3330  143.9450 C   0  0  0  0  0  1  0  0  0  0  0  0
  181.0130  179.0610  143.5120 C   0  0  0  0  0  2  0  0  0  0  0  0
  1  2  1  0  0  0  0
  2  6  1  0  0  0  0
  2  8  1  0  0  0  0
  3  1  2  0  0  0  0
  3  4  1  0  0  0  0
  4 29  1  0  0  0  0
  4  8  2  0  0  0  0
  6  7  2  0  0  0  0
  8  5  1  0  0  0  0
  9  3  1  0  0  0  0
 10  9  2  0  0  0  0
 11 18  1  0  0  0  0
 12  9  1  0  0  0  0
 13 14  1  0  0  0  0
 14 15  2  0  0  0  0
 14 16  1  0  0  0  0
 15 10  1  0  0  0  0
 16 12  2  0  0  0  0
 17 13  1  0  0  0  0
 17 11  1  0  0  0  0
 18 16  1  0  0  0  0
 19  6  1  0  0  0  0
 20 26  1  0  0  0  0
 20 19  1  0  0  0  0
 21 20  1  0  0  0  0
 22 23  1  0  0  0  0
 22 21  1  0  0  0  0
 23 21  2  0  0  0  0
 24 23  1  0  0  0  0
 26 28  1  0  0  0  0
 27 28  2  0  0  0  0
 28 25  1  0  0  0  0
 29 30  1  0  0  0  0
 32 31  1  0  0  0  0
 32 30  1  0  0  0  0
M  END
>  <MODEL>
6

>  <REMARK>
 VINA RESULT:      -8.2      2.560      5.169
  Name = 
  8 active torsions:
  status: ('A' for Active; 'I' for Inactive)
    1  A    between atoms: C_2  and  C_5
    2  A    between atoms: C_3  and  N_20
    3  A    between atoms: C_13  and  C_18
    4  A    between atoms: C_13  and  C_29
    5  A    between atoms: C_14  and  C_18
    6  A    between atoms: N_15  and  N_20
    7  A    between atoms: C_16  and  N_20
    8  A    between atoms: C_16  and  C_24
                            x       y       z     vdW  Elec       q    Type
                         _______ _______ _______ _____ _____    ______ ____

>  <TORSDO>
F 8

$$$$
=
 OpenBabel11052414433D

 32 35  0  0  0  0  0  0  0  0999 V2000
  186.2950  178.5970  142.9080 N   0  0  0  0  0  0  0  0  0  0  0  0
  185.9030  178.5250  144.1720 N   0  0  0  0  0  0  0  0  0  0  0  0
  187.4590  177.9220  142.7850 C   0  0  0  0  0  0  0  0  0  0  0  0
  187.8180  177.4130  144.0290 C   0  0  0  0  0  0  0  0  0  0  0  0
  186.7230  177.5030  146.3380 C   0  0  0  0  0  1  0  0  0  0  0  0
  184.6920  179.1330  144.6500 C   0  0  0  0  0  0  0  0  0  0  0  0
  184.3880  179.0890  145.8720 O   0  0  0  0  0  0  0  0  0  0  0  0
  186.8070  177.8110  144.8790 C   0  0  0  0  0  0  0  0  0  0  0  0
  188.1860  177.7970  141.5040 C   0  0  0  0  0  0  0  0  0  0  0  0
  189.5350  177.4130  141.4620 C   0  0  0  0  0  3  0  0  0  0  0  0
  188.4140  178.6570  136.6820 C   0  0  0  0  0  2  0  0  0  0  0  0
  187.5200  178.0800  140.3020 C   0  0  0  0  0  3  0  0  0  0  0  0
  190.2210  177.5070  137.8280 O   0  0  0  0  0  0  0  0  0  0  0  0
  189.5400  177.5900  139.0480 C   0  0  0  0  0  0  0  0  0  0  0  0
  190.2100  177.3100  140.2410 C   0  0  0  0  0  3  0  0  0  0  0  0
  188.1910  177.9880  139.0790 C   0  0  0  0  0  0  0  0  0  0  0  0
  189.5380  177.6260  136.5780 C   0  0  0  0  0  2  0  0  0  0  0  0
  187.4520  178.2530  137.8010 C   0  0  0  0  0  2  0  0  0  0  0  0
  183.7530  179.7890  143.6900 C   0  0  0  0  0  2  0  0  0  0  0  0
  182.9930  178.7800  142.9690 N   0  0  0  0  0  0  0  0  0  0  0  0
  183.3620  178.4580  141.6240 C   0  0  0  0  0  0  0  0  0  0  0  0
  183.4200  177.5430  140.5680 C   0  0  0  0  0  2  0  0  0  0  0  0
  183.9410  178.8210  140.3500 C   0  0  0  0  0  0  0  0  0  0  0  0
  184.5550  179.7530  139.5250 O   0  0  0  0  0  1  0  0  0  0  0  0
  179.5390  178.4530  144.3530 O   0  0  0  0  0  1  0  0  0  0  0  0
  181.8350  178.2530  143.5660 N   0  0  0  0  0  2  0  0  0  0  0  0
  180.2910  179.7240  142.6040 O   0  0  0  0  0  0  0  0  0  0  0  0
  180.5440  178.8640  143.4870 C   0  0  0  0  0  0  0  0  0  0  0  0
  189.0060  176.5790  144.3910 C   0  0  0  0  0  2  0  0  0  0  0  0
  189.9730  177.3500  145.2830 C   0  0  0  0  0  2  0  0  0  0  0  0
  191.3080  179.0030  143.9710 C   0  0  0  0  0  1  0  0  0  0  0  0
  191.3010  177.6170  144.5860 C   0  0  0  0  0  2  0  0  0  0  0  0
  1  2  1  0  0  0  0
  2  6  1  0  0  0  0
  2  8  1  0  0  0  0
  3  1  2  0  0  0  0
  3  4  1  0  0  0  0
  4 29  1  0  0  0  0
  4  8  2  0  0  0  0
  6  7  2  0  0  0  0
  8  5  1  0  0  0  0
  9  3  1  0  0  0  0
 10  9  1  0  0  0  0
 11 18  1  0  0  0  0
 12  9  2  0  0  0  0
 13 14  1  0  0  0  0
 14 16  2  0  0  0  0
 14 15  1  0  0  0  0
 15 10  2  0  0  0  0
 16 12  1  0  0  0  0
 17 11  1  0  0  0  0
 17 13  1  0  0  0  0
 18 16  1  0  0  0  0
 19  6  1  0  0  0  0
 20 26  1  0  0  0  0
 20 19  1  0  0  0  0
 21 20  1  0  0  0  0
 22 21  1  0  0  0  0
 23 22  1  0  0  0  0
 23 21  2  0  0  0  0
 24 23  1  0  0  0  0
 27 28  2  0  0  0  0
 28 26  1  0  0  0  0
 28 25  1  0  0  0  0
 29 30  1  0  0  0  0
 31 32  1  0  0  0  0
 32 30  1  0  0  0  0
M  END
>  <MODEL>
7

>  <REMARK>
 VINA RESULT:      -8.2      2.200      6.746
  Name = 
  8 active torsions:
  status: ('A' for Active; 'I' for Inactive)
    1  A    between atoms: C_2  and  C_5
    2  A    between atoms: C_3  and  N_20
    3  A    between atoms: C_13  and  C_18
    4  A    between atoms: C_13  and  C_29
    5  A    between atoms: C_14  and  C_18
    6  A    between atoms: N_15  and  N_20
    7  A    between atoms: C_16  and  N_20
    8  A    between atoms: C_16  and  C_24
                            x       y       z     vdW  Elec       q    Type
                         _______ _______ _______ _____ _____    ______ ____

>  <TORSDO>
F 8

$$$$
=
 OpenBabel11052414433D

 32 35  0  0  0  0  0  0  0  0999 V2000
  184.3420  177.9170  141.6100 N   0  0  0  0  0  0  0  0  0  0  0  0
  183.1040  178.1910  141.9950 N   0  0  0  0  0  0  0  0  0  0  0  0
  185.1860  178.2970  142.5950 C   0  0  0  0  0  0  0  0  0  0  0  0
  184.4440  178.8420  143.6380 C   0  0  0  0  0  0  0  0  0  0  0  0
  181.9390  179.2000  144.0030 C   0  0  0  0  0  1  0  0  0  0  0  0
  181.9520  177.9060  141.1820 C   0  0  0  0  0  0  0  0  0  0  0  0
  180.7970  178.2360  141.5630 O   0  0  0  0  0  0  0  0  0  0  0  0
  183.1320  178.7530  143.2230 C   0  0  0  0  0  0  0  0  0  0  0  0
  186.6530  178.1400  142.5020 C   0  0  0  0  0  0  0  0  0  0  0  0
  187.3470  178.4370  141.3200 C   0  0  0  0  0  3  0  0  0  0  0  0
  190.8330  176.3800  144.3640 C   0  0  0  0  0  2  0  0  0  0  0  0
  187.3690  177.6730  143.6140 C   0  0  0  0  0  3  0  0  0  0  0  0
  190.8270  177.6260  142.2790 O   0  0  0  0  0  0  0  0  0  0  0  0
  189.4410  177.8100  142.3580 C   0  0  0  0  0  0  0  0  0  0  0  0
  188.7350  178.2730  141.2460 C   0  0  0  0  0  3  0  0  0  0  0  0
  188.7540  177.4980  143.5450 C   0  0  0  0  0  0  0  0  0  0  0  0
  191.6090  177.3110  143.4320 C   0  0  0  0  0  2  0  0  0  0  0  0
  189.5090  177.0380  144.7570 C   0  0  0  0  0  2  0  0  0  0  0  0
  182.1090  177.1700  139.8910 C   0  0  0  0  0  2  0  0  0  0  0  0
  182.6410  178.0600  138.8710 N   0  0  0  0  0  0  0  0  0  0  0  0
  181.7890  179.0600  138.3040 C   0  0  0  0  0  0  0  0  0  0  0  0
  180.6790  179.4110  137.5300 C   0  0  0  0  0  2  0  0  0  0  0  0
  181.4240  180.4450  138.1020 C   0  0  0  0  0  0  0  0  0  0  0  0
  181.6500  181.7960  138.3220 O   0  0  0  0  0  1  0  0  0  0  0  0
  186.1190  178.5820  137.6130 O   0  0  0  0  0  0  0  0  0  0  0  0
  183.9350  177.8220  138.3760 N   0  0  0  0  0  2  0  0  0  0  0  0
  184.9310  179.7910  139.1510 O   0  0  0  0  0  1  0  0  0  0  0  0
  184.9890  178.7880  138.3930 C   0  0  0  0  0  0  0  0  0  0  0  0
  184.9270  179.3750  144.9490 C   0  0  0  0  0  2  0  0  0  0  0  0
  184.8870  178.3030  146.0330 C   0  0  0  0  0  2  0  0  0  0  0  0
  187.0920  178.2300  147.2020 C   0  0  0  0  0  1  0  0  0  0  0  0
  185.6590  178.7220  147.2770 C   0  0  0  0  0  2  0  0  0  0  0  0
  1  2  1  0  0  0  0
  1  3  2  0  0  0  0
  2  8  1  0  0  0  0
  3  4  1  0  0  0  0
  4 29  1  0  0  0  0
  6  7  2  0  0  0  0
  6  2  1  0  0  0  0
  8  4  2  0  0  0  0
  8  5  1  0  0  0  0
  9  3  1  0  0  0  0
  9 12  1  0  0  0  0
 10  9  2  0  0  0  0
 11 18  1  0  0  0  0
 13 14  1  0  0  0  0
 13 17  1  0  0  0  0
 14 16  1  0  0  0  0
 15 10  1  0  0  0  0
 15 14  2  0  0  0  0
 16 12  2  0  0  0  0
 16 18  1  0  0  0  0
 17 11  1  0  0  0  0
 19  6  1  0  0  0  0
 20 19  1  0  0  0  0
 21 20  1  0  0  0  0
 22 23  1  0  0  0  0
 22 21  1  0  0  0  0
 23 21  2  0  0  0  0
 23 24  1  0  0  0  0
 25 28  2  0  0  0  0
 26 28  1  0  0  0  0
 26 20  1  0  0  0  0
 28 27  1  0  0  0  0
 29 30  1  0  0  0  0
 30 32  1  0  0  0  0
 31 32  1  0  0  0  0
M  END
>  <MODEL>
8

>  <REMARK>
 VINA RESULT:      -8.2      2.569      6.804
  Name = 
  8 active torsions:
  status: ('A' for Active; 'I' for Inactive)
    1  A    between atoms: C_2  and  C_5
    2  A    between atoms: C_3  and  N_20
    3  A    between atoms: C_13  and  C_18
    4  A    between atoms: C_13  and  C_29
    5  A    between atoms: C_14  and  C_18
    6  A    between atoms: N_15  and  N_20
    7  A    between atoms: C_16  and  N_20
    8  A    between atoms: C_16  and  C_24
                            x       y       z     vdW  Elec       q    Type
                         _______ _______ _______ _____ _____    ______ ____

>  <TORSDO>
F 8

$$$$
=
 OpenBabel11052414433D

 32 35  0  0  0  0  0  0  0  0999 V2000
  187.5210  177.5780  143.9660 N   0  0  0  0  0  0  0  0  0  0  0  0
  187.3380  177.6720  145.2760 N   0  0  0  0  0  0  0  0  0  0  0  0
  186.5280  178.2550  143.3490 C   0  0  0  0  0  0  0  0  0  0  0  0
  185.6810  178.7900  144.3140 C   0  0  0  0  0  0  0  0  0  0  0  0
  185.6870  178.7400  146.8710 C   0  0  0  0  0  1  0  0  0  0  0  0
  188.2230  177.0670  146.2340 C   0  0  0  0  0  0  0  0  0  0  0  0
  187.9780  177.1340  147.4680 O   0  0  0  0  0  0  0  0  0  0  0  0
  186.2290  178.4040  145.5190 C   0  0  0  0  0  0  0  0  0  0  0  0
  186.4180  178.3580  141.8790 C   0  0  0  0  0  0  0  0  0  0  0  0
  185.1820  178.5750  141.2510 C   0  0  0  0  0  3  0  0  0  0  0  0
  188.4160  177.7370  137.4440 C   0  0  0  0  0  2  0  0  0  0  0  0
  187.5690  178.2250  141.0890 C   0  0  0  0  0  3  0  0  0  0  0  0
  186.1540  178.5930  137.6820 O   0  0  0  0  0  0  0  0  0  0  0  0
  186.2450  178.5290  139.0780 C   0  0  0  0  0  0  0  0  0  0  0  0
  185.0940  178.6600  139.8570 C   0  0  0  0  0  3  0  0  0  0  0  0
  187.4880  178.2990  139.6950 C   0  0  0  0  0  0  0  0  0  0  0  0
  187.3190  178.6260  136.8560 C   0  0  0  0  0  2  0  0  0  0  0  0
  188.7350  178.1970  138.8680 C   0  0  0  0  0  2  0  0  0  0  0  0
  189.4730  176.3890  145.7760 C   0  0  0  0  0  2  0  0  0  0  0  0
  190.5820  177.3290  145.7820 N   0  0  0  0  0  0  0  0  0  0  0  0
  190.8480  178.1030  144.6070 C   0  0  0  0  0  0  0  0  0  0  0  0
  191.0480  179.3420  143.9900 C   0  0  0  0  0  2  0  0  0  0  0  0
  191.1120  178.1990  143.1890 C   0  0  0  0  0  0  0  0  0  0  0  0
  191.2960  177.5960  141.9530 O   0  0  0  0  0  1  0  0  0  0  0  0
  192.7800  176.2380  148.5970 O   0  0  0  0  0  1  0  0  0  0  0  0
  191.4430  177.3500  146.8930 N   0  0  0  0  0  2  0  0  0  0  0  0
  192.4280  175.2540  146.5600 O   0  0  0  0  0  0  0  0  0  0  0  0
  192.2110  176.2260  147.3310 C   0  0  0  0  0  0  0  0  0  0  0  0
  184.4620  179.6360  144.1230 C   0  0  0  0  0  2  0  0  0  0  0  0
  183.1880  178.8450  144.3990 C   0  0  0  0  0  2  0  0  0  0  0  0
  181.8740  178.6350  142.2860 C   0  0  0  0  0  1  0  0  0  0  0  0
  182.0040  179.3770  143.6030 C   0  0  0  0  0  2  0  0  0  0  0  0
  1  2  1  0  0  0  0
  2  8  1  0  0  0  0
  2  6  1  0  0  0  0
  3  1  2  0  0  0  0
  3  4  1  0  0  0  0
  4  8  2  0  0  0  0
  6  7  2  0  0  0  0
  8  5  1  0  0  0  0
  9  3  1  0  0  0  0
 10  9  1  0  0  0  0
 11 18  1  0  0  0  0
 12  9  2  0  0  0  0
 13 14  1  0  0  0  0
 14 16  2  0  0  0  0
 14 15  1  0  0  0  0
 15 10  2  0  0  0  0
 16 12  1  0  0  0  0
 17 11  1  0  0  0  0
 17 13  1  0  0  0  0
 18 16  1  0  0  0  0
 19 20  1  0  0  0  0
 19  6  1  0  0  0  0
 20 26  1  0  0  0  0
 21 20  1  0  0  0  0
 22 21  1  0  0  0  0
 23 22  1  0  0  0  0
 23 21  2  0  0  0  0
 24 23  1  0  0  0  0
 26 28  1  0  0  0  0
 27 28  2  0  0  0  0
 28 25  1  0  0  0  0
 29  4  1  0  0  0  0
 29 30  1  0  0  0  0
 31 32  1  0  0  0  0
 32 30  1  0  0  0  0
M  END
>  <MODEL>
9

>  <REMARK>
 VINA RESULT:      -8.1      3.060      6.886
  Name = 
  8 active torsions:
  status: ('A' for Active; 'I' for Inactive)
    1  A    between atoms: C_2  and  C_5
    2  A    between atoms: C_3  and  N_20
    3  A    between atoms: C_13  and  C_18
    4  A    between atoms: C_13  and  C_29
    5  A    between atoms: C_14  and  C_18
    6  A    between atoms: N_15  and  N_20
    7  A    between atoms: C_16  and  N_20
    8  A    between atoms: C_16  and  C_24
                            x       y       z     vdW  Elec       q    Type
                         _______ _______ _______ _____ _____    ______ ____

>  <TORSDO>
F 8

$$$$
