=
 OpenBabel11052412493D

 25 28  0  0  1  0  0  0  0  0999 V2000
  186.8790  177.8940  144.8190 N   0  0  0  0  0  0  0  0  0  0  0  0
  187.9280  177.1960  144.3070 C   0  0  0  0  0  0  0  0  0  0  0  0
  188.0550  178.4950  146.8070 C   0  0  0  0  0  3  0  0  0  0  0  0
  185.6480  178.1460  144.3540 C   0  0  0  0  0  0  0  0  0  0  0  0
  183.0830  178.9230  143.8120 C   0  0  0  0  0  3  0  0  0  0  0  0
  189.1600  177.7790  146.3240 C   0  0  0  0  0  3  0  0  0  0  0  0
  184.9780  178.9140  145.2610 C   0  0  0  0  0  0  0  0  0  0  0  0
  183.6740  179.3310  145.0240 C   0  0  0  0  0  3  0  0  0  0  0  0
  190.2530  176.4050  144.5680 N   0  0  0  0  0  0  0  0  0  0  0  0
  191.5520  176.4990  145.2140 C   0  0  0  0  0  1  0  0  0  0  0  0
  187.8230  176.4780  142.9860 C   0  0  0  0  0  2  0  0  0  0  0  0
  183.8150  178.1280  142.8990 C   0  0  0  0  0  3  0  0  0  0  0  0
  186.9120  178.5300  146.0150 C   0  0  0  0  0  0  0  0  0  0  0  0
  185.7570  179.1770  146.3330 N   0  0  0  0  0  0  0  0  0  0  0  0
  190.1370  175.5740  143.3710 C   0  0  0  0  0  2  0  0  0  0  0  0
  185.0990  177.7450  143.1800 N   0  0  0  0  0  0  0  0  0  0  0  0
  189.1900  176.2080  142.3510 C   0  0  2  0  0  3  0  0  0  0  0  0
  189.1090  177.1170  145.0780 C   0  0  0  0  0  0  0  0  0  0  0  0
  189.7720  177.4590  141.7810 C   0  0  0  0  0  3  0  0  0  0  0  0
  189.8020  177.6360  140.4910 C   0  0  0  0  0  0  0  0  0  0  0  0
  189.8330  177.8090  139.1980 C   0  0  0  0  0  0  0  0  0  0  0  0
  189.1310  178.9870  138.6130 C   0  0  0  0  0  1  0  0  0  0  0  0
  190.5330  176.8480  138.3300 C   0  0  0  0  0  0  0  0  0  0  0  0
  190.9940  175.6400  138.8440 O   0  0  0  0  0  1  0  0  0  0  0  0
  190.7230  177.1120  137.1140 O   0  0  0  0  0  0  0  0  0  0  0  0
  1 13  1  0  0  0  0
  2  1  1  0  0  0  0
  2 18  2  0  0  0  0
  4  1  1  0  0  0  0
  4  7  1  0  0  0  0
  5  8  1  0  0  0  0
  6  3  2  0  0  0  0
  7 14  1  0  0  0  0
  8  7  2  0  0  0  0
  9 18  1  0  0  0  0
  9 10  1  0  0  0  0
 11  2  1  0  0  0  0
 12 16  1  0  0  0  0
 12  5  2  0  0  0  0
 13 14  2  0  0  0  0
 13  3  1  0  0  0  0
 15  9  1  0  0  0  0
 16  4  2  0  0  0  0
 17 19  1  1  0  0  0
 17 11  1  0  0  0  0
 17 15  1  0  0  0  0
 18  6  1  0  0  0  0
 20 19  2  0  0  0  0
 21 20  2  0  0  0  0
 22 21  1  0  0  0  0
 23 24  1  0  0  0  0
 23 21  1  0  0  0  0
 25 23  2  0  0  0  0
M  END
>  <MODEL>
1

>  <REMARK>
 VINA RESULT:      -8.3      0.000      0.000
  Name = 
  2 active torsions:
  status: ('A' for Active; 'I' for Inactive)
    1  A    between atoms: C_2  and  C_21
    2  A    between atoms: C_6  and  C_23
                            x       y       z     vdW  Elec       q    Type
                         _______ _______ _______ _____ _____    ______ ____

>  <TORSDO>
F 2

$$$$
=
 OpenBabel11052412493D

 25 28  0  0  1  0  0  0  0  0999 V2000
  187.9420  177.7290  142.1780 N   0  0  0  0  0  0  0  0  0  0  0  0
  186.8290  178.3280  142.6810 C   0  0  0  0  0  0  0  0  0  0  0  0
  188.4510  176.6150  144.2260 C   0  0  0  0  0  3  0  0  0  0  0  0
  188.5170  177.7630  140.9680 C   0  0  0  0  0  0  0  0  0  0  0  0
  190.0080  177.5130  138.6900 C   0  0  0  0  0  3  0  0  0  0  0  0
  187.3170  177.2160  144.7910 C   0  0  0  0  0  3  0  0  0  0  0  0
  189.6260  176.9680  140.9810 C   0  0  0  0  0  0  0  0  0  0  0  0
  190.4100  176.8130  139.8450 C   0  0  0  0  0  3  0  0  0  0  0  0
  185.3190  178.6780  144.6030 N   0  0  0  0  0  0  0  0  0  0  0  0
  184.8170  178.2670  145.9050 C   0  0  0  0  0  1  0  0  0  0  0  0
  185.9990  179.2710  141.8470 C   0  0  0  0  0  2  0  0  0  0  0  0
  188.8510  178.3250  138.7220 C   0  0  0  0  0  3  0  0  0  0  0  0
  188.7380  176.9000  142.8940 C   0  0  0  0  0  0  0  0  0  0  0  0
  189.7950  176.4030  142.1960 N   0  0  0  0  0  0  0  0  0  0  0  0
  184.5830  179.7100  143.8760 C   0  0  0  0  0  2  0  0  0  0  0  0
  188.1110  178.4430  139.8670 N   0  0  0  0  0  0  0  0  0  0  0  0
  184.5700  179.4220  142.3740 C   0  0  2  0  0  3  0  0  0  0  0  0
  186.4990  178.0820  144.0330 C   0  0  0  0  0  0  0  0  0  0  0  0
  183.7530  178.2110  142.0660 C   0  0  0  0  0  3  0  0  0  0  0  0
  182.4850  178.3320  141.7960 C   0  0  0  0  0  0  0  0  0  0  0  0
  181.2130  178.4550  141.5280 C   0  0  0  0  0  0  0  0  0  0  0  0
  180.7060  177.9780  140.2110 C   0  0  0  0  0  1  0  0  0  0  0  0
  180.2990  179.0700  142.5050 C   0  0  0  0  0  0  0  0  0  0  0  0
  179.2700  178.3260  143.0750 O   0  0  0  0  0  1  0  0  0  0  0  0
  180.4390  180.2780  142.8310 O   0  0  0  0  0  0  0  0  0  0  0  0
  1  2  1  0  0  0  0
  1 13  1  0  0  0  0
  2 18  2  0  0  0  0
  3  6  2  0  0  0  0
  4  7  1  0  0  0  0
  4  1  1  0  0  0  0
  5 12  2  0  0  0  0
  5  8  1  0  0  0  0
  7 14  1  0  0  0  0
  8  7  2  0  0  0  0
  9 10  1  0  0  0  0
 11 17  1  0  0  0  0
 11  2  1  0  0  0  0
 12 16  1  0  0  0  0
 13  3  1  0  0  0  0
 14 13  2  0  0  0  0
 15  9  1  0  0  0  0
 16  4  2  0  0  0  0
 17 19  1  1  0  0  0
 17 15  1  0  0  0  0
 18  9  1  0  0  0  0
 18  6  1  0  0  0  0
 20 19  2  0  0  0  0
 21 20  2  0  0  0  0
 21 23  1  0  0  0  0
 22 21  1  0  0  0  0
 23 25  2  0  0  0  0
 23 24  1  0  0  0  0
M  END
>  <MODEL>
2

>  <REMARK>
 VINA RESULT:      -8.2      4.062      7.024
  Name = 
  2 active torsions:
  status: ('A' for Active; 'I' for Inactive)
    1  A    between atoms: C_2  and  C_21
    2  A    between atoms: C_6  and  C_23
                            x       y       z     vdW  Elec       q    Type
                         _______ _______ _______ _____ _____    ______ ____

>  <TORSDO>
F 2

$$$$
=
 OpenBabel11052412493D

 25 28  0  0  1  0  0  0  0  0999 V2000
  188.3010  177.6310  141.5930 N   0  0  0  0  0  0  0  0  0  0  0  0
  187.2500  178.1600  142.2750 C   0  0  0  0  0  0  0  0  0  0  0  0
  189.1000  176.4040  143.4770 C   0  0  0  0  0  3  0  0  0  0  0  0
  188.7120  177.7610  140.3240 C   0  0  0  0  0  0  0  0  0  0  0  0
  189.8970  177.7060  137.8600 C   0  0  0  0  0  3  0  0  0  0  0  0
  188.0360  176.9310  144.2230 C   0  0  0  0  0  3  0  0  0  0  0  0
  189.8310  177.0030  140.1390 C   0  0  0  0  0  0  0  0  0  0  0  0
  190.4640  176.9470  138.9030 C   0  0  0  0  0  3  0  0  0  0  0  0
  185.9970  178.3370  144.3950 N   0  0  0  0  0  0  0  0  0  0  0  0
  185.6800  177.8270  145.7200 C   0  0  0  0  0  1  0  0  0  0  0  0
  186.2960  179.1270  141.6210 C   0  0  0  0  0  2  0  0  0  0  0  0
  188.7350  178.4770  138.0970 C   0  0  0  0  0  3  0  0  0  0  0  0
  189.2040  176.7830  142.1420 C   0  0  0  0  0  0  0  0  0  0  0  0
  190.1720  176.3660  141.2810 N   0  0  0  0  0  0  0  0  0  0  0  0
  185.1470  179.3890  143.8410 C   0  0  0  0  0  2  0  0  0  0  0  0
  188.1490  178.4970  139.3330 N   0  0  0  0  0  0  0  0  0  0  0  0
  184.9450  179.1970  142.3380 C   0  0  2  0  0  3  0  0  0  0  0  0
  187.1060  177.8170  143.6380 C   0  0  0  0  0  0  0  0  0  0  0  0
  184.1240  177.9840  142.0560 C   0  0  0  0  0  3  0  0  0  0  0  0
  183.4710  177.8840  140.9330 C   0  0  0  0  0  0  0  0  0  0  0  0
  182.8150  177.7880  139.8080 C   0  0  0  0  0  0  0  0  0  0  0  0
  183.1130  176.6460  138.8980 C   0  0  0  0  0  1  0  0  0  0  0  0
  181.8110  178.7990  139.4390 C   0  0  0  0  0  0  0  0  0  0  0  0
  181.5860  179.1140  138.1020 O   0  0  0  0  0  0  0  0  0  0  0  0
  181.1480  179.3900  140.3300 O   0  0  0  0  0  1  0  0  0  0  0  0
  1 13  1  0  0  0  0
  1  2  1  0  0  0  0
  2 18  2  0  0  0  0
  3  6  2  0  0  0  0
  4  1  1  0  0  0  0
  5 12  2  0  0  0  0
  5  8  1  0  0  0  0
  7  4  1  0  0  0  0
  7 14  1  0  0  0  0
  8  7  2  0  0  0  0
  9 10  1  0  0  0  0
 11  2  1  0  0  0  0
 11 17  1  0  0  0  0
 12 16  1  0  0  0  0
 13  3  1  0  0  0  0
 14 13  2  0  0  0  0
 15  9  1  0  0  0  0
 16  4  2  0  0  0  0
 17 19  1  1  0  0  0
 17 15  1  0  0  0  0
 18  6  1  0  0  0  0
 18  9  1  0  0  0  0
 20 19  2  0  0  0  0
 21 20  2  0  0  0  0
 22 21  1  0  0  0  0
 23 21  1  0  0  0  0
 23 25  1  0  0  0  0
 24 23  2  0  0  0  0
M  END
>  <MODEL>
3

>  <REMARK>
 VINA RESULT:      -7.9      3.589      6.441
  Name = 
  2 active torsions:
  status: ('A' for Active; 'I' for Inactive)
    1  A    between atoms: C_2  and  C_21
    2  A    between atoms: C_6  and  C_23
                            x       y       z     vdW  Elec       q    Type
                         _______ _______ _______ _____ _____    ______ ____

>  <TORSDO>
F 2

$$$$
=
 OpenBabel11052412493D

 25 28  0  0  1  0  0  0  0  0999 V2000
  188.8340  177.6000  143.6890 N   0  0  0  0  0  0  0  0  0  0  0  0
  189.0480  177.8680  142.3720 C   0  0  0  0  0  0  0  0  0  0  0  0
  186.4620  177.7570  143.4900 C   0  0  0  0  0  3  0  0  0  0  0  0
  189.6690  177.3390  144.7040 C   0  0  0  0  0  0  0  0  0  0  0  0
  190.9630  176.7500  147.0400 C   0  0  0  0  0  3  0  0  0  0  0  0
  186.6330  178.0460  142.1280 C   0  0  0  0  0  3  0  0  0  0  0  0
  188.9370  177.1270  145.8360 C   0  0  0  0  0  0  0  0  0  0  0  0
  189.5560  176.8250  147.0430 C   0  0  0  0  0  3  0  0  0  0  0  0
  188.0970  178.3810  140.1520 N   0  0  0  0  0  0  0  0  0  0  0  0
  186.9670  178.4010  139.2370 C   0  0  0  0  0  1  0  0  0  0  0  0
  190.4420  177.9610  141.8060 C   0  0  0  0  0  2  0  0  0  0  0  0
  191.6810  176.9750  145.8420 C   0  0  0  0  0  3  0  0  0  0  0  0
  187.6050  177.5370  144.2530 C   0  0  0  0  0  0  0  0  0  0  0  0
  187.6160  177.2480  145.5820 N   0  0  0  0  0  0  0  0  0  0  0  0
  189.4300  178.6280  139.6040 C   0  0  0  0  0  2  0  0  0  0  0  0
  191.0230  177.2690  144.6780 N   0  0  0  0  0  0  0  0  0  0  0  0
  190.4780  177.7500  140.2900 C   0  0  2  0  0  3  0  0  0  0  0  0
  187.9220  178.1120  141.5560 C   0  0  0  0  0  0  0  0  0  0  0  0
  190.2840  176.3120  139.9430 C   0  0  0  0  0  3  0  0  0  0  0  0
  190.4850  175.9020  138.7230 C   0  0  0  0  0  0  0  0  0  0  0  0
  190.6840  175.4940  137.4990 C   0  0  0  0  0  0  0  0  0  0  0  0
  191.7130  174.4450  137.2490 C   0  0  0  0  0  1  0  0  0  0  0  0
  189.9190  176.0740  136.3830 C   0  0  0  0  0  0  0  0  0  0  0  0
  188.7110  176.7250  136.6190 O   0  0  0  0  0  1  0  0  0  0  0  0
  190.3500  175.9840  135.2040 O   0  0  0  0  0  0  0  0  0  0  0  0
  1 13  1  0  0  0  0
  1  4  1  0  0  0  0
  2  1  1  0  0  0  0
  3 13  1  0  0  0  0
  4  7  1  0  0  0  0
  5  8  1  0  0  0  0
  6  3  2  0  0  0  0
  7  8  2  0  0  0  0
  9 18  1  0  0  0  0
 10  9  1  0  0  0  0
 11  2  1  0  0  0  0
 12  5  2  0  0  0  0
 13 14  2  0  0  0  0
 14  7  1  0  0  0  0
 15  9  1  0  0  0  0
 15 17  1  0  0  0  0
 16  4  2  0  0  0  0
 16 12  1  0  0  0  0
 17 19  1  1  0  0  0
 17 11  1  0  0  0  0
 18  6  1  0  0  0  0
 18  2  2  0  0  0  0
 20 19  2  0  0  0  0
 21 20  2  0  0  0  0
 22 21  1  0  0  0  0
 23 24  1  0  0  0  0
 23 21  1  0  0  0  0
 25 23  2  0  0  0  0
M  END
>  <MODEL>
4

>  <REMARK>
 VINA RESULT:      -7.3      2.053      4.672
  Name = 
  2 active torsions:
  status: ('A' for Active; 'I' for Inactive)
    1  A    between atoms: C_2  and  C_21
    2  A    between atoms: C_6  and  C_23
                            x       y       z     vdW  Elec       q    Type
                         _______ _______ _______ _____ _____    ______ ____

>  <TORSDO>
F 2

$$$$
=
 OpenBabel11052412493D

 25 28  0  0  1  0  0  0  0  0999 V2000
  185.5470  178.2520  143.5620 N   0  0  0  0  0  0  0  0  0  0  0  0
  184.5570  178.5150  142.6660 C   0  0  0  0  0  0  0  0  0  0  0  0
  184.1400  178.6250  145.4530 C   0  0  0  0  0  3  0  0  0  0  0  0
  186.8320  177.9040  143.4120 C   0  0  0  0  0  0  0  0  0  0  0  0
  189.4600  177.1730  143.5940 C   0  0  0  0  0  3  0  0  0  0  0  0
  183.0900  178.9120  144.5680 C   0  0  0  0  0  3  0  0  0  0  0  0
  187.3960  177.7460  144.6440 C   0  0  0  0  0  0  0  0  0  0  0  0
  188.7280  177.3750  144.7800 C   0  0  0  0  0  3  0  0  0  0  0  0
  182.2020  179.1370  142.2600 N   0  0  0  0  0  0  0  0  0  0  0  0
  180.8330  179.2700  142.7320 C   0  0  0  0  0  1  0  0  0  0  0  0
  184.8150  178.4870  141.1810 C   0  0  0  0  0  2  0  0  0  0  0  0
  188.8340  177.3470  142.3370 C   0  0  0  0  0  3  0  0  0  0  0  0
  185.3750  178.2940  144.9050 C   0  0  0  0  0  0  0  0  0  0  0  0
  186.4930  177.9880  145.6190 N   0  0  0  0  0  0  0  0  0  0  0  0
  182.4520  179.2690  140.8260 C   0  0  0  0  0  2  0  0  0  0  0  0
  187.5180  177.7120  142.2580 N   0  0  0  0  0  0  0  0  0  0  0  0
  183.5340  178.2920  140.3650 C   0  0  2  0  0  3  0  0  0  0  0  0
  183.2860  178.8690  143.1700 C   0  0  0  0  0  0  0  0  0  0  0  0
  183.0550  176.8810  140.4470 C   0  0  0  0  0  3  0  0  0  0  0  0
  181.9560  176.5290  139.8420 C   0  0  0  0  0  0  0  0  0  0  0  0
  180.8530  176.1790  139.2380 C   0  0  0  0  0  0  0  0  0  0  0  0
  180.9080  175.1100  138.2020 C   0  0  0  0  0  1  0  0  0  0  0  0
  179.5800  176.8430  139.5640 C   0  0  0  0  0  0  0  0  0  0  0  0
  179.0750  176.8050  140.8600 O   0  0  0  0  0  1  0  0  0  0  0  0
  178.9340  177.4490  138.6690 O   0  0  0  0  0  0  0  0  0  0  0  0
  1 13  1  0  0  0  0
  2 18  2  0  0  0  0
  2  1  1  0  0  0  0
  4  1  1  0  0  0  0
  4  7  1  0  0  0  0
  5  8  1  0  0  0  0
  6  3  2  0  0  0  0
  7  8  2  0  0  0  0
  7 14  1  0  0  0  0
  9 10  1  0  0  0  0
  9 18  1  0  0  0  0
 11  2  1  0  0  0  0
 12  5  2  0  0  0  0
 13  3  1  0  0  0  0
 13 14  2  0  0  0  0
 15  9  1  0  0  0  0
 16 12  1  0  0  0  0
 16  4  2  0  0  0  0
 17 19  1  1  0  0  0
 17 15  1  0  0  0  0
 17 11  1  0  0  0  0
 18  6  1  0  0  0  0
 20 19  2  0  0  0  0
 21 23  1  0  0  0  0
 21 20  2  0  0  0  0
 22 21  1  0  0  0  0
 23 24  1  0  0  0  0
 25 23  2  0  0  0  0
M  END
>  <MODEL>
5

>  <REMARK>
 VINA RESULT:      -7.2      4.301      7.126
  Name = 
  2 active torsions:
  status: ('A' for Active; 'I' for Inactive)
    1  A    between atoms: C_2  and  C_21
    2  A    between atoms: C_6  and  C_23
                            x       y       z     vdW  Elec       q    Type
                         _______ _______ _______ _____ _____    ______ ____

>  <TORSDO>
F 2

$$$$
=
 OpenBabel11052412493D

 25 28  0  0  1  0  0  0  0  0999 V2000
  187.5840  177.8120  142.7200 N   0  0  0  0  0  0  0  0  0  0  0  0
  186.3160  178.3060  142.7130 C   0  0  0  0  0  0  0  0  0  0  0  0
  187.5380  177.3130  145.0530 C   0  0  0  0  0  3  0  0  0  0  0  0
  188.5000  177.6630  141.7540 C   0  0  0  0  0  0  0  0  0  0  0  0
  190.6430  177.1560  140.1330 C   0  0  0  0  0  3  0  0  0  0  0  0
  186.2310  177.8190  145.0970 C   0  0  0  0  0  3  0  0  0  0  0  0
  189.6220  177.1010  142.2890 C   0  0  0  0  0  0  0  0  0  0  0  0
  190.7330  176.8270  141.5000 C   0  0  0  0  0  3  0  0  0  0  0  0
  184.2560  178.8230  143.9730 N   0  0  0  0  0  0  0  0  0  0  0  0
  183.4180  178.6440  145.1480 C   0  0  0  0  0  1  0  0  0  0  0  0
  185.6990  178.8660  141.4570 C   0  0  0  0  0  2  0  0  0  0  0  0
  189.4590  177.7370  139.6210 C   0  0  0  0  0  3  0  0  0  0  0  0
  188.1950  177.3260  143.8270 C   0  0  0  0  0  0  0  0  0  0  0  0
  189.4600  176.8740  143.6110 N   0  0  0  0  0  0  0  0  0  0  0  0
  183.6850  179.5100  142.8170 C   0  0  0  0  0  2  0  0  0  0  0  0
  188.3920  177.9860  140.4410 N   0  0  0  0  0  0  0  0  0  0  0  0
  184.1680  178.8820  141.5100 C   0  0  2  0  0  3  0  0  0  0  0  0
  185.6080  178.3270  143.9360 C   0  0  0  0  0  0  0  0  0  0  0  0
  183.6110  177.5090  141.3340 C   0  0  0  0  0  3  0  0  0  0  0  0
  183.0740  177.1630  140.1990 C   0  0  0  0  0  0  0  0  0  0  0  0
  182.5330  176.8200  139.0620 C   0  0  0  0  0  0  0  0  0  0  0  0
  183.1050  175.6660  138.3120 C   0  0  0  0  0  1  0  0  0  0  0  0
  181.3880  177.5710  138.5210 C   0  0  0  0  0  0  0  0  0  0  0  0
  181.4290  178.0850  137.2280 O   0  0  0  0  0  0  0  0  0  0  0  0
  180.3620  177.7580  139.2250 O   0  0  0  0  0  1  0  0  0  0  0  0
  1 13  1  0  0  0  0
  2  1  1  0  0  0  0
  2 18  2  0  0  0  0
  3  6  2  0  0  0  0
  4  7  1  0  0  0  0
  4  1  1  0  0  0  0
  5  8  1  0  0  0  0
  7 14  1  0  0  0  0
  8  7  2  0  0  0  0
  9 10  1  0  0  0  0
 11 17  1  0  0  0  0
 11  2  1  0  0  0  0
 12  5  2  0  0  0  0
 12 16  1  0  0  0  0
 13  3  1  0  0  0  0
 14 13  2  0  0  0  0
 15  9  1  0  0  0  0
 16  4  2  0  0  0  0
 17 19  1  1  0  0  0
 17 15  1  0  0  0  0
 18  9  1  0  0  0  0
 18  6  1  0  0  0  0
 20 19  2  0  0  0  0
 21 20  2  0  0  0  0
 22 21  1  0  0  0  0
 23 21  1  0  0  0  0
 23 25  1  0  0  0  0
 24 23  2  0  0  0  0
M  END
>  <MODEL>
6

>  <REMARK>
 VINA RESULT:      -7.1      3.640      6.405
  Name = 
  2 active torsions:
  status: ('A' for Active; 'I' for Inactive)
    1  A    between atoms: C_2  and  C_21
    2  A    between atoms: C_6  and  C_23
                            x       y       z     vdW  Elec       q    Type
                         _______ _______ _______ _____ _____    ______ ____

>  <TORSDO>
F 2

$$$$
=
 OpenBabel11052412493D

 25 28  0  0  1  0  0  0  0  0999 V2000
  188.6610  177.2120  138.9230 N   0  0  0  0  0  0  0  0  0  0  0  0
  189.0560  177.6780  140.1390 C   0  0  0  0  0  0  0  0  0  0  0  0
  190.6370  175.9100  138.6130 C   0  0  0  0  0  3  0  0  0  0  0  0
  187.5570  177.4180  138.1930 C   0  0  0  0  0  0  0  0  0  0  0  0
  185.5050  177.5200  136.3880 C   0  0  0  0  0  3  0  0  0  0  0  0
  191.0900  176.3700  139.8580 C   0  0  0  0  0  3  0  0  0  0  0  0
  187.6490  176.6990  137.0370 C   0  0  0  0  0  0  0  0  0  0  0  0
  186.6280  176.7230  136.0940 C   0  0  0  0  0  3  0  0  0  0  0  0
  190.7650  177.7140  141.9210 N   0  0  0  0  0  0  0  0  0  0  0  0
  191.9320  177.1280  142.5620 C   0  0  0  0  0  1  0  0  0  0  0  0
  188.2110  178.6530  140.9190 C   0  0  0  0  0  2  0  0  0  0  0  0
  185.4510  178.2480  137.6000 C   0  0  0  0  0  3  0  0  0  0  0  0
  189.3970  176.3610  138.1700 C   0  0  0  0  0  0  0  0  0  0  0  0
  188.8120  176.0130  136.9910 N   0  0  0  0  0  0  0  0  0  0  0  0
  190.0480  178.7710  142.6300 C   0  0  0  0  0  2  0  0  0  0  0  0
  186.4840  178.1890  138.4960 N   0  0  0  0  0  0  0  0  0  0  0  0
  188.5390  178.6520  142.4140 C   0  0  2  0  0  3  0  0  0  0  0  0
  190.3140  177.2620  140.6300 C   0  0  0  0  0  0  0  0  0  0  0  0
  187.9940  177.4340  143.0820 C   0  0  0  0  0  3  0  0  0  0  0  0
  187.9070  177.3860  144.3810 C   0  0  0  0  0  0  0  0  0  0  0  0
  187.8240  177.3390  145.6830 C   0  0  0  0  0  0  0  0  0  0  0  0
  186.4890  177.1340  146.3120 C   0  0  0  0  0  1  0  0  0  0  0  0
  189.0270  177.5040  146.5160 C   0  0  0  0  0  0  0  0  0  0  0  0
  188.9120  177.7700  147.8770 O   0  0  0  0  0  1  0  0  0  0  0  0
  190.1720  177.4080  146.0030 O   0  0  0  0  0  0  0  0  0  0  0  0
  1  2  1  0  0  0  0
  2 18  2  0  0  0  0
  2 11  1  0  0  0  0
  3  6  2  0  0  0  0
  4 16  1  0  0  0  0
  4  1  1  0  0  0  0
  5 12  1  0  0  0  0
  6 18  1  0  0  0  0
  7  4  2  0  0  0  0
  8  5  2  0  0  0  0
  8  7  1  0  0  0  0
  9 10  1  0  0  0  0
  9 15  1  0  0  0  0
 11 17  1  0  0  0  0
 12 16  2  0  0  0  0
 13  3  1  0  0  0  0
 13  1  1  0  0  0  0
 14  7  1  0  0  0  0
 14 13  2  0  0  0  0
 17 15  1  0  0  0  0
 17 19  1  6  0  0  0
 18  9  1  0  0  0  0
 19 20  2  0  0  0  0
 20 21  2  0  0  0  0
 21 22  1  0  0  0  0
 21 23  1  0  0  0  0
 23 24  1  0  0  0  0
 25 23  2  0  0  0  0
M  END
>  <MODEL>
7

>  <REMARK>
 VINA RESULT:      -7.0      3.793      6.760
  Name = 
  2 active torsions:
  status: ('A' for Active; 'I' for Inactive)
    1  A    between atoms: C_2  and  C_21
    2  A    between atoms: C_6  and  C_23
                            x       y       z     vdW  Elec       q    Type
                         _______ _______ _______ _____ _____    ______ ____

>  <TORSDO>
F 2

$$$$
=
 OpenBabel11052412493D

 25 28  0  0  1  0  0  0  0  0999 V2000
  186.7680  177.2140  137.9680 N   0  0  0  0  0  0  0  0  0  0  0  0
  188.0400  177.2840  138.4460 C   0  0  0  0  0  0  0  0  0  0  0  0
  187.2890  175.4900  136.4030 C   0  0  0  0  0  3  0  0  0  0  0  0
  185.6470  177.8770  138.2850 C   0  0  0  0  0  0  0  0  0  0  0  0
  183.1470  178.9390  138.5990 C   0  0  0  0  0  3  0  0  0  0  0  0
  188.6160  175.5320  136.8570 C   0  0  0  0  0  3  0  0  0  0  0  0
  184.6250  177.4170  137.5070 C   0  0  0  0  0  0  0  0  0  0  0  0
  183.3400  177.9300  137.6350 C   0  0  0  0  0  3  0  0  0  0  0  0
  190.3640  176.4540  138.3590 N   0  0  0  0  0  0  0  0  0  0  0  0
  191.3270  175.4370  137.9680 C   0  0  0  0  0  1  0  0  0  0  0  0
  188.4250  178.2780  139.5110 C   0  0  0  0  0  2  0  0  0  0  0  0
  184.2360  179.3840  139.3850 C   0  0  0  0  0  3  0  0  0  0  0  0
  186.3770  176.3610  136.9910 C   0  0  0  0  0  0  0  0  0  0  0  0
  185.0580  176.4500  136.6690 N   0  0  0  0  0  0  0  0  0  0  0  0
  190.8050  177.5030  139.2770 C   0  0  0  0  0  2  0  0  0  0  0  0
  185.4830  178.8450  139.2200 N   0  0  0  0  0  0  0  0  0  0  0  0
  189.6960  177.8730  140.2630 C   0  0  2  0  0  3  0  0  0  0  0  0
  189.0090  176.4300  137.8730 C   0  0  0  0  0  0  0  0  0  0  0  0
  189.4250  176.7530  141.2120 C   0  0  0  0  0  3  0  0  0  0  0  0
  189.1300  177.0090  142.4550 C   0  0  0  0  0  0  0  0  0  0  0  0
  188.8370  177.2670  143.7000 C   0  0  0  0  0  0  0  0  0  0  0  0
  187.5320  176.7970  144.2450 C   0  0  0  0  0  1  0  0  0  0  0  0
  189.7730  178.0250  144.5470 C   0  0  0  0  0  0  0  0  0  0  0  0
  190.6560  178.9400  143.9800 O   0  0  0  0  0  0  0  0  0  0  0  0
  189.7830  177.8510  145.7940 O   0  0  0  0  0  1  0  0  0  0  0  0
  1  4  1  0  0  0  0
  1  2  1  0  0  0  0
  2 11  1  0  0  0  0
  3  6  2  0  0  0  0
  3 13  1  0  0  0  0
  4 16  1  0  0  0  0
  5 12  1  0  0  0  0
  6 18  1  0  0  0  0
  7  8  1  0  0  0  0
  7  4  2  0  0  0  0
  8  5  2  0  0  0  0
  9 15  1  0  0  0  0
 10  9  1  0  0  0  0
 11 17  1  0  0  0  0
 13  1  1  0  0  0  0
 14 13  2  0  0  0  0
 14  7  1  0  0  0  0
 15 17  1  0  0  0  0
 16 12  2  0  0  0  0
 17 19  1  1  0  0  0
 18  9  1  0  0  0  0
 18  2  2  0  0  0  0
 19 20  2  0  0  0  0
 20 21  2  0  0  0  0
 21 22  1  0  0  0  0
 21 23  1  0  0  0  0
 23 25  1  0  0  0  0
 24 23  2  0  0  0  0
M  END
>  <MODEL>
8

>  <REMARK>
 VINA RESULT:      -6.9      3.894      6.652
  Name = 
  2 active torsions:
  status: ('A' for Active; 'I' for Inactive)
    1  A    between atoms: C_2  and  C_21
    2  A    between atoms: C_6  and  C_23
                            x       y       z     vdW  Elec       q    Type
                         _______ _______ _______ _____ _____    ______ ____

>  <TORSDO>
F 2

$$$$
=
 OpenBabel11052412493D

 25 28  0  0  1  0  0  0  0  0999 V2000
  187.5780  177.8010  141.2620 N   0  0  0  0  0  0  0  0  0  0  0  0
  187.1730  177.5530  142.5370 C   0  0  0  0  0  0  0  0  0  0  0  0
  185.8240  179.3650  140.8490 C   0  0  0  0  0  3  0  0  0  0  0  0
  188.5990  177.3310  140.5320 C   0  0  0  0  0  0  0  0  0  0  0  0
  190.5180  176.6790  138.6970 C   0  0  0  0  0  3  0  0  0  0  0  0
  185.3640  179.1350  142.1530 C   0  0  0  0  0  3  0  0  0  0  0  0
  188.5670  177.9140  139.2990 C   0  0  0  0  0  0  0  0  0  0  0  0
  189.5240  177.6110  138.3380 C   0  0  0  0  0  3  0  0  0  0  0  0
  185.5680  178.0100  144.3570 N   0  0  0  0  0  0  0  0  0  0  0  0
  184.5430  178.8520  144.9540 C   0  0  0  0  0  1  0  0  0  0  0  0
  187.8880  176.5510  143.4080 C   0  0  0  0  0  2  0  0  0  0  0  0
  190.5130  176.1010  139.9880 C   0  0  0  0  0  3  0  0  0  0  0  0
  186.9530  178.6670  140.4300 C   0  0  0  0  0  0  0  0  0  0  0  0
  187.5280  178.7720  139.2010 N   0  0  0  0  0  0  0  0  0  0  0  0
  186.1400  176.9400  145.1720 C   0  0  0  0  0  2  0  0  0  0  0  0
  189.5480  176.4350  140.8990 N   0  0  0  0  0  0  0  0  0  0  0  0
  187.6370  176.7820  144.9000 C   0  0  2  0  0  3  0  0  0  0  0  0
  186.0240  178.2260  143.0080 C   0  0  0  0  0  0  0  0  0  0  0  0
  188.4010  177.9640  145.3960 C   0  0  0  0  0  3  0  0  0  0  0  0
  189.7040  177.9520  145.3820 C   0  0  0  0  0  0  0  0  0  0  0  0
  191.0090  177.9360  145.3690 C   0  0  0  0  0  0  0  0  0  0  0  0
  191.7340  178.9770  144.5870 C   0  0  0  0  0  1  0  0  0  0  0  0
  191.7520  176.8960  146.1000 C   0  0  0  0  0  0  0  0  0  0  0  0
  192.1670  175.7370  145.4510 O   0  0  0  0  0  0  0  0  0  0  0  0
  192.0150  177.0450  147.3220 O   0  0  0  0  0  1  0  0  0  0  0  0
  1  2  1  0  0  0  0
  2 18  2  0  0  0  0
  2 11  1  0  0  0  0
  3  6  2  0  0  0  0
  4 16  1  0  0  0  0
  4  1  1  0  0  0  0
  5 12  1  0  0  0  0
  6 18  1  0  0  0  0
  7  4  2  0  0  0  0
  8  5  2  0  0  0  0
  8  7  1  0  0  0  0
  9 10  1  0  0  0  0
  9 15  1  0  0  0  0
 11 17  1  0  0  0  0
 12 16  2  0  0  0  0
 13  3  1  0  0  0  0
 13  1  1  0  0  0  0
 14  7  1  0  0  0  0
 14 13  2  0  0  0  0
 17 15  1  0  0  0  0
 17 19  1  6  0  0  0
 18  9  1  0  0  0  0
 20 19  2  0  0  0  0
 21 20  2  0  0  0  0
 21 23  1  0  0  0  0
 22 21  1  0  0  0  0
 23 25  1  0  0  0  0
 24 23  2  0  0  0  0
M  END
>  <MODEL>
9

>  <REMARK>
 VINA RESULT:      -6.8      2.946      6.203
  Name = 
  2 active torsions:
  status: ('A' for Active; 'I' for Inactive)
    1  A    between atoms: C_2  and  C_21
    2  A    between atoms: C_6  and  C_23
                            x       y       z     vdW  Elec       q    Type
                         _______ _______ _______ _____ _____    ______ ____

>  <TORSDO>
F 2

$$$$
