=
 OpenBabel11052413553D

 27 31  0  0  0  0  0  0  0  0999 V2000
  189.0860  177.7350  142.7750 N   0  0  0  0  0  0  0  0  0  0  0  0
  187.9920  177.7980  143.5970 C   0  0  0  0  0  0  0  0  0  0  0  0
  186.5920  178.2290  141.6680 N   0  0  0  0  0  0  0  0  0  0  0  0
  186.9730  177.7010  145.7900 C   0  0  0  0  0  3  0  0  0  0  0  0
  189.0850  178.1240  139.3060 C   0  0  0  0  0  0  0  0  0  0  0  0
  188.1220  177.6090  144.9940 C   0  0  0  0  0  0  0  0  0  0  0  0
  185.5610  178.1580  143.8590 C   0  0  0  0  0  0  0  0  0  0  0  0
  188.9220  177.9130  141.4450 C   0  0  0  0  0  0  0  0  0  0  0  0
  186.7010  178.0700  143.0250 C   0  0  0  0  0  0  0  0  0  0  0  0
  187.7630  178.2820  139.5720 N   0  0  0  0  0  0  0  0  0  0  0  0
  185.7250  177.9680  145.2360 C   0  0  0  0  0  3  0  0  0  0  0  0
  189.8620  177.8810  140.4450 C   0  0  0  0  0  2  0  0  0  0  0  0
  187.7050  178.1480  140.9040 C   0  0  0  0  0  0  0  0  0  0  0  0
  183.1690  178.8250  144.2330 C   0  0  0  0  0  3  0  0  0  0  0  0
  181.6400  179.0470  142.3890 C   0  0  0  0  0  3  0  0  0  0  0  0
  182.6340  178.6930  141.5340 N   0  0  0  0  0  0  0  0  0  0  0  0
  183.8860  178.4010  141.9770 C   0  0  0  0  0  3  0  0  0  0  0  0
  184.1920  178.4510  143.3460 C   0  0  0  0  0  0  0  0  0  0  0  0
  181.8910  179.1200  143.7600 C   0  0  0  0  0  3  0  0  0  0  0  0
  191.7820  176.7210  146.9620 N   0  0  0  0  0  0  0  0  0  0  0  0
  189.4210  177.3090  145.6630 C   0  0  0  0  0  0  0  0  0  0  0  0
  189.5300  177.3800  147.0580 C   0  0  0  0  0  3  0  0  0  0  0  0
  190.7090  177.0860  147.6650 N   0  0  0  0  0  0  0  0  0  0  0  0
  191.7390  176.6270  145.6080 C   0  0  0  0  0  3  0  0  0  0  0  0
  190.5530  176.9170  144.9390 C   0  0  0  0  0  3  0  0  0  0  0  0
  188.7550  179.0170  137.0380 C   0  0  0  0  0  1  0  0  0  0  0  0
  189.6380  178.1610  137.9230 C   0  0  0  0  0  2  0  0  0  0  0  0
  1  2  1  0  0  0  0
  2  6  1  0  0  0  0
  3  9  1  0  0  0  0
  5 10  2  0  0  0  0
  5 12  1  0  0  0  0
  6 21  1  0  0  0  0
  6  4  2  0  0  0  0
  7 11  2  0  0  0  0
  8  1  2  0  0  0  0
  9  2  2  0  0  0  0
  9  7  1  0  0  0  0
 10 13  1  0  0  0  0
 11  4  1  0  0  0  0
 12  8  1  0  0  0  0
 13  8  1  0  0  0  0
 13  3  2  0  0  0  0
 15 19  2  0  0  0  0
 16 17  2  0  0  0  0
 16 15  1  0  0  0  0
 17 18  1  0  0  0  0
 18  7  1  0  0  0  0
 18 14  2  0  0  0  0
 19 14  1  0  0  0  0
 20 23  1  0  0  0  0
 21 22  1  0  0  0  0
 22 23  2  0  0  0  0
 24 20  2  0  0  0  0
 25 24  1  0  0  0  0
 25 21  2  0  0  0  0
 26 27  1  0  0  0  0
 27  5  1  0  0  0  0
M  END
>  <MODEL>
1

>  <REMARK>
 VINA RESULT:     -10.5      0.000      0.000
  Name = 
  3 active torsions:
  status: ('A' for Active; 'I' for Inactive)
    1  A    between atoms: C_9  and  C_15
    2  A    between atoms: C_13  and  C_22
    3  A    between atoms: C_14  and  C_17
                            x       y       z     vdW  Elec       q    Type
                         _______ _______ _______ _____ _____    ______ ____

>  <TORSDO>
F 3

$$$$
=
 OpenBabel11052413553D

 27 31  0  0  0  0  0  0  0  0999 V2000
  190.1660  177.1190  143.7970 N   0  0  0  0  0  0  0  0  0  0  0  0
  189.0810  177.3130  144.6090 C   0  0  0  0  0  0  0  0  0  0  0  0
  187.7200  177.7450  142.6530 N   0  0  0  0  0  0  0  0  0  0  0  0
  188.0570  177.4200  146.7990 C   0  0  0  0  0  3  0  0  0  0  0  0
  190.1980  177.3130  140.3120 C   0  0  0  0  0  0  0  0  0  0  0  0
  189.1960  177.1930  146.0150 C   0  0  0  0  0  0  0  0  0  0  0  0
  186.6860  177.8780  144.8390 C   0  0  0  0  0  0  0  0  0  0  0  0
  190.0180  177.2350  142.4580 C   0  0  0  0  0  0  0  0  0  0  0  0
  187.8150  177.6540  144.0160 C   0  0  0  0  0  0  0  0  0  0  0  0
  188.8920  177.5890  140.5620 N   0  0  0  0  0  0  0  0  0  0  0  0
  186.8340  177.7520  146.2250 C   0  0  0  0  0  3  0  0  0  0  0  0
  190.9530  177.0740  141.4660 C   0  0  0  0  0  2  0  0  0  0  0  0
  188.8230  177.5350  141.8990 C   0  0  0  0  0  0  0  0  0  0  0  0
  184.3400  178.7100  145.1720 C   0  0  0  0  0  3  0  0  0  0  0  0
  182.8460  178.9900  143.3060 C   0  0  0  0  0  3  0  0  0  0  0  0
  183.8230  178.5520  142.4700 N   0  0  0  0  0  0  0  0  0  0  0  0
  185.0490  178.1880  142.9340 C   0  0  0  0  0  3  0  0  0  0  0  0
  185.3440  178.2490  144.3050 C   0  0  0  0  0  0  0  0  0  0  0  0
  183.0890  179.0780  144.6770 C   0  0  0  0  0  3  0  0  0  0  0  0
  192.7820  176.1730  148.0530 N   0  0  0  0  0  0  0  0  0  0  0  0
  190.4660  176.8290  146.7050 C   0  0  0  0  0  0  0  0  0  0  0  0
  190.8610  177.5110  147.8630 C   0  0  0  0  0  3  0  0  0  0  0  0
  192.0100  177.1640  148.5010 N   0  0  0  0  0  0  0  0  0  0  0  0
  192.4500  175.4690  146.9400 C   0  0  0  0  0  3  0  0  0  0  0  0
  191.2830  175.7860  146.2510 C   0  0  0  0  0  3  0  0  0  0  0  0
  190.6940  175.7980  138.4380 C   0  0  0  0  0  1  0  0  0  0  0  0
  190.7510  177.2300  138.9320 C   0  0  0  0  0  2  0  0  0  0  0  0
  1  2  1  0  0  0  0
  2  6  1  0  0  0  0
  3  9  1  0  0  0  0
  5 10  2  0  0  0  0
  5 12  1  0  0  0  0
  6 21  1  0  0  0  0
  6  4  2  0  0  0  0
  7 11  2  0  0  0  0
  8  1  2  0  0  0  0
  9  2  2  0  0  0  0
  9  7  1  0  0  0  0
 10 13  1  0  0  0  0
 11  4  1  0  0  0  0
 12  8  1  0  0  0  0
 13  8  1  0  0  0  0
 13  3  2  0  0  0  0
 15 19  2  0  0  0  0
 16 17  2  0  0  0  0
 16 15  1  0  0  0  0
 17 18  1  0  0  0  0
 18  7  1  0  0  0  0
 18 14  2  0  0  0  0
 19 14  1  0  0  0  0
 20 23  1  0  0  0  0
 21 22  1  0  0  0  0
 22 23  2  0  0  0  0
 24 20  2  0  0  0  0
 25 21  2  0  0  0  0
 25 24  1  0  0  0  0
 26 27  1  0  0  0  0
 27  5  1  0  0  0  0
M  END
>  <MODEL>
2

>  <REMARK>
 VINA RESULT:     -10.2      1.387      1.751
  Name = 
  3 active torsions:
  status: ('A' for Active; 'I' for Inactive)
    1  A    between atoms: C_9  and  C_15
    2  A    between atoms: C_13  and  C_22
    3  A    between atoms: C_14  and  C_17
                            x       y       z     vdW  Elec       q    Type
                         _______ _______ _______ _____ _____    ______ ____

>  <TORSDO>
F 3

$$$$
=
 OpenBabel11052413553D

 27 31  0  0  0  0  0  0  0  0999 V2000
  187.0170  178.1500  141.4940 N   0  0  0  0  0  0  0  0  0  0  0  0
  188.2980  177.7790  141.8040 C   0  0  0  0  0  0  0  0  0  0  0  0
  187.6970  177.7360  144.1500 N   0  0  0  0  0  0  0  0  0  0  0  0
  190.5700  177.2410  141.1630 C   0  0  0  0  0  3  0  0  0  0  0  0
  184.4030  178.6310  143.7560 C   0  0  0  0  0  0  0  0  0  0  0  0
  189.2700  177.6030  140.7880 C   0  0  0  0  0  0  0  0  0  0  0  0
  189.9800  177.2170  143.5260 C   0  0  0  0  0  0  0  0  0  0  0  0
  186.1150  178.3010  142.4890 C   0  0  0  0  0  0  0  0  0  0  0  0
  188.6560  177.5800  143.1830 C   0  0  0  0  0  0  0  0  0  0  0  0
  185.4040  178.2850  144.6060 N   0  0  0  0  0  0  0  0  0  0  0  0
  190.9150  177.0520  142.4980 C   0  0  0  0  0  3  0  0  0  0  0  0
  184.7900  178.6500  142.4110 C   0  0  0  0  0  2  0  0  0  0  0  0
  186.4450  178.0940  143.7850 C   0  0  0  0  0  0  0  0  0  0  0  0
  189.5700  177.2930  146.0030 C   0  0  0  0  0  3  0  0  0  0  0  0
  191.2550  176.5700  147.5620 C   0  0  0  0  0  3  0  0  0  0  0  0
  192.0820  176.2860  146.5220 N   0  0  0  0  0  0  0  0  0  0  0  0
  191.7020  176.4880  145.2320 C   0  0  0  0  0  3  0  0  0  0  0  0
  190.4330  177.0070  144.9320 C   0  0  0  0  0  0  0  0  0  0  0  0
  189.9780  177.0790  147.3190 C   0  0  0  0  0  3  0  0  0  0  0  0
  188.4910  178.1520  136.6470 N   0  0  0  0  0  0  0  0  0  0  0  0
  188.9770  177.7750  139.3360 C   0  0  0  0  0  0  0  0  0  0  0  0
  189.0420  179.0450  138.7490 C   0  0  0  0  0  3  0  0  0  0  0  0
  188.7940  179.1950  137.4210 N   0  0  0  0  0  0  0  0  0  0  0  0
  188.4190  176.8950  137.1550 C   0  0  0  0  0  3  0  0  0  0  0  0
  188.6650  176.6890  138.5110 C   0  0  0  0  0  3  0  0  0  0  0  0
  182.0680  178.9230  143.0370 C   0  0  0  0  0  1  0  0  0  0  0  0
  183.0170  178.9150  144.2200 C   0  0  0  0  0  2  0  0  0  0  0  0
  1  2  1  0  0  0  0
  1  8  2  0  0  0  0
  2  9  1  0  0  0  0
  4 11  2  0  0  0  0
  5 27  1  0  0  0  0
  5 10  2  0  0  0  0
  6  4  1  0  0  0  0
  6  2  2  0  0  0  0
  7 18  1  0  0  0  0
  8 13  1  0  0  0  0
  9  7  2  0  0  0  0
  9  3  1  0  0  0  0
 11  7  1  0  0  0  0
 12  8  1  0  0  0  0
 12  5  1  0  0  0  0
 13  3  2  0  0  0  0
 13 10  1  0  0  0  0
 14 19  1  0  0  0  0
 16 15  1  0  0  0  0
 17 16  2  0  0  0  0
 18 17  1  0  0  0  0
 18 14  2  0  0  0  0
 19 15  2  0  0  0  0
 20 24  2  0  0  0  0
 20 23  1  0  0  0  0
 21  6  1  0  0  0  0
 22 21  1  0  0  0  0
 23 22  2  0  0  0  0
 24 25  1  0  0  0  0
 25 21  2  0  0  0  0
 26 27  1  0  0  0  0
M  END
>  <MODEL>
3

>  <REMARK>
 VINA RESULT:     -10.1      1.456      7.156
  Name = 
  3 active torsions:
  status: ('A' for Active; 'I' for Inactive)
    1  A    between atoms: C_9  and  C_15
    2  A    between atoms: C_13  and  C_22
    3  A    between atoms: C_14  and  C_17
                            x       y       z     vdW  Elec       q    Type
                         _______ _______ _______ _____ _____    ______ ____

>  <TORSDO>
F 3

$$$$
=
 OpenBabel11052413553D

 27 31  0  0  0  0  0  0  0  0999 V2000
  186.5600  178.2180  141.7290 N   0  0  0  0  0  0  0  0  0  0  0  0
  186.6770  178.0350  143.0810 C   0  0  0  0  0  0  0  0  0  0  0  0
  189.0450  177.6110  142.8000 N   0  0  0  0  0  0  0  0  0  0  0  0
  185.7220  177.9410  145.3030 C   0  0  0  0  0  3  0  0  0  0  0  0
  189.1440  178.0180  139.3900 C   0  0  0  0  0  0  0  0  0  0  0  0
  185.5500  178.1560  143.9300 C   0  0  0  0  0  0  0  0  0  0  0  0
  188.1000  177.4910  145.0280 C   0  0  0  0  0  0  0  0  0  0  0  0
  187.6600  178.1010  140.9510 C   0  0  0  0  0  0  0  0  0  0  0  0
  187.9620  177.7040  143.6350 C   0  0  0  0  0  0  0  0  0  0  0  0
  189.8260  177.7540  140.5340 N   0  0  0  0  0  0  0  0  0  0  0  0
  186.9650  177.6180  145.8380 C   0  0  0  0  0  3  0  0  0  0  0  0
  187.7780  178.2530  139.5920 C   0  0  0  0  0  2  0  0  0  0  0  0
  188.8730  177.8110  141.4740 C   0  0  0  0  0  0  0  0  0  0  0  0
  189.5040  177.1280  147.0770 C   0  0  0  0  0  3  0  0  0  0  0  0
  191.7950  176.4140  146.9010 C   0  0  0  0  0  3  0  0  0  0  0  0
  191.6800  176.4100  145.5470 N   0  0  0  0  0  0  0  0  0  0  0  0
  190.5190  176.7530  144.9290 C   0  0  0  0  0  3  0  0  0  0  0  0
  189.3930  177.1320  145.6770 C   0  0  0  0  0  0  0  0  0  0  0  0
  190.7040  176.7730  147.6930 C   0  0  0  0  0  3  0  0  0  0  0  0
  181.6720  179.1030  142.4730 N   0  0  0  0  0  0  0  0  0  0  0  0
  184.1870  178.5100  143.4370 C   0  0  0  0  0  0  0  0  0  0  0  0
  183.8530  178.3220  142.0890 C   0  0  0  0  0  3  0  0  0  0  0  0
  182.6050  178.6270  141.6480 N   0  0  0  0  0  0  0  0  0  0  0  0
  181.9310  179.3020  143.7910 C   0  0  0  0  0  3  0  0  0  0  0  0
  183.1960  179.0040  144.2930 C   0  0  0  0  0  3  0  0  0  0  0  0
  189.0250  179.0190  137.1450 C   0  0  0  0  0  1  0  0  0  0  0  0
  189.8060  178.0950  138.0580 C   0  0  0  0  0  2  0  0  0  0  0  0
  1  2  1  0  0  0  0
  2  9  2  0  0  0  0
  2  6  1  0  0  0  0
  3  9  1  0  0  0  0
  4 11  1  0  0  0  0
  5 12  1  0  0  0  0
  5 10  2  0  0  0  0
  6  4  2  0  0  0  0
  7 18  1  0  0  0  0
  7 11  2  0  0  0  0
  8 13  1  0  0  0  0
  8  1  2  0  0  0  0
  9  7  1  0  0  0  0
 10 13  1  0  0  0  0
 12  8  1  0  0  0  0
 13  3  2  0  0  0  0
 14 19  1  0  0  0  0
 15 19  2  0  0  0  0
 16 15  1  0  0  0  0
 17 16  2  0  0  0  0
 17 18  1  0  0  0  0
 18 14  2  0  0  0  0
 20 24  1  0  0  0  0
 21  6  1  0  0  0  0
 21 25  1  0  0  0  0
 22 21  2  0  0  0  0
 23 22  1  0  0  0  0
 23 20  2  0  0  0  0
 24 25  2  0  0  0  0
 26 27  1  0  0  0  0
 27  5  1  0  0  0  0
M  END
>  <MODEL>
4

>  <REMARK>
 VINA RESULT:     -10.1      0.848      6.136
  Name = 
  3 active torsions:
  status: ('A' for Active; 'I' for Inactive)
    1  A    between atoms: C_9  and  C_15
    2  A    between atoms: C_13  and  C_22
    3  A    between atoms: C_14  and  C_17
                            x       y       z     vdW  Elec       q    Type
                         _______ _______ _______ _____ _____    ______ ____

>  <TORSDO>
F 3

$$$$
=
 OpenBabel11052413553D

 27 31  0  0  0  0  0  0  0  0999 V2000
  187.6530  177.7260  144.2360 N   0  0  0  0  0  0  0  0  0  0  0  0
  188.6300  177.5690  143.2900 C   0  0  0  0  0  0  0  0  0  0  0  0
  187.0210  178.1230  141.5660 N   0  0  0  0  0  0  0  0  0  0  0  0
  190.9050  177.0470  142.6500 C   0  0  0  0  0  3  0  0  0  0  0  0
  184.3320  178.6250  143.6450 C   0  0  0  0  0  0  0  0  0  0  0  0
  189.9490  177.2130  143.6610 C   0  0  0  0  0  0  0  0  0  0  0  0
  189.2890  177.5810  140.9080 C   0  0  0  0  0  0  0  0  0  0  0  0
  186.4070  178.0740  143.8460 C   0  0  0  0  0  0  0  0  0  0  0  0
  188.2990  177.7590  141.9030 C   0  0  0  0  0  0  0  0  0  0  0  0
  184.8170  178.6220  142.3770 N   0  0  0  0  0  0  0  0  0  0  0  0
  190.5830  177.2290  141.3090 C   0  0  0  0  0  3  0  0  0  0  0  0
  185.2900  178.2960  144.6120 C   0  0  0  0  0  2  0  0  0  0  0  0
  186.0990  178.2730  142.5440 C   0  0  0  0  0  0  0  0  0  0  0  0
  188.6930  176.6310  138.6610 C   0  0  0  0  0  3  0  0  0  0  0  0
  188.4760  178.0500  136.7310 C   0  0  0  0  0  3  0  0  0  0  0  0
  188.7870  179.1270  137.4990 N   0  0  0  0  0  0  0  0  0  0  0  0
  189.0540  179.0030  138.8270 C   0  0  0  0  0  3  0  0  0  0  0  0
  189.0230  177.7450  139.4500 C   0  0  0  0  0  0  0  0  0  0  0  0
  188.4220  176.7780  137.3010 C   0  0  0  0  0  3  0  0  0  0  0  0
  191.2430  176.6640  147.6710 N   0  0  0  0  0  0  0  0  0  0  0  0
  190.3770  177.0130  145.0750 C   0  0  0  0  0  0  0  0  0  0  0  0
  191.6640  176.5390  145.3630 C   0  0  0  0  0  3  0  0  0  0  0  0
  192.0570  176.3760  146.6540 N   0  0  0  0  0  0  0  0  0  0  0  0
  189.9870  177.1330  147.4580 C   0  0  0  0  0  3  0  0  0  0  0  0
  189.5370  177.3170  146.1520 C   0  0  0  0  0  3  0  0  0  0  0  0
  182.0910  179.0030  142.7030 C   0  0  0  0  0  1  0  0  0  0  0  0
  182.9260  178.9920  143.9680 C   0  0  0  0  0  2  0  0  0  0  0  0
  2  6  1  0  0  0  0
  2  1  1  0  0  0  0
  3  9  1  0  0  0  0
  3 13  2  0  0  0  0
  4  6  2  0  0  0  0
  5 27  1  0  0  0  0
  5 12  1  0  0  0  0
  6 21  1  0  0  0  0
  7 11  2  0  0  0  0
  7  9  1  0  0  0  0
  8  1  2  0  0  0  0
  8 12  1  0  0  0  0
  9  2  2  0  0  0  0
 10 13  1  0  0  0  0
 10  5  2  0  0  0  0
 11  4  1  0  0  0  0
 13  8  1  0  0  0  0
 14 18  1  0  0  0  0
 15 19  1  0  0  0  0
 15 16  2  0  0  0  0
 16 17  1  0  0  0  0
 17 18  2  0  0  0  0
 18  7  1  0  0  0  0
 19 14  2  0  0  0  0
 21 22  2  0  0  0  0
 21 25  1  0  0  0  0
 22 23  1  0  0  0  0
 23 20  2  0  0  0  0
 24 20  1  0  0  0  0
 25 24  2  0  0  0  0
 26 27  1  0  0  0  0
M  END
>  <MODEL>
5

>  <REMARK>
 VINA RESULT:     -10.1      1.189      5.322
  Name = 
  3 active torsions:
  status: ('A' for Active; 'I' for Inactive)
    1  A    between atoms: C_9  and  C_15
    2  A    between atoms: C_13  and  C_22
    3  A    between atoms: C_14  and  C_17
                            x       y       z     vdW  Elec       q    Type
                         _______ _______ _______ _____ _____    ______ ____

>  <TORSDO>
F 3

$$$$
=
 OpenBabel11052413553D

 27 31  0  0  0  0  0  0  0  0999 V2000
  187.7920  177.6280  142.8650 N   0  0  0  0  0  0  0  0  0  0  0  0
  187.8840  177.5810  144.2300 C   0  0  0  0  0  0  0  0  0  0  0  0
  190.2170  176.9610  144.0320 N   0  0  0  0  0  0  0  0  0  0  0  0
  186.9070  177.7900  146.4350 C   0  0  0  0  0  3  0  0  0  0  0  0
  190.3730  176.9980  140.6000 C   0  0  0  0  0  0  0  0  0  0  0  0
  186.7620  177.8720  145.0440 C   0  0  0  0  0  0  0  0  0  0  0  0
  189.2480  177.1440  146.2450 C   0  0  0  0  0  0  0  0  0  0  0  0
  188.8860  177.3520  142.1210 C   0  0  0  0  0  0  0  0  0  0  0  0
  189.1380  177.2190  144.8360 C   0  0  0  0  0  0  0  0  0  0  0  0
  191.0240  176.8080  141.7760 N   0  0  0  0  0  0  0  0  0  0  0  0
  188.1190  177.4370  147.0200 C   0  0  0  0  0  3  0  0  0  0  0  0
  189.0270  177.3500  140.7550 C   0  0  0  0  0  2  0  0  0  0  0  0
  190.0710  177.0310  142.6900 C   0  0  0  0  0  0  0  0  0  0  0  0
  191.2420  175.6440  146.5250 C   0  0  0  0  0  3  0  0  0  0  0  0
  192.8860  176.0700  148.2290 C   0  0  0  0  0  3  0  0  0  0  0  0
  192.1760  177.1570  148.6300 N   0  0  0  0  0  0  0  0  0  0  0  0
  191.0140  177.5150  148.0190 C   0  0  0  0  0  3  0  0  0  0  0  0
  190.5060  176.7630  146.9490 C   0  0  0  0  0  0  0  0  0  0  0  0
  192.4310  175.2920  147.1640 C   0  0  0  0  0  3  0  0  0  0  0  0
  182.9770  178.9380  143.4340 N   0  0  0  0  0  0  0  0  0  0  0  0
  185.4340  178.2690  144.4950 C   0  0  0  0  0  0  0  0  0  0  0  0
  185.1180  178.0130  143.1550 C   0  0  0  0  0  3  0  0  0  0  0  0
  183.8990  178.3590  142.6640 N   0  0  0  0  0  0  0  0  0  0  0  0
  183.2190  179.2060  144.7430 C   0  0  0  0  0  3  0  0  0  0  0  0
  184.4540  178.8710  145.2930 C   0  0  0  0  0  3  0  0  0  0  0  0
  190.0430  177.0900  138.1640 C   0  0  0  0  0  1  0  0  0  0  0  0
  191.0490  176.8860  139.2780 C   0  0  0  0  0  2  0  0  0  0  0  0
  1  2  1  0  0  0  0
  2  9  2  0  0  0  0
  2  6  1  0  0  0  0
  3  9  1  0  0  0  0
  4 11  1  0  0  0  0
  5 12  1  0  0  0  0
  5 10  2  0  0  0  0
  6  4  2  0  0  0  0
  7 18  1  0  0  0  0
  7 11  2  0  0  0  0
  8 13  1  0  0  0  0
  8  1  2  0  0  0  0
  9  7  1  0  0  0  0
 10 13  1  0  0  0  0
 12  8  1  0  0  0  0
 13  3  2  0  0  0  0
 14 18  2  0  0  0  0
 14 19  1  0  0  0  0
 15 16  1  0  0  0  0
 17 16  2  0  0  0  0
 18 17  1  0  0  0  0
 19 15  2  0  0  0  0
 20 24  1  0  0  0  0
 21  6  1  0  0  0  0
 21 25  1  0  0  0  0
 22 21  2  0  0  0  0
 23 22  1  0  0  0  0
 23 20  2  0  0  0  0
 24 25  2  0  0  0  0
 26 27  1  0  0  0  0
 27  5  1  0  0  0  0
M  END
>  <MODEL>
6

>  <REMARK>
 VINA RESULT:      -9.6      1.567      6.463
  Name = 
  3 active torsions:
  status: ('A' for Active; 'I' for Inactive)
    1  A    between atoms: C_9  and  C_15
    2  A    between atoms: C_13  and  C_22
    3  A    between atoms: C_14  and  C_17
                            x       y       z     vdW  Elec       q    Type
                         _______ _______ _______ _____ _____    ______ ____

>  <TORSDO>
F 3

$$$$
=
 OpenBabel11052413553D

 27 31  0  0  0  0  0  0  0  0999 V2000
  188.1910  177.9510  143.3400 N   0  0  0  0  0  0  0  0  0  0  0  0
  186.9690  178.0650  143.9460 C   0  0  0  0  0  0  0  0  0  0  0  0
  185.9390  178.3500  141.7730 N   0  0  0  0  0  0  0  0  0  0  0  0
  185.5740  178.1190  145.9240 C   0  0  0  0  0  3  0  0  0  0  0  0
  188.8130  178.0920  139.9080 C   0  0  0  0  0  0  0  0  0  0  0  0
  186.8460  177.9770  145.3540 C   0  0  0  0  0  0  0  0  0  0  0  0
  184.5320  178.4290  143.7440 C   0  0  0  0  0  0  0  0  0  0  0  0
  188.2690  178.0320  141.9920 C   0  0  0  0  0  0  0  0  0  0  0  0
  185.8020  178.2880  143.1350 C   0  0  0  0  0  0  0  0  0  0  0  0
  187.4660  178.2600  139.9210 N   0  0  0  0  0  0  0  0  0  0  0  0
  184.4470  178.3380  145.1380 C   0  0  0  0  0  3  0  0  0  0  0  0
  189.3720  177.9350  141.1820 C   0  0  0  0  0  2  0  0  0  0  0  0
  187.1690  178.2220  141.2270 C   0  0  0  0  0  0  0  0  0  0  0  0
  182.0910  179.0070  143.6480 C   0  0  0  0  0  3  0  0  0  0  0  0
  180.9400  179.1890  141.5420 C   0  0  0  0  0  3  0  0  0  0  0  0
  182.0940  178.8780  140.8950 N   0  0  0  0  0  0  0  0  0  0  0  0
  183.2470  178.6270  141.5730 C   0  0  0  0  0  3  0  0  0  0  0  0
  183.2790  178.6770  142.9760 C   0  0  0  0  0  0  0  0  0  0  0  0
  180.9190  179.2600  142.9350 C   0  0  0  0  0  3  0  0  0  0  0  0
  190.1910  177.2940  147.8840 N   0  0  0  0  0  0  0  0  0  0  0  0
  188.0020  177.7320  146.2630 C   0  0  0  0  0  0  0  0  0  0  0  0
  189.1700  177.1310  145.7750 C   0  0  0  0  0  3  0  0  0  0  0  0
  190.2290  176.9270  146.6020 N   0  0  0  0  0  0  0  0  0  0  0  0
  189.0920  177.8870  148.4160 C   0  0  0  0  0  3  0  0  0  0  0  0
  187.9800  178.1170  147.6090 C   0  0  0  0  0  3  0  0  0  0  0  0
  189.0420  179.0170  137.6400 C   0  0  0  0  0  1  0  0  0  0  0  0
  189.6030  178.0330  138.6470 C   0  0  0  0  0  2  0  0  0  0  0  0
  1  2  1  0  0  0  0
  2  6  1  0  0  0  0
  3  9  1  0  0  0  0
  5 10  2  0  0  0  0
  5 12  1  0  0  0  0
  6  4  2  0  0  0  0
  6 21  1  0  0  0  0
  7 11  2  0  0  0  0
  8  1  2  0  0  0  0
  9  7  1  0  0  0  0
  9  2  2  0  0  0  0
 10 13  1  0  0  0  0
 11  4  1  0  0  0  0
 12  8  1  0  0  0  0
 13  3  2  0  0  0  0
 13  8  1  0  0  0  0
 15 19  1  0  0  0  0
 16 15  2  0  0  0  0
 16 17  1  0  0  0  0
 17 18  2  0  0  0  0
 18 14  1  0  0  0  0
 18  7  1  0  0  0  0
 19 14  2  0  0  0  0
 20 24  1  0  0  0  0
 21 25  1  0  0  0  0
 22 21  2  0  0  0  0
 22 23  1  0  0  0  0
 23 20  2  0  0  0  0
 25 24  2  0  0  0  0
 26 27  1  0  0  0  0
 27  5  1  0  0  0  0
M  END
>  <MODEL>
7

>  <REMARK>
 VINA RESULT:      -9.6      1.025      1.518
  Name = 
  3 active torsions:
  status: ('A' for Active; 'I' for Inactive)
    1  A    between atoms: C_9  and  C_15
    2  A    between atoms: C_13  and  C_22
    3  A    between atoms: C_14  and  C_17
                            x       y       z     vdW  Elec       q    Type
                         _______ _______ _______ _____ _____    ______ ____

>  <TORSDO>
F 3

$$$$
=
 OpenBabel11052413553D

 27 31  0  0  0  0  0  0  0  0999 V2000
  188.2040  177.6930  145.0620 N   0  0  0  0  0  0  0  0  0  0  0  0
  188.0900  177.7650  143.6990 C   0  0  0  0  0  0  0  0  0  0  0  0
  190.3990  177.0660  143.4880 N   0  0  0  0  0  0  0  0  0  0  0  0
  186.8130  178.2240  141.6940 C   0  0  0  0  0  3  0  0  0  0  0  0
  191.0520  176.7530  146.8470 C   0  0  0  0  0  0  0  0  0  0  0  0
  186.8690  178.1490  143.0920 C   0  0  0  0  0  0  0  0  0  0  0  0
  189.1420  177.5430  141.4730 C   0  0  0  0  0  0  0  0  0  0  0  0
  189.3820  177.3150  145.6050 C   0  0  0  0  0  0  0  0  0  0  0  0
  189.2330  177.4550  142.8830 C   0  0  0  0  0  0  0  0  0  0  0  0
  191.5120  176.6440  145.5740 N   0  0  0  0  0  0  0  0  0  0  0  0
  187.9210  177.9270  140.9060 C   0  0  0  0  0  3  0  0  0  0  0  0
  189.7160  177.1630  146.9280 C   0  0  0  0  0  2  0  0  0  0  0  0
  190.4520  177.0030  144.8380 C   0  0  0  0  0  0  0  0  0  0  0  0
  190.0490  176.7120  139.2850 C   0  0  0  0  0  3  0  0  0  0  0  0
  192.4110  176.7530  138.8250 C   0  0  0  0  0  3  0  0  0  0  0  0
  192.6320  177.2840  140.0560 N   0  0  0  0  0  0  0  0  0  0  0  0
  191.6110  177.5390  140.9170 C   0  0  0  0  0  3  0  0  0  0  0  0
  190.2840  177.2540  140.5590 C   0  0  0  0  0  0  0  0  0  0  0  0
  191.1100  176.4570  138.4160 C   0  0  0  0  0  3  0  0  0  0  0  0
  183.3970  179.1130  145.3450 N   0  0  0  0  0  0  0  0  0  0  0  0
  185.6350  178.4710  143.8650 C   0  0  0  0  0  0  0  0  0  0  0  0
  185.7010  178.6620  145.2520 C   0  0  0  0  0  3  0  0  0  0  0  0
  184.5780  178.9740  145.9500 N   0  0  0  0  0  0  0  0  0  0  0  0
  183.2700  178.9470  144.0030 C   0  0  0  0  0  3  0  0  0  0  0  0
  184.3910  178.6260  143.2430 C   0  0  0  0  0  3  0  0  0  0  0  0
  192.8050  175.2580  147.7100 C   0  0  0  0  0  1  0  0  0  0  0  0
  191.8860  176.4190  148.0350 C   0  0  0  0  0  2  0  0  0  0  0  0
  1  8  2  0  0  0  0
  2  1  1  0  0  0  0
  3 13  2  0  0  0  0
  4  6  2  0  0  0  0
  5 12  1  0  0  0  0
  5 27  1  0  0  0  0
  6  2  1  0  0  0  0
  6 21  1  0  0  0  0
  7  9  1  0  0  0  0
  8 12  1  0  0  0  0
  9  3  1  0  0  0  0
  9  2  2  0  0  0  0
 10  5  2  0  0  0  0
 11  7  2  0  0  0  0
 11  4  1  0  0  0  0
 13 10  1  0  0  0  0
 13  8  1  0  0  0  0
 14 18  1  0  0  0  0
 15 16  2  0  0  0  0
 16 17  1  0  0  0  0
 18 17  2  0  0  0  0
 18  7  1  0  0  0  0
 19 15  1  0  0  0  0
 19 14  2  0  0  0  0
 20 23  1  0  0  0  0
 21 22  1  0  0  0  0
 22 23  2  0  0  0  0
 24 20  2  0  0  0  0
 25 21  2  0  0  0  0
 25 24  1  0  0  0  0
 26 27  1  0  0  0  0
M  END
>  <MODEL>
8

>  <REMARK>
 VINA RESULT:      -9.6      2.034      7.148
  Name = 
  3 active torsions:
  status: ('A' for Active; 'I' for Inactive)
    1  A    between atoms: C_9  and  C_15
    2  A    between atoms: C_13  and  C_22
    3  A    between atoms: C_14  and  C_17
                            x       y       z     vdW  Elec       q    Type
                         _______ _______ _______ _____ _____    ______ ____

>  <TORSDO>
F 3

$$$$
=
 OpenBabel11052413553D

 27 31  0  0  0  0  0  0  0  0999 V2000
  187.2710  178.1460  143.1390 N   0  0  0  0  0  0  0  0  0  0  0  0
  188.5830  177.7560  143.1210 C   0  0  0  0  0  0  0  0  0  0  0  0
  188.5780  177.9160  140.7050 N   0  0  0  0  0  0  0  0  0  0  0  0
  190.6100  177.0620  144.2480 C   0  0  0  0  0  3  0  0  0  0  0  0
  185.3150  178.9340  140.3570 C   0  0  0  0  0  0  0  0  0  0  0  0
  189.2730  177.4750  144.3250 C   0  0  0  0  0  0  0  0  0  0  0  0
  190.6080  177.1990  141.8170 C   0  0  0  0  0  0  0  0  0  0  0  0
  186.6470  178.4120  141.9700 C   0  0  0  0  0  0  0  0  0  0  0  0
  189.2570  177.6210  141.8570 C   0  0  0  0  0  0  0  0  0  0  0  0
  186.4910  178.6260  139.7520 N   0  0  0  0  0  0  0  0  0  0  0  0
  191.2600  176.9300  143.0250 C   0  0  0  0  0  3  0  0  0  0  0  0
  185.3560  178.8250  141.7520 C   0  0  0  0  0  2  0  0  0  0  0  0
  187.2860  178.3060  140.7820 C   0  0  0  0  0  0  0  0  0  0  0  0
  190.7620  176.4230  139.4340 C   0  0  0  0  0  3  0  0  0  0  0  0
  192.7780  176.7280  138.1570 C   0  0  0  0  0  3  0  0  0  0  0  0
  193.3610  177.3150  139.2350 N   0  0  0  0  0  0  0  0  0  0  0  0
  192.6940  177.4710  140.4100 C   0  0  0  0  0  3  0  0  0  0  0  0
  191.3710  177.0210  140.5480 C   0  0  0  0  0  0  0  0  0  0  0  0
  191.4620  176.2710  138.2370 C   0  0  0  0  0  3  0  0  0  0  0  0
  187.5710  177.8800  148.1980 N   0  0  0  0  0  0  0  0  0  0  0  0
  188.6520  177.6050  145.6750 C   0  0  0  0  0  0  0  0  0  0  0  0
  189.4410  177.4980  146.8280 C   0  0  0  0  0  3  0  0  0  0  0  0
  188.8750  177.6370  148.0560 N   0  0  0  0  0  0  0  0  0  0  0  0
  186.7550  178.0010  147.1190 C   0  0  0  0  0  3  0  0  0  0  0  0
  187.2870  177.8680  145.8390 C   0  0  0  0  0  3  0  0  0  0  0  0
  182.8680  178.7500  140.1760 C   0  0  0  0  0  1  0  0  0  0  0  0
  184.1160  179.3880  139.6000 C   0  0  0  0  0  2  0  0  0  0  0  0
  2  1  1  0  0  0  0
  2  6  1  0  0  0  0
  3 13  2  0  0  0  0
  3  9  1  0  0  0  0
  4  6  2  0  0  0  0
  5 12  1  0  0  0  0
  6 21  1  0  0  0  0
  7  9  1  0  0  0  0
  7 11  2  0  0  0  0
  8  1  2  0  0  0  0
  9  2  2  0  0  0  0
 10  5  2  0  0  0  0
 10 13  1  0  0  0  0
 11  4  1  0  0  0  0
 12  8  1  0  0  0  0
 13  8  1  0  0  0  0
 14 18  1  0  0  0  0
 15 19  1  0  0  0  0
 15 16  2  0  0  0  0
 16 17  1  0  0  0  0
 17 18  2  0  0  0  0
 18  7  1  0  0  0  0
 19 14  2  0  0  0  0
 21 25  2  0  0  0  0
 21 22  1  0  0  0  0
 22 23  2  0  0  0  0
 23 20  1  0  0  0  0
 24 20  2  0  0  0  0
 25 24  1  0  0  0  0
 27 26  1  0  0  0  0
 27  5  1  0  0  0  0
M  END
>  <MODEL>
9

>  <REMARK>
 VINA RESULT:      -9.4      2.146      5.848
  Name = 
  3 active torsions:
  status: ('A' for Active; 'I' for Inactive)
    1  A    between atoms: C_9  and  C_15
    2  A    between atoms: C_13  and  C_22
    3  A    between atoms: C_14  and  C_17
                            x       y       z     vdW  Elec       q    Type
                         _______ _______ _______ _____ _____    ______ ____

>  <TORSDO>
F 3

$$$$
