=
 OpenBabel11052413043D

 31 35  0  0  1  0  0  0  0  0999 V2000
  180.0660  179.7180  142.0290 C   0  0  0  0  0  0  0  0  0  0  0  0
  183.5400  178.6480  140.8840 C   0  0  1  0  0  3  0  0  0  0  0  0
  183.2770  177.6240  139.8040 C   0  0  0  0  0  0  0  0  0  0  0  0
  182.0670  175.6840  138.9710 C   0  0  0  0  0  3  0  0  0  0  0  0
  182.3480  178.9240  141.7800 C   0  0  0  0  0  0  0  0  0  0  0  0
  180.1280  179.4800  143.4030 C   0  0  0  0  0  3  0  0  0  0  0  0
  182.2720  176.6540  139.9550 C   0  0  0  0  0  3  0  0  0  0  0  0
  184.8810  178.7500  143.0760 C   0  0  2  0  0  3  0  0  0  0  0  0
  178.9310  180.2110  141.4770 F   0  0  0  0  0  0  0  0  0  0  0  0
  186.3320  178.2540  139.5380 C   0  0  0  0  0  2  0  0  0  0  0  0
  182.8770  175.6620  137.8330 C   0  0  0  0  0  3  0  0  0  0  0  0
  183.6620  178.1890  143.7980 C   0  0  0  0  0  2  0  0  0  0  0  0
  184.8630  178.3110  141.6090 C   0  0  2  0  0  3  0  0  0  0  0  0
  181.1730  179.4440  141.2200 C   0  0  0  0  0  3  0  0  0  0  0  0
  183.8970  176.6040  137.6840 C   0  0  0  0  0  3  0  0  0  0  0  0
  182.4140  178.7150  143.1710 C   0  0  0  0  0  0  0  0  0  0  0  0
  181.3020  178.9800  143.9740 C   0  0  0  0  0  3  0  0  0  0  0  0
  186.0280  178.9580  140.8600 C   0  0  0  0  0  2  0  0  0  0  0  0
  184.1070  177.5810  138.6630 C   0  0  0  0  0  0  0  0  0  0  0  0
  185.2540  178.5280  138.4960 C   0  0  0  0  0  2  0  0  0  0  0  0
  185.6070  179.2360  145.7860 O   0  0  0  0  0  0  0  0  0  0  0  0
  186.3970  178.5340  145.0970 C   0  0  0  0  0  0  0  0  0  0  0  0
  186.0920  178.2660  143.7240 N   0  0  0  0  0  2  0  0  0  0  0  0
  190.0340  176.9420  146.7340 C   0  0  0  0  0  0  0  0  0  0  0  0
  188.6840  177.6020  144.8400 C   0  0  0  0  0  3  0  0  0  0  0  0
  186.8090  178.2030  147.9840 O   0  0  0  0  0  1  0  0  0  0  0  0
  191.2990  176.3880  147.2830 C   0  0  0  0  0  1  0  0  0  0  0  0
  189.8740  177.0830  145.3550 C   0  0  0  0  0  3  0  0  0  0  0  0
  187.8100  177.8400  147.0900 C   0  0  0  0  0  0  0  0  0  0  0  0
  187.6390  177.9870  145.6940 C   0  0  0  0  0  0  0  0  0  0  0  0
  189.0040  177.3190  147.5970 C   0  0  0  0  0  3  0  0  0  0  0  0
  1  6  1  0  0  0  0
  2  3  1  6  0  0  0
  2 13  1  0  0  0  0
  2  5  1  0  0  0  0
  3  7  1  0  0  0  0
  4  7  2  0  0  0  0
  5 16  2  0  0  0  0
  6 17  2  0  0  0  0
  8 23  1  1  0  0  0
  8 12  1  0  0  0  0
  9  1  1  0  0  0  0
 10 18  1  0  0  0  0
 11  4  1  0  0  0  0
 13 18  1  6  0  0  0
 13  8  1  0  0  0  0
 14  5  1  0  0  0  0
 14  1  2  0  0  0  0
 15 11  2  0  0  0  0
 15 19  1  0  0  0  0
 16 12  1  0  0  0  0
 16 17  1  0  0  0  0
 19  3  2  0  0  0  0
 20 19  1  0  0  0  0
 20 10  1  0  0  0  0
 22 30  1  0  0  0  0
 22 21  2  0  0  0  0
 23 22  1  0  0  0  0
 24 27  1  0  0  0  0
 24 31  1  0  0  0  0
 25 28  1  0  0  0  0
 25 30  2  0  0  0  0
 28 24  2  0  0  0  0
 29 31  2  0  0  0  0
 29 26  1  0  0  0  0
 30 29  1  0  0  0  0
M  END
>  <MODEL>
1

>  <REMARK>
 VINA RESULT:      -9.6      0.000      0.000
  Name = 
  2 active torsions:
  status: ('A' for Active; 'I' for Inactive)
    1  A    between atoms: C_9  and  C_22
    2  A    between atoms: C_15  and  N_23
                            x       y       z     vdW  Elec       q    Type
                         _______ _______ _______ _____ _____    ______ ____

>  <TORSDO>
F 2

$$$$
=
 OpenBabel11052413043D

 31 35  0  0  1  0  0  0  0  0999 V2000
  192.5000  177.3860  140.1520 C   0  0  0  0  0  0  0  0  0  0  0  0
  190.5560  177.5210  143.4270 C   0  0  1  0  0  3  0  0  0  0  0  0
  191.2040  176.4600  144.2870 C   0  0  0  0  0  0  0  0  0  0  0  0
  192.1220  174.2250  144.5660 C   0  0  0  0  0  3  0  0  0  0  0  0
  190.8650  177.3920  141.9470 C   0  0  0  0  0  0  0  0  0  0  0  0
  191.4810  177.1910  139.2170 C   0  0  0  0  0  3  0  0  0  0  0  0
  191.5660  175.2130  143.7510 C   0  0  0  0  0  3  0  0  0  0  0  0
  188.1790  178.0750  142.6160 C   0  0  2  0  0  3  0  0  0  0  0  0
  193.7890  177.4720  139.7400 F   0  0  0  0  0  0  0  0  0  0  0  0
  189.3940  178.0650  146.2760 C   0  0  0  0  0  2  0  0  0  0  0  0
  192.3070  174.4650  145.9290 C   0  0  0  0  0  3  0  0  0  0  0  0
  188.4130  177.1460  141.4300 C   0  0  0  0  0  2  0  0  0  0  0  0
  189.0600  177.6450  143.7930 C   0  0  2  0  0  3  0  0  0  0  0  0
  192.1940  177.4900  141.5110 C   0  0  0  0  0  3  0  0  0  0  0  0
  191.9260  175.6910  146.4790 C   0  0  0  0  0  3  0  0  0  0  0  0
  189.8380  177.2250  140.9980 C   0  0  0  0  0  0  0  0  0  0  0  0
  190.1510  177.1110  139.6410 C   0  0  0  0  0  3  0  0  0  0  0  0
  188.9030  178.6370  144.9460 C   0  0  0  0  0  2  0  0  0  0  0  0
  191.3710  176.6880  145.6700 C   0  0  0  0  0  0  0  0  0  0  0  0
  190.9140  177.9600  146.3130 C   0  0  0  0  0  2  0  0  0  0  0  0
  186.1330  179.7860  141.6220 O   0  0  0  0  0  0  0  0  0  0  0  0
  185.7890  178.9050  142.4560 C   0  0  0  0  0  0  0  0  0  0  0  0
  186.7750  178.0230  143.0010 N   0  0  0  0  0  2  0  0  0  0  0  0
  181.6640  178.5190  143.5860 C   0  0  0  0  0  0  0  0  0  0  0  0
  183.3950  178.5540  141.8990 C   0  0  0  0  0  3  0  0  0  0  0  0
  184.8990  179.0930  145.2470 O   0  0  0  0  0  1  0  0  0  0  0  0
  180.2320  178.3840  143.9590 C   0  0  0  0  0  1  0  0  0  0  0  0
  182.0490  178.4260  142.2480 C   0  0  0  0  0  3  0  0  0  0  0  0
  183.9750  178.8710  144.2330 C   0  0  0  0  0  0  0  0  0  0  0  0
  184.3740  178.7770  142.8800 C   0  0  0  0  0  0  0  0  0  0  0  0
  182.6250  178.7420  144.5740 C   0  0  0  0  0  3  0  0  0  0  0  0
  1 14  1  0  0  0  0
  2  5  1  6  0  0  0
  2 13  1  0  0  0  0
  2  3  1  0  0  0  0
  3 19  1  0  0  0  0
  4 11  2  0  0  0  0
  6 17  1  0  0  0  0
  6  1  2  0  0  0  0
  7  3  2  0  0  0  0
  7  4  1  0  0  0  0
  8 23  1  1  0  0  0
  8 13  1  0  0  0  0
  9  1  1  0  0  0  0
 10 20  1  0  0  0  0
 11 15  1  0  0  0  0
 12  8  1  0  0  0  0
 13 18  1  1  0  0  0
 14  5  2  0  0  0  0
 16 12  1  0  0  0  0
 16  5  1  0  0  0  0
 17 16  2  0  0  0  0
 18 10  1  0  0  0  0
 19 20  1  0  0  0  0
 19 15  2  0  0  0  0
 21 22  2  0  0  0  0
 22 30  1  0  0  0  0
 22 23  1  0  0  0  0
 24 27  1  0  0  0  0
 24 31  1  0  0  0  0
 25 28  1  0  0  0  0
 25 30  2  0  0  0  0
 28 24  2  0  0  0  0
 29 31  2  0  0  0  0
 29 26  1  0  0  0  0
 30 29  1  0  0  0  0
M  END
>  <MODEL>
2

>  <REMARK>
 VINA RESULT:      -8.9      3.792      8.780
  Name = 
  2 active torsions:
  status: ('A' for Active; 'I' for Inactive)
    1  A    between atoms: C_9  and  C_22
    2  A    between atoms: C_15  and  N_23
                            x       y       z     vdW  Elec       q    Type
                         _______ _______ _______ _____ _____    ______ ____

>  <TORSDO>
F 2

$$$$
=
 OpenBabel11052413043D

 31 35  0  0  1  0  0  0  0  0999 V2000
  180.0870  179.7490  138.6450 C   0  0  0  0  0  0  0  0  0  0  0  0
  183.6860  178.5130  138.8480 C   0  0  1  0  0  3  0  0  0  0  0  0
  183.7650  177.4260  137.8000 C   0  0  0  0  0  0  0  0  0  0  0  0
  182.8280  175.4680  136.7000 C   0  0  0  0  0  3  0  0  0  0  0  0
  182.2710  178.8800  139.2540 C   0  0  0  0  0  0  0  0  0  0  0  0
  179.6550  179.6030  139.9650 C   0  0  0  0  0  3  0  0  0  0  0  0
  182.7240  176.4950  137.6410 C   0  0  0  0  0  3  0  0  0  0  0  0
  184.1840  178.7250  141.3610 C   0  0  2  0  0  3  0  0  0  0  0  0
  179.2390  180.2350  137.7050 F   0  0  0  0  0  0  0  0  0  0  0  0
  186.7490  177.9550  138.5870 C   0  0  0  0  0  2  0  0  0  0  0  0
  183.9800  175.3480  135.9210 C   0  0  0  0  0  3  0  0  0  0  0  0
  182.7640  178.2470  141.6400 C   0  0  0  0  0  2  0  0  0  0  0  0
  184.6560  178.1900  140.0060 C   0  0  2  0  0  3  0  0  0  0  0  0
  181.3910  179.3930  138.2910 C   0  0  0  0  0  3  0  0  0  0  0  0
  185.0330  176.2500  136.0890 C   0  0  0  0  0  3  0  0  0  0  0  0
  181.8400  178.7620  140.5890 C   0  0  0  0  0  0  0  0  0  0  0  0
  180.5320  179.1110  140.9360 C   0  0  0  0  0  3  0  0  0  0  0  0
  186.0390  178.7530  139.6790 C   0  0  0  0  0  2  0  0  0  0  0  0
  184.9370  177.2840  137.0260 C   0  0  0  0  0  0  0  0  0  0  0  0
  186.1140  178.1870  137.2200 C   0  0  0  0  0  2  0  0  0  0  0  0
  184.6440  180.0470  143.8410 O   0  0  0  0  0  0  0  0  0  0  0  0
  185.2510  178.9580  143.6500 C   0  0  0  0  0  0  0  0  0  0  0  0
  185.0700  178.2530  142.4170 N   0  0  0  0  0  2  0  0  0  0  0  0
  187.9290  177.3290  146.5850 C   0  0  0  0  0  0  0  0  0  0  0  0
  187.3840  177.8610  144.2910 C   0  0  0  0  0  3  0  0  0  0  0  0
  184.6120  178.9230  146.5140 O   0  0  0  0  0  1  0  0  0  0  0  0
  188.8670  176.7610  147.5870 C   0  0  0  0  0  1  0  0  0  0  0  0
  188.2680  177.3270  145.2320 C   0  0  0  0  0  3  0  0  0  0  0  0
  185.8170  178.4010  146.0620 C   0  0  0  0  0  0  0  0  0  0  0  0
  186.1520  178.4030  144.6880 C   0  0  0  0  0  0  0  0  0  0  0  0
  186.7070  177.8650  146.9970 C   0  0  0  0  0  3  0  0  0  0  0  0
  1  6  1  0  0  0  0
  2  3  1  6  0  0  0
  2  5  1  0  0  0  0
  2 13  1  0  0  0  0
  4  7  2  0  0  0  0
  5 16  2  0  0  0  0
  6 17  2  0  0  0  0
  7  3  1  0  0  0  0
  8 12  1  0  0  0  0
  8 23  1  1  0  0  0
  9  1  1  0  0  0  0
 10 18  1  0  0  0  0
 11 15  2  0  0  0  0
 11  4  1  0  0  0  0
 13 18  1  6  0  0  0
 13  8  1  0  0  0  0
 14  1  2  0  0  0  0
 14  5  1  0  0  0  0
 15 19  1  0  0  0  0
 16 17  1  0  0  0  0
 16 12  1  0  0  0  0
 19 20  1  0  0  0  0
 19  3  2  0  0  0  0
 20 10  1  0  0  0  0
 22 21  2  0  0  0  0
 22 30  1  0  0  0  0
 23 22  1  0  0  0  0
 24 31  1  0  0  0  0
 24 27  1  0  0  0  0
 25 30  2  0  0  0  0
 25 28  1  0  0  0  0
 28 24  2  0  0  0  0
 29 26  1  0  0  0  0
 29 31  2  0  0  0  0
 30 29  1  0  0  0  0
M  END
>  <MODEL>
3

>  <REMARK>
 VINA RESULT:      -8.8      1.615      2.327
  Name = 
  2 active torsions:
  status: ('A' for Active; 'I' for Inactive)
    1  A    between atoms: C_9  and  C_22
    2  A    between atoms: C_15  and  N_23
                            x       y       z     vdW  Elec       q    Type
                         _______ _______ _______ _____ _____    ______ ____

>  <TORSDO>
F 2

$$$$
=
 OpenBabel11052413043D

 31 35  0  0  1  0  0  0  0  0999 V2000
  191.3180  178.5460  143.5880 C   0  0  0  0  0  0  0  0  0  0  0  0
  187.7470  178.5040  144.9190 C   0  0  1  0  0  3  0  0  0  0  0  0
  187.8680  177.8690  146.2860 C   0  0  0  0  0  0  0  0  0  0  0  0
  188.7640  176.1470  147.7530 C   0  0  0  0  0  3  0  0  0  0  0  0
  188.9440  178.2660  144.0180 C   0  0  0  0  0  0  0  0  0  0  0  0
  191.1810  177.8780  142.3690 C   0  0  0  0  0  3  0  0  0  0  0  0
  188.6950  176.7530  146.4970 C   0  0  0  0  0  3  0  0  0  0  0  0
  186.3830  178.0890  142.7790 C   0  0  2  0  0  3  0  0  0  0  0  0
  192.5340  179.0010  143.9780 F   0  0  0  0  0  0  0  0  0  0  0  0
  184.9660  179.0440  146.2360 C   0  0  0  0  0  2  0  0  0  0  0  0
  187.9930  176.6380  148.8080 C   0  0  0  0  0  3  0  0  0  0  0  0
  187.4730  177.1280  142.3220 C   0  0  0  0  0  2  0  0  0  0  0  0
  186.3690  178.1670  144.3090 C   0  0  2  0  0  3  0  0  0  0  0  0
  190.2040  178.7430  144.4080 C   0  0  0  0  0  3  0  0  0  0  0  0
  187.1460  177.7300  148.6050 C   0  0  0  0  0  3  0  0  0  0  0  0
  188.8070  177.6190  142.7750 C   0  0  0  0  0  0  0  0  0  0  0  0
  189.9260  177.4160  141.9630 C   0  0  0  0  0  3  0  0  0  0  0  0
  185.3460  179.2080  144.7660 C   0  0  0  0  0  2  0  0  0  0  0  0
  187.0730  178.3450  147.3510 C   0  0  0  0  0  0  0  0  0  0  0  0
  186.1030  179.4680  147.1590 C   0  0  0  0  0  2  0  0  0  0  0  0
  184.8080  179.3780  140.7890 O   0  0  0  0  0  0  0  0  0  0  0  0
  184.3500  178.3090  141.2800 C   0  0  0  0  0  0  0  0  0  0  0  0
  185.0910  177.6220  142.2940 N   0  0  0  0  0  2  0  0  0  0  0  0
  180.6400  176.6580  139.8840 C   0  0  0  0  0  0  0  0  0  0  0  0
  183.0560  176.7530  139.8430 C   0  0  0  0  0  3  0  0  0  0  0  0
  181.7480  179.2120  142.2930 O   0  0  0  0  0  1  0  0  0  0  0  0
  179.3660  176.0760  139.3890 C   0  0  0  0  0  1  0  0  0  0  0  0
  181.8580  176.2040  139.3780 C   0  0  0  0  0  3  0  0  0  0  0  0
  181.8130  178.2150  141.3260 C   0  0  0  0  0  0  0  0  0  0  0  0
  183.0530  177.7610  140.8190 C   0  0  0  0  0  0  0  0  0  0  0  0
  180.6190  177.6610  140.8550 C   0  0  0  0  0  3  0  0  0  0  0  0
  1  9  1  0  0  0  0
  1 14  1  0  0  0  0
  2  5  1  6  0  0  0
  2  3  1  0  0  0  0
  3  7  2  0  0  0  0
  3 19  1  0  0  0  0
  4 11  2  0  0  0  0
  5 14  2  0  0  0  0
  6  1  2  0  0  0  0
  7  4  1  0  0  0  0
  8 23  1  1  0  0  0
  8 13  1  0  0  0  0
 10 20  1  0  0  0  0
 12 16  1  0  0  0  0
 12  8  1  0  0  0  0
 13 18  1  6  0  0  0
 13  2  1  0  0  0  0
 15 11  1  0  0  0  0
 16  5  1  0  0  0  0
 17  6  1  0  0  0  0
 17 16  2  0  0  0  0
 18 10  1  0  0  0  0
 19 15  2  0  0  0  0
 20 19  1  0  0  0  0
 21 22  2  0  0  0  0
 22 23  1  0  0  0  0
 24 31  1  0  0  0  0
 25 30  2  0  0  0  0
 27 24  1  0  0  0  0
 28 25  1  0  0  0  0
 28 24  2  0  0  0  0
 29 26  1  0  0  0  0
 30 22  1  0  0  0  0
 30 29  1  0  0  0  0
 31 29  2  0  0  0  0
M  END
>  <MODEL>
4

>  <REMARK>
 VINA RESULT:      -8.2      3.438      8.772
  Name = 
  2 active torsions:
  status: ('A' for Active; 'I' for Inactive)
    1  A    between atoms: C_9  and  C_22
    2  A    between atoms: C_15  and  N_23
                            x       y       z     vdW  Elec       q    Type
                         _______ _______ _______ _____ _____    ______ ____

>  <TORSDO>
F 2

$$$$
=
 OpenBabel11052413043D

 31 35  0  0  1  0  0  0  0  0999 V2000
  180.0790  178.6590  137.2870 C   0  0  0  0  0  0  0  0  0  0  0  0
  183.7650  178.0280  138.0190 C   0  0  1  0  0  3  0  0  0  0  0  0
  184.1380  176.8910  137.0960 C   0  0  0  0  0  0  0  0  0  0  0  0
  183.6490  174.7310  136.0880 C   0  0  0  0  0  3  0  0  0  0  0  0
  182.2720  178.1960  138.2230 C   0  0  0  0  0  0  0  0  0  0  0  0
  179.5080  178.5480  138.5570 C   0  0  0  0  0  3  0  0  0  0  0  0
  183.2750  175.7970  136.9080 C   0  0  0  0  0  3  0  0  0  0  0  0
  183.9000  178.5090  140.5410 C   0  0  2  0  0  3  0  0  0  0  0  0
  179.2970  178.9310  136.2150 F   0  0  0  0  0  0  0  0  0  0  0  0
  186.8850  177.9440  138.1660 C   0  0  0  0  0  2  0  0  0  0  0  0
  184.8970  174.7360  135.4610 C   0  0  0  0  0  3  0  0  0  0  0  0
  182.5430  177.8340  140.6990 C   0  0  0  0  0  2  0  0  0  0  0  0
  184.6160  177.9530  139.3060 C   0  0  2  0  0  3  0  0  0  0  0  0
  181.4560  178.4880  137.1210 C   0  0  0  0  0  3  0  0  0  0  0  0
  185.7750  175.8030  135.6620 C   0  0  0  0  0  3  0  0  0  0  0  0
  181.6950  178.1150  139.5050 C   0  0  0  0  0  0  0  0  0  0  0  0
  180.3160  178.2770  139.6650 C   0  0  0  0  0  3  0  0  0  0  0  0
  185.9310  178.7010  139.0880 C   0  0  0  0  0  2  0  0  0  0  0  0
  185.4070  176.8780  136.4780 C   0  0  0  0  0  0  0  0  0  0  0  0
  186.4040  177.9680  136.7200 C   0  0  0  0  0  2  0  0  0  0  0  0
  183.2850  179.4360  143.1620 O   0  0  0  0  0  0  0  0  0  0  0  0
  184.3350  178.7490  143.0280 C   0  0  0  0  0  0  0  0  0  0  0  0
  184.7040  178.2650  141.7320 N   0  0  0  0  0  2  0  0  0  0  0  0
  186.7430  177.8970  146.4800 C   0  0  0  0  0  0  0  0  0  0  0  0
  184.7360  178.7960  145.4770 C   0  0  0  0  0  3  0  0  0  0  0  0
  186.9500  177.4300  142.8340 O   0  0  0  0  0  1  0  0  0  0  0  0
  187.5630  177.6100  147.6850 C   0  0  0  0  0  1  0  0  0  0  0  0
  185.5050  178.5270  146.6120 C   0  0  0  0  0  3  0  0  0  0  0  0
  186.4460  177.8040  144.0750 C   0  0  0  0  0  0  0  0  0  0  0  0
  185.1910  178.4410  144.1980 C   0  0  0  0  0  0  0  0  0  0  0  0
  187.2110  177.5370  145.2150 C   0  0  0  0  0  3  0  0  0  0  0  0
  1  6  1  0  0  0  0
  2  3  1  1  0  0  0
  2  5  1  0  0  0  0
  2 13  1  0  0  0  0
  4  7  2  0  0  0  0
  5 16  2  0  0  0  0
  6 17  2  0  0  0  0
  7  3  1  0  0  0  0
  8 12  1  0  0  0  0
  8 23  1  1  0  0  0
  9  1  1  0  0  0  0
 10 18  1  0  0  0  0
 11 15  2  0  0  0  0
 11  4  1  0  0  0  0
 13 18  1  6  0  0  0
 13  8  1  0  0  0  0
 14  1  2  0  0  0  0
 14  5  1  0  0  0  0
 15 19  1  0  0  0  0
 16 17  1  0  0  0  0
 16 12  1  0  0  0  0
 19 20  1  0  0  0  0
 19  3  2  0  0  0  0
 20 10  1  0  0  0  0
 22 21  2  0  0  0  0
 22 30  1  0  0  0  0
 23 22  1  0  0  0  0
 24 28  1  0  0  0  0
 24 27  1  0  0  0  0
 25 28  2  0  0  0  0
 26 29  1  0  0  0  0
 29 30  2  0  0  0  0
 29 31  1  0  0  0  0
 30 25  1  0  0  0  0
 31 24  2  0  0  0  0
M  END
>  <MODEL>
5

>  <REMARK>
 VINA RESULT:      -7.9      2.385      3.561
  Name = 
  2 active torsions:
  status: ('A' for Active; 'I' for Inactive)
    1  A    between atoms: C_9  and  C_22
    2  A    between atoms: C_15  and  N_23
                            x       y       z     vdW  Elec       q    Type
                         _______ _______ _______ _____ _____    ______ ____

>  <TORSDO>
F 2

$$$$
=
 OpenBabel11052413043D

 31 35  0  0  1  0  0  0  0  0999 V2000
  182.2350  177.6900  135.8190 C   0  0  0  0  0  0  0  0  0  0  0  0
  181.2720  178.7880  139.3390 C   0  0  1  0  0  3  0  0  0  0  0  0
  180.7730  180.2040  139.1630 C   0  0  0  0  0  0  0  0  0  0  0  0
  180.9960  182.4260  138.1970 C   0  0  0  0  0  3  0  0  0  0  0  0
  182.0920  178.2710  138.1730 C   0  0  0  0  0  0  0  0  0  0  0  0
  183.5610  177.2900  135.9930 C   0  0  0  0  0  3  0  0  0  0  0  0
  181.4390  181.1080  138.3170 C   0  0  0  0  0  3  0  0  0  0  0  0
  183.0390  177.5930  140.7740 C   0  0  2  0  0  3  0  0  0  0  0  0
  181.6580  177.6100  134.5950 F   0  0  0  0  0  0  0  0  0  0  0  0
  179.9160  179.4430  142.0760 C   0  0  0  0  0  2  0  0  0  0  0  0
  179.8940  182.8630  138.9350 C   0  0  0  0  0  3  0  0  0  0  0  0
  184.0660  177.9020  139.6910 C   0  0  0  0  0  2  0  0  0  0  0  0
  181.9140  178.6330  140.7350 C   0  0  2  0  0  3  0  0  0  0  0  0
  181.5010  178.1750  136.9050 C   0  0  0  0  0  3  0  0  0  0  0  0
  179.2400  181.9830  139.8000 C   0  0  0  0  0  3  0  0  0  0  0  0
  183.4210  177.8390  138.3480 C   0  0  0  0  0  0  0  0  0  0  0  0
  184.1530  177.3640  137.2570 C   0  0  0  0  0  3  0  0  0  0  0  0
  180.8330  178.2650  141.7510 C   0  0  0  0  0  2  0  0  0  0  0  0
  179.6750  180.6590  139.9240 C   0  0  0  0  0  0  0  0  0  0  0  0
  178.9880  179.7690  140.9120 C   0  0  0  0  0  2  0  0  0  0  0  0
  185.0940  179.3990  141.5610 O   0  0  0  0  0  0  0  0  0  0  0  0
  184.7110  178.5580  142.4190 C   0  0  0  0  0  0  0  0  0  0  0  0
  183.6890  177.6150  142.0780 N   0  0  0  0  0  2  0  0  0  0  0  0
  186.5320  178.4470  146.3060 C   0  0  0  0  0  0  0  0  0  0  0  0
  186.5990  178.0000  143.9310 C   0  0  0  0  0  3  0  0  0  0  0  0
  183.3560  179.5670  144.8190 O   0  0  0  0  0  1  0  0  0  0  0  0
  187.1770  178.4000  147.6430 C   0  0  0  0  0  1  0  0  0  0  0  0
  187.2070  177.9570  145.1880 C   0  0  0  0  0  3  0  0  0  0  0  0
  184.6340  179.0280  144.9130 C   0  0  0  0  0  0  0  0  0  0  0  0
  185.3100  178.5340  143.7740 C   0  0  0  0  0  0  0  0  0  0  0  0
  185.2500  178.9810  146.1670 C   0  0  0  0  0  3  0  0  0  0  0  0
  1  6  2  0  0  0  0
  1 14  1  0  0  0  0
  2  5  1  6  0  0  0
  2 13  1  0  0  0  0
  3  2  1  0  0  0  0
  3 19  1  0  0  0  0
  4  7  1  0  0  0  0
  4 11  2  0  0  0  0
  5 16  1  0  0  0  0
  6 17  1  0  0  0  0
  7  3  2  0  0  0  0
  8 23  1  1  0  0  0
  9  1  1  0  0  0  0
 11 15  1  0  0  0  0
 12  8  1  0  0  0  0
 13  8  1  0  0  0  0
 13 18  1  1  0  0  0
 14  5  2  0  0  0  0
 15 19  2  0  0  0  0
 16 12  1  0  0  0  0
 17 16  2  0  0  0  0
 18 10  1  0  0  0  0
 19 20  1  0  0  0  0
 20 10  1  0  0  0  0
 21 22  2  0  0  0  0
 22 30  1  0  0  0  0
 23 22  1  0  0  0  0
 24 27  1  0  0  0  0
 25 28  1  0  0  0  0
 26 29  1  0  0  0  0
 28 24  2  0  0  0  0
 29 31  2  0  0  0  0
 30 25  2  0  0  0  0
 30 29  1  0  0  0  0
 31 24  1  0  0  0  0
M  END
>  <MODEL>
6

>  <REMARK>
 VINA RESULT:      -7.7      2.616      5.235
  Name = 
  2 active torsions:
  status: ('A' for Active; 'I' for Inactive)
    1  A    between atoms: C_9  and  C_22
    2  A    between atoms: C_15  and  N_23
                            x       y       z     vdW  Elec       q    Type
                         _______ _______ _______ _____ _____    ______ ____

>  <TORSDO>
F 2

$$$$
=
 OpenBabel11052413043D

 31 35  0  0  1  0  0  0  0  0999 V2000
  187.9260  177.9700  148.4360 C   0  0  0  0  0  0  0  0  0  0  0  0
  188.4200  177.4040  144.7000 C   0  0  1  0  0  3  0  0  0  0  0  0
  189.8030  177.9480  144.4210 C   0  0  0  0  0  0  0  0  0  0  0  0
  191.5010  179.6690  144.7000 C   0  0  0  0  0  3  0  0  0  0  0  0
  187.8220  177.8760  146.0110 C   0  0  0  0  0  0  0  0  0  0  0  0
  186.7350  178.6980  148.4640 C   0  0  0  0  0  3  0  0  0  0  0  0
  190.2380  179.1530  145.0000 C   0  0  0  0  0  3  0  0  0  0  0  0
  186.0470  177.7750  143.7840 C   0  0  2  0  0  3  0  0  0  0  0  0
  188.5610  177.6650  149.5940 F   0  0  0  0  0  0  0  0  0  0  0  0
  189.0550  176.3780  141.8180 C   0  0  0  0  0  2  0  0  0  0  0  0
  192.3360  178.9970  143.8040 C   0  0  0  0  0  3  0  0  0  0  0  0
  185.8840  178.9130  144.7840 C   0  0  0  0  0  2  0  0  0  0  0  0
  187.5300  177.5850  143.4500 C   0  0  2  0  0  3  0  0  0  0  0  0
  188.4660  177.5570  147.2150 C   0  0  0  0  0  3  0  0  0  0  0  0
  191.9040  177.8140  143.2020 C   0  0  0  0  0  3  0  0  0  0  0  0
  186.6060  178.5850  146.0470 C   0  0  0  0  0  0  0  0  0  0  0  0
  186.0760  179.0050  147.2700 C   0  0  0  0  0  3  0  0  0  0  0  0
  187.7030  176.3780  142.5280 C   0  0  0  0  0  2  0  0  0  0  0  0
  190.6420  177.2870  143.4990 C   0  0  0  0  0  0  0  0  0  0  0  0
  190.1930  176.0540  142.7790 C   0  0  0  0  0  2  0  0  0  0  0  0
  183.2890  178.4740  143.6780 O   0  0  0  0  0  0  0  0  0  0  0  0
  183.9150  178.4440  142.5830 C   0  0  0  0  0  0  0  0  0  0  0  0
  185.3020  178.0870  142.5710 N   0  0  0  0  0  2  0  0  0  0  0  0
  181.8380  179.3690  138.9400 C   0  0  0  0  0  0  0  0  0  0  0  0
  181.8350  178.6280  141.2410 C   0  0  0  0  0  3  0  0  0  0  0  0
  185.3070  179.3820  140.1750 O   0  0  0  0  0  1  0  0  0  0  0  0
  181.1040  179.6840  137.6880 C   0  0  0  0  0  1  0  0  0  0  0  0
  181.1430  178.9240  140.0650 C   0  0  0  0  0  3  0  0  0  0  0  0
  183.9260  179.2220  140.1660 C   0  0  0  0  0  0  0  0  0  0  0  0
  183.2290  178.7710  141.3110 C   0  0  0  0  0  0  0  0  0  0  0  0
  183.2260  179.5170  138.9920 C   0  0  0  0  0  3  0  0  0  0  0  0
  1  6  1  0  0  0  0
  1  9  1  0  0  0  0
  2  3  1  6  0  0  0
  2  5  1  0  0  0  0
  3  7  1  0  0  0  0
  4  7  2  0  0  0  0
  5 16  2  0  0  0  0
  5 14  1  0  0  0  0
  8 23  1  6  0  0  0
  8 12  1  0  0  0  0
 10 18  1  0  0  0  0
 10 20  1  0  0  0  0
 11  4  1  0  0  0  0
 12 16  1  0  0  0  0
 13 18  1  6  0  0  0
 13  8  1  0  0  0  0
 13  2  1  0  0  0  0
 14  1  2  0  0  0  0
 15 19  1  0  0  0  0
 15 11  2  0  0  0  0
 16 17  1  0  0  0  0
 17  6  2  0  0  0  0
 19  3  2  0  0  0  0
 20 19  1  0  0  0  0
 22 21  2  0  0  0  0
 23 22  1  0  0  0  0
 24 31  2  0  0  0  0
 24 28  1  0  0  0  0
 25 30  1  0  0  0  0
 27 24  1  0  0  0  0
 28 25  2  0  0  0  0
 29 26  1  0  0  0  0
 29 30  2  0  0  0  0
 30 22  1  0  0  0  0
 31 29  1  0  0  0  0
M  END
>  <MODEL>
7

>  <REMARK>
 VINA RESULT:      -7.5      3.237      8.211
  Name = 
  2 active torsions:
  status: ('A' for Active; 'I' for Inactive)
    1  A    between atoms: C_9  and  C_22
    2  A    between atoms: C_15  and  N_23
                            x       y       z     vdW  Elec       q    Type
                         _______ _______ _______ _____ _____    ______ ____

>  <TORSDO>
F 2

$$$$
=
 OpenBabel11052413043D

 31 35  0  0  1  0  0  0  0  0999 V2000
  185.3990  177.7700  136.4580 C   0  0  0  0  0  0  0  0  0  0  0  0
  183.5920  178.3810  139.7580 C   0  0  1  0  0  3  0  0  0  0  0  0
  182.6410  179.5160  139.4560 C   0  0  0  0  0  0  0  0  0  0  0  0
  182.1730  181.6790  138.4430 C   0  0  0  0  0  3  0  0  0  0  0  0
  184.7070  178.2210  138.7430 C   0  0  0  0  0  0  0  0  0  0  0  0
  186.7380  177.8850  136.8360 C   0  0  0  0  0  3  0  0  0  0  0  0
  183.0450  180.6140  138.6780 C   0  0  0  0  0  3  0  0  0  0  0  0
  185.4420  177.9000  141.4780 C   0  0  2  0  0  3  0  0  0  0  0  0
  185.0790  177.5030  135.1690 F   0  0  0  0  0  0  0  0  0  0  0  0
  181.7030  178.4470  142.2460 C   0  0  0  0  0  2  0  0  0  0  0  0
  180.8910  181.6670  138.9980 C   0  0  0  0  0  3  0  0  0  0  0  0
  186.4310  178.5830  140.5410 C   0  0  0  0  0  2  0  0  0  0  0  0
  184.0330  178.4520  141.2370 C   0  0  2  0  0  3  0  0  0  0  0  0
  184.3870  177.9340  137.4080 C   0  0  0  0  0  3  0  0  0  0  0  0
  180.4860  180.5940  139.7960 C   0  0  0  0  0  3  0  0  0  0  0  0
  186.0610  178.3070  139.1230 C   0  0  0  0  0  0  0  0  0  0  0  0
  187.0680  178.1520  138.1680 C   0  0  0  0  0  3  0  0  0  0  0  0
  183.0250  177.6960  142.1020 C   0  0  0  0  0  2  0  0  0  0  0  0
  181.3520  179.5220  140.0330 C   0  0  0  0  0  0  0  0  0  0  0  0
  180.9020  178.4270  140.9480 C   0  0  0  0  0  2  0  0  0  0  0  0
  187.3190  176.3440  142.9470 O   0  0  0  0  0  0  0  0  0  0  0  0
  186.7990  177.3270  143.5420 C   0  0  0  0  0  0  0  0  0  0  0  0
  185.8390  178.1400  142.8590 N   0  0  0  0  0  2  0  0  0  0  0  0
  187.9720  178.2230  147.5740 C   0  0  0  0  0  0  0  0  0  0  0  0
  188.4940  177.4250  145.3530 C   0  0  0  0  0  3  0  0  0  0  0  0
  184.9210  178.4040  145.5230 O   0  0  0  0  0  1  0  0  0  0  0  0
  188.3950  178.5270  148.9650 C   0  0  0  0  0  1  0  0  0  0  0  0
  188.8930  177.7110  146.6610 C   0  0  0  0  0  3  0  0  0  0  0  0
  186.2440  178.1650  145.8730 C   0  0  0  0  0  0  0  0  0  0  0  0
  187.1710  177.6460  144.9400 C   0  0  0  0  0  0  0  0  0  0  0  0
  186.6520  178.4490  147.1800 C   0  0  0  0  0  3  0  0  0  0  0  0
  1  6  2  0  0  0  0
  1 14  1  0  0  0  0
  2  5  1  6  0  0  0
  2 13  1  0  0  0  0
  3  2  1  0  0  0  0
  3 19  1  0  0  0  0
  4  7  1  0  0  0  0
  4 11  2  0  0  0  0
  5 16  1  0  0  0  0
  6 17  1  0  0  0  0
  7  3  2  0  0  0  0
  8 23  1  1  0  0  0
  9  1  1  0  0  0  0
 11 15  1  0  0  0  0
 12  8  1  0  0  0  0
 13  8  1  0  0  0  0
 13 18  1  1  0  0  0
 14  5  2  0  0  0  0
 15 19  2  0  0  0  0
 16 12  1  0  0  0  0
 17 16  2  0  0  0  0
 18 10  1  0  0  0  0
 19 20  1  0  0  0  0
 20 10  1  0  0  0  0
 21 22  2  0  0  0  0
 22 30  1  0  0  0  0
 23 22  1  0  0  0  0
 24 27  1  0  0  0  0
 25 28  1  0  0  0  0
 26 29  1  0  0  0  0
 28 24  2  0  0  0  0
 29 31  2  0  0  0  0
 30 25  2  0  0  0  0
 30 29  1  0  0  0  0
 31 24  1  0  0  0  0
M  END
>  <MODEL>
8

>  <REMARK>
 VINA RESULT:      -7.3      2.422      4.698
  Name = 
  2 active torsions:
  status: ('A' for Active; 'I' for Inactive)
    1  A    between atoms: C_9  and  C_22
    2  A    between atoms: C_15  and  N_23
                            x       y       z     vdW  Elec       q    Type
                         _______ _______ _______ _____ _____    ______ ____

>  <TORSDO>
F 2

$$$$
=
 OpenBabel11052413043D

 31 35  0  0  1  0  0  0  0  0999 V2000
  180.2920  179.4920  143.1380 C   0  0  0  0  0  0  0  0  0  0  0  0
  181.8320  178.3200  139.8550 C   0  0  1  0  0  3  0  0  0  0  0  0
  180.9220  177.2040  139.3950 C   0  0  0  0  0  0  0  0  0  0  0  0
  179.6230  175.2000  139.8600 C   0  0  0  0  0  3  0  0  0  0  0  0
  181.6830  178.6770  141.3210 C   0  0  0  0  0  0  0  0  0  0  0  0
  181.3690  179.3790  144.0200 C   0  0  0  0  0  3  0  0  0  0  0  0
  180.4260  176.2530  140.3030 C   0  0  0  0  0  3  0  0  0  0  0  0
  184.3460  178.6160  140.3070 C   0  0  2  0  0  3  0  0  0  0  0  0
  179.0930  179.9360  143.5870 F   0  0  0  0  0  0  0  0  0  0  0  0
  182.7220  177.8040  136.9040 C   0  0  0  0  0  2  0  0  0  0  0  0
  179.3200  175.0750  138.5020 C   0  0  0  0  0  3  0  0  0  0  0  0
  184.1050  178.1230  141.7280 C   0  0  0  0  0  2  0  0  0  0  0  0
  183.2730  178.0480  139.3710 C   0  0  2  0  0  3  0  0  0  0  0  0
  180.4490  179.1460  141.7930 C   0  0  0  0  0  3  0  0  0  0  0  0
  179.8290  175.9990  137.5860 C   0  0  0  0  0  3  0  0  0  0  0  0
  182.7730  178.5920  142.2090 C   0  0  0  0  0  0  0  0  0  0  0  0
  182.6080  178.9290  143.5550 C   0  0  0  0  0  3  0  0  0  0  0  0
  183.4530  178.6230  137.9660 C   0  0  0  0  0  2  0  0  0  0  0  0
  180.6320  177.0580  138.0210 C   0  0  0  0  0  0  0  0  0  0  0  0
  181.2110  177.9850  136.9990 C   0  0  0  0  0  2  0  0  0  0  0  0
  186.8160  179.4430  141.4560 O   0  0  0  0  0  0  0  0  0  0  0  0
  186.8750  178.6320  140.4920 C   0  0  0  0  0  0  0  0  0  0  0  0
  185.6670  178.1890  139.8640 N   0  0  0  0  0  2  0  0  0  0  0  0
  190.6830  177.1580  139.1620 C   0  0  0  0  0  0  0  0  0  0  0  0
  189.0270  177.4640  140.8970 C   0  0  0  0  0  3  0  0  0  0  0  0
  187.8160  178.9740  137.7330 O   0  0  0  0  0  1  0  0  0  0  0  0
  192.0030  176.6420  138.7190 C   0  0  0  0  0  1  0  0  0  0  0  0
  190.2690  176.9770  140.4820 C   0  0  0  0  0  3  0  0  0  0  0  0
  188.6100  178.3150  138.6650 C   0  0  0  0  0  0  0  0  0  0  0  0
  188.1820  178.1360  140.0010 C   0  0  0  0  0  0  0  0  0  0  0  0
  189.8540  177.8250  138.2570 C   0  0  0  0  0  3  0  0  0  0  0  0
  1  9  1  0  0  0  0
  1  6  1  0  0  0  0
  2  3  1  1  0  0  0
  2  5  1  0  0  0  0
  3  7  1  0  0  0  0
  4  7  2  0  0  0  0
  5 14  1  0  0  0  0
  5 16  2  0  0  0  0
  8 23  1  6  0  0  0
  8 12  1  0  0  0  0
 10 20  1  0  0  0  0
 10 18  1  0  0  0  0
 11  4  1  0  0  0  0
 12 16  1  0  0  0  0
 13 18  1  6  0  0  0
 13  2  1  0  0  0  0
 13  8  1  0  0  0  0
 14  1  2  0  0  0  0
 15 19  1  0  0  0  0
 15 11  2  0  0  0  0
 16 17  1  0  0  0  0
 17  6  2  0  0  0  0
 19  3  2  0  0  0  0
 20 19  1  0  0  0  0
 22 21  2  0  0  0  0
 23 22  1  0  0  0  0
 24 28  1  0  0  0  0
 26 29  1  0  0  0  0
 27 24  1  0  0  0  0
 28 25  2  0  0  0  0
 29 30  2  0  0  0  0
 30 22  1  0  0  0  0
 30 25  1  0  0  0  0
 31 29  1  0  0  0  0
 31 24  2  0  0  0  0
M  END
>  <MODEL>
9

>  <REMARK>
 VINA RESULT:      -7.3      3.413      4.677
  Name = 
  2 active torsions:
  status: ('A' for Active; 'I' for Inactive)
    1  A    between atoms: C_9  and  C_22
    2  A    between atoms: C_15  and  N_23
                            x       y       z     vdW  Elec       q    Type
                         _______ _______ _______ _____ _____    ______ ____

>  <TORSDO>
F 2

$$$$
