=
 OpenBabel11052413283D

 28 32  0  0  1  0  0  0  0  0999 V2000
  190.2950  176.3770  143.9200 C   0  0  0  0  0  0  0  0  0  0  0  0
  185.3330  177.8230  143.0780 C   0  0  0  0  0  3  0  0  0  0  0  0
  188.5630  177.6680  148.2150 O   0  0  0  0  0  0  0  0  0  0  0  0
  184.6780  178.7700  145.2170 C   0  0  0  0  0  0  0  0  0  0  0  0
  186.8490  177.6640  145.0020 C   0  0  0  0  0  0  0  0  0  0  0  0
  183.1910  178.9280  143.3120 C   0  0  0  0  0  0  0  0  0  0  0  0
  185.6290  178.0810  144.4260 C   0  0  0  0  0  0  0  0  0  0  0  0
  186.1420  178.6120  147.1320 C   0  0  0  0  0  3  0  0  0  0  0  0
  183.4690  179.1890  144.6560 C   0  0  0  0  0  3  0  0  0  0  0  0
  189.4680  177.0400  146.1130 C   0  0  0  0  0  0  0  0  0  0  0  0
  187.8280  176.8510  144.1860 C   0  0  0  0  0  2  0  0  0  0  0  0
  184.9400  179.0280  146.5620 C   0  0  0  0  0  3  0  0  0  0  0  0
  191.7970  176.4280  145.8240 C   0  0  0  0  0  3  0  0  0  0  0  0
  188.3820  177.5400  146.9730 C   0  0  0  0  0  0  0  0  0  0  0  0
  190.7520  176.8580  146.6410 C   0  0  0  0  0  3  0  0  0  0  0  0
  182.0180  179.3360  142.7710 F   0  0  0  0  0  0  0  0  0  0  0  0
  184.1210  178.2450  142.5250 C   0  0  0  0  0  3  0  0  0  0  0  0
  187.0980  177.9330  146.3650 C   0  0  0  0  0  0  0  0  0  0  0  0
  191.5680  176.1910  144.4690 C   0  0  0  0  0  3  0  0  0  0  0  0
  189.2290  176.7910  144.7450 C   0  0  0  0  0  0  0  0  0  0  0  0
  190.0930  176.1170  142.4570 C   0  0  0  0  0  2  0  0  0  0  0  0
  190.5010  177.5600  141.4340 S   0  0  2  0  0  0  0  0  0  0  0  0
  190.3750  178.7450  142.3860 O   0  0  0  0  0  0  0  0  0  0  0  0
  189.0380  176.7840  139.1090 C   0  0  1  0  0  3  0  0  0  0  0  0
  187.8210  178.2390  140.7310 C   0  0  0  0  0  1  0  0  0  0  0  0
  189.1550  177.7420  140.2190 C   0  0  1  0  0  0  0  0  0  0  0  0
  189.6490  178.4580  138.6040 S   0  0  0  0  0  0  0  0  0  0  0  0
  190.0960  175.8730  139.0770 O   0  0  0  0  0  1  0  0  0  0  0  0
  1 19  2  0  0  0  0
  1 20  1  0  0  0  0
  2  7  1  0  0  0  0
  4 12  1  0  0  0  0
  5 18  2  0  0  0  0
  6  9  2  0  0  0  0
  7  5  1  0  0  0  0
  7  4  2  0  0  0  0
  9  4  1  0  0  0  0
 10 15  1  0  0  0  0
 10 14  1  0  0  0  0
 11 20  1  0  0  0  0
 11  5  1  0  0  0  0
 12  8  2  0  0  0  0
 13 15  2  0  0  0  0
 14  3  2  0  0  0  0
 16  6  1  0  0  0  0
 17  2  2  0  0  0  0
 17  6  1  0  0  0  0
 18 14  1  0  0  0  0
 18  8  1  0  0  0  0
 19 13  1  0  0  0  0
 20 10  2  0  0  0  0
 21  1  1  0  0  0  0
 22 23  2  1  0  0  0
 22 21  1  0  0  0  0
 24 28  1  1  0  0  0
 24 26  1  0  0  0  0
 26 25  1  1  0  0  0
 26 22  1  0  0  0  0
 27 24  1  0  0  0  0
 27 26  1  0  0  0  0
M  END
>  <MODEL>
1

>  <REMARK>
 VINA RESULT:     -11.0      0.000      0.000
  Name = 
  3 active torsions:
  status: ('A' for Active; 'I' for Inactive)
    1  A    between atoms: C_1  and  C_2
    2  A    between atoms: C_2  and  S_3
    3  A    between atoms: S_3  and  C_11
                            x       y       z     vdW  Elec       q    Type
                         _______ _______ _______ _____ _____    ______ ____

>  <TORSDO>
F 3

$$$$
=
 OpenBabel11052413283D

 28 32  0  0  1  0  0  0  0  0999 V2000
  190.1180  176.4670  143.3490 C   0  0  0  0  0  0  0  0  0  0  0  0
  185.0860  177.8760  143.0070 C   0  0  0  0  0  3  0  0  0  0  0  0
  188.7920  177.6730  147.8090 O   0  0  0  0  0  0  0  0  0  0  0  0
  184.6300  178.7830  145.2140 C   0  0  0  0  0  0  0  0  0  0  0  0
  186.7800  177.7030  144.7740 C   0  0  0  0  0  0  0  0  0  0  0  0
  182.9670  178.9550  143.4610 C   0  0  0  0  0  0  0  0  0  0  0  0
  185.5070  178.1160  144.3250 C   0  0  0  0  0  0  0  0  0  0  0  0
  186.2710  178.6100  146.9780 C   0  0  0  0  0  3  0  0  0  0  0  0
  183.3700  179.1980  144.7770 C   0  0  0  0  0  3  0  0  0  0  0  0
  189.4980  177.0880  145.6210 C   0  0  0  0  0  0  0  0  0  0  0  0
  187.6840  176.9130  143.8560 C   0  0  0  0  0  2  0  0  0  0  0  0
  185.0170  179.0220  146.5320 C   0  0  0  0  0  3  0  0  0  0  0  0
  191.7940  176.5040  145.1020 C   0  0  0  0  0  3  0  0  0  0  0  0
  188.4950  177.5630  146.5880 C   0  0  0  0  0  0  0  0  0  0  0  0
  190.8280  176.9100  146.0210 C   0  0  0  0  0  3  0  0  0  0  0  0
  181.7440  179.3590  143.0420 F   0  0  0  0  0  0  0  0  0  0  0  0
  183.8240  178.2940  142.5780 C   0  0  0  0  0  3  0  0  0  0  0  0
  187.1550  177.9520  146.1120 C   0  0  0  0  0  0  0  0  0  0  0  0
  191.4400  176.2860  143.7710 C   0  0  0  0  0  3  0  0  0  0  0  0
  189.1320  176.8580  144.2780 C   0  0  0  0  0  0  0  0  0  0  0  0
  189.7800  176.2280  141.9070 C   0  0  0  0  0  2  0  0  0  0  0  0
  189.7530  177.7630  140.9390 S   0  0  2  0  0  0  0  0  0  0  0  0
  188.3100  178.2450  141.0350 O   0  0  0  0  0  0  0  0  0  0  0  0
  189.6520  178.2310  138.1240 C   0  0  1  0  0  3  0  0  0  0  0  0
  191.2330  176.4530  138.8810 C   0  0  0  0  0  1  0  0  0  0  0  0
  190.0140  177.2920  139.1970 C   0  0  1  0  0  0  0  0  0  0  0  0
  188.5030  176.7870  138.2870 S   0  0  0  0  0  0  0  0  0  0  0  0
  189.0260  179.3800  138.6100 O   0  0  0  0  0  1  0  0  0  0  0  0
  1 19  2  0  0  0  0
  1 20  1  0  0  0  0
  2  7  1  0  0  0  0
  4 12  1  0  0  0  0
  5 18  2  0  0  0  0
  6  9  2  0  0  0  0
  7  5  1  0  0  0  0
  7  4  2  0  0  0  0
  9  4  1  0  0  0  0
 10 15  1  0  0  0  0
 10 14  1  0  0  0  0
 11 20  1  0  0  0  0
 11  5  1  0  0  0  0
 12  8  2  0  0  0  0
 13 15  2  0  0  0  0
 14  3  2  0  0  0  0
 16  6  1  0  0  0  0
 17  2  2  0  0  0  0
 17  6  1  0  0  0  0
 18 14  1  0  0  0  0
 18  8  1  0  0  0  0
 19 13  1  0  0  0  0
 20 10  2  0  0  0  0
 21  1  1  0  0  0  0
 22 23  2  6  0  0  0
 22 21  1  0  0  0  0
 24 27  1  0  0  0  0
 24 28  1  1  0  0  0
 24 26  1  0  0  0  0
 26 25  1  6  0  0  0
 26 22  1  0  0  0  0
 27 26  1  0  0  0  0
M  END
>  <MODEL>
2

>  <REMARK>
 VINA RESULT:     -10.9      1.182      1.370
  Name = 
  3 active torsions:
  status: ('A' for Active; 'I' for Inactive)
    1  A    between atoms: C_1  and  C_2
    2  A    between atoms: C_2  and  S_3
    3  A    between atoms: S_3  and  C_11
                            x       y       z     vdW  Elec       q    Type
                         _______ _______ _______ _____ _____    ______ ____

>  <TORSDO>
F 3

$$$$
=
 OpenBabel11052413283D

 28 32  0  0  1  0  0  0  0  0999 V2000
  189.9040  177.4670  142.4120 C   0  0  0  0  0  0  0  0  0  0  0  0
  184.7510  178.3670  142.6470 C   0  0  0  0  0  3  0  0  0  0  0  0
  188.7670  177.3460  147.0810 O   0  0  0  0  0  0  0  0  0  0  0  0
  184.3580  178.6270  145.0300 C   0  0  0  0  0  0  0  0  0  0  0  0
  186.5660  177.9320  144.2400 C   0  0  0  0  0  0  0  0  0  0  0  0
  182.5740  179.0610  143.4500 C   0  0  0  0  0  0  0  0  0  0  0  0
  185.2330  178.3070  143.9640 C   0  0  0  0  0  0  0  0  0  0  0  0
  186.1210  178.1870  146.6220 C   0  0  0  0  0  3  0  0  0  0  0  0
  183.0380  179.0010  144.7660 C   0  0  0  0  0  3  0  0  0  0  0  0
  189.3790  177.4180  144.7900 C   0  0  0  0  0  0  0  0  0  0  0  0
  187.4770  177.5040  143.1130 C   0  0  0  0  0  2  0  0  0  0  0  0
  184.8060  178.5620  146.3490 C   0  0  0  0  0  3  0  0  0  0  0  0
  191.6810  177.2360  144.0470 C   0  0  0  0  0  3  0  0  0  0  0  0
  188.4020  177.5200  145.8860 C   0  0  0  0  0  0  0  0  0  0  0  0
  190.7440  177.2870  145.0770 C   0  0  0  0  0  3  0  0  0  0  0  0
  181.2940  179.4240  143.1980 F   0  0  0  0  0  0  0  0  0  0  0  0
  183.4290  178.7430  142.3920 C   0  0  0  0  0  3  0  0  0  0  0  0
  187.0030  177.8710  145.5810 C   0  0  0  0  0  0  0  0  0  0  0  0
  191.2620  177.3270  142.7200 C   0  0  0  0  0  3  0  0  0  0  0  0
  188.9490  177.5000  143.4490 C   0  0  0  0  0  0  0  0  0  0  0  0
  189.4960  177.5690  140.9720 C   0  0  0  0  0  2  0  0  0  0  0  0
  190.5560  176.5780  139.8810 S   0  0  2  0  0  0  0  0  0  0  0  0
  191.7410  177.4890  139.5760 O   0  0  0  0  0  0  0  0  0  0  0  0
  189.9040  175.1970  137.4690 C   0  0  1  0  0  3  0  0  0  0  0  0
  188.2200  176.8580  138.2670 C   0  0  0  0  0  1  0  0  0  0  0  0
  189.6540  176.3780  138.3100 C   0  0  1  0  0  0  0  0  0  0  0  0
  190.6180  176.7690  136.7980 S   0  0  0  0  0  0  0  0  0  0  0  0
  190.9320  174.3950  137.9690 O   0  0  0  0  0  1  0  0  0  0  0  0
  1 19  2  0  0  0  0
  1 20  1  0  0  0  0
  2  7  1  0  0  0  0
  4 12  1  0  0  0  0
  5 18  2  0  0  0  0
  6  9  2  0  0  0  0
  7  5  1  0  0  0  0
  7  4  2  0  0  0  0
  9  4  1  0  0  0  0
 10 15  1  0  0  0  0
 10 14  1  0  0  0  0
 11 20  1  0  0  0  0
 11  5  1  0  0  0  0
 12  8  2  0  0  0  0
 13 15  2  0  0  0  0
 14  3  2  0  0  0  0
 16  6  1  0  0  0  0
 17  2  2  0  0  0  0
 17  6  1  0  0  0  0
 18 14  1  0  0  0  0
 18  8  1  0  0  0  0
 19 13  1  0  0  0  0
 20 10  2  0  0  0  0
 21  1  1  0  0  0  0
 22 23  2  6  0  0  0
 22 21  1  0  0  0  0
 24 28  1  1  0  0  0
 24 26  1  0  0  0  0
 26 25  1  1  0  0  0
 26 22  1  0  0  0  0
 27 24  1  0  0  0  0
 27 26  1  0  0  0  0
M  END
>  <MODEL>
3

>  <REMARK>
 VINA RESULT:     -10.6      1.358      1.679
  Name = 
  3 active torsions:
  status: ('A' for Active; 'I' for Inactive)
    1  A    between atoms: C_1  and  C_2
    2  A    between atoms: C_2  and  S_3
    3  A    between atoms: S_3  and  C_11
                            x       y       z     vdW  Elec       q    Type
                         _______ _______ _______ _____ _____    ______ ____

>  <TORSDO>
F 3

$$$$
=
 OpenBabel11052413283D

 28 32  0  0  1  0  0  0  0  0999 V2000
  189.8160  177.4890  140.9090 C   0  0  0  0  0  0  0  0  0  0  0  0
  185.1380  178.2510  143.1340 C   0  0  0  0  0  3  0  0  0  0  0  0
  190.4950  176.8660  145.6270 O   0  0  0  0  0  0  0  0  0  0  0  0
  185.6640  178.2560  145.5050 C   0  0  0  0  0  0  0  0  0  0  0  0
  187.4070  177.6930  143.8840 C   0  0  0  0  0  0  0  0  0  0  0  0
  183.4290  178.8120  144.7550 C   0  0  0  0  0  0  0  0  0  0  0  0
  186.0750  178.0660  144.1640 C   0  0  0  0  0  0  0  0  0  0  0  0
  187.8840  177.6930  146.2740 C   0  0  0  0  0  3  0  0  0  0  0  0
  184.3480  178.6280  145.7910 C   0  0  0  0  0  3  0  0  0  0  0  0
  190.2130  177.1840  143.2920 C   0  0  0  0  0  0  0  0  0  0  0  0
  187.8260  177.4020  142.4610 C   0  0  0  0  0  2  0  0  0  0  0  0
  186.5700  178.0660  146.5490 C   0  0  0  0  0  3  0  0  0  0  0  0
  192.0700  177.1290  141.7330 C   0  0  0  0  0  3  0  0  0  0  0  0
  189.7150  177.1530  144.6780 C   0  0  0  0  0  0  0  0  0  0  0  0
  191.5840  177.0540  143.0370 C   0  0  0  0  0  3  0  0  0  0  0  0
  182.1550  179.1720  145.0360 F   0  0  0  0  0  0  0  0  0  0  0  0
  183.8240  178.6220  143.4280 C   0  0  0  0  0  3  0  0  0  0  0  0
  188.3100  177.5040  144.9520 C   0  0  0  0  0  0  0  0  0  0  0  0
  191.1880  177.3470  140.6740 C   0  0  0  0  0  3  0  0  0  0  0  0
  189.3160  177.3940  142.2240 C   0  0  0  0  0  0  0  0  0  0  0  0
  188.9040  177.7290  139.7430 C   0  0  0  0  0  2  0  0  0  0  0  0
  189.7670  177.5980  138.1510 S   0  0  2  0  0  0  0  0  0  0  0  0
  189.3440  178.8490  137.3880 O   0  0  0  0  0  0  0  0  0  0  0  0
  189.6770  174.8720  137.3110 C   0  0  1  0  0  3  0  0  0  0  0  0
  187.5150  176.1170  137.2170 C   0  0  0  0  0  1  0  0  0  0  0  0
  189.0260  176.1900  137.2630 C   0  0  1  0  0  0  0  0  0  0  0  0
  189.8440  175.7410  135.6840 S   0  0  0  0  0  0  0  0  0  0  0  0
  190.8990  174.9050  137.9840 O   0  0  0  0  0  1  0  0  0  0  0  0
  1 20  1  0  0  0  0
  2 17  2  0  0  0  0
  2  7  1  0  0  0  0
  4  9  1  0  0  0  0
  4 12  1  0  0  0  0
  5  7  1  0  0  0  0
  5 18  2  0  0  0  0
  6 16  1  0  0  0  0
  6  9  2  0  0  0  0
  7  4  2  0  0  0  0
  8 12  2  0  0  0  0
 10 14  1  0  0  0  0
 11  5  1  0  0  0  0
 13 15  2  0  0  0  0
 14 18  1  0  0  0  0
 14  3  2  0  0  0  0
 15 10  1  0  0  0  0
 17  6  1  0  0  0  0
 18  8  1  0  0  0  0
 19  1  2  0  0  0  0
 19 13  1  0  0  0  0
 20 11  1  0  0  0  0
 20 10  2  0  0  0  0
 21  1  1  0  0  0  0
 22 23  2  6  0  0  0
 22 21  1  0  0  0  0
 24 28  1  1  0  0  0
 26 25  1  6  0  0  0
 26 24  1  0  0  0  0
 26 22  1  0  0  0  0
 27 26  1  0  0  0  0
 27 24  1  0  0  0  0
M  END
>  <MODEL>
4

>  <REMARK>
 VINA RESULT:     -10.3      1.819      2.823
  Name = 
  3 active torsions:
  status: ('A' for Active; 'I' for Inactive)
    1  A    between atoms: C_1  and  C_2
    2  A    between atoms: C_2  and  S_3
    3  A    between atoms: S_3  and  C_11
                            x       y       z     vdW  Elec       q    Type
                         _______ _______ _______ _____ _____    ______ ____

>  <TORSDO>
F 3

$$$$
=
 OpenBabel11052413283D

 28 32  0  0  1  0  0  0  0  0999 V2000
  183.7860  178.4110  142.3150 C   0  0  0  0  0  0  0  0  0  0  0  0
  188.8360  177.0870  142.7110 C   0  0  0  0  0  3  0  0  0  0  0  0
  184.9330  179.0030  146.9460 O   0  0  0  0  0  0  0  0  0  0  0  0
  189.2060  177.0880  145.1120 C   0  0  0  0  0  0  0  0  0  0  0  0
  187.0690  177.8770  144.2210 C   0  0  0  0  0  0  0  0  0  0  0  0
  190.9420  176.3040  143.6150 C   0  0  0  0  0  0  0  0  0  0  0  0
  188.3620  177.3520  144.0060 C   0  0  0  0  0  0  0  0  0  0  0  0
  187.4920  177.8770  146.6200 C   0  0  0  0  0  3  0  0  0  0  0  0
  190.4860  176.5670  144.9100 C   0  0  0  0  0  3  0  0  0  0  0  0
  184.3150  178.7060  144.6740 C   0  0  0  0  0  0  0  0  0  0  0  0
  186.1990  178.2430  143.0400 C   0  0  0  0  0  2  0  0  0  0  0  0
  188.7670  177.3550  146.4080 C   0  0  0  0  0  3  0  0  0  0  0  0
  182.0380  179.0010  143.8900 C   0  0  0  0  0  3  0  0  0  0  0  0
  185.2800  178.6510  145.7850 C   0  0  0  0  0  0  0  0  0  0  0  0
  182.9680  178.9920  144.9290 C   0  0  0  0  0  3  0  0  0  0  0  0
  192.1830  175.7990  143.4240 F   0  0  0  0  0  0  0  0  0  0  0  0
  190.1180  176.5660  142.5180 C   0  0  0  0  0  3  0  0  0  0  0  0
  186.6400  178.1410  145.5390 C   0  0  0  0  0  0  0  0  0  0  0  0
  182.4470  178.7100  142.5890 C   0  0  0  0  0  3  0  0  0  0  0  0
  184.7350  178.4210  143.3580 C   0  0  0  0  0  0  0  0  0  0  0  0
  184.1820  178.0970  140.9030 C   0  0  0  0  0  2  0  0  0  0  0  0
  182.7850  177.5020  139.9080 S   0  0  2  0  0  0  0  0  0  0  0  0
  183.4250  176.5950  138.8620 O   0  0  0  0  0  0  0  0  0  0  0  0
  180.7180  179.3170  139.1430 C   0  0  1  0  0  3  0  0  0  0  0  0
  183.0580  180.1250  138.8210 C   0  0  0  0  0  1  0  0  0  0  0  0
  182.1330  178.9410  138.9990 C   0  0  1  0  0  0  0  0  0  0  0  0
  181.1340  178.5420  137.5130 S   0  0  0  0  0  0  0  0  0  0  0  0
  180.0020  178.4060  139.9210 O   0  0  0  0  0  1  0  0  0  0  0  0
  1 19  2  0  0  0  0
  1 20  1  0  0  0  0
  2  7  1  0  0  0  0
  4 12  1  0  0  0  0
  5 18  2  0  0  0  0
  6  9  2  0  0  0  0
  7  5  1  0  0  0  0
  7  4  2  0  0  0  0
  9  4  1  0  0  0  0
 10 15  1  0  0  0  0
 10 14  1  0  0  0  0
 11 20  1  0  0  0  0
 11  5  1  0  0  0  0
 12  8  2  0  0  0  0
 13 15  2  0  0  0  0
 14  3  2  0  0  0  0
 16  6  1  0  0  0  0
 17  2  2  0  0  0  0
 17  6  1  0  0  0  0
 18 14  1  0  0  0  0
 18  8  1  0  0  0  0
 19 13  1  0  0  0  0
 20 10  2  0  0  0  0
 21  1  1  0  0  0  0
 22 23  2  6  0  0  0
 22 21  1  0  0  0  0
 24 28  1  1  0  0  0
 26 25  1  6  0  0  0
 26 24  1  0  0  0  0
 26 22  1  0  0  0  0
 27 26  1  0  0  0  0
 27 24  1  0  0  0  0
M  END
>  <MODEL>
5

>  <REMARK>
 VINA RESULT:     -10.2      4.163      6.709
  Name = 
  3 active torsions:
  status: ('A' for Active; 'I' for Inactive)
    1  A    between atoms: C_1  and  C_2
    2  A    between atoms: C_2  and  S_3
    3  A    between atoms: S_3  and  C_11
                            x       y       z     vdW  Elec       q    Type
                         _______ _______ _______ _____ _____    ______ ____

>  <TORSDO>
F 3

$$$$
=
 OpenBabel11052413283D

 28 32  0  0  1  0  0  0  0  0999 V2000
  185.9210  177.8760  142.7560 C   0  0  0  0  0  0  0  0  0  0  0  0
  190.3990  176.7120  145.2060 C   0  0  0  0  0  3  0  0  0  0  0  0
  185.3610  179.3800  147.2880 O   0  0  0  0  0  0  0  0  0  0  0  0
  189.8810  177.1890  147.5310 C   0  0  0  0  0  0  0  0  0  0  0  0
  188.2600  177.7630  145.7910 C   0  0  0  0  0  0  0  0  0  0  0  0
  191.9870  176.1460  146.9450 C   0  0  0  0  0  0  0  0  0  0  0  0
  189.5090  177.2210  146.1650 C   0  0  0  0  0  0  0  0  0  0  0  0
  187.7910  178.2410  148.1340 C   0  0  0  0  0  3  0  0  0  0  0  0
  191.1130  176.6530  147.9110 C   0  0  0  0  0  3  0  0  0  0  0  0
  185.5830  178.6340  145.0450 C   0  0  0  0  0  0  0  0  0  0  0  0
  187.8970  177.8800  144.3290 C   0  0  0  0  0  2  0  0  0  0  0  0
  189.0220  177.7010  148.5040 C   0  0  0  0  0  3  0  0  0  0  0  0
  183.7630  178.7450  143.4460 C   0  0  0  0  0  3  0  0  0  0  0  0
  186.0790  178.8110  146.4210 C   0  0  0  0  0  0  0  0  0  0  0  0
  184.2550  178.9510  144.7340 C   0  0  0  0  0  3  0  0  0  0  0  0
  193.1800  175.6260  147.3180 F   0  0  0  0  0  0  0  0  0  0  0  0
  191.6300  176.1770  145.5950 C   0  0  0  0  0  3  0  0  0  0  0  0
  187.4030  178.2770  146.7880 C   0  0  0  0  0  0  0  0  0  0  0  0
  184.5940  178.2080  142.4620 C   0  0  0  0  0  3  0  0  0  0  0  0
  186.4300  178.1010  144.0520 C   0  0  0  0  0  0  0  0  0  0  0  0
  186.7780  177.2950  141.6710 C   0  0  0  0  0  2  0  0  0  0  0  0
  187.4540  178.5670  140.5670 S   0  0  2  0  0  0  0  0  0  0  0  0
  186.4560  178.6380  139.4160 O   0  0  0  0  0  0  0  0  0  0  0  0
  189.5290  178.4460  138.6100 C   0  0  1  0  0  3  0  0  0  0  0  0
  190.0630  177.4450  140.8340 C   0  0  0  0  0  1  0  0  0  0  0  0
  188.9920  177.8900  139.8620 C   0  0  1  0  0  0  0  0  0  0  0  0
  188.7690  176.7660  138.4290 S   0  0  0  0  0  0  0  0  0  0  0  0
  188.6830  179.4020  138.0460 O   0  0  0  0  0  1  0  0  0  0  0  0
  1 20  1  0  0  0  0
  2 17  2  0  0  0  0
  2  7  1  0  0  0  0
  4  9  1  0  0  0  0
  4 12  1  0  0  0  0
  5  7  1  0  0  0  0
  5 18  2  0  0  0  0
  6 16  1  0  0  0  0
  6  9  2  0  0  0  0
  7  4  2  0  0  0  0
  8 12  2  0  0  0  0
 10 14  1  0  0  0  0
 11  5  1  0  0  0  0
 13 15  2  0  0  0  0
 14 18  1  0  0  0  0
 14  3  2  0  0  0  0
 15 10  1  0  0  0  0
 17  6  1  0  0  0  0
 18  8  1  0  0  0  0
 19  1  2  0  0  0  0
 19 13  1  0  0  0  0
 20 11  1  0  0  0  0
 20 10  2  0  0  0  0
 21  1  1  0  0  0  0
 22 23  2  6  0  0  0
 22 21  1  0  0  0  0
 24 28  1  6  0  0  0
 24 26  1  0  0  0  0
 26 22  1  0  0  0  0
 26 25  1  1  0  0  0
 27 24  1  0  0  0  0
 27 26  1  0  0  0  0
M  END
>  <MODEL>
6

>  <REMARK>
 VINA RESULT:     -10.1      2.985      5.510
  Name = 
  3 active torsions:
  status: ('A' for Active; 'I' for Inactive)
    1  A    between atoms: C_1  and  C_2
    2  A    between atoms: C_2  and  S_3
    3  A    between atoms: S_3  and  C_11
                            x       y       z     vdW  Elec       q    Type
                         _______ _______ _______ _____ _____    ______ ____

>  <TORSDO>
F 3

$$$$
=
 OpenBabel11052413283D

 28 32  0  0  1  0  0  0  0  0999 V2000
  187.3240  178.3670  140.6860 C   0  0  0  0  0  0  0  0  0  0  0  0
  187.3580  177.9590  145.9060 C   0  0  0  0  0  3  0  0  0  0  0  0
  191.6690  176.6610  141.8360 O   0  0  0  0  0  0  0  0  0  0  0  0
  189.6790  177.4300  146.3900 C   0  0  0  0  0  0  0  0  0  0  0  0
  188.9200  177.5140  144.0660 C   0  0  0  0  0  0  0  0  0  0  0  0
  188.1320  177.8770  148.1990 C   0  0  0  0  0  0  0  0  0  0  0  0
  188.6450  177.6360  145.4450 C   0  0  0  0  0  0  0  0  0  0  0  0
  191.2340  176.9690  144.5990 C   0  0  0  0  0  3  0  0  0  0  0  0
  189.4170  177.5520  147.7560 C   0  0  0  0  0  3  0  0  0  0  0  0
  189.5440  177.5220  141.2210 C   0  0  0  0  0  0  0  0  0  0  0  0
  187.8000  177.6460  143.0590 C   0  0  0  0  0  2  0  0  0  0  0  0
  190.9630  177.0950  145.9600 C   0  0  0  0  0  3  0  0  0  0  0  0
  188.9780  178.0910  138.9330 C   0  0  0  0  0  3  0  0  0  0  0  0
  190.5400  177.0800  142.2120 C   0  0  0  0  0  0  0  0  0  0  0  0
  189.9000  177.6300  139.8710 C   0  0  0  0  0  3  0  0  0  0  0  0
  187.8820  177.9950  149.5240 F   0  0  0  0  0  0  0  0  0  0  0  0
  187.1040  178.0790  147.2750 C   0  0  0  0  0  3  0  0  0  0  0  0
  190.2250  177.1740  143.6490 C   0  0  0  0  0  0  0  0  0  0  0  0
  187.6960  178.4590  139.3400 C   0  0  0  0  0  3  0  0  0  0  0  0
  188.2460  177.8820  141.6370 C   0  0  0  0  0  0  0  0  0  0  0  0
  185.9380  178.7790  141.0820 C   0  0  0  0  0  2  0  0  0  0  0  0
  184.7690  178.6990  139.6960 S   0  0  2  0  0  0  0  0  0  0  0  0
  184.6140  180.1490  139.2480 O   0  0  0  0  0  0  0  0  0  0  0  0
  182.5170  176.9630  139.9490 C   0  0  1  0  0  3  0  0  0  0  0  0
  182.9050  178.5340  141.8500 C   0  0  0  0  0  1  0  0  0  0  0  0
  183.1570  178.2100  140.3930 C   0  0  1  0  0  0  0  0  0  0  0  0
  181.7110  178.5000  139.3020 S   0  0  0  0  0  0  0  0  0  0  0  0
  183.2230  176.3390  138.9190 O   0  0  0  0  0  1  0  0  0  0  0  0
  1 21  1  0  0  0  0
  1 20  1  0  0  0  0
  2 17  1  0  0  0  0
  3 14  2  0  0  0  0
  4  9  2  0  0  0  0
  5  7  1  0  0  0  0
  6 16  1  0  0  0  0
  7  2  2  0  0  0  0
  7  4  1  0  0  0  0
  8 12  2  0  0  0  0
  9  6  1  0  0  0  0
 10 20  2  0  0  0  0
 10 14  1  0  0  0  0
 11  5  1  0  0  0  0
 12  4  1  0  0  0  0
 13 19  1  0  0  0  0
 13 15  2  0  0  0  0
 14 18  1  0  0  0  0
 15 10  1  0  0  0  0
 17  6  2  0  0  0  0
 18  5  2  0  0  0  0
 18  8  1  0  0  0  0
 19  1  2  0  0  0  0
 20 11  1  0  0  0  0
 22 23  2  1  0  0  0
 22 26  1  0  0  0  0
 22 21  1  0  0  0  0
 24 28  1  6  0  0  0
 24 26  1  0  0  0  0
 26 25  1  1  0  0  0
 27 24  1  0  0  0  0
 27 26  1  0  0  0  0
M  END
>  <MODEL>
7

>  <REMARK>
 VINA RESULT:     -10.0      3.332      5.903
  Name = 
  3 active torsions:
  status: ('A' for Active; 'I' for Inactive)
    1  A    between atoms: C_1  and  C_2
    2  A    between atoms: C_2  and  S_3
    3  A    between atoms: S_3  and  C_11
                            x       y       z     vdW  Elec       q    Type
                         _______ _______ _______ _____ _____    ______ ____

>  <TORSDO>
F 3

$$$$
=
 OpenBabel11052413283D

 28 32  0  0  1  0  0  0  0  0999 V2000
  187.1910  178.3650  140.8200 C   0  0  0  0  0  0  0  0  0  0  0  0
  190.5600  177.2740  144.6770 C   0  0  0  0  0  3  0  0  0  0  0  0
  184.6340  178.5710  144.8860 O   0  0  0  0  0  0  0  0  0  0  0  0
  189.1100  177.0650  146.6150 C   0  0  0  0  0  0  0  0  0  0  0  0
  188.1750  177.8230  144.4850 C   0  0  0  0  0  0  0  0  0  0  0  0
  191.4630  176.5190  146.7930 C   0  0  0  0  0  0  0  0  0  0  0  0
  189.2820  177.3890  145.2480 C   0  0  0  0  0  0  0  0  0  0  0  0
  186.7630  177.6160  146.4600 C   0  0  0  0  0  3  0  0  0  0  0  0
  190.1980  176.6330  147.3770 C   0  0  0  0  0  3  0  0  0  0  0  0
  185.8510  178.4600  142.8510 C   0  0  0  0  0  0  0  0  0  0  0  0
  188.3710  178.2540  143.0500 C   0  0  0  0  0  2  0  0  0  0  0  0
  187.8550  177.1840  147.2110 C   0  0  0  0  0  3  0  0  0  0  0  0
  184.7940  178.7100  140.6830 C   0  0  0  0  0  3  0  0  0  0  0  0
  185.7380  178.3510  144.3150 C   0  0  0  0  0  0  0  0  0  0  0  0
  184.7030  178.6510  142.0720 C   0  0  0  0  0  3  0  0  0  0  0  0
  192.5150  176.0990  147.5350 F   0  0  0  0  0  0  0  0  0  0  0  0
  191.6430  176.8410  145.4460 C   0  0  0  0  0  3  0  0  0  0  0  0
  186.9120  177.9380  145.1040 C   0  0  0  0  0  0  0  0  0  0  0  0
  186.0330  178.5660  140.0600 C   0  0  0  0  0  3  0  0  0  0  0  0
  187.1080  178.3250  142.2270 C   0  0  0  0  0  0  0  0  0  0  0  0
  188.5030  178.2090  140.1110 C   0  0  0  0  0  2  0  0  0  0  0  0
  188.4110  177.0240  138.7390 S   0  0  2  0  0  0  0  0  0  0  0  0
  189.7750  176.3410  138.7370 O   0  0  0  0  0  0  0  0  0  0  0  0
  187.1180  177.9610  136.3730 C   0  0  1  0  0  3  0  0  0  0  0  0
  189.0220  179.3480  137.2010 C   0  0  0  0  0  1  0  0  0  0  0  0
  188.3320  178.0010  137.2020 C   0  0  1  0  0  0  0  0  0  0  0  0
  188.5580  177.0450  135.6530 S   0  0  0  0  0  0  0  0  0  0  0  0
  186.1760  177.0480  136.8490 O   0  0  0  0  0  1  0  0  0  0  0  0
  1 20  1  0  0  0  0
  2  7  2  0  0  0  0
  2 17  1  0  0  0  0
  4 12  1  0  0  0  0
  4  9  2  0  0  0  0
  5 18  2  0  0  0  0
  5  7  1  0  0  0  0
  6  9  1  0  0  0  0
  6 16  1  0  0  0  0
  7  4  1  0  0  0  0
  8 12  2  0  0  0  0
 10 14  1  0  0  0  0
 11  5  1  0  0  0  0
 13 15  2  0  0  0  0
 14  3  2  0  0  0  0
 14 18  1  0  0  0  0
 15 10  1  0  0  0  0
 17  6  2  0  0  0  0
 18  8  1  0  0  0  0
 19 13  1  0  0  0  0
 19  1  2  0  0  0  0
 20 10  2  0  0  0  0
 20 11  1  0  0  0  0
 21  1  1  0  0  0  0
 22 23  2  6  0  0  0
 22 21  1  0  0  0  0
 24 28  1  1  0  0  0
 24 26  1  0  0  0  0
 26 25  1  1  0  0  0
 26 22  1  0  0  0  0
 27 24  1  0  0  0  0
 27 26  1  0  0  0  0
M  END
>  <MODEL>
8

>  <REMARK>
 VINA RESULT:      -9.9      3.045      5.551
  Name = 
  3 active torsions:
  status: ('A' for Active; 'I' for Inactive)
    1  A    between atoms: C_1  and  C_2
    2  A    between atoms: C_2  and  S_3
    3  A    between atoms: S_3  and  C_11
                            x       y       z     vdW  Elec       q    Type
                         _______ _______ _______ _____ _____    ______ ____

>  <TORSDO>
F 3

$$$$
=
 OpenBabel11052413283D

 28 32  0  0  1  0  0  0  0  0999 V2000
  183.7010  178.2530  141.7110 C   0  0  0  0  0  0  0  0  0  0  0  0
  188.6920  176.9130  142.5520 C   0  0  0  0  0  3  0  0  0  0  0  0
  184.5610  179.2500  146.3340 O   0  0  0  0  0  0  0  0  0  0  0  0
  188.9090  177.1280  144.9620 C   0  0  0  0  0  0  0  0  0  0  0  0
  186.8470  177.8560  143.8660 C   0  0  0  0  0  0  0  0  0  0  0  0
  190.7220  176.1920  143.6580 C   0  0  0  0  0  0  0  0  0  0  0  0
  188.1420  177.3000  143.7840 C   0  0  0  0  0  0  0  0  0  0  0  0
  187.1150  178.0700  146.2780 C   0  0  0  0  0  3  0  0  0  0  0  0
  190.1900  176.5760  144.8910 C   0  0  0  0  0  3  0  0  0  0  0  0
  184.0830  178.7540  144.0630 C   0  0  0  0  0  0  0  0  0  0  0  0
  186.0600  178.1230  142.6030 C   0  0  0  0  0  2  0  0  0  0  0  0
  188.3920  177.5170  146.1980 C   0  0  0  0  0  3  0  0  0  0  0  0
  181.8670  179.0030  143.1100 C   0  0  0  0  0  3  0  0  0  0  0  0
  184.9750  178.7900  145.2350 C   0  0  0  0  0  0  0  0  0  0  0  0
  182.7280  179.0780  144.2040 C   0  0  0  0  0  3  0  0  0  0  0  0
  191.9650  175.6570  143.5940 F   0  0  0  0  0  0  0  0  0  0  0  0
  189.9750  176.3610  142.4900 C   0  0  0  0  0  3  0  0  0  0  0  0
  186.3390  178.2450  145.1250 C   0  0  0  0  0  0  0  0  0  0  0  0
  182.3520  178.5900  141.8690 C   0  0  0  0  0  3  0  0  0  0  0  0
  184.5820  178.3460  142.8080 C   0  0  0  0  0  0  0  0  0  0  0  0
  184.1800  177.8070  140.3610 C   0  0  0  0  0  2  0  0  0  0  0  0
  185.3150  179.0030  139.6010 S   0  0  2  0  0  0  0  0  0  0  0  0
  184.4060  180.1170  139.0940 O   0  0  0  0  0  0  0  0  0  0  0  0
  187.3700  177.6460  138.1570 C   0  0  1  0  0  3  0  0  0  0  0  0
  185.0560  177.4090  137.2490 C   0  0  0  0  0  1  0  0  0  0  0  0
  186.0090  178.2020  138.1180 C   0  0  1  0  0  0  0  0  0  0  0  0
  187.2170  179.2100  137.1750 S   0  0  0  0  0  0  0  0  0  0  0  0
  188.0210  177.9150  139.3620 O   0  0  0  0  0  1  0  0  0  0  0  0
  1 19  2  0  0  0  0
  1 20  1  0  0  0  0
  2  7  1  0  0  0  0
  4 12  1  0  0  0  0
  5 18  2  0  0  0  0
  6  9  2  0  0  0  0
  7  5  1  0  0  0  0
  7  4  2  0  0  0  0
  9  4  1  0  0  0  0
 10 15  1  0  0  0  0
 10 14  1  0  0  0  0
 11 20  1  0  0  0  0
 11  5  1  0  0  0  0
 12  8  2  0  0  0  0
 13 15  2  0  0  0  0
 14  3  2  0  0  0  0
 16  6  1  0  0  0  0
 17  2  2  0  0  0  0
 17  6  1  0  0  0  0
 18 14  1  0  0  0  0
 18  8  1  0  0  0  0
 19 13  1  0  0  0  0
 20 10  2  0  0  0  0
 21  1  1  0  0  0  0
 22 23  2  6  0  0  0
 22 21  1  0  0  0  0
 24 28  1  1  0  0  0
 26 25  1  6  0  0  0
 26 24  1  0  0  0  0
 26 22  1  0  0  0  0
 27 26  1  0  0  0  0
 27 24  1  0  0  0  0
M  END
>  <MODEL>
9

>  <REMARK>
 VINA RESULT:      -9.8      3.137      5.836
  Name = 
  3 active torsions:
  status: ('A' for Active; 'I' for Inactive)
    1  A    between atoms: C_1  and  C_2
    2  A    between atoms: C_2  and  S_3
    3  A    between atoms: S_3  and  C_11
                            x       y       z     vdW  Elec       q    Type
                         _______ _______ _______ _____ _____    ______ ____

>  <TORSDO>
F 3

$$$$
