=
 OpenBabel11052415163D

 37 43  0  0  1  0  0  0  0  0999 V2000
  189.8160  177.7110  139.0570 C   0  0  0  0  0  2  0  0  0  0  0  0
  190.5080  177.5660  143.4420 C   0  0  0  0  0  0  0  0  0  0  0  0
  186.4050  177.7870  142.2240 C   0  0  1  0  0  3  0  0  0  0  0  0
  189.8690  177.1620  137.6160 C   0  0  2  0  0  3  0  0  0  0  0  0
  185.7720  177.4370  138.9820 O   0  0  0  0  0  0  0  0  0  0  0  0
  188.0850  177.4930  144.0380 C   0  0  0  0  0  0  0  0  0  0  0  0
  186.6500  178.6910  141.0080 C   0  0  2  0  0  3  0  0  0  0  0  0
  188.8320  176.0230  137.3660 C   0  0  1  0  0  3  0  0  0  0  0  0
  187.7820  177.6120  142.7500 C   0  0  0  0  0  0  0  0  0  0  0  0
  185.5980  178.5420  139.8590 C   0  0  2  0  0  3  0  0  0  0  0  0
  186.9810  177.4640  145.0200 C   0  0  0  0  0  3  0  0  0  0  0  0
  188.7490  178.0520  141.7990 C   0  0  0  0  0  0  0  0  0  0  0  0
  191.0230  176.1570  143.2180 C   0  0  0  0  0  1  0  0  0  0  0  0
  184.0850  178.5390  142.8800 C   0  0  0  0  0  2  0  0  0  0  0  0
  185.7610  177.8990  144.6500 C   0  0  0  0  0  3  0  0  0  0  0  0
  190.0450  178.1350  142.1110 C   0  0  0  0  0  3  0  0  0  0  0  0
  187.3650  176.4830  137.3590 C   0  0  0  0  0  2  0  0  0  0  0  0
  187.1060  177.3760  138.5460 C   0  0  1  0  0  3  0  0  0  0  0  0
  185.5540  178.5090  143.2770 C   0  0  1  0  0  3  0  0  0  0  0  0
  188.0960  178.6200  140.6670 N   0  0  0  0  0  0  0  0  0  0  0  0
  189.4390  177.5280  144.4160 O   0  0  0  0  0  0  0  0  0  0  0  0
  184.1380  178.5470  140.3600 C   0  0  1  0  0  3  0  0  0  0  0  0
  191.6400  178.4160  143.9780 C   0  0  0  0  0  1  0  0  0  0  0  0
  187.6780  178.6410  138.3330 O   0  0  0  0  0  0  0  0  0  0  0  0
  189.0880  175.3070  136.0490 C   0  0  0  0  0  1  0  0  0  0  0  0
  188.6810  178.7380  139.3100 C   0  0  2  0  0  3  0  0  0  0  0  0
  183.8730  179.3780  141.6200 C   0  0  0  0  0  2  0  0  0  0  0  0
  182.7960  178.0200  138.2860 C   0  0  0  0  0  3  0  0  0  0  0  0
  183.2010  178.9440  139.2630 C   0  0  0  0  0  0  0  0  0  0  0  0
  182.7180  180.2560  139.2180 C   0  0  0  0  0  3  0  0  0  0  0  0
  181.3260  182.0410  138.1610 C   0  0  0  0  0  1  0  0  0  0  0  0
  181.4350  179.7240  137.2330 C   0  0  0  0  0  3  0  0  0  0  0  0
  181.8370  180.6460  138.2050 C   0  0  0  0  0  0  0  0  0  0  0  0
  181.9150  178.4120  137.2740 C   0  0  0  0  0  3  0  0  0  0  0  0
  191.3100  176.7440  137.2840 C   0  0  0  0  0  2  0  0  0  0  0  0
  192.4370  174.5320  137.5930 C   0  0  0  0  0  1  0  0  0  0  0  0
  191.9050  175.7660  138.2940 C   0  0  0  0  0  2  0  0  0  0  0  0
  2 23  1  0  0  0  0
  2 21  1  0  0  0  0
  3  9  1  1  0  0  0
  3 19  1  0  0  0  0
  4 35  1  1  0  0  0
  4  1  1  0  0  0  0
  6 21  1  0  0  0  0
  6 11  1  0  0  0  0
  7 20  1  6  0  0  0
  7  3  1  0  0  0  0
  8 25  1  6  0  0  0
  8  4  1  0  0  0  0
  9  6  2  0  0  0  0
 10  5  1  1  0  0  0
 10 22  1  0  0  0  0
 10  7  1  0  0  0  0
 12 16  2  0  0  0  0
 12  9  1  0  0  0  0
 13  2  1  0  0  0  0
 15 11  2  0  0  0  0
 16  2  1  0  0  0  0
 17  8  1  0  0  0  0
 18 17  1  6  0  0  0
 18  5  1  0  0  0  0
 19 14  1  6  0  0  0
 19 15  1  0  0  0  0
 20 12  1  0  0  0  0
 22 29  1  6  0  0  0
 22 27  1  0  0  0  0
 24 18  1  0  0  0  0
 24 26  1  0  0  0  0
 26  1  1  6  0  0  0
 26 20  1  0  0  0  0
 27 14  1  0  0  0  0
 28 29  1  0  0  0  0
 30 29  2  0  0  0  0
 31 33  1  0  0  0  0
 32 34  1  0  0  0  0
 32 33  2  0  0  0  0
 33 30  1  0  0  0  0
 34 28  2  0  0  0  0
 35 37  1  0  0  0  0
 36 37  1  0  0  0  0
M  END
>  <MODEL>
1

>  <REMARK>
 VINA RESULT:      -9.1      0.000      0.000
  Name = 
  3 active torsions:
  status: ('A' for Active; 'I' for Inactive)
    1  A    between atoms: C_5  and  C_17
    2  A    between atoms: C_6  and  C_31
    3  A    between atoms: C_17  and  C_23
                            x       y       z     vdW  Elec       q    Type
                         _______ _______ _______ _____ _____    ______ ____

>  <TORSDO>
F 3

$$$$
=
 OpenBabel11052415163D

 37 43  0  0  1  0  0  0  0  0999 V2000
  186.9650  178.3860  139.1980 C   0  0  0  0  0  2  0  0  0  0  0  0
  189.8560  177.6660  142.4910 C   0  0  0  0  0  0  0  0  0  0  0  0
  185.7310  177.7840  143.6450 C   0  0  1  0  0  3  0  0  0  0  0  0
  186.2420  178.0520  137.8750 C   0  0  2  0  0  3  0  0  0  0  0  0
  183.4810  177.8570  141.2020 O   0  0  0  0  0  0  0  0  0  0  0  0
  188.1080  177.3490  144.2440 C   0  0  0  0  0  0  0  0  0  0  0  0
  185.3150  178.8670  142.6380 C   0  0  2  0  0  3  0  0  0  0  0  0
  185.2080  176.8930  138.0300 C   0  0  1  0  0  3  0  0  0  0  0  0
  187.1740  177.6290  143.3410 C   0  0  0  0  0  0  0  0  0  0  0  0
  183.8140  178.8120  142.2010 C   0  0  2  0  0  3  0  0  0  0  0  0
  187.6840  177.1070  145.6400 C   0  0  0  0  0  3  0  0  0  0  0  0
  187.5050  178.2630  142.1060 C   0  0  0  0  0  0  0  0  0  0  0  0
  190.1500  176.3400  141.8160 C   0  0  0  0  0  1  0  0  0  0  0  0
  184.1150  178.2810  145.5240 C   0  0  0  0  0  2  0  0  0  0  0  0
  186.4590  177.5080  146.0330 C   0  0  0  0  0  3  0  0  0  0  0  0
  188.7730  178.3870  141.7050 C   0  0  0  0  0  3  0  0  0  0  0  0
  183.9650  177.2510  138.8610 C   0  0  0  0  0  2  0  0  0  0  0  0
  184.3850  177.9470  140.1310 C   0  0  1  0  0  3  0  0  0  0  0  0
  185.5730  178.2920  145.0850 C   0  0  1  0  0  3  0  0  0  0  0  0
  186.3650  178.9410  141.5870 N   0  0  0  0  0  0  0  0  0  0  0  0
  189.4580  177.4200  143.8600 O   0  0  0  0  0  0  0  0  0  0  0  0
  182.8360  178.6490  143.3830 C   0  0  1  0  0  3  0  0  0  0  0  0
  191.1160  178.5050  142.4820 C   0  0  0  0  0  1  0  0  0  0  0  0
  184.7820  179.2650  139.8500 O   0  0  0  0  0  0  0  0  0  0  0  0
  184.7210  176.3900  136.6800 C   0  0  0  0  0  1  0  0  0  0  0  0
  186.1510  179.2880  140.1620 C   0  0  2  0  0  3  0  0  0  0  0  0
  183.2880  179.2730  144.7070 C   0  0  0  0  0  2  0  0  0  0  0  0
  180.3830  178.9750  143.8880 C   0  0  0  0  0  3  0  0  0  0  0  0
  181.4700  179.1350  143.0140 C   0  0  0  0  0  0  0  0  0  0  0  0
  181.2780  179.7650  141.7800 C   0  0  0  0  0  3  0  0  0  0  0  0
  179.8130  180.9020  140.1070 C   0  0  0  0  0  1  0  0  0  0  0  0
  178.9310  180.0710  142.2910 C   0  0  0  0  0  3  0  0  0  0  0  0
  180.0120  180.2320  141.4180 C   0  0  0  0  0  0  0  0  0  0  0  0
  179.1160  179.4420  143.5250 C   0  0  0  0  0  3  0  0  0  0  0  0
  187.2850  177.7820  136.7800 C   0  0  0  0  0  2  0  0  0  0  0  0
  189.7230  177.3150  137.0920 C   0  0  0  0  0  1  0  0  0  0  0  0
  188.6530  178.3880  137.0830 C   0  0  0  0  0  2  0  0  0  0  0  0
  2 21  1  0  0  0  0
  3  9  1  6  0  0  0
  3 19  1  0  0  0  0
  4 35  1  6  0  0  0
  4  8  1  0  0  0  0
  4  1  1  0  0  0  0
  6 11  1  0  0  0  0
  7 20  1  6  0  0  0
  7  3  1  0  0  0  0
  8 25  1  6  0  0  0
  8 17  1  0  0  0  0
  9  6  2  0  0  0  0
 10  5  1  6  0  0  0
 10  7  1  0  0  0  0
 10 22  1  0  0  0  0
 11 15  2  0  0  0  0
 12  9  1  0  0  0  0
 13  2  1  0  0  0  0
 16 12  2  0  0  0  0
 16  2  1  0  0  0  0
 18 17  1  6  0  0  0
 18  5  1  0  0  0  0
 19 14  1  1  0  0  0
 19 15  1  0  0  0  0
 20 12  1  0  0  0  0
 21  6  1  0  0  0  0
 22 29  1  6  0  0  0
 22 27  1  0  0  0  0
 23  2  1  0  0  0  0
 24 18  1  0  0  0  0
 24 26  1  0  0  0  0
 26  1  1  6  0  0  0
 26 20  1  0  0  0  0
 27 14  1  0  0  0  0
 29 28  2  0  0  0  0
 30 29  1  0  0  0  0
 31 33  1  0  0  0  0
 32 34  2  0  0  0  0
 33 30  2  0  0  0  0
 33 32  1  0  0  0  0
 34 28  1  0  0  0  0
 35 37  1  0  0  0  0
 37 36  1  0  0  0  0
M  END
>  <MODEL>
2

>  <REMARK>
 VINA RESULT:      -8.8      2.098      3.262
  Name = 
  3 active torsions:
  status: ('A' for Active; 'I' for Inactive)
    1  A    between atoms: C_5  and  C_17
    2  A    between atoms: C_6  and  C_31
    3  A    between atoms: C_17  and  C_23
                            x       y       z     vdW  Elec       q    Type
                         _______ _______ _______ _____ _____    ______ ____

>  <TORSDO>
F 3

$$$$
=
 OpenBabel11052415163D

 37 43  0  0  1  0  0  0  0  0999 V2000
  184.4840  178.8150  138.7710 C   0  0  0  0  0  2  0  0  0  0  0  0
  188.1240  177.6810  136.4930 C   0  0  0  0  0  0  0  0  0  0  0  0
  188.3430  177.1050  140.7340 C   0  0  1  0  0  3  0  0  0  0  0  0
  182.9960  178.7130  139.1680 C   0  0  2  0  0  3  0  0  0  0  0  0
  185.5290  177.4890  142.4570 O   0  0  0  0  0  0  0  0  0  0  0  0
  189.3520  176.7980  138.4790 C   0  0  0  0  0  0  0  0  0  0  0  0
  187.5040  178.3370  141.1050 C   0  0  2  0  0  3  0  0  0  0  0  0
  182.6870  177.4480  140.0280 C   0  0  1  0  0  3  0  0  0  0  0  0
  188.3390  177.1740  139.2520 C   0  0  0  0  0  0  0  0  0  0  0  0
  186.7450  178.2250  142.4680 C   0  0  2  0  0  3  0  0  0  0  0  0
  190.5440  176.2060  139.1220 C   0  0  0  0  0  3  0  0  0  0  0  0
  187.3580  178.1000  138.7890 C   0  0  0  0  0  0  0  0  0  0  0  0
  187.2820  176.5790  135.8800 C   0  0  0  0  0  1  0  0  0  0  0  0
  189.8800  176.9960  142.7360 C   0  0  0  0  0  2  0  0  0  0  0  0
  190.7300  176.3780  140.4450 C   0  0  0  0  0  3  0  0  0  0  0  0
  187.2780  178.4430  137.5000 C   0  0  0  0  0  3  0  0  0  0  0  0
  183.2790  177.4770  141.4470 C   0  0  0  0  0  2  0  0  0  0  0  0
  184.7220  177.9110  141.3870 C   0  0  1  0  0  3  0  0  0  0  0  0
  189.7840  177.2570  141.2390 C   0  0  1  0  0  3  0  0  0  0  0  0
  186.7440  178.7550  139.8950 N   0  0  0  0  0  0  0  0  0  0  0  0
  189.2950  177.0940  137.1060 O   0  0  0  0  0  0  0  0  0  0  0  0
  187.6270  177.6990  143.6200 C   0  0  1  0  0  3  0  0  0  0  0  0
  188.5580  178.6280  135.3950 C   0  0  0  0  0  1  0  0  0  0  0  0
  184.8020  179.2930  141.1450 O   0  0  0  0  0  0  0  0  0  0  0  0
  181.1920  177.2120  140.1660 C   0  0  0  0  0  1  0  0  0  0  0  0
  185.4050  179.3890  139.8810 C   0  0  2  0  0  3  0  0  0  0  0  0
  189.1140  178.0540  143.5290 C   0  0  0  0  0  2  0  0  0  0  0  0
  185.8070  178.7160  145.0460 C   0  0  0  0  0  3  0  0  0  0  0  0
  187.0700  178.1100  144.9460 C   0  0  0  0  0  0  0  0  0  0  0  0
  187.8180  177.8780  146.1050 C   0  0  0  0  0  3  0  0  0  0  0  0
  188.1120  178.0000  148.5830 C   0  0  0  0  0  1  0  0  0  0  0  0
  186.0560  178.8520  147.4500 C   0  0  0  0  0  3  0  0  0  0  0  0
  187.3140  178.2490  147.3550 C   0  0  0  0  0  0  0  0  0  0  0  0
  185.3030  179.0860  146.2960 C   0  0  0  0  0  3  0  0  0  0  0  0
  182.1260  178.8060  137.9050 C   0  0  0  0  0  2  0  0  0  0  0  0
  181.2420  180.8230  139.0940 C   0  0  0  0  0  1  0  0  0  0  0  0
  181.4340  180.1580  137.7450 C   0  0  0  0  0  2  0  0  0  0  0  0
  1  4  1  0  0  0  0
  2 21  1  0  0  0  0
  2 16  1  0  0  0  0
  3  9  1  6  0  0  0
  3  7  1  0  0  0  0
  3 19  1  0  0  0  0
  4 35  1  6  0  0  0
  4  8  1  0  0  0  0
  6 11  1  0  0  0  0
  6  9  2  0  0  0  0
  7 20  1  6  0  0  0
  7 10  1  0  0  0  0
  8 25  1  1  0  0  0
  8 17  1  0  0  0  0
 10  5  1  6  0  0  0
 10 22  1  0  0  0  0
 11 15  2  0  0  0  0
 12  9  1  0  0  0  0
 12 20  1  0  0  0  0
 13  2  1  0  0  0  0
 14 27  1  0  0  0  0
 16 12  2  0  0  0  0
 18 17  1  1  0  0  0
 18  5  1  0  0  0  0
 19 15  1  6  0  0  0
 19 14  1  0  0  0  0
 21  6  1  0  0  0  0
 22 29  1  1  0  0  0
 23  2  1  0  0  0  0
 24 18  1  0  0  0  0
 26  1  1  6  0  0  0
 26 20  1  0  0  0  0
 26 24  1  0  0  0  0
 27 22  1  0  0  0  0
 28 34  1  0  0  0  0
 29 28  2  0  0  0  0
 29 30  1  0  0  0  0
 30 33  2  0  0  0  0
 33 32  1  0  0  0  0
 33 31  1  0  0  0  0
 34 32  2  0  0  0  0
 37 35  1  0  0  0  0
 37 36  1  0  0  0  0
M  END
>  <MODEL>
3

>  <REMARK>
 VINA RESULT:      -7.9      1.816      7.260
  Name = 
  3 active torsions:
  status: ('A' for Active; 'I' for Inactive)
    1  A    between atoms: C_5  and  C_17
    2  A    between atoms: C_6  and  C_31
    3  A    between atoms: C_17  and  C_23
                            x       y       z     vdW  Elec       q    Type
                         _______ _______ _______ _____ _____    ______ ____

>  <TORSDO>
F 3

$$$$
=
 OpenBabel11052415163D

 37 43  0  0  1  0  0  0  0  0999 V2000
  185.5270  179.0280  142.3510 C   0  0  0  0  0  2  0  0  0  0  0  0
  182.4830  178.8500  139.1220 C   0  0  0  0  0  0  0  0  0  0  0  0
  186.3080  177.1780  138.1520 C   0  0  1  0  0  3  0  0  0  0  0  0
  186.1070  178.7010  143.7440 C   0  0  2  0  0  3  0  0  0  0  0  0
  188.4870  176.8530  140.6370 O   0  0  0  0  0  0  0  0  0  0  0  0
  183.9270  177.5710  137.5380 C   0  0  0  0  0  0  0  0  0  0  0  0
  187.1330  178.1920  138.9580 C   0  0  2  0  0  3  0  0  0  0  0  0
  186.6190  177.2300  143.8530 C   0  0  1  0  0  3  0  0  0  0  0  0
  184.9230  177.6410  138.4150 C   0  0  0  0  0  0  0  0  0  0  0  0
  188.5130  177.6570  139.4650 C   0  0  2  0  0  3  0  0  0  0  0  0
  184.1860  176.9290  136.2320 C   0  0  0  0  0  3  0  0  0  0  0  0
  184.8950  178.5730  139.4940 C   0  0  0  0  0  0  0  0  0  0  0  0
  181.7270  177.8870  140.0180 C   0  0  0  0  0  1  0  0  0  0  0  0
  187.9340  176.6630  136.2880 C   0  0  0  0  0  2  0  0  0  0  0  0
  185.4580  176.7540  135.8260 C   0  0  0  0  0  3  0  0  0  0  0  0
  183.7810  179.2410  139.8090 C   0  0  0  0  0  3  0  0  0  0  0  0
  187.8790  176.9270  143.0260 C   0  0  0  0  0  2  0  0  0  0  0  0
  187.7170  177.4790  141.6320 C   0  0  1  0  0  3  0  0  0  0  0  0
  186.6030  177.3080  136.6520 C   0  0  1  0  0  3  0  0  0  0  0  0
  186.2210  178.8540  139.9300 N   0  0  0  0  0  0  0  0  0  0  0  0
  182.7170  178.2180  137.8420 O   0  0  0  0  0  0  0  0  0  0  0  0
  189.3200  176.9150  138.3780 C   0  0  1  0  0  3  0  0  0  0  0  0
  181.6370  180.0880  138.9200 C   0  0  0  0  0  1  0  0  0  0  0  0
  187.8590  178.8760  141.6450 O   0  0  0  0  0  0  0  0  0  0  0  0
  186.9180  176.8440  145.2930 C   0  0  0  0  0  1  0  0  0  0  0  0
  186.5940  179.3560  141.2740 C   0  0  2  0  0  3  0  0  0  0  0  0
  189.1000  177.4040  136.9430 C   0  0  0  0  0  2  0  0  0  0  0  0
  191.2510  177.4710  139.9090 C   0  0  0  0  0  3  0  0  0  0  0  0
  190.7780  176.9090  138.7120 C   0  0  0  0  0  0  0  0  0  0  0  0
  191.6820  176.3240  137.8190 C   0  0  0  0  0  3  0  0  0  0  0  0
  194.0040  175.6790  137.1620 C   0  0  0  0  0  1  0  0  0  0  0  0
  193.5150  176.8630  139.3060 C   0  0  0  0  0  3  0  0  0  0  0  0
  193.0480  176.3020  138.1140 C   0  0  0  0  0  0  0  0  0  0  0  0
  192.6170  177.4480  140.2030 C   0  0  0  0  0  3  0  0  0  0  0  0
  185.0730  179.0570  144.8220 C   0  0  0  0  0  2  0  0  0  0  0  0
  182.6430  178.7290  144.3220 C   0  0  0  0  0  1  0  0  0  0  0  0
  183.8070  179.6980  144.2590 C   0  0  0  0  0  2  0  0  0  0  0  0
  1  4  1  0  0  0  0
  2 16  1  0  0  0  0
  2 13  1  0  0  0  0
  3  9  1  6  0  0  0
  3  7  1  0  0  0  0
  4  8  1  0  0  0  0
  4 35  1  1  0  0  0
  5 18  1  0  0  0  0
  6 21  1  0  0  0  0
  6  9  2  0  0  0  0
  7 10  1  0  0  0  0
  7 20  1  1  0  0  0
  8 25  1  1  0  0  0
  9 12  1  0  0  0  0
 10  5  1  1  0  0  0
 11  6  1  0  0  0  0
 12 16  2  0  0  0  0
 12 20  1  0  0  0  0
 14 19  1  0  0  0  0
 14 27  1  0  0  0  0
 15 11  2  0  0  0  0
 17  8  1  0  0  0  0
 18 24  1  0  0  0  0
 18 17  1  1  0  0  0
 19 15  1  6  0  0  0
 19  3  1  0  0  0  0
 20 26  1  0  0  0  0
 21  2  1  0  0  0  0
 22 29  1  1  0  0  0
 22 10  1  0  0  0  0
 23  2  1  0  0  0  0
 26 24  1  0  0  0  0
 26  1  1  1  0  0  0
 27 22  1  0  0  0  0
 28 34  1  0  0  0  0
 29 28  2  0  0  0  0
 30 33  2  0  0  0  0
 30 29  1  0  0  0  0
 31 33  1  0  0  0  0
 32 34  2  0  0  0  0
 33 32  1  0  0  0  0
 37 36  1  0  0  0  0
 37 35  1  0  0  0  0
M  END
>  <MODEL>
4

>  <REMARK>
 VINA RESULT:      -7.8      1.829      8.199
  Name = 
  3 active torsions:
  status: ('A' for Active; 'I' for Inactive)
    1  A    between atoms: C_5  and  C_17
    2  A    between atoms: C_6  and  C_31
    3  A    between atoms: C_17  and  C_23
                            x       y       z     vdW  Elec       q    Type
                         _______ _______ _______ _____ _____    ______ ____

>  <TORSDO>
F 3

$$$$
=
 OpenBabel11052415163D

 37 43  0  0  1  0  0  0  0  0999 V2000
  187.5970  177.4850  145.8920 C   0  0  0  0  0  2  0  0  0  0  0  0
  190.9760  176.9060  143.0680 C   0  0  0  0  0  0  0  0  0  0  0  0
  187.3720  178.4570  141.3450 C   0  0  1  0  0  3  0  0  0  0  0  0
  186.8880  178.1080  147.1130 C   0  0  2  0  0  3  0  0  0  0  0  0
  184.9570  179.3500  143.4450 O   0  0  0  0  0  0  0  0  0  0  0  0
  189.7810  177.8760  141.1030 C   0  0  0  0  0  0  0  0  0  0  0  0
  186.4120  177.6560  142.2370 C   0  0  2  0  0  3  0  0  0  0  0  0
  186.4460  179.5840  146.8660 C   0  0  1  0  0  3  0  0  0  0  0  0
  188.6940  178.0170  141.8540 C   0  0  0  0  0  0  0  0  0  0  0  0
  185.0160  178.3240  142.4620 C   0  0  2  0  0  3  0  0  0  0  0  0
  189.6980  178.2450  139.6740 C   0  0  0  0  0  3  0  0  0  0  0  0
  188.5560  177.3250  143.0950 C   0  0  0  0  0  0  0  0  0  0  0  0
  191.6810  178.0090  143.8350 C   0  0  0  0  0  1  0  0  0  0  0  0
  185.9850  178.6280  139.2400 C   0  0  0  0  0  2  0  0  0  0  0  0
  188.4880  178.3700  139.0960 C   0  0  0  0  0  3  0  0  0  0  0  0
  189.5920  176.7030  143.6640 C   0  0  0  0  0  3  0  0  0  0  0  0
  185.3000  179.7490  145.8540 C   0  0  0  0  0  2  0  0  0  0  0  0
  185.5810  178.9190  144.6270 C   0  0  1  0  0  3  0  0  0  0  0  0
  187.2330  178.0320  139.8770 C   0  0  1  0  0  3  0  0  0  0  0  0
  187.1770  177.1790  143.4210 N   0  0  0  0  0  0  0  0  0  0  0  0
  190.9150  177.2690  141.6690 O   0  0  0  0  0  0  0  0  0  0  0  0
  184.3700  178.8510  141.1630 C   0  0  1  0  0  3  0  0  0  0  0  0
  191.7720  175.6280  143.2180 C   0  0  0  0  0  1  0  0  0  0  0  0
  185.3650  177.5590  144.9030 O   0  0  0  0  0  0  0  0  0  0  0  0
  186.0140  180.2660  148.1540 C   0  0  0  0  0  1  0  0  0  0  0  0
  186.6360  176.9750  144.7850 C   0  0  2  0  0  3  0  0  0  0  0  0
  184.7180  178.0720  139.8900 C   0  0  0  0  0  2  0  0  0  0  0  0
  182.0680  179.2840  140.2200 C   0  0  0  0  0  3  0  0  0  0  0  0
  182.8870  178.9700  141.3160 C   0  0  0  0  0  0  0  0  0  0  0  0
  182.3100  178.7560  142.5720 C   0  0  0  0  0  3  0  0  0  0  0  0
  180.3170  178.6280  144.0720 C   0  0  0  0  0  1  0  0  0  0  0  0
  180.1120  179.1690  141.6430 C   0  0  0  0  0  3  0  0  0  0  0  0
  180.9250  178.8560  142.7360 C   0  0  0  0  0  0  0  0  0  0  0  0
  180.6830  179.3830  140.3850 C   0  0  0  0  0  3  0  0  0  0  0  0
  187.7800  177.9490  148.3540 C   0  0  0  0  0  2  0  0  0  0  0  0
  190.0470  177.1020  147.7190 C   0  0  0  0  0  1  0  0  0  0  0  0
  189.2380  178.3250  148.1040 C   0  0  0  0  0  2  0  0  0  0  0  0
  1  4  1  0  0  0  0
  2 23  1  0  0  0  0
  2 16  1  0  0  0  0
  2 13  1  0  0  0  0
  3  9  1  1  0  0  0
  3  7  1  0  0  0  0
  4 35  1  1  0  0  0
  5 18  1  0  0  0  0
  6 21  1  0  0  0  0
  6  9  2  0  0  0  0
  7 10  1  0  0  0  0
  7 20  1  1  0  0  0
  8  4  1  0  0  0  0
  8 25  1  1  0  0  0
  9 12  1  0  0  0  0
 10  5  1  1  0  0  0
 11  6  1  0  0  0  0
 12 20  1  0  0  0  0
 12 16  2  0  0  0  0
 14 19  1  0  0  0  0
 14 27  1  0  0  0  0
 15 11  2  0  0  0  0
 17  8  1  0  0  0  0
 18 24  1  0  0  0  0
 18 17  1  1  0  0  0
 19 15  1  6  0  0  0
 19  3  1  0  0  0  0
 20 26  1  0  0  0  0
 21  2  1  0  0  0  0
 22 29  1  1  0  0  0
 22 10  1  0  0  0  0
 26 24  1  0  0  0  0
 26  1  1  1  0  0  0
 27 22  1  0  0  0  0
 28 34  2  0  0  0  0
 28 29  1  0  0  0  0
 29 30  2  0  0  0  0
 30 33  1  0  0  0  0
 32 33  2  0  0  0  0
 33 31  1  0  0  0  0
 34 32  1  0  0  0  0
 36 37  1  0  0  0  0
 37 35  1  0  0  0  0
M  END
>  <MODEL>
5

>  <REMARK>
 VINA RESULT:      -7.8      2.439      6.041
  Name = 
  3 active torsions:
  status: ('A' for Active; 'I' for Inactive)
    1  A    between atoms: C_5  and  C_17
    2  A    between atoms: C_6  and  C_31
    3  A    between atoms: C_17  and  C_23
                            x       y       z     vdW  Elec       q    Type
                         _______ _______ _______ _____ _____    ______ ____

>  <TORSDO>
F 3

$$$$
=
 OpenBabel11052415163D

 37 43  0  0  1  0  0  0  0  0999 V2000
  187.5010  177.3090  145.7540 C   0  0  0  0  0  2  0  0  0  0  0  0
  191.3280  176.5000  143.6490 C   0  0  0  0  0  0  0  0  0  0  0  0
  188.2310  178.2410  141.2530 C   0  0  1  0  0  3  0  0  0  0  0  0
  186.6060  177.9870  146.8130 C   0  0  2  0  0  3  0  0  0  0  0  0
  185.5100  179.2990  142.8370 O   0  0  0  0  0  0  0  0  0  0  0  0
  190.6010  177.5160  141.4880 C   0  0  0  0  0  0  0  0  0  0  0  0
  187.0690  177.5080  141.9380 C   0  0  2  0  0  3  0  0  0  0  0  0
  186.3100  179.4830  146.4840 C   0  0  1  0  0  3  0  0  0  0  0  0
  189.3990  177.7290  142.0110 C   0  0  0  0  0  0  0  0  0  0  0  0
  185.6980  178.2600  141.8850 C   0  0  2  0  0  3  0  0  0  0  0  0
  190.8230  177.8720  140.0710 C   0  0  0  0  0  3  0  0  0  0  0  0
  188.9790  177.0610  143.2000 C   0  0  0  0  0  0  0  0  0  0  0  0
  191.9330  177.5680  144.5400 C   0  0  0  0  0  1  0  0  0  0  0  0
  187.2970  178.4690  138.9160 C   0  0  0  0  0  2  0  0  0  0  0  0
  189.7600  178.0620  139.2670 C   0  0  0  0  0  3  0  0  0  0  0  0
  189.8440  176.3860  143.9610 C   0  0  0  0  0  3  0  0  0  0  0  0
  185.3970  179.7040  145.2670 C   0  0  0  0  0  2  0  0  0  0  0  0
  185.8630  178.8450  144.1190 C   0  0  1  0  0  3  0  0  0  0  0  0
  188.3580  177.8080  139.7860 C   0  0  1  0  0  3  0  0  0  0  0  0
  187.5570  177.0010  143.2490 N   0  0  0  0  0  0  0  0  0  0  0  0
  191.5640  176.8500  142.2660 O   0  0  0  0  0  0  0  0  0  0  0  0
  185.3530  178.8090  140.4840 C   0  0  1  0  0  3  0  0  0  0  0  0
  192.0000  175.1780  143.9520 C   0  0  0  0  0  1  0  0  0  0  0  0
  185.5160  177.5030  144.3470 O   0  0  0  0  0  0  0  0  0  0  0  0
  185.6760  180.2050  147.6630 C   0  0  0  0  0  1  0  0  0  0  0  0
  186.7470  176.8440  144.4810 C   0  0  2  0  0  3  0  0  0  0  0  0
  185.8960  177.9970  139.3040 C   0  0  0  0  0  2  0  0  0  0  0  0
  182.9800  178.4950  141.2880 C   0  0  0  0  0  3  0  0  0  0  0  0
  183.8780  179.0170  140.3440 C   0  0  0  0  0  0  0  0  0  0  0  0
  183.3910  179.7500  139.2570 C   0  0  0  0  0  3  0  0  0  0  0  0
  181.5040  180.7410  137.9540 C   0  0  0  0  0  1  0  0  0  0  0  0
  181.1250  179.4400  140.0520 C   0  0  0  0  0  3  0  0  0  0  0  0
  182.0170  179.9610  139.1100 C   0  0  0  0  0  0  0  0  0  0  0  0
  181.6060  178.7070  141.1400 C   0  0  0  0  0  3  0  0  0  0  0  0
  187.2260  177.7900  148.2050 C   0  0  0  0  0  2  0  0  0  0  0  0
  189.6510  178.2570  148.6020 C   0  0  0  0  0  1  0  0  0  0  0  0
  188.6400  177.2170  148.1620 C   0  0  0  0  0  2  0  0  0  0  0  0
  1  4  1  0  0  0  0
  2 23  1  0  0  0  0
  2 16  1  0  0  0  0
  2 13  1  0  0  0  0
  3  7  1  0  0  0  0
  3  9  1  1  0  0  0
  4 35  1  1  0  0  0
  5 18  1  0  0  0  0
  6  9  2  0  0  0  0
  6 21  1  0  0  0  0
  7 20  1  1  0  0  0
  8  4  1  0  0  0  0
  8 25  1  1  0  0  0
  9 12  1  0  0  0  0
 10  7  1  0  0  0  0
 10  5  1  1  0  0  0
 11  6  1  0  0  0  0
 12 20  1  0  0  0  0
 12 16  2  0  0  0  0
 14 27  1  0  0  0  0
 15 19  1  0  0  0  0
 15 11  2  0  0  0  0
 17  8  1  0  0  0  0
 18 24  1  0  0  0  0
 18 17  1  1  0  0  0
 19 14  1  6  0  0  0
 19  3  1  0  0  0  0
 20 26  1  0  0  0  0
 21  2  1  0  0  0  0
 22 29  1  6  0  0  0
 22 10  1  0  0  0  0
 24 26  1  0  0  0  0
 26  1  1  1  0  0  0
 27 22  1  0  0  0  0
 29 28  2  0  0  0  0
 30 29  1  0  0  0  0
 31 33  1  0  0  0  0
 32 34  2  0  0  0  0
 33 30  2  0  0  0  0
 33 32  1  0  0  0  0
 34 28  1  0  0  0  0
 37 35  1  0  0  0  0
 37 36  1  0  0  0  0
M  END
>  <MODEL>
6

>  <REMARK>
 VINA RESULT:      -7.3      2.163      5.857
  Name = 
  3 active torsions:
  status: ('A' for Active; 'I' for Inactive)
    1  A    between atoms: C_5  and  C_17
    2  A    between atoms: C_6  and  C_31
    3  A    between atoms: C_17  and  C_23
                            x       y       z     vdW  Elec       q    Type
                         _______ _______ _______ _____ _____    ______ ____

>  <TORSDO>
F 3

$$$$
=
 OpenBabel11052415163D

 37 43  0  0  1  0  0  0  0  0999 V2000
  187.5320  178.2410  139.4860 C   0  0  0  0  0  2  0  0  0  0  0  0
  184.2520  176.5190  137.0360 C   0  0  0  0  0  0  0  0  0  0  0  0
  188.1040  174.7210  136.4950 C   0  0  1  0  0  3  0  0  0  0  0  0
  188.2520  178.5980  140.8040 C   0  0  2  0  0  3  0  0  0  0  0  0
  190.5040  175.6280  138.6050 O   0  0  0  0  0  0  0  0  0  0  0  0
  185.6560  174.7120  136.0390 C   0  0  0  0  0  0  0  0  0  0  0  0
  188.9100  176.0170  136.6670 C   0  0  2  0  0  3  0  0  0  0  0  0
  188.8880  177.3540  141.5000 C   0  0  1  0  0  3  0  0  0  0  0  0
  186.7140  175.2050  136.6760 C   0  0  0  0  0  0  0  0  0  0  0  0
  190.3660  175.8160  137.2020 C   0  0  2  0  0  3  0  0  0  0  0  0
  185.8560  173.5580  135.1370 C   0  0  0  0  0  3  0  0  0  0  0  0
  186.7020  176.5230  137.2220 C   0  0  0  0  0  0  0  0  0  0  0  0
  183.6550  176.0390  138.3450 C   0  0  0  0  0  1  0  0  0  0  0  0
  189.6040  173.4750  134.8880 C   0  0  0  0  0  2  0  0  0  0  0  0
  187.0990  173.2630  134.7120 C   0  0  0  0  0  3  0  0  0  0  0  0
  185.5680  177.2220  137.3270 C   0  0  0  0  0  3  0  0  0  0  0  0
  190.0940  176.7530  140.7610 C   0  0  0  0  0  2  0  0  0  0  0  0
  189.7720  176.6090  139.2950 C   0  0  1  0  0  3  0  0  0  0  0  0
  188.2610  174.1680  135.0720 C   0  0  1  0  0  3  0  0  0  0  0  0
  188.0330  177.0160  137.3360 N   0  0  0  0  0  0  0  0  0  0  0  0
  184.4280  175.3860  136.1550 O   0  0  0  0  0  0  0  0  0  0  0  0
  191.1370  174.6920  136.4780 C   0  0  1  0  0  3  0  0  0  0  0  0
  183.2960  177.5030  136.3980 C   0  0  0  0  0  1  0  0  0  0  0  0
  189.8020  177.8660  138.6670 O   0  0  0  0  0  0  0  0  0  0  0  0
  189.3370  177.6700  142.9180 C   0  0  0  0  0  1  0  0  0  0  0  0
  188.4750  178.0830  138.2640 C   0  0  2  0  0  3  0  0  0  0  0  0
  190.7580  174.4710  135.0100 C   0  0  0  0  0  2  0  0  0  0  0  0
  193.3000  175.8140  135.8150 C   0  0  0  0  0  3  0  0  0  0  0  0
  192.6130  174.8860  136.6150 C   0  0  0  0  0  0  0  0  0  0  0  0
  193.3180  174.1350  137.5620 C   0  0  0  0  0  3  0  0  0  0  0  0
  195.4410  173.5060  138.7180 C   0  0  0  0  0  1  0  0  0  0  0  0
  195.3780  175.2300  136.9120 C   0  0  0  0  0  3  0  0  0  0  0  0
  194.6970  174.3050  137.7110 C   0  0  0  0  0  0  0  0  0  0  0  0
  194.6790  175.9840  135.9650 C   0  0  0  0  0  3  0  0  0  0  0  0
  187.2860  179.3670  141.7180 C   0  0  0  0  0  2  0  0  0  0  0  0
  185.2810  178.2530  142.7150 C   0  0  0  0  0  1  0  0  0  0  0  0
  185.8220  178.9910  141.5070 C   0  0  0  0  0  2  0  0  0  0  0  0
  1  4  1  0  0  0  0
  2 16  1  0  0  0  0
  2 13  1  0  0  0  0
  3  7  1  0  0  0  0
  3  9  1  6  0  0  0
  4  8  1  0  0  0  0
  4 35  1  1  0  0  0
  5 18  1  0  0  0  0
  6 21  1  0  0  0  0
  6  9  2  0  0  0  0
  7 10  1  0  0  0  0
  7 20  1  1  0  0  0
  8 25  1  1  0  0  0
  9 12  1  0  0  0  0
 10  5  1  1  0  0  0
 11  6  1  0  0  0  0
 12 16  2  0  0  0  0
 12 20  1  0  0  0  0
 14 27  1  0  0  0  0
 14 19  1  0  0  0  0
 15 11  2  0  0  0  0
 17  8  1  0  0  0  0
 18 17  1  1  0  0  0
 19 15  1  1  0  0  0
 19  3  1  0  0  0  0
 20 26  1  0  0  0  0
 21  2  1  0  0  0  0
 22 29  1  6  0  0  0
 22 10  1  0  0  0  0
 23  2  1  0  0  0  0
 24 18  1  0  0  0  0
 26 24  1  0  0  0  0
 26  1  1  1  0  0  0
 27 22  1  0  0  0  0
 28 34  2  0  0  0  0
 28 29  1  0  0  0  0
 29 30  2  0  0  0  0
 30 33  1  0  0  0  0
 32 33  2  0  0  0  0
 33 31  1  0  0  0  0
 34 32  1  0  0  0  0
 37 35  1  0  0  0  0
 37 36  1  0  0  0  0
M  END
>  <MODEL>
7

>  <REMARK>
 VINA RESULT:      -7.2      2.417      8.917
  Name = 
  3 active torsions:
  status: ('A' for Active; 'I' for Inactive)
    1  A    between atoms: C_5  and  C_17
    2  A    between atoms: C_6  and  C_31
    3  A    between atoms: C_17  and  C_23
                            x       y       z     vdW  Elec       q    Type
                         _______ _______ _______ _____ _____    ______ ____

>  <TORSDO>
F 3

$$$$
=
 OpenBabel11052415163D

 37 43  0  0  1  0  0  0  0  0999 V2000
  184.1280  177.2610  137.0530 C   0  0  0  0  0  2  0  0  0  0  0  0
  179.9680  178.6260  136.3050 C   0  0  0  0  0  0  0  0  0  0  0  0
  181.5260  179.4910  140.2030 C   0  0  1  0  0  3  0  0  0  0  0  0
  185.6520  177.2310  136.8130 C   0  0  2  0  0  3  0  0  0  0  0  0
  184.7610  178.9230  140.6960 O   0  0  0  0  0  0  0  0  0  0  0  0
  179.7150  179.7590  138.5150 C   0  0  0  0  0  0  0  0  0  0  0  0
  182.3530  178.2040  140.3320 C   0  0  2  0  0  3  0  0  0  0  0  0
  186.3720  178.5080  137.3480 C   0  0  1  0  0  3  0  0  0  0  0  0
  180.9250  179.3280  138.8560 C   0  0  0  0  0  0  0  0  0  0  0  0
  183.6050  178.3220  141.2630 C   0  0  2  0  0  3  0  0  0  0  0  0
  178.9310  180.5130  139.5160 C   0  0  0  0  0  3  0  0  0  0  0  0
  181.5660  178.2760  138.1370 C   0  0  0  0  0  0  0  0  0  0  0  0
  180.5670  179.5920  135.3000 C   0  0  0  0  0  1  0  0  0  0  0  0
  180.9420  179.8900  142.6280 C   0  0  0  0  0  2  0  0  0  0  0  0
  179.2840  180.4470  140.8140 C   0  0  0  0  0  3  0  0  0  0  0  0
  181.0930  177.8450  136.9650 C   0  0  0  0  0  3  0  0  0  0  0  0
  186.4040  178.6320  138.8800 C   0  0  0  0  0  2  0  0  0  0  0  0
  185.0340  178.3500  139.4420 C   0  0  1  0  0  3  0  0  0  0  0  0
  180.4060  179.5250  141.2510 C   0  0  1  0  0  3  0  0  0  0  0  0
  182.5260  177.6320  138.9690 N   0  0  0  0  0  0  0  0  0  0  0  0
  179.1900  179.3720  137.2700 O   0  0  0  0  0  0  0  0  0  0  0  0
  183.3040  179.0110  142.6110 C   0  0  1  0  0  3  0  0  0  0  0  0
  179.0610  177.6630  135.5710 C   0  0  0  0  0  1  0  0  0  0  0  0
  184.7650  176.9720  139.3920 O   0  0  0  0  0  0  0  0  0  0  0  0
  187.8080  178.5930  136.8560 C   0  0  0  0  0  1  0  0  0  0  0  0
  183.6970  176.8600  138.4880 C   0  0  2  0  0  3  0  0  0  0  0  0
  181.8860  178.8090  143.1550 C   0  0  0  0  0  2  0  0  0  0  0  0
  184.1480  178.9740  144.9920 C   0  0  0  0  0  3  0  0  0  0  0  0
  184.3200  178.6280  143.6410 C   0  0  0  0  0  0  0  0  0  0  0  0
  185.4540  177.9090  143.2510 C   0  0  0  0  0  3  0  0  0  0  0  0
  187.6140  176.7710  143.7790 C   0  0  0  0  0  1  0  0  0  0  0  0
  186.2370  177.8820  145.5420 C   0  0  0  0  0  3  0  0  0  0  0  0
  186.4120  177.5360  144.1980 C   0  0  0  0  0  0  0  0  0  0  0  0
  185.1060  178.6010  145.9380 C   0  0  0  0  0  3  0  0  0  0  0  0
  185.9280  176.9660  135.3260 C   0  0  0  0  0  2  0  0  0  0  0  0
  186.9210  174.9190  136.3680 C   0  0  0  0  0  1  0  0  0  0  0  0
  186.5790  175.6100  135.0630 C   0  0  0  0  0  2  0  0  0  0  0  0
  2 16  1  0  0  0  0
  2 21  1  0  0  0  0
  3  9  1  6  0  0  0
  3  7  1  0  0  0  0
  3 19  1  0  0  0  0
  4 35  1  6  0  0  0
  4  1  1  0  0  0  0
  4  8  1  0  0  0  0
  6  9  2  0  0  0  0
  6 11  1  0  0  0  0
  7 20  1  6  0  0  0
  7 10  1  0  0  0  0
  8 25  1  1  0  0  0
  8 17  1  0  0  0  0
 10  5  1  6  0  0  0
 10 22  1  0  0  0  0
 11 15  2  0  0  0  0
 12  9  1  0  0  0  0
 12 20  1  0  0  0  0
 13  2  1  0  0  0  0
 14 27  1  0  0  0  0
 16 12  2  0  0  0  0
 18 17  1  1  0  0  0
 18  5  1  0  0  0  0
 19 15  1  6  0  0  0
 19 14  1  0  0  0  0
 21  6  1  0  0  0  0
 22 27  1  0  0  0  0
 22 29  1  1  0  0  0
 23  2  1  0  0  0  0
 24 18  1  0  0  0  0
 26  1  1  6  0  0  0
 26 20  1  0  0  0  0
 26 24  1  0  0  0  0
 28 34  1  0  0  0  0
 29 28  2  0  0  0  0
 30 29  1  0  0  0  0
 30 33  2  0  0  0  0
 31 33  1  0  0  0  0
 32 34  2  0  0  0  0
 33 32  1  0  0  0  0
 37 35  1  0  0  0  0
 37 36  1  0  0  0  0
M  END
>  <MODEL>
8

>  <REMARK>
 VINA RESULT:      -7.0      2.819      7.502
  Name = 
  3 active torsions:
  status: ('A' for Active; 'I' for Inactive)
    1  A    between atoms: C_5  and  C_17
    2  A    between atoms: C_6  and  C_31
    3  A    between atoms: C_17  and  C_23
                            x       y       z     vdW  Elec       q    Type
                         _______ _______ _______ _____ _____    ______ ____

>  <TORSDO>
F 3

$$$$
=
 OpenBabel11052415163D

 37 43  0  0  1  0  0  0  0  0999 V2000
  188.0490  178.3380  141.2880 C   0  0  0  0  0  2  0  0  0  0  0  0
  184.3650  178.3650  138.8080 C   0  0  0  0  0  0  0  0  0  0  0  0
  187.7110  176.2810  137.1260 C   0  0  1  0  0  3  0  0  0  0  0  0
  188.8890  177.9990  142.5380 C   0  0  2  0  0  3  0  0  0  0  0  0
  190.3450  175.8170  139.0960 O   0  0  0  0  0  0  0  0  0  0  0  0
  185.3000  176.8940  137.0210 C   0  0  0  0  0  0  0  0  0  0  0  0
  188.7830  177.2310  137.6790 C   0  0  2  0  0  3  0  0  0  0  0  0
  189.2740  176.4890  142.6140 C   0  0  1  0  0  3  0  0  0  0  0  0
  186.4660  176.8910  137.6570 C   0  0  0  0  0  0  0  0  0  0  0  0
  190.1850  176.5750  137.9040 C   0  0  2  0  0  3  0  0  0  0  0  0
  185.2040  176.1860  135.7270 C   0  0  0  0  0  3  0  0  0  0  0  0
  186.7640  177.8560  138.6650 C   0  0  0  0  0  0  0  0  0  0  0  0
  183.7400  177.5150  139.8970 C   0  0  0  0  0  1  0  0  0  0  0  0
  188.8310  175.5420  134.9860 C   0  0  0  0  0  2  0  0  0  0  0  0
  186.3340  175.8700  135.0660 C   0  0  0  0  0  3  0  0  0  0  0  0
  185.8140  178.6440  139.1750 C   0  0  0  0  0  3  0  0  0  0  0  0
  190.2880  176.0310  141.5520 C   0  0  0  0  0  2  0  0  0  0  0  0
  189.8740  176.5500  140.1980 C   0  0  1  0  0  3  0  0  0  0  0  0
  187.6790  176.3300  135.5930 C   0  0  1  0  0  3  0  0  0  0  0  0
  188.1740  178.0150  138.7870 N   0  0  0  0  0  0  0  0  0  0  0  0
  184.2520  177.6710  137.5440 O   0  0  0  0  0  0  0  0  0  0  0  0
  190.6610  175.7190  136.7100 C   0  0  1  0  0  3  0  0  0  0  0  0
  183.6140  179.6770  138.7260 C   0  0  0  0  0  1  0  0  0  0  0  0
  190.1440  177.9250  140.1040 O   0  0  0  0  0  0  0  0  0  0  0  0
  189.8460  176.1210  143.9740 C   0  0  0  0  0  1  0  0  0  0  0  0
  188.8780  178.5200  139.9890 C   0  0  2  0  0  3  0  0  0  0  0  0
  190.1760  176.1800  135.3320 C   0  0  0  0  0  2  0  0  0  0  0  0
  192.7820  174.6400  137.5580 C   0  0  0  0  0  3  0  0  0  0  0  0
  192.1500  175.5750  136.7210 C   0  0  0  0  0  0  0  0  0  0  0  0
  192.9220  176.3790  135.8760 C   0  0  0  0  0  3  0  0  0  0  0  0
  195.1300  177.1120  134.9670 C   0  0  0  0  0  1  0  0  0  0  0  0
  194.9400  175.3250  136.7010 C   0  0  0  0  0  3  0  0  0  0  0  0
  194.3150  176.2560  135.8660 C   0  0  0  0  0  0  0  0  0  0  0  0
  194.1740  174.5180  137.5470 C   0  0  0  0  0  3  0  0  0  0  0  0
  188.1560  178.4940  143.7930 C   0  0  0  0  0  2  0  0  0  0  0  0
  186.5110  177.5450  145.4230 C   0  0  0  0  0  1  0  0  0  0  0  0
  186.7690  177.8790  143.9670 C   0  0  0  0  0  2  0  0  0  0  0  0
  1  4  1  0  0  0  0
  2 16  1  0  0  0  0
  2 13  1  0  0  0  0
  3  9  1  1  0  0  0
  3  7  1  0  0  0  0
  4  8  1  0  0  0  0
  4 35  1  1  0  0  0
  5 18  1  0  0  0  0
  6 21  1  0  0  0  0
  6  9  2  0  0  0  0
  7 10  1  0  0  0  0
  7 20  1  1  0  0  0
  8 25  1  1  0  0  0
  9 12  1  0  0  0  0
 10  5  1  1  0  0  0
 11  6  1  0  0  0  0
 12 20  1  0  0  0  0
 12 16  2  0  0  0  0
 14 27  1  0  0  0  0
 15 19  1  0  0  0  0
 15 11  2  0  0  0  0
 17  8  1  0  0  0  0
 18 17  1  1  0  0  0
 19 14  1  6  0  0  0
 19  3  1  0  0  0  0
 20 26  1  0  0  0  0
 21  2  1  0  0  0  0
 22 29  1  6  0  0  0
 22 10  1  0  0  0  0
 23  2  1  0  0  0  0
 24 18  1  0  0  0  0
 26 24  1  0  0  0  0
 26  1  1  1  0  0  0
 27 22  1  0  0  0  0
 29 28  2  0  0  0  0
 30 29  1  0  0  0  0
 31 33  1  0  0  0  0
 32 34  2  0  0  0  0
 33 30  2  0  0  0  0
 33 32  1  0  0  0  0
 34 28  1  0  0  0  0
 35 37  1  0  0  0  0
 37 36  1  0  0  0  0
M  END
>  <MODEL>
9

>  <REMARK>
 VINA RESULT:      -7.0      1.892      8.281
  Name = 
  3 active torsions:
  status: ('A' for Active; 'I' for Inactive)
    1  A    between atoms: C_5  and  C_17
    2  A    between atoms: C_6  and  C_31
    3  A    between atoms: C_17  and  C_23
                            x       y       z     vdW  Elec       q    Type
                         _______ _______ _______ _____ _____    ______ ____

>  <TORSDO>
F 3

$$$$
