=
 OpenBabel11052415523D

 34 40  0  0  0  0  0  0  0  0999 V2000
  189.0660  177.9380  143.4260 C   0  0  0  0  0  0  0  0  0  0  0  0
  192.2760  177.3190  141.5050 C   0  0  0  0  0  3  0  0  0  0  0  0
  192.1230  178.0550  144.1440 S   0  0  0  0  0  0  0  0  0  0  0  0
  187.1130  177.6820  145.3520 N   0  0  0  0  0  0  0  0  0  0  0  0
  187.7540  178.1700  143.1430 N   0  0  0  0  0  0  0  0  0  0  0  0
  188.4000  177.4300  145.6930 C   0  0  0  0  0  0  0  0  0  0  0  0
  190.0280  176.7000  147.3280 C   0  0  0  0  0  3  0  0  0  0  0  0
  188.7020  176.9610  146.9740 C   0  0  0  0  0  3  0  0  0  0  0  0
  186.7840  178.0800  144.0930 C   0  0  0  0  0  0  0  0  0  0  0  0
  190.7700  177.4160  145.1320 C   0  0  0  0  0  0  0  0  0  0  0  0
  189.4310  177.6180  144.7470 C   0  0  0  0  0  0  0  0  0  0  0  0
  191.0580  176.9430  146.4160 C   0  0  0  0  0  3  0  0  0  0  0  0
  191.7900  177.1500  140.2070 C   0  0  0  0  0  0  0  0  0  0  0  0
  190.4220  177.3260  139.9560 C   0  0  0  0  0  3  0  0  0  0  0  0
  191.4110  177.6460  142.5540 C   0  0  0  0  0  0  0  0  0  0  0  0
  189.5520  177.6400  141.0020 C   0  0  0  0  0  3  0  0  0  0  0  0
  190.0320  177.7990  142.3100 C   0  0  0  0  0  0  0  0  0  0  0  0
  183.1240  178.9810  144.4190 C   0  0  0  0  0  3  0  0  0  0  0  0
  184.9450  178.2620  142.4130 C   0  0  0  0  0  3  0  0  0  0  0  0
  180.9320  179.0540  141.4310 C   0  0  0  0  0  0  0  0  0  0  0  0
  181.3640  179.1480  142.7620 C   0  0  0  0  0  3  0  0  0  0  0  0
  182.6960  178.8870  143.0930 C   0  0  0  0  0  0  0  0  0  0  0  0
  183.1860  178.4290  140.7570 C   0  0  0  0  0  3  0  0  0  0  0  0
  183.6130  178.5240  142.0830 C   0  0  0  0  0  0  0  0  0  0  0  0
  181.8520  178.6920  140.4330 C   0  0  0  0  0  3  0  0  0  0  0  0
  185.3780  178.3570  143.7450 C   0  0  0  0  0  0  0  0  0  0  0  0
  184.4580  178.7180  144.7420 C   0  0  0  0  0  3  0  0  0  0  0  0
  179.5640  179.3240  141.0970 N   0  0  0  0  0  0  0  0  0  0  0  0
  178.9310  178.5520  140.3470 O   0  0  0  0  0  0  0  0  0  0  0  0
  178.9330  180.4380  141.6020 O   0  0  0  0  0  0  0  0  0  0  0  0
  192.6870  176.8200  139.1860 O   0  0  0  0  0  0  0  0  0  0  0  0
  192.2630  176.4230  137.8890 C   0  0  0  0  0  3  0  0  0  0  0  0
  193.4710  176.3050  136.9820 C   0  0  0  0  0  2  0  0  0  0  0  0
  192.8430  175.0610  137.5730 C   0  0  0  0  0  2  0  0  0  0  0  0
  1 11  1  0  0  0  0
  2 15  1  0  0  0  0
  3 10  1  0  0  0  0
  4  6  1  0  0  0  0
  5  1  2  0  0  0  0
  5  9  1  0  0  0  0
  6  8  1  0  0  0  0
  8  7  2  0  0  0  0
  9  4  2  0  0  0  0
 10 12  2  0  0  0  0
 11 10  1  0  0  0  0
 11  6  2  0  0  0  0
 12  7  1  0  0  0  0
 13  2  2  0  0  0  0
 14 13  1  0  0  0  0
 14 16  2  0  0  0  0
 15  3  1  0  0  0  0
 16 17  1  0  0  0  0
 17 15  2  0  0  0  0
 17  1  1  0  0  0  0
 18 27  1  0  0  0  0
 19 26  1  0  0  0  0
 20 21  2  0  0  0  0
 21 22  1  0  0  0  0
 22 18  2  0  0  0  0
 23 24  1  0  0  0  0
 24 19  2  0  0  0  0
 24 22  1  0  0  0  0
 25 23  2  0  0  0  0
 25 20  1  0  0  0  0
 26  9  1  0  0  0  0
 26 27  2  0  0  0  0
 28 20  1  0  0  0  0
 28 30  2  0  0  0  0
 29 28  2  0  0  0  0
 31 13  1  0  0  0  0
 32 31  1  0  0  0  0
 33 34  1  0  0  0  0
 33 32  1  0  0  0  0
 34 32  1  0  0  0  0
M  END
>  <MODEL>
1

>  <REMARK>
 VINA RESULT:     -10.2      0.000      0.000
  Name = 
  4 active torsions:
  status: ('A' for Active; 'I' for Inactive)
    1  A    between atoms: C_3  and  O_25
    2  A    between atoms: C_7  and  N_11
    3  A    between atoms: C_18  and  C_30
    4  A    between atoms: C_23  and  O_25
                            x       y       z     vdW  Elec       q    Type
                         _______ _______ _______ _____ _____    ______ ____

>  <TORSDO>
F 4

$$$$
=
 OpenBabel11052415523D

 34 40  0  0  0  0  0  0  0  0999 V2000
  187.2580  177.8270  144.3610 C   0  0  0  0  0  0  0  0  0  0  0  0
  183.6660  178.8600  145.0040 C   0  0  0  0  0  3  0  0  0  0  0  0
  185.2830  177.5500  146.7910 S   0  0  0  0  0  0  0  0  0  0  0  0
  189.9900  177.6460  144.6610 N   0  0  0  0  0  0  0  0  0  0  0  0
  188.0810  177.6660  143.2890 N   0  0  0  0  0  0  0  0  0  0  0  0
  189.2240  177.8140  145.7660 C   0  0  0  0  0  0  0  0  0  0  0  0
  189.0440  178.1560  148.1550 C   0  0  0  0  0  3  0  0  0  0  0  0
  189.8300  177.9830  147.0140 C   0  0  0  0  0  3  0  0  0  0  0  0
  189.4290  177.5410  143.4260 C   0  0  0  0  0  0  0  0  0  0  0  0
  187.0320  177.9520  146.8160 C   0  0  0  0  0  0  0  0  0  0  0  0
  187.8180  177.8420  145.6540 C   0  0  0  0  0  0  0  0  0  0  0  0
  187.6500  178.1230  148.0580 C   0  0  0  0  0  3  0  0  0  0  0  0
  183.2830  179.3160  143.7410 C   0  0  0  0  0  0  0  0  0  0  0  0
  184.1770  179.2030  142.6670 C   0  0  0  0  0  3  0  0  0  0  0  0
  184.9340  178.3060  145.2070 C   0  0  0  0  0  0  0  0  0  0  0  0
  185.4490  178.6620  142.8680 C   0  0  0  0  0  3  0  0  0  0  0  0
  185.8440  178.2130  144.1370 C   0  0  0  0  0  0  0  0  0  0  0  0
  192.4820  177.3420  141.2000 C   0  0  0  0  0  3  0  0  0  0  0  0
  189.7080  176.9960  141.0050 C   0  0  0  0  0  3  0  0  0  0  0  0
  192.1430  176.4540  137.6180 C   0  0  0  0  0  0  0  0  0  0  0  0
  192.7150  176.8090  138.8490 C   0  0  0  0  0  3  0  0  0  0  0  0
  191.9110  176.9890  139.9760 C   0  0  0  0  0  0  0  0  0  0  0  0
  189.9410  176.4630  138.6540 C   0  0  0  0  0  3  0  0  0  0  0  0
  190.5130  176.8160  139.8780 C   0  0  0  0  0  0  0  0  0  0  0  0
  190.7520  176.2840  137.5300 C   0  0  0  0  0  3  0  0  0  0  0  0
  190.2800  177.3500  142.2370 C   0  0  0  0  0  0  0  0  0  0  0  0
  191.6700  177.5210  142.3240 C   0  0  0  0  0  3  0  0  0  0  0  0
  192.9750  176.2700  136.4640 N   0  0  0  0  0  0  0  0  0  0  0  0
  192.5410  175.6670  135.4610 O   0  0  0  0  0  0  0  0  0  0  0  0
  194.2610  176.7580  136.4510 O   0  0  0  0  0  0  0  0  0  0  0  0
  182.0080  179.8670  143.5780 O   0  0  0  0  0  0  0  0  0  0  0  0
  180.9480  179.1740  142.9320 C   0  0  0  0  0  3  0  0  0  0  0  0
  179.9140  178.7680  143.9620 C   0  0  0  0  0  2  0  0  0  0  0  0
  179.6710  179.9730  143.0790 C   0  0  0  0  0  2  0  0  0  0  0  0
  1 11  1  0  0  0  0
  2 15  1  0  0  0  0
  3 10  1  0  0  0  0
  4  6  1  0  0  0  0
  5  9  1  0  0  0  0
  5  1  2  0  0  0  0
  6  8  1  0  0  0  0
  8  7  2  0  0  0  0
  9  4  2  0  0  0  0
 10 12  2  0  0  0  0
 11  6  2  0  0  0  0
 11 10  1  0  0  0  0
 12  7  1  0  0  0  0
 13  2  2  0  0  0  0
 14 16  2  0  0  0  0
 14 13  1  0  0  0  0
 15  3  1  0  0  0  0
 16 17  1  0  0  0  0
 17  1  1  0  0  0  0
 17 15  2  0  0  0  0
 18 27  1  0  0  0  0
 19 26  1  0  0  0  0
 20 21  2  0  0  0  0
 21 22  1  0  0  0  0
 22 18  2  0  0  0  0
 23 24  1  0  0  0  0
 24 22  1  0  0  0  0
 24 19  2  0  0  0  0
 25 20  1  0  0  0  0
 25 23  2  0  0  0  0
 26 27  2  0  0  0  0
 26  9  1  0  0  0  0
 28 20  1  0  0  0  0
 29 28  2  0  0  0  0
 30 28  2  0  0  0  0
 31 13  1  0  0  0  0
 32 34  1  0  0  0  0
 32 31  1  0  0  0  0
 32 33  1  0  0  0  0
 34 33  1  0  0  0  0
M  END
>  <MODEL>
2

>  <REMARK>
 VINA RESULT:      -9.6      2.559      8.949
  Name = 
  4 active torsions:
  status: ('A' for Active; 'I' for Inactive)
    1  A    between atoms: C_3  and  O_25
    2  A    between atoms: C_7  and  N_11
    3  A    between atoms: C_18  and  C_30
    4  A    between atoms: C_23  and  O_25
                            x       y       z     vdW  Elec       q    Type
                         _______ _______ _______ _____ _____    ______ ____

>  <TORSDO>
F 4

$$$$
=
 OpenBabel11052415523D

 34 40  0  0  0  0  0  0  0  0999 V2000
  190.2600  176.4160  138.1610 C   0  0  0  0  0  0  0  0  0  0  0  0
  192.6240  175.3720  135.3860 C   0  0  0  0  0  3  0  0  0  0  0  0
  189.8900  175.4760  135.1840 S   0  0  0  0  0  0  0  0  0  0  0  0
  188.3150  177.8280  139.5080 N   0  0  0  0  0  0  0  0  0  0  0  0
  190.3030  176.5720  139.5130 N   0  0  0  0  0  0  0  0  0  0  0  0
  188.2210  177.7140  138.1610 C   0  0  0  0  0  0  0  0  0  0  0  0
  187.1040  178.2680  136.0860 C   0  0  0  0  0  3  0  0  0  0  0  0
  187.2040  178.3830  137.4750 C   0  0  0  0  0  3  0  0  0  0  0  0
  189.3310  177.2380  140.1940 C   0  0  0  0  0  0  0  0  0  0  0  0
  189.0170  176.7770  136.0590 C   0  0  0  0  0  0  0  0  0  0  0  0
  189.1630  176.9410  137.4500 C   0  0  0  0  0  0  0  0  0  0  0  0
  187.9970  177.4540  135.3840 C   0  0  0  0  0  3  0  0  0  0  0  0
  193.8440  175.3350  136.0650 C   0  0  0  0  0  0  0  0  0  0  0  0
  193.8690  175.5700  137.4470 C   0  0  0  0  0  3  0  0  0  0  0  0
  191.4360  175.6530  136.0680 C   0  0  0  0  0  0  0  0  0  0  0  0
  192.6870  175.8640  138.1310 C   0  0  0  0  0  3  0  0  0  0  0  0
  191.4610  175.9130  137.4520 C   0  0  0  0  0  0  0  0  0  0  0  0
  190.7350  177.6410  143.6840 C   0  0  0  0  0  3  0  0  0  0  0  0
  188.2430  177.3360  142.4390 C   0  0  0  0  0  3  0  0  0  0  0  0
  188.4790  177.7040  146.6230 C   0  0  0  0  0  0  0  0  0  0  0  0
  189.6460  177.7330  145.8460 C   0  0  0  0  0  3  0  0  0  0  0  0
  189.5720  177.6120  144.4560 C   0  0  0  0  0  0  0  0  0  0  0  0
  187.1530  177.4280  144.6010 C   0  0  0  0  0  3  0  0  0  0  0  0
  188.3160  177.4580  143.8290 C   0  0  0  0  0  0  0  0  0  0  0  0
  187.2340  177.5500  145.9910 C   0  0  0  0  0  3  0  0  0  0  0  0
  189.4100  177.3670  141.6610 C   0  0  0  0  0  0  0  0  0  0  0  0
  190.6540  177.5200  142.2940 C   0  0  0  0  0  3  0  0  0  0  0  0
  188.5600  177.8290  148.0490 N   0  0  0  0  0  0  0  0  0  0  0  0
  187.5940  177.5020  148.7700 O   0  0  0  0  0  0  0  0  0  0  0  0
  189.7060  178.3100  148.6400 O   0  0  0  0  0  0  0  0  0  0  0  0
  195.0100  175.0540  135.3480 O   0  0  0  0  0  0  0  0  0  0  0  0
  196.2970  175.4800  135.7740 C   0  0  0  0  0  3  0  0  0  0  0  0
  197.2720  175.3570  134.6210 C   0  0  0  0  0  2  0  0  0  0  0  0
  196.6980  176.7090  134.9880 C   0  0  0  0  0  2  0  0  0  0  0  0
  1  5  2  0  0  0  0
  2 13  2  0  0  0  0
  2 15  1  0  0  0  0
  3 10  1  0  0  0  0
  3 15  1  0  0  0  0
  4  9  2  0  0  0  0
  5  9  1  0  0  0  0
  6  4  1  0  0  0  0
  7  8  2  0  0  0  0
  8  6  1  0  0  0  0
  9 26  1  0  0  0  0
 10 11  1  0  0  0  0
 11  1  1  0  0  0  0
 11  6  2  0  0  0  0
 12 10  2  0  0  0  0
 12  7  1  0  0  0  0
 13 14  1  0  0  0  0
 14 16  2  0  0  0  0
 15 17  2  0  0  0  0
 17 16  1  0  0  0  0
 17  1  1  0  0  0  0
 18 22  1  0  0  0  0
 19 24  1  0  0  0  0
 20 28  1  0  0  0  0
 21 20  2  0  0  0  0
 22 21  1  0  0  0  0
 23 25  2  0  0  0  0
 24 22  2  0  0  0  0
 24 23  1  0  0  0  0
 25 20  1  0  0  0  0
 26 27  1  0  0  0  0
 26 19  2  0  0  0  0
 27 18  2  0  0  0  0
 28 30  2  0  0  0  0
 28 29  2  0  0  0  0
 31 32  1  0  0  0  0
 31 13  1  0  0  0  0
 33 34  1  0  0  0  0
 33 32  1  0  0  0  0
 34 32  1  0  0  0  0
M  END
>  <MODEL>
3

>  <REMARK>
 VINA RESULT:      -9.4      4.761      7.594
  Name = 
  4 active torsions:
  status: ('A' for Active; 'I' for Inactive)
    1  A    between atoms: C_3  and  O_25
    2  A    between atoms: C_7  and  N_11
    3  A    between atoms: C_18  and  C_30
    4  A    between atoms: C_23  and  O_25
                            x       y       z     vdW  Elec       q    Type
                         _______ _______ _______ _____ _____    ______ ____

>  <TORSDO>
F 4

$$$$
=
 OpenBabel11052415523D

 34 40  0  0  0  0  0  0  0  0999 V2000
  189.1050  177.5720  141.5780 C   0  0  0  0  0  0  0  0  0  0  0  0
  191.2570  176.7360  138.5700 C   0  0  0  0  0  3  0  0  0  0  0  0
  192.1980  177.5210  141.0240 S   0  0  0  0  0  0  0  0  0  0  0  0
  188.0660  177.4610  144.1270 N   0  0  0  0  0  0  0  0  0  0  0  0
  187.8010  177.8760  141.8280 N   0  0  0  0  0  0  0  0  0  0  0  0
  189.3700  177.1400  143.9410 C   0  0  0  0  0  0  0  0  0  0  0  0
  191.4760  176.3420  144.8260 C   0  0  0  0  0  3  0  0  0  0  0  0
  190.1330  176.6740  145.0150 C   0  0  0  0  0  3  0  0  0  0  0  0
  187.2840  177.8580  143.0870 C   0  0  0  0  0  0  0  0  0  0  0  0
  191.3190  176.9780  142.4910 C   0  0  0  0  0  0  0  0  0  0  0  0
  189.9490  177.2520  142.6590 C   0  0  0  0  0  0  0  0  0  0  0  0
  192.0700  176.5100  143.5730 C   0  0  0  0  0  3  0  0  0  0  0  0
  190.2880  176.5760  137.5770 C   0  0  0  0  0  0  0  0  0  0  0  0
  188.9430  176.8270  137.8810 C   0  0  0  0  0  3  0  0  0  0  0  0
  190.8950  177.1300  139.8620 C   0  0  0  0  0  0  0  0  0  0  0  0
  188.5750  177.2080  139.1720 C   0  0  0  0  0  3  0  0  0  0  0  0
  189.5420  177.3590  140.1770 C   0  0  0  0  0  0  0  0  0  0  0  0
  184.0710  178.8420  144.8260 C   0  0  0  0  0  3  0  0  0  0  0  0
  184.9700  178.2560  142.2370 C   0  0  0  0  0  3  0  0  0  0  0  0
  180.9390  179.2660  142.8910 C   0  0  0  0  0  0  0  0  0  0  0  0
  181.8390  179.2200  143.9670 C   0  0  0  0  0  3  0  0  0  0  0  0
  183.1780  178.8860  143.7540 C   0  0  0  0  0  0  0  0  0  0  0  0
  182.7380  178.6350  141.3770 C   0  0  0  0  0  3  0  0  0  0  0  0
  183.6310  178.5900  142.4490 C   0  0  0  0  0  0  0  0  0  0  0  0
  181.3990  178.9700  141.5970 C   0  0  0  0  0  3  0  0  0  0  0  0
  185.8710  178.2120  143.3130 C   0  0  0  0  0  0  0  0  0  0  0  0
  185.4110  178.5070  144.6050 C   0  0  0  0  0  3  0  0  0  0  0  0
  179.5650  179.6090  143.1150 N   0  0  0  0  0  0  0  0  0  0  0  0
  178.9310  179.1000  144.0620 O   0  0  0  0  0  0  0  0  0  0  0  0
  178.9310  180.5070  142.2880 O   0  0  0  0  0  0  0  0  0  0  0  0
  190.6890  176.1780  136.2980 O   0  0  0  0  0  0  0  0  0  0  0  0
  191.6840  175.1860  136.0770 C   0  0  0  0  0  3  0  0  0  0  0  0
  191.7680  174.8850  134.5940 C   0  0  0  0  0  2  0  0  0  0  0  0
  192.8000  175.7810  135.2450 C   0  0  0  0  0  2  0  0  0  0  0  0
  1  5  2  0  0  0  0
  1 11  1  0  0  0  0
  2 15  1  0  0  0  0
  3 10  1  0  0  0  0
  5  9  1  0  0  0  0
  6  4  1  0  0  0  0
  6  8  1  0  0  0  0
  7  8  2  0  0  0  0
  9 26  1  0  0  0  0
  9  4  2  0  0  0  0
 10 11  1  0  0  0  0
 10 12  2  0  0  0  0
 11  6  2  0  0  0  0
 12  7  1  0  0  0  0
 13 14  1  0  0  0  0
 13  2  2  0  0  0  0
 14 16  2  0  0  0  0
 15 17  2  0  0  0  0
 15  3  1  0  0  0  0
 16 17  1  0  0  0  0
 17  1  1  0  0  0  0
 19 24  2  0  0  0  0
 19 26  1  0  0  0  0
 20 28  1  0  0  0  0
 20 21  2  0  0  0  0
 22 21  1  0  0  0  0
 22 18  2  0  0  0  0
 23 25  2  0  0  0  0
 23 24  1  0  0  0  0
 24 22  1  0  0  0  0
 25 20  1  0  0  0  0
 26 27  2  0  0  0  0
 27 18  1  0  0  0  0
 28 29  2  0  0  0  0
 30 28  2  0  0  0  0
 31 13  1  0  0  0  0
 32 31  1  0  0  0  0
 33 34  1  0  0  0  0
 33 32  1  0  0  0  0
 34 32  1  0  0  0  0
M  END
>  <MODEL>
4

>  <REMARK>
 VINA RESULT:      -9.4      1.602      2.206
  Name = 
  4 active torsions:
  status: ('A' for Active; 'I' for Inactive)
    1  A    between atoms: C_3  and  O_25
    2  A    between atoms: C_7  and  N_11
    3  A    between atoms: C_18  and  C_30
    4  A    between atoms: C_23  and  O_25
                            x       y       z     vdW  Elec       q    Type
                         _______ _______ _______ _____ _____    ______ ____

>  <TORSDO>
F 4

$$$$
=
 OpenBabel11052415523D

 34 40  0  0  0  0  0  0  0  0999 V2000
  185.3310  178.0150  141.6720 C   0  0  0  0  0  0  0  0  0  0  0  0
  185.1500  178.3970  137.9040 C   0  0  0  0  0  3  0  0  0  0  0  0
  183.0350  177.7790  139.5390 S   0  0  0  0  0  0  0  0  0  0  0  0
  184.8150  178.4460  144.3440 N   0  0  0  0  0  0  0  0  0  0  0  0
  186.2930  177.8370  142.6200 N   0  0  0  0  0  0  0  0  0  0  0  0
  183.8180  178.6480  143.4480 C   0  0  0  0  0  0  0  0  0  0  0  0
  181.5600  179.3640  142.9560 C   0  0  0  0  0  3  0  0  0  0  0  0
  182.5890  179.1540  143.8760 C   0  0  0  0  0  3  0  0  0  0  0  0
  186.0420  178.0130  143.9460 C   0  0  0  0  0  0  0  0  0  0  0  0
  182.9690  178.5230  141.1690 C   0  0  0  0  0  0  0  0  0  0  0  0
  184.0310  178.3720  142.0800 C   0  0  0  0  0  0  0  0  0  0  0  0
  181.7450  179.0330  141.6100 C   0  0  0  0  0  3  0  0  0  0  0  0
  186.5010  178.5360  137.5780 C   0  0  0  0  0  0  0  0  0  0  0  0
  187.4680  178.4170  138.5860 C   0  0  0  0  0  3  0  0  0  0  0  0
  184.7560  178.1560  139.2240 C   0  0  0  0  0  0  0  0  0  0  0  0
  187.0790  178.1900  139.9080 C   0  0  0  0  0  3  0  0  0  0  0  0
  185.7230  178.0610  140.2430 C   0  0  0  0  0  0  0  0  0  0  0  0
  187.8620  177.7550  147.2520 C   0  0  0  0  0  3  0  0  0  0  0  0
  188.3940  177.4060  144.5230 C   0  0  0  0  0  3  0  0  0  0  0  0
  191.4340  176.7750  147.3610 C   0  0  0  0  0  0  0  0  0  0  0  0
  190.1510  177.1610  147.7760 C   0  0  0  0  0  3  0  0  0  0  0  0
  189.1380  177.3710  146.8370 C   0  0  0  0  0  0  0  0  0  0  0  0
  190.6830  176.8120  145.0460 C   0  0  0  0  0  3  0  0  0  0  0  0
  189.4070  177.1960  145.4620 C   0  0  0  0  0  0  0  0  0  0  0  0
  191.6920  176.6030  145.9910 C   0  0  0  0  0  3  0  0  0  0  0  0
  187.1100  177.7910  144.9380 C   0  0  0  0  0  0  0  0  0  0  0  0
  186.8530  177.9630  146.3070 C   0  0  0  0  0  3  0  0  0  0  0  0
  192.4700  176.5610  148.3290 N   0  0  0  0  0  0  0  0  0  0  0  0
  193.1110  175.4890  148.3450 O   0  0  0  0  0  0  0  0  0  0  0  0
  192.7700  177.5360  149.2520 O   0  0  0  0  0  0  0  0  0  0  0  0
  186.8550  178.7790  136.2470 O   0  0  0  0  0  0  0  0  0  0  0  0
  186.6730  177.8190  135.2150 C   0  0  0  0  0  3  0  0  0  0  0  0
  188.0200  177.4670  134.6170 C   0  0  0  0  0  2  0  0  0  0  0  0
  187.3640  176.5310  135.6090 C   0  0  0  0  0  2  0  0  0  0  0  0
  1 11  1  0  0  0  0
  1  5  2  0  0  0  0
  2 15  1  0  0  0  0
  3 10  1  0  0  0  0
  5  9  1  0  0  0  0
  6  8  1  0  0  0  0
  6  4  1  0  0  0  0
  7  8  2  0  0  0  0
  9  4  2  0  0  0  0
  9 26  1  0  0  0  0
 10 12  2  0  0  0  0
 10 11  1  0  0  0  0
 11  6  2  0  0  0  0
 12  7  1  0  0  0  0
 13  2  2  0  0  0  0
 13 14  1  0  0  0  0
 14 16  2  0  0  0  0
 15  3  1  0  0  0  0
 15 17  2  0  0  0  0
 16 17  1  0  0  0  0
 17  1  1  0  0  0  0
 19 26  2  0  0  0  0
 19 24  1  0  0  0  0
 20 21  1  0  0  0  0
 20 28  1  0  0  0  0
 22 18  1  0  0  0  0
 22 21  2  0  0  0  0
 23 24  2  0  0  0  0
 23 25  1  0  0  0  0
 24 22  1  0  0  0  0
 25 20  2  0  0  0  0
 26 27  1  0  0  0  0
 27 18  2  0  0  0  0
 28 29  2  0  0  0  0
 28 30  2  0  0  0  0
 31 13  1  0  0  0  0
 32 34  1  0  0  0  0
 32 31  1  0  0  0  0
 33 32  1  0  0  0  0
 33 34  1  0  0  0  0
M  END
>  <MODEL>
5

>  <REMARK>
 VINA RESULT:      -9.3      4.055      8.205
  Name = 
  4 active torsions:
  status: ('A' for Active; 'I' for Inactive)
    1  A    between atoms: C_3  and  O_25
    2  A    between atoms: C_7  and  N_11
    3  A    between atoms: C_18  and  C_30
    4  A    between atoms: C_23  and  O_25
                            x       y       z     vdW  Elec       q    Type
                         _______ _______ _______ _____ _____    ______ ____

>  <TORSDO>
F 4

$$$$
=
 OpenBabel11052415523D

 34 40  0  0  0  0  0  0  0  0999 V2000
  182.4240  178.1950  140.9370 C   0  0  0  0  0  0  0  0  0  0  0  0
  182.0580  177.7310  137.1910 C   0  0  0  0  0  3  0  0  0  0  0  0
  179.9890  177.7860  138.9920 S   0  0  0  0  0  0  0  0  0  0  0  0
  182.1300  179.2860  143.4490 N   0  0  0  0  0  0  0  0  0  0  0  0
  183.4130  178.1110  141.8690 N   0  0  0  0  0  0  0  0  0  0  0  0
  181.1120  179.4100  142.5630 C   0  0  0  0  0  0  0  0  0  0  0  0
  178.9310  180.2880  141.9900 C   0  0  0  0  0  3  0  0  0  0  0  0
  179.9810  180.1580  142.9010 C   0  0  0  0  0  3  0  0  0  0  0  0
  183.2680  178.6150  143.1240 C   0  0  0  0  0  0  0  0  0  0  0  0
  180.1140  178.8840  140.4050 C   0  0  0  0  0  0  0  0  0  0  0  0
  181.2040  178.8040  141.2920 C   0  0  0  0  0  0  0  0  0  0  0  0
  178.9900  179.6390  140.7540 C   0  0  0  0  0  3  0  0  0  0  0  0
  183.3930  177.6110  136.7990 C   0  0  0  0  0  0  0  0  0  0  0  0
  184.3990  177.5980  137.7760 C   0  0  0  0  0  3  0  0  0  0  0  0
  181.7200  177.8500  138.5430 C   0  0  0  0  0  0  0  0  0  0  0  0
  184.0670  177.7300  139.1260 C   0  0  0  0  0  3  0  0  0  0  0  0
  182.7290  177.8620  139.5250 C   0  0  0  0  0  0  0  0  0  0  0  0
  185.2120  178.7980  146.3650 C   0  0  0  0  0  3  0  0  0  0  0  0
  185.5910  177.9270  143.7280 C   0  0  0  0  0  3  0  0  0  0  0  0
  188.7010  177.5600  146.5360 C   0  0  0  0  0  0  0  0  0  0  0  0
  187.4710  178.1190  146.9150 C   0  0  0  0  0  3  0  0  0  0  0  0
  186.4350  178.2420  145.9850 C   0  0  0  0  0  0  0  0  0  0  0  0
  187.8500  177.2470  144.2780 C   0  0  0  0  0  3  0  0  0  0  0  0
  186.6270  177.8030  144.6570 C   0  0  0  0  0  0  0  0  0  0  0  0
  188.8820  177.1270  145.2120 C   0  0  0  0  0  3  0  0  0  0  0  0
  184.3600  178.4850  144.1060 C   0  0  0  0  0  0  0  0  0  0  0  0
  184.1800  178.9180  145.4290 C   0  0  0  0  0  3  0  0  0  0  0  0
  189.7610  177.4350  147.4940 N   0  0  0  0  0  0  0  0  0  0  0  0
  190.6690  176.5950  147.3290 O   0  0  0  0  0  0  0  0  0  0  0  0
  189.7880  178.2430  148.6080 O   0  0  0  0  0  0  0  0  0  0  0  0
  183.6910  177.4970  135.4380 O   0  0  0  0  0  0  0  0  0  0  0  0
  183.6980  176.2510  134.7540 C   0  0  0  0  0  3  0  0  0  0  0  0
  185.1270  175.7760  134.5940 C   0  0  0  0  0  2  0  0  0  0  0  0
  184.2490  175.1830  135.6740 C   0  0  0  0  0  2  0  0  0  0  0  0
  1 11  1  0  0  0  0
  1  5  2  0  0  0  0
  2 15  1  0  0  0  0
  3 10  1  0  0  0  0
  5  9  1  0  0  0  0
  6  8  1  0  0  0  0
  6  4  1  0  0  0  0
  7  8  2  0  0  0  0
  9  4  2  0  0  0  0
  9 26  1  0  0  0  0
 10 12  2  0  0  0  0
 10 11  1  0  0  0  0
 11  6  2  0  0  0  0
 12  7  1  0  0  0  0
 13  2  2  0  0  0  0
 13 14  1  0  0  0  0
 14 16  2  0  0  0  0
 15  3  1  0  0  0  0
 15 17  2  0  0  0  0
 16 17  1  0  0  0  0
 17  1  1  0  0  0  0
 19 26  2  0  0  0  0
 19 24  1  0  0  0  0
 20 21  1  0  0  0  0
 20 28  1  0  0  0  0
 22 18  1  0  0  0  0
 22 21  2  0  0  0  0
 23 24  2  0  0  0  0
 23 25  1  0  0  0  0
 24 22  1  0  0  0  0
 25 20  2  0  0  0  0
 26 27  1  0  0  0  0
 27 18  2  0  0  0  0
 28 30  2  0  0  0  0
 29 28  2  0  0  0  0
 31 13  1  0  0  0  0
 32 31  1  0  0  0  0
 32 34  1  0  0  0  0
 33 32  1  0  0  0  0
 33 34  1  0  0  0  0
M  END
>  <MODEL>
6

>  <REMARK>
 VINA RESULT:      -9.0      4.716      8.790
  Name = 
  4 active torsions:
  status: ('A' for Active; 'I' for Inactive)
    1  A    between atoms: C_3  and  O_25
    2  A    between atoms: C_7  and  N_11
    3  A    between atoms: C_18  and  C_30
    4  A    between atoms: C_23  and  O_25
                            x       y       z     vdW  Elec       q    Type
                         _______ _______ _______ _____ _____    ______ ____

>  <TORSDO>
F 4

$$$$
=
 OpenBabel11052415523D

 34 40  0  0  0  0  0  0  0  0999 V2000
  188.8520  177.1230  138.0090 C   0  0  0  0  0  0  0  0  0  0  0  0
  186.3920  177.1950  135.1250 C   0  0  0  0  0  3  0  0  0  0  0  0
  189.1220  177.3320  134.8850 S   0  0  0  0  0  0  0  0  0  0  0  0
  190.9370  176.3010  139.6120 N   0  0  0  0  0  0  0  0  0  0  0  0
  188.8250  177.3020  139.3590 N   0  0  0  0  0  0  0  0  0  0  0  0
  191.0200  176.0870  138.2760 C   0  0  0  0  0  0  0  0  0  0  0  0
  192.1920  175.1590  136.3740 C   0  0  0  0  0  3  0  0  0  0  0  0
  192.1040  175.3810  137.7490 C   0  0  0  0  0  3  0  0  0  0  0  0
  189.8620  176.9320  140.1580 C   0  0  0  0  0  0  0  0  0  0  0  0
  190.1290  176.3870  136.0300 C   0  0  0  0  0  0  0  0  0  0  0  0
  190.0000  176.5570  137.4210 C   0  0  0  0  0  0  0  0  0  0  0  0
  191.2170  175.6750  135.5160 C   0  0  0  0  0  3  0  0  0  0  0  0
  185.1750  177.2700  135.8050 C   0  0  0  0  0  0  0  0  0  0  0  0
  185.1740  177.3830  137.2030 C   0  0  0  0  0  3  0  0  0  0  0  0
  187.6030  177.2180  135.8240 C   0  0  0  0  0  0  0  0  0  0  0  0
  186.3800  177.3930  137.9070 C   0  0  0  0  0  3  0  0  0  0  0  0
  187.6050  177.3060  137.2300 C   0  0  0  0  0  0  0  0  0  0  0  0
  190.9070  177.6600  143.7210 C   0  0  0  0  0  3  0  0  0  0  0  0
  188.5650  177.1020  142.2850 C   0  0  0  0  0  3  0  0  0  0  0  0
  188.3870  177.7580  146.4360 C   0  0  0  0  0  0  0  0  0  0  0  0
  189.6170  177.8170  145.7650 C   0  0  0  0  0  3  0  0  0  0  0  0
  189.6810  177.6010  144.3870 C   0  0  0  0  0  0  0  0  0  0  0  0
  187.2750  177.2590  144.3290 C   0  0  0  0  0  3  0  0  0  0  0  0
  188.5010  177.3190  143.6630 C   0  0  0  0  0  0  0  0  0  0  0  0
  187.2180  177.4770  145.7080 C   0  0  0  0  0  3  0  0  0  0  0  0
  189.7960  177.1620  141.6130 C   0  0  0  0  0  0  0  0  0  0  0  0
  190.9630  177.4420  142.3410 C   0  0  0  0  0  3  0  0  0  0  0  0
  188.3270  177.9820  147.8510 N   0  0  0  0  0  0  0  0  0  0  0  0
  187.2420  177.8890  148.4620 O   0  0  0  0  0  0  0  0  0  0  0  0
  189.4670  178.3020  148.5520 O   0  0  0  0  0  0  0  0  0  0  0  0
  183.9860  177.2410  135.0710 O   0  0  0  0  0  0  0  0  0  0  0  0
  182.7130  177.4810  135.6570 C   0  0  0  0  0  3  0  0  0  0  0  0
  181.8030  178.1220  134.6300 C   0  0  0  0  0  2  0  0  0  0  0  0
  181.6730  176.6460  134.9430 C   0  0  0  0  0  2  0  0  0  0  0  0
  1  5  2  0  0  0  0
  2 13  2  0  0  0  0
  2 15  1  0  0  0  0
  3 15  1  0  0  0  0
  3 10  1  0  0  0  0
  4  9  2  0  0  0  0
  5  9  1  0  0  0  0
  6  4  1  0  0  0  0
  7  8  2  0  0  0  0
  8  6  1  0  0  0  0
  9 26  1  0  0  0  0
 10 11  1  0  0  0  0
 11  1  1  0  0  0  0
 11  6  2  0  0  0  0
 12 10  2  0  0  0  0
 12  7  1  0  0  0  0
 13 14  1  0  0  0  0
 14 16  2  0  0  0  0
 15 17  2  0  0  0  0
 17 16  1  0  0  0  0
 17  1  1  0  0  0  0
 18 22  1  0  0  0  0
 19 24  1  0  0  0  0
 20 28  1  0  0  0  0
 21 20  1  0  0  0  0
 22 21  2  0  0  0  0
 23 25  1  0  0  0  0
 24 23  2  0  0  0  0
 24 22  1  0  0  0  0
 25 20  2  0  0  0  0
 26 19  2  0  0  0  0
 26 27  1  0  0  0  0
 27 18  2  0  0  0  0
 28 29  2  0  0  0  0
 28 30  2  0  0  0  0
 31 32  1  0  0  0  0
 31 13  1  0  0  0  0
 33 34  1  0  0  0  0
 33 32  1  0  0  0  0
 34 32  1  0  0  0  0
M  END
>  <MODEL>
7

>  <REMARK>
 VINA RESULT:      -8.9      4.536      8.450
  Name = 
  4 active torsions:
  status: ('A' for Active; 'I' for Inactive)
    1  A    between atoms: C_3  and  O_25
    2  A    between atoms: C_7  and  N_11
    3  A    between atoms: C_18  and  C_30
    4  A    between atoms: C_23  and  O_25
                            x       y       z     vdW  Elec       q    Type
                         _______ _______ _______ _____ _____    ______ ____

>  <TORSDO>
F 4

$$$$
=
 OpenBabel11052415523D

 34 40  0  0  0  0  0  0  0  0999 V2000
  187.2490  177.6870  143.2210 C   0  0  0  0  0  0  0  0  0  0  0  0
  183.8830  178.7610  144.5970 C   0  0  0  0  0  3  0  0  0  0  0  0
  185.8450  177.4820  146.0260 S   0  0  0  0  0  0  0  0  0  0  0  0
  189.9820  177.4920  142.9280 N   0  0  0  0  0  0  0  0  0  0  0  0
  187.8220  177.4940  142.0010 N   0  0  0  0  0  0  0  0  0  0  0  0
  189.4730  177.6920  144.1690 C   0  0  0  0  0  0  0  0  0  0  0  0
  189.8120  178.0920  146.5310 C   0  0  0  0  0  3  0  0  0  0  0  0
  190.3330  177.8860  145.2520 C   0  0  0  0  0  3  0  0  0  0  0  0
  189.1670  177.3620  141.8460 C   0  0  0  0  0  0  0  0  0  0  0  0
  187.5580  177.8710  145.6630 C   0  0  0  0  0  0  0  0  0  0  0  0
  188.0750  177.7280  144.3610 C   0  0  0  0  0  0  0  0  0  0  0  0
  188.4300  178.0670  146.7380 C   0  0  0  0  0  3  0  0  0  0  0  0
  183.2370  179.1900  143.4360 C   0  0  0  0  0  0  0  0  0  0  0  0
  183.8790  179.0440  142.1970 C   0  0  0  0  0  3  0  0  0  0  0  0
  185.1640  178.2030  144.5360 C   0  0  0  0  0  0  0  0  0  0  0  0
  185.1630  178.5000  142.1330 C   0  0  0  0  0  3  0  0  0  0  0  0
  185.8210  178.0770  143.2970 C   0  0  0  0  0  0  0  0  0  0  0  0
  189.4580  176.9460  138.0970 C   0  0  0  0  0  3  0  0  0  0  0  0
  191.1160  176.8950  140.3570 C   0  0  0  0  0  3  0  0  0  0  0  0
  192.7440  176.2520  136.5320 C   0  0  0  0  0  0  0  0  0  0  0  0
  191.3710  176.4920  136.6820 C   0  0  0  0  0  3  0  0  0  0  0  0
  190.8250  176.7070  137.9500 C   0  0  0  0  0  0  0  0  0  0  0  0
  193.0290  176.4420  138.9420 C   0  0  0  0  0  3  0  0  0  0  0  0
  191.6610  176.6810  139.0890 C   0  0  0  0  0  0  0  0  0  0  0  0
  193.5670  176.2280  137.6700 C   0  0  0  0  0  3  0  0  0  0  0  0
  189.7410  177.1370  140.5070 C   0  0  0  0  0  0  0  0  0  0  0  0
  188.9190  177.1600  139.3700 C   0  0  0  0  0  3  0  0  0  0  0  0
  193.2980  176.0320  135.2280 N   0  0  0  0  0  0  0  0  0  0  0  0
  193.1490  174.9340  134.6520 O   0  0  0  0  0  0  0  0  0  0  0  0
  194.0010  177.0320  134.5950 O   0  0  0  0  0  0  0  0  0  0  0  0
  181.9580  179.7460  143.5380 O   0  0  0  0  0  0  0  0  0  0  0  0
  180.8310  179.2130  142.8550 C   0  0  0  0  0  3  0  0  0  0  0  0
  179.8380  178.6810  143.8670 C   0  0  0  0  0  2  0  0  0  0  0  0
  179.6050  180.0250  143.2120 C   0  0  0  0  0  2  0  0  0  0  0  0
  1 17  1  0  0  0  0
  1 11  1  0  0  0  0
  4  6  1  0  0  0  0
  5  1  2  0  0  0  0
  6 11  2  0  0  0  0
  6  8  1  0  0  0  0
  7 12  1  0  0  0  0
  8  7  2  0  0  0  0
  9  5  1  0  0  0  0
  9  4  2  0  0  0  0
 10  3  1  0  0  0  0
 10 12  2  0  0  0  0
 11 10  1  0  0  0  0
 13 31  1  0  0  0  0
 13  2  2  0  0  0  0
 14 13  1  0  0  0  0
 15  2  1  0  0  0  0
 15  3  1  0  0  0  0
 16 14  2  0  0  0  0
 16 17  1  0  0  0  0
 17 15  2  0  0  0  0
 18 27  1  0  0  0  0
 19 26  1  0  0  0  0
 20 21  2  0  0  0  0
 20 25  1  0  0  0  0
 21 22  1  0  0  0  0
 22 18  2  0  0  0  0
 22 24  1  0  0  0  0
 23 24  1  0  0  0  0
 24 19  2  0  0  0  0
 25 23  2  0  0  0  0
 26  9  1  0  0  0  0
 27 26  2  0  0  0  0
 28 20  1  0  0  0  0
 29 28  2  0  0  0  0
 30 28  2  0  0  0  0
 32 34  1  0  0  0  0
 32 31  1  0  0  0  0
 32 33  1  0  0  0  0
 34 33  1  0  0  0  0
M  END
>  <MODEL>
8

>  <REMARK>
 VINA RESULT:      -8.8      2.692      9.256
  Name = 
  4 active torsions:
  status: ('A' for Active; 'I' for Inactive)
    1  A    between atoms: C_3  and  O_25
    2  A    between atoms: C_7  and  N_11
    3  A    between atoms: C_18  and  C_30
    4  A    between atoms: C_23  and  O_25
                            x       y       z     vdW  Elec       q    Type
                         _______ _______ _______ _____ _____    ______ ____

>  <TORSDO>
F 4

$$$$
=
 OpenBabel11052415523D

 34 40  0  0  0  0  0  0  0  0999 V2000
  189.9580  176.6670  137.8490 C   0  0  0  0  0  0  0  0  0  0  0  0
  193.0230  175.9020  135.7510 C   0  0  0  0  0  3  0  0  0  0  0  0
  190.4260  175.7570  134.8780 S   0  0  0  0  0  0  0  0  0  0  0  0
  187.6160  177.8650  138.6670 N   0  0  0  0  0  0  0  0  0  0  0  0
  189.6510  176.7990  139.1690 N   0  0  0  0  0  0  0  0  0  0  0  0
  187.8690  177.7700  137.3390 C   0  0  0  0  0  0  0  0  0  0  0  0
  187.2520  178.2590  135.0510 C   0  0  0  0  0  3  0  0  0  0  0  0
  186.9950  178.3550  136.4200 C   0  0  0  0  0  3  0  0  0  0  0  0
  188.4820  177.3580  139.5860 C   0  0  0  0  0  0  0  0  0  0  0  0
  189.2450  176.9530  135.5040 C   0  0  0  0  0  0  0  0  0  0  0  0
  189.0270  177.1020  136.8870 C   0  0  0  0  0  0  0  0  0  0  0  0
  188.3640  177.5460  134.5950 C   0  0  0  0  0  3  0  0  0  0  0  0
  194.0350  175.9650  136.7120 C   0  0  0  0  0  0  0  0  0  0  0  0
  193.6950  176.1730  138.0570 C   0  0  0  0  0  3  0  0  0  0  0  0
  191.6820  176.0580  136.1170 C   0  0  0  0  0  0  0  0  0  0  0  0
  192.3590  176.3430  138.4240 C   0  0  0  0  0  3  0  0  0  0  0  0
  191.3390  176.2920  137.4620 C   0  0  0  0  0  0  0  0  0  0  0  0
  188.8120  177.0670  143.3440 C   0  0  0  0  0  3  0  0  0  0  0  0
  186.9890  178.0600  141.4600 C   0  0  0  0  0  3  0  0  0  0  0  0
  186.1450  178.3580  145.5710 C   0  0  0  0  0  0  0  0  0  0  0  0
  187.3390  177.7610  145.1370 C   0  0  0  0  0  3  0  0  0  0  0  0
  187.6230  177.6610  143.7730 C   0  0  0  0  0  0  0  0  0  0  0  0
  185.5160  178.7550  143.2530 C   0  0  0  0  0  3  0  0  0  0  0  0
  186.7040  178.1610  142.8240 C   0  0  0  0  0  0  0  0  0  0  0  0
  185.2380  178.8520  144.6200 C   0  0  0  0  0  3  0  0  0  0  0  0
  188.1830  177.4650  141.0260 C   0  0  0  0  0  0  0  0  0  0  0  0
  189.0900  176.9700  141.9770 C   0  0  0  0  0  3  0  0  0  0  0  0
  185.8580  178.4580  146.9720 N   0  0  0  0  0  0  0  0  0  0  0  0
  186.7840  178.5690  147.8020 O   0  0  0  0  0  0  0  0  0  0  0  0
  184.5570  178.4350  147.4180 O   0  0  0  0  0  0  0  0  0  0  0  0
  195.3640  175.8070  136.3070 O   0  0  0  0  0  0  0  0  0  0  0  0
  195.7310  175.5320  134.9620 C   0  0  0  0  0  3  0  0  0  0  0  0
  197.0610  176.1910  134.6620 C   0  0  0  0  0  2  0  0  0  0  0  0
  197.0000  174.7070  134.9530 C   0  0  0  0  0  2  0  0  0  0  0  0
  1  5  2  0  0  0  0
  2 15  2  0  0  0  0
  2 13  1  0  0  0  0
  3 10  1  0  0  0  0
  3 15  1  0  0  0  0
  4  9  2  0  0  0  0
  5  9  1  0  0  0  0
  6  4  1  0  0  0  0
  7  8  1  0  0  0  0
  8  6  2  0  0  0  0
  9 26  1  0  0  0  0
 10 11  2  0  0  0  0
 11  6  1  0  0  0  0
 11  1  1  0  0  0  0
 12  7  2  0  0  0  0
 12 10  1  0  0  0  0
 13 14  2  0  0  0  0
 14 16  1  0  0  0  0
 15 17  1  0  0  0  0
 17  1  1  0  0  0  0
 17 16  2  0  0  0  0
 18 22  1  0  0  0  0
 19 24  1  0  0  0  0
 20 28  1  0  0  0  0
 21 20  1  0  0  0  0
 22 21  2  0  0  0  0
 23 25  1  0  0  0  0
 24 23  2  0  0  0  0
 24 22  1  0  0  0  0
 25 20  2  0  0  0  0
 26 19  2  0  0  0  0
 26 27  1  0  0  0  0
 27 18  2  0  0  0  0
 28 30  2  0  0  0  0
 28 29  2  0  0  0  0
 31 13  1  0  0  0  0
 32 31  1  0  0  0  0
 33 34  1  0  0  0  0
 33 32  1  0  0  0  0
 34 32  1  0  0  0  0
M  END
>  <MODEL>
9

>  <REMARK>
 VINA RESULT:      -8.4      3.981      6.914
  Name = 
  4 active torsions:
  status: ('A' for Active; 'I' for Inactive)
    1  A    between atoms: C_3  and  O_25
    2  A    between atoms: C_7  and  N_11
    3  A    between atoms: C_18  and  C_30
    4  A    between atoms: C_23  and  O_25
                            x       y       z     vdW  Elec       q    Type
                         _______ _______ _______ _____ _____    ______ ____

>  <TORSDO>
F 4

$$$$
