=
 OpenBabel11052416103D

 43 50  0  0  1  0  0  0  0  0999 V2000
  184.4740  178.6140  145.4780 C   0  0  0  0  0  0  0  0  0  0  0  0
  182.3410  178.9180  140.9090 C   0  0  0  0  0  0  0  0  0  0  0  0
  184.3620  178.2950  139.0310 C   0  0  0  0  0  0  0  0  0  0  0  0
  182.9090  178.9240  143.6560 C   0  0  0  0  0  0  0  0  0  0  0  0
  185.4840  178.3010  144.5630 C   0  0  0  0  0  3  0  0  0  0  0  0
  184.7410  178.6190  146.8050 F   0  0  0  0  0  0  0  0  0  0  0  0
  183.9280  178.6070  142.7270 C   0  0  0  0  0  0  0  0  0  0  0  0
  183.1890  178.9260  145.0260 C   0  0  0  0  0  3  0  0  0  0  0  0
  185.2130  178.2980  143.1920 C   0  0  0  0  0  3  0  0  0  0  0  0
  184.6260  178.3030  140.4090 O   0  0  0  0  0  0  0  0  0  0  0  0
  183.6380  178.6080  141.3540 C   0  0  0  0  0  0  0  0  0  0  0  0
  181.3400  179.2320  141.8390 C   0  0  0  0  0  3  0  0  0  0  0  0
  182.0780  178.9060  139.4940 N   0  0  0  0  0  0  0  0  0  0  0  0
  183.1350  178.5860  138.5810 C   0  0  0  0  0  3  0  0  0  0  0  0
  181.6240  179.2340  143.2070 C   0  0  0  0  0  3  0  0  0  0  0  0
  185.4390  177.9650  138.0880 C   0  0  0  0  0  0  0  0  0  0  0  0
  186.7080  178.6170  138.1870 N   0  0  0  0  0  2  0  0  0  0  0  0
  185.2360  177.1090  137.1860 O   0  0  0  0  0  0  0  0  0  0  0  0
  189.1360  178.5720  137.9890 C   0  0  1  0  0  3  0  0  0  0  0  0
  189.4200  177.5420  139.0600 C   0  0  2  0  0  0  0  0  0  0  0  0
  188.6140  177.1410  137.8430 C   0  0  1  0  0  3  0  0  0  0  0  0
  188.6210  177.6690  140.3510 C   0  0  0  0  0  1  0  0  0  0  0  0
  187.8120  178.3060  137.2920 C   0  0  1  0  0  3  0  0  0  0  0  0
  190.8440  176.9880  139.0880 C   0  0  1  0  0  3  0  0  0  0  0  0
  191.5040  177.2520  140.4050 C   0  0  0  0  0  3  0  0  0  0  0  0
  192.6520  177.6680  140.4530 O   0  0  0  0  0  0  0  0  0  0  0  0
  190.8250  175.6090  138.8430 O   0  0  0  0  0  0  0  0  0  0  0  0
  191.6200  174.3170  137.1260 C   0  0  0  0  0  0  0  0  0  0  0  0
  191.2570  176.1580  135.4400 C   0  0  0  0  0  3  0  0  0  0  0  0
  191.0090  173.6330  135.0360 C   0  0  0  0  0  3  0  0  0  0  0  0
  190.9660  175.0300  134.5940 C   0  0  0  0  0  3  0  0  0  0  0  0
  191.3500  173.2160  136.3710 C   0  0  0  0  0  3  0  0  0  0  0  0
  191.5770  175.7080  136.6860 C   0  0  0  0  0  0  0  0  0  0  0  0
  191.9190  175.3720  138.0060 C   0  0  1  0  0  3  0  0  0  0  0  0
  180.7380  179.1340  138.9650 C   0  0  0  0  0  2  0  0  0  0  0  0
  180.9320  182.6510  137.5640 C   0  0  0  0  0  3  0  0  0  0  0  0
  180.6810  182.4210  136.2080 C   0  0  0  0  0  0  0  0  0  0  0  0
  180.4860  180.0430  136.6480 C   0  0  0  0  0  3  0  0  0  0  0  0
  180.9680  181.5790  138.4600 C   0  0  0  0  0  3  0  0  0  0  0  0
  180.7500  180.2730  138.0020 C   0  0  0  0  0  0  0  0  0  0  0  0
  180.4530  181.1160  135.7520 C   0  0  0  0  0  3  0  0  0  0  0  0
  180.9660  184.8600  135.9750 C   0  0  0  0  0  1  0  0  0  0  0  0
  180.6250  183.5660  135.2560 C   0  0  0  0  0  2  0  0  0  0  0  0
  1  6  1  0  0  0  0
  2 11  2  0  0  0  0
  2 12  1  0  0  0  0
  3 10  1  0  0  0  0
  4  8  2  0  0  0  0
  5  1  2  0  0  0  0
  7  9  2  0  0  0  0
  7  4  1  0  0  0  0
  8  1  1  0  0  0  0
  9  5  1  0  0  0  0
 10 11  1  0  0  0  0
 11  7  1  0  0  0  0
 12 15  2  0  0  0  0
 13  2  1  0  0  0  0
 14  3  2  0  0  0  0
 14 13  1  0  0  0  0
 15  4  1  0  0  0  0
 16 17  1  0  0  0  0
 16  3  1  0  0  0  0
 18 16  2  0  0  0  0
 19 20  1  0  0  0  0
 20 24  1  0  0  0  0
 20 22  1  0  0  0  0
 21 19  1  0  0  0  0
 21 20  1  0  0  0  0
 23 21  1  0  0  0  0
 23 19  1  0  0  0  0
 23 17  1  0  0  0  0
 24 25  1  0  0  0  0
 25 26  2  0  0  0  0
 27 24  1  0  0  0  0
 28 34  1  0  0  0  0
 29 33  2  0  0  0  0
 30 32  1  0  0  0  0
 31 30  2  0  0  0  0
 31 29  1  0  0  0  0
 32 28  2  0  0  0  0
 33 28  1  0  0  0  0
 33 34  1  0  0  0  0
 34 27  1  0  0  0  0
 35 13  1  0  0  0  0
 36 39  1  0  0  0  0
 37 36  2  0  0  0  0
 38 40  1  0  0  0  0
 40 39  2  0  0  0  0
 40 35  1  0  0  0  0
 41 37  1  0  0  0  0
 41 38  2  0  0  0  0
 43 42  1  0  0  0  0
 43 37  1  0  0  0  0
M  END
>  <MODEL>
1

>  <REMARK>
 VINA RESULT:      -9.5      0.000      0.000
  Name = 
  9 active torsions:
  status: ('A' for Active; 'I' for Inactive)
    1  A    between atoms: C_1  and  N_34
    2  A    between atoms: C_1  and  C_35
    3  A    between atoms: C_2  and  C_13
    4  A    between atoms: C_4  and  C_22
    5  A    between atoms: N_6  and  C_17
    6  A    between atoms: C_10  and  C_22
    7  A    between atoms: O_14  and  C_22
    8  A    between atoms: O_14  and  C_41
    9  A    between atoms: C_19  and  C_37
                            x       y       z     vdW  Elec       q    Type
                         _______ _______ _______ _____ _____    ______ ____

>  <TORSDO>
F 9

$$$$
=
 OpenBabel11052416103D

 43 50  0  0  1  0  0  0  0  0999 V2000
  189.8410  177.0060  147.1250 C   0  0  0  0  0  0  0  0  0  0  0  0
  185.6670  178.7190  144.8530 C   0  0  0  0  0  0  0  0  0  0  0  0
  186.1620  178.6180  142.0710 C   0  0  0  0  0  0  0  0  0  0  0  0
  187.6320  177.8910  146.6760 C   0  0  0  0  0  0  0  0  0  0  0  0
  190.1010  176.9480  145.7520 C   0  0  0  0  0  3  0  0  0  0  0  0
  190.7850  176.6090  148.0100 F   0  0  0  0  0  0  0  0  0  0  0  0
  187.8910  177.8330  145.2860 C   0  0  0  0  0  0  0  0  0  0  0  0
  188.6090  177.4780  147.5860 C   0  0  0  0  0  3  0  0  0  0  0  0
  189.1300  177.3590  144.8350 C   0  0  0  0  0  3  0  0  0  0  0  0
  187.1330  178.2080  142.9980 O   0  0  0  0  0  0  0  0  0  0  0  0
  186.9050  178.2500  144.3800 C   0  0  0  0  0  0  0  0  0  0  0  0
  185.4220  178.7730  146.2320 C   0  0  0  0  0  3  0  0  0  0  0  0
  184.6770  179.1340  143.8950 N   0  0  0  0  0  0  0  0  0  0  0  0
  184.9750  179.0670  142.4950 C   0  0  0  0  0  3  0  0  0  0  0  0
  186.4010  178.3600  147.1390 C   0  0  0  0  0  3  0  0  0  0  0  0
  186.4590  178.5480  140.6330 C   0  0  0  0  0  0  0  0  0  0  0  0
  187.7720  178.2060  140.1850 N   0  0  0  0  0  2  0  0  0  0  0  0
  185.5500  178.8000  139.7970 O   0  0  0  0  0  0  0  0  0  0  0  0
  189.6170  178.1270  138.5940 C   0  0  1  0  0  3  0  0  0  0  0  0
  190.2570  176.8430  139.0720 C   0  0  2  0  0  0  0  0  0  0  0  0
  188.8520  176.8050  138.5110 C   0  0  1  0  0  3  0  0  0  0  0  0
  190.3560  176.6560  140.5800 C   0  0  0  0  0  1  0  0  0  0  0  0
  188.1080  178.1020  138.7720 C   0  0  1  0  0  3  0  0  0  0  0  0
  191.3230  176.2500  138.1500 C   0  0  1  0  0  3  0  0  0  0  0  0
  192.6970  176.6880  138.5560 C   0  0  0  0  0  3  0  0  0  0  0  0
  193.5810  176.8120  137.7230 O   0  0  0  0  0  0  0  0  0  0  0  0
  191.2520  174.8520  138.1760 O   0  0  0  0  0  0  0  0  0  0  0  0
  190.4860  173.6860  136.3590 C   0  0  0  0  0  0  0  0  0  0  0  0
  189.8940  175.8040  135.1240 C   0  0  0  0  0  3  0  0  0  0  0  0
  188.6400  173.5650  135.0220 C   0  0  0  0  0  3  0  0  0  0  0  0
  188.8290  174.9660  134.6370 C   0  0  0  0  0  3  0  0  0  0  0  0
  189.4970  172.8520  135.9330 C   0  0  0  0  0  3  0  0  0  0  0  0
  190.6740  175.0820  135.9760 C   0  0  0  0  0  0  0  0  0  0  0  0
  191.5500  174.4470  136.8710 C   0  0  1  0  0  3  0  0  0  0  0  0
  183.3420  179.5510  144.3090 C   0  0  0  0  0  2  0  0  0  0  0  0
  181.6100  178.2610  141.1940 C   0  0  0  0  0  3  0  0  0  0  0  0
  180.3490  177.9260  141.6990 C   0  0  0  0  0  0  0  0  0  0  0  0
  181.0480  178.6340  143.9110 C   0  0  0  0  0  3  0  0  0  0  0  0
  182.5900  178.7740  142.0460 C   0  0  0  0  0  3  0  0  0  0  0  0
  182.3130  178.9560  143.4070 C   0  0  0  0  0  0  0  0  0  0  0  0
  180.0680  178.1170  143.0580 C   0  0  0  0  0  3  0  0  0  0  0  0
  179.4340  175.8890  140.6510 C   0  0  0  0  0  1  0  0  0  0  0  0
  179.2980  177.3960  140.7850 C   0  0  0  0  0  2  0  0  0  0  0  0
  1  8  1  0  0  0  0
  1  6  1  0  0  0  0
  2 12  1  0  0  0  0
  3 14  2  0  0  0  0
  3 10  1  0  0  0  0
  4 15  1  0  0  0  0
  4  8  2  0  0  0  0
  5  1  2  0  0  0  0
  7  4  1  0  0  0  0
  9  7  2  0  0  0  0
  9  5  1  0  0  0  0
 10 11  1  0  0  0  0
 11  2  2  0  0  0  0
 11  7  1  0  0  0  0
 12 15  2  0  0  0  0
 13 35  1  0  0  0  0
 13  2  1  0  0  0  0
 14 13  1  0  0  0  0
 16  3  1  0  0  0  0
 17 16  1  0  0  0  0
 18 16  2  0  0  0  0
 19 23  1  0  0  0  0
 19 20  1  0  0  0  0
 20 22  1  0  0  0  0
 21 19  1  0  0  0  0
 21 23  1  0  0  0  0
 21 20  1  0  0  0  0
 23 17  1  0  0  0  0
 24 27  1  0  0  0  0
 24 25  1  0  0  0  0
 24 20  1  0  0  0  0
 26 25  2  0  0  0  0
 28 34  1  0  0  0  0
 29 33  2  0  0  0  0
 30 32  1  0  0  0  0
 31 30  2  0  0  0  0
 31 29  1  0  0  0  0
 32 28  2  0  0  0  0
 33 28  1  0  0  0  0
 33 34  1  0  0  0  0
 34 27  1  0  0  0  0
 36 37  2  0  0  0  0
 36 39  1  0  0  0  0
 37 41  1  0  0  0  0
 39 40  2  0  0  0  0
 40 38  1  0  0  0  0
 40 35  1  0  0  0  0
 41 38  2  0  0  0  0
 42 43  1  0  0  0  0
 43 37  1  0  0  0  0
M  END
>  <MODEL>
2

>  <REMARK>
 VINA RESULT:      -9.2      3.286      4.688
  Name = 
  9 active torsions:
  status: ('A' for Active; 'I' for Inactive)
    1  A    between atoms: C_1  and  N_34
    2  A    between atoms: C_1  and  C_35
    3  A    between atoms: C_2  and  C_13
    4  A    between atoms: C_4  and  C_22
    5  A    between atoms: N_6  and  C_17
    6  A    between atoms: C_10  and  C_22
    7  A    between atoms: O_14  and  C_22
    8  A    between atoms: O_14  and  C_41
    9  A    between atoms: C_19  and  C_37
                            x       y       z     vdW  Elec       q    Type
                         _______ _______ _______ _____ _____    ______ ____

>  <TORSDO>
F 9

$$$$
=
 OpenBabel11052416103D

 43 50  0  0  1  0  0  0  0  0999 V2000
  190.7060  176.9080  146.8590 C   0  0  0  0  0  0  0  0  0  0  0  0
  189.8240  177.5400  141.9260 C   0  0  0  0  0  0  0  0  0  0  0  0
  187.1590  178.4570  141.6920 C   0  0  0  0  0  0  0  0  0  0  0  0
  190.9220  176.9950  144.4480 C   0  0  0  0  0  0  0  0  0  0  0  0
  189.3870  177.3630  146.7620 C   0  0  0  0  0  3  0  0  0  0  0  0
  191.2430  176.6420  148.0730 F   0  0  0  0  0  0  0  0  0  0  0  0
  189.5880  177.4550  144.3450 C   0  0  0  0  0  0  0  0  0  0  0  0
  191.4720  176.7230  145.7040 C   0  0  0  0  0  3  0  0  0  0  0  0
  188.8300  177.6360  145.5100 C   0  0  0  0  0  3  0  0  0  0  0  0
  187.7260  178.1780  142.9460 O   0  0  0  0  0  0  0  0  0  0  0  0
  189.0450  177.7250  143.0810 C   0  0  0  0  0  0  0  0  0  0  0  0
  191.1440  177.0820  142.0400 C   0  0  0  0  0  3  0  0  0  0  0  0
  189.2350  177.8300  140.6450 N   0  0  0  0  0  0  0  0  0  0  0  0
  187.8800  178.2900  140.5770 C   0  0  0  0  0  3  0  0  0  0  0  0
  191.6890  176.8110  143.2970 C   0  0  0  0  0  3  0  0  0  0  0  0
  185.7700  178.9320  141.6150 C   0  0  0  0  0  0  0  0  0  0  0  0
  185.0620  178.8860  140.3740 N   0  0  0  0  0  2  0  0  0  0  0  0
  185.2100  179.3880  142.6470 O   0  0  0  0  0  0  0  0  0  0  0  0
  183.2510  179.2930  138.7950 C   0  0  1  0  0  3  0  0  0  0  0  0
  183.0830  177.8760  138.2920 C   0  0  2  0  0  0  0  0  0  0  0  0
  182.8160  178.1800  139.7500 C   0  0  1  0  0  3  0  0  0  0  0  0
  184.3630  177.0990  138.0170 C   0  0  0  0  0  1  0  0  0  0  0  0
  183.6790  179.3230  140.2530 C   0  0  1  0  0  3  0  0  0  0  0  0
  181.8280  177.6120  137.4600 C   0  0  1  0  0  3  0  0  0  0  0  0
  181.9520  178.1960  136.0870 C   0  0  0  0  0  3  0  0  0  0  0  0
  181.0710  178.9080  135.6320 O   0  0  0  0  0  0  0  0  0  0  0  0
  181.6020  176.2340  137.3620 O   0  0  0  0  0  0  0  0  0  0  0  0
  179.9590  174.9200  138.2700 C   0  0  0  0  0  0  0  0  0  0  0  0
  179.5710  176.5410  140.1630 C   0  0  0  0  0  3  0  0  0  0  0  0
  179.3880  173.9810  140.2700 C   0  0  0  0  0  3  0  0  0  0  0  0
  179.3130  175.3150  140.8730 C   0  0  0  0  0  3  0  0  0  0  0  0
  179.7290  173.7320  138.8940 C   0  0  0  0  0  3  0  0  0  0  0  0
  179.8830  176.2490  138.8690 C   0  0  0  0  0  0  0  0  0  0  0  0
  180.2210  176.0780  137.5170 C   0  0  1  0  0  3  0  0  0  0  0  0
  190.0090  177.7440  139.4120 C   0  0  0  0  0  2  0  0  0  0  0  0
  187.7870  176.2970  136.7030 C   0  0  0  0  0  3  0  0  0  0  0  0
  187.4600  177.4440  135.9730 C   0  0  0  0  0  0  0  0  0  0  0  0
  188.7820  178.7890  137.4990 C   0  0  0  0  0  3  0  0  0  0  0  0
  188.6040  176.3950  137.8330 C   0  0  0  0  0  3  0  0  0  0  0  0
  189.0970  177.6430  138.2350 C   0  0  0  0  0  0  0  0  0  0  0  0
  187.9630  178.6900  136.3700 C   0  0  0  0  0  3  0  0  0  0  0  0
  185.8820  176.0000  134.7460 C   0  0  0  0  0  1  0  0  0  0  0  0
  186.6050  177.3350  134.7580 C   0  0  0  0  0  2  0  0  0  0  0  0
  1  6  1  0  0  0  0
  2 12  2  0  0  0  0
  2 11  1  0  0  0  0
  3 10  1  0  0  0  0
  4  8  1  0  0  0  0
  5  1  1  0  0  0  0
  7  4  1  0  0  0  0
  7  9  1  0  0  0  0
  8  1  2  0  0  0  0
  9  5  2  0  0  0  0
 10 11  1  0  0  0  0
 11  7  2  0  0  0  0
 12 15  1  0  0  0  0
 13  2  1  0  0  0  0
 14 13  1  0  0  0  0
 14  3  2  0  0  0  0
 15  4  2  0  0  0  0
 16  3  1  0  0  0  0
 16 18  2  0  0  0  0
 17 16  1  0  0  0  0
 19 21  1  0  0  0  0
 19 23  1  0  0  0  0
 20 19  1  0  0  0  0
 20 21  1  0  0  0  0
 21 23  1  0  0  0  0
 22 20  1  0  0  0  0
 23 17  1  0  0  0  0
 24 20  1  0  0  0  0
 25 24  1  0  0  0  0
 26 25  2  0  0  0  0
 27 24  1  0  0  0  0
 27 34  1  0  0  0  0
 28 33  2  0  0  0  0
 28 32  1  0  0  0  0
 29 31  2  0  0  0  0
 30 31  1  0  0  0  0
 32 30  2  0  0  0  0
 33 29  1  0  0  0  0
 34 28  1  0  0  0  0
 34 33  1  0  0  0  0
 35 13  1  0  0  0  0
 36 39  1  0  0  0  0
 37 41  1  0  0  0  0
 37 36  2  0  0  0  0
 38 40  1  0  0  0  0
 39 40  2  0  0  0  0
 40 35  1  0  0  0  0
 41 38  2  0  0  0  0
 42 43  1  0  0  0  0
 43 37  1  0  0  0  0
M  END
>  <MODEL>
3

>  <REMARK>
 VINA RESULT:      -8.8      3.442      8.575
  Name = 
  9 active torsions:
  status: ('A' for Active; 'I' for Inactive)
    1  A    between atoms: C_1  and  N_34
    2  A    between atoms: C_1  and  C_35
    3  A    between atoms: C_2  and  C_13
    4  A    between atoms: C_4  and  C_22
    5  A    between atoms: N_6  and  C_17
    6  A    between atoms: C_10  and  C_22
    7  A    between atoms: O_14  and  C_22
    8  A    between atoms: O_14  and  C_41
    9  A    between atoms: C_19  and  C_37
                            x       y       z     vdW  Elec       q    Type
                         _______ _______ _______ _____ _____    ______ ____

>  <TORSDO>
F 9

$$$$
=
 OpenBabel11052416103D

 43 50  0  0  1  0  0  0  0  0999 V2000
  183.3640  178.8010  144.7410 C   0  0  0  0  0  0  0  0  0  0  0  0
  182.0510  178.7530  139.8640 C   0  0  0  0  0  0  0  0  0  0  0  0
  184.3740  178.0580  138.4080 C   0  0  0  0  0  0  0  0  0  0  0  0
  182.1340  178.9520  142.6600 C   0  0  0  0  0  0  0  0  0  0  0  0
  184.5210  178.4530  144.0370 C   0  0  0  0  0  3  0  0  0  0  0  0
  183.3970  178.8990  146.0910 F   0  0  0  0  0  0  0  0  0  0  0  0
  183.3030  178.6010  141.9440 C   0  0  0  0  0  0  0  0  0  0  0  0
  182.1720  179.0500  144.0540 C   0  0  0  0  0  3  0  0  0  0  0  0
  184.4910  178.3530  142.6430 C   0  0  0  0  0  3  0  0  0  0  0  0
  184.3960  178.1630  139.8070 O   0  0  0  0  0  0  0  0  0  0  0  0
  183.2550  178.5040  140.5450 C   0  0  0  0  0  0  0  0  0  0  0  0
  180.9000  179.1030  140.5840 C   0  0  0  0  0  3  0  0  0  0  0  0
  182.0370  178.6420  138.4290 N   0  0  0  0  0  0  0  0  0  0  0  0
  183.2400  178.2890  137.7350 C   0  0  0  0  0  3  0  0  0  0  0  0
  180.9430  179.2000  141.9770 C   0  0  0  0  0  3  0  0  0  0  0  0
  185.6030  177.6930  137.6890 C   0  0  0  0  0  0  0  0  0  0  0  0
  186.8430  178.3240  138.0180 N   0  0  0  0  0  2  0  0  0  0  0  0
  185.5560  176.8270  136.7760 O   0  0  0  0  0  0  0  0  0  0  0  0
  189.2710  178.3690  138.2240 C   0  0  1  0  0  3  0  0  0  0  0  0
  189.4010  177.4600  139.4260 C   0  0  2  0  0  0  0  0  0  0  0  0
  188.8220  176.9090  138.1420 C   0  0  1  0  0  3  0  0  0  0  0  0
  188.3950  177.6740  140.5500 C   0  0  0  0  0  1  0  0  0  0  0  0
  188.0900  177.9790  137.3510 C   0  0  1  0  0  3  0  0  0  0  0  0
  190.8160  176.9760  139.7420 C   0  0  1  0  0  3  0  0  0  0  0  0
  191.6250  176.8080  138.4930 C   0  0  0  0  0  3  0  0  0  0  0  0
  192.2570  175.7810  138.2950 O   0  0  0  0  0  0  0  0  0  0  0  0
  191.4540  177.8880  140.5910 O   0  0  0  0  0  0  0  0  0  0  0  0
  191.7360  177.7660  142.8610 C   0  0  0  0  0  0  0  0  0  0  0  0
  189.8590  176.0980  143.1040 C   0  0  0  0  0  3  0  0  0  0  0  0
  190.5090  177.9340  144.7780 C   0  0  0  0  0  3  0  0  0  0  0  0
  189.6790  176.8070  144.3450 C   0  0  0  0  0  3  0  0  0  0  0  0
  191.6070  178.4720  144.0190 C   0  0  0  0  0  3  0  0  0  0  0  0
  190.9100  176.6420  142.4290 C   0  0  0  0  0  0  0  0  0  0  0  0
  191.9680  177.1160  141.6370 C   0  0  1  0  0  3  0  0  0  0  0  0
  180.8060  178.8020  137.6630 C   0  0  0  0  0  2  0  0  0  0  0  0
  180.7880  182.5560  137.1390 C   0  0  0  0  0  3  0  0  0  0  0  0
  180.6470  182.6400  135.7500 C   0  0  0  0  0  0  0  0  0  0  0  0
  180.6300  180.2180  135.6080 C   0  0  0  0  0  3  0  0  0  0  0  0
  180.8560  181.3070  137.7610 C   0  0  0  0  0  3  0  0  0  0  0  0
  180.7830  180.1360  136.9950 C   0  0  0  0  0  0  0  0  0  0  0  0
  180.5640  181.4680  134.9850 C   0  0  0  0  0  3  0  0  0  0  0  0
  180.9140  185.0700  136.0750 C   0  0  0  0  0  1  0  0  0  0  0  0
  180.5550  183.9720  135.0890 C   0  0  0  0  0  2  0  0  0  0  0  0
  1  6  1  0  0  0  0
  2 11  2  0  0  0  0
  2 12  1  0  0  0  0
  3 10  1  0  0  0  0
  4  8  2  0  0  0  0
  5  1  2  0  0  0  0
  7  9  2  0  0  0  0
  7  4  1  0  0  0  0
  8  1  1  0  0  0  0
  9  5  1  0  0  0  0
 10 11  1  0  0  0  0
 11  7  1  0  0  0  0
 12 15  2  0  0  0  0
 13  2  1  0  0  0  0
 14  3  2  0  0  0  0
 14 13  1  0  0  0  0
 15  4  1  0  0  0  0
 16 17  1  0  0  0  0
 16  3  1  0  0  0  0
 18 16  2  0  0  0  0
 19 20  1  0  0  0  0
 20 24  1  0  0  0  0
 20 22  1  0  0  0  0
 21 19  1  0  0  0  0
 21 20  1  0  0  0  0
 23 17  1  0  0  0  0
 23 21  1  0  0  0  0
 23 19  1  0  0  0  0
 24 27  1  0  0  0  0
 25 24  1  0  0  0  0
 26 25  2  0  0  0  0
 27 34  1  0  0  0  0
 28 32  1  0  0  0  0
 29 31  2  0  0  0  0
 31 30  1  0  0  0  0
 32 30  2  0  0  0  0
 33 28  2  0  0  0  0
 33 29  1  0  0  0  0
 34 33  1  0  0  0  0
 34 28  1  0  0  0  0
 35 13  1  0  0  0  0
 36 39  1  0  0  0  0
 37 36  2  0  0  0  0
 38 40  1  0  0  0  0
 40 35  1  0  0  0  0
 40 39  2  0  0  0  0
 41 38  2  0  0  0  0
 41 37  1  0  0  0  0
 43 37  1  0  0  0  0
 43 42  1  0  0  0  0
M  END
>  <MODEL>
4

>  <REMARK>
 VINA RESULT:      -8.8      1.586      3.424
  Name = 
  9 active torsions:
  status: ('A' for Active; 'I' for Inactive)
    1  A    between atoms: C_1  and  N_34
    2  A    between atoms: C_1  and  C_35
    3  A    between atoms: C_2  and  C_13
    4  A    between atoms: C_4  and  C_22
    5  A    between atoms: N_6  and  C_17
    6  A    between atoms: C_10  and  C_22
    7  A    between atoms: O_14  and  C_22
    8  A    between atoms: O_14  and  C_41
    9  A    between atoms: C_19  and  C_37
                            x       y       z     vdW  Elec       q    Type
                         _______ _______ _______ _____ _____    ______ ____

>  <TORSDO>
F 9

$$$$
=
 OpenBabel11052416103D

 43 50  0  0  1  0  0  0  0  0999 V2000
  191.1760  176.6010  146.4930 C   0  0  0  0  0  0  0  0  0  0  0  0
  186.5730  178.1090  145.0610 C   0  0  0  0  0  0  0  0  0  0  0  0
  186.6580  178.4070  142.2490 C   0  0  0  0  0  0  0  0  0  0  0  0
  188.8530  177.2850  146.4710 C   0  0  0  0  0  0  0  0  0  0  0  0
  191.2350  176.7410  145.1030 C   0  0  0  0  0  3  0  0  0  0  0  0
  192.2730  176.2040  147.1800 F   0  0  0  0  0  0  0  0  0  0  0  0
  188.9080  177.4280  145.0650 C   0  0  0  0  0  0  0  0  0  0  0  0
  189.9880  176.8730  147.1760 C   0  0  0  0  0  3  0  0  0  0  0  0
  190.1050  177.1530  144.3900 C   0  0  0  0  0  3  0  0  0  0  0  0
  187.7890  177.9960  142.9730 O   0  0  0  0  0  0  0  0  0  0  0  0
  187.7650  177.8410  144.3650 C   0  0  0  0  0  0  0  0  0  0  0  0
  186.5310  177.9660  146.4540 C   0  0  0  0  0  3  0  0  0  0  0  0
  185.4180  178.5280  144.3110 N   0  0  0  0  0  0  0  0  0  0  0  0
  185.5110  178.6670  142.8880 C   0  0  0  0  0  3  0  0  0  0  0  0
  187.6670  177.5550  147.1560 C   0  0  0  0  0  3  0  0  0  0  0  0
  186.7440  178.5480  140.7890 C   0  0  0  0  0  0  0  0  0  0  0  0
  187.9310  178.1540  140.0970 N   0  0  0  0  0  2  0  0  0  0  0  0
  185.7690  179.0260  140.1520 O   0  0  0  0  0  0  0  0  0  0  0  0
  189.5150  178.4180  138.2630 C   0  0  1  0  0  3  0  0  0  0  0  0
  190.2950  177.1380  138.4670 C   0  0  2  0  0  0  0  0  0  0  0  0
  188.8260  177.0610  138.1120 C   0  0  1  0  0  3  0  0  0  0  0  0
  190.6320  176.7730  139.9070 C   0  0  0  0  0  1  0  0  0  0  0  0
  188.0550  178.2530  138.6500 C   0  0  1  0  0  3  0  0  0  0  0  0
  191.2420  176.7500  137.3320 C   0  0  1  0  0  3  0  0  0  0  0  0
  192.4890  176.1110  137.8590 C   0  0  0  0  0  3  0  0  0  0  0  0
  193.5320  176.7450  137.9270 O   0  0  0  0  0  0  0  0  0  0  0  0
  190.6000  175.8670  136.4560 O   0  0  0  0  0  0  0  0  0  0  0  0
  189.7970  173.7540  136.8300 C   0  0  0  0  0  0  0  0  0  0  0  0
  190.9490  172.8450  134.7780 C   0  0  0  0  0  3  0  0  0  0  0  0
  188.6830  172.0960  135.7270 C   0  0  0  0  0  3  0  0  0  0  0  0
  189.7690  172.0200  134.7460 C   0  0  0  0  0  3  0  0  0  0  0  0
  188.6610  173.0030  136.8440 C   0  0  0  0  0  3  0  0  0  0  0  0
  190.8800  173.6790  135.8530 C   0  0  0  0  0  0  0  0  0  0  0  0
  190.9230  174.5890  136.9220 C   0  0  1  0  0  3  0  0  0  0  0  0
  184.1270  178.7400  144.9540 C   0  0  0  0  0  2  0  0  0  0  0  0
  180.6750  178.6310  143.3910 C   0  0  0  0  0  3  0  0  0  0  0  0
  180.9900  178.6050  142.0280 C   0  0  0  0  0  0  0  0  0  0  0  0
  183.3520  178.6860  142.5760 C   0  0  0  0  0  3  0  0  0  0  0  0
  181.6950  178.6920  144.3440 C   0  0  0  0  0  3  0  0  0  0  0  0
  183.0350  178.7250  143.9370 C   0  0  0  0  0  0  0  0  0  0  0  0
  182.3310  178.6280  141.6220 C   0  0  0  0  0  3  0  0  0  0  0  0
  179.8870  179.7770  140.1600 C   0  0  0  0  0  1  0  0  0  0  0  0
  179.9020  178.5210  141.0140 C   0  0  0  0  0  2  0  0  0  0  0  0
  1  8  1  0  0  0  0
  1  6  1  0  0  0  0
  2 12  1  0  0  0  0
  3 14  2  0  0  0  0
  3 10  1  0  0  0  0
  4 15  1  0  0  0  0
  4  8  2  0  0  0  0
  5  1  2  0  0  0  0
  7  4  1  0  0  0  0
  9  7  2  0  0  0  0
  9  5  1  0  0  0  0
 10 11  1  0  0  0  0
 11  2  2  0  0  0  0
 11  7  1  0  0  0  0
 12 15  2  0  0  0  0
 13 35  1  0  0  0  0
 13  2  1  0  0  0  0
 14 13  1  0  0  0  0
 16  3  1  0  0  0  0
 17 16  1  0  0  0  0
 18 16  2  0  0  0  0
 19 20  1  0  0  0  0
 19 23  1  0  0  0  0
 20 22  1  0  0  0  0
 21 19  1  0  0  0  0
 21 20  1  0  0  0  0
 21 23  1  0  0  0  0
 23 17  1  0  0  0  0
 24 25  1  0  0  0  0
 24 20  1  0  0  0  0
 25 26  2  0  0  0  0
 27 34  1  0  0  0  0
 27 24  1  0  0  0  0
 28 32  1  0  0  0  0
 28 34  1  0  0  0  0
 29 33  1  0  0  0  0
 30 32  2  0  0  0  0
 31 29  2  0  0  0  0
 31 30  1  0  0  0  0
 33 28  2  0  0  0  0
 33 34  1  0  0  0  0
 36 39  1  0  0  0  0
 37 36  2  0  0  0  0
 38 40  1  0  0  0  0
 40 39  2  0  0  0  0
 40 35  1  0  0  0  0
 41 37  1  0  0  0  0
 41 38  2  0  0  0  0
 42 43  1  0  0  0  0
 43 37  1  0  0  0  0
M  END
>  <MODEL>
5

>  <REMARK>
 VINA RESULT:      -8.6      2.886      5.065
  Name = 
  9 active torsions:
  status: ('A' for Active; 'I' for Inactive)
    1  A    between atoms: C_1  and  N_34
    2  A    between atoms: C_1  and  C_35
    3  A    between atoms: C_2  and  C_13
    4  A    between atoms: C_4  and  C_22
    5  A    between atoms: N_6  and  C_17
    6  A    between atoms: C_10  and  C_22
    7  A    between atoms: O_14  and  C_22
    8  A    between atoms: O_14  and  C_41
    9  A    between atoms: C_19  and  C_37
                            x       y       z     vdW  Elec       q    Type
                         _______ _______ _______ _____ _____    ______ ____

>  <TORSDO>
F 9

$$$$
=
 OpenBabel11052416103D

 43 50  0  0  1  0  0  0  0  0999 V2000
  188.5550  177.4420  147.0460 C   0  0  0  0  0  0  0  0  0  0  0  0
  184.5980  178.6280  144.1400 C   0  0  0  0  0  0  0  0  0  0  0  0
  185.5290  178.6350  141.4700 C   0  0  0  0  0  0  0  0  0  0  0  0
  186.3460  178.0360  146.2520 C   0  0  0  0  0  0  0  0  0  0  0  0
  189.0320  177.4390  145.7310 C   0  0  0  0  0  3  0  0  0  0  0  0
  189.3940  177.1580  148.0710 F   0  0  0  0  0  0  0  0  0  0  0  0
  186.8240  178.0340  144.9210 C   0  0  0  0  0  0  0  0  0  0  0  0
  187.2150  177.7410  147.3070 C   0  0  0  0  0  3  0  0  0  0  0  0
  188.1700  177.7340  144.6720 C   0  0  0  0  0  3  0  0  0  0  0  0
  186.3890  178.3420  142.5400 O   0  0  0  0  0  0  0  0  0  0  0  0
  185.9450  178.3320  143.8690 C   0  0  0  0  0  0  0  0  0  0  0  0
  184.1360  178.6280  145.4640 C   0  0  0  0  0  3  0  0  0  0  0  0
  183.7230  178.9250  143.0370 N   0  0  0  0  0  0  0  0  0  0  0  0
  184.2420  178.9190  141.7010 C   0  0  0  0  0  3  0  0  0  0  0  0
  185.0080  178.3330  146.5150 C   0  0  0  0  0  3  0  0  0  0  0  0
  186.0530  178.6280  140.0970 C   0  0  0  0  0  0  0  0  0  0  0  0
  187.4020  178.2280  139.8430 N   0  0  0  0  0  2  0  0  0  0  0  0
  185.3080  178.9840  139.1450 O   0  0  0  0  0  0  0  0  0  0  0  0
  189.4740  178.2640  138.5610 C   0  0  1  0  0  3  0  0  0  0  0  0
  190.0810  176.9860  139.0980 C   0  0  2  0  0  0  0  0  0  0  0  0
  188.7830  176.9190  138.3220 C   0  0  1  0  0  3  0  0  0  0  0  0
  189.9500  176.7530  140.5980 C   0  0  0  0  0  1  0  0  0  0  0  0
  187.9580  178.1820  138.4990 C   0  0  1  0  0  3  0  0  0  0  0  0
  191.3000  176.4610  138.3400 C   0  0  1  0  0  3  0  0  0  0  0  0
  192.5740  176.9580  138.9490 C   0  0  0  0  0  3  0  0  0  0  0  0
  193.6440  176.4440  138.6590 O   0  0  0  0  0  0  0  0  0  0  0  0
  191.2960  175.0610  138.3430 O   0  0  0  0  0  0  0  0  0  0  0  0
  191.7770  175.1440  136.1050 C   0  0  0  0  0  0  0  0  0  0  0  0
  192.5450  172.7410  136.0790 C   0  0  0  0  0  3  0  0  0  0  0  0
  193.4930  174.6720  134.6760 C   0  0  0  0  0  3  0  0  0  0  0  0
  193.4570  173.2690  135.0980 C   0  0  0  0  0  3  0  0  0  0  0  0
  192.6200  175.6950  135.1870 C   0  0  0  0  0  3  0  0  0  0  0  0
  191.7410  173.7460  136.5260 C   0  0  0  0  0  0  0  0  0  0  0  0
  190.8580  174.6940  137.0670 C   0  0  1  0  0  3  0  0  0  0  0  0
  182.2970  179.1560  143.2350 C   0  0  0  0  0  2  0  0  0  0  0  0
  179.7900  179.4830  140.4100 C   0  0  0  0  0  3  0  0  0  0  0  0
  180.0910  178.3530  139.6420 C   0  0  0  0  0  0  0  0  0  0  0  0
  181.8450  177.7580  141.2100 C   0  0  0  0  0  3  0  0  0  0  0  0
  180.5180  179.7540  141.5710 C   0  0  0  0  0  3  0  0  0  0  0  0
  181.5510  178.8950  141.9690 C   0  0  0  0  0  0  0  0  0  0  0  0
  181.1170  177.4880  140.0470 C   0  0  0  0  0  3  0  0  0  0  0  0
  180.2290  177.6420  137.2850 C   0  0  0  0  0  1  0  0  0  0  0  0
  179.3010  178.0540  138.4150 C   0  0  0  0  0  2  0  0  0  0  0  0
  1  8  1  0  0  0  0
  1  6  1  0  0  0  0
  2 12  1  0  0  0  0
  3 14  2  0  0  0  0
  3 10  1  0  0  0  0
  4 15  1  0  0  0  0
  4  8  2  0  0  0  0
  5  1  2  0  0  0  0
  7  4  1  0  0  0  0
  9  7  2  0  0  0  0
  9  5  1  0  0  0  0
 10 11  1  0  0  0  0
 11  2  2  0  0  0  0
 11  7  1  0  0  0  0
 12 15  2  0  0  0  0
 13 35  1  0  0  0  0
 13  2  1  0  0  0  0
 14 13  1  0  0  0  0
 16  3  1  0  0  0  0
 17 16  1  0  0  0  0
 18 16  2  0  0  0  0
 19 20  1  0  0  0  0
 20 22  1  0  0  0  0
 21 23  1  0  0  0  0
 21 19  1  0  0  0  0
 21 20  1  0  0  0  0
 23 19  1  0  0  0  0
 23 17  1  0  0  0  0
 24 27  1  0  0  0  0
 24 25  1  0  0  0  0
 24 20  1  0  0  0  0
 26 25  2  0  0  0  0
 28 33  1  0  0  0  0
 28 34  1  0  0  0  0
 29 33  2  0  0  0  0
 30 31  2  0  0  0  0
 30 32  1  0  0  0  0
 31 29  1  0  0  0  0
 32 28  2  0  0  0  0
 33 34  1  0  0  0  0
 34 27  1  0  0  0  0
 36 39  1  0  0  0  0
 37 41  1  0  0  0  0
 37 36  2  0  0  0  0
 38 40  1  0  0  0  0
 39 40  2  0  0  0  0
 40 35  1  0  0  0  0
 41 38  2  0  0  0  0
 42 43  1  0  0  0  0
 43 37  1  0  0  0  0
M  END
>  <MODEL>
6

>  <REMARK>
 VINA RESULT:      -8.6      2.534      3.665
  Name = 
  9 active torsions:
  status: ('A' for Active; 'I' for Inactive)
    1  A    between atoms: C_1  and  N_34
    2  A    between atoms: C_1  and  C_35
    3  A    between atoms: C_2  and  C_13
    4  A    between atoms: C_4  and  C_22
    5  A    between atoms: N_6  and  C_17
    6  A    between atoms: C_10  and  C_22
    7  A    between atoms: O_14  and  C_22
    8  A    between atoms: O_14  and  C_41
    9  A    between atoms: C_19  and  C_37
                            x       y       z     vdW  Elec       q    Type
                         _______ _______ _______ _____ _____    ______ ____

>  <TORSDO>
F 9

$$$$
=
 OpenBabel11052416103D

 43 50  0  0  1  0  0  0  0  0999 V2000
  187.3290  177.6660  145.9650 C   0  0  0  0  0  0  0  0  0  0  0  0
  184.3710  178.6960  142.0020 C   0  0  0  0  0  0  0  0  0  0  0  0
  185.9820  178.4130  139.6950 C   0  0  0  0  0  0  0  0  0  0  0  0
  185.4520  178.2540  144.5530 C   0  0  0  0  0  0  0  0  0  0  0  0
  188.1390  177.5190  144.8340 C   0  0  0  0  0  3  0  0  0  0  0  0
  187.8440  177.4540  147.1990 F   0  0  0  0  0  0  0  0  0  0  0  0
  186.2680  178.1070  143.4060 C   0  0  0  0  0  0  0  0  0  0  0  0
  185.9870  178.0330  145.8240 C   0  0  0  0  0  3  0  0  0  0  0  0
  187.6110  177.7390  143.5590 C   0  0  0  0  0  3  0  0  0  0  0  0
  186.5050  178.1970  140.9800 O   0  0  0  0  0  0  0  0  0  0  0  0
  185.7210  178.3300  142.1340 C   0  0  0  0  0  0  0  0  0  0  0  0
  183.5720  178.8400  143.1450 C   0  0  0  0  0  3  0  0  0  0  0  0
  183.8420  178.9140  140.6810 N   0  0  0  0  0  0  0  0  0  0  0  0
  184.6980  178.7610  139.5430 C   0  0  0  0  0  3  0  0  0  0  0  0
  184.1110  178.6190  144.4150 C   0  0  0  0  0  3  0  0  0  0  0  0
  186.8530  178.2550  138.5220 C   0  0  0  0  0  0  0  0  0  0  0  0
  187.8650  177.2450  138.5080 N   0  0  0  0  0  2  0  0  0  0  0  0
  186.7080  179.0210  137.5320 O   0  0  0  0  0  0  0  0  0  0  0  0
  190.1370  177.5310  137.6740 C   0  0  1  0  0  3  0  0  0  0  0  0
  190.8420  176.6260  138.6590 C   0  0  2  0  0  0  0  0  0  0  0  0
  189.8220  176.0350  137.7110 C   0  0  1  0  0  3  0  0  0  0  0  0
  190.3940  176.7250  140.1120 C   0  0  0  0  0  1  0  0  0  0  0  0
  188.7350  177.0350  137.3600 C   0  0  1  0  0  3  0  0  0  0  0  0
  192.2930  176.2830  138.3240 C   0  0  1  0  0  3  0  0  0  0  0  0
  193.2250  176.7430  139.4020 C   0  0  0  0  0  3  0  0  0  0  0  0
  193.6440  177.8900  139.4140 O   0  0  0  0  0  0  0  0  0  0  0  0
  192.4290  174.9000  138.1490 O   0  0  0  0  0  0  0  0  0  0  0  0
  194.3550  173.7520  137.6840 C   0  0  0  0  0  0  0  0  0  0  0  0
  193.1980  172.3040  135.9740 C   0  0  0  0  0  3  0  0  0  0  0  0
  195.1080  171.6020  137.5410 C   0  0  0  0  0  3  0  0  0  0  0  0
  194.1310  171.3320  136.4820 C   0  0  0  0  0  3  0  0  0  0  0  0
  195.2560  172.8710  138.2030 C   0  0  0  0  0  3  0  0  0  0  0  0
  193.3820  173.4840  136.6290 C   0  0  0  0  0  0  0  0  0  0  0  0
  193.4730  174.7480  137.2320 C   0  0  1  0  0  3  0  0  0  0  0  0
  182.4310  179.2110  140.4630 C   0  0  0  0  0  2  0  0  0  0  0  0
  179.7110  176.6230  140.9840 C   0  0  0  0  0  3  0  0  0  0  0  0
  180.2190  175.5390  140.2600 C   0  0  0  0  0  0  0  0  0  0  0  0
  182.1620  176.8590  139.6530 C   0  0  0  0  0  3  0  0  0  0  0  0
  180.4220  177.8240  141.0370 C   0  0  0  0  0  3  0  0  0  0  0  0
  181.6460  177.9450  140.3670 C   0  0  0  0  0  0  0  0  0  0  0  0
  181.4480  175.6580  139.5970 C   0  0  0  0  0  3  0  0  0  0  0  0
  179.3310  173.6840  141.6200 C   0  0  0  0  0  1  0  0  0  0  0  0
  179.4690  174.2530  140.2190 C   0  0  0  0  0  2  0  0  0  0  0  0
  1  6  1  0  0  0  0
  2 11  2  0  0  0  0
  2 12  1  0  0  0  0
  3 10  1  0  0  0  0
  4  8  2  0  0  0  0
  5  1  2  0  0  0  0
  7  9  2  0  0  0  0
  7  4  1  0  0  0  0
  8  1  1  0  0  0  0
  9  5  1  0  0  0  0
 10 11  1  0  0  0  0
 11  7  1  0  0  0  0
 12 15  2  0  0  0  0
 13  2  1  0  0  0  0
 14  3  2  0  0  0  0
 14 13  1  0  0  0  0
 15  4  1  0  0  0  0
 16  3  1  0  0  0  0
 17 16  1  0  0  0  0
 18 16  2  0  0  0  0
 19 21  1  0  0  0  0
 19 20  1  0  0  0  0
 20 22  1  0  0  0  0
 21 20  1  0  0  0  0
 23 19  1  0  0  0  0
 23 21  1  0  0  0  0
 23 17  1  0  0  0  0
 24 20  1  0  0  0  0
 24 25  1  0  0  0  0
 25 26  2  0  0  0  0
 27 24  1  0  0  0  0
 28 32  1  0  0  0  0
 29 31  2  0  0  0  0
 29 33  1  0  0  0  0
 30 32  2  0  0  0  0
 31 30  1  0  0  0  0
 33 34  1  0  0  0  0
 33 28  2  0  0  0  0
 34 28  1  0  0  0  0
 34 27  1  0  0  0  0
 35 13  1  0  0  0  0
 36 39  1  0  0  0  0
 37 36  2  0  0  0  0
 38 40  1  0  0  0  0
 40 35  1  0  0  0  0
 40 39  2  0  0  0  0
 41 38  2  0  0  0  0
 41 37  1  0  0  0  0
 43 37  1  0  0  0  0
 43 42  1  0  0  0  0
M  END
>  <MODEL>
7

>  <REMARK>
 VINA RESULT:      -8.6      2.806      4.148
  Name = 
  9 active torsions:
  status: ('A' for Active; 'I' for Inactive)
    1  A    between atoms: C_1  and  N_34
    2  A    between atoms: C_1  and  C_35
    3  A    between atoms: C_2  and  C_13
    4  A    between atoms: C_4  and  C_22
    5  A    between atoms: N_6  and  C_17
    6  A    between atoms: C_10  and  C_22
    7  A    between atoms: O_14  and  C_22
    8  A    between atoms: O_14  and  C_41
    9  A    between atoms: C_19  and  C_37
                            x       y       z     vdW  Elec       q    Type
                         _______ _______ _______ _____ _____    ______ ____

>  <TORSDO>
F 9

$$$$
=
 OpenBabel11052416103D

 43 50  0  0  1  0  0  0  0  0999 V2000
  187.7430  177.5330  146.4440 C   0  0  0  0  0  0  0  0  0  0  0  0
  190.1590  177.4830  142.0080 C   0  0  0  0  0  0  0  0  0  0  0  0
  188.2060  177.9580  140.0180 C   0  0  0  0  0  0  0  0  0  0  0  0
  189.4330  177.3880  144.7160 C   0  0  0  0  0  0  0  0  0  0  0  0
  186.7640  177.7710  145.4730 C   0  0  0  0  0  3  0  0  0  0  0  0
  187.3990  177.4850  147.7520 F   0  0  0  0  0  0  0  0  0  0  0  0
  188.4470  177.6290  143.7300 C   0  0  0  0  0  0  0  0  0  0  0  0
  189.0750  177.3410  146.0660 C   0  0  0  0  0  3  0  0  0  0  0  0
  187.1150  177.8190  144.1210 C   0  0  0  0  0  3  0  0  0  0  0  0
  187.8620  177.9060  141.3780 O   0  0  0  0  0  0  0  0  0  0  0  0
  188.8160  177.6740  142.3780 C   0  0  0  0  0  0  0  0  0  0  0  0
  191.1270  177.2440  142.9930 C   0  0  0  0  0  3  0  0  0  0  0  0
  190.5020  177.5400  140.6120 N   0  0  0  0  0  0  0  0  0  0  0  0
  189.4770  177.7810  139.6400 C   0  0  0  0  0  3  0  0  0  0  0  0
  190.7640  177.1970  144.3410 C   0  0  0  0  0  3  0  0  0  0  0  0
  187.1610  178.2080  139.0160 C   0  0  0  0  0  0  0  0  0  0  0  0
  185.8320  178.5380  139.4280 N   0  0  0  0  0  2  0  0  0  0  0  0
  187.4400  178.1230  137.7900 O   0  0  0  0  0  0  0  0  0  0  0  0
  183.4970  178.0990  138.8880 C   0  0  1  0  0  3  0  0  0  0  0  0
  182.8710  178.7330  140.1100 C   0  0  2  0  0  0  0  0  0  0  0  0
  183.6570  179.5980  139.1490 C   0  0  1  0  0  3  0  0  0  0  0  0
  183.5570  178.4590  141.4420 C   0  0  0  0  0  1  0  0  0  0  0  0
  184.7700  178.8170  138.4730 C   0  0  1  0  0  3  0  0  0  0  0  0
  181.3570  178.9350  140.0520 C   0  0  1  0  0  3  0  0  0  0  0  0
  180.6700  178.2290  141.1790 C   0  0  0  0  0  3  0  0  0  0  0  0
  180.1210  177.1530  140.9970 O   0  0  0  0  0  0  0  0  0  0  0  0
  181.0550  180.3020  140.1040 O   0  0  0  0  0  0  0  0  0  0  0  0
  179.9810  181.6550  138.6000 C   0  0  0  0  0  0  0  0  0  0  0  0
  180.5960  180.1600  136.6640 C   0  0  0  0  0  3  0  0  0  0  0  0
  180.3810  182.7190  136.6210 C   0  0  0  0  0  3  0  0  0  0  0  0
  180.6520  181.4280  135.9830 C   0  0  0  0  0  3  0  0  0  0  0  0
  180.0230  182.8800  138.0060 C   0  0  0  0  0  3  0  0  0  0  0  0
  180.2510  180.3680  137.9650 C   0  0  0  0  0  0  0  0  0  0  0  0
  179.9050  180.4530  139.3240 C   0  0  1  0  0  3  0  0  0  0  0  0
  191.8860  177.4370  140.1610 C   0  0  0  0  0  2  0  0  0  0  0  0
  193.1090  175.9140  136.9130 C   0  0  0  0  0  3  0  0  0  0  0  0
  192.0850  175.0040  136.6320 C   0  0  0  0  0  0  0  0  0  0  0  0
  190.9400  175.6690  138.6650 C   0  0  0  0  0  3  0  0  0  0  0  0
  193.0540  176.6950  138.0700 C   0  0  0  0  0  3  0  0  0  0  0  0
  191.9720  176.5690  138.9510 C   0  0  0  0  0  0  0  0  0  0  0  0
  190.9970  174.8860  137.5080 C   0  0  0  0  0  3  0  0  0  0  0  0
  193.0420  172.9840  135.5910 C   0  0  0  0  0  1  0  0  0  0  0  0
  192.1350  174.1850  135.3880 C   0  0  0  0  0  2  0  0  0  0  0  0
  1  6  1  0  0  0  0
  2 11  2  0  0  0  0
  2 12  1  0  0  0  0
  3 10  1  0  0  0  0
  4  8  2  0  0  0  0
  5  1  2  0  0  0  0
  7  9  2  0  0  0  0
  7  4  1  0  0  0  0
  8  1  1  0  0  0  0
  9  5  1  0  0  0  0
 10 11  1  0  0  0  0
 11  7  1  0  0  0  0
 12 15  2  0  0  0  0
 13  2  1  0  0  0  0
 14  3  2  0  0  0  0
 14 13  1  0  0  0  0
 15  4  1  0  0  0  0
 16 17  1  0  0  0  0
 16  3  1  0  0  0  0
 18 16  2  0  0  0  0
 19 21  1  0  0  0  0
 19 20  1  0  0  0  0
 20 22  1  0  0  0  0
 21 20  1  0  0  0  0
 23 19  1  0  0  0  0
 23 21  1  0  0  0  0
 23 17  1  0  0  0  0
 24 27  1  0  0  0  0
 24 20  1  0  0  0  0
 24 25  1  0  0  0  0
 26 25  2  0  0  0  0
 28 34  1  0  0  0  0
 29 33  1  0  0  0  0
 30 32  2  0  0  0  0
 31 30  1  0  0  0  0
 31 29  2  0  0  0  0
 32 28  1  0  0  0  0
 33 28  2  0  0  0  0
 33 34  1  0  0  0  0
 34 27  1  0  0  0  0
 35 13  1  0  0  0  0
 36 39  1  0  0  0  0
 37 36  2  0  0  0  0
 37 41  1  0  0  0  0
 38 40  1  0  0  0  0
 39 40  2  0  0  0  0
 40 35  1  0  0  0  0
 41 38  2  0  0  0  0
 43 42  1  0  0  0  0
 43 37  1  0  0  0  0
M  END
>  <MODEL>
8

>  <REMARK>
 VINA RESULT:      -8.4      2.215      9.698
  Name = 
  9 active torsions:
  status: ('A' for Active; 'I' for Inactive)
    1  A    between atoms: C_1  and  N_34
    2  A    between atoms: C_1  and  C_35
    3  A    between atoms: C_2  and  C_13
    4  A    between atoms: C_4  and  C_22
    5  A    between atoms: N_6  and  C_17
    6  A    between atoms: C_10  and  C_22
    7  A    between atoms: O_14  and  C_22
    8  A    between atoms: O_14  and  C_41
    9  A    between atoms: C_19  and  C_37
                            x       y       z     vdW  Elec       q    Type
                         _______ _______ _______ _____ _____    ______ ____

>  <TORSDO>
F 9

$$$$
=
 OpenBabel11052416103D

 43 50  0  0  1  0  0  0  0  0999 V2000
  190.8970  176.8550  146.7820 C   0  0  0  0  0  0  0  0  0  0  0  0
  189.4980  177.9320  142.0500 C   0  0  0  0  0  0  0  0  0  0  0  0
  186.6840  178.2120  142.0820 C   0  0  0  0  0  0  0  0  0  0  0  0
  190.8920  177.3210  144.4060 C   0  0  0  0  0  0  0  0  0  0  0  0
  189.5050  176.9920  146.8170 C   0  0  0  0  0  3  0  0  0  0  0  0
  191.5760  176.5590  147.9160 F   0  0  0  0  0  0  0  0  0  0  0  0
  189.4840  177.4610  144.4360 C   0  0  0  0  0  0  0  0  0  0  0  0
  191.5890  177.0190  145.5790 C   0  0  0  0  0  3  0  0  0  0  0  0
  188.8010  177.2940  145.6480 C   0  0  0  0  0  3  0  0  0  0  0  0
  187.3990  177.9060  143.2510 O   0  0  0  0  0  0  0  0  0  0  0  0
  188.7930  177.7660  143.2540 C   0  0  0  0  0  0  0  0  0  0  0  0
  190.8930  177.7890  142.0310 C   0  0  0  0  0  3  0  0  0  0  0  0
  188.7570  178.2470  140.8570 N   0  0  0  0  0  0  0  0  0  0  0  0
  187.3320  178.3770  140.9220 C   0  0  0  0  0  3  0  0  0  0  0  0
  191.5860  177.4860  143.2060 C   0  0  0  0  0  3  0  0  0  0  0  0
  185.2220  178.3490  142.1420 C   0  0  0  0  0  0  0  0  0  0  0  0
  184.4730  178.6000  140.9500 N   0  0  0  0  0  2  0  0  0  0  0  0
  184.6330  178.2530  143.2520 O   0  0  0  0  0  0  0  0  0  0  0  0
  182.5360  179.1890  139.5950 C   0  0  1  0  0  3  0  0  0  0  0  0
  182.6660  178.1030  138.5510 C   0  0  2  0  0  0  0  0  0  0  0  0
  182.4160  177.7170  139.9920 C   0  0  1  0  0  3  0  0  0  0  0  0
  184.0730  177.8210  138.0400 C   0  0  0  0  0  1  0  0  0  0  0  0
  183.0230  178.7200  140.9560 C   0  0  1  0  0  3  0  0  0  0  0  0
  181.4610  177.9220  137.6280 C   0  0  1  0  0  3  0  0  0  0  0  0
  180.9730  179.2380  137.1060 C   0  0  0  0  0  3  0  0  0  0  0  0
  181.1860  179.5650  135.9480 O   0  0  0  0  0  0  0  0  0  0  0  0
  181.8030  177.0920  136.5540 O   0  0  0  0  0  0  0  0  0  0  0  0
  181.6570  174.9000  135.9030 C   0  0  0  0  0  0  0  0  0  0  0  0
  183.3840  174.1790  137.5930 C   0  0  0  0  0  3  0  0  0  0  0  0
  183.0140  173.1840  135.2550 C   0  0  0  0  0  3  0  0  0  0  0  0
  183.7080  173.2470  136.5440 C   0  0  0  0  0  3  0  0  0  0  0  0
  181.9240  174.0440  134.8770 C   0  0  0  0  0  3  0  0  0  0  0  0
  182.3470  174.9640  137.1880 C   0  0  0  0  0  0  0  0  0  0  0  0
  181.2890  175.8350  136.8850 C   0  0  1  0  0  3  0  0  0  0  0  0
  189.4290  178.5180  139.5910 C   0  0  0  0  0  2  0  0  0  0  0  0
  187.3010  178.1840  136.4710 C   0  0  0  0  0  3  0  0  0  0  0  0
  187.1440  176.7960  136.3920 C   0  0  0  0  0  0  0  0  0  0  0  0
  188.4940  176.5320  138.3900 C   0  0  0  0  0  3  0  0  0  0  0  0
  188.0580  178.7450  137.5030 C   0  0  0  0  0  3  0  0  0  0  0  0
  188.6610  177.9190  138.4600 C   0  0  0  0  0  0  0  0  0  0  0  0
  187.7380  175.9710  137.3560 C   0  0  0  0  0  3  0  0  0  0  0  0
  186.7220  174.7540  135.0760 C   0  0  0  0  0  1  0  0  0  0  0  0
  186.3200  176.2010  135.3030 C   0  0  0  0  0  2  0  0  0  0  0  0
  1  5  1  0  0  0  0
  1  6  1  0  0  0  0
  2 11  1  0  0  0  0
  3 16  1  0  0  0  0
  3 10  1  0  0  0  0
  4  7  1  0  0  0  0
  4  8  1  0  0  0  0
  7  9  1  0  0  0  0
  8  1  2  0  0  0  0
  9  5  2  0  0  0  0
 10 11  1  0  0  0  0
 11  7  2  0  0  0  0
 12  2  2  0  0  0  0
 12 15  1  0  0  0  0
 13 14  1  0  0  0  0
 13  2  1  0  0  0  0
 14  3  2  0  0  0  0
 15  4  2  0  0  0  0
 16 18  2  0  0  0  0
 17 23  1  0  0  0  0
 17 16  1  0  0  0  0
 19 21  1  0  0  0  0
 19 23  1  0  0  0  0
 20 19  1  0  0  0  0
 20 21  1  0  0  0  0
 21 23  1  0  0  0  0
 22 20  1  0  0  0  0
 24 20  1  0  0  0  0
 25 24  1  0  0  0  0
 26 25  2  0  0  0  0
 27 34  1  0  0  0  0
 27 24  1  0  0  0  0
 28 34  1  0  0  0  0
 28 33  1  0  0  0  0
 30 31  2  0  0  0  0
 31 29  1  0  0  0  0
 32 30  1  0  0  0  0
 32 28  2  0  0  0  0
 33 29  2  0  0  0  0
 34 33  1  0  0  0  0
 35 13  1  0  0  0  0
 36 39  1  0  0  0  0
 37 36  2  0  0  0  0
 37 41  1  0  0  0  0
 38 40  1  0  0  0  0
 39 40  2  0  0  0  0
 40 35  1  0  0  0  0
 41 38  2  0  0  0  0
 42 43  1  0  0  0  0
 43 37  1  0  0  0  0
M  END
>  <MODEL>
9

>  <REMARK>
 VINA RESULT:      -8.4      3.460      7.978
  Name = 
  9 active torsions:
  status: ('A' for Active; 'I' for Inactive)
    1  A    between atoms: C_1  and  N_34
    2  A    between atoms: C_1  and  C_35
    3  A    between atoms: C_2  and  C_13
    4  A    between atoms: C_4  and  C_22
    5  A    between atoms: N_6  and  C_17
    6  A    between atoms: C_10  and  C_22
    7  A    between atoms: O_14  and  C_22
    8  A    between atoms: O_14  and  C_41
    9  A    between atoms: C_19  and  C_37
                            x       y       z     vdW  Elec       q    Type
                         _______ _______ _______ _____ _____    ______ ____

>  <TORSDO>
F 9

$$$$
