=
 OpenBabel11052416013D

 34 37  0  0  1  0  0  0  0  0999 V2000
  180.9370  177.8210  138.0460 C   0  0  1  0  0  3  0  0  0  0  0  0
  184.7740  179.5700  140.2060 O   0  0  0  0  0  1  0  0  0  0  0  0
  182.4100  180.4210  138.6650 C   0  0  0  0  0  3  0  0  0  0  0  0
  179.2190  179.3200  138.8330 O   0  0  0  0  0  0  0  0  0  0  0  0
  179.0940  180.2160  137.7670 C   0  0  0  0  0  2  0  0  0  0  0  0
  181.5530  180.5660  137.4460 C   0  0  0  0  0  2  0  0  0  0  0  0
  179.4380  178.0710  138.2420 C   0  0  0  0  0  2  0  0  0  0  0  0
  180.2290  181.2260  137.8010 C   0  0  0  0  0  2  0  0  0  0  0  0
  183.4520  179.4810  140.6490 C   0  0  2  0  0  3  0  0  0  0  0  0
  183.3140  178.3160  141.6380 C   0  0  2  0  0  3  0  0  0  0  0  0
  181.8430  177.9850  141.8770 C   0  0  0  0  0  2  0  0  0  0  0  0
  182.5240  179.3420  139.4660 C   0  0  0  0  0  0  0  0  0  0  0  0
  181.1430  177.5150  140.5950 C   0  0  0  0  0  2  0  0  0  0  0  0
  181.8110  178.0030  139.2950 C   0  0  1  0  0  3  0  0  0  0  0  0
  182.0660  176.8420  135.8830 C   0  0  2  0  0  3  0  0  0  0  0  0
  184.3140  175.1960  137.1970 C   0  0  0  0  0  2  0  0  0  0  0  0
  185.6280  177.5800  134.5970 C   0  0  0  0  0  2  0  0  0  0  0  0
  181.8790  175.4780  138.1010 C   0  0  1  0  0  3  0  0  0  0  0  0
  181.2950  176.5860  137.2040 C   0  0  1  0  0  3  0  0  0  0  0  0
  186.7640  177.3660  136.5720 C   0  0  2  0  0  3  0  0  0  0  0  0
  184.2210  177.0160  134.6520 C   0  0  0  0  0  2  0  0  0  0  0  0
  187.2960  178.6530  136.4130 O   0  0  0  0  0  1  0  0  0  0  0  0
  183.5260  177.3340  135.9800 C   0  0  2  0  0  3  0  0  0  0  0  0
  180.7760  174.6730  138.7720 C   0  0  0  0  0  1  0  0  0  0  0  0
  182.6380  173.4640  136.8570 C   0  0  0  0  0  2  0  0  0  0  0  0
  186.4950  176.7520  135.3290 O   0  0  0  0  0  0  0  0  0  0  0  0
  185.5870  177.3670  137.5180 C   0  0  0  0  0  0  0  0  0  0  0  0
  184.2690  176.7240  137.1880 C   0  0  2  0  0  3  0  0  0  0  0  0
  185.7190  177.8810  138.6170 O   0  0  0  0  0  0  0  0  0  0  0  0
  182.9480  174.6180  137.4500 C   0  0  0  0  0  0  0  0  0  0  0  0
  181.2520  177.6420  134.8790 C   0  0  0  0  0  1  0  0  0  0  0  0
  183.9880  178.6340  142.9340 C   0  0  0  0  0  0  0  0  0  0  0  0
  183.4350  179.3910  143.7760 O   0  0  0  0  0  1  0  0  0  0  0  0
  185.2340  178.0880  143.2110 O   0  0  0  0  0  0  0  0  0  0  0  0
  1  7  1  1  0  0  0
  1 14  1  0  0  0  0
  3 12  2  0  0  0  0
  5  8  1  0  0  0  0
  5  4  1  0  0  0  0
  6  8  1  0  0  0  0
  6  3  1  0  0  0  0
  7  4  1  0  0  0  0
  9  2  1  6  0  0  0
  9 10  1  0  0  0  0
 10 11  1  0  0  0  0
 10 32  1  1  0  0  0
 12  9  1  0  0  0  0
 13 11  1  0  0  0  0
 14 12  1  0  0  0  0
 14 13  1  1  0  0  0
 15 31  1  6  0  0  0
 15 23  1  0  0  0  0
 15 19  1  0  0  0  0
 16 30  1  0  0  0  0
 17 21  1  0  0  0  0
 17 26  1  0  0  0  0
 18 24  1  6  0  0  0
 19  1  1  1  0  0  0
 19 18  1  0  0  0  0
 20 22  1  6  0  0  0
 20 27  1  0  0  0  0
 23 21  1  6  0  0  0
 23 28  1  0  0  0  0
 25 30  2  0  0  0  0
 26 20  1  0  0  0  0
 27 29  2  0  0  0  0
 28 16  1  6  0  0  0
 28 27  1  0  0  0  0
 30 18  1  0  0  0  0
 32 34  2  0  0  0  0
 32 33  1  0  0  0  0
M  END
>  <MODEL>
1

>  <REMARK>
 VINA RESULT:      -5.6      0.000      0.000
  Name = 
  2 active torsions:
  status: ('A' for Active; 'I' for Inactive)
    1  A    between atoms: C_1  and  C_9
    2  A    between atoms: C_3  and  C_25
                            x       y       z     vdW  Elec       q    Type
                         _______ _______ _______ _____ _____    ______ ____

>  <TORSDO>
F 2

$$$$
=
 OpenBabel11052416013D

 34 37  0  0  1  0  0  0  0  0999 V2000
  180.5890  178.6660  139.8130 C   0  0  1  0  0  3  0  0  0  0  0  0
  178.9310  182.7890  138.1710 O   0  0  0  0  0  1  0  0  0  0  0  0
  179.2320  181.2600  140.6740 C   0  0  0  0  0  3  0  0  0  0  0  0
  181.8290  179.3860  141.7520 O   0  0  0  0  0  0  0  0  0  0  0  0
  180.9260  179.1430  142.7920 C   0  0  0  0  0  2  0  0  0  0  0  0
  178.9450  180.1560  141.6440 C   0  0  0  0  0  2  0  0  0  0  0  0
  181.6590  178.3250  140.8570 C   0  0  0  0  0  2  0  0  0  0  0  0
  179.8800  180.2440  142.8400 C   0  0  0  0  0  2  0  0  0  0  0  0
  180.1480  182.4870  138.7860 C   0  0  2  0  0  3  0  0  0  0  0  0
  181.2570  182.4080  137.7290 C   0  0  2  0  0  3  0  0  0  0  0  0
  182.5110  181.7600  138.3130 C   0  0  0  0  0  2  0  0  0  0  0  0
  180.0190  181.2090  139.5790 C   0  0  0  0  0  0  0  0  0  0  0  0
  182.2600  180.3110  138.7480 C   0  0  0  0  0  2  0  0  0  0  0  0
  180.7860  179.9930  139.0670 C   0  0  1  0  0  3  0  0  0  0  0  0
  180.3900  177.6640  137.3900 C   0  0  2  0  0  3  0  0  0  0  0  0
  182.2630  175.2380  137.7010 C   0  0  0  0  0  2  0  0  0  0  0  0
  183.2000  177.3940  134.7610 C   0  0  0  0  0  2  0  0  0  0  0  0
  180.6190  176.1580  139.5110 C   0  0  1  0  0  3  0  0  0  0  0  0
  180.1500  177.4990  138.9140 C   0  0  1  0  0  3  0  0  0  0  0  0
  184.8620  176.5830  136.1080 C   0  0  2  0  0  3  0  0  0  0  0  0
  181.8230  177.3020  135.3900 C   0  0  0  0  0  2  0  0  0  0  0  0
  185.6960  177.6440  135.7310 O   0  0  0  0  0  1  0  0  0  0  0  0
  181.8460  177.6520  136.8810 C   0  0  2  0  0  3  0  0  0  0  0  0
  179.6580  175.6650  140.5830 C   0  0  0  0  0  1  0  0  0  0  0  0
  180.1040  174.1840  138.0920 C   0  0  0  0  0  2  0  0  0  0  0  0
  183.9430  176.2490  135.0900 O   0  0  0  0  0  0  0  0  0  0  0  0
  184.2180  176.8350  137.4510 C   0  0  0  0  0  0  0  0  0  0  0  0
  182.7410  176.6900  137.6920 C   0  0  2  0  0  3  0  0  0  0  0  0
  184.9300  177.1360  138.3950 O   0  0  0  0  0  0  0  0  0  0  0  0
  180.9920  175.0950  138.4940 C   0  0  0  0  0  0  0  0  0  0  0  0
  179.5770  178.8020  136.7930 C   0  0  0  0  0  1  0  0  0  0  0  0
  181.5810  183.7660  137.1930 C   0  0  0  0  0  0  0  0  0  0  0  0
  181.0910  184.1580  136.1000 O   0  0  0  0  0  0  0  0  0  0  0  0
  182.4270  184.6020  137.9080 O   0  0  0  0  0  1  0  0  0  0  0  0
  1  7  1  6  0  0  0
  3  6  1  0  0  0  0
  4  5  1  0  0  0  0
  5  8  1  0  0  0  0
  6  8  1  0  0  0  0
  7  4  1  0  0  0  0
  9  2  1  6  0  0  0
  9 12  1  0  0  0  0
 10 32  1  1  0  0  0
 10 11  1  0  0  0  0
 10  9  1  0  0  0  0
 11 13  1  0  0  0  0
 12  3  2  0  0  0  0
 14 13  1  1  0  0  0
 14 12  1  0  0  0  0
 14  1  1  0  0  0  0
 15 31  1  1  0  0  0
 15 19  1  0  0  0  0
 16 30  1  0  0  0  0
 17 26  1  0  0  0  0
 17 21  1  0  0  0  0
 18 24  1  6  0  0  0
 19 18  1  0  0  0  0
 19  1  1  1  0  0  0
 20 22  1  6  0  0  0
 20 27  1  0  0  0  0
 23 21  1  6  0  0  0
 23 15  1  0  0  0  0
 23 28  1  0  0  0  0
 25 30  2  0  0  0  0
 26 20  1  0  0  0  0
 27 28  1  0  0  0  0
 27 29  2  0  0  0  0
 28 16  1  6  0  0  0
 30 18  1  0  0  0  0
 32 34  1  0  0  0  0
 33 32  2  0  0  0  0
M  END
>  <MODEL>
2

>  <REMARK>
 VINA RESULT:      -5.0      2.310      4.215
  Name = 
  2 active torsions:
  status: ('A' for Active; 'I' for Inactive)
    1  A    between atoms: C_1  and  C_9
    2  A    between atoms: C_3  and  C_25
                            x       y       z     vdW  Elec       q    Type
                         _______ _______ _______ _____ _____    ______ ____

>  <TORSDO>
F 2

$$$$
=
 OpenBabel11052416013D

 34 37  0  0  1  0  0  0  0  0999 V2000
  180.8090  176.8410  137.0900 C   0  0  1  0  0  3  0  0  0  0  0  0
  185.2830  175.3990  137.6770 O   0  0  0  0  0  1  0  0  0  0  0  0
  182.5380  174.3510  137.4430 C   0  0  0  0  0  3  0  0  0  0  0  0
  180.0330  175.3170  135.3900 O   0  0  0  0  0  0  0  0  0  0  0  0
  179.3530  174.3530  136.1400 C   0  0  0  0  0  2  0  0  0  0  0  0
  181.1300  174.0960  137.8850 C   0  0  0  0  0  2  0  0  0  0  0  0
  179.7580  176.5370  136.0160 C   0  0  0  0  0  2  0  0  0  0  0  0
  180.3450  173.3990  136.7840 C   0  0  0  0  0  2  0  0  0  0  0  0
  184.4980  175.4560  136.5230 C   0  0  2  0  0  3  0  0  0  0  0  0
  184.9050  176.6710  135.6780 C   0  0  2  0  0  3  0  0  0  0  0  0
  183.8600  176.9490  134.6000 C   0  0  0  0  0  2  0  0  0  0  0  0
  183.0360  175.4810  136.8990 C   0  0  0  0  0  0  0  0  0  0  0  0
  182.4950  177.3090  135.2010 C   0  0  0  0  0  2  0  0  0  0  0  0
  182.2720  176.7740  136.6280 C   0  0  1  0  0  3  0  0  0  0  0  0
  180.9210  177.9170  139.4870 C   0  0  2  0  0  3  0  0  0  0  0  0
  182.7520  180.3170  138.8690 C   0  0  0  0  0  2  0  0  0  0  0  0
  184.0420  178.2400  141.7320 C   0  0  0  0  0  2  0  0  0  0  0  0
  180.8890  179.3560  137.3090 C   0  0  1  0  0  3  0  0  0  0  0  0
  180.4920  178.0380  138.0010 C   0  0  1  0  0  3  0  0  0  0  0  0
  185.5240  178.9970  140.1630 C   0  0  2  0  0  3  0  0  0  0  0  0
  182.5960  178.3250  141.2790 C   0  0  0  0  0  2  0  0  0  0  0  0
  186.3940  177.9410  140.4650 O   0  0  0  0  0  1  0  0  0  0  0  0
  182.4300  177.9310  139.8090 C   0  0  2  0  0  3  0  0  0  0  0  0
  179.8020  179.8260  136.3520 C   0  0  0  0  0  1  0  0  0  0  0  0
  180.5660  181.3760  138.7200 C   0  0  0  0  0  2  0  0  0  0  0  0
  184.7430  179.3690  141.2780 O   0  0  0  0  0  0  0  0  0  0  0  0
  184.7150  178.7100  138.9200 C   0  0  0  0  0  0  0  0  0  0  0  0
  183.2200  178.8610  138.8620 C   0  0  2  0  0  3  0  0  0  0  0  0
  185.3010  178.3750  137.9040 O   0  0  0  0  0  0  0  0  0  0  0  0
  181.3920  180.4470  138.2380 C   0  0  0  0  0  0  0  0  0  0  0  0
  180.1850  176.8040  140.2160 C   0  0  0  0  0  1  0  0  0  0  0  0
  186.2470  176.4610  135.0540 C   0  0  0  0  0  0  0  0  0  0  0  0
  186.9550  177.4450  134.7110 O   0  0  0  0  0  0  0  0  0  0  0  0
  186.7160  175.1700  134.8540 O   0  0  0  0  0  1  0  0  0  0  0  0
  1  7  1  6  0  0  0
  3  6  1  0  0  0  0
  4  7  1  0  0  0  0
  4  5  1  0  0  0  0
  5  8  1  0  0  0  0
  8  6  1  0  0  0  0
  9 12  1  0  0  0  0
  9  2  1  1  0  0  0
 10 32  1  6  0  0  0
 10  9  1  0  0  0  0
 11 13  1  0  0  0  0
 11 10  1  0  0  0  0
 12  3  2  0  0  0  0
 14 13  1  6  0  0  0
 14 12  1  0  0  0  0
 14  1  1  0  0  0  0
 15 23  1  0  0  0  0
 15 31  1  6  0  0  0
 18 24  1  1  0  0  0
 18 19  1  0  0  0  0
 18 30  1  0  0  0  0
 19  1  1  6  0  0  0
 19 15  1  0  0  0  0
 20 22  1  1  0  0  0
 20 26  1  0  0  0  0
 21 17  1  0  0  0  0
 23 21  1  1  0  0  0
 26 17  1  0  0  0  0
 27 20  1  0  0  0  0
 28 16  1  1  0  0  0
 28 27  1  0  0  0  0
 28 23  1  0  0  0  0
 29 27  2  0  0  0  0
 30 25  2  0  0  0  0
 30 16  1  0  0  0  0
 33 32  2  0  0  0  0
 34 32  1  0  0  0  0
M  END
>  <MODEL>
3

>  <REMARK>
 VINA RESULT:      -4.7      1.658      5.785
  Name = 
  2 active torsions:
  status: ('A' for Active; 'I' for Inactive)
    1  A    between atoms: C_1  and  C_9
    2  A    between atoms: C_3  and  C_25
                            x       y       z     vdW  Elec       q    Type
                         _______ _______ _______ _____ _____    ______ ____

>  <TORSDO>
F 2

$$$$
=
 OpenBabel11052416013D

 34 37  0  0  1  0  0  0  0  0999 V2000
  182.7130  176.7800  137.4460 C   0  0  1  0  0  3  0  0  0  0  0  0
  185.5870  173.0620  138.0410 O   0  0  0  0  0  1  0  0  0  0  0  0
  183.1400  173.8760  136.6130 C   0  0  0  0  0  3  0  0  0  0  0  0
  182.4260  176.7870  135.0520 O   0  0  0  0  0  0  0  0  0  0  0  0
  181.1980  176.1390  134.8960 C   0  0  0  0  0  2  0  0  0  0  0  0
  181.7010  174.2670  136.4810 C   0  0  0  0  0  2  0  0  0  0  0  0
  182.2890  177.5700  136.2030 C   0  0  0  0  0  2  0  0  0  0  0  0
  181.3800  174.6370  135.0410 C   0  0  0  0  0  2  0  0  0  0  0  0
  185.5340  174.0050  137.0130 C   0  0  2  0  0  3  0  0  0  0  0  0
  186.6680  175.0250  137.1850 C   0  0  2  0  0  3  0  0  0  0  0  0
  186.4390  176.2400  136.2890 C   0  0  0  0  0  2  0  0  0  0  0  0
  184.1740  174.6590  136.9860 C   0  0  0  0  0  0  0  0  0  0  0  0
  185.1550  176.9930  136.6580 C   0  0  0  0  0  2  0  0  0  0  0  0
  184.1030  176.1310  137.3820 C   0  0  1  0  0  3  0  0  0  0  0  0
  182.6700  178.9740  138.8950 C   0  0  2  0  0  3  0  0  0  0  0  0
  179.6310  179.2140  139.3440 C   0  0  0  0  0  2  0  0  0  0  0  0
  181.1130  182.3650  137.9120 C   0  0  0  0  0  2  0  0  0  0  0  0
  181.0140  176.9980  139.3040 C   0  0  1  0  0  3  0  0  0  0  0  0
  182.3950  177.4510  138.7930 C   0  0  1  0  0  3  0  0  0  0  0  0
  179.1210  181.6070  137.0820 C   0  0  2  0  0  3  0  0  0  0  0  0
  181.8610  181.3200  138.7190 C   0  0  0  0  0  2  0  0  0  0  0  0
  179.3660  182.2670  135.8710 O   0  0  0  0  0  1  0  0  0  0  0  0
  181.7700  179.9290  138.0830 C   0  0  2  0  0  3  0  0  0  0  0  0
  181.1030  175.6570  140.0180 C   0  0  0  0  0  1  0  0  0  0  0  0
  180.2990  178.1090  141.4080 C   0  0  0  0  0  2  0  0  0  0  0  0
  179.7370  182.2600  138.1710 O   0  0  0  0  0  0  0  0  0  0  0  0
  179.4520  180.1360  136.9870 C   0  0  0  0  0  0  0  0  0  0  0  0
  180.3140  179.4240  137.9920 C   0  0  2  0  0  3  0  0  0  0  0  0
  178.9710  179.4850  136.0740 O   0  0  0  0  0  0  0  0  0  0  0  0
  180.2360  178.0470  140.0770 C   0  0  0  0  0  0  0  0  0  0  0  0
  184.1460  179.3100  138.7540 C   0  0  0  0  0  1  0  0  0  0  0  0
  187.9940  174.4040  136.8840 C   0  0  0  0  0  0  0  0  0  0  0  0
  188.0680  173.3480  136.2000 O   0  0  0  0  0  0  0  0  0  0  0  0
  189.1540  174.9990  137.3600 O   0  0  0  0  0  1  0  0  0  0  0  0
  1  7  1  6  0  0  0
  3 12  2  0  0  0  0
  4  7  1  0  0  0  0
  5  8  1  0  0  0  0
  5  4  1  0  0  0  0
  6  3  1  0  0  0  0
  8  6  1  0  0  0  0
  9 10  1  0  0  0  0
  9  2  1  1  0  0  0
 10 32  1  6  0  0  0
 11 13  1  0  0  0  0
 11 10  1  0  0  0  0
 12  9  1  0  0  0  0
 12 14  1  0  0  0  0
 14 13  1  6  0  0  0
 14  1  1  0  0  0  0
 15 31  1  6  0  0  0
 16 30  1  0  0  0  0
 17 26  1  0  0  0  0
 17 21  1  0  0  0  0
 18 24  1  1  0  0  0
 18 30  1  0  0  0  0
 19  1  1  6  0  0  0
 19 15  1  0  0  0  0
 19 18  1  0  0  0  0
 20 22  1  6  0  0  0
 20 26  1  0  0  0  0
 23 21  1  1  0  0  0
 23 15  1  0  0  0  0
 27 20  1  0  0  0  0
 27 28  1  0  0  0  0
 28 23  1  0  0  0  0
 28 16  1  1  0  0  0
 29 27  2  0  0  0  0
 30 25  2  0  0  0  0
 32 34  1  0  0  0  0
 33 32  2  0  0  0  0
M  END
>  <MODEL>
4

>  <REMARK>
 VINA RESULT:      -4.6      2.837      6.345
  Name = 
  2 active torsions:
  status: ('A' for Active; 'I' for Inactive)
    1  A    between atoms: C_1  and  C_9
    2  A    between atoms: C_3  and  C_25
                            x       y       z     vdW  Elec       q    Type
                         _______ _______ _______ _____ _____    ______ ____

>  <TORSDO>
F 2

$$$$
=
 OpenBabel11052416013D

 34 37  0  0  1  0  0  0  0  0999 V2000
  182.0710  176.3990  136.0870 C   0  0  1  0  0  3  0  0  0  0  0  0
  186.2850  176.8500  138.2050 O   0  0  0  0  0  1  0  0  0  0  0  0
  184.2980  174.8110  137.4400 C   0  0  0  0  0  3  0  0  0  0  0  0
  182.4750  174.5370  134.6080 O   0  0  0  0  0  0  0  0  0  0  0  0
  181.9410  173.4640  135.3260 C   0  0  0  0  0  2  0  0  0  0  0  0
  182.9940  174.0780  137.5130 C   0  0  0  0  0  2  0  0  0  0  0  0
  181.6140  175.6120  134.8530 C   0  0  0  0  0  2  0  0  0  0  0  0
  182.9110  173.0310  136.4130 C   0  0  0  0  0  2  0  0  0  0  0  0
  185.9690  176.4890  136.8930 C   0  0  2  0  0  3  0  0  0  0  0  0
  186.2110  177.6800  135.9560 C   0  0  2  0  0  3  0  0  0  0  0  0
  185.5670  177.4300  134.5940 C   0  0  0  0  0  2  0  0  0  0  0  0
  184.5470  175.9870  136.8280 C   0  0  0  0  0  0  0  0  0  0  0  0
  184.0430  177.2940  134.6940 C   0  0  0  0  0  2  0  0  0  0  0  0
  183.5370  176.8550  136.0810 C   0  0  1  0  0  3  0  0  0  0  0  0
  180.5540  177.2930  138.0390 C   0  0  2  0  0  3  0  0  0  0  0  0
  181.9720  179.9740  138.5820 C   0  0  0  0  0  2  0  0  0  0  0  0
  181.6110  177.8960  141.7000 C   0  0  0  0  0  2  0  0  0  0  0  0
  181.5950  178.8750  136.2420 C   0  0  1  0  0  3  0  0  0  0  0  0
  181.0840  177.4640  136.5920 C   0  0  1  0  0  3  0  0  0  0  0  0
  183.5910  178.9780  141.3180 C   0  0  2  0  0  3  0  0  0  0  0  0
  180.7330  177.8040  140.4670 C   0  0  0  0  0  2  0  0  0  0  0  0
  184.2650  178.0390  142.1110 O   0  0  0  0  0  1  0  0  0  0  0  0
  181.5440  177.5030  139.2030 C   0  0  2  0  0  3  0  0  0  0  0  0
  181.2370  179.2530  134.8120 C   0  0  0  0  0  1  0  0  0  0  0  0
  180.1710  180.7130  137.1190 C   0  0  0  0  0  2  0  0  0  0  0  0
  182.2500  179.1460  141.7280 O   0  0  0  0  0  0  0  0  0  0  0  0
  183.7440  178.6720  139.8470 C   0  0  0  0  0  0  0  0  0  0  0  0
  182.5790  178.6070  138.8980 C   0  0  2  0  0  3  0  0  0  0  0  0
  184.8650  178.5040  139.3970 O   0  0  0  0  0  0  0  0  0  0  0  0
  181.2590  179.9530  137.2570 C   0  0  0  0  0  0  0  0  0  0  0  0
  179.7200  176.0330  138.2080 C   0  0  0  0  0  1  0  0  0  0  0  0
  187.6740  177.9430  135.7950 C   0  0  0  0  0  0  0  0  0  0  0  0
  188.3380  177.3500  134.9040 O   0  0  0  0  0  0  0  0  0  0  0  0
  188.3030  178.8530  136.6340 O   0  0  0  0  0  1  0  0  0  0  0  0
  1  7  1  6  0  0  0
  3  6  1  0  0  0  0
  4  7  1  0  0  0  0
  4  5  1  0  0  0  0
  5  8  1  0  0  0  0
  8  6  1  0  0  0  0
  9  2  1  1  0  0  0
 10 32  1  6  0  0  0
 10  9  1  0  0  0  0
 11 13  1  0  0  0  0
 11 10  1  0  0  0  0
 12  9  1  0  0  0  0
 12  3  2  0  0  0  0
 14 13  1  6  0  0  0
 14  1  1  0  0  0  0
 14 12  1  0  0  0  0
 15 31  1  6  0  0  0
 15 23  1  0  0  0  0
 17 26  1  0  0  0  0
 18 24  1  6  0  0  0
 18 19  1  0  0  0  0
 18 30  1  0  0  0  0
 19  1  1  1  0  0  0
 19 15  1  0  0  0  0
 20 26  1  0  0  0  0
 20 22  1  1  0  0  0
 21 17  1  0  0  0  0
 23 21  1  1  0  0  0
 25 30  2  0  0  0  0
 27 20  1  0  0  0  0
 28 16  1  1  0  0  0
 28 23  1  0  0  0  0
 28 27  1  0  0  0  0
 29 27  2  0  0  0  0
 30 16  1  0  0  0  0
 32 34  1  0  0  0  0
 33 32  2  0  0  0  0
M  END
>  <MODEL>
5

>  <REMARK>
 VINA RESULT:      -4.5      1.390      6.044
  Name = 
  2 active torsions:
  status: ('A' for Active; 'I' for Inactive)
    1  A    between atoms: C_1  and  C_9
    2  A    between atoms: C_3  and  C_25
                            x       y       z     vdW  Elec       q    Type
                         _______ _______ _______ _____ _____    ______ ____

>  <TORSDO>
F 2

$$$$
=
 OpenBabel11052416013D

 34 37  0  0  1  0  0  0  0  0999 V2000
  183.6030  178.0220  138.7140 C   0  0  1  0  0  3  0  0  0  0  0  0
  179.4400  179.3980  140.5080 O   0  0  0  0  0  1  0  0  0  0  0  0
  182.1880  178.7150  141.3270 C   0  0  0  0  0  3  0  0  0  0  0  0
  185.1300  179.4980  139.8580 O   0  0  0  0  0  0  0  0  0  0  0  0
  185.6020  178.6910  140.8970 C   0  0  0  0  0  2  0  0  0  0  0  0
  183.3570  177.8120  141.5720 C   0  0  0  0  0  2  0  0  0  0  0  0
  185.0030  178.6460  138.7560 C   0  0  0  0  0  2  0  0  0  0  0  0
  184.5700  178.6180  142.0100 C   0  0  0  0  0  2  0  0  0  0  0  0
  180.5790  180.1440  140.1980 C   0  0  2  0  0  3  0  0  0  0  0  0
  180.3620  180.8970  138.8780 C   0  0  2  0  0  3  0  0  0  0  0  0
  181.6850  181.4440  138.3480 C   0  0  0  0  0  2  0  0  0  0  0  0
  181.7870  179.2400  140.1510 C   0  0  0  0  0  0  0  0  0  0  0  0
  182.6800  180.3230  138.0190 C   0  0  0  0  0  2  0  0  0  0  0  0
  182.4310  179.0110  138.7860 C   0  0  1  0  0  3  0  0  0  0  0  0
  184.0920  177.0960  136.3020 C   0  0  2  0  0  3  0  0  0  0  0  0
  185.7240  174.5940  137.0520 C   0  0  0  0  0  2  0  0  0  0  0  0
  187.5380  176.7950  134.5950 C   0  0  0  0  0  2  0  0  0  0  0  0
  183.6500  175.5240  138.3390 C   0  0  1  0  0  3  0  0  0  0  0  0
  183.4130  176.8980  137.6820 C   0  0  1  0  0  3  0  0  0  0  0  0
  188.7110  175.8840  136.3350 C   0  0  2  0  0  3  0  0  0  0  0  0
  186.0350  176.7370  134.7920 C   0  0  0  0  0  2  0  0  0  0  0  0
  189.6480  176.9230  136.2560 O   0  0  0  0  0  1  0  0  0  0  0  0
  185.6320  177.0440  136.2370 C   0  0  2  0  0  3  0  0  0  0  0  0
  182.4050  175.0380  139.0660 C   0  0  0  0  0  1  0  0  0  0  0  0
  183.5170  173.6110  136.7590 C   0  0  0  0  0  2  0  0  0  0  0  0
  188.1210  175.6140  135.0820 O   0  0  0  0  0  0  0  0  0  0  0  0
  187.7110  176.1230  137.4410 C   0  0  0  0  0  0  0  0  0  0  0  0
  186.2250  176.0270  137.2360 C   0  0  2  0  0  3  0  0  0  0  0  0
  188.1250  176.3710  138.5610 O   0  0  0  0  0  0  0  0  0  0  0  0
  184.2740  174.4770  137.4350 C   0  0  0  0  0  0  0  0  0  0  0  0
  183.5200  178.2800  135.5380 C   0  0  0  0  0  1  0  0  0  0  0  0
  179.3780  182.0080  139.0530 C   0  0  0  0  0  0  0  0  0  0  0  0
  178.9310  182.6330  138.0550 O   0  0  0  0  0  0  0  0  0  0  0  0
  178.9520  182.3520  140.3290 O   0  0  0  0  0  1  0  0  0  0  0  0
  1  7  1  6  0  0  0
  1 14  1  0  0  0  0
  3  6  1  0  0  0  0
  4  5  1  0  0  0  0
  5  8  1  0  0  0  0
  6  8  1  0  0  0  0
  7  4  1  0  0  0  0
  9  2  1  6  0  0  0
 10 32  1  1  0  0  0
 10  9  1  0  0  0  0
 11 10  1  0  0  0  0
 12  9  1  0  0  0  0
 12  3  2  0  0  0  0
 13 11  1  0  0  0  0
 14 13  1  1  0  0  0
 14 12  1  0  0  0  0
 15 31  1  1  0  0  0
 15 19  1  0  0  0  0
 16 30  1  0  0  0  0
 17 21  1  0  0  0  0
 17 26  1  0  0  0  0
 18 24  1  6  0  0  0
 19 18  1  0  0  0  0
 19  1  1  1  0  0  0
 20 22  1  6  0  0  0
 20 27  1  0  0  0  0
 23 21  1  6  0  0  0
 23 15  1  0  0  0  0
 23 28  1  0  0  0  0
 25 30  2  0  0  0  0
 26 20  1  0  0  0  0
 27 29  2  0  0  0  0
 28 16  1  6  0  0  0
 28 27  1  0  0  0  0
 30 18  1  0  0  0  0
 32 34  1  0  0  0  0
 33 32  2  0  0  0  0
M  END
>  <MODEL>
6

>  <REMARK>
 VINA RESULT:      -4.3      1.823      4.087
  Name = 
  2 active torsions:
  status: ('A' for Active; 'I' for Inactive)
    1  A    between atoms: C_1  and  C_9
    2  A    between atoms: C_3  and  C_25
                            x       y       z     vdW  Elec       q    Type
                         _______ _______ _______ _____ _____    ______ ____

>  <TORSDO>
F 2

$$$$
=
 OpenBabel11052416013D

 34 37  0  0  1  0  0  0  0  0999 V2000
  182.3200  175.7180  137.5040 C   0  0  1  0  0  3  0  0  0  0  0  0
  186.8890  174.4770  137.3480 O   0  0  0  0  0  1  0  0  0  0  0  0
  184.2020  173.4620  136.6820 C   0  0  0  0  0  3  0  0  0  0  0  0
  181.5720  175.0750  135.3030 O   0  0  0  0  0  0  0  0  0  0  0  0
  180.9770  173.8320  135.5410 C   0  0  0  0  0  2  0  0  0  0  0  0
  182.8290  172.9380  136.9700 C   0  0  0  0  0  2  0  0  0  0  0  0
  181.2500  175.8590  136.4150 C   0  0  0  0  0  2  0  0  0  0  0  0
  182.0470  172.7610  135.6780 C   0  0  0  0  0  2  0  0  0  0  0  0
  186.0600  174.9930  136.3490 C   0  0  2  0  0  3  0  0  0  0  0  0
  186.3640  176.4830  136.1430 C   0  0  2  0  0  3  0  0  0  0  0  0
  185.2660  177.1460  135.3140 C   0  0  0  0  0  2  0  0  0  0  0  0
  184.6140  174.7470  136.7050 C   0  0  0  0  0  0  0  0  0  0  0  0
  183.9050  177.1010  136.0200 C   0  0  0  0  0  2  0  0  0  0  0  0
  183.7660  175.9670  137.0520 C   0  0  1  0  0  3  0  0  0  0  0  0
  182.5150  177.7770  139.1280 C   0  0  2  0  0  3  0  0  0  0  0  0
  179.5470  178.5960  139.2500 C   0  0  0  0  0  2  0  0  0  0  0  0
  181.7800  181.4680  138.2790 C   0  0  0  0  0  2  0  0  0  0  0  0
  180.4710  176.1540  139.1700 C   0  0  1  0  0  3  0  0  0  0  0  0
  181.9670  176.3510  138.8600 C   0  0  1  0  0  3  0  0  0  0  0  0
  179.8020  181.1840  137.1660 C   0  0  2  0  0  3  0  0  0  0  0  0
  182.2030  180.2440  139.0690 C   0  0  0  0  0  2  0  0  0  0  0  0
  180.3230  181.8580  136.0540 O   0  0  0  0  0  1  0  0  0  0  0  0
  181.9280  178.9450  138.3070 C   0  0  2  0  0  3  0  0  0  0  0  0
  180.2080  174.7790  139.7680 C   0  0  0  0  0  1  0  0  0  0  0  0
  179.7190  177.2490  141.2700 C   0  0  0  0  0  2  0  0  0  0  0  0
  180.3870  181.6270  138.3710 O   0  0  0  0  0  0  0  0  0  0  0  0
  179.8530  179.6860  136.9790 C   0  0  0  0  0  0  0  0  0  0  0  0
  180.4250  178.7500  138.0080 C   0  0  2  0  0  3  0  0  0  0  0  0
  179.3760  179.2060  135.9640 O   0  0  0  0  0  0  0  0  0  0  0  0
  179.8170  177.2870  139.9400 C   0  0  0  0  0  0  0  0  0  0  0  0
  184.0340  177.8160  139.1840 C   0  0  0  0  0  1  0  0  0  0  0  0
  187.6920  176.6710  135.4830 C   0  0  0  0  0  0  0  0  0  0  0  0
  188.3940  177.6880  135.7290 O   0  0  0  0  0  1  0  0  0  0  0  0
  188.1570  175.7120  134.5940 O   0  0  0  0  0  0  0  0  0  0  0  0
  1  7  1  6  0  0  0
  3 12  2  0  0  0  0
  3  6  1  0  0  0  0
  4  5  1  0  0  0  0
  4  7  1  0  0  0  0
  5  8  1  0  0  0  0
  8  6  1  0  0  0  0
  9 12  1  0  0  0  0
  9  2  1  1  0  0  0
 10 32  1  6  0  0  0
 10  9  1  0  0  0  0
 11 13  1  0  0  0  0
 11 10  1  0  0  0  0
 12 14  1  0  0  0  0
 14 13  1  6  0  0  0
 14  1  1  0  0  0  0
 15 31  1  6  0  0  0
 16 30  1  0  0  0  0
 17 26  1  0  0  0  0
 17 21  1  0  0  0  0
 18 24  1  1  0  0  0
 18 30  1  0  0  0  0
 19  1  1  6  0  0  0
 19 15  1  0  0  0  0
 19 18  1  0  0  0  0
 20 22  1  6  0  0  0
 20 26  1  0  0  0  0
 23 21  1  1  0  0  0
 23 15  1  0  0  0  0
 27 20  1  0  0  0  0
 27 28  1  0  0  0  0
 28 23  1  0  0  0  0
 28 16  1  1  0  0  0
 29 27  2  0  0  0  0
 30 25  2  0  0  0  0
 32 33  1  0  0  0  0
 34 32  2  0  0  0  0
M  END
>  <MODEL>
7

>  <REMARK>
 VINA RESULT:      -4.2      2.495      6.295
  Name = 
  2 active torsions:
  status: ('A' for Active; 'I' for Inactive)
    1  A    between atoms: C_1  and  C_9
    2  A    between atoms: C_3  and  C_25
                            x       y       z     vdW  Elec       q    Type
                         _______ _______ _______ _____ _____    ______ ____

>  <TORSDO>
F 2

$$$$
=
 OpenBabel11052416013D

 34 37  0  0  1  0  0  0  0  0999 V2000
  183.0670  177.2740  137.6230 C   0  0  1  0  0  3  0  0  0  0  0  0
  187.5040  177.9700  136.1150 O   0  0  0  0  0  1  0  0  0  0  0  0
  185.7050  178.6190  138.3590 C   0  0  0  0  0  3  0  0  0  0  0  0
  183.4330  176.6720  139.9290 O   0  0  0  0  0  0  0  0  0  0  0  0
  183.1960  177.8790  140.5940 C   0  0  0  0  0  2  0  0  0  0  0  0
  184.5510  179.2930  139.0340 C   0  0  0  0  0  2  0  0  0  0  0  0
  182.4960  176.6310  138.8910 C   0  0  0  0  0  2  0  0  0  0  0  0
  184.4050  178.7910  140.4620 C   0  0  0  0  0  2  0  0  0  0  0  0
  186.9970  177.0460  137.0310 C   0  0  2  0  0  3  0  0  0  0  0  0
  186.8920  175.6650  136.3700 C   0  0  2  0  0  3  0  0  0  0  0  0
  186.0420  174.7250  137.2220 C   0  0  0  0  0  2  0  0  0  0  0  0
  185.6700  177.5280  137.5660 C   0  0  0  0  0  0  0  0  0  0  0  0
  184.5980  175.2210  137.3590 C   0  0  0  0  0  2  0  0  0  0  0  0
  184.4290  176.7390  137.1590 C   0  0  1  0  0  3  0  0  0  0  0  0
  181.9490  176.3680  135.4210 C   0  0  2  0  0  3  0  0  0  0  0  0
  179.0480  176.0850  136.4180 C   0  0  0  0  0  2  0  0  0  0  0  0
  180.3510  172.8960  134.9000 C   0  0  0  0  0  2  0  0  0  0  0  0
  180.7150  177.9950  137.0480 C   0  0  1  0  0  3  0  0  0  0  0  0
  182.0580  177.4940  136.4830 C   0  0  1  0  0  3  0  0  0  0  0  0
  179.1300  172.7790  136.8310 C   0  0  2  0  0  3  0  0  0  0  0  0
  180.8550  174.2940  134.5940 C   0  0  0  0  0  2  0  0  0  0  0  0
  179.7510  171.5670  137.1580 O   0  0  0  0  0  1  0  0  0  0  0  0
  181.3340  175.0210  135.8540 C   0  0  2  0  0  3  0  0  0  0  0  0
  180.7420  179.4990  137.2830 C   0  0  0  0  0  1  0  0  0  0  0  0
  178.9340  178.2620  135.3350 C   0  0  0  0  0  2  0  0  0  0  0  0
  179.0550  172.9710  135.4340 O   0  0  0  0  0  0  0  0  0  0  0  0
  179.7550  173.9380  137.5720 C   0  0  0  0  0  0  0  0  0  0  0  0
  180.2030  175.2010  136.8900 C   0  0  2  0  0  3  0  0  0  0  0  0
  179.8690  173.8650  138.7840 O   0  0  0  0  0  0  0  0  0  0  0  0
  179.4830  177.5200  136.2990 C   0  0  0  0  0  0  0  0  0  0  0  0
  183.2350  176.1900  134.6300 C   0  0  0  0  0  1  0  0  0  0  0  0
  188.2480  175.0760  136.1480 C   0  0  0  0  0  0  0  0  0  0  0  0
  188.6630  174.8420  134.9810 O   0  0  0  0  0  0  0  0  0  0  0  0
  189.0570  174.7860  137.2380 O   0  0  0  0  0  1  0  0  0  0  0  0
  1  7  1  1  0  0  0
  3  6  1  0  0  0  0
  4  5  1  0  0  0  0
  6  8  1  0  0  0  0
  7  4  1  0  0  0  0
  8  5  1  0  0  0  0
  9  2  1  6  0  0  0
  9 12  1  0  0  0  0
 10 32  1  1  0  0  0
 10  9  1  0  0  0  0
 10 11  1  0  0  0  0
 11 13  1  0  0  0  0
 12  3  2  0  0  0  0
 14 13  1  1  0  0  0
 14 12  1  0  0  0  0
 14  1  1  0  0  0  0
 15 31  1  1  0  0  0
 15 23  1  0  0  0  0
 15 19  1  0  0  0  0
 17 26  1  0  0  0  0
 18 24  1  6  0  0  0
 19 18  1  0  0  0  0
 19  1  1  1  0  0  0
 20 22  1  6  0  0  0
 20 27  1  0  0  0  0
 21 17  1  0  0  0  0
 23 21  1  6  0  0  0
 23 28  1  0  0  0  0
 25 30  2  0  0  0  0
 26 20  1  0  0  0  0
 27 29  2  0  0  0  0
 28 16  1  6  0  0  0
 28 27  1  0  0  0  0
 30 16  1  0  0  0  0
 30 18  1  0  0  0  0
 32 34  1  0  0  0  0
 33 32  2  0  0  0  0
M  END
>  <MODEL>
8

>  <REMARK>
 VINA RESULT:      -4.0      2.789      5.919
  Name = 
  2 active torsions:
  status: ('A' for Active; 'I' for Inactive)
    1  A    between atoms: C_1  and  C_9
    2  A    between atoms: C_3  and  C_25
                            x       y       z     vdW  Elec       q    Type
                         _______ _______ _______ _____ _____    ______ ____

>  <TORSDO>
F 2

$$$$
=
 OpenBabel11052416013D

 34 37  0  0  1  0  0  0  0  0999 V2000
  182.1270  176.2980  137.5750 C   0  0  1  0  0  3  0  0  0  0  0  0
  179.0820  179.5490  135.9610 O   0  0  0  0  0  1  0  0  0  0  0  0
  179.2750  177.3330  137.8960 C   0  0  0  0  0  3  0  0  0  0  0  0
  181.8160  176.4910  139.9580 O   0  0  0  0  0  0  0  0  0  0  0  0
  180.9420  175.4340  140.2320 C   0  0  0  0  0  2  0  0  0  0  0  0
  179.3800  175.9050  138.3320 C   0  0  0  0  0  2  0  0  0  0  0  0
  182.6840  176.0080  138.9730 C   0  0  0  0  0  2  0  0  0  0  0  0
  179.5240  175.8190  139.8430 C   0  0  0  0  0  2  0  0  0  0  0  0
  179.8800  179.5510  137.1080 C   0  0  2  0  0  3  0  0  0  0  0  0
  181.1010  180.4540  136.8880 C   0  0  2  0  0  3  0  0  0  0  0  0
  182.1470  180.2170  137.9750 C   0  0  0  0  0  2  0  0  0  0  0  0
  180.2690  178.1370  137.4650 C   0  0  0  0  0  0  0  0  0  0  0  0
  182.6910  178.7830  137.9470 C   0  0  0  0  0  2  0  0  0  0  0  0
  181.7380  177.7590  137.3020 C   0  0  1  0  0  3  0  0  0  0  0  0
  183.5550  176.5560  135.3820 C   0  0  2  0  0  3  0  0  0  0  0  0
  186.1770  175.2530  136.3400 C   0  0  0  0  0  2  0  0  0  0  0  0
  186.7310  178.6990  134.9290 C   0  0  0  0  0  2  0  0  0  0  0  0
  183.7570  174.4740  136.9440 C   0  0  1  0  0  3  0  0  0  0  0  0
  182.8750  175.6200  136.4140 C   0  0  1  0  0  3  0  0  0  0  0  0
  187.8320  178.1010  136.8440 C   0  0  2  0  0  3  0  0  0  0  0  0
  185.5730  177.7800  134.5940 C   0  0  0  0  0  2  0  0  0  0  0  0
  187.9350  179.4480  137.2140 O   0  0  0  0  0  1  0  0  0  0  0  0
  184.7830  177.3710  135.8410 C   0  0  2  0  0  3  0  0  0  0  0  0
  182.9490  173.2000  137.1390 C   0  0  0  0  0  1  0  0  0  0  0  0
  185.1390  173.3720  135.1970 C   0  0  0  0  0  2  0  0  0  0  0  0
  187.7980  177.9420  135.4420 O   0  0  0  0  0  0  0  0  0  0  0  0
  186.6940  177.4160  137.5630 C   0  0  0  0  0  0  0  0  0  0  0  0
  185.6530  176.5950  136.8540 C   0  0  2  0  0  3  0  0  0  0  0  0
  186.6330  177.5000  138.7780 O   0  0  0  0  0  0  0  0  0  0  0  0
  185.0570  174.2600  136.1890 C   0  0  0  0  0  0  0  0  0  0  0  0
  182.5530  177.4040  134.6150 C   0  0  0  0  0  1  0  0  0  0  0  0
  180.7020  181.8950  136.8610 C   0  0  0  0  0  0  0  0  0  0  0  0
  180.4140  182.5010  137.9280 O   0  0  0  0  0  1  0  0  0  0  0  0
  180.6510  182.5700  135.6490 O   0  0  0  0  0  0  0  0  0  0  0  0
  1  7  1  1  0  0  0
  3  6  1  0  0  0  0
  4  5  1  0  0  0  0
  6  8  1  0  0  0  0
  7  4  1  0  0  0  0
  8  5  1  0  0  0  0
  9  2  1  6  0  0  0
  9 12  1  0  0  0  0
 10 32  1  1  0  0  0
 10  9  1  0  0  0  0
 10 11  1  0  0  0  0
 12  3  2  0  0  0  0
 13 11  1  0  0  0  0
 14 12  1  0  0  0  0
 14  1  1  0  0  0  0
 14 13  1  1  0  0  0
 15 31  1  1  0  0  0
 15 23  1  0  0  0  0
 15 19  1  0  0  0  0
 17 26  1  0  0  0  0
 18 24  1  6  0  0  0
 19 18  1  0  0  0  0
 19  1  1  1  0  0  0
 20 22  1  6  0  0  0
 20 27  1  0  0  0  0
 21 17  1  0  0  0  0
 23 21  1  6  0  0  0
 23 28  1  0  0  0  0
 25 30  2  0  0  0  0
 26 20  1  0  0  0  0
 27 29  2  0  0  0  0
 28 16  1  6  0  0  0
 28 27  1  0  0  0  0
 30 16  1  0  0  0  0
 30 18  1  0  0  0  0
 32 33  1  0  0  0  0
 34 32  2  0  0  0  0
M  END
>  <MODEL>
9

>  <REMARK>
 VINA RESULT:      -3.7      2.170      4.104
  Name = 
  2 active torsions:
  status: ('A' for Active; 'I' for Inactive)
    1  A    between atoms: C_1  and  C_9
    2  A    between atoms: C_3  and  C_25
                            x       y       z     vdW  Elec       q    Type
                         _______ _______ _______ _____ _____    ______ ____

>  <TORSDO>
F 2

$$$$
