=
 OpenBabel11052413193D

 31 34  0  0  1  0  0  0  0  0999 V2000
  188.0550  177.4320  144.1570 C   0  0  0  0  0  0  0  0  0  0  0  0
  187.1520  177.8600  145.1750 C   0  0  0  0  0  0  0  0  0  0  0  0
  186.5940  178.2480  147.5210 C   0  0  0  0  0  3  0  0  0  0  0  0
  189.3670  176.9460  144.4150 C   0  0  0  0  0  0  0  0  0  0  0  0
  191.5270  176.7270  145.4850 C   0  0  2  0  0  3  0  0  0  0  0  0
  187.4910  177.8270  146.5390 C   0  0  0  0  0  3  0  0  0  0  0  0
  188.4890  177.0860  141.7500 C   0  0  0  0  0  0  0  0  0  0  0  0
  185.4790  178.3820  143.4790 C   0  0  0  0  0  3  0  0  0  0  0  0
  185.3320  178.7130  147.1580 C   0  0  0  0  0  3  0  0  0  0  0  0
  189.7660  176.6030  142.0570 C   0  0  0  0  0  3  0  0  0  0  0  0
  187.6320  177.4950  142.7940 C   0  0  0  0  0  0  0  0  0  0  0  0
  190.0280  176.8280  145.7440 C   0  0  0  0  0  2  0  0  0  0  0  0
  183.6940  179.2260  145.4770 O   0  0  0  0  0  1  0  0  0  0  0  0
  190.1790  176.5260  143.3800 C   0  0  0  0  0  0  0  0  0  0  0  0
  191.7870  175.9380  143.8560 S   0  0  0  0  0  0  0  0  0  0  0  0
  186.3530  177.9690  142.4820 C   0  0  0  0  0  3  0  0  0  0  0  0
  185.8600  178.3350  144.8190 C   0  0  0  0  0  0  0  0  0  0  0  0
  184.9600  178.7590  145.8140 C   0  0  0  0  0  0  0  0  0  0  0  0
  189.5410  178.7810  139.5670 O   0  0  0  0  0  0  0  0  0  0  0  0
  188.5740  178.0060  139.3470 C   0  0  0  0  0  0  0  0  0  0  0  0
  188.0410  177.1710  140.3860 N   0  0  0  0  0  2  0  0  0  0  0  0
  188.6790  178.9360  137.0440 C   0  0  0  0  0  1  0  0  0  0  0  0
  187.9830  177.9560  137.9740 C   0  0  2  0  0  3  0  0  0  0  0  0
  185.7000  177.6300  136.8680 C   0  0  0  0  0  1  0  0  0  0  0  0
  186.5030  178.1840  137.9990 C   0  0  0  0  0  0  0  0  0  0  0  0
  185.9650  178.8350  138.9920 N   0  0  0  0  0  0  0  0  0  0  0  0
  184.5750  179.1400  139.1910 C   0  0  0  0  0  0  0  0  0  0  0  0
  184.1090  180.2860  138.9550 O   0  0  0  0  0  0  0  0  0  0  0  0
  183.6670  178.0750  139.6880 C   0  0  0  0  0  1  0  0  0  0  0  0
  192.1850  175.9180  146.5870 C   0  0  0  0  0  2  0  0  0  0  0  0
  191.8430  176.5000  147.9440 C   0  0  0  0  0  1  0  0  0  0  0  0
  1  4  1  0  0  0  0
  1  2  2  0  0  0  0
  2  6  1  0  0  0  0
  4 12  1  0  0  0  0
  5 12  1  0  0  0  0
  5 30  1  1  0  0  0
  6  3  2  0  0  0  0
  7 10  2  0  0  0  0
  7 11  1  0  0  0  0
  8 17  2  0  0  0  0
  9  3  1  0  0  0  0
 10 14  1  0  0  0  0
 11  1  1  0  0  0  0
 13 18  1  0  0  0  0
 14 15  1  0  0  0  0
 14  4  2  0  0  0  0
 15  5  1  0  0  0  0
 16 11  2  0  0  0  0
 16  8  1  0  0  0  0
 17  2  1  0  0  0  0
 17 18  1  0  0  0  0
 18  9  2  0  0  0  0
 20 19  2  0  0  0  0
 20 21  1  0  0  0  0
 21  7  1  0  0  0  0
 23 22  1  6  0  0  0
 23 25  1  0  0  0  0
 23 20  1  0  0  0  0
 24 25  1  0  0  0  0
 25 26  2  0  0  0  0
 26 27  1  0  0  0  0
 27 29  1  0  0  0  0
 28 27  2  0  0  0  0
 30 31  1  0  0  0  0
M  END
>  <MODEL>
1

>  <REMARK>
 VINA RESULT:     -10.5      0.000      0.000
  Name = 
  5 active torsions:
  status: ('A' for Active; 'I' for Inactive)
    1  A    between atoms: C_1  and  N_24
    2  A    between atoms: C_2  and  C_13
    3  A    between atoms: C_9  and  C_22
    4  A    between atoms: C_15  and  N_23
    5  A    between atoms: C_19  and  C_22
                            x       y       z     vdW  Elec       q    Type
                         _______ _______ _______ _____ _____    ______ ____

>  <TORSDO>
F 5

$$$$
=
 OpenBabel11052413193D

 31 34  0  0  1  0  0  0  0  0999 V2000
  187.7020  177.8200  143.7850 C   0  0  0  0  0  0  0  0  0  0  0  0
  186.4830  178.1160  144.4640 C   0  0  0  0  0  0  0  0  0  0  0  0
  185.1570  178.3000  146.5070 C   0  0  0  0  0  3  0  0  0  0  0  0
  188.8920  177.3980  144.4410 C   0  0  0  0  0  0  0  0  0  0  0  0
  190.5920  177.2360  146.1560 C   0  0  2  0  0  3  0  0  0  0  0  0
  186.3580  178.0060  145.8600 C   0  0  0  0  0  3  0  0  0  0  0  0
  188.9290  177.6760  141.6460 C   0  0  0  0  0  0  0  0  0  0  0  0
  185.4230  178.6560  142.3350 C   0  0  0  0  0  3  0  0  0  0  0  0
  184.0500  178.7100  145.7680 C   0  0  0  0  0  3  0  0  0  0  0  0
  190.0690  177.2510  142.3360 C   0  0  0  0  0  3  0  0  0  0  0  0
  187.7460  177.9550  142.3640 C   0  0  0  0  0  0  0  0  0  0  0  0
  189.0880  177.2260  145.9070 C   0  0  0  0  0  2  0  0  0  0  0  0
  183.0180  179.2420  143.6650 O   0  0  0  0  0  1  0  0  0  0  0  0
  190.0300  177.1050  143.7160 C   0  0  0  0  0  0  0  0  0  0  0  0
  191.4350  176.5840  144.6710 S   0  0  0  0  0  0  0  0  0  0  0  0
  186.6050  178.3710  141.6670 C   0  0  0  0  0  3  0  0  0  0  0  0
  185.3450  178.5360  143.7220 C   0  0  0  0  0  0  0  0  0  0  0  0
  184.1380  178.8300  144.3800 C   0  0  0  0  0  0  0  0  0  0  0  0
  190.4310  176.1030  139.6420 O   0  0  0  0  0  0  0  0  0  0  0  0
  189.6890  177.0490  139.2680 C   0  0  0  0  0  0  0  0  0  0  0  0
  188.9480  177.8310  140.2160 N   0  0  0  0  0  2  0  0  0  0  0  0
  189.0350  178.7500  137.5770 C   0  0  0  0  0  1  0  0  0  0  0  0
  189.5800  177.3500  137.8070 C   0  0  2  0  0  3  0  0  0  0  0  0
  189.4270  175.5570  135.9890 C   0  0  0  0  0  1  0  0  0  0  0  0
  188.7630  176.3210  137.0890 C   0  0  0  0  0  0  0  0  0  0  0  0
  187.5260  176.1140  137.4420 N   0  0  0  0  0  0  0  0  0  0  0  0
  186.5980  175.1710  136.8810 C   0  0  0  0  0  0  0  0  0  0  0  0
  186.5220  173.9870  137.3030 O   0  0  0  0  0  0  0  0  0  0  0  0
  185.7070  175.6070  135.7760 C   0  0  0  0  0  1  0  0  0  0  0  0
  190.9160  176.3910  147.3750 C   0  0  0  0  0  2  0  0  0  0  0  0
  192.2510  175.6950  147.1940 C   0  0  0  0  0  1  0  0  0  0  0  0
  1  4  1  0  0  0  0
  1  2  1  0  0  0  0
  2  6  2  0  0  0  0
  4 12  1  0  0  0  0
  5 30  1  1  0  0  0
  6  3  1  0  0  0  0
  7 10  2  0  0  0  0
  7 11  1  0  0  0  0
  8 17  1  0  0  0  0
  9  3  2  0  0  0  0
 10 14  1  0  0  0  0
 11  1  2  0  0  0  0
 12  5  1  0  0  0  0
 13 18  1  0  0  0  0
 14  4  2  0  0  0  0
 14 15  1  0  0  0  0
 15  5  1  0  0  0  0
 16  8  2  0  0  0  0
 16 11  1  0  0  0  0
 17 18  2  0  0  0  0
 17  2  1  0  0  0  0
 18  9  1  0  0  0  0
 20 19  2  0  0  0  0
 20 21  1  0  0  0  0
 21  7  1  0  0  0  0
 23 22  1  1  0  0  0
 23 20  1  0  0  0  0
 24 25  1  0  0  0  0
 25 26  2  0  0  0  0
 25 23  1  0  0  0  0
 27 28  2  0  0  0  0
 27 26  1  0  0  0  0
 29 27  1  0  0  0  0
 31 30  1  0  0  0  0
M  END
>  <MODEL>
2

>  <REMARK>
 VINA RESULT:     -10.3      1.879      2.441
  Name = 
  5 active torsions:
  status: ('A' for Active; 'I' for Inactive)
    1  A    between atoms: C_1  and  N_24
    2  A    between atoms: C_2  and  C_13
    3  A    between atoms: C_9  and  C_22
    4  A    between atoms: C_15  and  N_23
    5  A    between atoms: C_19  and  C_22
                            x       y       z     vdW  Elec       q    Type
                         _______ _______ _______ _____ _____    ______ ____

>  <TORSDO>
F 5

$$$$
=
 OpenBabel11052413193D

 31 34  0  0  1  0  0  0  0  0999 V2000
  187.6590  177.7270  143.9380 C   0  0  0  0  0  0  0  0  0  0  0  0
  186.4810  178.0680  144.6670 C   0  0  0  0  0  0  0  0  0  0  0  0
  185.2620  178.3410  146.7650 C   0  0  0  0  0  3  0  0  0  0  0  0
  188.8730  177.3030  144.5470 C   0  0  0  0  0  0  0  0  0  0  0  0
  190.6530  177.1620  146.1810 C   0  0  2  0  0  3  0  0  0  0  0  0
  186.4240  178.0040  146.0700 C   0  0  0  0  0  3  0  0  0  0  0  0
  188.7750  177.4930  141.7470 C   0  0  0  0  0  0  0  0  0  0  0  0
  185.3250  178.5620  142.5760 C   0  0  0  0  0  3  0  0  0  0  0  0
  184.1280  178.7500  146.0690 C   0  0  0  0  0  3  0  0  0  0  0  0
  189.9410  177.0680  142.3930 C   0  0  0  0  0  3  0  0  0  0  0  0
  187.6340  177.8170  142.5130 C   0  0  0  0  0  0  0  0  0  0  0  0
  189.1390  177.1730  146.0070 C   0  0  0  0  0  2  0  0  0  0  0  0
  183.0010  179.2350  144.0030 O   0  0  0  0  0  1  0  0  0  0  0  0
  189.9680  176.9660  143.7770 C   0  0  0  0  0  0  0  0  0  0  0  0
  191.4100  176.4480  144.6780 S   0  0  0  0  0  0  0  0  0  0  0  0
  186.4680  178.2330  141.8600 C   0  0  0  0  0  3  0  0  0  0  0  0
  185.3150  178.4870  143.9680 C   0  0  0  0  0  0  0  0  0  0  0  0
  184.1480  178.8250  144.6750 C   0  0  0  0  0  0  0  0  0  0  0  0
  191.0190  177.7760  139.8420 O   0  0  0  0  0  0  0  0  0  0  0  0
  189.8350  177.7400  139.4140 C   0  0  0  0  0  0  0  0  0  0  0  0
  188.7250  177.6030  140.3140 N   0  0  0  0  0  2  0  0  0  0  0  0
  188.1670  178.2650  137.6480 C   0  0  0  0  0  1  0  0  0  0  0  0
  189.5940  177.8330  137.9410 C   0  0  2  0  0  3  0  0  0  0  0  0
  189.8530  176.5390  135.7500 C   0  0  0  0  0  1  0  0  0  0  0  0
  189.9320  176.5520  137.2420 C   0  0  0  0  0  0  0  0  0  0  0  0
  190.2900  175.5090  137.9380 N   0  0  0  0  0  0  0  0  0  0  0  0
  190.6560  174.2100  137.4470 C   0  0  0  0  0  0  0  0  0  0  0  0
  189.8070  173.2890  137.3130 O   0  0  0  0  0  0  0  0  0  0  0  0
  192.0730  173.9480  137.0880 C   0  0  0  0  0  1  0  0  0  0  0  0
  191.0230  176.3500  147.4090 C   0  0  0  0  0  2  0  0  0  0  0  0
  192.3350  175.6240  147.1860 C   0  0  0  0  0  1  0  0  0  0  0  0
  1  4  1  0  0  0  0
  1  2  1  0  0  0  0
  2  6  2  0  0  0  0
  4 12  1  0  0  0  0
  5 30  1  1  0  0  0
  6  3  1  0  0  0  0
  7 10  2  0  0  0  0
  7 11  1  0  0  0  0
  8 17  1  0  0  0  0
  9  3  2  0  0  0  0
 10 14  1  0  0  0  0
 11  1  2  0  0  0  0
 12  5  1  0  0  0  0
 13 18  1  0  0  0  0
 14  4  2  0  0  0  0
 14 15  1  0  0  0  0
 15  5  1  0  0  0  0
 16 11  1  0  0  0  0
 16  8  2  0  0  0  0
 17  2  1  0  0  0  0
 17 18  2  0  0  0  0
 18  9  1  0  0  0  0
 20 19  2  0  0  0  0
 20 21  1  0  0  0  0
 21  7  1  0  0  0  0
 23 22  1  1  0  0  0
 23 20  1  0  0  0  0
 24 25  1  0  0  0  0
 25 26  2  0  0  0  0
 25 23  1  0  0  0  0
 27 26  1  0  0  0  0
 28 27  2  0  0  0  0
 29 27  1  0  0  0  0
 31 30  1  0  0  0  0
M  END
>  <MODEL>
3

>  <REMARK>
 VINA RESULT:     -10.0      2.147      3.317
  Name = 
  5 active torsions:
  status: ('A' for Active; 'I' for Inactive)
    1  A    between atoms: C_1  and  N_24
    2  A    between atoms: C_2  and  C_13
    3  A    between atoms: C_9  and  C_22
    4  A    between atoms: C_15  and  N_23
    5  A    between atoms: C_19  and  C_22
                            x       y       z     vdW  Elec       q    Type
                         _______ _______ _______ _____ _____    ______ ____

>  <TORSDO>
F 5

$$$$
=
 OpenBabel11052413193D

 31 34  0  0  1  0  0  0  0  0999 V2000
  188.2180  177.8230  143.4590 C   0  0  0  0  0  0  0  0  0  0  0  0
  188.7880  177.5100  144.7300 C   0  0  0  0  0  0  0  0  0  0  0  0
  188.6110  177.2390  147.1510 C   0  0  0  0  0  3  0  0  0  0  0  0
  186.8570  178.1910  143.2710 C   0  0  0  0  0  0  0  0  0  0  0  0
  184.4590  178.2360  143.6060 C   0  0  2  0  0  3  0  0  0  0  0  0
  188.0360  177.5480  145.9180 C   0  0  0  0  0  3  0  0  0  0  0  0
  188.5330  178.0600  141.0220 C   0  0  0  0  0  0  0  0  0  0  0  0
  190.9440  177.0990  143.6660 C   0  0  0  0  0  3  0  0  0  0  0  0
  189.9560  176.8860  147.2230 C   0  0  0  0  0  3  0  0  0  0  0  0
  187.1900  178.4300  140.8910 C   0  0  0  0  0  3  0  0  0  0  0  0
  189.0500  177.7620  142.3010 C   0  0  0  0  0  0  0  0  0  0  0  0
  185.8050  178.2820  144.3210 C   0  0  0  0  0  2  0  0  0  0  0  0
  192.0740  176.4820  146.1630 O   0  0  0  0  0  1  0  0  0  0  0  0
  186.3790  178.5040  142.0140 C   0  0  0  0  0  0  0  0  0  0  0  0
  184.6610  178.9520  141.9350 S   0  0  0  0  0  0  0  0  0  0  0  0
  190.3970  177.4010  142.4270 C   0  0  0  0  0  3  0  0  0  0  0  0
  190.1600  177.1480  144.8180 C   0  0  0  0  0  0  0  0  0  0  0  0
  190.7330  176.8380  146.0640 C   0  0  0  0  0  0  0  0  0  0  0  0
  188.0060  176.7630  138.4170 O   0  0  0  0  0  0  0  0  0  0  0  0
  189.1060  177.3420  138.6170 C   0  0  0  0  0  0  0  0  0  0  0  0
  189.3910  177.9810  139.8700 N   0  0  0  0  0  2  0  0  0  0  0  0
  189.4620  177.2020  136.1610 C   0  0  0  0  0  1  0  0  0  0  0  0
  190.1230  177.3660  137.5200 C   0  0  2  0  0  3  0  0  0  0  0  0
  190.7630  174.9270  137.9460 C   0  0  0  0  0  1  0  0  0  0  0  0
  191.1940  176.3420  137.7340 C   0  0  0  0  0  0  0  0  0  0  0  0
  192.4470  176.7020  137.7180 N   0  0  0  0  0  0  0  0  0  0  0  0
  193.6020  175.8670  137.8940 C   0  0  0  0  0  0  0  0  0  0  0  0
  194.2790  175.8890  138.9560 O   0  0  0  0  0  0  0  0  0  0  0  0
  194.0070  174.9540  136.7940 C   0  0  0  0  0  1  0  0  0  0  0  0
  183.4260  179.0100  144.4030 C   0  0  0  0  0  2  0  0  0  0  0  0
  182.0840  178.9780  143.6990 C   0  0  0  0  0  1  0  0  0  0  0  0
  1  2  2  0  0  0  0
  2 17  1  0  0  0  0
  2  6  1  0  0  0  0
  3  9  1  0  0  0  0
  4  1  1  0  0  0  0
  4 12  1  0  0  0  0
  5 12  1  0  0  0  0
  5 30  1  1  0  0  0
  6  3  2  0  0  0  0
  7 11  1  0  0  0  0
  8 17  2  0  0  0  0
 10  7  2  0  0  0  0
 10 14  1  0  0  0  0
 11 16  2  0  0  0  0
 11  1  1  0  0  0  0
 14  4  2  0  0  0  0
 15 14  1  0  0  0  0
 15  5  1  0  0  0  0
 16  8  1  0  0  0  0
 17 18  1  0  0  0  0
 18 13  1  0  0  0  0
 18  9  2  0  0  0  0
 19 20  2  0  0  0  0
 20 21  1  0  0  0  0
 21  7  1  0  0  0  0
 23 22  1  6  0  0  0
 23 25  1  0  0  0  0
 23 20  1  0  0  0  0
 25 24  1  0  0  0  0
 26 25  2  0  0  0  0
 26 27  1  0  0  0  0
 27 28  2  0  0  0  0
 29 27  1  0  0  0  0
 31 30  1  0  0  0  0
M  END
>  <MODEL>
4

>  <REMARK>
 VINA RESULT:      -9.6      3.299      5.915
  Name = 
  5 active torsions:
  status: ('A' for Active; 'I' for Inactive)
    1  A    between atoms: C_1  and  N_24
    2  A    between atoms: C_2  and  C_13
    3  A    between atoms: C_9  and  C_22
    4  A    between atoms: C_15  and  N_23
    5  A    between atoms: C_19  and  C_22
                            x       y       z     vdW  Elec       q    Type
                         _______ _______ _______ _____ _____    ______ ____

>  <TORSDO>
F 5

$$$$
=
 OpenBabel11052413193D

 31 34  0  0  1  0  0  0  0  0999 V2000
  188.0560  177.8790  143.6230 C   0  0  0  0  0  0  0  0  0  0  0  0
  188.6600  177.5370  144.8700 C   0  0  0  0  0  0  0  0  0  0  0  0
  188.5460  177.2010  147.2860 C   0  0  0  0  0  3  0  0  0  0  0  0
  186.6880  178.2390  143.4780 C   0  0  0  0  0  0  0  0  0  0  0  0
  184.2990  178.2510  143.8720 C   0  0  2  0  0  3  0  0  0  0  0  0
  187.9380  177.5370  146.0770 C   0  0  0  0  0  3  0  0  0  0  0  0
  188.3090  178.1840  141.1860 C   0  0  0  0  0  0  0  0  0  0  0  0
  190.7930  177.1770  143.7440 C   0  0  0  0  0  3  0  0  0  0  0  0
  189.8960  176.8580  147.3160 C   0  0  0  0  0  3  0  0  0  0  0  0
  186.9600  178.5450  141.0980 C   0  0  0  0  0  3  0  0  0  0  0  0
  188.8600  177.8570  142.4440 C   0  0  0  0  0  0  0  0  0  0  0  0
  185.6610  178.2920  144.5560 C   0  0  0  0  0  2  0  0  0  0  0  0
  191.9910  176.5040  146.1940 O   0  0  0  0  0  1  0  0  0  0  0  0
  186.1760  178.5810  142.2420 C   0  0  0  0  0  0  0  0  0  0  0  0
  184.4530  179.0140  142.2180 S   0  0  0  0  0  0  0  0  0  0  0  0
  190.2130  177.5070  142.5260 C   0  0  0  0  0  3  0  0  0  0  0  0
  190.0370  177.1860  144.9150 C   0  0  0  0  0  0  0  0  0  0  0  0
  190.6440  176.8490  146.1380 C   0  0  0  0  0  0  0  0  0  0  0  0
  187.5120  177.6940  138.3810 O   0  0  0  0  0  0  0  0  0  0  0  0
  188.7210  177.9030  138.6600 C   0  0  0  0  0  0  0  0  0  0  0  0
  189.1390  178.1440  140.0120 N   0  0  0  0  0  2  0  0  0  0  0  0
  189.0780  178.2350  136.2230 C   0  0  0  0  0  1  0  0  0  0  0  0
  189.7300  177.9060  137.5560 C   0  0  2  0  0  3  0  0  0  0  0  0
  191.6920  176.4750  138.3600 C   0  0  0  0  0  1  0  0  0  0  0  0
  190.4840  176.6140  137.4910 C   0  0  0  0  0  0  0  0  0  0  0  0
  190.0690  175.6610  136.7040 N   0  0  0  0  0  0  0  0  0  0  0  0
  190.6520  174.3610  136.5170 C   0  0  0  0  0  0  0  0  0  0  0  0
  190.3270  173.3800  137.2370 O   0  0  0  0  0  0  0  0  0  0  0  0
  191.6630  174.1720  135.4460 C   0  0  0  0  0  1  0  0  0  0  0  0
  183.2790  178.9940  144.7160 C   0  0  0  0  0  2  0  0  0  0  0  0
  181.9290  178.9990  144.0270 C   0  0  0  0  0  1  0  0  0  0  0  0
  1  2  2  0  0  0  0
  2 17  1  0  0  0  0
  2  6  1  0  0  0  0
  3  9  1  0  0  0  0
  4  1  1  0  0  0  0
  4 12  1  0  0  0  0
  5 12  1  0  0  0  0
  5 30  1  1  0  0  0
  6  3  2  0  0  0  0
  7 11  1  0  0  0  0
  8 17  2  0  0  0  0
 10  7  2  0  0  0  0
 10 14  1  0  0  0  0
 11 16  2  0  0  0  0
 11  1  1  0  0  0  0
 14  4  2  0  0  0  0
 15 14  1  0  0  0  0
 15  5  1  0  0  0  0
 16  8  1  0  0  0  0
 17 18  1  0  0  0  0
 18 13  1  0  0  0  0
 18  9  2  0  0  0  0
 19 20  2  0  0  0  0
 20 21  1  0  0  0  0
 21  7  1  0  0  0  0
 23 22  1  6  0  0  0
 23 20  1  0  0  0  0
 25 23  1  0  0  0  0
 25 24  1  0  0  0  0
 26 25  2  0  0  0  0
 27 26  1  0  0  0  0
 27 28  2  0  0  0  0
 29 27  1  0  0  0  0
 31 30  1  0  0  0  0
M  END
>  <MODEL>
5

>  <REMARK>
 VINA RESULT:      -9.6      3.122      5.599
  Name = 
  5 active torsions:
  status: ('A' for Active; 'I' for Inactive)
    1  A    between atoms: C_1  and  N_24
    2  A    between atoms: C_2  and  C_13
    3  A    between atoms: C_9  and  C_22
    4  A    between atoms: C_15  and  N_23
    5  A    between atoms: C_19  and  C_22
                            x       y       z     vdW  Elec       q    Type
                         _______ _______ _______ _____ _____    ______ ____

>  <TORSDO>
F 5

$$$$
=
 OpenBabel11052413193D

 31 34  0  0  1  0  0  0  0  0999 V2000
  186.7560  178.2100  142.5500 C   0  0  0  0  0  0  0  0  0  0  0  0
  186.9420  178.0040  143.9500 C   0  0  0  0  0  0  0  0  0  0  0  0
  188.3120  177.3230  145.8530 C   0  0  0  0  0  3  0  0  0  0  0  0
  187.7570  177.9570  141.5730 C   0  0  0  0  0  0  0  0  0  0  0  0
  189.9590  177.8110  140.5760 C   0  0  2  0  0  3  0  0  0  0  0  0
  188.1500  177.5190  144.4820 C   0  0  0  0  0  3  0  0  0  0  0  0
  185.2640  178.9270  140.7170 C   0  0  0  0  0  0  0  0  0  0  0  0
  184.6650  178.7710  144.3700 C   0  0  0  0  0  3  0  0  0  0  0  0
  187.2660  177.6080  146.7260 C   0  0  0  0  0  3  0  0  0  0  0  0
  186.2780  178.6490  139.7930 C   0  0  0  0  0  3  0  0  0  0  0  0
  185.4970  178.7040  142.0910 C   0  0  0  0  0  0  0  0  0  0  0  0
  189.1460  177.4780  141.8220 C   0  0  0  0  0  2  0  0  0  0  0  0
  185.0220  178.3680  147.1270 O   0  0  0  0  0  1  0  0  0  0  0  0
  187.4990  178.1570  140.2310 C   0  0  0  0  0  0  0  0  0  0  0  0
  188.8430  177.7910  139.1280 S   0  0  0  0  0  0  0  0  0  0  0  0
  184.4760  178.9750  143.0090 C   0  0  0  0  0  3  0  0  0  0  0  0
  185.8810  178.2910  144.8520 C   0  0  0  0  0  0  0  0  0  0  0  0
  186.0520  178.0910  146.2340 C   0  0  0  0  0  0  0  0  0  0  0  0
  183.3140  177.6810  138.8750 O   0  0  0  0  0  0  0  0  0  0  0  0
  183.0640  178.8050  139.3850 C   0  0  0  0  0  0  0  0  0  0  0  0
  183.9910  179.4350  140.2830 N   0  0  0  0  0  2  0  0  0  0  0  0
  182.0170  180.8620  138.4630 C   0  0  0  0  0  1  0  0  0  0  0  0
  181.7730  179.4810  139.0510 C   0  0  2  0  0  3  0  0  0  0  0  0
  179.9210  180.7050  140.3200 C   0  0  0  0  0  1  0  0  0  0  0  0
  180.8580  179.5450  140.2340 C   0  0  0  0  0  0  0  0  0  0  0  0
  180.8930  178.6000  141.1320 N   0  0  0  0  0  0  0  0  0  0  0  0
  180.0920  178.4870  142.3190 C   0  0  0  0  0  0  0  0  0  0  0  0
  178.9310  177.9990  142.2900 O   0  0  0  0  0  0  0  0  0  0  0  0
  180.6490  178.9580  143.6120 C   0  0  0  0  0  1  0  0  0  0  0  0
  191.0780  176.7990  140.4090 C   0  0  0  0  0  2  0  0  0  0  0  0
  191.1370  176.3110  138.9750 C   0  0  0  0  0  1  0  0  0  0  0  0
  1  2  2  0  0  0  0
  2  6  1  0  0  0  0
  2 17  1  0  0  0  0
  3  9  1  0  0  0  0
  4 12  1  0  0  0  0
  4  1  1  0  0  0  0
  5 30  1  6  0  0  0
  5 12  1  0  0  0  0
  6  3  2  0  0  0  0
  7 11  1  0  0  0  0
  8 17  2  0  0  0  0
 10 14  1  0  0  0  0
 10  7  2  0  0  0  0
 11  1  1  0  0  0  0
 11 16  2  0  0  0  0
 14  4  2  0  0  0  0
 15 14  1  0  0  0  0
 15  5  1  0  0  0  0
 16  8  1  0  0  0  0
 17 18  1  0  0  0  0
 18  9  2  0  0  0  0
 18 13  1  0  0  0  0
 19 20  2  0  0  0  0
 20 21  1  0  0  0  0
 21  7  1  0  0  0  0
 23 22  1  1  0  0  0
 23 20  1  0  0  0  0
 23 25  1  0  0  0  0
 25 24  1  0  0  0  0
 25 26  2  0  0  0  0
 26 27  1  0  0  0  0
 27 29  1  0  0  0  0
 28 27  2  0  0  0  0
 31 30  1  0  0  0  0
M  END
>  <MODEL>
6

>  <REMARK>
 VINA RESULT:      -9.2      2.824      4.814
  Name = 
  5 active torsions:
  status: ('A' for Active; 'I' for Inactive)
    1  A    between atoms: C_1  and  N_24
    2  A    between atoms: C_2  and  C_13
    3  A    between atoms: C_9  and  C_22
    4  A    between atoms: C_15  and  N_23
    5  A    between atoms: C_19  and  C_22
                            x       y       z     vdW  Elec       q    Type
                         _______ _______ _______ _____ _____    ______ ____

>  <TORSDO>
F 5

$$$$
=
 OpenBabel11052413193D

 31 34  0  0  1  0  0  0  0  0999 V2000
  187.1870  177.9840  143.9560 C   0  0  0  0  0  0  0  0  0  0  0  0
  187.9900  177.6430  145.0850 C   0  0  0  0  0  0  0  0  0  0  0  0
  190.0920  176.8870  146.0710 C   0  0  0  0  0  3  0  0  0  0  0  0
  187.6510  177.9370  142.6120 C   0  0  0  0  0  0  0  0  0  0  0  0
  189.1730  178.1130  140.7380 C   0  0  2  0  0  3  0  0  0  0  0  0
  189.3240  177.2180  144.9550 C   0  0  0  0  0  3  0  0  0  0  0  0
  185.0070  178.7560  143.0900 C   0  0  0  0  0  0  0  0  0  0  0  0
  186.1190  178.1380  146.5700 C   0  0  0  0  0  3  0  0  0  0  0  0
  189.5410  176.9730  147.3470 C   0  0  0  0  0  3  0  0  0  0  0  0
  185.5060  178.6800  141.7850 C   0  0  0  0  0  3  0  0  0  0  0  0
  185.8400  178.4040  144.1740 C   0  0  0  0  0  0  0  0  0  0  0  0
  189.0180  177.5680  142.1530 C   0  0  0  0  0  2  0  0  0  0  0  0
  187.6910  177.4660  148.7990 O   0  0  0  0  0  1  0  0  0  0  0  0
  186.8100  178.2600  141.5650 C   0  0  0  0  0  0  0  0  0  0  0  0
  187.5260  178.1480  139.9430 S   0  0  0  0  0  0  0  0  0  0  0  0
  185.3320  178.4730  145.4770 C   0  0  0  0  0  3  0  0  0  0  0  0
  187.4390  177.7250  146.3940 C   0  0  0  0  0  0  0  0  0  0  0  0
  188.2190  177.3900  147.5150 C   0  0  0  0  0  0  0  0  0  0  0  0
  182.5480  178.0640  141.5990 O   0  0  0  0  0  0  0  0  0  0  0  0
  182.4810  178.8320  142.5950 C   0  0  0  0  0  0  0  0  0  0  0  0
  183.6570  179.1850  143.3390 N   0  0  0  0  0  2  0  0  0  0  0  0
  180.4780  178.4560  144.0180 C   0  0  0  0  0  1  0  0  0  0  0  0
  181.1480  179.3710  143.0070 C   0  0  2  0  0  3  0  0  0  0  0  0
  179.0640  178.7450  141.6640 C   0  0  0  0  0  1  0  0  0  0  0  0
  180.2630  179.6210  141.8250 C   0  0  0  0  0  0  0  0  0  0  0  0
  180.5490  180.5830  140.9930 N   0  0  0  0  0  0  0  0  0  0  0  0
  179.8190  180.9750  139.8190 C   0  0  0  0  0  0  0  0  0  0  0  0
  179.9090  180.3330  138.7390 O   0  0  0  0  0  0  0  0  0  0  0  0
  178.9370  182.1670  139.8840 C   0  0  0  0  0  1  0  0  0  0  0  0
  190.1320  177.2370  139.9530 C   0  0  0  0  0  2  0  0  0  0  0  0
  189.7290  177.1920  138.4920 C   0  0  0  0  0  1  0  0  0  0  0  0
  1 11  1  0  0  0  0
  1  2  2  0  0  0  0
  2 17  1  0  0  0  0
  3  9  1  0  0  0  0
  4  1  1  0  0  0  0
  5 30  1  6  0  0  0
  5 12  1  0  0  0  0
  6  2  1  0  0  0  0
  6  3  2  0  0  0  0
  7 21  1  0  0  0  0
  7 11  1  0  0  0  0
  9 18  2  0  0  0  0
 10  7  2  0  0  0  0
 11 16  2  0  0  0  0
 12  4  1  0  0  0  0
 14 10  1  0  0  0  0
 14  4  2  0  0  0  0
 15  5  1  0  0  0  0
 15 14  1  0  0  0  0
 16  8  1  0  0  0  0
 17  8  2  0  0  0  0
 17 18  1  0  0  0  0
 18 13  1  0  0  0  0
 19 20  2  0  0  0  0
 20 23  1  0  0  0  0
 20 21  1  0  0  0  0
 23 22  1  1  0  0  0
 24 25  1  0  0  0  0
 25 23  1  0  0  0  0
 26 25  2  0  0  0  0
 27 29  1  0  0  0  0
 27 26  1  0  0  0  0
 28 27  2  0  0  0  0
 31 30  1  0  0  0  0
M  END
>  <MODEL>
7

>  <REMARK>
 VINA RESULT:      -9.1      3.319      5.625
  Name = 
  5 active torsions:
  status: ('A' for Active; 'I' for Inactive)
    1  A    between atoms: C_1  and  N_24
    2  A    between atoms: C_2  and  C_13
    3  A    between atoms: C_9  and  C_22
    4  A    between atoms: C_15  and  N_23
    5  A    between atoms: C_19  and  C_22
                            x       y       z     vdW  Elec       q    Type
                         _______ _______ _______ _____ _____    ______ ____

>  <TORSDO>
F 5

$$$$
=
 OpenBabel11052413193D

 31 34  0  0  1  0  0  0  0  0999 V2000
  188.5860  177.6050  143.5360 C   0  0  0  0  0  0  0  0  0  0  0  0
  189.5300  177.5670  142.4660 C   0  0  0  0  0  0  0  0  0  0  0  0
  191.8110  177.3220  141.6270 C   0  0  0  0  0  3  0  0  0  0  0  0
  188.9330  177.4280  144.9040 C   0  0  0  0  0  0  0  0  0  0  0  0
  190.0920  176.5760  146.8510 C   0  0  2  0  0  3  0  0  0  0  0  0
  190.9020  177.3540  142.6860 C   0  0  0  0  0  3  0  0  0  0  0  0
  186.2370  177.8710  144.2500 C   0  0  0  0  0  0  0  0  0  0  0  0
  187.7360  177.9680  140.8630 C   0  0  0  0  0  3  0  0  0  0  0  0
  191.3640  177.5020  140.3210 C   0  0  0  0  0  3  0  0  0  0  0  0
  186.6310  177.7040  145.5820 C   0  0  0  0  0  3  0  0  0  0  0  0
  187.2100  177.8280  143.2280 C   0  0  0  0  0  0  0  0  0  0  0  0
  190.2890  177.1470  145.4510 C   0  0  0  0  0  2  0  0  0  0  0  0
  189.5870  177.8950  138.7510 O   0  0  0  0  0  1  0  0  0  0  0  0
  187.9680  177.5000  145.8900 C   0  0  0  0  0  0  0  0  0  0  0  0
  188.5510  177.2660  147.5520 S   0  0  0  0  0  0  0  0  0  0  0  0
  186.8110  178.0050  141.8980 C   0  0  0  0  0  3  0  0  0  0  0  0
  189.0880  177.7510  141.1270 C   0  0  0  0  0  0  0  0  0  0  0  0
  190.0080  177.7170  140.0650 C   0  0  0  0  0  0  0  0  0  0  0  0
  184.7880  180.4330  143.9700 O   0  0  0  0  0  0  0  0  0  0  0  0
  184.1800  179.3470  143.7830 C   0  0  0  0  0  0  0  0  0  0  0  0
  184.8570  178.0870  143.9110 N   0  0  0  0  0  2  0  0  0  0  0  0
  181.9090  178.5070  144.3450 C   0  0  0  0  0  1  0  0  0  0  0  0
  182.7320  179.3810  143.4120 C   0  0  2  0  0  3  0  0  0  0  0  0
  181.1280  178.6500  141.5590 C   0  0  0  0  0  1  0  0  0  0  0  0
  182.5170  179.0030  141.9790 C   0  0  0  0  0  0  0  0  0  0  0  0
  183.5250  179.0040  141.1510 N   0  0  0  0  0  0  0  0  0  0  0  0
  183.5110  178.6820  139.7510 C   0  0  0  0  0  0  0  0  0  0  0  0
  183.4240  179.5750  138.8670 O   0  0  0  0  0  0  0  0  0  0  0  0
  183.6000  177.2580  139.3380 C   0  0  0  0  0  1  0  0  0  0  0  0
  191.2850  176.9280  147.7210 C   0  0  0  0  0  2  0  0  0  0  0  0
  192.2900  175.7930  147.7200 C   0  0  0  0  0  1  0  0  0  0  0  0
  1  4  1  0  0  0  0
  2  6  2  0  0  0  0
  2  1  1  0  0  0  0
  3  6  1  0  0  0  0
  4 12  1  0  0  0  0
  4 14  2  0  0  0  0
  5 15  1  0  0  0  0
  5 30  1  1  0  0  0
  7 10  2  0  0  0  0
  8 17  1  0  0  0  0
  8 16  2  0  0  0  0
  9  3  2  0  0  0  0
 10 14  1  0  0  0  0
 11  1  2  0  0  0  0
 11  7  1  0  0  0  0
 12  5  1  0  0  0  0
 13 18  1  0  0  0  0
 14 15  1  0  0  0  0
 16 11  1  0  0  0  0
 17  2  1  0  0  0  0
 18  9  1  0  0  0  0
 18 17  2  0  0  0  0
 20 21  1  0  0  0  0
 20 19  2  0  0  0  0
 21  7  1  0  0  0  0
 23 20  1  0  0  0  0
 23 22  1  1  0  0  0
 24 25  1  0  0  0  0
 25 23  1  0  0  0  0
 26 25  2  0  0  0  0
 27 26  1  0  0  0  0
 28 27  2  0  0  0  0
 29 27  1  0  0  0  0
 31 30  1  0  0  0  0
M  END
>  <MODEL>
8

>  <REMARK>
 VINA RESULT:      -9.1      2.125      5.101
  Name = 
  5 active torsions:
  status: ('A' for Active; 'I' for Inactive)
    1  A    between atoms: C_1  and  N_24
    2  A    between atoms: C_2  and  C_13
    3  A    between atoms: C_9  and  C_22
    4  A    between atoms: C_15  and  N_23
    5  A    between atoms: C_19  and  C_22
                            x       y       z     vdW  Elec       q    Type
                         _______ _______ _______ _____ _____    ______ ____

>  <TORSDO>
F 5

$$$$
=
 OpenBabel11052413193D

 31 34  0  0  1  0  0  0  0  0999 V2000
  184.5980  178.5770  142.8500 C   0  0  0  0  0  0  0  0  0  0  0  0
  185.1550  178.3950  144.1520 C   0  0  0  0  0  0  0  0  0  0  0  0
  184.9300  178.2530  146.5790 C   0  0  0  0  0  3  0  0  0  0  0  0
  183.2150  178.8010  142.6060 C   0  0  0  0  0  0  0  0  0  0  0  0
  180.8140  178.6360  142.8770 C   0  0  2  0  0  3  0  0  0  0  0  0
  184.3670  178.4310  145.3150 C   0  0  0  0  0  3  0  0  0  0  0  0
  184.9640  178.6990  140.4110 C   0  0  0  0  0  0  0  0  0  0  0  0
  187.3720  178.1310  143.1700 C   0  0  0  0  0  3  0  0  0  0  0  0
  186.3000  178.0340  146.7070 C   0  0  0  0  0  3  0  0  0  0  0  0
  183.5970  178.9300  140.2240 C   0  0  0  0  0  3  0  0  0  0  0  0
  185.4670  178.5280  141.7190 C   0  0  0  0  0  0  0  0  0  0  0  0
  182.1270  178.8540  143.6220 C   0  0  0  0  0  2  0  0  0  0  0  0
  188.4780  177.7730  145.7270 O   0  0  0  0  0  1  0  0  0  0  0  0
  182.7480  178.9920  141.3200 C   0  0  0  0  0  0  0  0  0  0  0  0
  180.9990  179.2680  141.1710 S   0  0  0  0  0  0  0  0  0  0  0  0
  186.8370  178.3060  141.9000 C   0  0  0  0  0  3  0  0  0  0  0  0
  186.5520  178.1720  144.2960 C   0  0  0  0  0  0  0  0  0  0  0  0
  187.1130  177.9920  145.5730 C   0  0  0  0  0  0  0  0  0  0  0  0
  184.6710  177.1570  137.9050 O   0  0  0  0  0  0  0  0  0  0  0  0
  185.6900  177.8740  138.0830 C   0  0  0  0  0  0  0  0  0  0  0  0
  185.8610  178.6340  139.2890 N   0  0  0  0  0  2  0  0  0  0  0  0
  186.4920  176.8630  135.9590 C   0  0  0  0  0  1  0  0  0  0  0  0
  186.7300  177.9340  137.0100 C   0  0  2  0  0  3  0  0  0  0  0  0
  189.0560  178.9660  137.2710 C   0  0  0  0  0  1  0  0  0  0  0  0
  188.1150  177.8470  137.5750 C   0  0  0  0  0  0  0  0  0  0  0  0
  188.4510  176.8240  138.3110 N   0  0  0  0  0  0  0  0  0  0  0  0
  189.7180  176.5740  138.9400 C   0  0  0  0  0  0  0  0  0  0  0  0
  190.5550  175.7730  138.4460 O   0  0  0  0  0  0  0  0  0  0  0  0
  190.0460  177.2790  140.2050 C   0  0  0  0  0  1  0  0  0  0  0  0
  179.6890  179.3540  143.5990 C   0  0  0  0  0  2  0  0  0  0  0  0
  179.1700  180.5030  142.7570 C   0  0  0  0  0  1  0  0  0  0  0  0
  1  2  2  0  0  0  0
  2 17  1  0  0  0  0
  2  6  1  0  0  0  0
  3  9  1  0  0  0  0
  4  1  1  0  0  0  0
  4 12  1  0  0  0  0
  5 30  1  1  0  0  0
  5 12  1  0  0  0  0
  6  3  2  0  0  0  0
  7 11  1  0  0  0  0
  8 17  2  0  0  0  0
 10  7  2  0  0  0  0
 10 14  1  0  0  0  0
 11 16  2  0  0  0  0
 11  1  1  0  0  0  0
 14  4  2  0  0  0  0
 15 14  1  0  0  0  0
 15  5  1  0  0  0  0
 16  8  1  0  0  0  0
 17 18  1  0  0  0  0
 18 13  1  0  0  0  0
 18  9  2  0  0  0  0
 19 20  2  0  0  0  0
 20 21  1  0  0  0  0
 21  7  1  0  0  0  0
 23 22  1  6  0  0  0
 23 25  1  0  0  0  0
 23 20  1  0  0  0  0
 24 25  1  0  0  0  0
 25 26  2  0  0  0  0
 26 27  1  0  0  0  0
 27 29  1  0  0  0  0
 28 27  2  0  0  0  0
 31 30  1  0  0  0  0
M  END
>  <MODEL>
9

>  <REMARK>
 VINA RESULT:      -9.0      3.220      6.191
  Name = 
  5 active torsions:
  status: ('A' for Active; 'I' for Inactive)
    1  A    between atoms: C_1  and  N_24
    2  A    between atoms: C_2  and  C_13
    3  A    between atoms: C_9  and  C_22
    4  A    between atoms: C_15  and  N_23
    5  A    between atoms: C_19  and  C_22
                            x       y       z     vdW  Elec       q    Type
                         _______ _______ _______ _____ _____    ______ ____

>  <TORSDO>
F 5

$$$$
