=
 OpenBabel11052413223D

 28 31  0  0  1  0  0  0  0  0999 V2000
  188.9850  177.1860  140.5960 C   0  0  2  0  0  3  0  0  0  0  0  0
  187.6660  178.2970  142.1490 C   0  0  2  0  0  3  0  0  0  0  0  0
  187.5020  179.0040  140.7930 C   0  0  2  0  0  3  0  0  0  0  0  0
  186.3160  178.6330  140.1510 O   0  0  0  0  0  1  0  0  0  0  0  0
  188.6690  178.5210  139.9750 C   0  0  0  0  0  2  0  0  0  0  0  0
  188.7120  177.2770  142.0390 N   0  0  0  0  0  0  0  0  0  0  0  0
  185.6640  178.6500  143.4080 O   0  0  0  0  0  1  0  0  0  0  0  0
  186.3840  177.6850  142.7040 C   0  0  0  0  0  2  0  0  0  0  0  0
  190.3800  176.6830  140.2140 C   0  0  0  0  0  2  0  0  0  0  0  0
  190.6410  176.9230  138.7930 N   0  0  0  0  0  0  0  0  0  0  0  0
  192.1070  175.1560  138.1490 C   0  0  2  0  0  3  0  0  0  0  0  0
  189.8950  175.8940  138.0790 C   0  0  0  0  0  2  0  0  0  0  0  0
  193.0760  177.0940  139.4400 C   0  0  0  0  0  1  0  0  0  0  0  0
  192.0290  176.6320  138.4290 C   0  0  2  0  0  3  0  0  0  0  0  0
  193.0000  174.9000  136.9520 C   0  0  0  0  0  1  0  0  0  0  0  0
  190.7510  174.7290  137.8520 N   0  0  0  0  0  2  0  0  0  0  0  0
  189.8790  177.7920  142.7680 C   0  0  0  0  0  2  0  0  0  0  0  0
  189.1660  178.0380  145.9470 C   0  0  1  0  0  3  0  0  0  0  0  0
  191.0710  176.7190  146.2610 C   0  0  0  0  0  0  0  0  0  0  0  0
  190.3190  176.8520  143.8960 C   0  0  2  0  0  3  0  0  0  0  0  0
  189.5860  177.9110  147.4270 C   0  0  2  0  0  3  0  0  0  0  0  0
  190.4490  177.5880  145.2380 C   0  0  1  0  0  3  0  0  0  0  0  0
  192.0200  175.1480  144.6390 C   0  0  0  0  0  2  0  0  0  0  0  0
  190.6260  176.8960  147.4550 N   0  0  0  0  0  0  0  0  0  0  0  0
  192.0110  175.7410  145.9390 O   0  0  0  0  0  0  0  0  0  0  0  0
  188.2730  177.5260  148.5800 Cl  0  0  0  0  0  0  0  0  0  0  0  0
  187.9870  177.1220  145.6120 C   0  0  0  0  0  1  0  0  0  0  0  0
  191.6390  176.1550  143.5500 C   0  0  0  0  0  2  0  0  0  0  0  0
  1  9  1  1  0  0  0
  1  6  1  0  0  0  0
  2  8  1  6  0  0  0
  3  4  1  6  0  0  0
  3  2  1  0  0  0  0
  5  1  1  0  0  0  0
  5  3  1  0  0  0  0
  6  2  1  0  0  0  0
  6 17  1  0  0  0  0
  8  7  1  0  0  0  0
 10  9  1  0  0  0  0
 11 15  1  6  0  0  0
 11 14  1  0  0  0  0
 12 10  1  0  0  0  0
 14 10  1  0  0  0  0
 14 13  1  1  0  0  0
 16 12  1  0  0  0  0
 16 11  1  0  0  0  0
 18 27  1  1  0  0  0
 18 21  1  0  0  0  0
 19 24  2  0  0  0  0
 20 17  1  6  0  0  0
 20 22  1  0  0  0  0
 21 24  1  0  0  0  0
 21 26  1  1  0  0  0
 22 18  1  0  0  0  0
 22 19  1  1  0  0  0
 23 25  1  0  0  0  0
 25 19  1  0  0  0  0
 28 20  1  0  0  0  0
 28 23  1  0  0  0  0
M  END
>  <MODEL>
1

>  <REMARK>
 VINA RESULT:      -7.7      0.000      0.000
  Name = 
  5 active torsions:
  status: ('A' for Active; 'I' for Inactive)
    1  A    between atoms: C_1  and  C_2
    2  A    between atoms: C_2  and  N_3
    3  A    between atoms: C_10  and  C_17
    4  A    between atoms: C_16  and  C_20
    5  A    between atoms: C_17  and  N_27
                            x       y       z     vdW  Elec       q    Type
                         _______ _______ _______ _____ _____    ______ ____

>  <TORSDO>
F 5

$$$$
=
 OpenBabel11052413223D

 28 31  0  0  1  0  0  0  0  0999 V2000
  187.9520  177.7380  144.0790 C   0  0  2  0  0  3  0  0  0  0  0  0
  186.6320  178.1350  142.2120 C   0  0  2  0  0  3  0  0  0  0  0  0
  185.7150  177.6560  143.3490 C   0  0  2  0  0  3  0  0  0  0  0  0
  185.0470  178.7200  143.9650 O   0  0  0  0  0  1  0  0  0  0  0  0
  186.6510  177.0280  144.3460 C   0  0  0  0  0  2  0  0  0  0  0  0
  188.0290  178.0230  142.6370 N   0  0  0  0  0  0  0  0  0  0  0  0
  185.3730  179.5070  140.7100 O   0  0  0  0  0  1  0  0  0  0  0  0
  186.3400  179.5480  141.7150 C   0  0  0  0  0  2  0  0  0  0  0  0
  189.1510  176.9970  144.6750 C   0  0  0  0  0  2  0  0  0  0  0  0
  189.9510  177.8990  145.5060 N   0  0  0  0  0  0  0  0  0  0  0  0
  191.2020  176.4490  146.9270 C   0  0  2  0  0  3  0  0  0  0  0  0
  191.3180  177.7760  145.0120 C   0  0  0  0  0  2  0  0  0  0  0  0
  188.7750  176.8540  147.4820 C   0  0  0  0  0  1  0  0  0  0  0  0
  190.0600  177.4280  146.8880 C   0  0  2  0  0  3  0  0  0  0  0  0
  192.0090  176.6410  148.1950 C   0  0  0  0  0  1  0  0  0  0  0  0
  192.0280  176.7450  145.7690 N   0  0  0  0  0  2  0  0  0  0  0  0
  188.6010  176.8860  141.9030 C   0  0  0  0  0  2  0  0  0  0  0  0
  188.6360  176.9430  138.6350 C   0  0  1  0  0  3  0  0  0  0  0  0
  190.9590  176.8320  138.8670 C   0  0  0  0  0  0  0  0  0  0  0  0
  189.7580  177.3090  140.9900 C   0  0  2  0  0  3  0  0  0  0  0  0
  189.3730  176.7110  137.3010 C   0  0  2  0  0  3  0  0  0  0  0  0
  189.7280  176.5700  139.6440 C   0  0  1  0  0  3  0  0  0  0  0  0
  192.2540  177.6040  140.7990 C   0  0  0  0  0  2  0  0  0  0  0  0
  190.7850  176.8930  137.5950 N   0  0  0  0  0  0  0  0  0  0  0  0
  192.1910  177.0650  139.4760 O   0  0  0  0  0  0  0  0  0  0  0  0
  188.8580  177.7430  135.9330 Cl  0  0  0  0  0  0  0  0  0  0  0  0
  188.1970  178.4010  138.7940 C   0  0  0  0  0  1  0  0  0  0  0  0
  191.1100  177.0900  141.6790 C   0  0  0  0  0  2  0  0  0  0  0  0
  1  5  1  0  0  0  0
  1  9  1  6  0  0  0
  2  8  1  1  0  0  0
  2  6  1  0  0  0  0
  2  3  1  0  0  0  0
  3  4  1  1  0  0  0
  3  5  1  0  0  0  0
  6  1  1  0  0  0  0
  7  8  1  0  0  0  0
  9 10  1  0  0  0  0
 10 14  1  0  0  0  0
 11 15  1  1  0  0  0
 12 10  1  0  0  0  0
 12 16  1  0  0  0  0
 14 11  1  0  0  0  0
 14 13  1  6  0  0  0
 16 11  1  0  0  0  0
 17  6  1  0  0  0  0
 18 27  1  1  0  0  0
 18 22  1  0  0  0  0
 19 25  1  0  0  0  0
 20 28  1  0  0  0  0
 20 17  1  1  0  0  0
 21 26  1  6  0  0  0
 21 24  1  0  0  0  0
 21 18  1  0  0  0  0
 22 19  1  6  0  0  0
 22 20  1  0  0  0  0
 23 28  1  0  0  0  0
 24 19  2  0  0  0  0
 25 23  1  0  0  0  0
M  END
>  <MODEL>
2

>  <REMARK>
 VINA RESULT:      -7.3      3.116      6.746
  Name = 
  5 active torsions:
  status: ('A' for Active; 'I' for Inactive)
    1  A    between atoms: C_1  and  C_2
    2  A    between atoms: C_2  and  N_3
    3  A    between atoms: C_10  and  C_17
    4  A    between atoms: C_16  and  C_20
    5  A    between atoms: C_17  and  N_27
                            x       y       z     vdW  Elec       q    Type
                         _______ _______ _______ _____ _____    ______ ____

>  <TORSDO>
F 5

$$$$
=
 OpenBabel11052413223D

 28 31  0  0  1  0  0  0  0  0999 V2000
  189.7220  177.8090  140.1520 C   0  0  2  0  0  3  0  0  0  0  0  0
  190.5430  177.4510  142.2930 C   0  0  2  0  0  3  0  0  0  0  0  0
  191.4190  176.6580  141.3090 C   0  0  2  0  0  3  0  0  0  0  0  0
  192.6210  177.3190  141.0320 O   0  0  0  0  0  1  0  0  0  0  0  0
  190.6000  176.5890  140.0490 C   0  0  0  0  0  2  0  0  0  0  0  0
  189.4040  178.0240  141.5720 N   0  0  0  0  0  0  0  0  0  0  0  0
  191.9290  177.9800  144.1690 O   0  0  0  0  0  1  0  0  0  0  0  0
  191.2820  178.5380  143.0660 C   0  0  0  0  0  2  0  0  0  0  0  0
  188.5230  177.7430  139.2030 C   0  0  0  0  0  2  0  0  0  0  0  0
  188.9690  177.7510  137.8090 N   0  0  0  0  0  0  0  0  0  0  0  0
  186.9710  178.0590  136.5450 C   0  0  2  0  0  3  0  0  0  0  0  0
  188.8660  179.1390  137.3730 C   0  0  0  0  0  2  0  0  0  0  0  0
  187.4430  175.7660  137.4820 C   0  0  0  0  0  1  0  0  0  0  0  0
  188.0300  177.0600  136.9230 C   0  0  2  0  0  3  0  0  0  0  0  0
  186.6030  177.8990  135.0830 C   0  0  0  0  0  1  0  0  0  0  0  0
  187.5560  179.3710  136.7640 N   0  0  0  0  0  2  0  0  0  0  0  0
  188.2210  177.2490  141.9720 C   0  0  0  0  0  2  0  0  0  0  0  0
  187.7270  177.2440  145.2020 C   0  0  1  0  0  3  0  0  0  0  0  0
  185.6220  178.1110  144.6700 C   0  0  0  0  0  0  0  0  0  0  0  0
  187.2150  178.0930  142.7620 C   0  0  2  0  0  3  0  0  0  0  0  0
  186.7690  177.3090  146.4100 C   0  0  2  0  0  3  0  0  0  0  0  0
  186.7400  177.3790  144.0370 C   0  0  1  0  0  3  0  0  0  0  0  0
  185.0570  179.3920  142.6600 C   0  0  0  0  0  2  0  0  0  0  0  0
  185.6150  178.0660  145.9550 N   0  0  0  0  0  0  0  0  0  0  0  0
  184.6970  178.8460  143.9310 O   0  0  0  0  0  0  0  0  0  0  0  0
  187.4500  178.0050  147.9110 Cl  0  0  0  0  0  0  0  0  0  0  0  0
  188.7390  178.3920  145.2190 C   0  0  0  0  0  1  0  0  0  0  0  0
  186.0090  178.4690  141.8930 C   0  0  0  0  0  2  0  0  0  0  0  0
  1  9  1  6  0  0  0
  1  6  1  0  0  0  0
  2  8  1  6  0  0  0
  3  4  1  6  0  0  0
  3  2  1  0  0  0  0
  5  1  1  0  0  0  0
  5  3  1  0  0  0  0
  6 17  1  0  0  0  0
  6  2  1  0  0  0  0
  8  7  1  0  0  0  0
 10  9  1  0  0  0  0
 11 15  1  6  0  0  0
 11 16  1  0  0  0  0
 11 14  1  0  0  0  0
 12 10  1  0  0  0  0
 14 13  1  1  0  0  0
 14 10  1  0  0  0  0
 16 12  1  0  0  0  0
 18 27  1  1  0  0  0
 18 21  1  0  0  0  0
 19 24  2  0  0  0  0
 20 17  1  6  0  0  0
 20 22  1  0  0  0  0
 21 26  1  1  0  0  0
 22 19  1  1  0  0  0
 22 18  1  0  0  0  0
 23 25  1  0  0  0  0
 24 21  1  0  0  0  0
 25 19  1  0  0  0  0
 28 23  1  0  0  0  0
 28 20  1  0  0  0  0
M  END
>  <MODEL>
3

>  <REMARK>
 VINA RESULT:      -7.2      2.487      4.769
  Name = 
  5 active torsions:
  status: ('A' for Active; 'I' for Inactive)
    1  A    between atoms: C_1  and  C_2
    2  A    between atoms: C_2  and  N_3
    3  A    between atoms: C_10  and  C_17
    4  A    between atoms: C_16  and  C_20
    5  A    between atoms: C_17  and  N_27
                            x       y       z     vdW  Elec       q    Type
                         _______ _______ _______ _____ _____    ______ ____

>  <TORSDO>
F 5

$$$$
=
 OpenBabel11052413223D

 28 31  0  0  1  0  0  0  0  0999 V2000
  187.6970  178.6380  140.9760 C   0  0  2  0  0  3  0  0  0  0  0  0
  189.4760  177.3770  141.7720 C   0  0  2  0  0  3  0  0  0  0  0  0
  189.2900  177.0500  140.2800 C   0  0  2  0  0  3  0  0  0  0  0  0
  190.2160  177.7270  139.4790 O   0  0  0  0  0  1  0  0  0  0  0  0
  187.9090  177.5510  139.9560 C   0  0  0  0  0  2  0  0  0  0  0  0
  188.3780  178.2380  142.2180 N   0  0  0  0  0  0  0  0  0  0  0  0
  191.7720  177.0090  142.3310 O   0  0  0  0  0  1  0  0  0  0  0  0
  190.8200  178.0070  142.1200 C   0  0  0  0  0  2  0  0  0  0  0  0
  186.2220  179.0200  141.1200 C   0  0  0  0  0  2  0  0  0  0  0  0
  185.4020  178.2740  140.1640 N   0  0  0  0  0  0  0  0  0  0  0  0
  183.3870  179.5370  139.9930 C   0  0  2  0  0  3  0  0  0  0  0  0
  185.4130  179.0650  138.9390 C   0  0  0  0  0  2  0  0  0  0  0  0
  183.7070  178.0750  142.0240 C   0  0  0  0  0  1  0  0  0  0  0  0
  183.9860  178.2670  140.5350 C   0  0  2  0  0  3  0  0  0  0  0  0
  182.0050  179.2620  139.4340 C   0  0  0  0  0  1  0  0  0  0  0  0
  184.2700  179.9780  138.9280 N   0  0  0  0  0  2  0  0  0  0  0  0
  187.5050  177.4050  143.0560 C   0  0  0  0  0  2  0  0  0  0  0  0
  189.3730  176.9470  145.6980 C   0  0  1  0  0  3  0  0  0  0  0  0
  187.4640  177.5670  146.8960 C   0  0  0  0  0  0  0  0  0  0  0  0
  187.3030  178.0000  144.4540 C   0  0  2  0  0  3  0  0  0  0  0  0
  189.5090  176.7330  147.2200 C   0  0  2  0  0  3  0  0  0  0  0  0
  187.8520  177.0800  145.5550 C   0  0  1  0  0  3  0  0  0  0  0  0
  185.6450  178.9870  146.0740 C   0  0  0  0  0  2  0  0  0  0  0  0
  188.3450  177.3700  147.8120 N   0  0  0  0  0  0  0  0  0  0  0  0
  186.2700  178.2490  147.1260 O   0  0  0  0  0  0  0  0  0  0  0  0
  191.0230  177.3340  147.9600 Cl  0  0  0  0  0  0  0  0  0  0  0  0
  190.0950  178.2140  145.2360 C   0  0  0  0  0  1  0  0  0  0  0  0
  185.8240  178.3040  144.7150 C   0  0  0  0  0  2  0  0  0  0  0  0
  1  9  1  1  0  0  0
  1  6  1  0  0  0  0
  2  8  1  6  0  0  0
  2  6  1  0  0  0  0
  3  4  1  6  0  0  0
  3  2  1  0  0  0  0
  5  3  1  0  0  0  0
  5  1  1  0  0  0  0
  6 17  1  0  0  0  0
  8  7  1  0  0  0  0
 10 14  1  0  0  0  0
 10  9  1  0  0  0  0
 11 15  1  6  0  0  0
 11 14  1  0  0  0  0
 12 10  1  0  0  0  0
 14 13  1  1  0  0  0
 16 12  1  0  0  0  0
 16 11  1  0  0  0  0
 18 27  1  1  0  0  0
 18 21  1  0  0  0  0
 19 25  1  0  0  0  0
 19 24  2  0  0  0  0
 20 17  1  6  0  0  0
 20 28  1  0  0  0  0
 20 22  1  0  0  0  0
 21 24  1  0  0  0  0
 21 26  1  1  0  0  0
 22 18  1  0  0  0  0
 22 19  1  1  0  0  0
 23 25  1  0  0  0  0
 28 23  1  0  0  0  0
M  END
>  <MODEL>
4

>  <REMARK>
 VINA RESULT:      -7.2      2.849      5.548
  Name = 
  5 active torsions:
  status: ('A' for Active; 'I' for Inactive)
    1  A    between atoms: C_1  and  C_2
    2  A    between atoms: C_2  and  N_3
    3  A    between atoms: C_10  and  C_17
    4  A    between atoms: C_16  and  C_20
    5  A    between atoms: C_17  and  N_27
                            x       y       z     vdW  Elec       q    Type
                         _______ _______ _______ _____ _____    ______ ____

>  <TORSDO>
F 5

$$$$
=
 OpenBabel11052413223D

 28 31  0  0  1  0  0  0  0  0999 V2000
  184.3410  178.0570  142.7560 C   0  0  2  0  0  3  0  0  0  0  0  0
  185.8550  178.6540  144.4100 C   0  0  2  0  0  3  0  0  0  0  0  0
  184.5130  179.3330  144.7270 C   0  0  2  0  0  3  0  0  0  0  0  0
  183.8020  178.6490  145.7180 O   0  0  0  0  0  1  0  0  0  0  0  0
  183.7410  179.2590  143.4370 C   0  0  0  0  0  2  0  0  0  0  0  0
  185.7700  178.0010  143.1020 N   0  0  0  0  0  0  0  0  0  0  0  0
  187.3100  178.2490  146.2650 O   0  0  0  0  0  1  0  0  0  0  0  0
  186.3280  177.6610  145.4680 C   0  0  0  0  0  2  0  0  0  0  0  0
  184.0150  178.0140  141.2610 C   0  0  0  0  0  2  0  0  0  0  0  0
  182.8330  178.8260  140.9690 N   0  0  0  0  0  0  0  0  0  0  0  0
  182.2370  178.2320  138.7380 C   0  0  2  0  0  3  0  0  0  0  0  0
  181.7070  177.9000  140.9850 C   0  0  0  0  0  2  0  0  0  0  0  0
  184.1800  179.8060  139.0710 C   0  0  0  0  0  1  0  0  0  0  0  0
  182.8280  179.3220  139.5910 C   0  0  2  0  0  3  0  0  0  0  0  0
  181.3260  178.8330  137.6860 C   0  0  0  0  0  1  0  0  0  0  0  0
  181.4660  177.3900  139.6350 N   0  0  0  0  0  2  0  0  0  0  0  0
  186.5700  178.8130  142.1750 C   0  0  0  0  0  2  0  0  0  0  0  0
  189.4230  177.6300  143.2440 C   0  0  1  0  0  3  0  0  0  0  0  0
  189.9950  177.5420  140.9790 C   0  0  0  0  0  0  0  0  0  0  0  0
  187.5820  177.9700  141.3900 C   0  0  2  0  0  3  0  0  0  0  0  0
  190.9100  177.3000  143.0010 C   0  0  2  0  0  3  0  0  0  0  0  0
  189.0200  178.1980  141.8770 C   0  0  1  0  0  3  0  0  0  0  0  0
  188.4310  177.3370  139.1040 C   0  0  0  0  0  2  0  0  0  0  0  0
  191.0320  177.0660  141.5720 N   0  0  0  0  0  0  0  0  0  0  0  0
  189.7660  177.3910  139.6120 O   0  0  0  0  0  0  0  0  0  0  0  0
  191.5690  175.9270  143.9400 Cl  0  0  0  0  0  0  0  0  0  0  0  0
  188.6140  176.3780  143.5940 C   0  0  0  0  0  1  0  0  0  0  0  0
  187.4860  178.2530  139.8870 C   0  0  0  0  0  2  0  0  0  0  0  0
  1  9  1  6  0  0  0
  1  6  1  0  0  0  0
  1  5  1  0  0  0  0
  2  3  1  0  0  0  0
  2  8  1  1  0  0  0
  3  4  1  1  0  0  0
  5  3  1  0  0  0  0
  6  2  1  0  0  0  0
  8  7  1  0  0  0  0
 10 12  1  0  0  0  0
 10  9  1  0  0  0  0
 11 15  1  6  0  0  0
 11 14  1  0  0  0  0
 11 16  1  0  0  0  0
 14 13  1  6  0  0  0
 14 10  1  0  0  0  0
 16 12  1  0  0  0  0
 17  6  1  0  0  0  0
 18 27  1  6  0  0  0
 19 24  2  0  0  0  0
 20 22  1  0  0  0  0
 20 17  1  1  0  0  0
 21 18  1  0  0  0  0
 21 26  1  1  0  0  0
 22 19  1  6  0  0  0
 22 18  1  0  0  0  0
 23 25  1  0  0  0  0
 23 28  1  0  0  0  0
 24 21  1  0  0  0  0
 25 19  1  0  0  0  0
 28 20  1  0  0  0  0
M  END
>  <MODEL>
5

>  <REMARK>
 VINA RESULT:      -7.0      3.672      6.539
  Name = 
  5 active torsions:
  status: ('A' for Active; 'I' for Inactive)
    1  A    between atoms: C_1  and  C_2
    2  A    between atoms: C_2  and  N_3
    3  A    between atoms: C_10  and  C_17
    4  A    between atoms: C_16  and  C_20
    5  A    between atoms: C_17  and  N_27
                            x       y       z     vdW  Elec       q    Type
                         _______ _______ _______ _____ _____    ______ ____

>  <TORSDO>
F 5

$$$$
=
 OpenBabel11052413223D

 28 31  0  0  1  0  0  0  0  0999 V2000
  191.6780  176.7730  140.3380 C   0  0  2  0  0  3  0  0  0  0  0  0
  191.4850  176.3680  138.0610 C   0  0  2  0  0  3  0  0  0  0  0  0
  192.9690  176.6240  138.3750 C   0  0  2  0  0  3  0  0  0  0  0  0
  193.6980  175.4330  138.4570 O   0  0  0  0  0  1  0  0  0  0  0  0
  192.9580  177.2810  139.7280 C   0  0  0  0  0  2  0  0  0  0  0  0
  190.6860  176.6250  139.2610 N   0  0  0  0  0  0  0  0  0  0  0  0
  191.3830  174.9610  136.1300 O   0  0  0  0  0  1  0  0  0  0  0  0
  191.1840  174.9780  137.5110 C   0  0  0  0  0  2  0  0  0  0  0  0
  191.2350  177.6100  141.5400 C   0  0  0  0  0  2  0  0  0  0  0  0
  191.3050  176.8200  142.7710 N   0  0  0  0  0  0  0  0  0  0  0  0
  189.4910  177.6190  144.0970 C   0  0  2  0  0  3  0  0  0  0  0  0
  190.1880  175.8850  142.7000 C   0  0  0  0  0  2  0  0  0  0  0  0
  191.5830  179.0230  143.9740 C   0  0  0  0  0  1  0  0  0  0  0  0
  190.9900  177.6160  143.9590 C   0  0  2  0  0  3  0  0  0  0  0  0
  189.1040  177.4870  145.5560 C   0  0  0  0  0  1  0  0  0  0  0  0
  189.0150  176.4640  143.3560 N   0  0  0  0  0  2  0  0  0  0  0  0
  189.9690  177.8860  139.0260 C   0  0  0  0  0  2  0  0  0  0  0  0
  187.5170  177.2160  136.9730 C   0  0  1  0  0  3  0  0  0  0  0  0
  186.1700  178.2590  138.5740 C   0  0  0  0  0  0  0  0  0  0  0  0
  188.4770  177.7750  139.3610 C   0  0  2  0  0  3  0  0  0  0  0  0
  186.0690  177.4540  136.4940 C   0  0  2  0  0  3  0  0  0  0  0  0
  187.5900  178.1700  138.1710 C   0  0  1  0  0  3  0  0  0  0  0  0
  186.6530  178.4350  140.9700 C   0  0  0  0  0  2  0  0  0  0  0  0
  185.3340  177.8910  137.6690 N   0  0  0  0  0  0  0  0  0  0  0  0
  185.7800  178.6420  139.8560 O   0  0  0  0  0  0  0  0  0  0  0  0
  185.2680  176.0590  135.7110 Cl  0  0  0  0  0  0  0  0  0  0  0  0
  187.7440  175.7630  137.3950 C   0  0  0  0  0  1  0  0  0  0  0  0
  188.1230  178.6280  140.5850 C   0  0  0  0  0  2  0  0  0  0  0  0
  1  9  1  1  0  0  0
  2  8  1  1  0  0  0
  2  3  1  0  0  0  0
  2  6  1  0  0  0  0
  3  4  1  1  0  0  0
  3  5  1  0  0  0  0
  5  1  1  0  0  0  0
  6  1  1  0  0  0  0
  7  8  1  0  0  0  0
  9 10  1  0  0  0  0
 10 14  1  0  0  0  0
 11 15  1  1  0  0  0
 12 10  1  0  0  0  0
 12 16  1  0  0  0  0
 14 13  1  6  0  0  0
 14 11  1  0  0  0  0
 16 11  1  0  0  0  0
 17  6  1  0  0  0  0
 18 27  1  1  0  0  0
 18 22  1  0  0  0  0
 19 25  1  0  0  0  0
 20 17  1  6  0  0  0
 20 28  1  0  0  0  0
 21 26  1  1  0  0  0
 21 18  1  0  0  0  0
 21 24  1  0  0  0  0
 22 19  1  1  0  0  0
 22 20  1  0  0  0  0
 24 19  2  0  0  0  0
 25 23  1  0  0  0  0
 28 23  1  0  0  0  0
M  END
>  <MODEL>
6

>  <REMARK>
 VINA RESULT:      -6.9      3.783      7.453
  Name = 
  5 active torsions:
  status: ('A' for Active; 'I' for Inactive)
    1  A    between atoms: C_1  and  C_2
    2  A    between atoms: C_2  and  N_3
    3  A    between atoms: C_10  and  C_17
    4  A    between atoms: C_16  and  C_20
    5  A    between atoms: C_17  and  N_27
                            x       y       z     vdW  Elec       q    Type
                         _______ _______ _______ _____ _____    ______ ____

>  <TORSDO>
F 5

$$$$
=
 OpenBabel11052413223D

 28 31  0  0  1  0  0  0  0  0999 V2000
  188.7180  176.9290  137.6060 C   0  0  2  0  0  3  0  0  0  0  0  0
  187.0670  178.5400  137.8620 C   0  0  2  0  0  3  0  0  0  0  0  0
  187.5460  178.5790  136.4020 C   0  0  2  0  0  3  0  0  0  0  0  0
  186.6660  177.9090  135.5450 O   0  0  0  0  0  1  0  0  0  0  0  0
  188.8600  177.8450  136.4190 C   0  0  0  0  0  2  0  0  0  0  0  0
  187.9180  177.6250  138.6260 N   0  0  0  0  0  0  0  0  0  0  0  0
  184.9080  179.2290  138.6260 O   0  0  0  0  0  1  0  0  0  0  0  0
  185.5980  178.1690  138.0380 C   0  0  0  0  0  2  0  0  0  0  0  0
  190.0650  176.3780  138.0780 C   0  0  0  0  0  2  0  0  0  0  0  0
  190.9680  176.1820  136.9420 N   0  0  0  0  0  0  0  0  0  0  0  0
  192.4450  174.4480  137.6450 C   0  0  2  0  0  3  0  0  0  0  0  0
  190.5690  174.9150  136.3400 C   0  0  0  0  0  2  0  0  0  0  0  0
  192.8350  176.7750  138.5350 C   0  0  0  0  0  1  0  0  0  0  0  0
  192.3450  175.9230  137.3670 C   0  0  2  0  0  3  0  0  0  0  0  0
  193.7710  173.9130  137.1420 C   0  0  0  0  0  1  0  0  0  0  0  0
  191.3540  173.8240  136.9170 N   0  0  0  0  0  2  0  0  0  0  0  0
  188.7670  178.4610  139.4850 C   0  0  0  0  0  2  0  0  0  0  0  0
  190.3340  176.6260  141.6890 C   0  0  1  0  0  3  0  0  0  0  0  0
  188.3190  176.7010  142.8730 C   0  0  0  0  0  0  0  0  0  0  0  0
  188.4280  178.2970  140.9710 C   0  0  2  0  0  3  0  0  0  0  0  0
  190.3030  175.6760  142.9050 C   0  0  2  0  0  3  0  0  0  0  0  0
  188.8390  176.9170  141.5060 C   0  0  1  0  0  3  0  0  0  0  0  0
  186.6240  178.4630  142.7230 C   0  0  0  0  0  2  0  0  0  0  0  0
  189.0940  176.0150  143.6370 N   0  0  0  0  0  0  0  0  0  0  0  0
  187.1200  177.2590  143.3130 O   0  0  0  0  0  0  0  0  0  0  0  0
  191.7400  175.7260  143.9700 Cl  0  0  0  0  0  0  0  0  0  0  0  0
  191.1240  177.9020  141.9860 C   0  0  0  0  0  1  0  0  0  0  0  0
  186.9350  178.5330  141.2250 C   0  0  0  0  0  2  0  0  0  0  0  0
  1  9  1  1  0  0  0
  1  6  1  0  0  0  0
  2  8  1  6  0  0  0
  2  6  1  0  0  0  0
  3  4  1  6  0  0  0
  3  5  1  0  0  0  0
  3  2  1  0  0  0  0
  5  1  1  0  0  0  0
  6 17  1  0  0  0  0
  8  7  1  0  0  0  0
 10 14  1  0  0  0  0
 10  9  1  0  0  0  0
 11 15  1  6  0  0  0
 12 16  1  0  0  0  0
 12 10  1  0  0  0  0
 14 11  1  0  0  0  0
 14 13  1  1  0  0  0
 16 11  1  0  0  0  0
 18 27  1  1  0  0  0
 18 21  1  0  0  0  0
 19 25  1  0  0  0  0
 19 24  2  0  0  0  0
 20 17  1  6  0  0  0
 20 28  1  0  0  0  0
 20 22  1  0  0  0  0
 21 24  1  0  0  0  0
 21 26  1  1  0  0  0
 22 18  1  0  0  0  0
 22 19  1  1  0  0  0
 23 25  1  0  0  0  0
 28 23  1  0  0  0  0
M  END
>  <MODEL>
7

>  <REMARK>
 VINA RESULT:      -6.7      2.641      4.052
  Name = 
  5 active torsions:
  status: ('A' for Active; 'I' for Inactive)
    1  A    between atoms: C_1  and  C_2
    2  A    between atoms: C_2  and  N_3
    3  A    between atoms: C_10  and  C_17
    4  A    between atoms: C_16  and  C_20
    5  A    between atoms: C_17  and  N_27
                            x       y       z     vdW  Elec       q    Type
                         _______ _______ _______ _____ _____    ______ ____

>  <TORSDO>
F 5

$$$$
=
 OpenBabel11052413223D

 28 31  0  0  1  0  0  0  0  0999 V2000
  187.5450  177.8170  143.1820 C   0  0  2  0  0  3  0  0  0  0  0  0
  185.8500  178.1000  144.7420 C   0  0  2  0  0  3  0  0  0  0  0  0
  186.8850  177.1290  145.3350 C   0  0  2  0  0  3  0  0  0  0  0  0
  187.7360  177.7650  146.2440 O   0  0  0  0  0  1  0  0  0  0  0  0
  187.6920  176.6720  144.1500 C   0  0  0  0  0  2  0  0  0  0  0  0
  186.1980  178.3840  143.3480 N   0  0  0  0  0  0  0  0  0  0  0  0
  184.8800  179.1790  146.6430 O   0  0  0  0  0  1  0  0  0  0  0  0
  185.6810  179.4000  145.5220 C   0  0  0  0  0  2  0  0  0  0  0  0
  187.9300  177.4220  141.7540 C   0  0  0  0  0  2  0  0  0  0  0  0
  189.0600  178.2260  141.2850 N   0  0  0  0  0  0  0  0  0  0  0  0
  190.1810  176.8230  139.7170 C   0  0  2  0  0  3  0  0  0  0  0  0
  188.7170  178.6270  139.9260 C   0  0  0  0  0  2  0  0  0  0  0  0
  190.5320  176.3770  142.1750 C   0  0  0  0  0  1  0  0  0  0  0  0
  190.2700  177.4230  141.0940 C   0  0  2  0  0  3  0  0  0  0  0  0
  191.5410  176.8510  139.0500 C   0  0  0  0  0  1  0  0  0  0  0  0
  189.2510  177.6530  138.9730 N   0  0  0  0  0  2  0  0  0  0  0  0
  185.2180  177.6720  142.5170 C   0  0  0  0  0  2  0  0  0  0  0  0
  182.0830  178.5170  142.8880 C   0  0  1  0  0  3  0  0  0  0  0  0
  182.1760  179.0530  140.6140 C   0  0  0  0  0  0  0  0  0  0  0  0
  184.4000  178.6270  141.6390 C   0  0  2  0  0  3  0  0  0  0  0  0
  180.7030  178.8420  142.2790 C   0  0  2  0  0  3  0  0  0  0  0  0
  182.9090  178.2570  141.6230 C   0  0  1  0  0  3  0  0  0  0  0  0
  184.1840  179.6910  139.3650 C   0  0  0  0  0  2  0  0  0  0  0  0
  180.9730  179.3620  140.9490 N   0  0  0  0  0  0  0  0  0  0  0  0
  182.7710  179.4900  139.4320 O   0  0  0  0  0  0  0  0  0  0  0  0
  179.6800  179.9690  143.2190 Cl  0  0  0  0  0  0  0  0  0  0  0  0
  182.6390  179.6950  143.6920 C   0  0  0  0  0  1  0  0  0  0  0  0
  184.9470  178.6630  140.2080 C   0  0  0  0  0  2  0  0  0  0  0  0
  1  9  1  6  0  0  0
  1  6  1  0  0  0  0
  1  5  1  0  0  0  0
  2  3  1  0  0  0  0
  2  8  1  1  0  0  0
  3  4  1  1  0  0  0
  5  3  1  0  0  0  0
  6  2  1  0  0  0  0
  8  7  1  0  0  0  0
 10  9  1  0  0  0  0
 11 15  1  6  0  0  0
 11 14  1  0  0  0  0
 12 10  1  0  0  0  0
 14 10  1  0  0  0  0
 14 13  1  1  0  0  0
 16 11  1  0  0  0  0
 16 12  1  0  0  0  0
 17  6  1  0  0  0  0
 18 27  1  6  0  0  0
 19 24  2  0  0  0  0
 20 17  1  1  0  0  0
 21 18  1  0  0  0  0
 21 26  1  1  0  0  0
 22 19  1  6  0  0  0
 22 20  1  0  0  0  0
 22 18  1  0  0  0  0
 23 25  1  0  0  0  0
 23 28  1  0  0  0  0
 24 21  1  0  0  0  0
 25 19  1  0  0  0  0
 28 20  1  0  0  0  0
M  END
>  <MODEL>
8

>  <REMARK>
 VINA RESULT:      -6.4      3.729      6.672
  Name = 
  5 active torsions:
  status: ('A' for Active; 'I' for Inactive)
    1  A    between atoms: C_1  and  C_2
    2  A    between atoms: C_2  and  N_3
    3  A    between atoms: C_10  and  C_17
    4  A    between atoms: C_16  and  C_20
    5  A    between atoms: C_17  and  N_27
                            x       y       z     vdW  Elec       q    Type
                         _______ _______ _______ _____ _____    ______ ____

>  <TORSDO>
F 5

$$$$
=
 OpenBabel11052413223D

 28 31  0  0  1  0  0  0  0  0999 V2000
  189.4470  177.2260  140.3720 C   0  0  2  0  0  3  0  0  0  0  0  0
  188.4910  177.2330  138.2560 C   0  0  2  0  0  3  0  0  0  0  0  0
  190.0010  177.4770  138.0970 C   0  0  2  0  0  3  0  0  0  0  0  0
  190.6800  176.3160  137.7130 O   0  0  0  0  0  1  0  0  0  0  0  0
  190.4630  177.8790  139.4720 C   0  0  0  0  0  2  0  0  0  0  0  0
  188.1480  177.2420  139.6800 N   0  0  0  0  0  0  0  0  0  0  0  0
  187.7420  176.1850  136.2420 O   0  0  0  0  0  1  0  0  0  0  0  0
  187.9830  175.9550  137.5960 C   0  0  0  0  0  2  0  0  0  0  0  0
  189.4560  177.8170  141.7830 C   0  0  0  0  0  2  0  0  0  0  0  0
  189.8880  176.8130  142.7580 N   0  0  0  0  0  0  0  0  0  0  0  0
  189.1260  177.6520  144.8560 C   0  0  2  0  0  3  0  0  0  0  0  0
  188.6740  176.1130  143.1630 C   0  0  0  0  0  2  0  0  0  0  0  0
  191.1990  178.6760  143.8480 C   0  0  0  0  0  1  0  0  0  0  0  0
  190.3480  177.4190  144.0100 C   0  0  2  0  0  3  0  0  0  0  0  0
  189.4260  177.3220  146.3040 C   0  0  0  0  0  1  0  0  0  0  0  0
  188.1040  176.7540  144.3480 N   0  0  0  0  0  2  0  0  0  0  0  0
  187.4310  178.5000  139.9310 C   0  0  0  0  0  2  0  0  0  0  0  0
  184.5210  178.6530  138.4520 C   0  0  1  0  0  3  0  0  0  0  0  0
  183.6800  179.0050  140.6050 C   0  0  0  0  0  0  0  0  0  0  0  0
  186.0520  178.2660  140.5600 C   0  0  2  0  0  3  0  0  0  0  0  0
  183.0300  179.0500  138.4690 C   0  0  2  0  0  3  0  0  0  0  0  0
  184.9550  179.0800  139.8590 C   0  0  1  0  0  3  0  0  0  0  0  0
  184.7150  178.2600  142.6960 C   0  0  0  0  0  2  0  0  0  0  0  0
  182.6280  179.0060  139.8650 N   0  0  0  0  0  0  0  0  0  0  0  0
  183.6330  178.8720  141.9910 O   0  0  0  0  0  0  0  0  0  0  0  0
  181.9450  178.0550  137.4520 Cl  0  0  0  0  0  0  0  0  0  0  0  0
  184.7050  177.1490  138.2380 C   0  0  0  0  0  1  0  0  0  0  0  0
  186.0690  178.5890  142.0580 C   0  0  0  0  0  2  0  0  0  0  0  0
  1  9  1  1  0  0  0
  2  8  1  1  0  0  0
  2  6  1  0  0  0  0
  3  4  1  1  0  0  0
  3  2  1  0  0  0  0
  3  5  1  0  0  0  0
  5  1  1  0  0  0  0
  6 17  1  0  0  0  0
  6  1  1  0  0  0  0
  7  8  1  0  0  0  0
  9 10  1  0  0  0  0
 10 12  1  0  0  0  0
 10 14  1  0  0  0  0
 11 15  1  1  0  0  0
 12 16  1  0  0  0  0
 14 13  1  6  0  0  0
 14 11  1  0  0  0  0
 16 11  1  0  0  0  0
 18 27  1  1  0  0  0
 18 21  1  0  0  0  0
 18 22  1  0  0  0  0
 19 25  1  0  0  0  0
 20 17  1  6  0  0  0
 20 28  1  0  0  0  0
 21 26  1  6  0  0  0
 21 24  1  0  0  0  0
 22 20  1  0  0  0  0
 22 19  1  1  0  0  0
 24 19  2  0  0  0  0
 25 23  1  0  0  0  0
 28 23  1  0  0  0  0
M  END
>  <MODEL>
9

>  <REMARK>
 VINA RESULT:      -6.3      3.746      7.204
  Name = 
  5 active torsions:
  status: ('A' for Active; 'I' for Inactive)
    1  A    between atoms: C_1  and  C_2
    2  A    between atoms: C_2  and  N_3
    3  A    between atoms: C_10  and  C_17
    4  A    between atoms: C_16  and  C_20
    5  A    between atoms: C_17  and  N_27
                            x       y       z     vdW  Elec       q    Type
                         _______ _______ _______ _____ _____    ______ ____

>  <TORSDO>
F 5

$$$$
