=
 OpenBabel11052412323D

 30 33  0  0  1  0  0  0  0  0999 V2000
  186.9320  177.8380  143.3650 N   0  0  0  0  0  0  0  0  0  0  0  0
  184.6580  178.2980  142.7280 C   0  0  0  0  0  0  0  0  0  0  0  0
  186.1450  178.1350  147.5250 C   0  0  0  0  0  2  0  0  0  0  0  0
  188.0080  177.6720  144.2960 C   0  0  0  0  0  0  0  0  0  0  0  0
  187.3450  178.5400  148.3640 C   0  0  0  0  0  2  0  0  0  0  0  0
  183.5240  178.8930  143.1100 C   0  0  0  0  0  3  0  0  0  0  0  0
  184.8650  178.0140  141.4190 F   0  0  0  0  0  0  0  0  0  0  0  0
  186.4450  178.1470  146.0870 N   0  0  0  0  0  0  0  0  0  0  0  0
  183.3100  179.2830  144.5210 C   0  0  0  0  0  3  0  0  0  0  0  0
  185.7030  178.0300  143.7290 C   0  0  0  0  0  0  0  0  0  0  0  0
  187.7860  177.8520  145.6200 C   0  0  0  0  0  0  0  0  0  0  0  0
  188.5040  177.6280  148.0180 C   0  0  0  0  0  2  0  0  0  0  0  0
  188.9420  177.8950  146.5880 C   0  0  0  0  0  2  0  0  0  0  0  0
  184.1590  178.8970  145.4810 C   0  0  0  0  0  3  0  0  0  0  0  0
  185.3040  177.9580  145.1810 C   0  0  2  0  0  3  0  0  0  0  0  0
  189.3670  177.4030  143.7040 C   0  0  1  0  0  3  0  0  0  0  0  0
  189.2270  175.2760  142.6030 O   0  0  0  0  0  0  0  0  0  0  0  0
  189.3200  176.5270  142.4830 C   0  0  0  0  0  0  0  0  0  0  0  0
  190.6950  176.9420  140.0810 S   0  0  0  0  0  0  0  0  0  0  0  0
  188.4550  177.9310  140.5440 C   0  0  0  0  0  3  0  0  0  0  0  0
  189.4100  177.1230  141.1430 C   0  0  0  0  0  0  0  0  0  0  0  0
  190.0690  177.8840  138.8360 C   0  0  0  0  0  3  0  0  0  0  0  0
  188.8270  178.3520  139.2590 C   0  0  0  0  0  3  0  0  0  0  0  0
  190.3760  178.9090  143.4950 S   0  0  0  0  0  0  0  0  0  0  0  0
  191.9050  178.0520  143.9760 C   0  0  0  0  0  2  0  0  0  0  0  0
  191.5780  176.7420  144.6640 C   0  0  0  0  0  2  0  0  0  0  0  0
  191.8990  176.8300  146.0800 N   0  0  0  0  0  2  0  0  0  0  0  0
  192.4930  174.5790  146.2680 O   0  0  0  0  0  0  0  0  0  0  0  0
  192.3540  175.7010  146.8240 C   0  0  0  0  0  0  0  0  0  0  0  0
  192.6680  175.8500  148.2680 C   0  0  0  0  0  1  0  0  0  0  0  0
  1 10  2  0  0  0  0
  1  4  1  0  0  0  0
  2  6  2  0  0  0  0
  2 10  1  0  0  0  0
  3  5  1  0  0  0  0
  4 11  2  0  0  0  0
  6  9  1  0  0  0  0
  7  2  1  0  0  0  0
  8  3  1  0  0  0  0
  9 14  2  0  0  0  0
 10 15  1  0  0  0  0
 11  8  1  0  0  0  0
 11 13  1  0  0  0  0
 12  5  1  0  0  0  0
 13 12  1  0  0  0  0
 15 14  1  1  0  0  0
 15  8  1  0  0  0  0
 16 18  1  6  0  0  0
 16  4  1  0  0  0  0
 18 17  2  0  0  0  0
 19 21  1  0  0  0  0
 20 21  2  0  0  0  0
 21 18  1  0  0  0  0
 22 23  2  0  0  0  0
 22 19  1  0  0  0  0
 23 20  1  0  0  0  0
 24 16  1  0  0  0  0
 24 25  1  0  0  0  0
 25 26  1  0  0  0  0
 26 27  1  0  0  0  0
 27 29  1  0  0  0  0
 28 29  2  0  0  0  0
 29 30  1  0  0  0  0
M  END
>  <MODEL>
1

>  <REMARK>
 VINA RESULT:      -8.5      0.000      0.000
  Name = 
  7 active torsions:
  status: ('A' for Active; 'I' for Inactive)
    1  A    between atoms: C_4  and  C_13
    2  A    between atoms: N_7  and  C_16
    3  A    between atoms: C_8  and  C_12
    4  A    between atoms: C_8  and  C_13
    5  A    between atoms: C_13  and  S_27
    6  A    between atoms: C_16  and  C_30
    7  A    between atoms: S_27  and  C_30
                            x       y       z     vdW  Elec       q    Type
                         _______ _______ _______ _____ _____    ______ ____

>  <TORSDO>
F 7

$$$$
=
 OpenBabel11052412323D

 30 33  0  0  1  0  0  0  0  0999 V2000
  189.2830  177.6330  140.3550 N   0  0  0  0  0  0  0  0  0  0  0  0
  190.2040  177.1240  138.1920 C   0  0  0  0  0  0  0  0  0  0  0  0
  185.3950  178.4260  138.8460 C   0  0  0  0  0  2  0  0  0  0  0  0
  188.2490  178.0420  141.2590 C   0  0  0  0  0  0  0  0  0  0  0  0
  184.5750  179.3850  139.6940 C   0  0  0  0  0  2  0  0  0  0  0  0
  190.0740  177.3400  136.8790 C   0  0  0  0  0  3  0  0  0  0  0  0
  191.3860  176.6860  138.6910 F   0  0  0  0  0  0  0  0  0  0  0  0
  186.7630  178.2670  139.3560 N   0  0  0  0  0  0  0  0  0  0  0  0
  188.8190  177.8920  136.3220 C   0  0  0  0  0  3  0  0  0  0  0  0
  189.0820  177.4420  139.0890 C   0  0  0  0  0  0  0  0  0  0  0  0
  187.0300  178.3830  140.7780 C   0  0  0  0  0  0  0  0  0  0  0  0
  184.5940  178.8950  141.1280 C   0  0  0  0  0  2  0  0  0  0  0  0
  186.0040  179.0190  141.6820 C   0  0  0  0  0  2  0  0  0  0  0  0
  187.7250  178.0250  137.0820 C   0  0  0  0  0  3  0  0  0  0  0  0
  187.6940  177.5150  138.5040 C   0  0  2  0  0  3  0  0  0  0  0  0
  188.6400  178.1640  142.7090 C   0  0  1  0  0  3  0  0  0  0  0  0
  187.7790  175.9760  143.1820 O   0  0  0  0  0  0  0  0  0  0  0  0
  187.9650  177.1530  143.5930 C   0  0  0  0  0  0  0  0  0  0  0  0
  185.9950  178.2090  145.2770 S   0  0  0  0  0  0  0  0  0  0  0  0
  188.2050  177.4140  146.1130 C   0  0  0  0  0  3  0  0  0  0  0  0
  187.4920  177.5380  144.9290 C   0  0  0  0  0  0  0  0  0  0  0  0
  186.2160  178.3580  146.9380 C   0  0  0  0  0  3  0  0  0  0  0  0
  187.4890  177.8720  147.2290 C   0  0  0  0  0  3  0  0  0  0  0  0
  190.4430  178.2820  142.9640 S   0  0  0  0  0  0  0  0  0  0  0  0
  190.6440  176.4760  142.9700 C   0  0  0  0  0  2  0  0  0  0  0  0
  191.6990  176.0680  143.9800 C   0  0  0  0  0  2  0  0  0  0  0  0
  191.4520  176.7320  145.2510 N   0  0  0  0  0  2  0  0  0  0  0  0
  192.4340  175.0390  146.5270 O   0  0  0  0  0  0  0  0  0  0  0  0
  191.8500  176.1550  146.4940 C   0  0  0  0  0  0  0  0  0  0  0  0
  191.5720  176.8780  147.7620 C   0  0  0  0  0  1  0  0  0  0  0  0
  1  4  1  0  0  0  0
  2  7  1  0  0  0  0
  2 10  1  0  0  0  0
  3  8  1  0  0  0  0
  3  5  1  0  0  0  0
  4 16  1  0  0  0  0
  5 12  1  0  0  0  0
  6  2  2  0  0  0  0
  8 11  1  0  0  0  0
  9  6  1  0  0  0  0
  9 14  2  0  0  0  0
 10  1  2  0  0  0  0
 11  4  2  0  0  0  0
 11 13  1  0  0  0  0
 12 13  1  0  0  0  0
 15 14  1  6  0  0  0
 15 10  1  0  0  0  0
 15  8  1  0  0  0  0
 16 24  1  6  0  0  0
 16 18  1  0  0  0  0
 17 18  2  0  0  0  0
 18 21  1  0  0  0  0
 19 22  1  0  0  0  0
 20 23  1  0  0  0  0
 21 19  1  0  0  0  0
 21 20  2  0  0  0  0
 22 23  2  0  0  0  0
 24 25  1  0  0  0  0
 25 26  1  0  0  0  0
 26 27  1  0  0  0  0
 27 29  1  0  0  0  0
 29 28  2  0  0  0  0
 29 30  1  0  0  0  0
M  END
>  <MODEL>
2

>  <REMARK>
 VINA RESULT:      -8.1      2.426      5.982
  Name = 
  7 active torsions:
  status: ('A' for Active; 'I' for Inactive)
    1  A    between atoms: C_4  and  C_13
    2  A    between atoms: N_7  and  C_16
    3  A    between atoms: C_8  and  C_12
    4  A    between atoms: C_8  and  C_13
    5  A    between atoms: C_13  and  S_27
    6  A    between atoms: C_16  and  C_30
    7  A    between atoms: S_27  and  C_30
                            x       y       z     vdW  Elec       q    Type
                         _______ _______ _______ _____ _____    ______ ____

>  <TORSDO>
F 7

$$$$
=
 OpenBabel11052412323D

 30 33  0  0  1  0  0  0  0  0999 V2000
  187.1720  178.3890  143.9770 N   0  0  0  0  0  0  0  0  0  0  0  0
  185.2030  178.8190  145.2910 C   0  0  0  0  0  0  0  0  0  0  0  0
  185.1890  178.9660  140.2690 C   0  0  0  0  0  2  0  0  0  0  0  0
  187.9030  178.2180  142.7570 C   0  0  0  0  0  0  0  0  0  0  0  0
  185.8090  178.2160  139.1010 C   0  0  0  0  0  2  0  0  0  0  0  0
  183.8670  178.7910  145.2850 C   0  0  0  0  0  3  0  0  0  0  0  0
  185.8740  178.8260  146.4700 F   0  0  0  0  0  0  0  0  0  0  0  0
  185.8500  178.6520  141.5420 N   0  0  0  0  0  0  0  0  0  0  0  0
  183.1170  178.7050  144.0130 C   0  0  0  0  0  3  0  0  0  0  0  0
  185.9320  178.7620  144.0130 C   0  0  0  0  0  0  0  0  0  0  0  0
  187.2600  178.3120  141.5690 C   0  0  0  0  0  0  0  0  0  0  0  0
  187.2920  178.5250  139.0640 C   0  0  0  0  0  2  0  0  0  0  0  0
  187.9600  177.9240  140.2900 C   0  0  0  0  0  2  0  0  0  0  0  0
  183.7380  178.8280  142.8330 C   0  0  0  0  0  3  0  0  0  0  0  0
  185.2080  179.1730  142.7560 C   0  0  2  0  0  3  0  0  0  0  0  0
  189.3520  177.8320  142.8950 C   0  0  1  0  0  3  0  0  0  0  0  0
  190.5280  179.6340  143.9580 O   0  0  0  0  0  0  0  0  0  0  0  0
  190.0300  178.4820  144.0710 C   0  0  0  0  0  0  0  0  0  0  0  0
  191.4920  176.9330  145.8860 S   0  0  0  0  0  0  0  0  0  0  0  0
  189.1460  177.6590  146.3110 C   0  0  0  0  0  3  0  0  0  0  0  0
  190.1400  177.7660  145.3480 C   0  0  0  0  0  0  0  0  0  0  0  0
  190.8500  176.4180  147.3520 C   0  0  0  0  0  3  0  0  0  0  0  0
  189.5470  176.9070  147.4250 C   0  0  0  0  0  3  0  0  0  0  0  0
  189.6370  176.0330  142.7810 S   0  0  0  0  0  0  0  0  0  0  0  0
  191.3310  176.2560  142.1620 C   0  0  0  0  0  2  0  0  0  0  0  0
  191.3810  177.4020  141.1700 C   0  0  0  0  0  2  0  0  0  0  0  0
  191.4320  176.8820  139.8120 N   0  0  0  0  0  2  0  0  0  0  0  0
  193.7320  177.2210  139.5810 O   0  0  0  0  0  0  0  0  0  0  0  0
  192.6510  176.8200  139.0730 C   0  0  0  0  0  0  0  0  0  0  0  0
  192.6440  176.2780  137.6890 C   0  0  0  0  0  1  0  0  0  0  0  0
  1 10  2  0  0  0  0
  2  7  1  0  0  0  0
  3  8  1  0  0  0  0
  4 16  1  0  0  0  0
  4  1  1  0  0  0  0
  5  3  1  0  0  0  0
  6  2  2  0  0  0  0
  8 11  1  0  0  0  0
  8 15  1  0  0  0  0
  9  6  1  0  0  0  0
 10  2  1  0  0  0  0
 11  4  2  0  0  0  0
 12  5  1  0  0  0  0
 12 13  1  0  0  0  0
 13 11  1  0  0  0  0
 14  9  2  0  0  0  0
 15 14  1  1  0  0  0
 15 10  1  0  0  0  0
 16 24  1  1  0  0  0
 16 18  1  0  0  0  0
 17 18  2  0  0  0  0
 18 21  1  0  0  0  0
 19 22  1  0  0  0  0
 20 23  1  0  0  0  0
 21 19  1  0  0  0  0
 21 20  2  0  0  0  0
 22 23  2  0  0  0  0
 25 24  1  0  0  0  0
 26 25  1  0  0  0  0
 27 26  1  0  0  0  0
 29 28  2  0  0  0  0
 29 27  1  0  0  0  0
 30 29  1  0  0  0  0
M  END
>  <MODEL>
3

>  <REMARK>
 VINA RESULT:      -7.7      2.629      5.534
  Name = 
  7 active torsions:
  status: ('A' for Active; 'I' for Inactive)
    1  A    between atoms: C_4  and  C_13
    2  A    between atoms: N_7  and  C_16
    3  A    between atoms: C_8  and  C_12
    4  A    between atoms: C_8  and  C_13
    5  A    between atoms: C_13  and  S_27
    6  A    between atoms: C_16  and  C_30
    7  A    between atoms: S_27  and  C_30
                            x       y       z     vdW  Elec       q    Type
                         _______ _______ _______ _____ _____    ______ ____

>  <TORSDO>
F 7

$$$$
=
 OpenBabel11052412323D

 30 33  0  0  1  0  0  0  0  0999 V2000
  187.0380  178.5690  139.3680 N   0  0  0  0  0  0  0  0  0  0  0  0
  188.2470  178.2260  137.3160 C   0  0  0  0  0  0  0  0  0  0  0  0
  190.1900  177.1250  141.8170 C   0  0  0  0  0  2  0  0  0  0  0  0
  186.8520  178.5100  140.7870 C   0  0  0  0  0  0  0  0  0  0  0  0
  189.7360  176.5450  143.1470 C   0  0  0  0  0  2  0  0  0  0  0  0
  189.2150  177.5130  136.7340 C   0  0  0  0  0  3  0  0  0  0  0  0
  187.3240  178.8630  136.5530 F   0  0  0  0  0  0  0  0  0  0  0  0
  189.0560  177.5150  140.9680 N   0  0  0  0  0  0  0  0  0  0  0  0
  190.1860  176.7480  137.5460 C   0  0  0  0  0  3  0  0  0  0  0  0
  188.1490  178.2460  138.7850 C   0  0  0  0  0  0  0  0  0  0  0  0
  187.8160  177.9690  141.5700 C   0  0  0  0  0  0  0  0  0  0  0  0
  188.8360  177.5540  143.8300 C   0  0  0  0  0  2  0  0  0  0  0  0
  187.5520  177.7010  143.0300 C   0  0  0  0  0  2  0  0  0  0  0  0
  190.2340  176.8840  138.8770 C   0  0  0  0  0  3  0  0  0  0  0  0
  189.3780  177.9060  139.5890 C   0  0  2  0  0  3  0  0  0  0  0  0
  185.5160  178.9730  141.3060 C   0  0  1  0  0  3  0  0  0  0  0  0
  184.6080  180.1550  139.4250 O   0  0  0  0  0  0  0  0  0  0  0  0
  184.4980  179.1820  140.2190 C   0  0  0  0  0  0  0  0  0  0  0  0
  181.7930  178.5850  140.6230 S   0  0  0  0  0  0  0  0  0  0  0  0
  183.3770  177.0050  139.5250 C   0  0  0  0  0  3  0  0  0  0  0  0
  183.3530  178.2700  140.0940 C   0  0  0  0  0  0  0  0  0  0  0  0
  181.1120  177.1240  140.1420 C   0  0  0  0  0  3  0  0  0  0  0  0
  182.1260  176.3720  139.5550 C   0  0  0  0  0  3  0  0  0  0  0  0
  184.9030  177.9840  142.7110 S   0  0  0  0  0  0  0  0  0  0  0  0
  184.3810  179.4620  143.6310 C   0  0  0  0  0  2  0  0  0  0  0  0
  184.1720  179.1220  145.0940 C   0  0  0  0  0  2  0  0  0  0  0  0
  185.2860  178.3250  145.5830 N   0  0  0  0  0  2  0  0  0  0  0  0
  185.7490  179.7500  147.3750 O   0  0  0  0  0  0  0  0  0  0  0  0
  186.0350  178.7010  146.7380 C   0  0  0  0  0  0  0  0  0  0  0  0
  187.1630  177.8470  147.1930 C   0  0  0  0  0  1  0  0  0  0  0  0
  1  4  1  0  0  0  0
  2 10  1  0  0  0  0
  3  5  1  0  0  0  0
  4 16  1  0  0  0  0
  4 11  2  0  0  0  0
  5 12  1  0  0  0  0
  6  2  2  0  0  0  0
  6  9  1  0  0  0  0
  7  2  1  0  0  0  0
  8 11  1  0  0  0  0
  8  3  1  0  0  0  0
  9 14  2  0  0  0  0
 10  1  2  0  0  0  0
 10 15  1  0  0  0  0
 11 13  1  0  0  0  0
 13 12  1  0  0  0  0
 15 14  1  6  0  0  0
 15  8  1  0  0  0  0
 16 18  1  6  0  0  0
 16 24  1  0  0  0  0
 17 18  2  0  0  0  0
 20 23  1  0  0  0  0
 20 21  2  0  0  0  0
 21 18  1  0  0  0  0
 21 19  1  0  0  0  0
 22 19  1  0  0  0  0
 23 22  2  0  0  0  0
 24 25  1  0  0  0  0
 25 26  1  0  0  0  0
 26 27  1  0  0  0  0
 27 29  1  0  0  0  0
 29 30  1  0  0  0  0
 29 28  2  0  0  0  0
M  END
>  <MODEL>
4

>  <REMARK>
 VINA RESULT:      -7.6      3.557      6.737
  Name = 
  7 active torsions:
  status: ('A' for Active; 'I' for Inactive)
    1  A    between atoms: C_4  and  C_13
    2  A    between atoms: N_7  and  C_16
    3  A    between atoms: C_8  and  C_12
    4  A    between atoms: C_8  and  C_13
    5  A    between atoms: C_13  and  S_27
    6  A    between atoms: C_16  and  C_30
    7  A    between atoms: S_27  and  C_30
                            x       y       z     vdW  Elec       q    Type
                         _______ _______ _______ _____ _____    ______ ____

>  <TORSDO>
F 7

$$$$
=
 OpenBabel11052412323D

 30 33  0  0  1  0  0  0  0  0999 V2000
  188.9660  177.3200  144.1760 N   0  0  0  0  0  0  0  0  0  0  0  0
  189.8130  177.1850  146.4230 C   0  0  0  0  0  0  0  0  0  0  0  0
  185.1850  178.8330  145.3700 C   0  0  0  0  0  2  0  0  0  0  0  0
  187.9680  177.5790  143.1810 C   0  0  0  0  0  0  0  0  0  0  0  0
  184.0490  178.5170  144.4100 C   0  0  0  0  0  2  0  0  0  0  0  0
  189.4660  177.0590  147.7070 C   0  0  0  0  0  3  0  0  0  0  0  0
  191.0770  176.8890  146.0320 F   0  0  0  0  0  0  0  0  0  0  0  0
  186.4460  178.2010  144.9630 N   0  0  0  0  0  0  0  0  0  0  0  0
  188.0730  177.3020  148.1440 C   0  0  0  0  0  3  0  0  0  0  0  0
  188.7920  177.5700  145.4350 C   0  0  0  0  0  0  0  0  0  0  0  0
  186.7300  177.9770  143.5570 C   0  0  0  0  0  0  0  0  0  0  0  0
  184.4690  178.9350  143.0150 C   0  0  0  0  0  2  0  0  0  0  0  0
  185.6100  178.0460  142.5490 C   0  0  0  0  0  2  0  0  0  0  0  0
  187.1670  177.8210  147.3060 C   0  0  0  0  0  3  0  0  0  0  0  0
  187.5560  178.2830  145.9210 C   0  0  2  0  0  3  0  0  0  0  0  0
  188.3530  177.2810  141.7550 C   0  0  1  0  0  3  0  0  0  0  0  0
  188.5330  179.6460  141.3920 O   0  0  0  0  0  0  0  0  0  0  0  0
  188.3830  178.5040  140.8800 C   0  0  0  0  0  0  0  0  0  0  0  0
  186.8060  177.8780  138.6540 S   0  0  0  0  0  0  0  0  0  0  0  0
  189.1700  178.6440  138.4650 C   0  0  0  0  0  3  0  0  0  0  0  0
  188.2080  178.3770  139.4280 C   0  0  0  0  0  0  0  0  0  0  0  0
  187.3870  177.9900  137.0800 C   0  0  0  0  0  3  0  0  0  0  0  0
  188.7080  178.4270  137.1590 C   0  0  0  0  0  3  0  0  0  0  0  0
  189.8400  176.2340  141.6110 S   0  0  0  0  0  0  0  0  0  0  0  0
  190.9550  177.6680  141.6430 C   0  0  0  0  0  2  0  0  0  0  0  0
  192.0730  177.4860  140.6360 C   0  0  0  0  0  2  0  0  0  0  0  0
  191.5740  176.7880  139.4610 N   0  0  0  0  0  2  0  0  0  0  0  0
  193.6180  176.8590  138.3320 O   0  0  0  0  0  0  0  0  0  0  0  0
  192.4090  176.5060  138.3380 C   0  0  0  0  0  0  0  0  0  0  0  0
  191.8450  175.7890  137.1650 C   0  0  0  0  0  1  0  0  0  0  0  0
  1 10  2  0  0  0  0
  2  6  2  0  0  0  0
  4 11  2  0  0  0  0
  4  1  1  0  0  0  0
  5  3  1  0  0  0  0
  6  9  1  0  0  0  0
  7  2  1  0  0  0  0
  8  3  1  0  0  0  0
  8 15  1  0  0  0  0
 10 15  1  0  0  0  0
 10  2  1  0  0  0  0
 11  8  1  0  0  0  0
 12  5  1  0  0  0  0
 13 12  1  0  0  0  0
 13 11  1  0  0  0  0
 14  9  2  0  0  0  0
 15 14  1  1  0  0  0
 16 18  1  6  0  0  0
 16  4  1  0  0  0  0
 18 17  2  0  0  0  0
 19 21  1  0  0  0  0
 20 21  2  0  0  0  0
 21 18  1  0  0  0  0
 22 23  2  0  0  0  0
 22 19  1  0  0  0  0
 23 20  1  0  0  0  0
 24 25  1  0  0  0  0
 24 16  1  0  0  0  0
 26 25  1  0  0  0  0
 27 26  1  0  0  0  0
 28 29  2  0  0  0  0
 29 27  1  0  0  0  0
 30 29  1  0  0  0  0
M  END
>  <MODEL>
5

>  <REMARK>
 VINA RESULT:      -7.6      2.842      5.072
  Name = 
  7 active torsions:
  status: ('A' for Active; 'I' for Inactive)
    1  A    between atoms: C_4  and  C_13
    2  A    between atoms: N_7  and  C_16
    3  A    between atoms: C_8  and  C_12
    4  A    between atoms: C_8  and  C_13
    5  A    between atoms: C_13  and  S_27
    6  A    between atoms: C_16  and  C_30
    7  A    between atoms: S_27  and  C_30
                            x       y       z     vdW  Elec       q    Type
                         _______ _______ _______ _____ _____    ______ ____

>  <TORSDO>
F 7

$$$$
=
 OpenBabel11052412323D

 30 33  0  0  1  0  0  0  0  0999 V2000
  186.3440  178.3460  141.0790 N   0  0  0  0  0  0  0  0  0  0  0  0
  184.9350  178.5270  139.1380 C   0  0  0  0  0  0  0  0  0  0  0  0
  183.1070  178.5240  143.8180 C   0  0  0  0  0  2  0  0  0  0  0  0
  186.6130  178.3090  142.4860 C   0  0  0  0  0  0  0  0  0  0  0  0
  183.4730  179.0700  145.1890 C   0  0  0  0  0  2  0  0  0  0  0  0
  183.7600  178.9770  138.6890 C   0  0  0  0  0  3  0  0  0  0  0  0
  185.9420  178.2770  138.2650 F   0  0  0  0  0  0  0  0  0  0  0  0
  184.2360  178.5800  142.8810 N   0  0  0  0  0  0  0  0  0  0  0  0
  182.6740  179.3310  139.6300 C   0  0  0  0  0  3  0  0  0  0  0  0
  185.1470  178.3840  140.5880 C   0  0  0  0  0  0  0  0  0  0  0  0
  185.5970  178.4540  143.3690 C   0  0  0  0  0  0  0  0  0  0  0  0
  184.6770  178.3090  145.7040 C   0  0  0  0  0  2  0  0  0  0  0  0
  185.8830  178.6340  144.8390 C   0  0  0  0  0  2  0  0  0  0  0  0
  182.7700  179.0480  140.9350 C   0  0  0  0  0  3  0  0  0  0  0  0
  183.9370  178.2570  141.4790 C   0  0  2  0  0  3  0  0  0  0  0  0
  188.0620  178.2120  142.8870 C   0  0  1  0  0  3  0  0  0  0  0  0
  187.8360  175.8540  143.2680 O   0  0  0  0  0  0  0  0  0  0  0  0
  188.3940  176.9320  143.6040 C   0  0  0  0  0  0  0  0  0  0  0  0
  191.0070  176.7230  144.5850 S   0  0  0  0  0  0  0  0  0  0  0  0
  189.0370  177.1170  146.0600 C   0  0  0  0  0  3  0  0  0  0  0  0
  189.3490  176.9380  144.7200 C   0  0  0  0  0  0  0  0  0  0  0  0
  191.3670  176.8520  146.2230 C   0  0  0  0  0  3  0  0  0  0  0  0
  190.1640  177.0690  146.8920 C   0  0  0  0  0  3  0  0  0  0  0  0
  189.2160  178.6200  141.5340 S   0  0  0  0  0  0  0  0  0  0  0  0
  189.5420  176.8700  141.1700 C   0  0  0  0  0  2  0  0  0  0  0  0
  190.3440  176.7400  139.8910 C   0  0  0  0  0  2  0  0  0  0  0  0
  190.0630  177.8660  139.0120 N   0  0  0  0  0  2  0  0  0  0  0  0
  188.7030  176.6290  137.5710 O   0  0  0  0  0  0  0  0  0  0  0  0
  189.2270  177.7360  137.8630 C   0  0  0  0  0  0  0  0  0  0  0  0
  188.9750  178.9200  137.0010 C   0  0  0  0  0  1  0  0  0  0  0  0
  1  4  1  0  0  0  0
  2 10  1  0  0  0  0
  3  5  1  0  0  0  0
  4 16  1  0  0  0  0
  4 11  2  0  0  0  0
  5 12  1  0  0  0  0
  6  2  2  0  0  0  0
  6  9  1  0  0  0  0
  7  2  1  0  0  0  0
  8 11  1  0  0  0  0
  8  3  1  0  0  0  0
  9 14  2  0  0  0  0
 10  1  2  0  0  0  0
 10 15  1  0  0  0  0
 11 13  1  0  0  0  0
 13 12  1  0  0  0  0
 15 14  1  6  0  0  0
 15  8  1  0  0  0  0
 16 24  1  6  0  0  0
 16 18  1  0  0  0  0
 17 18  2  0  0  0  0
 18 21  1  0  0  0  0
 19 21  1  0  0  0  0
 19 22  1  0  0  0  0
 20 23  1  0  0  0  0
 21 20  2  0  0  0  0
 22 23  2  0  0  0  0
 25 24  1  0  0  0  0
 26 25  1  0  0  0  0
 27 26  1  0  0  0  0
 28 29  2  0  0  0  0
 29 27  1  0  0  0  0
 30 29  1  0  0  0  0
M  END
>  <MODEL>
6

>  <REMARK>
 VINA RESULT:      -7.4      2.528      5.369
  Name = 
  7 active torsions:
  status: ('A' for Active; 'I' for Inactive)
    1  A    between atoms: C_4  and  C_13
    2  A    between atoms: N_7  and  C_16
    3  A    between atoms: C_8  and  C_12
    4  A    between atoms: C_8  and  C_13
    5  A    between atoms: C_13  and  S_27
    6  A    between atoms: C_16  and  C_30
    7  A    between atoms: S_27  and  C_30
                            x       y       z     vdW  Elec       q    Type
                         _______ _______ _______ _____ _____    ______ ____

>  <TORSDO>
F 7

$$$$
=
 OpenBabel11052412323D

 30 33  0  0  1  0  0  0  0  0999 V2000
  187.6240  178.1110  143.5610 N   0  0  0  0  0  0  0  0  0  0  0  0
  185.4480  178.3520  144.5590 C   0  0  0  0  0  0  0  0  0  0  0  0
  189.4650  176.8290  147.1640 C   0  0  0  0  0  2  0  0  0  0  0  0
  189.0280  177.8290  143.5700 C   0  0  0  0  0  0  0  0  0  0  0  0
  190.9530  177.1290  147.2510 C   0  0  0  0  0  2  0  0  0  0  0  0
  184.7990  178.5730  145.7060 C   0  0  0  0  0  3  0  0  0  0  0  0
  184.8240  178.5730  143.3760 F   0  0  0  0  0  0  0  0  0  0  0  0
  188.8590  177.3830  145.9470 N   0  0  0  0  0  0  0  0  0  0  0  0
  185.4850  178.4140  147.0080 C   0  0  0  0  0  3  0  0  0  0  0  0
  186.8630  177.9470  144.5970 C   0  0  0  0  0  0  0  0  0  0  0  0
  189.6430  177.5060  144.7320 C   0  0  0  0  0  0  0  0  0  0  0  0
  191.6220  176.6080  145.9950 C   0  0  0  0  0  2  0  0  0  0  0  0
  191.1480  177.4190  144.8010 C   0  0  0  0  0  2  0  0  0  0  0  0
  186.7110  177.8800  147.0830 C   0  0  0  0  0  3  0  0  0  0  0  0
  187.3940  177.3160  145.8590 C   0  0  2  0  0  3  0  0  0  0  0  0
  189.7560  178.0210  142.2640 C   0  0  1  0  0  3  0  0  0  0  0  0
  189.9080  175.6290  142.1760 O   0  0  0  0  0  0  0  0  0  0  0  0
  190.2140  176.7300  141.6450 C   0  0  0  0  0  0  0  0  0  0  0  0
  192.5700  177.4290  140.3060 S   0  0  0  0  0  0  0  0  0  0  0  0
  190.7010  176.2040  139.2030 C   0  0  0  0  0  3  0  0  0  0  0  0
  191.0440  176.7450  140.4330 C   0  0  0  0  0  0  0  0  0  0  0  0
  192.8310  177.0530  138.6880 C   0  0  0  0  0  3  0  0  0  0  0  0
  191.7000  176.3780  138.2340 C   0  0  0  0  0  3  0  0  0  0  0  0
  188.8820  179.1270  141.1050 S   0  0  0  0  0  0  0  0  0  0  0  0
  187.9230  177.7590  140.3910 C   0  0  0  0  0  2  0  0  0  0  0  0
  187.0970  178.2530  139.2200 C   0  0  0  0  0  2  0  0  0  0  0  0
  187.6350  177.7250  137.9750 N   0  0  0  0  0  2  0  0  0  0  0  0
  188.9310  179.6170  137.5280 O   0  0  0  0  0  0  0  0  0  0  0  0
  188.5550  178.4670  137.1750 C   0  0  0  0  0  0  0  0  0  0  0  0
  189.0720  177.8780  135.9130 C   0  0  0  0  0  1  0  0  0  0  0  0
  1  4  1  0  0  0  0
  1 10  2  0  0  0  0
  2 10  1  0  0  0  0
  2  6  2  0  0  0  0
  3  5  1  0  0  0  0
  4 11  2  0  0  0  0
  6  9  1  0  0  0  0
  7  2  1  0  0  0  0
  8  3  1  0  0  0  0
  9 14  2  0  0  0  0
 10 15  1  0  0  0  0
 11 13  1  0  0  0  0
 11  8  1  0  0  0  0
 12  5  1  0  0  0  0
 13 12  1  0  0  0  0
 15  8  1  0  0  0  0
 15 14  1  1  0  0  0
 16 24  1  6  0  0  0
 16  4  1  0  0  0  0
 18 17  2  0  0  0  0
 18 16  1  0  0  0  0
 19 21  1  0  0  0  0
 20 21  2  0  0  0  0
 21 18  1  0  0  0  0
 22 19  1  0  0  0  0
 23 22  2  0  0  0  0
 23 20  1  0  0  0  0
 25 24  1  0  0  0  0
 26 25  1  0  0  0  0
 27 26  1  0  0  0  0
 29 28  2  0  0  0  0
 29 27  1  0  0  0  0
 30 29  1  0  0  0  0
M  END
>  <MODEL>
7

>  <REMARK>
 VINA RESULT:      -7.4      2.259      4.923
  Name = 
  7 active torsions:
  status: ('A' for Active; 'I' for Inactive)
    1  A    between atoms: C_4  and  C_13
    2  A    between atoms: N_7  and  C_16
    3  A    between atoms: C_8  and  C_12
    4  A    between atoms: C_8  and  C_13
    5  A    between atoms: C_13  and  S_27
    6  A    between atoms: C_16  and  C_30
    7  A    between atoms: S_27  and  C_30
                            x       y       z     vdW  Elec       q    Type
                         _______ _______ _______ _____ _____    ______ ____

>  <TORSDO>
F 7

$$$$
=
 OpenBabel11052412323D

 30 33  0  0  1  0  0  0  0  0999 V2000
  186.4280  178.1260  141.1510 N   0  0  0  0  0  0  0  0  0  0  0  0
  188.7390  177.4880  141.3470 C   0  0  0  0  0  0  0  0  0  0  0  0
  185.8740  178.5380  145.3390 C   0  0  0  0  0  2  0  0  0  0  0  0
  185.1370  178.4870  141.6560 C   0  0  0  0  0  0  0  0  0  0  0  0
  184.4440  178.3250  145.8080 C   0  0  0  0  0  2  0  0  0  0  0  0
  189.6460  176.9320  142.1560 C   0  0  0  0  0  3  0  0  0  0  0  0
  188.9680  177.5450  140.0120 F   0  0  0  0  0  0  0  0  0  0  0  0
  186.0290  178.2830  143.9010 N   0  0  0  0  0  0  0  0  0  0  0  0
  189.3840  176.7900  143.6050 C   0  0  0  0  0  3  0  0  0  0  0  0
  187.4640  177.9610  141.9110 C   0  0  0  0  0  0  0  0  0  0  0  0
  184.9260  178.5350  142.9930 C   0  0  0  0  0  0  0  0  0  0  0  0
  183.5290  179.1990  144.9750 C   0  0  0  0  0  2  0  0  0  0  0  0
  183.5300  178.7000  143.5400 C   0  0  0  0  0  2  0  0  0  0  0  0
  188.3170  177.3650  144.1750 C   0  0  0  0  0  3  0  0  0  0  0  0
  187.4040  178.2730  143.3850 C   0  0  2  0  0  3  0  0  0  0  0  0
  184.0520  178.6920  140.6300 C   0  0  1  0  0  3  0  0  0  0  0  0
  184.5140  180.4350  139.0470 O   0  0  0  0  0  0  0  0  0  0  0  0
  184.5690  179.2040  139.3140 C   0  0  0  0  0  0  0  0  0  0  0  0
  184.2170  177.1970  137.3960 S   0  0  0  0  0  0  0  0  0  0  0  0
  186.4540  178.1200  137.9920 C   0  0  0  0  0  3  0  0  0  0  0  0
  185.1150  178.2690  138.3210 C   0  0  0  0  0  0  0  0  0  0  0  0
  185.5070  176.5180  136.5560 C   0  0  0  0  0  3  0  0  0  0  0  0
  186.6670  177.1430  137.0090 C   0  0  0  0  0  3  0  0  0  0  0  0
  182.9230  177.2670  140.4760 S   0  0  0  0  0  0  0  0  0  0  0  0
  181.6070  178.2820  139.7420 C   0  0  0  0  0  2  0  0  0  0  0  0
  181.1700  179.3590  140.7150 C   0  0  0  0  0  2  0  0  0  0  0  0
  180.5570  178.7510  141.8870 N   0  0  0  0  0  2  0  0  0  0  0  0
  180.0420  180.7930  142.8970 O   0  0  0  0  0  0  0  0  0  0  0  0
  180.0090  179.5340  142.9450 C   0  0  0  0  0  0  0  0  0  0  0  0
  179.3950  178.8580  144.1180 C   0  0  0  0  0  1  0  0  0  0  0  0
  1  4  1  0  0  0  0
  1 10  2  0  0  0  0
  2 10  1  0  0  0  0
  2  6  2  0  0  0  0
  3  5  1  0  0  0  0
  4 11  2  0  0  0  0
  6  9  1  0  0  0  0
  7  2  1  0  0  0  0
  8  3  1  0  0  0  0
  9 14  2  0  0  0  0
 10 15  1  0  0  0  0
 11 13  1  0  0  0  0
 11  8  1  0  0  0  0
 12  5  1  0  0  0  0
 13 12  1  0  0  0  0
 15  8  1  0  0  0  0
 15 14  1  1  0  0  0
 16 18  1  6  0  0  0
 16  4  1  0  0  0  0
 17 18  2  0  0  0  0
 19 21  1  0  0  0  0
 20 21  2  0  0  0  0
 21 18  1  0  0  0  0
 22 23  2  0  0  0  0
 22 19  1  0  0  0  0
 23 20  1  0  0  0  0
 24 16  1  0  0  0  0
 25 24  1  0  0  0  0
 25 26  1  0  0  0  0
 26 27  1  0  0  0  0
 27 29  1  0  0  0  0
 28 29  2  0  0  0  0
 29 30  1  0  0  0  0
M  END
>  <MODEL>
8

>  <REMARK>
 VINA RESULT:      -7.2      4.171      7.362
  Name = 
  7 active torsions:
  status: ('A' for Active; 'I' for Inactive)
    1  A    between atoms: C_4  and  C_13
    2  A    between atoms: N_7  and  C_16
    3  A    between atoms: C_8  and  C_12
    4  A    between atoms: C_8  and  C_13
    5  A    between atoms: C_13  and  S_27
    6  A    between atoms: C_16  and  C_30
    7  A    between atoms: S_27  and  C_30
                            x       y       z     vdW  Elec       q    Type
                         _______ _______ _______ _____ _____    ______ ____

>  <TORSDO>
F 7

$$$$
=
 OpenBabel11052412323D

 30 33  0  0  1  0  0  0  0  0999 V2000
  185.1590  178.4300  140.8850 N   0  0  0  0  0  0  0  0  0  0  0  0
  187.2260  178.0930  142.0690 C   0  0  0  0  0  0  0  0  0  0  0  0
  182.8730  178.9670  144.4200 C   0  0  0  0  0  2  0  0  0  0  0  0
  183.7480  178.6520  140.7800 C   0  0  0  0  0  0  0  0  0  0  0  0
  181.4040  178.6010  144.2800 C   0  0  0  0  0  2  0  0  0  0  0  0
  187.7600  177.6930  143.2270 C   0  0  0  0  0  3  0  0  0  0  0  0
  187.9850  178.1150  140.9450 F   0  0  0  0  0  0  0  0  0  0  0  0
  183.6360  178.6660  143.2020 N   0  0  0  0  0  0  0  0  0  0  0  0
  186.9320  177.5870  144.4480 C   0  0  0  0  0  3  0  0  0  0  0  0
  185.7940  178.4310  142.0140 C   0  0  0  0  0  0  0  0  0  0  0  0
  182.9950  178.7360  141.9030 C   0  0  0  0  0  0  0  0  0  0  0  0
  180.8440  179.3150  143.0670 C   0  0  0  0  0  2  0  0  0  0  0  0
  181.4890  178.7520  141.8120 C   0  0  0  0  0  2  0  0  0  0  0  0
  185.6760  178.0520  144.4740 C   0  0  0  0  0  3  0  0  0  0  0  0
  185.0960  178.8020  143.2980 C   0  0  2  0  0  3  0  0  0  0  0  0
  183.1760  178.6720  139.3870 C   0  0  1  0  0  3  0  0  0  0  0  0
  184.0240  180.8470  138.8330 O   0  0  0  0  0  0  0  0  0  0  0  0
  183.0410  180.0590  138.8210 C   0  0  0  0  0  0  0  0  0  0  0  0
  181.0030  179.9010  136.9090 S   0  0  0  0  0  0  0  0  0  0  0  0
  180.9560  181.5180  138.8050 C   0  0  0  0  0  3  0  0  0  0  0  0
  181.7540  180.5130  138.2790 C   0  0  0  0  0  0  0  0  0  0  0  0
  179.6490  180.8980  136.9530 C   0  0  0  0  0  3  0  0  0  0  0  0
  179.7850  181.7280  138.0630 C   0  0  0  0  0  3  0  0  0  0  0  0
  183.9840  177.4900  138.2560 S   0  0  0  0  0  0  0  0  0  0  0  0
  183.0040  176.0930  138.8820 C   0  0  0  0  0  2  0  0  0  0  0  0
  181.5240  176.3800  138.7260 C   0  0  0  0  0  2  0  0  0  0  0  0
  180.7990  175.8940  139.8910 N   0  0  0  0  0  2  0  0  0  0  0  0
  179.9930  173.9850  138.8130 O   0  0  0  0  0  0  0  0  0  0  0  0
  180.0500  174.6800  139.8620 C   0  0  0  0  0  0  0  0  0  0  0  0
  179.3290  174.2330  141.0820 C   0  0  0  0  0  1  0  0  0  0  0  0
  1 10  2  0  0  0  0
  2  6  2  0  0  0  0
  4  1  1  0  0  0  0
  4 11  2  0  0  0  0
  5  3  1  0  0  0  0
  6  9  1  0  0  0  0
  7  2  1  0  0  0  0
  8 15  1  0  0  0  0
  8  3  1  0  0  0  0
  9 14  2  0  0  0  0
 10  2  1  0  0  0  0
 10 15  1  0  0  0  0
 11  8  1  0  0  0  0
 12  5  1  0  0  0  0
 13 11  1  0  0  0  0
 13 12  1  0  0  0  0
 15 14  1  1  0  0  0
 16 24  1  6  0  0  0
 16  4  1  0  0  0  0
 18 17  2  0  0  0  0
 18 16  1  0  0  0  0
 19 22  1  0  0  0  0
 19 21  1  0  0  0  0
 21 20  2  0  0  0  0
 21 18  1  0  0  0  0
 22 23  2  0  0  0  0
 23 20  1  0  0  0  0
 24 25  1  0  0  0  0
 26 25  1  0  0  0  0
 26 27  1  0  0  0  0
 28 29  2  0  0  0  0
 29 27  1  0  0  0  0
 29 30  1  0  0  0  0
M  END
>  <MODEL>
9

>  <REMARK>
 VINA RESULT:      -7.2      5.125      8.555
  Name = 
  7 active torsions:
  status: ('A' for Active; 'I' for Inactive)
    1  A    between atoms: C_4  and  C_13
    2  A    between atoms: N_7  and  C_16
    3  A    between atoms: C_8  and  C_12
    4  A    between atoms: C_8  and  C_13
    5  A    between atoms: C_13  and  S_27
    6  A    between atoms: C_16  and  C_30
    7  A    between atoms: S_27  and  C_30
                            x       y       z     vdW  Elec       q    Type
                         _______ _______ _______ _____ _____    ______ ____

>  <TORSDO>
F 7

$$$$
