=
 OpenBabel11052413163D

 31 35  0  0  1  0  0  0  0  0999 V2000
  184.0780  179.5040  144.0390 C   0  0  0  0  0  2  0  0  0  0  0  0
  186.5930  177.7610  141.9740 O   0  0  0  0  0  0  0  0  0  0  0  0
  186.1020  178.2400  143.2020 C   0  0  1  0  0  3  0  0  0  0  0  0
  185.6110  179.1210  145.9520 C   0  0  0  0  0  2  0  0  0  0  0  0
  188.6670  177.0310  143.2100 C   0  0  1  0  0  3  0  0  0  0  0  0
  184.1720  179.0190  145.4760 C   0  0  0  0  0  2  0  0  0  0  0  0
  188.6410  177.6960  140.6650 C   0  0  1  0  0  3  0  0  0  0  0  0
  187.6260  176.3760  144.1290 C   0  0  0  0  0  2  0  0  0  0  0  0
  187.9950  177.7890  142.0460 C   0  0  1  0  0  0  0  0  0  0  0  0
  184.6030  178.4660  143.0560 C   0  0  0  0  0  2  0  0  0  0  0  0
  186.3590  177.2220  144.3390 C   0  0  1  0  0  3  0  0  0  0  0  0
  186.3760  177.8140  145.7550 C   0  0  0  0  0  2  0  0  0  0  0  0
  188.6560  179.0110  141.4380 C   0  0  0  0  0  2  0  0  0  0  0  0
  189.6320  177.8550  143.9470 N   0  0  0  0  0  0  0  0  0  0  0  0
  191.7070  176.0800  147.2020 C   0  0  0  0  0  0  0  0  0  0  0  0
  189.9750  177.5340  146.3500 C   0  0  0  0  0  3  0  0  0  0  0  0
  191.9230  175.8460  143.1990 Cl  0  0  0  0  0  0  0  0  0  0  0  0
  192.5430  175.3500  148.5540 Cl  0  0  0  0  0  0  0  0  0  0  0  0
  190.6450  176.9560  147.4290 C   0  0  0  0  0  3  0  0  0  0  0  0
  191.4290  176.3510  144.8080 C   0  0  0  0  0  0  0  0  0  0  0  0
  190.3610  177.2500  145.0300 C   0  0  0  0  0  0  0  0  0  0  0  0
  192.0910  175.7730  145.8960 C   0  0  0  0  0  3  0  0  0  0  0  0
  189.8920  179.2350  143.5400 C   0  0  0  0  0  2  0  0  0  0  0  0
  191.3110  179.6330  143.9040 C   0  0  0  0  0  1  0  0  0  0  0  0
  190.0320  177.0660  140.6860 C   0  0  0  0  0  2  0  0  0  0  0  0
  190.5100  176.7850  139.3030 C   0  0  0  0  0  0  0  0  0  0  0  0
  190.0380  176.4660  136.9480 C   0  0  0  0  0  3  0  0  0  0  0  0
  189.5950  176.7380  138.2460 C   0  0  0  0  0  3  0  0  0  0  0  0
  191.3960  176.2400  136.7060 C   0  0  0  0  0  3  0  0  0  0  0  0
  192.3120  176.2830  137.7610 C   0  0  0  0  0  3  0  0  0  0  0  0
  191.8680  176.5550  139.0600 C   0  0  0  0  0  3  0  0  0  0  0  0
  1  6  1  0  0  0  0
  2  9  1  0  0  0  0
  2  3  1  0  0  0  0
  3 10  1  6  0  0  0
  3 11  1  0  0  0  0
  5 14  1  1  0  0  0
  5  8  1  0  0  0  0
  6  4  1  0  0  0  0
  7 25  1  1  0  0  0
  7 13  1  0  0  0  0
  7  9  1  0  0  0  0
  9 13  1  1  0  0  0
  9  5  1  0  0  0  0
 10  1  1  0  0  0  0
 11  8  1  6  0  0  0
 11 12  1  0  0  0  0
 12  4  1  0  0  0  0
 14 21  1  0  0  0  0
 15 19  1  0  0  0  0
 15 18  1  0  0  0  0
 16 19  2  0  0  0  0
 17 20  1  0  0  0  0
 20 21  2  0  0  0  0
 20 22  1  0  0  0  0
 21 16  1  0  0  0  0
 22 15  2  0  0  0  0
 23 24  1  0  0  0  0
 23 14  1  0  0  0  0
 26 25  1  0  0  0  0
 27 28  1  0  0  0  0
 28 26  2  0  0  0  0
 29 27  2  0  0  0  0
 29 30  1  0  0  0  0
 30 31  2  0  0  0  0
 31 26  1  0  0  0  0
M  END
>  <MODEL>
1

>  <REMARK>
 VINA RESULT:      -8.8      0.000      0.000
  Name = 
  5 active torsions:
  status: ('A' for Active; 'I' for Inactive)
    1  A    between atoms: C_5  and  C_30
    2  A    between atoms: C_7  and  N_9
    3  A    between atoms: N_9  and  C_15
    4  A    between atoms: N_9  and  C_22
    5  A    between atoms: C_17  and  C_30
                            x       y       z     vdW  Elec       q    Type
                         _______ _______ _______ _____ _____    ______ ____

>  <TORSDO>
F 5

$$$$
=
 OpenBabel11052413163D

 31 35  0  0  1  0  0  0  0  0999 V2000
  186.7510  178.7280  147.6010 C   0  0  0  0  0  2  0  0  0  0  0  0
  185.5120  178.0870  144.1840 O   0  0  0  0  0  0  0  0  0  0  0  0
  186.5240  178.1070  145.1600 C   0  0  1  0  0  3  0  0  0  0  0  0
  188.9870  178.0700  146.7470 C   0  0  0  0  0  2  0  0  0  0  0  0
  187.2770  177.3840  142.5230 C   0  0  1  0  0  3  0  0  0  0  0  0
  187.9800  177.8740  147.8680 C   0  0  0  0  0  2  0  0  0  0  0  0
  185.1160  178.7380  141.8740 C   0  0  1  0  0  3  0  0  0  0  0  0
  187.5640  176.3330  143.6040 C   0  0  0  0  0  2  0  0  0  0  0  0
  186.1260  178.3230  142.9430 C   0  0  1  0  0  0  0  0  0  0  0  0
  185.8580  178.1160  146.5300 C   0  0  0  0  0  2  0  0  0  0  0  0
  187.4360  176.8630  145.0410 C   0  0  1  0  0  3  0  0  0  0  0  0
  188.8370  177.0180  145.6490 C   0  0  0  0  0  2  0  0  0  0  0  0
  186.0860  179.7600  142.4580 C   0  0  0  0  0  2  0  0  0  0  0  0
  188.4820  178.1090  142.1060 N   0  0  0  0  0  0  0  0  0  0  0  0
  190.3150  177.0960  138.4100 C   0  0  0  0  0  0  0  0  0  0  0  0
  188.7530  178.4200  139.6930 C   0  0  0  0  0  3  0  0  0  0  0  0
  190.6930  175.8850  142.2200 Cl  0  0  0  0  0  0  0  0  0  0  0  0
  191.0670  176.6990  136.8810 Cl  0  0  0  0  0  0  0  0  0  0  0  0
  189.3490  178.1010  138.4720 C   0  0  0  0  0  3  0  0  0  0  0  0
  190.0990  176.7280  140.7970 C   0  0  0  0  0  0  0  0  0  0  0  0
  189.1090  177.7360  140.8660 C   0  0  0  0  0  0  0  0  0  0  0  0
  190.6930  176.4190  139.5700 C   0  0  0  0  0  3  0  0  0  0  0  0
  188.9860  179.2290  142.9000 C   0  0  0  0  0  2  0  0  0  0  0  0
  190.3960  178.9410  143.3840 C   0  0  0  0  0  1  0  0  0  0  0  0
  185.5440  178.3650  140.4570 C   0  0  0  0  0  2  0  0  0  0  0  0
  184.4020  178.4850  139.5070 C   0  0  0  0  0  0  0  0  0  0  0  0
  183.3160  177.8240  137.4440 C   0  0  0  0  0  3  0  0  0  0  0  0
  184.3810  177.7090  138.3430 C   0  0  0  0  0  3  0  0  0  0  0  0
  182.2730  178.7160  137.7070 C   0  0  0  0  0  3  0  0  0  0  0  0
  182.2930  179.4950  138.8680 C   0  0  0  0  0  3  0  0  0  0  0  0
  183.3590  179.3800  139.7670 C   0  0  0  0  0  3  0  0  0  0  0  0
  1  6  1  0  0  0  0
  2  3  1  0  0  0  0
  3 10  1  1  0  0  0
  4  6  1  0  0  0  0
  5 14  1  1  0  0  0
  5  9  1  0  0  0  0
  5  8  1  0  0  0  0
  7 25  1  6  0  0  0
  7 13  1  0  0  0  0
  7  9  1  0  0  0  0
  9 13  1  1  0  0  0
  9  2  1  0  0  0  0
 10  1  1  0  0  0  0
 11  8  1  6  0  0  0
 11  3  1  0  0  0  0
 11 12  1  0  0  0  0
 12  4  1  0  0  0  0
 14 23  1  0  0  0  0
 15 19  2  0  0  0  0
 15 22  1  0  0  0  0
 16 21  2  0  0  0  0
 18 15  1  0  0  0  0
 19 16  1  0  0  0  0
 20 21  1  0  0  0  0
 20 17  1  0  0  0  0
 21 14  1  0  0  0  0
 22 20  2  0  0  0  0
 23 24  1  0  0  0  0
 26 31  1  0  0  0  0
 26 25  1  0  0  0  0
 27 29  2  0  0  0  0
 27 28  1  0  0  0  0
 28 26  2  0  0  0  0
 29 30  1  0  0  0  0
 30 31  2  0  0  0  0
M  END
>  <MODEL>
2

>  <REMARK>
 VINA RESULT:      -7.7      2.733      5.619
  Name = 
  5 active torsions:
  status: ('A' for Active; 'I' for Inactive)
    1  A    between atoms: C_5  and  C_30
    2  A    between atoms: C_7  and  N_9
    3  A    between atoms: N_9  and  C_15
    4  A    between atoms: N_9  and  C_22
    5  A    between atoms: C_17  and  C_30
                            x       y       z     vdW  Elec       q    Type
                         _______ _______ _______ _____ _____    ______ ____

>  <TORSDO>
F 5

$$$$
=
 OpenBabel11052413163D

 31 35  0  0  1  0  0  0  0  0999 V2000
  185.7260  179.0810  145.4530 C   0  0  0  0  0  2  0  0  0  0  0  0
  186.7300  177.8690  142.1140 O   0  0  0  0  0  0  0  0  0  0  0  0
  186.9210  178.0060  143.5010 C   0  0  1  0  0  3  0  0  0  0  0  0
  187.8510  178.1000  146.2770 C   0  0  0  0  0  2  0  0  0  0  0  0
  188.9740  176.7190  142.0270 C   0  0  1  0  0  3  0  0  0  0  0  0
  186.3560  178.2070  146.5250 C   0  0  0  0  0  2  0  0  0  0  0  0
  187.9480  178.0740  140.0190 C   0  0  1  0  0  3  0  0  0  0  0  0
  188.3460  175.8840  143.1520 C   0  0  0  0  0  2  0  0  0  0  0  0
  188.0020  177.8060  141.5230 C   0  0  1  0  0  0  0  0  0  0  0  0
  185.5750  178.3370  144.1320 C   0  0  0  0  0  2  0  0  0  0  0  0
  187.4700  176.6980  144.1190 C   0  0  1  0  0  3  0  0  0  0  0  0
  188.2110  176.8650  145.4530 C   0  0  0  0  0  2  0  0  0  0  0  0
  188.5300  179.1160  140.9700 C   0  0  0  0  0  2  0  0  0  0  0  0
  190.2910  177.2530  142.3890 N   0  0  0  0  0  0  0  0  0  0  0  0
  191.9910  176.0920  146.1050 C   0  0  0  0  0  0  0  0  0  0  0  0
  191.2330  175.5510  143.8750 C   0  0  0  0  0  3  0  0  0  0  0  0
  190.7220  179.5430  144.4920 Cl  0  0  0  0  0  0  0  0  0  0  0  0
  192.7020  175.5980  147.6260 Cl  0  0  0  0  0  0  0  0  0  0  0  0
  191.7960  175.1550  145.0900 C   0  0  0  0  0  3  0  0  0  0  0  0
  191.0650  177.8310  144.6920 C   0  0  0  0  0  0  0  0  0  0  0  0
  190.8520  176.8850  143.6620 C   0  0  0  0  0  0  0  0  0  0  0  0
  191.6330  177.4250  145.9030 C   0  0  0  0  0  3  0  0  0  0  0  0
  191.0410  178.0800  141.4450 C   0  0  0  0  0  2  0  0  0  0  0  0
  192.2570  177.3290  140.9340 C   0  0  0  0  0  1  0  0  0  0  0  0
  189.0720  177.3960  139.2400 C   0  0  0  0  0  2  0  0  0  0  0  0
  188.8180  177.4610  137.7740 C   0  0  0  0  0  0  0  0  0  0  0  0
  187.5090  178.2860  135.9090 C   0  0  0  0  0  3  0  0  0  0  0  0
  187.7570  178.2290  137.2840 C   0  0  0  0  0  3  0  0  0  0  0  0
  188.3220  177.5740  135.0230 C   0  0  0  0  0  3  0  0  0  0  0  0
  189.3810  176.8030  135.5100 C   0  0  0  0  0  3  0  0  0  0  0  0
  189.6290  176.7460  136.8860 C   0  0  0  0  0  3  0  0  0  0  0  0
  1  6  1  0  0  0  0
  2  3  1  0  0  0  0
  3 11  1  0  0  0  0
  3 10  1  1  0  0  0
  4  6  1  0  0  0  0
  5 14  1  1  0  0  0
  5  8  1  0  0  0  0
  7 25  1  6  0  0  0
  7 13  1  0  0  0  0
  7  9  1  0  0  0  0
  9 13  1  1  0  0  0
  9  5  1  0  0  0  0
  9  2  1  0  0  0  0
 10  1  1  0  0  0  0
 11  8  1  6  0  0  0
 11 12  1  0  0  0  0
 12  4  1  0  0  0  0
 14 21  1  0  0  0  0
 15 18  1  0  0  0  0
 16 19  1  0  0  0  0
 17 20  1  0  0  0  0
 19 15  2  0  0  0  0
 20 22  2  0  0  0  0
 21 16  2  0  0  0  0
 21 20  1  0  0  0  0
 22 15  1  0  0  0  0
 23 14  1  0  0  0  0
 24 23  1  0  0  0  0
 26 25  1  0  0  0  0
 27 28  2  0  0  0  0
 28 26  1  0  0  0  0
 29 30  2  0  0  0  0
 29 27  1  0  0  0  0
 30 31  1  0  0  0  0
 31 26  2  0  0  0  0
M  END
>  <MODEL>
3

>  <REMARK>
 VINA RESULT:      -7.1      1.603      2.333
  Name = 
  5 active torsions:
  status: ('A' for Active; 'I' for Inactive)
    1  A    between atoms: C_5  and  C_30
    2  A    between atoms: C_7  and  N_9
    3  A    between atoms: N_9  and  C_15
    4  A    between atoms: N_9  and  C_22
    5  A    between atoms: C_17  and  C_30
                            x       y       z     vdW  Elec       q    Type
                         _______ _______ _______ _____ _____    ______ ____

>  <TORSDO>
F 5

$$$$
=
 OpenBabel11052413163D

 31 35  0  0  1  0  0  0  0  0999 V2000
  189.8540  177.4770  147.7180 C   0  0  0  0  0  2  0  0  0  0  0  0
  187.1100  177.1260  145.2750 O   0  0  0  0  0  0  0  0  0  0  0  0
  188.4710  177.2150  145.6170 C   0  0  1  0  0  3  0  0  0  0  0  0
  191.3850  177.4770  145.7650 C   0  0  0  0  0  2  0  0  0  0  0  0
  187.8310  177.1050  142.8570 C   0  0  1  0  0  3  0  0  0  0  0  0
  191.1310  176.8870  147.1420 C   0  0  0  0  0  2  0  0  0  0  0  0
  185.5090  178.0290  143.6820 C   0  0  1  0  0  3  0  0  0  0  0  0
  188.7500  175.9860  143.3670 C   0  0  0  0  0  2  0  0  0  0  0  0
  186.9650  177.6860  143.9950 C   0  0  1  0  0  0  0  0  0  0  0  0
  188.6110  176.8590  147.0910 C   0  0  0  0  0  2  0  0  0  0  0  0
  189.3230  176.2400  144.7710 C   0  0  1  0  0  3  0  0  0  0  0  0
  190.8100  176.6050  144.6500 C   0  0  0  0  0  2  0  0  0  0  0  0
  186.5200  179.1360  143.9630 C   0  0  0  0  0  2  0  0  0  0  0  0
  188.5580  178.1370  142.1100 N   0  0  0  0  0  0  0  0  0  0  0  0
  189.1720  177.5890  137.9420 C   0  0  0  0  0  0  0  0  0  0  0  0
  187.7710  178.2530  139.7950 C   0  0  0  0  0  3  0  0  0  0  0  0
  191.3950  177.1050  141.2500 Cl  0  0  0  0  0  0  0  0  0  0  0  0
  189.4110  177.3790  136.2210 Cl  0  0  0  0  0  0  0  0  0  0  0  0
  187.9590  178.0820  138.4220 C   0  0  0  0  0  3  0  0  0  0  0  0
  190.0210  177.4420  140.2090 C   0  0  0  0  0  0  0  0  0  0  0  0
  188.7890  177.9290  140.7050 C   0  0  0  0  0  0  0  0  0  0  0  0
  190.2010  177.2770  138.8320 C   0  0  0  0  0  3  0  0  0  0  0  0
  188.9730  179.3760  142.7670 C   0  0  0  0  0  2  0  0  0  0  0  0
  190.4360  179.2990  143.1640 C   0  0  0  0  0  1  0  0  0  0  0  0
  185.1830  177.9900  142.1910 C   0  0  0  0  0  2  0  0  0  0  0  0
  183.7470  178.3060  141.9510 C   0  0  0  0  0  0  0  0  0  0  0  0
  181.8770  178.5260  140.4250 C   0  0  0  0  0  3  0  0  0  0  0  0
  183.2220  178.2220  140.6570 C   0  0  0  0  0  3  0  0  0  0  0  0
  181.0560  178.9150  141.4870 C   0  0  0  0  0  3  0  0  0  0  0  0
  181.5790  179.0030  142.7810 C   0  0  0  0  0  3  0  0  0  0  0  0
  182.9250  178.6990  143.0120 C   0  0  0  0  0  3  0  0  0  0  0  0
  2  3  1  0  0  0  0
  3 10  1  1  0  0  0
  4  6  1  0  0  0  0
  5 14  1  1  0  0  0
  5  8  1  0  0  0  0
  5  9  1  0  0  0  0
  6  1  1  0  0  0  0
  7 25  1  6  0  0  0
  7 13  1  0  0  0  0
  7  9  1  0  0  0  0
  9 13  1  1  0  0  0
  9  2  1  0  0  0  0
 10  1  1  0  0  0  0
 11  8  1  6  0  0  0
 11  3  1  0  0  0  0
 12 11  1  0  0  0  0
 12  4  1  0  0  0  0
 14 23  1  0  0  0  0
 15 19  2  0  0  0  0
 15 22  1  0  0  0  0
 16 21  2  0  0  0  0
 18 15  1  0  0  0  0
 19 16  1  0  0  0  0
 20 21  1  0  0  0  0
 20 17  1  0  0  0  0
 21 14  1  0  0  0  0
 22 20  2  0  0  0  0
 23 24  1  0  0  0  0
 26 25  1  0  0  0  0
 26 31  1  0  0  0  0
 27 28  1  0  0  0  0
 27 29  2  0  0  0  0
 28 26  2  0  0  0  0
 29 30  1  0  0  0  0
 30 31  2  0  0  0  0
M  END
>  <MODEL>
4

>  <REMARK>
 VINA RESULT:      -6.6      2.252      6.680
  Name = 
  5 active torsions:
  status: ('A' for Active; 'I' for Inactive)
    1  A    between atoms: C_5  and  C_30
    2  A    between atoms: C_7  and  N_9
    3  A    between atoms: N_9  and  C_15
    4  A    between atoms: N_9  and  C_22
    5  A    between atoms: C_17  and  C_30
                            x       y       z     vdW  Elec       q    Type
                         _______ _______ _______ _____ _____    ______ ____

>  <TORSDO>
F 5

$$$$
=
 OpenBabel11052413163D

 31 35  0  0  1  0  0  0  0  0999 V2000
  189.4930  176.6090  137.1000 C   0  0  0  0  0  2  0  0  0  0  0  0
  187.6850  178.6870  139.5580 O   0  0  0  0  0  0  0  0  0  0  0  0
  188.7300  177.8230  139.1840 C   0  0  1  0  0  3  0  0  0  0  0  0
  190.9990  175.9810  138.9700 C   0  0  0  0  0  2  0  0  0  0  0  0
  188.5820  178.5750  141.9140 C   0  0  1  0  0  3  0  0  0  0  0  0
  190.9430  176.4560  137.5280 C   0  0  0  0  0  2  0  0  0  0  0  0
  186.0520  179.0020  141.3320 C   0  0  1  0  0  3  0  0  0  0  0  0
  189.8920  178.9350  141.2000 C   0  0  0  0  0  2  0  0  0  0  0  0
  187.4130  178.4470  140.9150 C   0  0  1  0  0  0  0  0  0  0  0  0
  188.8650  177.8760  137.6670 C   0  0  0  0  0  2  0  0  0  0  0  0
  190.0670  178.2520  139.8330 C   0  0  1  0  0  3  0  0  0  0  0  0
  191.1220  177.1440  139.9540 C   0  0  0  0  0  2  0  0  0  0  0  0
  186.2620  177.4970  141.1910 C   0  0  0  0  0  2  0  0  0  0  0  0
  188.7190  177.4040  142.7870 N   0  0  0  0  0  0  0  0  0  0  0  0
  188.1690  177.8710  146.9740 C   0  0  0  0  0  0  0  0  0  0  0  0
  187.3480  177.1930  144.8050 C   0  0  0  0  0  3  0  0  0  0  0  0
  191.1680  178.5380  144.3880 Cl  0  0  0  0  0  0  0  0  0  0  0  0
  187.9300  178.0470  148.6980 Cl  0  0  0  0  0  0  0  0  0  0  0  0
  187.1550  177.3370  146.1800 C   0  0  0  0  0  3  0  0  0  0  0  0
  189.5840  178.1140  145.0190 C   0  0  0  0  0  0  0  0  0  0  0  0
  188.5550  177.5860  144.2050 C   0  0  0  0  0  0  0  0  0  0  0  0
  189.3820  178.2500  146.3960 C   0  0  0  0  0  3  0  0  0  0  0  0
  188.9440  176.0760  142.2180 C   0  0  0  0  0  2  0  0  0  0  0  0
  190.1680  175.4340  142.8440 C   0  0  0  0  0  1  0  0  0  0  0  0
  185.9770  179.3800  142.8090 C   0  0  0  0  0  2  0  0  0  0  0  0
  184.5970  179.1910  143.3390 C   0  0  0  0  0  0  0  0  0  0  0  0
  183.0840  179.0010  145.2220 C   0  0  0  0  0  3  0  0  0  0  0  0
  184.3760  179.1870  144.7200 C   0  0  0  0  0  3  0  0  0  0  0  0
  182.0130  178.8180  144.3430 C   0  0  0  0  0  3  0  0  0  0  0  0
  182.2320  178.8170  142.9620 C   0  0  0  0  0  3  0  0  0  0  0  0
  183.5240  179.0030  142.4610 C   0  0  0  0  0  3  0  0  0  0  0  0
  1  6  1  0  0  0  0
  1 10  1  0  0  0  0
  2  9  1  0  0  0  0
  3 10  1  6  0  0  0
  3  2  1  0  0  0  0
  3 11  1  0  0  0  0
  4 12  1  0  0  0  0
  5 14  1  6  0  0  0
  6  4  1  0  0  0  0
  7 25  1  1  0  0  0
  8  5  1  0  0  0  0
  9 13  1  1  0  0  0
  9  7  1  0  0  0  0
  9  5  1  0  0  0  0
 11 12  1  1  0  0  0
 11  8  1  0  0  0  0
 13  7  1  0  0  0  0
 14 21  1  0  0  0  0
 15 18  1  0  0  0  0
 16 19  1  0  0  0  0
 17 20  1  0  0  0  0
 19 15  2  0  0  0  0
 20 22  2  0  0  0  0
 21 16  2  0  0  0  0
 21 20  1  0  0  0  0
 22 15  1  0  0  0  0
 23 14  1  0  0  0  0
 23 24  1  0  0  0  0
 25 26  1  0  0  0  0
 26 28  1  0  0  0  0
 28 27  2  0  0  0  0
 29 27  1  0  0  0  0
 30 29  2  0  0  0  0
 31 30  1  0  0  0  0
 31 26  2  0  0  0  0
M  END
>  <MODEL>
5

>  <REMARK>
 VINA RESULT:      -6.6      1.945      6.466
  Name = 
  5 active torsions:
  status: ('A' for Active; 'I' for Inactive)
    1  A    between atoms: C_5  and  C_30
    2  A    between atoms: C_7  and  N_9
    3  A    between atoms: N_9  and  C_15
    4  A    between atoms: N_9  and  C_22
    5  A    between atoms: C_17  and  C_30
                            x       y       z     vdW  Elec       q    Type
                         _______ _______ _______ _____ _____    ______ ____

>  <TORSDO>
F 5

$$$$
=
 OpenBabel11052413163D

 31 35  0  0  1  0  0  0  0  0999 V2000
  182.6270  175.0070  134.6520 C   0  0  0  0  0  2  0  0  0  0  0  0
  182.1500  178.4110  135.9980 O   0  0  0  0  0  0  0  0  0  0  0  0
  182.5250  177.0610  136.1240 C   0  0  1  0  0  3  0  0  0  0  0  0
  183.3010  174.3600  136.9510 C   0  0  0  0  0  2  0  0  0  0  0  0
  182.5880  178.6500  138.4720 C   0  0  1  0  0  3  0  0  0  0  0  0
  183.6680  174.2710  135.4800 C   0  0  0  0  0  2  0  0  0  0  0  0
  180.8500  180.1150  137.1460 C   0  0  1  0  0  3  0  0  0  0  0  0
  183.9220  178.0020  138.0770 C   0  0  0  0  0  2  0  0  0  0  0  0
  181.6630  178.8250  137.2480 C   0  0  1  0  0  0  0  0  0  0  0  0
  182.8070  176.5170  134.7290 C   0  0  0  0  0  2  0  0  0  0  0  0
  183.7930  176.9140  136.9980 C   0  0  1  0  0  3  0  0  0  0  0  0
  183.9860  175.5360  137.6450 C   0  0  0  0  0  2  0  0  0  0  0  0
  180.1550  178.7820  137.4090 C   0  0  0  0  0  2  0  0  0  0  0  0
  181.9330  177.9600  139.5880 N   0  0  0  0  0  0  0  0  0  0  0  0
  183.3320  178.8280  143.5050 C   0  0  0  0  0  0  0  0  0  0  0  0
  183.7080  177.9770  141.2750 C   0  0  0  0  0  3  0  0  0  0  0  0
  179.8730  179.3200  141.5260 Cl  0  0  0  0  0  0  0  0  0  0  0  0
  183.9270  179.1880  145.1100 Cl  0  0  0  0  0  0  0  0  0  0  0  0
  184.1830  178.2600  142.5570 C   0  0  0  0  0  3  0  0  0  0  0  0
  181.5230  178.8400  141.8890 C   0  0  0  0  0  0  0  0  0  0  0  0
  182.3760  178.2520  140.9260 C   0  0  0  0  0  0  0  0  0  0  0  0
  182.0100  179.1230  143.1690 C   0  0  0  0  0  3  0  0  0  0  0  0
  180.8120  177.0540  139.3460 C   0  0  0  0  0  2  0  0  0  0  0  0
  181.1420  175.6600  139.8460 C   0  0  0  0  0  1  0  0  0  0  0  0
  180.8710  180.9500  138.4240 C   0  0  0  0  0  2  0  0  0  0  0  0
  180.5800  182.3810  138.1310 C   0  0  0  0  0  0  0  0  0  0  0  0
  181.2970  184.5300  137.2700 C   0  0  0  0  0  3  0  0  0  0  0  0
  181.5620  183.1840  137.5390 C   0  0  0  0  0  3  0  0  0  0  0  0
  180.0510  185.0750  137.5920 C   0  0  0  0  0  3  0  0  0  0  0  0
  179.0700  184.2760  138.1860 C   0  0  0  0  0  3  0  0  0  0  0  0
  179.3350  182.9290  138.4560 C   0  0  0  0  0  3  0  0  0  0  0  0
  1 10  1  0  0  0  0
  1  6  1  0  0  0  0
  2  3  1  0  0  0  0
  2  9  1  0  0  0  0
  3 10  1  6  0  0  0
  3 11  1  0  0  0  0
  4 12  1  0  0  0  0
  5 14  1  1  0  0  0
  6  4  1  0  0  0  0
  7  9  1  0  0  0  0
  7 13  1  0  0  0  0
  7 25  1  1  0  0  0
  8  5  1  0  0  0  0
  9 13  1  1  0  0  0
  9  5  1  0  0  0  0
 11 12  1  1  0  0  0
 11  8  1  0  0  0  0
 14 21  1  0  0  0  0
 15 18  1  0  0  0  0
 16 19  1  0  0  0  0
 17 20  1  0  0  0  0
 19 15  2  0  0  0  0
 20 22  2  0  0  0  0
 21 16  2  0  0  0  0
 21 20  1  0  0  0  0
 22 15  1  0  0  0  0
 23 14  1  0  0  0  0
 23 24  1  0  0  0  0
 26 25  1  0  0  0  0
 26 31  1  0  0  0  0
 27 28  1  0  0  0  0
 27 29  2  0  0  0  0
 28 26  2  0  0  0  0
 29 30  1  0  0  0  0
 30 31  2  0  0  0  0
M  END
>  <MODEL>
6

>  <REMARK>
 VINA RESULT:      -6.5      6.892     10.270
  Name = 
  5 active torsions:
  status: ('A' for Active; 'I' for Inactive)
    1  A    between atoms: C_5  and  C_30
    2  A    between atoms: C_7  and  N_9
    3  A    between atoms: N_9  and  C_15
    4  A    between atoms: N_9  and  C_22
    5  A    between atoms: C_17  and  C_30
                            x       y       z     vdW  Elec       q    Type
                         _______ _______ _______ _____ _____    ______ ____

>  <TORSDO>
F 5

$$$$
=
 OpenBabel11052413163D

 31 35  0  0  1  0  0  0  0  0999 V2000
  191.5810  176.0380  146.8850 C   0  0  0  0  0  2  0  0  0  0  0  0
  191.5530  177.3370  143.4300 O   0  0  0  0  0  0  0  0  0  0  0  0
  190.9500  177.1010  144.6790 C   0  0  1  0  0  3  0  0  0  0  0  0
  189.2080  176.7520  147.0080 C   0  0  0  0  0  2  0  0  0  0  0  0
  189.3360  178.2610  142.6560 C   0  0  1  0  0  3  0  0  0  0  0  0
  190.5500  176.7800  147.7190 C   0  0  0  0  0  2  0  0  0  0  0  0
  191.0900  177.1330  141.0510 C   0  0  1  0  0  3  0  0  0  0  0  0
  189.4790  179.0870  143.9420 C   0  0  0  0  0  2  0  0  0  0  0  0
  190.5340  177.3070  142.4640 C   0  0  1  0  0  0  0  0  0  0  0  0
  192.0560  176.8680  145.7000 C   0  0  0  0  0  2  0  0  0  0  0  0
  190.0900  178.3090  145.1190 C   0  0  1  0  0  3  0  0  0  0  0  0
  188.9900  177.9920  146.1420 C   0  0  0  0  0  2  0  0  0  0  0  0
  190.3590  175.9850  141.7400 C   0  0  0  0  0  2  0  0  0  0  0  0
  188.0410  177.5780  142.5640 N   0  0  0  0  0  0  0  0  0  0  0  0
  185.0150  179.2800  140.1170 C   0  0  0  0  0  0  0  0  0  0  0  0
  187.0930  178.0720  140.3620 C   0  0  0  0  0  3  0  0  0  0  0  0
  185.6390  178.9270  144.0670 Cl  0  0  0  0  0  0  0  0  0  0  0  0
  183.7730  179.9670  139.0940 Cl  0  0  0  0  0  0  0  0  0  0  0  0
  186.1040  178.6230  139.5450 C   0  0  0  0  0  3  0  0  0  0  0  0
  185.8950  178.8320  142.3320 C   0  0  0  0  0  0  0  0  0  0  0  0
  187.0090  178.1750  141.7600 C   0  0  0  0  0  0  0  0  0  0  0  0
  184.9080  179.3770  141.5040 C   0  0  0  0  0  3  0  0  0  0  0  0
  187.8350  176.2860  143.2180 C   0  0  0  0  0  2  0  0  0  0  0  0
  186.8290  176.4200  144.3470 C   0  0  0  0  0  1  0  0  0  0  0  0
  190.2000  177.7410  139.9690 C   0  0  0  0  0  2  0  0  0  0  0  0
  190.4960  177.1420  138.6380 C   0  0  0  0  0  0  0  0  0  0  0  0
  189.8580  176.7350  136.3360 C   0  0  0  0  0  3  0  0  0  0  0  0
  189.5890  177.3030  137.5850 C   0  0  0  0  0  3  0  0  0  0  0  0
  191.0330  176.0050  136.1390 C   0  0  0  0  0  3  0  0  0  0  0  0
  191.9400  175.8400  137.1900 C   0  0  0  0  0  3  0  0  0  0  0  0
  191.6700  176.4070  138.4400 C   0  0  0  0  0  3  0  0  0  0  0  0
  1  6  1  0  0  0  0
  2  3  1  0  0  0  0
  3 11  1  0  0  0  0
  3 10  1  1  0  0  0
  4  6  1  0  0  0  0
  5 14  1  1  0  0  0
  5  8  1  0  0  0  0
  7 25  1  6  0  0  0
  7 13  1  0  0  0  0
  7  9  1  0  0  0  0
  9 13  1  1  0  0  0
  9  5  1  0  0  0  0
  9  2  1  0  0  0  0
 10  1  1  0  0  0  0
 11  8  1  6  0  0  0
 11 12  1  0  0  0  0
 12  4  1  0  0  0  0
 14 23  1  0  0  0  0
 15 22  1  0  0  0  0
 16 21  2  0  0  0  0
 18 15  1  0  0  0  0
 19 15  2  0  0  0  0
 19 16  1  0  0  0  0
 20 17  1  0  0  0  0
 21 20  1  0  0  0  0
 21 14  1  0  0  0  0
 22 20  2  0  0  0  0
 23 24  1  0  0  0  0
 26 25  1  0  0  0  0
 27 28  1  0  0  0  0
 28 26  2  0  0  0  0
 29 27  2  0  0  0  0
 29 30  1  0  0  0  0
 30 31  2  0  0  0  0
 31 26  1  0  0  0  0
M  END
>  <MODEL>
7

>  <REMARK>
 VINA RESULT:      -6.3      2.720      5.685
  Name = 
  5 active torsions:
  status: ('A' for Active; 'I' for Inactive)
    1  A    between atoms: C_5  and  C_30
    2  A    between atoms: C_7  and  N_9
    3  A    between atoms: N_9  and  C_15
    4  A    between atoms: N_9  and  C_22
    5  A    between atoms: C_17  and  C_30
                            x       y       z     vdW  Elec       q    Type
                         _______ _______ _______ _____ _____    ______ ____

>  <TORSDO>
F 5

$$$$
=
 OpenBabel11052413163D

 31 35  0  0  1  0  0  0  0  0999 V2000
  178.9380  179.3440  139.1210 C   0  0  0  0  0  2  0  0  0  0  0  0
  182.1640  179.5240  140.9060 O   0  0  0  0  0  0  0  0  0  0  0  0
  181.3890  179.4400  139.7350 C   0  0  1  0  0  3  0  0  0  0  0  0
  180.2770  179.1390  137.0420 C   0  0  0  0  0  2  0  0  0  0  0  0
  184.2070  179.3130  139.4400 C   0  0  1  0  0  3  0  0  0  0  0  0
  179.1100  179.8550  137.7010 C   0  0  0  0  0  2  0  0  0  0  0  0
  184.1160  178.5100  141.9440 C   0  0  1  0  0  3  0  0  0  0  0  0
  183.5150  180.4560  138.6850 C   0  0  0  0  0  2  0  0  0  0  0  0
  183.3720  178.8530  140.6540 C   0  0  1  0  0  0  0  0  0  0  0  0
  179.9830  179.9250  140.0640 C   0  0  0  0  0  2  0  0  0  0  0  0
  181.9850  180.3190  138.6090 C   0  0  1  0  0  3  0  0  0  0  0  0
  181.5840  179.9170  137.1830 C   0  0  0  0  0  2  0  0  0  0  0  0
  183.4320  177.4150  141.1330 C   0  0  0  0  0  2  0  0  0  0  0  0
  184.5910  178.2040  138.5590 N   0  0  0  0  0  0  0  0  0  0  0  0
  188.7250  177.6290  137.7690 C   0  0  0  0  0  0  0  0  0  0  0  0
  186.9110  178.0150  139.3170 C   0  0  0  0  0  3  0  0  0  0  0  0
  185.3710  177.6930  135.5630 Cl  0  0  0  0  0  0  0  0  0  0  0  0
  190.4300  177.3830  137.4620 Cl  0  0  0  0  0  0  0  0  0  0  0  0
  188.2720  177.8240  139.0730 C   0  0  0  0  0  3  0  0  0  0  0  0
  186.4520  177.8090  136.9420 C   0  0  0  0  0  0  0  0  0  0  0  0
  185.9860  178.0200  138.2610 C   0  0  0  0  0  0  0  0  0  0  0  0
  187.8170  177.6140  136.7090 C   0  0  0  0  0  3  0  0  0  0  0  0
  183.5830  177.2710  138.0580 C   0  0  0  0  0  2  0  0  0  0  0  0
  184.0910  175.8440  138.1530 C   0  0  0  0  0  1  0  0  0  0  0  0
  185.6290  178.4210  141.7680 C   0  0  0  0  0  2  0  0  0  0  0  0
  186.2920  178.0270  143.0430 C   0  0  0  0  0  0  0  0  0  0  0  0
  186.2500  177.8570  145.4600 C   0  0  0  0  0  3  0  0  0  0  0  0
  185.6290  178.2160  144.2600 C   0  0  0  0  0  3  0  0  0  0  0  0
  187.5360  177.3080  145.4430 C   0  0  0  0  0  3  0  0  0  0  0  0
  188.2020  177.1210  144.2290 C   0  0  0  0  0  3  0  0  0  0  0  0
  187.5800  177.4810  143.0280 C   0  0  0  0  0  3  0  0  0  0  0  0
  1 10  1  0  0  0  0
  3 10  1  1  0  0  0
  3  2  1  0  0  0  0
  4 12  1  0  0  0  0
  4  6  1  0  0  0  0
  5 14  1  6  0  0  0
  5  9  1  0  0  0  0
  6  1  1  0  0  0  0
  7 25  1  6  0  0  0
  8  5  1  0  0  0  0
  9  2  1  0  0  0  0
  9 13  1  6  0  0  0
  9  7  1  0  0  0  0
 11 12  1  6  0  0  0
 11  8  1  0  0  0  0
 11  3  1  0  0  0  0
 13  7  1  0  0  0  0
 15 19  1  0  0  0  0
 17 20  1  0  0  0  0
 18 15  1  0  0  0  0
 19 16  2  0  0  0  0
 20 21  2  0  0  0  0
 21 14  1  0  0  0  0
 21 16  1  0  0  0  0
 22 20  1  0  0  0  0
 22 15  2  0  0  0  0
 23 24  1  0  0  0  0
 23 14  1  0  0  0  0
 25 26  1  0  0  0  0
 26 28  1  0  0  0  0
 28 27  2  0  0  0  0
 29 27  1  0  0  0  0
 30 29  2  0  0  0  0
 31 26  2  0  0  0  0
 31 30  1  0  0  0  0
M  END
>  <MODEL>
8

>  <REMARK>
 VINA RESULT:      -6.2      4.669      8.082
  Name = 
  5 active torsions:
  status: ('A' for Active; 'I' for Inactive)
    1  A    between atoms: C_5  and  C_30
    2  A    between atoms: C_7  and  N_9
    3  A    between atoms: N_9  and  C_15
    4  A    between atoms: N_9  and  C_22
    5  A    between atoms: C_17  and  C_30
                            x       y       z     vdW  Elec       q    Type
                         _______ _______ _______ _____ _____    ______ ____

>  <TORSDO>
F 5

$$$$
=
 OpenBabel11052413163D

 31 35  0  0  1  0  0  0  0  0999 V2000
  179.7940  172.8300  137.2170 C   0  0  0  0  0  2  0  0  0  0  0  0
  180.3680  175.4330  139.7700 O   0  0  0  0  0  0  0  0  0  0  0  0
  180.0670  175.0140  138.4610 C   0  0  1  0  0  3  0  0  0  0  0  0
  179.5340  174.6930  135.5980 C   0  0  0  0  0  2  0  0  0  0  0  0
  180.3390  177.8020  138.9030 C   0  0  1  0  0  3  0  0  0  0  0  0
  178.9310  173.3920  136.0980 C   0  0  0  0  0  2  0  0  0  0  0  0
  181.7810  177.0160  140.9580 C   0  0  1  0  0  3  0  0  0  0  0  0
  178.9810  177.3510  138.3470 C   0  0  0  0  0  2  0  0  0  0  0  0
  181.0410  176.6610  139.6690 C   0  0  1  0  0  0  0  0  0  0  0  0
  179.5770  173.5740  138.5280 C   0  0  0  0  0  2  0  0  0  0  0  0
  178.9670  175.9020  137.8320 C   0  0  1  0  0  3  0  0  0  0  0  0
  178.9330  175.9120  136.2970 C   0  0  0  0  0  2  0  0  0  0  0  0
  182.5550  176.5830  139.7180 C   0  0  0  0  0  2  0  0  0  0  0  0
  181.1930  178.4130  137.8780 N   0  0  0  0  0  0  0  0  0  0  0  0
  181.2010  182.6410  137.4670 C   0  0  0  0  0  0  0  0  0  0  0  0
  182.0760  180.6210  138.4620 C   0  0  0  0  0  3  0  0  0  0  0  0
  179.1650  179.6070  135.8020 Cl  0  0  0  0  0  0  0  0  0  0  0  0
  181.2260  184.3830  137.3020 Cl  0  0  0  0  0  0  0  0  0  0  0  0
  182.0930  182.0110  138.3350 C   0  0  0  0  0  3  0  0  0  0  0  0
  180.2730  180.4900  136.8420 C   0  0  0  0  0  0  0  0  0  0  0  0
  181.1650  179.8440  137.7290 C   0  0  0  0  0  0  0  0  0  0  0  0
  180.3010  181.8830  136.7180 C   0  0  0  0  0  3  0  0  0  0  0  0
  182.1010  177.5900  137.0820 C   0  0  0  0  0  2  0  0  0  0  0  0
  182.0750  178.0280  135.6290 C   0  0  0  0  0  1  0  0  0  0  0  0
  181.9420  178.5190  141.1720 C   0  0  0  0  0  2  0  0  0  0  0  0
  182.9240  178.8010  142.2570 C   0  0  0  0  0  0  0  0  0  0  0  0
  183.3970  179.2250  144.5950 C   0  0  0  0  0  3  0  0  0  0  0  0
  182.4810  178.9520  143.5750 C   0  0  0  0  0  3  0  0  0  0  0  0
  184.7580  179.3480  144.2980 C   0  0  0  0  0  3  0  0  0  0  0  0
  185.2020  179.2000  142.9800 C   0  0  0  0  0  3  0  0  0  0  0  0
  184.2850  178.9280  141.9600 C   0  0  0  0  0  3  0  0  0  0  0  0
  1 10  1  0  0  0  0
  3 10  1  1  0  0  0
  3  2  1  0  0  0  0
  4  6  1  0  0  0  0
  4 12  1  0  0  0  0
  5 14  1  6  0  0  0
  5  9  1  0  0  0  0
  6  1  1  0  0  0  0
  7 25  1  6  0  0  0
  8  5  1  0  0  0  0
  9 13  1  6  0  0  0
  9  2  1  0  0  0  0
  9  7  1  0  0  0  0
 11 12  1  6  0  0  0
 11  8  1  0  0  0  0
 11  3  1  0  0  0  0
 13  7  1  0  0  0  0
 15 19  1  0  0  0  0
 17 20  1  0  0  0  0
 18 15  1  0  0  0  0
 19 16  2  0  0  0  0
 20 21  2  0  0  0  0
 21 14  1  0  0  0  0
 21 16  1  0  0  0  0
 22 20  1  0  0  0  0
 22 15  2  0  0  0  0
 23 14  1  0  0  0  0
 24 23  1  0  0  0  0
 25 26  1  0  0  0  0
 26 28  1  0  0  0  0
 28 27  2  0  0  0  0
 29 27  1  0  0  0  0
 30 29  2  0  0  0  0
 31 26  2  0  0  0  0
 31 30  1  0  0  0  0
M  END
>  <MODEL>
9

>  <REMARK>
 VINA RESULT:      -6.1      7.535     11.238
  Name = 
  5 active torsions:
  status: ('A' for Active; 'I' for Inactive)
    1  A    between atoms: C_5  and  C_30
    2  A    between atoms: C_7  and  N_9
    3  A    between atoms: N_9  and  C_15
    4  A    between atoms: N_9  and  C_22
    5  A    between atoms: C_17  and  C_30
                            x       y       z     vdW  Elec       q    Type
                         _______ _______ _______ _____ _____    ______ ____

>  <TORSDO>
F 5

$$$$
