=
 OpenBabel11052412393D

 25 28  0  0  1  0  0  0  0  0999 V2000
  187.2030  177.8540  145.5050 C   0  0  0  0  0  0  0  0  0  0  0  0
  188.4910  177.3940  145.1600 C   0  0  0  0  0  0  0  0  0  0  0  0
  187.8030  177.8740  147.8710 C   0  0  0  0  0  3  0  0  0  0  0  0
  186.1130  178.1360  144.6570 C   0  0  0  0  0  0  0  0  0  0  0  0
  183.7530  178.7940  143.3100 C   0  0  0  0  0  3  0  0  0  0  0  0
  189.0820  177.4180  147.5400 C   0  0  0  0  0  3  0  0  0  0  0  0
  184.9870  178.5740  145.3520 C   0  0  0  0  0  0  0  0  0  0  0  0
  183.8000  178.9080  144.7070 C   0  0  0  0  0  3  0  0  0  0  0  0
  190.7330  176.7120  145.8710 C   0  0  0  0  0  0  0  0  0  0  0  0
  191.7680  176.4600  146.9170 C   0  0  0  0  0  1  0  0  0  0  0  0
  188.8570  177.1500  143.8290 C   0  0  0  0  0  3  0  0  0  0  0  0
  184.8790  178.3530  142.5920 C   0  0  0  0  0  3  0  0  0  0  0  0
  186.8880  178.0830  146.8460 C   0  0  0  0  0  0  0  0  0  0  0  0
  185.2990  178.6250  147.0060 S   0  0  0  0  0  0  0  0  0  0  0  0
  191.0700  176.4750  144.5360 C   0  0  0  0  0  3  0  0  0  0  0  0
  186.0670  178.0210  143.2640 C   0  0  0  0  0  3  0  0  0  0  0  0
  190.1410  176.6970  143.5170 C   0  0  0  0  0  0  0  0  0  0  0  0
  189.4420  177.1740  146.1970 C   0  0  0  0  0  0  0  0  0  0  0  0
  190.5080  176.4220  142.1010 C   0  0  0  0  0  2  0  0  0  0  0  0
  190.1700  177.6220  141.2320 C   0  0  0  0  0  2  0  0  0  0  0  0
  189.3550  177.1910  140.0240 C   0  0  2  0  0  3  0  0  0  0  0  0
  190.2110  176.7350  139.0220 O   0  0  0  0  0  1  0  0  0  0  0  0
  188.5260  178.3210  139.5060 C   0  0  0  0  0  0  0  0  0  0  0  0
  189.0370  179.1510  138.5160 O   0  0  0  0  0  0  0  0  0  0  0  0
  187.3640  178.5180  139.9490 O   0  0  0  0  0  1  0  0  0  0  0  0
  1 13  1  0  0  0  0
  2  1  2  0  0  0  0
  2 18  1  0  0  0  0
  4  7  1  0  0  0  0
  4  1  1  0  0  0  0
  5  8  1  0  0  0  0
  6  3  1  0  0  0  0
  7 14  1  0  0  0  0
  8  7  2  0  0  0  0
  9 18  1  0  0  0  0
  9 10  1  0  0  0  0
 11  2  1  0  0  0  0
 12 16  1  0  0  0  0
 12  5  2  0  0  0  0
 13 14  1  0  0  0  0
 13  3  2  0  0  0  0
 15  9  2  0  0  0  0
 16  4  2  0  0  0  0
 17 11  2  0  0  0  0
 17 15  1  0  0  0  0
 18  6  2  0  0  0  0
 19 17  1  0  0  0  0
 20 19  1  0  0  0  0
 21 22  1  6  0  0  0
 21 20  1  0  0  0  0
 23 25  1  0  0  0  0
 23 21  1  0  0  0  0
 24 23  2  0  0  0  0
M  END
>  <MODEL>
1

>  <REMARK>
 VINA RESULT:     -10.8      0.000      0.000
  Name = 
  4 active torsions:
  status: ('A' for Active; 'I' for Inactive)
    1  A    between atoms: C_2  and  C_21
    2  A    between atoms: C_6  and  C_15
    3  A    between atoms: C_6  and  C_23
    4  A    between atoms: C_15  and  C_21
                            x       y       z     vdW  Elec       q    Type
                         _______ _______ _______ _____ _____    ______ ____

>  <TORSDO>
F 4

$$$$
=
 OpenBabel11052412393D

 25 28  0  0  1  0  0  0  0  0999 V2000
  187.3710  177.8420  145.6460 C   0  0  0  0  0  0  0  0  0  0  0  0
  188.7040  177.4220  145.4580 C   0  0  0  0  0  0  0  0  0  0  0  0
  187.6900  177.9020  148.0650 C   0  0  0  0  0  3  0  0  0  0  0  0
  186.3790  178.0820  144.6730 C   0  0  0  0  0  0  0  0  0  0  0  0
  184.1740  178.6520  143.0530 C   0  0  0  0  0  3  0  0  0  0  0  0
  189.0130  177.4850  147.8900 C   0  0  0  0  0  3  0  0  0  0  0  0
  185.1680  178.4890  145.2280 C   0  0  0  0  0  0  0  0  0  0  0  0
  184.0540  178.7790  144.4440 C   0  0  0  0  0  3  0  0  0  0  0  0
  190.8680  176.8190  146.4330 C   0  0  0  0  0  0  0  0  0  0  0  0
  191.7820  176.6090  147.5960 C   0  0  0  0  0  1  0  0  0  0  0  0
  189.2310  177.1790  144.1830 C   0  0  0  0  0  3  0  0  0  0  0  0
  185.3890  178.2420  142.4760 C   0  0  0  0  0  3  0  0  0  0  0  0
  186.8950  178.0720  146.9380 C   0  0  0  0  0  0  0  0  0  0  0  0
  185.2830  178.5640  146.9060 S   0  0  0  0  0  0  0  0  0  0  0  0
  191.3660  176.5820  145.1490 C   0  0  0  0  0  3  0  0  0  0  0  0
  186.5000  177.9550  143.2860 C   0  0  0  0  0  3  0  0  0  0  0  0
  190.5560  176.7650  144.0270 C   0  0  0  0  0  0  0  0  0  0  0  0
  189.5340  177.2410  146.6010 C   0  0  0  0  0  0  0  0  0  0  0  0
  191.0940  176.4910  142.6670 C   0  0  0  0  0  2  0  0  0  0  0  0
  189.9820  176.5890  141.6360 C   0  0  0  0  0  2  0  0  0  0  0  0
  190.4150  177.4590  140.4680 C   0  0  2  0  0  3  0  0  0  0  0  0
  189.2920  178.0210  139.8620 O   0  0  0  0  0  1  0  0  0  0  0  0
  191.1860  176.6640  139.4650 C   0  0  0  0  0  0  0  0  0  0  0  0
  190.5660  175.6200  138.7920 O   0  0  0  0  0  0  0  0  0  0  0  0
  192.3890  176.9420  139.2150 O   0  0  0  0  0  1  0  0  0  0  0  0
  1 13  1  0  0  0  0
  2  1  2  0  0  0  0
  2 18  1  0  0  0  0
  4  7  1  0  0  0  0
  4  1  1  0  0  0  0
  5  8  1  0  0  0  0
  6  3  1  0  0  0  0
  7 14  1  0  0  0  0
  8  7  2  0  0  0  0
  9 18  1  0  0  0  0
  9 10  1  0  0  0  0
 11  2  1  0  0  0  0
 12  5  2  0  0  0  0
 12 16  1  0  0  0  0
 13  3  2  0  0  0  0
 14 13  1  0  0  0  0
 15  9  2  0  0  0  0
 16  4  2  0  0  0  0
 17 11  2  0  0  0  0
 17 15  1  0  0  0  0
 18  6  2  0  0  0  0
 19 17  1  0  0  0  0
 20 19  1  0  0  0  0
 21 22  1  6  0  0  0
 21 20  1  0  0  0  0
 23 21  1  0  0  0  0
 24 23  2  0  0  0  0
 25 23  1  0  0  0  0
M  END
>  <MODEL>
2

>  <REMARK>
 VINA RESULT:     -10.5      0.894      1.589
  Name = 
  4 active torsions:
  status: ('A' for Active; 'I' for Inactive)
    1  A    between atoms: C_2  and  C_21
    2  A    between atoms: C_6  and  C_15
    3  A    between atoms: C_6  and  C_23
    4  A    between atoms: C_15  and  C_21
                            x       y       z     vdW  Elec       q    Type
                         _______ _______ _______ _____ _____    ______ ____

>  <TORSDO>
F 4

$$$$
=
 OpenBabel11052412393D

 25 28  0  0  1  0  0  0  0  0999 V2000
  187.5760  177.8000  145.7090 C   0  0  0  0  0  0  0  0  0  0  0  0
  186.7320  178.0950  144.6180 C   0  0  0  0  0  0  0  0  0  0  0  0
  185.7650  178.2550  147.2820 C   0  0  0  0  0  3  0  0  0  0  0  0
  188.9300  177.4080  145.6930 C   0  0  0  0  0  0  0  0  0  0  0  0
  191.5870  176.6200  146.0610 C   0  0  0  0  0  3  0  0  0  0  0  0
  184.9200  178.5490  146.2080 C   0  0  0  0  0  3  0  0  0  0  0  0
  189.4460  177.2000  146.9700 C   0  0  0  0  0  0  0  0  0  0  0  0
  190.7650  176.8080  147.1820 C   0  0  0  0  0  3  0  0  0  0  0  0
  184.5270  178.7760  143.7990 C   0  0  0  0  0  0  0  0  0  0  0  0
  183.1060  179.1850  144.0120 C   0  0  0  0  0  1  0  0  0  0  0  0
  187.1830  178.0230  143.2930 C   0  0  0  0  0  3  0  0  0  0  0  0
  191.0820  176.8260  144.7640 C   0  0  0  0  0  3  0  0  0  0  0  0
  187.0770  177.8850  147.0100 C   0  0  0  0  0  0  0  0  0  0  0  0
  188.2670  177.4890  148.1370 S   0  0  0  0  0  0  0  0  0  0  0  0
  185.0040  178.6980  142.4880 C   0  0  0  0  0  3  0  0  0  0  0  0
  189.7480  177.2220  144.5740 C   0  0  0  0  0  3  0  0  0  0  0  0
  186.3230  178.3190  142.2330 C   0  0  0  0  0  0  0  0  0  0  0  0
  185.3840  178.4760  144.8760 C   0  0  0  0  0  0  0  0  0  0  0  0
  186.8230  178.2580  140.8320 C   0  0  0  0  0  2  0  0  0  0  0  0
  188.3160  178.5400  140.7980 C   0  0  0  0  0  2  0  0  0  0  0  0
  189.0360  177.4920  139.9660 C   0  0  2  0  0  3  0  0  0  0  0  0
  190.1590  177.0380  140.6570 O   0  0  0  0  0  1  0  0  0  0  0  0
  189.4480  178.0500  138.6420 C   0  0  0  0  0  0  0  0  0  0  0  0
  188.9860  179.2990  138.2490 O   0  0  0  0  0  1  0  0  0  0  0  0
  190.2210  177.4030  137.8880 O   0  0  0  0  0  0  0  0  0  0  0  0
  1 13  2  0  0  0  0
  2 18  1  0  0  0  0
  2  1  1  0  0  0  0
  4  1  1  0  0  0  0
  4  7  1  0  0  0  0
  5  8  1  0  0  0  0
  6  3  2  0  0  0  0
  7  8  2  0  0  0  0
  7 14  1  0  0  0  0
  9 10  1  0  0  0  0
  9 18  2  0  0  0  0
 11  2  2  0  0  0  0
 12  5  2  0  0  0  0
 13  3  1  0  0  0  0
 13 14  1  0  0  0  0
 15  9  1  0  0  0  0
 16 12  1  0  0  0  0
 16  4  2  0  0  0  0
 17 15  2  0  0  0  0
 17 11  1  0  0  0  0
 18  6  1  0  0  0  0
 19 17  1  0  0  0  0
 20 19  1  0  0  0  0
 21 22  1  1  0  0  0
 21 20  1  0  0  0  0
 23 21  1  0  0  0  0
 24 23  1  0  0  0  0
 25 23  2  0  0  0  0
M  END
>  <MODEL>
3

>  <REMARK>
 VINA RESULT:     -10.5      1.307      4.633
  Name = 
  4 active torsions:
  status: ('A' for Active; 'I' for Inactive)
    1  A    between atoms: C_2  and  C_21
    2  A    between atoms: C_6  and  C_15
    3  A    between atoms: C_6  and  C_23
    4  A    between atoms: C_15  and  C_21
                            x       y       z     vdW  Elec       q    Type
                         _______ _______ _______ _____ _____    ______ ____

>  <TORSDO>
F 4

$$$$
=
 OpenBabel11052412393D

 25 28  0  0  1  0  0  0  0  0999 V2000
  186.8310  177.9170  144.7240 C   0  0  0  0  0  0  0  0  0  0  0  0
  188.0520  177.6120  144.0870 C   0  0  0  0  0  0  0  0  0  0  0  0
  187.8330  177.5320  146.9160 C   0  0  0  0  0  3  0  0  0  0  0  0
  185.6020  178.2840  144.1390 C   0  0  0  0  0  0  0  0  0  0  0  0
  183.0250  179.0320  143.3560 C   0  0  0  0  0  3  0  0  0  0  0  0
  189.0490  177.2270  146.2950 C   0  0  0  0  0  3  0  0  0  0  0  0
  184.6030  178.5120  145.0830 C   0  0  0  0  0  0  0  0  0  0  0  0
  183.3110  178.8850  144.7200 C   0  0  0  0  0  3  0  0  0  0  0  0
  190.4040  176.9520  144.2710 C   0  0  0  0  0  0  0  0  0  0  0  0
  191.6120  176.5740  145.0630 C   0  0  0  0  0  1  0  0  0  0  0  0
  188.1880  177.6450  142.6930 C   0  0  0  0  0  3  0  0  0  0  0  0
  184.0210  178.8050  142.3890 C   0  0  0  0  0  3  0  0  0  0  0  0
  186.7480  177.8710  146.1170 C   0  0  0  0  0  0  0  0  0  0  0  0
  185.1960  178.2720  146.6400 S   0  0  0  0  0  0  0  0  0  0  0  0
  190.5100  176.9910  142.8780 C   0  0  0  0  0  3  0  0  0  0  0  0
  185.3170  178.4290  142.7780 C   0  0  0  0  0  3  0  0  0  0  0  0
  189.4110  177.3410  142.0910 C   0  0  0  0  0  0  0  0  0  0  0  0
  189.1760  177.2620  144.8900 C   0  0  0  0  0  0  0  0  0  0  0  0
  189.5340  177.3600  140.6070 C   0  0  0  0  0  2  0  0  0  0  0  0
  188.5570  178.3620  140.0160 C   0  0  0  0  0  2  0  0  0  0  0  0
  188.5130  178.2320  138.5030 C   0  0  2  0  0  3  0  0  0  0  0  0
  188.9640  179.4150  137.9190 O   0  0  0  0  0  1  0  0  0  0  0  0
  187.1270  177.9310  138.0310 C   0  0  0  0  0  0  0  0  0  0  0  0
  186.0660  178.7100  138.4740 O   0  0  0  0  0  1  0  0  0  0  0  0
  186.9160  176.9870  137.2250 O   0  0  0  0  0  0  0  0  0  0  0  0
  1 13  1  0  0  0  0
  2  1  2  0  0  0  0
  2 18  1  0  0  0  0
  4  1  1  0  0  0  0
  4  7  1  0  0  0  0
  5  8  1  0  0  0  0
  6  3  1  0  0  0  0
  7 14  1  0  0  0  0
  8  7  2  0  0  0  0
  9 18  1  0  0  0  0
  9 10  1  0  0  0  0
 11  2  1  0  0  0  0
 12 16  1  0  0  0  0
 12  5  2  0  0  0  0
 13 14  1  0  0  0  0
 13  3  2  0  0  0  0
 15  9  2  0  0  0  0
 16  4  2  0  0  0  0
 17 11  2  0  0  0  0
 17 15  1  0  0  0  0
 18  6  2  0  0  0  0
 19 17  1  0  0  0  0
 20 19  1  0  0  0  0
 21 22  1  6  0  0  0
 21 20  1  0  0  0  0
 23 24  1  0  0  0  0
 23 21  1  0  0  0  0
 25 23  2  0  0  0  0
M  END
>  <MODEL>
4

>  <REMARK>
 VINA RESULT:     -10.0      1.139      1.691
  Name = 
  4 active torsions:
  status: ('A' for Active; 'I' for Inactive)
    1  A    between atoms: C_2  and  C_21
    2  A    between atoms: C_6  and  C_15
    3  A    between atoms: C_6  and  C_23
    4  A    between atoms: C_15  and  C_21
                            x       y       z     vdW  Elec       q    Type
                         _______ _______ _______ _____ _____    ______ ____

>  <TORSDO>
F 4

$$$$
=
 OpenBabel11052412393D

 25 28  0  0  1  0  0  0  0  0999 V2000
  189.3840  177.4120  144.0900 C   0  0  0  0  0  0  0  0  0  0  0  0
  188.3740  177.6960  145.0340 C   0  0  0  0  0  0  0  0  0  0  0  0
  190.9490  176.8480  145.8770 C   0  0  0  0  0  3  0  0  0  0  0  0
  189.3190  177.4850  142.6840 C   0  0  0  0  0  0  0  0  0  0  0  0
  189.5740  177.5090  139.9000 C   0  0  0  0  0  3  0  0  0  0  0  0
  189.9550  177.1280  146.8210 C   0  0  0  0  0  3  0  0  0  0  0  0
  190.5180  177.1280  142.0700 C   0  0  0  0  0  0  0  0  0  0  0  0
  190.6720  177.1310  140.6860 C   0  0  0  0  0  3  0  0  0  0  0  0
  187.6750  177.8340  147.3770 C   0  0  0  0  0  0  0  0  0  0  0  0
  187.9300  177.7030  148.8420 C   0  0  0  0  0  1  0  0  0  0  0  0
  187.0950  178.1150  144.6450 C   0  0  0  0  0  3  0  0  0  0  0  0
  188.3570  177.8730  140.5030 C   0  0  0  0  0  3  0  0  0  0  0  0
  190.6420  176.9950  144.5300 C   0  0  0  0  0  0  0  0  0  0  0  0
  191.6730  176.7180  143.2250 S   0  0  0  0  0  0  0  0  0  0  0  0
  186.4080  178.2520  146.9600 C   0  0  0  0  0  3  0  0  0  0  0  0
  188.2230  177.8620  141.9010 C   0  0  0  0  0  3  0  0  0  0  0  0
  186.1150  178.3880  145.6020 C   0  0  0  0  0  0  0  0  0  0  0  0
  188.6700  177.5510  146.4200 C   0  0  0  0  0  0  0  0  0  0  0  0
  184.7670  178.8520  145.1740 C   0  0  0  0  0  2  0  0  0  0  0  0
  184.8790  179.6750  143.9010 C   0  0  0  0  0  2  0  0  0  0  0  0
  183.7190  179.3690  142.9670 C   0  0  2  0  0  3  0  0  0  0  0  0
  182.8060  178.5360  143.6140 O   0  0  0  0  0  1  0  0  0  0  0  0
  184.2000  178.7150  141.7130 C   0  0  0  0  0  0  0  0  0  0  0  0
  185.1050  179.3780  140.8940 O   0  0  0  0  0  0  0  0  0  0  0  0
  183.8030  177.5610  141.4000 O   0  0  0  0  0  1  0  0  0  0  0  0
  1 13  1  0  0  0  0
  1  2  2  0  0  0  0
  2 18  1  0  0  0  0
  3  6  1  0  0  0  0
  4  1  1  0  0  0  0
  5 12  2  0  0  0  0
  5  8  1  0  0  0  0
  7  4  1  0  0  0  0
  7 14  1  0  0  0  0
  8  7  2  0  0  0  0
  9 10  1  0  0  0  0
 11  2  1  0  0  0  0
 11 17  2  0  0  0  0
 12 16  1  0  0  0  0
 13  3  2  0  0  0  0
 14 13  1  0  0  0  0
 15  9  2  0  0  0  0
 16  4  2  0  0  0  0
 17 15  1  0  0  0  0
 18  6  2  0  0  0  0
 18  9  1  0  0  0  0
 19 17  1  0  0  0  0
 20 19  1  0  0  0  0
 21 22  1  1  0  0  0
 21 20  1  0  0  0  0
 23 21  1  0  0  0  0
 24 23  2  0  0  0  0
 25 23  1  0  0  0  0
M  END
>  <MODEL>
5

>  <REMARK>
 VINA RESULT:      -9.9      2.370      5.148
  Name = 
  4 active torsions:
  status: ('A' for Active; 'I' for Inactive)
    1  A    between atoms: C_2  and  C_21
    2  A    between atoms: C_6  and  C_15
    3  A    between atoms: C_6  and  C_23
    4  A    between atoms: C_15  and  C_21
                            x       y       z     vdW  Elec       q    Type
                         _______ _______ _______ _____ _____    ______ ____

>  <TORSDO>
F 4

$$$$
=
 OpenBabel11052412393D

 25 28  0  0  1  0  0  0  0  0999 V2000
  187.3150  178.1440  141.6510 C   0  0  0  0  0  0  0  0  0  0  0  0
  186.7220  178.1930  142.9300 C   0  0  0  0  0  0  0  0  0  0  0  0
  185.2150  178.8280  140.6110 C   0  0  0  0  0  3  0  0  0  0  0  0
  188.6390  177.8050  141.3070 C   0  0  0  0  0  0  0  0  0  0  0  0
  191.1520  177.1970  140.2450 C   0  0  0  0  0  3  0  0  0  0  0  0
  184.6180  178.8790  141.8740 C   0  0  0  0  0  3  0  0  0  0  0  0
  188.8720  177.8650  139.9340 C   0  0  0  0  0  0  0  0  0  0  0  0
  190.1140  177.5680  139.3790 C   0  0  0  0  0  3  0  0  0  0  0  0
  184.7430  178.6170  144.3080 C   0  0  0  0  0  0  0  0  0  0  0  0
  183.3090  178.9980  144.4800 C   0  0  0  0  0  1  0  0  0  0  0  0
  187.4430  177.8850  144.0910 C   0  0  0  0  0  3  0  0  0  0  0  0
  190.9350  177.1300  141.6330 C   0  0  0  0  0  3  0  0  0  0  0  0
  186.5530  178.4620  140.5250 C   0  0  0  0  0  0  0  0  0  0  0  0
  187.4750  178.3330  139.1190 S   0  0  0  0  0  0  0  0  0  0  0  0
  185.4860  178.3030  145.4490 C   0  0  0  0  0  3  0  0  0  0  0  0
  189.6740  177.4350  142.1710 C   0  0  0  0  0  3  0  0  0  0  0  0
  186.8310  177.9440  145.3450 C   0  0  0  0  0  0  0  0  0  0  0  0
  185.3520  178.5660  143.0380 C   0  0  0  0  0  0  0  0  0  0  0  0
  187.6050  177.5940  146.5670 C   0  0  0  0  0  2  0  0  0  0  0  0
  189.0190  177.1860  146.1910 C   0  0  0  0  0  2  0  0  0  0  0  0
  189.8400  176.9000  147.4370 C   0  0  2  0  0  3  0  0  0  0  0  0
  189.6710  177.9360  148.3550 O   0  0  0  0  0  1  0  0  0  0  0  0
  191.2880  176.7520  147.1020 C   0  0  0  0  0  0  0  0  0  0  0  0
  191.6730  176.5600  145.7810 O   0  0  0  0  0  0  0  0  0  0  0  0
  192.1640  176.8140  148.0050 O   0  0  0  0  0  1  0  0  0  0  0  0
  1  2  2  0  0  0  0
  2 18  1  0  0  0  0
  2 11  1  0  0  0  0
  3  6  1  0  0  0  0
  4  1  1  0  0  0  0
  4 16  1  0  0  0  0
  5 12  1  0  0  0  0
  6 18  2  0  0  0  0
  7  4  2  0  0  0  0
  8  7  1  0  0  0  0
  8  5  2  0  0  0  0
  9 10  1  0  0  0  0
  9 15  2  0  0  0  0
 11 17  2  0  0  0  0
 12 16  2  0  0  0  0
 13  3  2  0  0  0  0
 13  1  1  0  0  0  0
 14  7  1  0  0  0  0
 14 13  1  0  0  0  0
 17 15  1  0  0  0  0
 17 19  1  0  0  0  0
 18  9  1  0  0  0  0
 20 19  1  0  0  0  0
 20 21  1  0  0  0  0
 21 22  1  1  0  0  0
 23 21  1  0  0  0  0
 23 25  1  0  0  0  0
 24 23  2  0  0  0  0
M  END
>  <MODEL>
6

>  <REMARK>
 VINA RESULT:      -9.6      3.495      6.728
  Name = 
  4 active torsions:
  status: ('A' for Active; 'I' for Inactive)
    1  A    between atoms: C_2  and  C_21
    2  A    between atoms: C_6  and  C_15
    3  A    between atoms: C_6  and  C_23
    4  A    between atoms: C_15  and  C_21
                            x       y       z     vdW  Elec       q    Type
                         _______ _______ _______ _____ _____    ______ ____

>  <TORSDO>
F 4

$$$$
=
 OpenBabel11052412393D

 25 28  0  0  1  0  0  0  0  0999 V2000
  189.4770  177.4330  144.1770 C   0  0  0  0  0  0  0  0  0  0  0  0
  188.8720  177.7140  142.9350 C   0  0  0  0  0  0  0  0  0  0  0  0
  191.5830  176.8840  143.0710 C   0  0  0  0  0  3  0  0  0  0  0  0
  188.9120  177.5030  145.4670 C   0  0  0  0  0  0  0  0  0  0  0  0
  188.1500  177.5210  148.1560 C   0  0  0  0  0  3  0  0  0  0  0  0
  190.9920  177.1590  141.8340 C   0  0  0  0  0  3  0  0  0  0  0  0
  189.8130  177.1520  146.4700 C   0  0  0  0  0  0  0  0  0  0  0  0
  189.4600  177.1530  147.8170 C   0  0  0  0  0  3  0  0  0  0  0  0
  189.0560  177.8450  140.4960 C   0  0  0  0  0  0  0  0  0  0  0  0
  189.8190  177.7090  139.2190 C   0  0  0  0  0  1  0  0  0  0  0  0
  187.5360  178.1250  142.8380 C   0  0  0  0  0  3  0  0  0  0  0  0
  187.2280  177.8780  147.1570 C   0  0  0  0  0  3  0  0  0  0  0  0
  190.8120  177.0270  144.2190 C   0  0  0  0  0  0  0  0  0  0  0  0
  191.3080  176.7530  145.8070 S   0  0  0  0  0  0  0  0  0  0  0  0
  187.7220  178.2530  140.4300 C   0  0  0  0  0  3  0  0  0  0  0  0
  187.6050  177.8700  145.8040 C   0  0  0  0  0  3  0  0  0  0  0  0
  186.9640  178.3980  141.5940 C   0  0  0  0  0  0  0  0  0  0  0  0
  189.6450  177.5720  141.7470 C   0  0  0  0  0  0  0  0  0  0  0  0
  185.5380  178.8150  141.5070 C   0  0  0  0  0  2  0  0  0  0  0  0
  184.7770  178.3320  142.7310 C   0  0  0  0  0  2  0  0  0  0  0  0
  184.1660  179.5080  143.4750 C   0  0  2  0  0  3  0  0  0  0  0  0
  185.1820  180.3270  143.9690 O   0  0  0  0  0  1  0  0  0  0  0  0
  183.3030  179.0390  144.6000 C   0  0  0  0  0  0  0  0  0  0  0  0
  182.0010  178.6280  144.3430 O   0  0  0  0  0  0  0  0  0  0  0  0
  183.7500  178.9990  145.7770 O   0  0  0  0  0  1  0  0  0  0  0  0
  1 13  2  0  0  0  0
  1  4  1  0  0  0  0
  2  1  1  0  0  0  0
  3 13  1  0  0  0  0
  4 16  2  0  0  0  0
  4  7  1  0  0  0  0
  6  3  2  0  0  0  0
  7  8  2  0  0  0  0
  8  5  1  0  0  0  0
  9 18  1  0  0  0  0
 10  9  1  0  0  0  0
 11  2  1  0  0  0  0
 12  5  2  0  0  0  0
 13 14  1  0  0  0  0
 14  7  1  0  0  0  0
 15  9  2  0  0  0  0
 15 17  1  0  0  0  0
 16 12  1  0  0  0  0
 17 11  2  0  0  0  0
 18  6  1  0  0  0  0
 18  2  2  0  0  0  0
 19 17  1  0  0  0  0
 19 20  1  0  0  0  0
 20 21  1  0  0  0  0
 21 22  1  1  0  0  0
 21 23  1  0  0  0  0
 23 25  1  0  0  0  0
 24 23  2  0  0  0  0
M  END
>  <MODEL>
7

>  <REMARK>
 VINA RESULT:      -9.6      2.810      5.779
  Name = 
  4 active torsions:
  status: ('A' for Active; 'I' for Inactive)
    1  A    between atoms: C_2  and  C_21
    2  A    between atoms: C_6  and  C_15
    3  A    between atoms: C_6  and  C_23
    4  A    between atoms: C_15  and  C_21
                            x       y       z     vdW  Elec       q    Type
                         _______ _______ _______ _____ _____    ______ ____

>  <TORSDO>
F 4

$$$$
=
 OpenBabel11052412393D

 25 28  0  0  1  0  0  0  0  0999 V2000
  186.8490  177.9300  144.9120 C   0  0  0  0  0  0  0  0  0  0  0  0
  188.0380  177.5430  144.2600 C   0  0  0  0  0  0  0  0  0  0  0  0
  187.9310  177.7250  147.0910 C   0  0  0  0  0  3  0  0  0  0  0  0
  185.6040  178.2690  144.3440 C   0  0  0  0  0  0  0  0  0  0  0  0
  183.0110  178.9970  143.5940 C   0  0  0  0  0  3  0  0  0  0  0  0
  189.1150  177.3400  146.4540 C   0  0  0  0  0  3  0  0  0  0  0  0
  184.6470  178.6030  145.3000 C   0  0  0  0  0  0  0  0  0  0  0  0
  183.3500  178.9700  144.9540 C   0  0  0  0  0  3  0  0  0  0  0  0
  190.3830  176.8520  144.4140 C   0  0  0  0  0  0  0  0  0  0  0  0
  191.6150  176.5230  145.1900 C   0  0  0  0  0  1  0  0  0  0  0  0
  188.1190  177.4460  142.8650 C   0  0  0  0  0  3  0  0  0  0  0  0
  183.9640  178.6620  142.6150 C   0  0  0  0  0  3  0  0  0  0  0  0
  186.8210  178.0130  146.3060 C   0  0  0  0  0  0  0  0  0  0  0  0
  185.2990  178.4930  146.8490 S   0  0  0  0  0  0  0  0  0  0  0  0
  190.4330  176.7620  143.0200 C   0  0  0  0  0  3  0  0  0  0  0  0
  185.2680  178.2960  142.9860 C   0  0  0  0  0  3  0  0  0  0  0  0
  189.3110  177.0620  142.2460 C   0  0  0  0  0  0  0  0  0  0  0  0
  189.1860  177.2430  145.0480 C   0  0  0  0  0  0  0  0  0  0  0  0
  189.3740  176.9430  140.7640 C   0  0  0  0  0  2  0  0  0  0  0  0
  190.7910  177.2040  140.2800 C   0  0  0  0  0  2  0  0  0  0  0  0
  191.0880  176.3800  139.0380 C   0  0  2  0  0  3  0  0  0  0  0  0
  192.3590  176.6990  138.5590 O   0  0  0  0  0  1  0  0  0  0  0  0
  190.0690  176.6300  137.9740 C   0  0  0  0  0  0  0  0  0  0  0  0
  189.2360  175.5980  137.5630 O   0  0  0  0  0  1  0  0  0  0  0  0
  189.9510  177.7720  137.4570 O   0  0  0  0  0  0  0  0  0  0  0  0
  1 13  1  0  0  0  0
  2  1  2  0  0  0  0
  2 18  1  0  0  0  0
  4  1  1  0  0  0  0
  4  7  1  0  0  0  0
  5  8  1  0  0  0  0
  6  3  1  0  0  0  0
  7 14  1  0  0  0  0
  8  7  2  0  0  0  0
  9 18  1  0  0  0  0
  9 10  1  0  0  0  0
 11  2  1  0  0  0  0
 12 16  1  0  0  0  0
 12  5  2  0  0  0  0
 13 14  1  0  0  0  0
 13  3  2  0  0  0  0
 15  9  2  0  0  0  0
 16  4  2  0  0  0  0
 17 11  2  0  0  0  0
 17 15  1  0  0  0  0
 18  6  2  0  0  0  0
 19 17  1  0  0  0  0
 20 19  1  0  0  0  0
 21 22  1  6  0  0  0
 21 20  1  0  0  0  0
 23 21  1  0  0  0  0
 24 23  1  0  0  0  0
 25 23  2  0  0  0  0
M  END
>  <MODEL>
8

>  <REMARK>
 VINA RESULT:      -9.6      1.266      1.664
  Name = 
  4 active torsions:
  status: ('A' for Active; 'I' for Inactive)
    1  A    between atoms: C_2  and  C_21
    2  A    between atoms: C_6  and  C_15
    3  A    between atoms: C_6  and  C_23
    4  A    between atoms: C_15  and  C_21
                            x       y       z     vdW  Elec       q    Type
                         _______ _______ _______ _____ _____    ______ ____

>  <TORSDO>
F 4

$$$$
=
 OpenBabel11052412393D

 25 28  0  0  1  0  0  0  0  0999 V2000
  188.0350  177.7010  145.1070 C   0  0  0  0  0  0  0  0  0  0  0  0
  187.6350  177.8990  143.7690 C   0  0  0  0  0  0  0  0  0  0  0  0
  185.7910  178.2470  145.8990 C   0  0  0  0  0  3  0  0  0  0  0  0
  189.3020  177.3290  145.6010 C   0  0  0  0  0  0  0  0  0  0  0  0
  191.6460  176.6110  146.9440 C   0  0  0  0  0  3  0  0  0  0  0  0
  185.3840  178.4460  144.5760 C   0  0  0  0  0  3  0  0  0  0  0  0
  189.3300  177.2270  146.9900 C   0  0  0  0  0  0  0  0  0  0  0  0
  190.4840  176.8710  147.6840 C   0  0  0  0  0  3  0  0  0  0  0  0
  185.8710  178.4830  142.1740 C   0  0  0  0  0  0  0  0  0  0  0  0
  184.4720  178.8850  141.8380 C   0  0  0  0  0  1  0  0  0  0  0  0
  188.5240  177.7330  142.6990 C   0  0  0  0  0  3  0  0  0  0  0  0
  191.6350  176.7100  145.5410 C   0  0  0  0  0  3  0  0  0  0  0  0
  187.1090  177.8770  146.1380 C   0  0  0  0  0  0  0  0  0  0  0  0
  187.8180  177.5860  147.6390 S   0  0  0  0  0  0  0  0  0  0  0  0
  186.7800  178.3120  141.1260 C   0  0  0  0  0  3  0  0  0  0  0  0
  190.4600  177.0700  144.8620 C   0  0  0  0  0  3  0  0  0  0  0  0
  188.0990  177.9340  141.3840 C   0  0  0  0  0  0  0  0  0  0  0  0
  186.2880  178.2780  143.5040 C   0  0  0  0  0  0  0  0  0  0  0  0
  189.0610  177.7740  140.2590 C   0  0  0  0  0  2  0  0  0  0  0  0
  188.3490  177.2160  139.0390 C   0  0  0  0  0  2  0  0  0  0  0  0
  188.5050  178.1570  137.8560 C   0  0  2  0  0  3  0  0  0  0  0  0
  189.0500  179.3650  138.2890 O   0  0  0  0  0  1  0  0  0  0  0  0
  187.1900  178.4040  137.1920 C   0  0  0  0  0  0  0  0  0  0  0  0
  186.1670  179.0230  137.8990 O   0  0  0  0  0  1  0  0  0  0  0  0
  187.0060  178.0700  135.9920 O   0  0  0  0  0  0  0  0  0  0  0  0
  1  4  1  0  0  0  0
  1 13  2  0  0  0  0
  2  1  1  0  0  0  0
  3 13  1  0  0  0  0
  4  7  1  0  0  0  0
  5  8  1  0  0  0  0
  6  3  2  0  0  0  0
  7 14  1  0  0  0  0
  7  8  2  0  0  0  0
  9 18  2  0  0  0  0
 10  9  1  0  0  0  0
 11  2  2  0  0  0  0
 12  5  2  0  0  0  0
 13 14  1  0  0  0  0
 15 17  2  0  0  0  0
 15  9  1  0  0  0  0
 16 12  1  0  0  0  0
 16  4  2  0  0  0  0
 17 11  1  0  0  0  0
 18  2  1  0  0  0  0
 18  6  1  0  0  0  0
 19 17  1  0  0  0  0
 20 19  1  0  0  0  0
 21 22  1  1  0  0  0
 21 20  1  0  0  0  0
 23 21  1  0  0  0  0
 23 24  1  0  0  0  0
 25 23  2  0  0  0  0
M  END
>  <MODEL>
9

>  <REMARK>
 VINA RESULT:      -9.4      1.546      4.683
  Name = 
  4 active torsions:
  status: ('A' for Active; 'I' for Inactive)
    1  A    between atoms: C_2  and  C_21
    2  A    between atoms: C_6  and  C_15
    3  A    between atoms: C_6  and  C_23
    4  A    between atoms: C_15  and  C_21
                            x       y       z     vdW  Elec       q    Type
                         _______ _______ _______ _____ _____    ______ ____

>  <TORSDO>
F 4

$$$$
