=
 OpenBabel11052412563D

 31 35  0  0  1  0  0  0  0  0999 V2000
  189.2960  177.6440  147.2500 C   0  0  0  0  0  0  0  0  0  0  0  0
  187.7780  177.8380  143.7430 C   0  0  0  0  0  0  0  0  0  0  0  0
  186.4090  178.2110  143.9170 C   0  0  0  0  0  0  0  0  0  0  0  0
  184.5780  178.4260  145.7970 C   0  0  0  0  0  3  0  0  0  0  0  0
  188.6870  177.5060  144.8930 C   0  0  0  0  0  0  0  0  0  0  0  0
  190.4730  176.9400  146.9980 C   0  0  0  0  0  3  0  0  0  0  0  0
  185.8600  178.1400  145.2390 N   0  0  0  0  0  2  0  0  0  0  0  0
  189.7710  177.3700  142.2290 C   0  0  2  0  0  3  0  0  0  0  0  0
  188.9230  178.1710  148.8760 Cl  0  0  0  0  0  0  0  0  0  0  0  0
  186.2450  178.5780  141.5200 C   0  0  0  0  0  3  0  0  0  0  0  0
  183.5070  178.8620  145.1510 C   0  0  0  0  0  3  0  0  0  0  0  0
  190.2360  176.3540  143.2710 C   0  0  0  0  0  2  0  0  0  0  0  0
  188.3240  177.7700  142.4380 C   0  0  0  0  0  0  0  0  0  0  0  0
  188.4150  177.9290  146.2050 C   0  0  0  0  0  3  0  0  0  0  0  0
  183.3590  179.1520  143.7300 C   0  0  0  0  0  3  0  0  0  0  0  0
  189.8970  176.8230  144.6480 C   0  0  0  0  0  0  0  0  0  0  0  0
  190.7720  176.5290  145.6980 C   0  0  0  0  0  3  0  0  0  0  0  0
  187.5590  178.1750  141.3470 C   0  0  0  0  0  3  0  0  0  0  0  0
  185.6500  178.5920  142.7810 C   0  0  0  0  0  0  0  0  0  0  0  0
  184.2510  179.0360  142.7570 C   0  0  0  0  0  3  0  0  0  0  0  0
  192.1760  177.7410  140.6390 O   0  0  0  0  0  0  0  0  0  0  0  0
  191.2270  177.0790  140.1410 C   0  0  0  0  0  0  0  0  0  0  0  0
  190.0220  176.8560  140.8820 N   0  0  0  0  0  2  0  0  0  0  0  0
  191.3490  176.5440  138.7560 C   0  0  0  0  0  2  0  0  0  0  0  0
  188.4270  177.4880  136.4480 C   0  0  1  0  0  3  0  0  0  0  0  0
  188.6470  175.1170  136.3540 C   0  0  0  0  0  2  0  0  0  0  0  0
  187.4400  178.6330  136.5150 C   0  0  0  0  0  1  0  0  0  0  0  0
  189.5210  177.6890  137.5030 C   0  0  0  0  0  2  0  0  0  0  0  0
  189.9980  175.2500  137.0780 C   0  0  0  0  0  2  0  0  0  0  0  0
  189.9780  176.3670  138.1250 C   0  0  1  0  0  3  0  0  0  0  0  0
  187.7290  176.2210  136.6530 N   0  0  0  0  0  2  0  0  0  0  0  0
  1  9  1  0  0  0  0
  2  3  1  0  0  0  0
  2  5  1  0  0  0  0
  3  7  1  0  0  0  0
  5 14  1  0  0  0  0
  6  1  1  0  0  0  0
  7  4  1  0  0  0  0
  8 23  1  6  0  0  0
  8 13  1  0  0  0  0
  8 12  1  0  0  0  0
 10 19  1  0  0  0  0
 11  4  2  0  0  0  0
 12 16  1  0  0  0  0
 13  2  2  0  0  0  0
 14  1  2  0  0  0  0
 15 11  1  0  0  0  0
 16  5  2  0  0  0  0
 16 17  1  0  0  0  0
 17  6  2  0  0  0  0
 18 10  2  0  0  0  0
 18 13  1  0  0  0  0
 19  3  2  0  0  0  0
 20 19  1  0  0  0  0
 20 15  2  0  0  0  0
 22 21  2  0  0  0  0
 22 23  1  0  0  0  0
 24 22  1  0  0  0  0
 25 27  1  1  0  0  0
 25 31  1  0  0  0  0
 25 28  1  0  0  0  0
 26 31  1  0  0  0  0
 26 29  1  0  0  0  0
 28 30  1  0  0  0  0
 29 30  1  0  0  0  0
 30 24  1  6  0  0  0
M  END
>  <MODEL>
1

>  <REMARK>
 VINA RESULT:     -11.0      0.000      0.000
  Name = 
  3 active torsions:
  status: ('A' for Active; 'I' for Inactive)
    1  A    between atoms: C_3  and  C_9
    2  A    between atoms: C_3  and  C_22
    3  A    between atoms: C_15  and  N_23
                            x       y       z     vdW  Elec       q    Type
                         _______ _______ _______ _____ _____    ______ ____

>  <TORSDO>
F 3

$$$$
=
 OpenBabel11052412563D

 31 35  0  0  1  0  0  0  0  0999 V2000
  190.7630  176.9740  145.8790 C   0  0  0  0  0  0  0  0  0  0  0  0
  187.9570  177.6740  143.3730 C   0  0  0  0  0  0  0  0  0  0  0  0
  186.7960  177.9860  144.1460 C   0  0  0  0  0  0  0  0  0  0  0  0
  185.9010  177.8680  146.6190 C   0  0  0  0  0  3  0  0  0  0  0  0
  189.2400  177.1880  143.9860 C   0  0  0  0  0  0  0  0  0  0  0  0
  191.7020  176.3420  145.0650 C   0  0  0  0  0  3  0  0  0  0  0  0
  186.8310  177.6990  145.5500 N   0  0  0  0  0  2  0  0  0  0  0  0
  189.1370  177.4880  141.1250 C   0  0  2  0  0  3  0  0  0  0  0  0
  191.1080  177.2360  147.5750 Cl  0  0  0  0  0  0  0  0  0  0  0  0
  185.6850  178.7140  142.1110 C   0  0  0  0  0  3  0  0  0  0  0  0
  184.6800  178.3750  146.5420 C   0  0  0  0  0  3  0  0  0  0  0  0
  189.9420  176.3340  141.7200 C   0  0  0  0  0  2  0  0  0  0  0  0
  187.9210  177.8190  141.9650 C   0  0  0  0  0  0  0  0  0  0  0  0
  189.5460  177.3980  145.3420 C   0  0  0  0  0  3  0  0  0  0  0  0
  183.9790  178.8780  145.3670 C   0  0  0  0  0  3  0  0  0  0  0  0
  190.2150  176.5770  143.1680 C   0  0  0  0  0  0  0  0  0  0  0  0
  191.4280  176.1440  143.7110 C   0  0  0  0  0  3  0  0  0  0  0  0
  186.7950  178.3720  141.3560 C   0  0  0  0  0  3  0  0  0  0  0  0
  185.6570  178.5210  143.4910 C   0  0  0  0  0  0  0  0  0  0  0  0
  184.3910  178.9330  144.1080 C   0  0  0  0  0  3  0  0  0  0  0  0
  189.1470  179.3520  138.8930 O   0  0  0  0  0  0  0  0  0  0  0  0
  188.8100  178.1580  138.6740 C   0  0  0  0  0  0  0  0  0  0  0  0
  188.7950  177.1940  139.7330 N   0  0  0  0  0  2  0  0  0  0  0  0
  188.3940  177.7500  137.3020 C   0  0  0  0  0  2  0  0  0  0  0  0
  184.5660  177.4410  137.3350 C   0  0  1  0  0  3  0  0  0  0  0  0
  185.3930  175.6710  135.9690 C   0  0  0  0  0  2  0  0  0  0  0  0
  183.5500  177.8090  138.3950 C   0  0  0  0  0  1  0  0  0  0  0  0
  185.9490  177.9600  137.7450 C   0  0  0  0  0  2  0  0  0  0  0  0
  186.7730  176.3520  135.9870 C   0  0  0  0  0  2  0  0  0  0  0  0
  187.0720  177.0020  137.3400 C   0  0  1  0  0  3  0  0  0  0  0  0
  184.5850  175.9920  137.1510 N   0  0  0  0  0  2  0  0  0  0  0  0
  1  9  1  0  0  0  0
  2  5  1  0  0  0  0
  2  3  1  0  0  0  0
  3  7  1  0  0  0  0
  5 14  2  0  0  0  0
  6  1  2  0  0  0  0
  7  4  1  0  0  0  0
  8 23  1  6  0  0  0
  8 12  1  0  0  0  0
  8 13  1  0  0  0  0
 10 19  1  0  0  0  0
 11  4  2  0  0  0  0
 12 16  1  0  0  0  0
 13  2  2  0  0  0  0
 14  1  1  0  0  0  0
 15 11  1  0  0  0  0
 16 17  2  0  0  0  0
 16  5  1  0  0  0  0
 17  6  1  0  0  0  0
 18 13  1  0  0  0  0
 18 10  2  0  0  0  0
 19 20  1  0  0  0  0
 19  3  2  0  0  0  0
 20 15  2  0  0  0  0
 22 21  2  0  0  0  0
 22 23  1  0  0  0  0
 24 22  1  0  0  0  0
 25 28  1  0  0  0  0
 25 27  1  1  0  0  0
 26 29  1  0  0  0  0
 26 31  1  0  0  0  0
 29 30  1  0  0  0  0
 30 24  1  6  0  0  0
 30 28  1  0  0  0  0
 31 25  1  0  0  0  0
M  END
>  <MODEL>
2

>  <REMARK>
 VINA RESULT:     -10.5      1.840      2.395
  Name = 
  3 active torsions:
  status: ('A' for Active; 'I' for Inactive)
    1  A    between atoms: C_3  and  C_9
    2  A    between atoms: C_3  and  C_22
    3  A    between atoms: C_15  and  N_23
                            x       y       z     vdW  Elec       q    Type
                         _______ _______ _______ _____ _____    ______ ____

>  <TORSDO>
F 3

$$$$
=
 OpenBabel11052412563D

 31 35  0  0  1  0  0  0  0  0999 V2000
  189.7800  177.5310  146.8780 C   0  0  0  0  0  0  0  0  0  0  0  0
  188.0530  177.7710  143.4710 C   0  0  0  0  0  0  0  0  0  0  0  0
  186.6980  178.1440  143.7320 C   0  0  0  0  0  0  0  0  0  0  0  0
  184.9840  178.3370  145.7210 C   0  0  0  0  0  3  0  0  0  0  0  0
  189.0290  177.4230  144.5600 C   0  0  0  0  0  0  0  0  0  0  0  0
  190.9370  176.8280  146.5460 C   0  0  0  0  0  3  0  0  0  0  0  0
  186.2290  178.0570  145.0840 N   0  0  0  0  0  2  0  0  0  0  0  0
  189.9500  177.3190  141.8340 C   0  0  2  0  0  3  0  0  0  0  0  0
  189.5060  178.0380  148.5300 Cl  0  0  0  0  0  0  0  0  0  0  0  0
  186.3910  178.5410  141.3540 C   0  0  0  0  0  3  0  0  0  0  0  0
  183.8770  178.7830  145.1460 C   0  0  0  0  0  3  0  0  0  0  0  0
  190.4760  176.2900  142.8330 C   0  0  0  0  0  2  0  0  0  0  0  0
  188.5200  177.7180  142.1350 C   0  0  0  0  0  0  0  0  0  0  0  0
  188.8380  177.8310  145.8910 C   0  0  0  0  0  3  0  0  0  0  0  0
  183.6440  179.0910  143.7410 C   0  0  0  0  0  3  0  0  0  0  0  0
  190.2210  176.7420  144.2340 C   0  0  0  0  0  0  0  0  0  0  0  0
  191.1570  176.4330  145.2260 C   0  0  0  0  0  3  0  0  0  0  0  0
  187.6910  178.1390  141.0970 C   0  0  0  0  0  3  0  0  0  0  0  0
  185.8730  178.5400  142.6480 C   0  0  0  0  0  0  0  0  0  0  0  0
  184.4770  178.9860  142.7140 C   0  0  0  0  0  3  0  0  0  0  0  0
  192.3130  177.5820  140.1600 O   0  0  0  0  0  0  0  0  0  0  0  0
  191.3070  176.9890  139.6860 C   0  0  0  0  0  0  0  0  0  0  0  0
  190.1190  176.8220  140.4680 N   0  0  0  0  0  2  0  0  0  0  0  0
  191.3440  176.4800  138.2860 C   0  0  0  0  0  2  0  0  0  0  0  0
  194.3430  174.2420  137.4190 C   0  0  1  0  0  3  0  0  0  0  0  0
  194.3580  176.0530  135.8700 C   0  0  0  0  0  2  0  0  0  0  0  0
  195.2080  173.3600  138.2940 C   0  0  0  0  0  1  0  0  0  0  0  0
  193.1510  174.7630  138.2320 C   0  0  0  0  0  2  0  0  0  0  0  0
  192.9450  176.4280  136.3500 C   0  0  0  0  0  2  0  0  0  0  0  0
  192.7730  176.1970  137.8530 C   0  0  1  0  0  3  0  0  0  0  0  0
  195.1390  175.3480  136.8920 N   0  0  0  0  0  2  0  0  0  0  0  0
  1  9  1  0  0  0  0
  2  3  1  0  0  0  0
  2  5  1  0  0  0  0
  3  7  1  0  0  0  0
  5 14  1  0  0  0  0
  6  1  1  0  0  0  0
  7  4  1  0  0  0  0
  8 23  1  6  0  0  0
  8 13  1  0  0  0  0
  8 12  1  0  0  0  0
 10 19  1  0  0  0  0
 11  4  2  0  0  0  0
 12 16  1  0  0  0  0
 13  2  2  0  0  0  0
 14  1  2  0  0  0  0
 15 11  1  0  0  0  0
 16  5  2  0  0  0  0
 16 17  1  0  0  0  0
 17  6  2  0  0  0  0
 18 10  2  0  0  0  0
 18 13  1  0  0  0  0
 19 20  1  0  0  0  0
 19  3  2  0  0  0  0
 20 15  2  0  0  0  0
 22 21  2  0  0  0  0
 22 23  1  0  0  0  0
 24 22  1  0  0  0  0
 25 28  1  0  0  0  0
 25 27  1  1  0  0  0
 26 29  1  0  0  0  0
 26 31  1  0  0  0  0
 29 30  1  0  0  0  0
 30 28  1  0  0  0  0
 30 24  1  6  0  0  0
 31 25  1  0  0  0  0
M  END
>  <MODEL>
3

>  <REMARK>
 VINA RESULT:     -10.3      2.019      2.968
  Name = 
  3 active torsions:
  status: ('A' for Active; 'I' for Inactive)
    1  A    between atoms: C_3  and  C_9
    2  A    between atoms: C_3  and  C_22
    3  A    between atoms: C_15  and  N_23
                            x       y       z     vdW  Elec       q    Type
                         _______ _______ _______ _____ _____    ______ ____

>  <TORSDO>
F 3

$$$$
=
 OpenBabel11052412563D

 31 35  0  0  1  0  0  0  0  0999 V2000
  184.9850  178.5410  144.1340 C   0  0  0  0  0  0  0  0  0  0  0  0
  188.6100  177.5240  143.4520 C   0  0  0  0  0  0  0  0  0  0  0  0
  189.2320  177.3680  144.7290 C   0  0  0  0  0  0  0  0  0  0  0  0
  188.8190  177.8980  147.2750 C   0  0  0  0  0  3  0  0  0  0  0  0
  187.2200  178.0690  143.2800 C   0  0  0  0  0  0  0  0  0  0  0  0
  184.5950  179.0120  142.8800 C   0  0  0  0  0  3  0  0  0  0  0  0
  188.5360  177.8720  145.8770 N   0  0  0  0  0  2  0  0  0  0  0  0
  188.6810  177.3230  140.9140 C   0  0  2  0  0  3  0  0  0  0  0  0
  183.8470  178.5420  145.4630 Cl  0  0  0  0  0  0  0  0  0  0  0  0
  191.1480  176.3550  143.6300 C   0  0  0  0  0  3  0  0  0  0  0  0
  189.8940  177.4160  147.8800 C   0  0  0  0  0  3  0  0  0  0  0  0
  187.7540  178.5350  140.8610 C   0  0  0  0  0  2  0  0  0  0  0  0
  189.3170  177.1590  142.2800 C   0  0  0  0  0  0  0  0  0  0  0  0
  186.2840  178.0680  144.3290 C   0  0  0  0  0  3  0  0  0  0  0  0
  191.0490  176.7520  147.2870 C   0  0  0  0  0  3  0  0  0  0  0  0
  186.8000  178.5180  142.0100 C   0  0  0  0  0  0  0  0  0  0  0  0
  185.5020  179.0010  141.8200 C   0  0  0  0  0  3  0  0  0  0  0  0
  190.5630  176.5460  142.3880 C   0  0  0  0  0  3  0  0  0  0  0  0
  190.5130  176.7650  144.8020 C   0  0  0  0  0  0  0  0  0  0  0  0
  191.2960  176.4880  146.0110 C   0  0  0  0  0  3  0  0  0  0  0  0
  188.3420  176.4540  138.1610 O   0  0  0  0  0  0  0  0  0  0  0  0
  189.4500  176.9480  138.4990 C   0  0  0  0  0  0  0  0  0  0  0  0
  189.6710  177.4010  139.8400 N   0  0  0  0  0  2  0  0  0  0  0  0
  190.5530  177.0370  137.5010 C   0  0  0  0  0  2  0  0  0  0  0  0
  192.7190  174.1030  136.2930 C   0  0  1  0  0  3  0  0  0  0  0  0
  193.9670  175.2410  137.9750 C   0  0  0  0  0  2  0  0  0  0  0  0
  192.3340  172.7440  135.7500 C   0  0  0  0  0  1  0  0  0  0  0  0
  191.4650  174.9740  136.4360 C   0  0  0  0  0  2  0  0  0  0  0  0
  192.9490  176.3920  137.9010 C   0  0  0  0  0  2  0  0  0  0  0  0
  191.5250  175.8800  137.6690 C   0  0  1  0  0  3  0  0  0  0  0  0
  193.3980  173.9490  137.5780 N   0  0  0  0  0  2  0  0  0  0  0  0
  1 14  1  0  0  0  0
  1  9  1  0  0  0  0
  2  3  1  0  0  0  0
  3 19  2  0  0  0  0
  3  7  1  0  0  0  0
  4 11  2  0  0  0  0
  5  2  1  0  0  0  0
  5 14  2  0  0  0  0
  6  1  2  0  0  0  0
  7  4  1  0  0  0  0
  8 23  1  6  0  0  0
  8 13  1  0  0  0  0
 10 19  1  0  0  0  0
 12  8  1  0  0  0  0
 12 16  1  0  0  0  0
 13 18  1  0  0  0  0
 13  2  2  0  0  0  0
 15 11  1  0  0  0  0
 16  5  1  0  0  0  0
 17 16  2  0  0  0  0
 17  6  1  0  0  0  0
 18 10  2  0  0  0  0
 19 20  1  0  0  0  0
 20 15  2  0  0  0  0
 21 22  2  0  0  0  0
 22 23  1  0  0  0  0
 24 22  1  0  0  0  0
 25 27  1  1  0  0  0
 25 28  1  0  0  0  0
 25 31  1  0  0  0  0
 28 30  1  0  0  0  0
 29 26  1  0  0  0  0
 30 24  1  6  0  0  0
 30 29  1  0  0  0  0
 31 26  1  0  0  0  0
M  END
>  <MODEL>
4

>  <REMARK>
 VINA RESULT:     -10.2      2.231      4.924
  Name = 
  3 active torsions:
  status: ('A' for Active; 'I' for Inactive)
    1  A    between atoms: C_3  and  C_9
    2  A    between atoms: C_3  and  C_22
    3  A    between atoms: C_15  and  N_23
                            x       y       z     vdW  Elec       q    Type
                         _______ _______ _______ _____ _____    ______ ____

>  <TORSDO>
F 3

$$$$
=
 OpenBabel11052412563D

 31 35  0  0  1  0  0  0  0  0999 V2000
  190.7130  177.0390  146.0780 C   0  0  0  0  0  0  0  0  0  0  0  0
  187.9930  177.6450  143.4560 C   0  0  0  0  0  0  0  0  0  0  0  0
  186.8030  177.9710  144.1770 C   0  0  0  0  0  0  0  0  0  0  0  0
  185.8230  177.9190  146.6210 C   0  0  0  0  0  3  0  0  0  0  0  0
  189.2570  177.1870  144.1270 C   0  0  0  0  0  0  0  0  0  0  0  0
  191.6850  176.3900  145.3150 C   0  0  0  0  0  3  0  0  0  0  0  0
  186.7900  177.7260  145.5900 N   0  0  0  0  0  2  0  0  0  0  0  0
  189.2530  177.4020  141.2560 C   0  0  2  0  0  3  0  0  0  0  0  0
  190.9970  177.3520  147.7760 Cl  0  0  0  0  0  0  0  0  0  0  0  0
  185.7610  178.6320  142.0840 C   0  0  0  0  0  3  0  0  0  0  0  0
  184.6020  178.4150  146.4850 C   0  0  0  0  0  3  0  0  0  0  0  0
  190.0430  176.2720  141.9130 C   0  0  0  0  0  2  0  0  0  0  0  0
  188.0050  177.7490  142.0430 C   0  0  0  0  0  0  0  0  0  0  0  0
  189.5130  177.4380  145.4860 C   0  0  0  0  0  3  0  0  0  0  0  0
  183.9390  178.8790  145.2730 C   0  0  0  0  0  3  0  0  0  0  0  0
  190.2630  176.5590  143.3620 C   0  0  0  0  0  0  0  0  0  0  0  0
  191.4590  176.1500  143.9590 C   0  0  0  0  0  3  0  0  0  0  0  0
  186.8990  178.2760  141.3800 C   0  0  0  0  0  3  0  0  0  0  0  0
  185.6850  178.4790  143.4680 C   0  0  0  0  0  0  0  0  0  0  0  0
  184.3950  178.8990  144.0280 C   0  0  0  0  0  3  0  0  0  0  0  0
  189.1530  179.2350  139.0010 O   0  0  0  0  0  0  0  0  0  0  0  0
  188.9170  178.0150  138.7910 C   0  0  0  0  0  0  0  0  0  0  0  0
  188.9610  177.0650  139.8620 N   0  0  0  0  0  2  0  0  0  0  0  0
  188.5620  177.5600  137.4180 C   0  0  0  0  0  2  0  0  0  0  0  0
  187.1790  174.0630  136.6350 C   0  0  1  0  0  3  0  0  0  0  0  0
  189.4600  174.0760  135.9460 C   0  0  0  0  0  2  0  0  0  0  0  0
  186.1010  173.2470  137.3160 C   0  0  0  0  0  1  0  0  0  0  0  0
  187.2010  175.4790  137.2230 C   0  0  0  0  0  2  0  0  0  0  0  0
  189.4670  175.6050  136.1240 C   0  0  0  0  0  2  0  0  0  0  0  0
  188.6200  176.0440  137.3210 C   0  0  1  0  0  3  0  0  0  0  0  0
  188.4740  173.4070  136.8010 N   0  0  0  0  0  2  0  0  0  0  0  0
  1  9  1  0  0  0  0
  2  5  1  0  0  0  0
  2  3  1  0  0  0  0
  3  7  1  0  0  0  0
  5 14  2  0  0  0  0
  6  1  2  0  0  0  0
  7  4  1  0  0  0  0
  8 23  1  6  0  0  0
  8 12  1  0  0  0  0
  8 13  1  0  0  0  0
 10 19  1  0  0  0  0
 11  4  2  0  0  0  0
 12 16  1  0  0  0  0
 13  2  2  0  0  0  0
 14  1  1  0  0  0  0
 15 11  1  0  0  0  0
 16 17  2  0  0  0  0
 16  5  1  0  0  0  0
 17  6  1  0  0  0  0
 18 13  1  0  0  0  0
 18 10  2  0  0  0  0
 19 20  1  0  0  0  0
 19  3  2  0  0  0  0
 20 15  2  0  0  0  0
 22 21  2  0  0  0  0
 22 23  1  0  0  0  0
 24 22  1  0  0  0  0
 25 31  1  0  0  0  0
 25 28  1  0  0  0  0
 25 27  1  1  0  0  0
 26 29  1  0  0  0  0
 26 31  1  0  0  0  0
 28 30  1  0  0  0  0
 29 30  1  0  0  0  0
 30 24  1  6  0  0  0
M  END
>  <MODEL>
5

>  <REMARK>
 VINA RESULT:     -10.2      1.519      2.155
  Name = 
  3 active torsions:
  status: ('A' for Active; 'I' for Inactive)
    1  A    between atoms: C_3  and  C_9
    2  A    between atoms: C_3  and  C_22
    3  A    between atoms: C_15  and  N_23
                            x       y       z     vdW  Elec       q    Type
                         _______ _______ _______ _____ _____    ______ ____

>  <TORSDO>
F 3

$$$$
=
 OpenBabel11052412563D

 31 35  0  0  1  0  0  0  0  0999 V2000
  190.6820  177.0230  145.9250 C   0  0  0  0  0  0  0  0  0  0  0  0
  187.9130  177.6820  143.3680 C   0  0  0  0  0  0  0  0  0  0  0  0
  186.7390  178.0020  144.1180 C   0  0  0  0  0  0  0  0  0  0  0  0
  185.8080  177.9170  146.5800 C   0  0  0  0  0  3  0  0  0  0  0  0
  189.1870  177.2080  144.0070 C   0  0  0  0  0  0  0  0  0  0  0  0
  191.6350  176.3820  145.1340 C   0  0  0  0  0  3  0  0  0  0  0  0
  186.7530  177.7360  145.5270 N   0  0  0  0  0  2  0  0  0  0  0  0
  189.1270  177.4670  141.1400 C   0  0  2  0  0  3  0  0  0  0  0  0
  191.0010  177.3090  147.6220 Cl  0  0  0  0  0  0  0  0  0  0  0  0
  185.6580  178.7000  142.0570 C   0  0  0  0  0  3  0  0  0  0  0  0
  184.5870  178.4210  146.4760 C   0  0  0  0  0  3  0  0  0  0  0  0
  189.9250  176.3240  141.7640 C   0  0  0  0  0  2  0  0  0  0  0  0
  187.8970  177.8080  141.9570 C   0  0  0  0  0  0  0  0  0  0  0  0
  189.4720  177.4370  145.3640 C   0  0  0  0  0  3  0  0  0  0  0  0
  183.9020  178.9060  145.2840 C   0  0  0  0  0  3  0  0  0  0  0  0
  190.1760  176.5870  143.2120 C   0  0  0  0  0  0  0  0  0  0  0  0
  191.3810  176.1640  143.7790 C   0  0  0  0  0  3  0  0  0  0  0  0
  186.7800  178.3500  141.3240 C   0  0  0  0  0  3  0  0  0  0  0  0
  185.6100  178.5260  143.4390 C   0  0  0  0  0  0  0  0  0  0  0  0
  184.3340  178.9430  144.0310 C   0  0  0  0  0  3  0  0  0  0  0  0
  189.1510  179.3040  138.8860 O   0  0  0  0  0  0  0  0  0  0  0  0
  188.8270  178.1040  138.6770 C   0  0  0  0  0  0  0  0  0  0  0  0
  188.8060  177.1530  139.7470 N   0  0  0  0  0  2  0  0  0  0  0  0
  188.4340  177.6760  137.3050 C   0  0  0  0  0  2  0  0  0  0  0  0
  191.7880  175.8750  136.7940 C   0  0  1  0  0  3  0  0  0  0  0  0
  190.5180  175.5560  134.8010 C   0  0  0  0  0  2  0  0  0  0  0  0
  193.1670  176.1710  137.3430 C   0  0  0  0  0  1  0  0  0  0  0  0
  190.7570  176.7840  137.4730 C   0  0  0  0  0  2  0  0  0  0  0  0
  189.2840  176.0980  135.5450 C   0  0  0  0  0  2  0  0  0  0  0  0
  189.6500  177.2260  136.5120 C   0  0  1  0  0  3  0  0  0  0  0  0
  191.7810  176.0680  135.3450 N   0  0  0  0  0  2  0  0  0  0  0  0
  1  9  1  0  0  0  0
  2  5  1  0  0  0  0
  2  3  1  0  0  0  0
  3  7  1  0  0  0  0
  5 14  2  0  0  0  0
  6  1  2  0  0  0  0
  7  4  1  0  0  0  0
  8 23  1  6  0  0  0
  8 12  1  0  0  0  0
  8 13  1  0  0  0  0
 10 19  1  0  0  0  0
 11  4  2  0  0  0  0
 12 16  1  0  0  0  0
 13  2  2  0  0  0  0
 14  1  1  0  0  0  0
 15 11  1  0  0  0  0
 16 17  2  0  0  0  0
 16  5  1  0  0  0  0
 17  6  1  0  0  0  0
 18 13  1  0  0  0  0
 18 10  2  0  0  0  0
 19 20  1  0  0  0  0
 19  3  2  0  0  0  0
 20 15  2  0  0  0  0
 22 21  2  0  0  0  0
 22 23  1  0  0  0  0
 24 22  1  0  0  0  0
 25 27  1  1  0  0  0
 25 28  1  0  0  0  0
 26 31  1  0  0  0  0
 26 29  1  0  0  0  0
 29 30  1  0  0  0  0
 30 24  1  1  0  0  0
 30 28  1  0  0  0  0
 31 25  1  0  0  0  0
M  END
>  <MODEL>
6

>  <REMARK>
 VINA RESULT:      -9.9      1.601      2.331
  Name = 
  3 active torsions:
  status: ('A' for Active; 'I' for Inactive)
    1  A    between atoms: C_3  and  C_9
    2  A    between atoms: C_3  and  C_22
    3  A    between atoms: C_15  and  N_23
                            x       y       z     vdW  Elec       q    Type
                         _______ _______ _______ _____ _____    ______ ____

>  <TORSDO>
F 3

$$$$
=
 OpenBabel11052412563D

 31 35  0  0  1  0  0  0  0  0999 V2000
  182.7520  179.4480  139.4600 C   0  0  0  0  0  0  0  0  0  0  0  0
  186.2820  178.4500  140.5470 C   0  0  0  0  0  0  0  0  0  0  0  0
  187.0610  178.3570  139.3520 C   0  0  0  0  0  0  0  0  0  0  0  0
  186.7770  178.2790  136.7360 C   0  0  0  0  0  3  0  0  0  0  0  0
  184.7960  178.6700  140.5390 C   0  0  0  0  0  0  0  0  0  0  0  0
  182.0210  179.1550  140.6100 C   0  0  0  0  0  3  0  0  0  0  0  0
  186.3640  178.3500  138.0990 N   0  0  0  0  0  0  0  0  0  0  0  0
  186.1120  178.4170  143.0880 C   0  0  2  0  0  3  0  0  0  0  0  0
  181.9460  180.1100  138.0540 Cl  0  0  0  0  0  0  0  0  0  0  0  0
  189.0650  178.1890  140.7160 C   0  0  0  0  0  3  0  0  0  0  0  0
  188.0180  178.1930  136.2820 C   0  0  0  0  0  3  0  0  0  0  0  0
  184.7090  177.8370  142.9170 C   0  0  0  0  0  2  0  0  0  0  0  0
  186.9180  178.3290  141.8070 C   0  0  2  0  0  3  0  0  0  0  0  0
  184.1280  179.2130  139.4280 C   0  0  0  0  0  3  0  0  0  0  0  0
  189.2610  178.1430  137.0420 C   0  0  0  0  0  3  0  0  0  0  0  0
  184.0470  178.4100  141.7070 C   0  0  0  0  0  0  0  0  0  0  0  0
  182.6680  178.6360  141.7320 C   0  0  0  0  0  3  0  0  0  0  0  0
  188.3060  178.2360  141.8750 C   0  0  0  0  0  3  0  0  0  0  0  0
  188.4700  178.2350  139.4560 C   0  0  0  0  0  0  0  0  0  0  0  0
  189.4380  178.1590  138.3560 C   0  0  0  0  0  3  0  0  0  0  0  0
  186.0540  179.2760  145.8650 O   0  0  0  0  0  0  0  0  0  0  0  0
  186.7270  178.2520  145.5690 C   0  0  0  0  0  0  0  0  0  0  0  0
  186.7840  177.7780  144.2190 N   0  0  0  0  0  2  0  0  0  0  0  0
  187.4950  177.5430  146.6320 C   0  0  0  0  0  2  0  0  0  0  0  0
  190.9870  178.1320  145.1450 C   0  0  1  0  0  3  0  0  0  0  0  0
  191.2140  176.4260  146.7930 C   0  0  0  0  0  2  0  0  0  0  0  0
  191.4150  178.5760  143.7630 C   0  0  0  0  0  1  0  0  0  0  0  0
  189.4640  178.2530  145.2760 C   0  0  0  0  0  2  0  0  0  0  0  0
  189.7910  176.7570  147.2790 C   0  0  0  0  0  2  0  0  0  0  0  0
  188.8630  177.1260  146.1200 C   0  0  1  0  0  3  0  0  0  0  0  0
  191.4250  176.7580  145.3810 N   0  0  0  0  0  2  0  0  0  0  0  0
  1  6  1  0  0  0  0
  2 13  1  0  0  0  0
  3 19  1  0  0  0  0
  3  2  2  0  0  0  0
  4  7  2  0  0  0  0
  5  2  1  0  0  0  0
  5 16  2  0  0  0  0
  6 17  2  0  0  0  0
  7  3  1  0  0  0  0
  8 23  1  1  0  0  0
  9  1  1  0  0  0  0
 10 18  2  0  0  0  0
 11  4  1  0  0  0  0
 11 15  2  0  0  0  0
 12  8  1  0  0  0  0
 13 18  1  1  0  0  0
 13  8  1  0  0  0  0
 14  1  2  0  0  0  0
 14  5  1  0  0  0  0
 15 20  1  0  0  0  0
 16 17  1  0  0  0  0
 16 12  1  0  0  0  0
 19 10  1  0  0  0  0
 20 19  2  0  0  0  0
 22 21  2  0  0  0  0
 22 24  1  0  0  0  0
 23 22  1  0  0  0  0
 25 27  1  6  0  0  0
 25 28  1  0  0  0  0
 25 31  1  0  0  0  0
 26 29  1  0  0  0  0
 28 30  1  0  0  0  0
 30 24  1  1  0  0  0
 30 29  1  0  0  0  0
 31 26  1  0  0  0  0
M  END
>  <MODEL>
7

>  <REMARK>
 VINA RESULT:      -9.7      3.350      7.859
  Name = 
  3 active torsions:
  status: ('A' for Active; 'I' for Inactive)
    1  A    between atoms: C_3  and  C_9
    2  A    between atoms: C_3  and  C_22
    3  A    between atoms: C_15  and  N_23
                            x       y       z     vdW  Elec       q    Type
                         _______ _______ _______ _____ _____    ______ ____

>  <TORSDO>
F 3

$$$$
=
 OpenBabel11052412563D

 31 35  0  0  1  0  0  0  0  0999 V2000
  184.7990  177.8250  137.8730 C   0  0  0  0  0  0  0  0  0  0  0  0
  185.7510  178.2740  141.5520 C   0  0  0  0  0  0  0  0  0  0  0  0
  184.5300  178.4950  142.2600 C   0  0  0  0  0  0  0  0  0  0  0  0
  181.9930  179.0470  141.8250 C   0  0  0  0  0  3  0  0  0  0  0  0
  185.8260  178.2030  140.0530 C   0  0  0  0  0  0  0  0  0  0  0  0
  186.0370  177.9860  137.2510 C   0  0  0  0  0  3  0  0  0  0  0  0
  183.3550  178.7840  141.4920 N   0  0  0  0  0  0  0  0  0  0  0  0
  188.2680  177.8860  141.5440 C   0  0  2  0  0  3  0  0  0  0  0  0
  183.3730  177.4960  136.9140 Cl  0  0  0  0  0  0  0  0  0  0  0  0
  185.7400  178.2300  144.3510 C   0  0  0  0  0  3  0  0  0  0  0  0
  181.4630  179.0890  143.0380 C   0  0  0  0  0  3  0  0  0  0  0  0
  188.3080  178.6200  140.2050 C   0  0  0  0  0  2  0  0  0  0  0  0
  186.9600  178.1140  142.2740 C   0  0  2  0  0  3  0  0  0  0  0  0
  184.6970  177.9270  139.2620 C   0  0  0  0  0  3  0  0  0  0  0  0
  182.1190  178.8870  144.3230 C   0  0  0  0  0  3  0  0  0  0  0  0
  187.0770  178.3310  139.4110 C   0  0  0  0  0  0  0  0  0  0  0  0
  187.1740  178.2390  138.0190 C   0  0  0  0  0  3  0  0  0  0  0  0
  186.9310  178.0590  143.6660 C   0  0  0  0  0  3  0  0  0  0  0  0
  184.5400  178.4590  143.6780 C   0  0  0  0  0  0  0  0  0  0  0  0
  183.3940  178.6280  144.5780 C   0  0  0  0  0  3  0  0  0  0  0  0
  190.2230  176.0780  142.7120 O   0  0  0  0  0  0  0  0  0  0  0  0
  190.3590  177.3150  142.9090 C   0  0  0  0  0  0  0  0  0  0  0  0
  189.4320  178.2530  142.3510 N   0  0  0  0  0  2  0  0  0  0  0  0
  191.4830  177.8060  143.7560 C   0  0  0  0  0  2  0  0  0  0  0  0
  189.1800  177.1170  146.7530 C   0  0  1  0  0  3  0  0  0  0  0  0
  191.3040  176.1720  147.2780 C   0  0  0  0  0  2  0  0  0  0  0  0
  188.0090  177.9010  147.3050 C   0  0  0  0  0  1  0  0  0  0  0  0
  189.6250  177.7270  145.4180 C   0  0  0  0  0  2  0  0  0  0  0  0
  191.7190  176.3780  145.8110 C   0  0  0  0  0  2  0  0  0  0  0  0
  191.1430  177.6730  145.2320 C   0  0  1  0  0  3  0  0  0  0  0  0
  190.2770  177.1200  147.7190 N   0  0  0  0  0  2  0  0  0  0  0  0
  1 14  1  0  0  0  0
  2  3  2  0  0  0  0
  2 13  1  0  0  0  0
  3 19  1  0  0  0  0
  4 11  1  0  0  0  0
  5  2  1  0  0  0  0
  6  1  2  0  0  0  0
  6 17  1  0  0  0  0
  7  4  2  0  0  0  0
  7  3  1  0  0  0  0
  8 13  1  0  0  0  0
  8 23  1  1  0  0  0
  9  1  1  0  0  0  0
 11 15  2  0  0  0  0
 12  8  1  0  0  0  0
 13 18  1  1  0  0  0
 14  5  2  0  0  0  0
 15 20  1  0  0  0  0
 16  5  1  0  0  0  0
 16 12  1  0  0  0  0
 17 16  2  0  0  0  0
 18 10  2  0  0  0  0
 19 10  1  0  0  0  0
 19 20  2  0  0  0  0
 21 22  2  0  0  0  0
 22 24  1  0  0  0  0
 23 22  1  0  0  0  0
 25 27  1  1  0  0  0
 25 31  1  0  0  0  0
 26 31  1  0  0  0  0
 28 25  1  0  0  0  0
 29 26  1  0  0  0  0
 30 24  1  6  0  0  0
 30 28  1  0  0  0  0
 30 29  1  0  0  0  0
M  END
>  <MODEL>
8

>  <REMARK>
 VINA RESULT:      -9.6      3.356      6.832
  Name = 
  3 active torsions:
  status: ('A' for Active; 'I' for Inactive)
    1  A    between atoms: C_3  and  C_9
    2  A    between atoms: C_3  and  C_22
    3  A    between atoms: C_15  and  N_23
                            x       y       z     vdW  Elec       q    Type
                         _______ _______ _______ _____ _____    ______ ____

>  <TORSDO>
F 3

$$$$
=
 OpenBabel11052412563D

 31 35  0  0  1  0  0  0  0  0999 V2000
  187.3330  177.7110  145.6070 C   0  0  0  0  0  0  0  0  0  0  0  0
  185.1530  178.4740  142.5570 C   0  0  0  0  0  0  0  0  0  0  0  0
  186.0170  178.4150  141.4190 C   0  0  0  0  0  0  0  0  0  0  0  0
  188.5770  178.3330  140.8070 C   0  0  0  0  0  3  0  0  0  0  0  0
  185.6550  178.3820  143.9700 C   0  0  0  0  0  0  0  0  0  0  0  0
  186.5090  178.1460  146.6450 C   0  0  0  0  0  3  0  0  0  0  0  0
  187.4310  178.3940  141.6550 N   0  0  0  0  0  0  0  0  0  0  0  0
  182.8230  178.6980  143.5580 C   0  0  2  0  0  3  0  0  0  0  0  0
  188.9030  177.0240  145.9640 Cl  0  0  0  0  0  0  0  0  0  0  0  0
  184.0630  178.5040  139.9780 C   0  0  0  0  0  3  0  0  0  0  0  0
  188.5860  178.2800  139.4830 C   0  0  0  0  0  3  0  0  0  0  0  0
  183.4790  179.3850  144.7560 C   0  0  0  0  0  2  0  0  0  0  0  0
  183.7580  178.6270  142.3680 C   0  0  2  0  0  3  0  0  0  0  0  0
  186.9060  177.8230  144.2830 C   0  0  0  0  0  3  0  0  0  0  0  0
  187.4530  178.2750  138.5660 C   0  0  0  0  0  3  0  0  0  0  0  0
  184.8190  178.7870  145.0330 C   0  0  0  0  0  0  0  0  0  0  0  0
  185.2540  178.6840  146.3580 C   0  0  0  0  0  3  0  0  0  0  0  0
  183.2280  178.6040  141.0790 C   0  0  0  0  0  3  0  0  0  0  0  0
  185.4470  178.4220  140.1210 C   0  0  0  0  0  0  0  0  0  0  0  0
  186.1570  178.3360  138.8400 C   0  0  0  0  0  3  0  0  0  0  0  0
  180.1500  177.6540  144.0260 O   0  0  0  0  0  0  0  0  0  0  0  0
  180.2640  178.7860  143.4840 C   0  0  0  0  0  0  0  0  0  0  0  0
  181.5550  179.3550  143.2380 N   0  0  0  0  0  2  0  0  0  0  0  0
  179.0410  179.5310  143.0690 C   0  0  0  0  0  2  0  0  0  0  0  0
  180.0290  180.6880  139.5420 C   0  0  1  0  0  3  0  0  0  0  0  0
  179.4740  178.3760  139.3830 C   0  0  0  0  0  2  0  0  0  0  0  0
  179.8980  182.0370  138.8680 C   0  0  0  0  0  1  0  0  0  0  0  0
  179.6670  180.8180  141.0270 C   0  0  0  0  0  2  0  0  0  0  0  0
  179.4830  178.3050  140.9210 C   0  0  0  0  0  2  0  0  0  0  0  0
  178.9310  179.5840  141.5540 C   0  0  1  0  0  3  0  0  0  0  0  0
  179.1640  179.7170  138.8760 N   0  0  0  0  0  2  0  0  0  0  0  0
  1  9  1  0  0  0  0
  1  6  1  0  0  0  0
  2  5  1  0  0  0  0
  3  7  1  0  0  0  0
  3  2  2  0  0  0  0
  4  7  2  0  0  0  0
  5 14  1  0  0  0  0
  5 16  2  0  0  0  0
  8 23  1  6  0  0  0
  8 12  1  0  0  0  0
 10 19  1  0  0  0  0
 10 18  2  0  0  0  0
 11  4  1  0  0  0  0
 12 16  1  0  0  0  0
 13 18  1  6  0  0  0
 13  2  1  0  0  0  0
 13  8  1  0  0  0  0
 14  1  2  0  0  0  0
 15 20  1  0  0  0  0
 15 11  2  0  0  0  0
 16 17  1  0  0  0  0
 17  6  2  0  0  0  0
 19  3  1  0  0  0  0
 20 19  2  0  0  0  0
 22 21  2  0  0  0  0
 23 22  1  0  0  0  0
 24 22  1  0  0  0  0
 25 27  1  6  0  0  0
 25 28  1  0  0  0  0
 26 29  1  0  0  0  0
 28 30  1  0  0  0  0
 29 30  1  0  0  0  0
 30 24  1  1  0  0  0
 31 26  1  0  0  0  0
 31 25  1  0  0  0  0
M  END
>  <MODEL>
9

>  <REMARK>
 VINA RESULT:      -9.4      4.166      7.583
  Name = 
  3 active torsions:
  status: ('A' for Active; 'I' for Inactive)
    1  A    between atoms: C_3  and  C_9
    2  A    between atoms: C_3  and  C_22
    3  A    between atoms: C_15  and  N_23
                            x       y       z     vdW  Elec       q    Type
                         _______ _______ _______ _____ _____    ______ ____

>  <TORSDO>
F 3

$$$$
