=
 OpenBabel11052412253D

 30 35  0  0  1  0  0  0  0  0999 V2000
  188.1280  178.1330  139.8100 C   0  0  1  0  0  3  0  0  0  0  0  0
  186.0510  178.6000  138.3880 C   0  0  0  0  0  0  0  0  0  0  0  0
  185.7800  177.7320  143.1310 C   0  0  0  0  0  2  0  0  0  0  0  0
  188.5380  177.6480  141.2090 C   0  0  1  0  0  3  0  0  0  0  0  0
  188.5410  177.1530  138.8600 O   0  0  0  0  0  0  0  0  0  0  0  0
  191.9110  176.6040  140.0630 O   0  0  0  0  0  0  0  0  0  0  0  0
  190.6440  178.0100  143.7230 C   0  0  1  0  0  3  0  0  0  0  0  0
  190.6820  176.8890  140.0630 C   0  0  0  0  0  0  0  0  0  0  0  0
  190.2000  175.8630  137.8360 C   0  0  0  0  0  3  0  0  0  0  0  0
  189.3080  178.1730  144.4550 C   0  0  2  0  0  3  0  0  0  0  0  0
  186.8780  177.4290  144.0610 C   0  0  0  0  0  0  0  0  0  0  0  0
  189.8290  176.6160  138.8780 C   0  0  0  0  0  0  0  0  0  0  0  0
  190.0850  177.5880  141.2640 C   0  0  2  0  0  3  0  0  0  0  0  0
  184.7310  178.9100  138.2930 N   0  0  0  0  0  0  0  0  0  0  0  0
  189.4150  177.2730  145.6690 C   0  0  0  0  0  2  0  0  0  0  0  0
  191.6520  177.5860  144.7800 C   0  0  0  0  0  2  0  0  0  0  0  0
  186.9590  178.4780  136.8860 Cl  0  0  0  0  0  0  0  0  0  0  0  0
  186.4430  178.7320  142.1910 C   0  0  1  0  0  3  0  0  0  0  0  0
  183.9560  179.1150  139.3860 C   0  0  0  0  0  3  0  0  0  0  0  0
  186.6520  178.4390  139.6630 C   0  0  0  0  0  0  0  0  0  0  0  0
  187.9690  178.5420  142.3160 C   0  0  1  0  0  3  0  0  0  0  0  0
  186.7050  176.8200  145.1500 O   0  0  0  0  0  0  0  0  0  0  0  0
  188.1490  177.8780  143.6020 N   0  0  0  0  0  0  0  0  0  0  0  0
  190.8760  177.3190  146.0580 C   0  0  0  0  0  2  0  0  0  0  0  0
  190.0850  175.6200  142.9100 C   0  0  0  0  0  1  0  0  0  0  0  0
  184.5140  179.0320  140.6570 C   0  0  0  0  0  3  0  0  0  0  0  0
  185.8650  178.7050  140.8040 C   0  0  0  0  0  0  0  0  0  0  0  0
  190.6490  176.9980  142.5650 C   0  0  2  0  0  3  0  0  0  0  0  0
  192.3120  175.8880  136.5600 C   0  0  0  0  0  1  0  0  0  0  0  0
  191.5310  175.2050  137.6670 C   0  0  0  0  0  2  0  0  0  0  0  0
  1  5  1  6  0  0  0
  1  4  1  0  0  0  0
  2 20  1  0  0  0  0
  3 11  1  0  0  0  0
  4 13  1  0  0  0  0
  4 21  1  0  0  0  0
  5 12  1  0  0  0  0
  7 10  1  0  0  0  0
  7 16  1  0  0  0  0
  8  6  2  0  0  0  0
  8 13  1  0  0  0  0
  9 12  2  0  0  0  0
 10 15  1  0  0  0  0
 11 22  2  0  0  0  0
 12  8  1  0  0  0  0
 13 28  1  0  0  0  0
 14  2  2  0  0  0  0
 14 19  1  0  0  0  0
 15 24  1  0  0  0  0
 16 24  1  0  0  0  0
 17  2  1  0  0  0  0
 18 21  1  0  0  0  0
 18  3  1  0  0  0  0
 19 26  2  0  0  0  0
 20  1  1  0  0  0  0
 20 27  2  0  0  0  0
 21 23  1  0  0  0  0
 23 11  1  0  0  0  0
 23 10  1  0  0  0  0
 26 27  1  0  0  0  0
 27 18  1  0  0  0  0
 28 25  1  0  0  0  0
 28  7  1  0  0  0  0
 29 30  1  0  0  0  0
 30  9  1  0  0  0  0
M  END
>  <MODEL>
1

>  <REMARK>
 VINA RESULT:      -9.0      0.000      0.000
  Name = 
  1 active torsions:
  status: ('A' for Active; 'I' for Inactive)
    1  A    between atoms: C_9  and  C_21
                            x       y       z     vdW  Elec       q    Type
                         _______ _______ _______ _____ _____    ______ ____

>  <TORSDO>
F 1

$$$$
=
 OpenBabel11052412253D

 30 35  0  0  1  0  0  0  0  0999 V2000
  189.0120  176.9470  143.6970 C   0  0  1  0  0  3  0  0  0  0  0  0
  191.2250  176.3470  144.8350 C   0  0  0  0  0  0  0  0  0  0  0  0
  187.6660  178.6280  147.1710 C   0  0  0  0  0  2  0  0  0  0  0  0
  187.7350  177.7720  143.9190 C   0  0  1  0  0  3  0  0  0  0  0  0
  189.7410  177.5330  142.6210 O   0  0  0  0  0  0  0  0  0  0  0  0
  187.0120  177.9780  140.2840 O   0  0  0  0  0  0  0  0  0  0  0  0
  184.4630  177.9130  143.5220 C   0  0  1  0  0  3  0  0  0  0  0  0
  187.6330  177.8670  141.3760 C   0  0  0  0  0  0  0  0  0  0  0  0
  189.9020  178.2300  140.3940 C   0  0  0  0  0  3  0  0  0  0  0  0
  184.5690  178.1520  145.0310 C   0  0  2  0  0  3  0  0  0  0  0  0
  186.3610  179.0520  146.6410 C   0  0  0  0  0  0  0  0  0  0  0  0
  189.1170  177.8800  141.4210 C   0  0  0  0  0  0  0  0  0  0  0  0
  186.8520  177.6450  142.6520 C   0  0  2  0  0  3  0  0  0  0  0  0
  191.9700  176.1970  145.9620 N   0  0  0  0  0  0  0  0  0  0  0  0
  183.6860  179.3540  145.3000 C   0  0  0  0  0  2  0  0  0  0  0  0
  183.1260  178.5010  143.0970 C   0  0  0  0  0  2  0  0  0  0  0  0
  191.9740  175.8930  143.3090 Cl  0  0  0  0  0  0  0  0  0  0  0  0
  187.8850  177.3140  146.4280 C   0  0  1  0  0  3  0  0  0  0  0  0
  191.4660  176.4320  147.1980 C   0  0  0  0  0  3  0  0  0  0  0  0
  189.8850  176.8040  144.9260 C   0  0  0  0  0  0  0  0  0  0  0  0
  186.9800  177.3340  145.1780 C   0  0  1  0  0  3  0  0  0  0  0  0
  185.6810  179.9770  147.1580 O   0  0  0  0  0  0  0  0  0  0  0  0
  185.9550  178.3240  145.4860 N   0  0  0  0  0  0  0  0  0  0  0  0
  182.5580  179.2380  144.2980 C   0  0  0  0  0  2  0  0  0  0  0  0
  185.8730  180.0000  142.9340 C   0  0  0  0  0  1  0  0  0  0  0  0
  190.1390  176.8200  147.3430 C   0  0  0  0  0  3  0  0  0  0  0  0
  189.3380  176.9980  146.2120 C   0  0  0  0  0  0  0  0  0  0  0  0
  185.5910  178.5210  142.6710 C   0  0  2  0  0  3  0  0  0  0  0  0
  189.7650  177.5410  138.0290 C   0  0  0  0  0  1  0  0  0  0  0  0
  189.4310  178.6280  139.0330 C   0  0  0  0  0  2  0  0  0  0  0  0
  1  5  1  6  0  0  0
  1  4  1  0  0  0  0
  1 20  1  0  0  0  0
  2 20  2  0  0  0  0
  2 14  1  0  0  0  0
  4 21  1  0  0  0  0
  6  8  2  0  0  0  0
  7 10  1  0  0  0  0
  8 12  1  0  0  0  0
  8 13  1  0  0  0  0
  9 12  2  0  0  0  0
 10 15  1  0  0  0  0
 10 23  1  0  0  0  0
 11 22  2  0  0  0  0
 11  3  1  0  0  0  0
 12  5  1  0  0  0  0
 13 28  1  0  0  0  0
 13  4  1  0  0  0  0
 14 19  2  0  0  0  0
 16  7  1  0  0  0  0
 16 24  1  0  0  0  0
 17  2  1  0  0  0  0
 18  3  1  0  0  0  0
 19 26  1  0  0  0  0
 20 27  1  0  0  0  0
 21 23  1  0  0  0  0
 21 18  1  0  0  0  0
 23 11  1  0  0  0  0
 24 15  1  0  0  0  0
 27 18  1  0  0  0  0
 27 26  2  0  0  0  0
 28 25  1  0  0  0  0
 28  7  1  0  0  0  0
 29 30  1  0  0  0  0
 30  9  1  0  0  0  0
M  END
>  <MODEL>
2

>  <REMARK>
 VINA RESULT:      -8.6      2.941      6.054
  Name = 
  1 active torsions:
  status: ('A' for Active; 'I' for Inactive)
    1  A    between atoms: C_9  and  C_21
                            x       y       z     vdW  Elec       q    Type
                         _______ _______ _______ _____ _____    ______ ____

>  <TORSDO>
F 1

$$$$
=
 OpenBabel11052412253D

 30 35  0  0  1  0  0  0  0  0999 V2000
  187.4730  178.4370  141.1990 C   0  0  1  0  0  3  0  0  0  0  0  0
  189.9050  177.6390  141.1960 C   0  0  0  0  0  0  0  0  0  0  0  0
  186.8400  176.5580  137.6250 C   0  0  0  0  0  2  0  0  0  0  0  0
  186.1420  178.2280  140.4600 C   0  0  1  0  0  3  0  0  0  0  0  0
  187.3280  177.9430  142.5280 O   0  0  0  0  0  0  0  0  0  0  0  0
  184.1390  179.4580  143.3320 O   0  0  0  0  0  0  0  0  0  0  0  0
  183.4120  179.6560  139.2810 C   0  0  1  0  0  3  0  0  0  0  0  0
  185.0760  178.9530  142.6560 C   0  0  0  0  0  0  0  0  0  0  0  0
  186.2650  177.9480  144.6110 C   0  0  0  0  0  3  0  0  0  0  0  0
  183.9250  178.9550  138.0190 C   0  0  2  0  0  3  0  0  0  0  0  0
  185.4210  176.9270  137.5060 C   0  0  0  0  0  0  0  0  0  0  0  0
  186.2250  178.2810  143.3150 C   0  0  0  0  0  0  0  0  0  0  0  0
  185.0650  179.1000  141.1500 C   0  0  2  0  0  3  0  0  0  0  0  0
  190.9720  177.1040  140.5440 N   0  0  0  0  0  0  0  0  0  0  0  0
  182.7150  178.2400  137.4500 C   0  0  0  0  0  2  0  0  0  0  0  0
  181.9210  179.8670  139.0660 C   0  0  0  0  0  2  0  0  0  0  0  0
  190.1560  178.1540  142.8600 Cl  0  0  0  0  0  0  0  0  0  0  0  0
  187.4230  177.8000  138.2900 C   0  0  1  0  0  3  0  0  0  0  0  0
  190.9170  176.7540  139.2360 C   0  0  0  0  0  3  0  0  0  0  0  0
  188.6710  177.8090  140.5180 C   0  0  0  0  0  0  0  0  0  0  0  0
  186.2580  178.5520  138.9660 C   0  0  1  0  0  3  0  0  0  0  0  0
  184.6040  176.2850  136.7950 O   0  0  0  0  0  0  0  0  0  0  0  0
  185.0650  178.0680  138.2820 N   0  0  0  0  0  0  0  0  0  0  0  0
  181.5420  179.1310  137.7930 C   0  0  0  0  0  2  0  0  0  0  0  0
  183.1820  177.4460  140.6040 C   0  0  0  0  0  1  0  0  0  0  0  0
  189.7490  176.9610  138.5110 C   0  0  0  0  0  3  0  0  0  0  0  0
  188.6240  177.4990  139.1410 C   0  0  0  0  0  0  0  0  0  0  0  0
  183.6440  178.9020  140.6010 C   0  0  2  0  0  3  0  0  0  0  0  0
  185.8050  178.7480  146.8990 C   0  0  0  0  0  1  0  0  0  0  0  0
  185.1920  178.2240  145.6140 C   0  0  0  0  0  2  0  0  0  0  0  0
  1 20  1  6  0  0  0
  1  5  1  0  0  0  0
  2 17  1  0  0  0  0
  3 18  1  0  0  0  0
  4 13  1  0  0  0  0
  4  1  1  0  0  0  0
  5 12  1  0  0  0  0
  7 28  1  0  0  0  0
  8 12  1  0  0  0  0
  8  6  2  0  0  0  0
  9 30  1  0  0  0  0
 10 23  1  0  0  0  0
 10  7  1  0  0  0  0
 11  3  1  0  0  0  0
 11 23  1  0  0  0  0
 12  9  2  0  0  0  0
 13  8  1  0  0  0  0
 14  2  1  0  0  0  0
 15 24  1  0  0  0  0
 15 10  1  0  0  0  0
 16  7  1  0  0  0  0
 18 21  1  0  0  0  0
 18 27  1  0  0  0  0
 19 14  2  0  0  0  0
 20  2  2  0  0  0  0
 21  4  1  0  0  0  0
 22 11  2  0  0  0  0
 23 21  1  0  0  0  0
 24 16  1  0  0  0  0
 26 27  2  0  0  0  0
 26 19  1  0  0  0  0
 27 20  1  0  0  0  0
 28 25  1  0  0  0  0
 28 13  1  0  0  0  0
 30 29  1  0  0  0  0
M  END
>  <MODEL>
3

>  <REMARK>
 VINA RESULT:      -8.4      2.718      7.426
  Name = 
  1 active torsions:
  status: ('A' for Active; 'I' for Inactive)
    1  A    between atoms: C_9  and  C_21
                            x       y       z     vdW  Elec       q    Type
                         _______ _______ _______ _____ _____    ______ ____

>  <TORSDO>
F 1

$$$$
=
 OpenBabel11052412253D

 30 35  0  0  1  0  0  0  0  0999 V2000
  186.4970  178.6890  141.2580 C   0  0  1  0  0  3  0  0  0  0  0  0
  183.9930  179.0030  140.8260 C   0  0  0  0  0  0  0  0  0  0  0  0
  185.6950  177.4080  145.0550 C   0  0  0  0  0  2  0  0  0  0  0  0
  187.4700  178.0790  142.2790 C   0  0  1  0  0  3  0  0  0  0  0  0
  186.5990  177.9460  140.0450 O   0  0  0  0  0  0  0  0  0  0  0  0
  190.2070  177.8040  139.7860 O   0  0  0  0  0  0  0  0  0  0  0  0
  190.3460  178.4170  143.8590 C   0  0  1  0  0  3  0  0  0  0  0  0
  189.0550  177.8740  140.2960 C   0  0  0  0  0  0  0  0  0  0  0  0
  187.8420  177.1220  138.2450 C   0  0  0  0  0  3  0  0  0  0  0  0
  189.3970  178.2410  145.0480 C   0  0  2  0  0  3  0  0  0  0  0  0
  187.0950  177.1610  145.4340 C   0  0  0  0  0  0  0  0  0  0  0  0
  187.8370  177.6380  139.4800 C   0  0  0  0  0  0  0  0  0  0  0  0
  188.9120  178.2760  141.7470 C   0  0  2  0  0  3  0  0  0  0  0  0
  182.7180  179.0950  141.2890 N   0  0  0  0  0  0  0  0  0  0  0  0
  190.0610  177.2020  145.9280 C   0  0  0  0  0  2  0  0  0  0  0  0
  191.7260  178.0180  144.3620 C   0  0  0  0  0  2  0  0  0  0  0  0
  184.2450  179.2600  139.1040 Cl  0  0  0  0  0  0  0  0  0  0  0  0
  185.8320  178.6350  144.1600 C   0  0  1  0  0  3  0  0  0  0  0  0
  182.4190  179.0010  142.6070 C   0  0  0  0  0  3  0  0  0  0  0  0
  185.0600  178.7590  141.7290 C   0  0  0  0  0  0  0  0  0  0  0  0
  187.2960  178.6900  143.6740 C   0  0  1  0  0  3  0  0  0  0  0  0
  187.4240  176.3780  146.3620 O   0  0  0  0  0  0  0  0  0  0  0  0
  188.0320  177.8830  144.6400 N   0  0  0  0  0  0  0  0  0  0  0  0
  191.5450  177.4380  145.7530 C   0  0  0  0  0  2  0  0  0  0  0  0
  189.7540  176.1140  142.8430 C   0  0  0  0  0  1  0  0  0  0  0  0
  183.4370  178.8270  143.5380 C   0  0  0  0  0  3  0  0  0  0  0  0
  184.7620  178.7160  143.1090 C   0  0  0  0  0  0  0  0  0  0  0  0
  189.9970  177.6030  142.6020 C   0  0  2  0  0  3  0  0  0  0  0  0
  189.3120  177.7380  136.3620 C   0  0  0  0  0  1  0  0  0  0  0  0
  189.0580  176.7320  137.4690 C   0  0  0  0  0  2  0  0  0  0  0  0
  1  5  1  6  0  0  0
  1 20  1  0  0  0  0
  1  4  1  0  0  0  0
  2 14  2  0  0  0  0
  2 20  1  0  0  0  0
  3 11  1  0  0  0  0
  4 21  1  0  0  0  0
  6  8  2  0  0  0  0
  7 16  1  0  0  0  0
  7 10  1  0  0  0  0
  8 13  1  0  0  0  0
  9 12  2  0  0  0  0
 10 15  1  0  0  0  0
 11 22  2  0  0  0  0
 12  5  1  0  0  0  0
 12  8  1  0  0  0  0
 13  4  1  0  0  0  0
 13 28  1  0  0  0  0
 14 19  1  0  0  0  0
 16 24  1  0  0  0  0
 17  2  1  0  0  0  0
 18  3  1  0  0  0  0
 19 26  2  0  0  0  0
 20 27  2  0  0  0  0
 21 18  1  0  0  0  0
 21 23  1  0  0  0  0
 23 10  1  0  0  0  0
 23 11  1  0  0  0  0
 24 15  1  0  0  0  0
 27 26  1  0  0  0  0
 27 18  1  0  0  0  0
 28 25  1  0  0  0  0
 28  7  1  0  0  0  0
 29 30  1  0  0  0  0
 30  9  1  0  0  0  0
M  END
>  <MODEL>
4

>  <REMARK>
 VINA RESULT:      -8.0      1.718      2.221
  Name = 
  1 active torsions:
  status: ('A' for Active; 'I' for Inactive)
    1  A    between atoms: C_9  and  C_21
                            x       y       z     vdW  Elec       q    Type
                         _______ _______ _______ _____ _____    ______ ____

>  <TORSDO>
F 1

$$$$
=
 OpenBabel11052412253D

 30 35  0  0  1  0  0  0  0  0999 V2000
  185.8800  178.5200  142.1350 C   0  0  1  0  0  3  0  0  0  0  0  0
  185.8370  178.2100  144.6750 C   0  0  0  0  0  0  0  0  0  0  0  0
  189.5240  176.6770  141.9590 C   0  0  0  0  0  2  0  0  0  0  0  0
  186.6620  178.0810  140.8870 C   0  0  1  0  0  3  0  0  0  0  0  0
  184.5700  177.9620  142.0580 O   0  0  0  0  0  0  0  0  0  0  0  0
  183.8130  178.8000  138.6190 O   0  0  0  0  0  0  0  0  0  0  0  0
  187.8770  178.9910  137.9570 C   0  0  1  0  0  3  0  0  0  0  0  0
  184.4770  178.5100  139.6510 C   0  0  0  0  0  0  0  0  0  0  0  0
  182.5190  177.6890  140.9690 C   0  0  0  0  0  3  0  0  0  0  0  0
  189.1430  178.4470  138.6250 C   0  0  2  0  0  3  0  0  0  0  0  0
  189.6720  176.7670  140.4990 C   0  0  0  0  0  0  0  0  0  0  0  0
  183.8060  178.0520  140.8940 C   0  0  0  0  0  0  0  0  0  0  0  0
  185.9780  178.7040  139.6450 C   0  0  2  0  0  3  0  0  0  0  0  0
  186.4730  177.9140  145.8390 N   0  0  0  0  0  0  0  0  0  0  0  0
  189.7670  177.5300  137.5910 C   0  0  0  0  0  2  0  0  0  0  0  0
  188.1280  178.9170  136.4590 C   0  0  0  0  0  2  0  0  0  0  0  0
  184.1520  178.7060  144.7830 Cl  0  0  0  0  0  0  0  0  0  0  0  0
  188.8060  177.9840  142.2750 C   0  0  1  0  0  3  0  0  0  0  0  0
  187.7920  177.6060  145.8830 C   0  0  0  0  0  3  0  0  0  0  0  0
  186.5440  178.1600  143.4470 C   0  0  0  0  0  0  0  0  0  0  0  0
  188.1420  178.4730  140.9700 C   0  0  1  0  0  3  0  0  0  0  0  0
  190.4250  176.0030  139.8390 O   0  0  0  0  0  0  0  0  0  0  0  0
  188.8740  177.7890  139.9100 N   0  0  0  0  0  0  0  0  0  0  0  0
  189.4310  178.1640  136.2590 C   0  0  0  0  0  2  0  0  0  0  0  0
  186.6250  176.7350  138.1330 C   0  0  0  0  0  1  0  0  0  0  0  0
  188.5430  177.6060  144.7140 C   0  0  0  0  0  3  0  0  0  0  0  0
  187.9300  177.8930  143.4920 C   0  0  0  0  0  0  0  0  0  0  0  0
  186.5720  178.2530  138.3030 C   0  0  2  0  0  3  0  0  0  0  0  0
  181.2920  176.3100  139.3320 C   0  0  0  0  0  1  0  0  0  0  0  0
  181.5390  177.7170  139.8410 C   0  0  0  0  0  2  0  0  0  0  0  0
  1  5  1  1  0  0  0
  1 20  1  0  0  0  0
  2 17  1  0  0  0  0
  2 14  1  0  0  0  0
  3 18  1  0  0  0  0
  4 21  1  0  0  0  0
  4  1  1  0  0  0  0
  6  8  2  0  0  0  0
  7 28  1  0  0  0  0
  7 10  1  0  0  0  0
  8 12  1  0  0  0  0
 10 23  1  0  0  0  0
 11  3  1  0  0  0  0
 12  9  2  0  0  0  0
 12  5  1  0  0  0  0
 13  8  1  0  0  0  0
 13  4  1  0  0  0  0
 14 19  2  0  0  0  0
 15 10  1  0  0  0  0
 16  7  1  0  0  0  0
 18 27  1  0  0  0  0
 20 27  1  0  0  0  0
 20  2  2  0  0  0  0
 21 18  1  0  0  0  0
 22 11  2  0  0  0  0
 23 11  1  0  0  0  0
 23 21  1  0  0  0  0
 24 16  1  0  0  0  0
 24 15  1  0  0  0  0
 25 28  1  0  0  0  0
 26 19  1  0  0  0  0
 27 26  2  0  0  0  0
 28 13  1  0  0  0  0
 29 30  1  0  0  0  0
 30  9  1  0  0  0  0
M  END
>  <MODEL>
5

>  <REMARK>
 VINA RESULT:      -7.9      2.652      6.634
  Name = 
  1 active torsions:
  status: ('A' for Active; 'I' for Inactive)
    1  A    between atoms: C_9  and  C_21
                            x       y       z     vdW  Elec       q    Type
                         _______ _______ _______ _____ _____    ______ ____

>  <TORSDO>
F 1

$$$$
=
 OpenBabel11052412253D

 30 35  0  0  1  0  0  0  0  0999 V2000
  185.6130  178.8130  142.4000 C   0  0  1  0  0  3  0  0  0  0  0  0
  184.5940  178.8000  144.7480 C   0  0  0  0  0  0  0  0  0  0  0  0
  188.6980  176.4740  143.7120 C   0  0  0  0  0  2  0  0  0  0  0  0
  186.7090  178.1320  141.5650 C   0  0  1  0  0  3  0  0  0  0  0  0
  184.3460  178.4370  141.8640 O   0  0  0  0  0  0  0  0  0  0  0  0
  185.0510  178.9790  138.3540 O   0  0  0  0  0  0  0  0  0  0  0  0
  189.0440  178.5290  139.2690 C   0  0  1  0  0  3  0  0  0  0  0  0
  185.2330  178.7190  139.5750 C   0  0  0  0  0  0  0  0  0  0  0  0
  182.8200  178.3310  140.0960 C   0  0  0  0  0  3  0  0  0  0  0  0
  189.8670  177.8930  140.3930 C   0  0  2  0  0  3  0  0  0  0  0  0
  189.3820  176.3780  142.4130 C   0  0  0  0  0  0  0  0  0  0  0  0
  184.0870  178.5010  140.4940 C   0  0  0  0  0  0  0  0  0  0  0  0
  186.6410  178.7000  140.1260 C   0  0  2  0  0  3  0  0  0  0  0  0
  184.7020  178.5520  146.0810 N   0  0  0  0  0  0  0  0  0  0  0  0
  190.6580  176.7890  139.7210 C   0  0  0  0  0  2  0  0  0  0  0  0
  189.8070  178.2530  137.9820 C   0  0  0  0  0  2  0  0  0  0  0  0
  183.0970  179.5340  144.1850 Cl  0  0  0  0  0  0  0  0  0  0  0  0
  188.1490  177.8960  143.6630 C   0  0  1  0  0  3  0  0  0  0  0  0
  185.8410  178.0700  146.6360 C   0  0  0  0  0  3  0  0  0  0  0  0
  185.6810  178.5140  143.8830 C   0  0  0  0  0  0  0  0  0  0  0  0
  188.1000  178.3220  142.1810 C   0  0  1  0  0  3  0  0  0  0  0  0
  190.1800  175.4480  142.1280 O   0  0  0  0  0  0  0  0  0  0  0  0
  189.0400  177.4280  141.5140 N   0  0  0  0  0  0  0  0  0  0  0  0
  190.9450  177.3090  138.3300 C   0  0  0  0  0  2  0  0  0  0  0  0
  187.4490  176.5030  139.0770 C   0  0  0  0  0  1  0  0  0  0  0  0
  186.9550  177.8350  145.8390 C   0  0  0  0  0  3  0  0  0  0  0  0
  186.8880  178.0650  144.4620 C   0  0  0  0  0  0  0  0  0  0  0  0
  187.5980  178.0230  139.1340 C   0  0  2  0  0  3  0  0  0  0  0  0
  181.5900  179.6600  138.4200 C   0  0  0  0  0  1  0  0  0  0  0  0
  182.3390  178.3670  138.6810 C   0  0  0  0  0  2  0  0  0  0  0  0
  1  5  1  6  0  0  0
  1 20  1  0  0  0  0
  2 14  1  0  0  0  0
  4 21  1  0  0  0  0
  4  1  1  0  0  0  0
  6  8  2  0  0  0  0
  7 10  1  0  0  0  0
  8 13  1  0  0  0  0
  8 12  1  0  0  0  0
  9 12  2  0  0  0  0
 10 23  1  0  0  0  0
 11  3  1  0  0  0  0
 12  5  1  0  0  0  0
 13  4  1  0  0  0  0
 14 19  2  0  0  0  0
 15 10  1  0  0  0  0
 16 24  1  0  0  0  0
 16  7  1  0  0  0  0
 17  2  1  0  0  0  0
 18  3  1  0  0  0  0
 18 27  1  0  0  0  0
 20 27  1  0  0  0  0
 20  2  2  0  0  0  0
 21 18  1  0  0  0  0
 22 11  2  0  0  0  0
 23 21  1  0  0  0  0
 23 11  1  0  0  0  0
 24 15  1  0  0  0  0
 25 28  1  0  0  0  0
 26 19  1  0  0  0  0
 27 26  2  0  0  0  0
 28  7  1  0  0  0  0
 28 13  1  0  0  0  0
 29 30  1  0  0  0  0
 30  9  1  0  0  0  0
M  END
>  <MODEL>
6

>  <REMARK>
 VINA RESULT:      -7.5      2.681      5.959
  Name = 
  1 active torsions:
  status: ('A' for Active; 'I' for Inactive)
    1  A    between atoms: C_9  and  C_21
                            x       y       z     vdW  Elec       q    Type
                         _______ _______ _______ _____ _____    ______ ____

>  <TORSDO>
F 1

$$$$
=
 OpenBabel11052412253D

 30 35  0  0  1  0  0  0  0  0999 V2000
  188.8530  177.1670  144.5820 C   0  0  1  0  0  3  0  0  0  0  0  0
  190.2090  177.1230  146.7530 C   0  0  0  0  0  0  0  0  0  0  0  0
  185.9800  179.4290  146.4080 C   0  0  0  0  0  2  0  0  0  0  0  0
  187.6410  177.8600  143.9400 C   0  0  1  0  0  3  0  0  0  0  0  0
  190.0240  177.5740  143.8760 O   0  0  0  0  0  0  0  0  0  0  0  0
  188.8100  177.1280  140.4940 O   0  0  0  0  0  0  0  0  0  0  0  0
  184.9940  177.5030  142.0030 C   0  0  1  0  0  3  0  0  0  0  0  0
  188.8090  177.3500  141.7360 C   0  0  0  0  0  0  0  0  0  0  0  0
  191.2700  177.7510  141.9060 C   0  0  0  0  0  3  0  0  0  0  0  0
  184.3420  178.0950  143.2560 C   0  0  2  0  0  3  0  0  0  0  0  0
  185.1100  179.5560  145.2280 C   0  0  0  0  0  0  0  0  0  0  0  0
  190.0780  177.5540  142.4810 C   0  0  0  0  0  0  0  0  0  0  0  0
  187.4980  177.3350  142.4900 C   0  0  2  0  0  3  0  0  0  0  0  0
  190.2980  177.3300  148.0930 N   0  0  0  0  0  0  0  0  0  0  0  0
  183.4510  179.2100  142.7440 C   0  0  0  0  0  2  0  0  0  0  0  0
  184.0460  177.8090  140.8530 C   0  0  0  0  0  2  0  0  0  0  0  0
  191.6110  176.4240  145.9520 Cl  0  0  0  0  0  0  0  0  0  0  0  0
  186.5260  178.0160  146.2350 C   0  0  1  0  0  3  0  0  0  0  0  0
  189.2510  177.7820  148.8260 C   0  0  0  0  0  3  0  0  0  0  0  0
  189.0040  177.4210  146.0670 C   0  0  0  0  0  0  0  0  0  0  0  0
  186.3580  177.6350  144.7490 C   0  0  1  0  0  3  0  0  0  0  0  0
  184.2710  180.4850  145.0940 O   0  0  0  0  0  0  0  0  0  0  0  0
  185.3230  178.5370  144.2560 N   0  0  0  0  0  0  0  0  0  0  0  0
  182.9650  178.7280  141.3950 C   0  0  0  0  0  2  0  0  0  0  0  0
  186.5270  179.5530  141.6410 C   0  0  0  0  0  1  0  0  0  0  0  0
  188.0290  178.0270  148.2100 C   0  0  0  0  0  3  0  0  0  0  0  0
  187.8930  177.8390  146.8320 C   0  0  0  0  0  0  0  0  0  0  0  0
  186.4000  178.0300  141.6720 C   0  0  2  0  0  3  0  0  0  0  0  0
  192.9490  177.2830  140.1590 C   0  0  0  0  0  1  0  0  0  0  0  0
  191.5360  177.7620  140.4350 C   0  0  0  0  0  2  0  0  0  0  0  0
  1  5  1  6  0  0  0
  1 20  1  0  0  0  0
  2 14  1  0  0  0  0
  4  1  1  0  0  0  0
  4 21  1  0  0  0  0
  6  8  2  0  0  0  0
  7 10  1  0  0  0  0
  8 12  1  0  0  0  0
  8 13  1  0  0  0  0
  9 12  2  0  0  0  0
 10 23  1  0  0  0  0
 11  3  1  0  0  0  0
 12  5  1  0  0  0  0
 13  4  1  0  0  0  0
 14 19  2  0  0  0  0
 15 10  1  0  0  0  0
 16 24  1  0  0  0  0
 16  7  1  0  0  0  0
 17  2  1  0  0  0  0
 18  3  1  0  0  0  0
 18 27  1  0  0  0  0
 20  2  2  0  0  0  0
 20 27  1  0  0  0  0
 21 18  1  0  0  0  0
 22 11  2  0  0  0  0
 23 21  1  0  0  0  0
 23 11  1  0  0  0  0
 24 15  1  0  0  0  0
 25 28  1  0  0  0  0
 26 19  1  0  0  0  0
 27 26  2  0  0  0  0
 28  7  1  0  0  0  0
 28 13  1  0  0  0  0
 29 30  1  0  0  0  0
 30  9  1  0  0  0  0
M  END
>  <MODEL>
7

>  <REMARK>
 VINA RESULT:      -7.4      3.037      6.192
  Name = 
  1 active torsions:
  status: ('A' for Active; 'I' for Inactive)
    1  A    between atoms: C_9  and  C_21
                            x       y       z     vdW  Elec       q    Type
                         _______ _______ _______ _____ _____    ______ ____

>  <TORSDO>
F 1

$$$$
=
 OpenBabel11052412253D

 30 35  0  0  1  0  0  0  0  0999 V2000
  185.0020  178.7000  141.7480 C   0  0  1  0  0  3  0  0  0  0  0  0
  184.1920  178.6430  144.1750 C   0  0  0  0  0  0  0  0  0  0  0  0
  188.4940  176.8890  142.8580 C   0  0  0  0  0  2  0  0  0  0  0  0
  186.1150  178.1480  140.8420 C   0  0  1  0  0  3  0  0  0  0  0  0
  183.7650  178.1230  141.3360 O   0  0  0  0  0  0  0  0  0  0  0  0
  184.0930  178.6070  137.7640 O   0  0  0  0  0  0  0  0  0  0  0  0
  188.1700  178.7770  138.3400 C   0  0  1  0  0  3  0  0  0  0  0  0
  184.4110  178.4280  138.9710 C   0  0  0  0  0  0  0  0  0  0  0  0
  182.1320  177.7200  139.7120 C   0  0  0  0  0  3  0  0  0  0  0  0
  189.1670  178.3150  139.4070 C   0  0  2  0  0  3  0  0  0  0  0  0
  189.0770  176.8350  141.5080 C   0  0  0  0  0  0  0  0  0  0  0  0
  183.3880  178.0880  139.9930 C   0  0  0  0  0  0  0  0  0  0  0  0
  185.8470  178.6370  139.3970 C   0  0  2  0  0  3  0  0  0  0  0  0
  184.4440  178.4710  145.5000 N   0  0  0  0  0  0  0  0  0  0  0  0
  190.0550  177.3080  138.7040 C   0  0  0  0  0  2  0  0  0  0  0  0
  188.8580  178.5570  137.0010 C   0  0  0  0  0  2  0  0  0  0  0  0
  182.5630  179.1280  143.7230 Cl  0  0  0  0  0  0  0  0  0  0  0  0
  187.7400  178.2140  142.8130 C   0  0  1  0  0  3  0  0  0  0  0  0
  185.6820  178.1830  145.9690 C   0  0  0  0  0  3  0  0  0  0  0  0
  185.2350  178.4790  143.2280 C   0  0  0  0  0  0  0  0  0  0  0  0
  187.5080  178.5630  141.3280 C   0  0  1  0  0  3  0  0  0  0  0  0
  189.9770  176.0180  141.1840 O   0  0  0  0  0  0  0  0  0  0  0  0
  188.5110  177.7860  140.6100 N   0  0  0  0  0  0  0  0  0  0  0  0
  190.1470  177.8030  137.2770 C   0  0  0  0  0  2  0  0  0  0  0  0
  186.8810  176.5350  138.3510 C   0  0  0  0  0  1  0  0  0  0  0  0
  186.7500  178.0770  145.0860 C   0  0  0  0  0  3  0  0  0  0  0  0
  186.5370  178.2340  143.7140 C   0  0  0  0  0  0  0  0  0  0  0  0
  186.8090  178.0620  138.3470 C   0  0  2  0  0  3  0  0  0  0  0  0
  181.4520  176.1730  137.9150 C   0  0  0  0  0  1  0  0  0  0  0  0
  181.5370  177.6250  138.3450 C   0  0  0  0  0  2  0  0  0  0  0  0
  1  5  1  6  0  0  0
  1 20  1  0  0  0  0
  2 14  1  0  0  0  0
  4 21  1  0  0  0  0
  4  1  1  0  0  0  0
  6  8  2  0  0  0  0
  7 28  1  0  0  0  0
  7 10  1  0  0  0  0
  8 13  1  0  0  0  0
  8 12  1  0  0  0  0
  9 12  2  0  0  0  0
 10 23  1  0  0  0  0
 11  3  1  0  0  0  0
 12  5  1  0  0  0  0
 13  4  1  0  0  0  0
 14 19  2  0  0  0  0
 15 10  1  0  0  0  0
 16 24  1  0  0  0  0
 16  7  1  0  0  0  0
 17  2  1  0  0  0  0
 18  3  1  0  0  0  0
 18 27  1  0  0  0  0
 20 27  1  0  0  0  0
 20  2  2  0  0  0  0
 21 18  1  0  0  0  0
 22 11  2  0  0  0  0
 23 21  1  0  0  0  0
 23 11  1  0  0  0  0
 24 15  1  0  0  0  0
 26 19  1  0  0  0  0
 27 26  2  0  0  0  0
 28 25  1  0  0  0  0
 28 13  1  0  0  0  0
 29 30  1  0  0  0  0
 30  9  1  0  0  0  0
M  END
>  <MODEL>
8

>  <REMARK>
 VINA RESULT:      -7.0      2.756      6.228
  Name = 
  1 active torsions:
  status: ('A' for Active; 'I' for Inactive)
    1  A    between atoms: C_9  and  C_21
                            x       y       z     vdW  Elec       q    Type
                         _______ _______ _______ _____ _____    ______ ____

>  <TORSDO>
F 1

$$$$
=
 OpenBabel11052412253D

 30 35  0  0  1  0  0  0  0  0999 V2000
  187.8860  177.6320  140.7010 C   0  0  1  0  0  3  0  0  0  0  0  0
  185.6910  178.8710  141.1450 C   0  0  0  0  0  0  0  0  0  0  0  0
  187.5550  178.4490  136.7100 C   0  0  0  0  0  2  0  0  0  0  0  0
  188.9250  177.3930  139.5950 C   0  0  1  0  0  3  0  0  0  0  0  0
  188.5060  178.3870  141.7400 O   0  0  0  0  0  0  0  0  0  0  0  0
  191.5860  176.5060  142.0260 O   0  0  0  0  0  0  0  0  0  0  0  0
  190.9490  175.2160  138.1640 C   0  0  1  0  0  3  0  0  0  0  0  0
  190.5460  177.0110  141.5210 C   0  0  0  0  0  0  0  0  0  0  0  0
  190.1710  178.6640  143.3570 C   0  0  0  0  0  3  0  0  0  0  0  0
  190.1440  175.6860  136.9480 C   0  0  2  0  0  3  0  0  0  0  0  0
  188.8080  177.7900  136.3130 C   0  0  0  0  0  0  0  0  0  0  0  0
  189.7550  178.0340  142.2520 C   0  0  0  0  0  0  0  0  0  0  0  0
  190.0580  176.5130  140.1790 C   0  0  2  0  0  3  0  0  0  0  0  0
  184.5410  179.4370  140.6890 N   0  0  0  0  0  0  0  0  0  0  0  0
  191.1820  175.9920  135.8870 C   0  0  0  0  0  2  0  0  0  0  0  0
  192.2580  174.6690  137.6140 C   0  0  0  0  0  2  0  0  0  0  0  0
  185.9280  178.8240  142.8880 Cl  0  0  0  0  0  0  0  0  0  0  0  0
  187.0760  177.5410  137.8370 C   0  0  1  0  0  3  0  0  0  0  0  0
  184.2140  179.4500  139.3740 C   0  0  0  0  0  3  0  0  0  0  0  0
  186.6140  178.3050  140.2290 C   0  0  0  0  0  0  0  0  0  0  0  0
  188.3010  176.7540  138.3490 C   0  0  1  0  0  3  0  0  0  0  0  0
  189.4230  178.0710  135.2510 O   0  0  0  0  0  0  0  0  0  0  0  0
  189.2590  176.8180  137.2520 N   0  0  0  0  0  0  0  0  0  0  0  0
  192.2920  174.9940  136.1310 C   0  0  0  0  0  2  0  0  0  0  0  0
  191.8450  177.5860  138.6830 C   0  0  0  0  0  1  0  0  0  0  0  0
  185.0560  178.8500  138.4450 C   0  0  0  0  0  3  0  0  0  0  0  0
  186.2540  178.2660  138.8650 C   0  0  0  0  0  0  0  0  0  0  0  0
  191.2410  176.2910  139.2250 C   0  0  2  0  0  3  0  0  0  0  0  0
  191.2530  177.5260  145.2600 C   0  0  0  0  0  1  0  0  0  0  0  0
  191.4690  178.4270  144.0590 C   0  0  0  0  0  2  0  0  0  0  0  0
  1 20  1  6  0  0  0
  1  5  1  0  0  0  0
  2 17  1  0  0  0  0
  3 18  1  0  0  0  0
  4 13  1  0  0  0  0
  4  1  1  0  0  0  0
  5 12  1  0  0  0  0
  7 28  1  0  0  0  0
  8  6  2  0  0  0  0
  8 12  1  0  0  0  0
  9 30  1  0  0  0  0
 10 23  1  0  0  0  0
 10  7  1  0  0  0  0
 11  3  1  0  0  0  0
 11 23  1  0  0  0  0
 12  9  2  0  0  0  0
 13  8  1  0  0  0  0
 14  2  1  0  0  0  0
 15 24  1  0  0  0  0
 15 10  1  0  0  0  0
 16  7  1  0  0  0  0
 18 21  1  0  0  0  0
 18 27  1  0  0  0  0
 19 14  2  0  0  0  0
 20  2  2  0  0  0  0
 21  4  1  0  0  0  0
 22 11  2  0  0  0  0
 23 21  1  0  0  0  0
 24 16  1  0  0  0  0
 25 28  1  0  0  0  0
 26 27  2  0  0  0  0
 26 19  1  0  0  0  0
 27 20  1  0  0  0  0
 28 13  1  0  0  0  0
 30 29  1  0  0  0  0
M  END
>  <MODEL>
9

>  <REMARK>
 VINA RESULT:      -6.9      2.186      5.684
  Name = 
  1 active torsions:
  status: ('A' for Active; 'I' for Inactive)
    1  A    between atoms: C_9  and  C_21
                            x       y       z     vdW  Elec       q    Type
                         _______ _______ _______ _____ _____    ______ ____

>  <TORSDO>
F 1

$$$$
