=
 OpenBabel11052413343D

 28 32  0  0  1  0  0  0  0  0999 V2000
  190.1040  176.4190  143.6530 C   0  0  0  0  0  0  0  0  0  0  0  0
  185.2870  177.7550  143.1090 C   0  0  0  0  0  2  0  0  0  0  0  0
  189.0000  178.0170  148.2250 C   0  0  0  0  0  1  0  0  0  0  0  0
  184.7430  178.6440  145.3950 C   0  0  0  0  0  0  0  0  0  0  0  0
  186.9860  177.7950  144.9900 C   0  0  0  0  0  0  0  0  0  0  0  0
  183.1240  178.9460  143.5930 C   0  0  0  0  0  0  0  0  0  0  0  0
  185.6980  178.1000  144.5170 C   0  0  0  0  0  0  0  0  0  0  0  0
  186.3530  178.5960  147.1990 C   0  0  0  0  0  3  0  0  0  0  0  0
  183.3950  178.9700  144.9010 C   0  0  0  0  0  3  0  0  0  0  0  0
  189.5570  177.2030  145.9020 C   0  0  0  0  0  0  0  0  0  0  0  0
  187.9120  177.2570  144.1550 N   0  0  0  0  0  0  0  0  0  0  0  0
  185.0710  178.8880  146.7290 C   0  0  0  0  0  3  0  0  0  0  0  0
  191.7780  176.3530  145.4060 C   0  0  0  0  0  3  0  0  0  0  0  0
  188.6200  177.7530  146.7980 C   0  0  0  0  0  0  0  0  0  0  0  0
  190.8630  176.8930  146.3110 C   0  0  0  0  0  3  0  0  0  0  0  0
  181.8180  179.2860  143.1420 N   0  0  0  0  0  1  0  0  0  0  0  0
  184.2190  178.7190  142.5840 C   0  0  0  0  0  2  0  0  0  0  0  0
  187.3220  178.0530  146.3400 C   0  0  0  0  0  0  0  0  0  0  0  0
  191.4010  176.1190  144.0840 C   0  0  0  0  0  3  0  0  0  0  0  0
  189.1740  176.9600  144.5610 C   0  0  0  0  0  0  0  0  0  0  0  0
  189.7420  176.1780  142.2150 C   0  0  0  0  0  2  0  0  0  0  0  0
  190.0010  177.3910  141.3170 C   0  0  2  0  0  3  0  0  0  0  0  0
  190.2190  177.6870  138.9910 N   0  0  0  0  0  0  0  0  0  0  0  0
  188.8020  177.9380  140.8510 O   0  0  0  0  0  0  0  0  0  0  0  0
  192.2530  177.5510  140.3030 C   0  0  0  0  0  1  0  0  0  0  0  0
  190.8400  177.0330  140.1180 C   0  0  1  0  0  3  0  0  0  0  0  0
  189.6770  176.6410  138.1390 C   0  0  0  0  0  1  0  0  0  0  0  0
  189.0830  178.4050  139.5560 C   0  0  0  0  0  2  0  0  0  0  0  0
  1 19  2  0  0  0  0
  1 20  1  0  0  0  0
  2  7  1  0  0  0  0
  4 12  1  0  0  0  0
  5 18  1  0  0  0  0
  6  9  2  0  0  0  0
  7  5  1  0  0  0  0
  7  4  2  0  0  0  0
  9  4  1  0  0  0  0
 10 15  1  0  0  0  0
 10 14  1  0  0  0  0
 11 20  1  0  0  0  0
 11  5  2  0  0  0  0
 12  8  2  0  0  0  0
 13 15  2  0  0  0  0
 14  3  1  0  0  0  0
 16  6  1  0  0  0  0
 17  2  1  0  0  0  0
 17  6  1  0  0  0  0
 18 14  2  0  0  0  0
 18  8  1  0  0  0  0
 19 13  1  0  0  0  0
 20 10  2  0  0  0  0
 21  1  1  0  0  0  0
 22 21  1  6  0  0  0
 23 28  1  0  0  0  0
 23 26  1  0  0  0  0
 24 22  1  0  0  0  0
 26 25  1  1  0  0  0
 26 22  1  0  0  0  0
 27 23  1  0  0  0  0
 28 24  1  0  0  0  0
M  END
>  <MODEL>
1

>  <REMARK>
 VINA RESULT:     -12.3      0.000      0.000
  Name = 
  2 active torsions:
  status: ('A' for Active; 'I' for Inactive)
    1  A    between atoms: C_1  and  C_2
    2  A    between atoms: C_2  and  C_3
                            x       y       z     vdW  Elec       q    Type
                         _______ _______ _______ _____ _____    ______ ____

>  <TORSDO>
F 2

$$$$
=
 OpenBabel11052413343D

 28 32  0  0  1  0  0  0  0  0999 V2000
  189.3850  177.1520  141.8280 C   0  0  0  0  0  0  0  0  0  0  0  0
  184.4850  178.1120  142.4160 C   0  0  0  0  0  2  0  0  0  0  0  0
  189.0990  177.8520  146.7370 C   0  0  0  0  0  1  0  0  0  0  0  0
  184.3430  178.5510  144.8860 C   0  0  0  0  0  0  0  0  0  0  0  0
  186.5110  177.9920  143.9350 C   0  0  0  0  0  0  0  0  0  0  0  0
  182.3900  179.0010  143.4920 C   0  0  0  0  0  0  0  0  0  0  0  0
  185.1400  178.2520  143.7650 C   0  0  0  0  0  0  0  0  0  0  0  0
  186.2740  178.3490  146.3300 C   0  0  0  0  0  3  0  0  0  0  0  0
  182.9090  178.8300  144.7120 C   0  0  0  0  0  3  0  0  0  0  0  0
  189.2400  177.4940  144.2430 C   0  0  0  0  0  0  0  0  0  0  0  0
  187.2870  177.6890  142.8610 N   0  0  0  0  0  0  0  0  0  0  0  0
  184.9100  178.5970  146.1600 C   0  0  0  0  0  3  0  0  0  0  0  0
  191.3690  176.9470  143.2080 C   0  0  0  0  0  3  0  0  0  0  0  0
  188.4640  177.7970  145.3790 C   0  0  0  0  0  0  0  0  0  0  0  0
  190.6160  177.2410  144.3460 C   0  0  0  0  0  3  0  0  0  0  0  0
  181.0050  179.2900  143.3540 N   0  0  0  0  0  1  0  0  0  0  0  0
  183.2800  179.0480  142.2780 C   0  0  0  0  0  2  0  0  0  0  0  0
  187.0880  178.0490  145.2250 C   0  0  0  0  0  0  0  0  0  0  0  0
  190.7560  176.9040  141.9550 C   0  0  0  0  0  3  0  0  0  0  0  0
  188.6190  177.4450  142.9720 C   0  0  0  0  0  0  0  0  0  0  0  0
  188.7660  177.1230  140.4590 C   0  0  0  0  0  2  0  0  0  0  0  0
  189.5710  177.9030  139.4170 C   0  0  2  0  0  3  0  0  0  0  0  0
  189.7190  177.8220  137.0680 N   0  0  0  0  0  0  0  0  0  0  0  0
  188.8350  178.9800  138.9140 O   0  0  0  0  0  0  0  0  0  0  0  0
  191.4470  176.6960  138.3440 C   0  0  0  0  0  1  0  0  0  0  0  0
  189.9720  177.0350  138.2520 C   0  0  1  0  0  3  0  0  0  0  0  0
  188.6230  177.1810  136.3590 C   0  0  0  0  0  1  0  0  0  0  0  0
  189.2170  179.0960  137.5670 C   0  0  0  0  0  2  0  0  0  0  0  0
  1 19  2  0  0  0  0
  1 20  1  0  0  0  0
  2  7  1  0  0  0  0
  4 12  1  0  0  0  0
  5 18  1  0  0  0  0
  6  9  2  0  0  0  0
  7  5  1  0  0  0  0
  7  4  2  0  0  0  0
  9  4  1  0  0  0  0
 10 15  1  0  0  0  0
 10 14  1  0  0  0  0
 11 20  1  0  0  0  0
 11  5  2  0  0  0  0
 12  8  2  0  0  0  0
 13 15  2  0  0  0  0
 14  3  1  0  0  0  0
 16  6  1  0  0  0  0
 17  2  1  0  0  0  0
 17  6  1  0  0  0  0
 18 14  2  0  0  0  0
 18  8  1  0  0  0  0
 19 13  1  0  0  0  0
 20 10  2  0  0  0  0
 21  1  1  0  0  0  0
 22 21  1  1  0  0  0
 23 28  1  0  0  0  0
 23 26  1  0  0  0  0
 24 22  1  0  0  0  0
 26 25  1  1  0  0  0
 26 22  1  0  0  0  0
 27 23  1  0  0  0  0
 28 24  1  0  0  0  0
M  END
>  <MODEL>
2

>  <REMARK>
 VINA RESULT:     -11.0      1.243      1.662
  Name = 
  2 active torsions:
  status: ('A' for Active; 'I' for Inactive)
    1  A    between atoms: C_1  and  C_2
    2  A    between atoms: C_2  and  C_3
                            x       y       z     vdW  Elec       q    Type
                         _______ _______ _______ _____ _____    ______ ____

>  <TORSDO>
F 2

$$$$
=
 OpenBabel11052413343D

 28 32  0  0  1  0  0  0  0  0999 V2000
  187.1520  178.3300  141.0120 C   0  0  0  0  0  0  0  0  0  0  0  0
  190.5220  177.2840  144.5930 C   0  0  0  0  0  2  0  0  0  0  0  0
  184.3410  178.5370  145.1020 C   0  0  0  0  0  1  0  0  0  0  0  0
  189.0930  177.3020  146.6600 C   0  0  0  0  0  0  0  0  0  0  0  0
  188.0350  177.7700  144.5200 C   0  0  0  0  0  0  0  0  0  0  0  0
  191.3980  176.5180  146.8250 C   0  0  0  0  0  0  0  0  0  0  0  0
  189.1780  177.4240  145.2610 C   0  0  0  0  0  0  0  0  0  0  0  0
  186.7380  177.8510  146.5780 C   0  0  0  0  0  3  0  0  0  0  0  0
  190.2860  176.9330  147.4380 C   0  0  0  0  0  3  0  0  0  0  0  0
  185.7730  178.4340  143.0260 C   0  0  0  0  0  0  0  0  0  0  0  0
  188.1090  177.9030  143.1700 N   0  0  0  0  0  0  0  0  0  0  0  0
  187.8780  177.5170  147.3130 C   0  0  0  0  0  3  0  0  0  0  0  0
  184.7940  178.8730  140.8460 C   0  0  0  0  0  3  0  0  0  0  0  0
  185.6610  178.3130  144.4250 C   0  0  0  0  0  0  0  0  0  0  0  0
  184.6640  178.7620  142.2310 C   0  0  0  0  0  3  0  0  0  0  0  0
  192.5300  176.1480  147.6030 N   0  0  0  0  0  1  0  0  0  0  0  0
  191.4160  176.2860  145.3370 C   0  0  0  0  0  2  0  0  0  0  0  0
  186.8000  177.9770  145.1810 C   0  0  0  0  0  0  0  0  0  0  0  0
  186.0320  178.6570  140.2400 C   0  0  0  0  0  3  0  0  0  0  0  0
  187.0290  178.2210  142.4100 C   0  0  0  0  0  0  0  0  0  0  0  0
  188.4620  178.0790  140.3210 C   0  0  0  0  0  2  0  0  0  0  0  0
  188.3020  177.6970  138.8470 C   0  0  2  0  0  3  0  0  0  0  0  0
  189.8110  177.1250  137.1320 N   0  0  0  0  0  0  0  0  0  0  0  0
  188.2490  176.3090  138.6890 O   0  0  0  0  0  0  0  0  0  0  0  0
  188.9790  179.4020  137.1860 C   0  0  0  0  0  1  0  0  0  0  0  0
  189.4410  178.2130  138.0060 C   0  0  1  0  0  3  0  0  0  0  0  0
  191.1370  176.6880  137.5380 C   0  0  0  0  0  1  0  0  0  0  0  0
  188.8870  176.0480  137.4650 C   0  0  0  0  0  2  0  0  0  0  0  0
  1 20  1  0  0  0  0
  2  7  1  0  0  0  0
  2 17  1  0  0  0  0
  4 12  1  0  0  0  0
  4  9  1  0  0  0  0
  5 18  1  0  0  0  0
  5  7  1  0  0  0  0
  6  9  2  0  0  0  0
  6 16  1  0  0  0  0
  7  4  2  0  0  0  0
  8 12  2  0  0  0  0
 10 14  1  0  0  0  0
 11  5  2  0  0  0  0
 13 15  2  0  0  0  0
 14  3  1  0  0  0  0
 14 18  2  0  0  0  0
 15 10  1  0  0  0  0
 17  6  1  0  0  0  0
 18  8  1  0  0  0  0
 19 13  1  0  0  0  0
 19  1  2  0  0  0  0
 20 10  2  0  0  0  0
 20 11  1  0  0  0  0
 21  1  1  0  0  0  0
 22 21  1  1  0  0  0
 23 28  1  0  0  0  0
 23 27  1  0  0  0  0
 23 26  1  0  0  0  0
 24 22  1  0  0  0  0
 26 25  1  6  0  0  0
 26 22  1  0  0  0  0
 28 24  1  0  0  0  0
M  END
>  <MODEL>
3

>  <REMARK>
 VINA RESULT:     -11.0      1.931      5.320
  Name = 
  2 active torsions:
  status: ('A' for Active; 'I' for Inactive)
    1  A    between atoms: C_1  and  C_2
    2  A    between atoms: C_2  and  C_3
                            x       y       z     vdW  Elec       q    Type
                         _______ _______ _______ _____ _____    ______ ____

>  <TORSDO>
F 2

$$$$
=
 OpenBabel11052413343D

 28 32  0  0  1  0  0  0  0  0999 V2000
  190.5640  176.0080  144.5950 C   0  0  0  0  0  0  0  0  0  0  0  0
  185.9300  177.3890  143.2180 C   0  0  0  0  0  2  0  0  0  0  0  0
  188.9070  178.1780  148.7450 C   0  0  0  0  0  1  0  0  0  0  0  0
  185.1120  178.5630  145.2840 C   0  0  0  0  0  0  0  0  0  0  0  0
  187.3520  177.6150  145.3050 C   0  0  0  0  0  0  0  0  0  0  0  0
  183.7730  178.6850  143.2470 C   0  0  0  0  0  0  0  0  0  0  0  0
  186.1560  177.8930  144.6200 C   0  0  0  0  0  0  0  0  0  0  0  0
  186.4540  178.6940  147.2920 C   0  0  0  0  0  3  0  0  0  0  0  0
  183.8610  178.8610  144.5680 C   0  0  0  0  0  3  0  0  0  0  0  0
  189.7450  177.0740  146.6360 C   0  0  0  0  0  0  0  0  0  0  0  0
  188.3620  176.9560  144.6780 N   0  0  0  0  0  0  0  0  0  0  0  0
  185.2630  178.9600  146.6130 C   0  0  0  0  0  3  0  0  0  0  0  0
  191.9760  176.1140  146.5650 C   0  0  0  0  0  3  0  0  0  0  0  0
  188.7170  177.7520  147.3190 C   0  0  0  0  0  0  0  0  0  0  0  0
  190.9670  176.7820  147.2610 C   0  0  0  0  0  3  0  0  0  0  0  0
  182.5580  179.0000  142.5780 N   0  0  0  0  0  1  0  0  0  0  0  0
  184.9860  178.3090  142.4370 C   0  0  0  0  0  2  0  0  0  0  0  0
  187.5090  178.0270  146.6490 C   0  0  0  0  0  0  0  0  0  0  0  0
  191.7750  175.7300  145.2390 C   0  0  0  0  0  3  0  0  0  0  0  0
  189.5420  176.6790  145.2930 C   0  0  0  0  0  0  0  0  0  0  0  0
  190.3950  175.6030  143.1590 C   0  0  0  0  0  2  0  0  0  0  0  0
  190.3110  176.7960  142.2030 C   0  0  2  0  0  3  0  0  0  0  0  0
  191.8630  177.8850  140.8050 N   0  0  0  0  0  0  0  0  0  0  0  0
  190.0620  176.3740  140.8920 O   0  0  0  0  0  0  0  0  0  0  0  0
  191.3860  178.8930  142.9580 C   0  0  0  0  0  1  0  0  0  0  0  0
  191.5860  177.5990  142.1930 C   0  0  1  0  0  3  0  0  0  0  0  0
  193.0650  177.1460  140.4520 C   0  0  0  0  0  1  0  0  0  0  0  0
  190.7600  177.2770  140.0720 C   0  0  0  0  0  2  0  0  0  0  0  0
  1 19  2  0  0  0  0
  1 20  1  0  0  0  0
  2  7  1  0  0  0  0
  4 12  1  0  0  0  0
  5 18  1  0  0  0  0
  6  9  2  0  0  0  0
  7  4  2  0  0  0  0
  7  5  1  0  0  0  0
  9  4  1  0  0  0  0
 10 15  1  0  0  0  0
 10 14  1  0  0  0  0
 11 20  1  0  0  0  0
 11  5  2  0  0  0  0
 12  8  2  0  0  0  0
 13 15  2  0  0  0  0
 14  3  1  0  0  0  0
 16  6  1  0  0  0  0
 17  2  1  0  0  0  0
 17  6  1  0  0  0  0
 18  8  1  0  0  0  0
 18 14  2  0  0  0  0
 19 13  1  0  0  0  0
 20 10  2  0  0  0  0
 21  1  1  0  0  0  0
 22 21  1  1  0  0  0
 23 26  1  0  0  0  0
 24 22  1  0  0  0  0
 26 22  1  0  0  0  0
 26 25  1  1  0  0  0
 27 23  1  0  0  0  0
 28 23  1  0  0  0  0
 28 24  1  0  0  0  0
M  END
>  <MODEL>
4

>  <REMARK>
 VINA RESULT:     -10.6      1.088      1.477
  Name = 
  2 active torsions:
  status: ('A' for Active; 'I' for Inactive)
    1  A    between atoms: C_1  and  C_2
    2  A    between atoms: C_2  and  C_3
                            x       y       z     vdW  Elec       q    Type
                         _______ _______ _______ _____ _____    ______ ____

>  <TORSDO>
F 2

$$$$
=
 OpenBabel11052413343D

 28 32  0  0  1  0  0  0  0  0999 V2000
  184.8990  178.8160  143.8070 C   0  0  0  0  0  0  0  0  0  0  0  0
  188.3620  177.9610  140.2630 C   0  0  0  0  0  2  0  0  0  0  0  0
  188.6770  177.0680  146.5190 C   0  0  0  0  0  1  0  0  0  0  0  0
  190.2480  176.9970  141.6140 C   0  0  0  0  0  0  0  0  0  0  0  0
  188.2160  177.6580  142.7760 C   0  0  0  0  0  0  0  0  0  0  0  0
  190.3940  176.9470  139.1780 C   0  0  0  0  0  0  0  0  0  0  0  0
  188.9350  177.5000  141.5780 C   0  0  0  0  0  0  0  0  0  0  0  0
  190.1190  176.7940  144.0210 C   0  0  0  0  0  3  0  0  0  0  0  0
  191.0020  176.8240  140.3620 C   0  0  0  0  0  3  0  0  0  0  0  0
  186.7610  177.9580  145.1390 C   0  0  0  0  0  0  0  0  0  0  0  0
  186.9520  178.1550  142.7540 N   0  0  0  0  0  0  0  0  0  0  0  0
  190.8350  176.6480  142.8310 C   0  0  0  0  0  3  0  0  0  0  0  0
  184.6890  178.6280  146.2160 C   0  0  0  0  0  3  0  0  0  0  0  0
  188.0710  177.4470  145.1990 C   0  0  0  0  0  0  0  0  0  0  0  0
  185.9870  178.1240  146.2980 C   0  0  0  0  0  3  0  0  0  0  0  0
  191.1420  176.7550  137.9840 N   0  0  0  0  0  1  0  0  0  0  0  0
  188.9020  177.1300  139.0940 C   0  0  0  0  0  2  0  0  0  0  0  0
  188.8070  177.2930  144.0090 C   0  0  0  0  0  0  0  0  0  0  0  0
  184.1470  178.9700  144.9770 C   0  0  0  0  0  3  0  0  0  0  0  0
  186.2120  178.3120  143.8830 C   0  0  0  0  0  0  0  0  0  0  0  0
  184.2730  179.1710  142.4890 C   0  0  0  0  0  2  0  0  0  0  0  0
  183.1120  178.2500  142.1060 C   0  0  2  0  0  3  0  0  0  0  0  0
  181.1770  178.5170  140.7900 N   0  0  0  0  0  0  0  0  0  0  0  0
  183.3500  177.6210  140.8800 O   0  0  0  0  0  0  0  0  0  0  0  0
  180.9370  178.7080  143.1950 C   0  0  0  0  0  1  0  0  0  0  0  0
  181.8120  179.0030  141.9920 C   0  0  1  0  0  3  0  0  0  0  0  0
  181.1730  179.6170  139.8380 C   0  0  0  0  0  1  0  0  0  0  0  0
  182.0900  177.5070  140.2680 C   0  0  0  0  0  2  0  0  0  0  0  0
  1 20  2  0  0  0  0
  1 19  1  0  0  0  0
  2  7  1  0  0  0  0
  4 12  1  0  0  0  0
  5 18  1  0  0  0  0
  6  9  2  0  0  0  0
  7  4  2  0  0  0  0
  7  5  1  0  0  0  0
  9  4  1  0  0  0  0
 10 14  1  0  0  0  0
 10 15  2  0  0  0  0
 11  5  2  0  0  0  0
 11 20  1  0  0  0  0
 12  8  2  0  0  0  0
 13 15  1  0  0  0  0
 14  3  1  0  0  0  0
 16  6  1  0  0  0  0
 17  6  1  0  0  0  0
 17  2  1  0  0  0  0
 18  8  1  0  0  0  0
 18 14  2  0  0  0  0
 19 13  2  0  0  0  0
 20 10  1  0  0  0  0
 21  1  1  0  0  0  0
 22 21  1  6  0  0  0
 23 26  1  0  0  0  0
 24 22  1  0  0  0  0
 26 22  1  0  0  0  0
 26 25  1  1  0  0  0
 27 23  1  0  0  0  0
 28 23  1  0  0  0  0
 28 24  1  0  0  0  0
M  END
>  <MODEL>
5

>  <REMARK>
 VINA RESULT:     -10.2      1.908      6.726
  Name = 
  2 active torsions:
  status: ('A' for Active; 'I' for Inactive)
    1  A    between atoms: C_1  and  C_2
    2  A    between atoms: C_2  and  C_3
                            x       y       z     vdW  Elec       q    Type
                         _______ _______ _______ _____ _____    ______ ____

>  <TORSDO>
F 2

$$$$
=
 OpenBabel11052413343D

 28 32  0  0  1  0  0  0  0  0999 V2000
  189.7670  177.6230  140.5050 C   0  0  0  0  0  0  0  0  0  0  0  0
  185.1140  178.1770  142.3260 C   0  0  0  0  0  2  0  0  0  0  0  0
  190.5880  177.3830  145.3980 C   0  0  0  0  0  1  0  0  0  0  0  0
  185.5280  178.1420  144.8050 C   0  0  0  0  0  0  0  0  0  0  0  0
  187.4320  177.8930  143.3120 C   0  0  0  0  0  0  0  0  0  0  0  0
  183.3050  178.7310  143.9870 C   0  0  0  0  0  0  0  0  0  0  0  0
  186.0550  178.1020  143.5010 C   0  0  0  0  0  0  0  0  0  0  0  0
  187.7370  177.7860  145.7240 C   0  0  0  0  0  3  0  0  0  0  0  0
  184.0870  178.3670  145.0070 C   0  0  0  0  0  3  0  0  0  0  0  0
  190.1670  177.5030  142.9130 C   0  0  0  0  0  0  0  0  0  0  0  0
  187.9500  177.8390  142.0570 N   0  0  0  0  0  0  0  0  0  0  0  0
  186.3670  177.9830  145.9080 C   0  0  0  0  0  3  0  0  0  0  0  0
  192.0140  177.2790  141.3500 C   0  0  0  0  0  3  0  0  0  0  0  0
  189.6640  177.5450  144.2270 C   0  0  0  0  0  0  0  0  0  0  0  0
  191.5340  177.3130  142.6600 C   0  0  0  0  0  3  0  0  0  0  0  0
  181.9200  178.9620  144.2140 N   0  0  0  0  0  1  0  0  0  0  0  0
  183.8960  179.0530  142.6400 C   0  0  0  0  0  2  0  0  0  0  0  0
  188.2850  177.7430  144.4310 C   0  0  0  0  0  0  0  0  0  0  0  0
  191.1350  177.4350  140.2780 C   0  0  0  0  0  3  0  0  0  0  0  0
  189.2760  177.6550  141.8240 C   0  0  0  0  0  0  0  0  0  0  0  0
  188.8550  177.8140  139.3260 C   0  0  0  0  0  2  0  0  0  0  0  0
  189.5210  177.4780  137.9900 C   0  0  2  0  0  3  0  0  0  0  0  0
  188.7940  176.4030  136.0240 N   0  0  0  0  0  0  0  0  0  0  0  0
  189.2700  178.4720  137.0380 O   0  0  0  0  0  0  0  0  0  0  0  0
  190.0890  175.1000  137.6060 C   0  0  0  0  0  1  0  0  0  0  0  0
  189.0290  176.1700  137.4290 C   0  0  1  0  0  3  0  0  0  0  0  0
  187.3580  176.3140  135.8130 C   0  0  0  0  0  1  0  0  0  0  0  0
  189.1700  177.7960  135.8100 C   0  0  0  0  0  2  0  0  0  0  0  0
  1 20  1  0  0  0  0
  2 17  1  0  0  0  0
  2  7  1  0  0  0  0
  4  9  1  0  0  0  0
  4 12  1  0  0  0  0
  5  7  1  0  0  0  0
  5 18  1  0  0  0  0
  6 16  1  0  0  0  0
  6  9  2  0  0  0  0
  7  4  2  0  0  0  0
  8 12  2  0  0  0  0
 10 14  1  0  0  0  0
 11  5  2  0  0  0  0
 13 15  2  0  0  0  0
 14 18  2  0  0  0  0
 14  3  1  0  0  0  0
 15 10  1  0  0  0  0
 17  6  1  0  0  0  0
 18  8  1  0  0  0  0
 19  1  2  0  0  0  0
 19 13  1  0  0  0  0
 20 11  1  0  0  0  0
 20 10  2  0  0  0  0
 21  1  1  0  0  0  0
 22 21  1  1  0  0  0
 23 26  1  0  0  0  0
 24 22  1  0  0  0  0
 26 25  1  6  0  0  0
 26 22  1  0  0  0  0
 27 23  1  0  0  0  0
 28 23  1  0  0  0  0
 28 24  1  0  0  0  0
M  END
>  <MODEL>
6

>  <REMARK>
 VINA RESULT:     -10.0      1.646      2.844
  Name = 
  2 active torsions:
  status: ('A' for Active; 'I' for Inactive)
    1  A    between atoms: C_1  and  C_2
    2  A    between atoms: C_2  and  C_3
                            x       y       z     vdW  Elec       q    Type
                         _______ _______ _______ _____ _____    ______ ____

>  <TORSDO>
F 2

$$$$
=
 OpenBabel11052413343D

 28 32  0  0  1  0  0  0  0  0999 V2000
  186.8250  178.1400  141.9510 C   0  0  0  0  0  0  0  0  0  0  0  0
  190.7100  176.9470  144.9110 C   0  0  0  0  0  2  0  0  0  0  0  0
  184.7950  178.5700  146.4650 C   0  0  0  0  0  1  0  0  0  0  0  0
  189.6710  177.0790  147.1950 C   0  0  0  0  0  0  0  0  0  0  0  0
  188.2800  177.5780  145.2630 C   0  0  0  0  0  0  0  0  0  0  0  0
  191.9220  176.1620  146.9730 C   0  0  0  0  0  0  0  0  0  0  0  0
  189.5150  177.1750  145.8000 C   0  0  0  0  0  0  0  0  0  0  0  0
  187.3730  177.7650  147.5140 C   0  0  0  0  0  3  0  0  0  0  0  0
  190.9610  176.6510  147.7610 C   0  0  0  0  0  3  0  0  0  0  0  0
  185.8300  178.3530  144.1730 C   0  0  0  0  0  0  0  0  0  0  0  0
  188.1220  177.6870  143.9180 N   0  0  0  0  0  0  0  0  0  0  0  0
  188.6040  177.3740  148.0450 C   0  0  0  0  0  3  0  0  0  0  0  0
  184.5080  178.8180  142.1890 C   0  0  0  0  0  3  0  0  0  0  0  0
  185.9600  178.2580  145.5720 C   0  0  0  0  0  0  0  0  0  0  0  0
  184.6180  178.7350  143.5770 C   0  0  0  0  0  3  0  0  0  0  0  0
  193.1520  175.7380  147.5480 N   0  0  0  0  0  1  0  0  0  0  0  0
  191.6640  175.9090  145.5110 C   0  0  0  0  0  2  0  0  0  0  0  0
  187.1950  177.8660  146.1250 C   0  0  0  0  0  0  0  0  0  0  0  0
  185.6060  178.5210  141.3800 C   0  0  0  0  0  3  0  0  0  0  0  0
  186.9440  178.0580  143.3520 C   0  0  0  0  0  0  0  0  0  0  0  0
  187.9760  177.8020  141.0480 C   0  0  0  0  0  2  0  0  0  0  0  0
  187.8200  178.3720  139.6350 C   0  0  2  0  0  3  0  0  0  0  0  0
  187.7080  177.4120  137.4870 N   0  0  0  0  0  0  0  0  0  0  0  0
  186.4780  178.3820  139.2420 O   0  0  0  0  0  0  0  0  0  0  0  0
  189.8360  178.3300  138.2000 C   0  0  0  0  0  1  0  0  0  0  0  0
  188.5910  177.5710  138.6180 C   0  0  1  0  0  3  0  0  0  0  0  0
  187.3660  176.0000  137.4120 C   0  0  0  0  0  1  0  0  0  0  0  0
  186.4930  178.1250  137.8600 C   0  0  0  0  0  2  0  0  0  0  0  0
  1 20  1  0  0  0  0
  2 17  1  0  0  0  0
  2  7  1  0  0  0  0
  4  9  1  0  0  0  0
  4 12  1  0  0  0  0
  5  7  1  0  0  0  0
  5 18  1  0  0  0  0
  6 16  1  0  0  0  0
  6  9  2  0  0  0  0
  7  4  2  0  0  0  0
  8 12  2  0  0  0  0
 10 14  1  0  0  0  0
 11  5  2  0  0  0  0
 13 15  2  0  0  0  0
 14 18  2  0  0  0  0
 14  3  1  0  0  0  0
 15 10  1  0  0  0  0
 17  6  1  0  0  0  0
 18  8  1  0  0  0  0
 19  1  2  0  0  0  0
 19 13  1  0  0  0  0
 20 11  1  0  0  0  0
 20 10  2  0  0  0  0
 21  1  1  0  0  0  0
 22 21  1  1  0  0  0
 23 28  1  0  0  0  0
 23 26  1  0  0  0  0
 24 22  1  0  0  0  0
 26 25  1  6  0  0  0
 26 22  1  0  0  0  0
 27 23  1  0  0  0  0
 28 24  1  0  0  0  0
M  END
>  <MODEL>
7

>  <REMARK>
 VINA RESULT:      -9.8      2.028      5.364
  Name = 
  2 active torsions:
  status: ('A' for Active; 'I' for Inactive)
    1  A    between atoms: C_1  and  C_2
    2  A    between atoms: C_2  and  C_3
                            x       y       z     vdW  Elec       q    Type
                         _______ _______ _______ _____ _____    ______ ____

>  <TORSDO>
F 2

$$$$
=
 OpenBabel11052413343D

 28 32  0  0  1  0  0  0  0  0999 V2000
  187.7200  178.2100  139.9710 C   0  0  0  0  0  0  0  0  0  0  0  0
  190.6390  177.3320  143.9690 C   0  0  0  0  0  2  0  0  0  0  0  0
  184.4310  178.5200  143.6810 C   0  0  0  0  0  1  0  0  0  0  0  0
  188.9700  177.4030  145.8460 C   0  0  0  0  0  0  0  0  0  0  0  0
  188.1750  177.7820  143.5790 C   0  0  0  0  0  0  0  0  0  0  0  0
  191.2450  176.6550  146.3170 C   0  0  0  0  0  0  0  0  0  0  0  0
  189.2230  177.4770  144.4640 C   0  0  0  0  0  0  0  0  0  0  0  0
  186.6380  177.9170  145.4600 C   0  0  0  0  0  3  0  0  0  0  0  0
  190.0630  177.0770  146.7760 C   0  0  0  0  0  3  0  0  0  0  0  0
  186.1050  178.3650  141.7990 C   0  0  0  0  0  0  0  0  0  0  0  0
  188.4120  177.8700  142.2440 N   0  0  0  0  0  0  0  0  0  0  0  0
  187.6830  177.6230  146.3380 C   0  0  0  0  0  3  0  0  0  0  0  0
  185.3940  178.7150  139.5020 C   0  0  0  0  0  3  0  0  0  0  0  0
  185.8260  178.2890  143.1770 C   0  0  0  0  0  0  0  0  0  0  0  0
  185.0980  178.6500  140.8650 C   0  0  0  0  0  3  0  0  0  0  0  0
  192.2780  176.3280  147.2380 N   0  0  0  0  0  1  0  0  0  0  0  0
  191.4460  176.3730  144.8510 C   0  0  0  0  0  2  0  0  0  0  0  0
  186.8680  177.9950  144.0770 C   0  0  0  0  0  0  0  0  0  0  0  0
  186.6990  178.4950  139.0580 C   0  0  0  0  0  3  0  0  0  0  0  0
  187.4280  178.1470  141.3470 C   0  0  0  0  0  0  0  0  0  0  0  0
  189.1060  177.9530  139.4530 C   0  0  0  0  0  2  0  0  0  0  0  0
  189.2800  176.5480  138.8700 C   0  0  2  0  0  3  0  0  0  0  0  0
  190.3260  175.6960  136.9390 N   0  0  0  0  0  0  0  0  0  0  0  0
  190.4970  175.9850  139.2680 O   0  0  0  0  0  0  0  0  0  0  0  0
  187.9220  176.0070  136.8740 C   0  0  0  0  0  1  0  0  0  0  0  0
  189.2470  176.5570  137.3640 C   0  0  1  0  0  3  0  0  0  0  0  0
  191.3170  176.5440  136.2970 C   0  0  0  0  0  1  0  0  0  0  0  0
  190.9220  175.2080  138.1770 C   0  0  0  0  0  2  0  0  0  0  0  0
  1 20  1  0  0  0  0
  2  7  1  0  0  0  0
  2 17  1  0  0  0  0
  4 12  1  0  0  0  0
  4  9  1  0  0  0  0
  5 18  1  0  0  0  0
  5  7  1  0  0  0  0
  6  9  2  0  0  0  0
  6 16  1  0  0  0  0
  7  4  2  0  0  0  0
  8 12  2  0  0  0  0
 10 14  1  0  0  0  0
 11  5  2  0  0  0  0
 13 15  2  0  0  0  0
 14  3  1  0  0  0  0
 14 18  2  0  0  0  0
 15 10  1  0  0  0  0
 17  6  1  0  0  0  0
 18  8  1  0  0  0  0
 19 13  1  0  0  0  0
 19  1  2  0  0  0  0
 20 10  2  0  0  0  0
 20 11  1  0  0  0  0
 21  1  1  0  0  0  0
 22 24  1  0  0  0  0
 22 21  1  6  0  0  0
 23 26  1  0  0  0  0
 23 28  1  0  0  0  0
 26 25  1  1  0  0  0
 26 22  1  0  0  0  0
 27 23  1  0  0  0  0
 28 24  1  0  0  0  0
M  END
>  <MODEL>
8

>  <REMARK>
 VINA RESULT:      -9.8      2.090      5.498
  Name = 
  2 active torsions:
  status: ('A' for Active; 'I' for Inactive)
    1  A    between atoms: C_1  and  C_2
    2  A    between atoms: C_2  and  C_3
                            x       y       z     vdW  Elec       q    Type
                         _______ _______ _______ _____ _____    ______ ____

>  <TORSDO>
F 2

$$$$
=
 OpenBabel11052413343D

 28 32  0  0  1  0  0  0  0  0999 V2000
  187.1860  178.2890  140.0200 C   0  0  0  0  0  0  0  0  0  0  0  0
  187.2130  177.6570  145.0080 C   0  0  0  0  0  2  0  0  0  0  0  0
  191.9810  177.3020  140.8630 C   0  0  0  0  0  1  0  0  0  0  0  0
  189.6510  177.2410  145.4570 C   0  0  0  0  0  0  0  0  0  0  0  0
  188.9470  177.6150  143.1580 C   0  0  0  0  0  0  0  0  0  0  0  0
  188.1400  177.5640  147.3470 C   0  0  0  0  0  0  0  0  0  0  0  0
  188.6370  177.5360  144.5270 C   0  0  0  0  0  0  0  0  0  0  0  0
  191.2750  177.1220  143.6670 C   0  0  0  0  0  3  0  0  0  0  0  0
  189.3310  177.1640  146.8910 C   0  0  0  0  0  3  0  0  0  0  0  0
  189.5440  177.8000  140.4380 C   0  0  0  0  0  0  0  0  0  0  0  0
  187.9730  177.8870  142.2510 N   0  0  0  0  0  0  0  0  0  0  0  0
  190.9620  177.0340  145.0260 C   0  0  0  0  0  3  0  0  0  0  0  0
  188.7570  178.2010  138.1750 C   0  0  0  0  0  3  0  0  0  0  0  0
  190.5770  177.5090  141.3500 C   0  0  0  0  0  0  0  0  0  0  0  0
  189.7940  177.9080  139.0620 C   0  0  0  0  0  3  0  0  0  0  0  0
  187.8650  177.4970  148.7400 N   0  0  0  0  0  1  0  0  0  0  0  0
  187.1480  178.2290  146.4280 C   0  0  0  0  0  2  0  0  0  0  0  0
  190.2780  177.4170  142.7230 C   0  0  0  0  0  0  0  0  0  0  0  0
  187.4600  178.3920  138.6520 C   0  0  0  0  0  3  0  0  0  0  0  0
  188.2260  177.9880  140.9200 C   0  0  0  0  0  0  0  0  0  0  0  0
  185.7820  178.5260  140.4990 C   0  0  0  0  0  2  0  0  0  0  0  0
  184.7900  178.7700  139.3590 C   0  0  2  0  0  3  0  0  0  0  0  0
  182.4400  178.8230  139.2200 N   0  0  0  0  0  0  0  0  0  0  0  0
  184.4040  180.1130  139.3060 O   0  0  0  0  0  0  0  0  0  0  0  0
  183.5630  176.7900  138.5240 C   0  0  0  0  0  1  0  0  0  0  0  0
  183.5430  177.9390  139.5130 C   0  0  1  0  0  3  0  0  0  0  0  0
  181.7090  179.0160  140.4620 C   0  0  0  0  0  1  0  0  0  0  0  0
  183.0620  180.0990  138.8900 C   0  0  0  0  0  2  0  0  0  0  0  0
  1 21  1  0  0  0  0
  1 20  1  0  0  0  0
  2 17  1  0  0  0  0
  3 14  1  0  0  0  0
  4  9  1  0  0  0  0
  5  7  1  0  0  0  0
  6 16  1  0  0  0  0
  7  2  1  0  0  0  0
  7  4  2  0  0  0  0
  8 12  2  0  0  0  0
  9  6  2  0  0  0  0
 10 20  2  0  0  0  0
 10 14  1  0  0  0  0
 11  5  2  0  0  0  0
 12  4  1  0  0  0  0
 13 19  1  0  0  0  0
 13 15  2  0  0  0  0
 14 18  2  0  0  0  0
 15 10  1  0  0  0  0
 17  6  1  0  0  0  0
 18  5  1  0  0  0  0
 18  8  1  0  0  0  0
 19  1  2  0  0  0  0
 20 11  1  0  0  0  0
 22 26  1  0  0  0  0
 22 21  1  1  0  0  0
 23 26  1  0  0  0  0
 23 27  1  0  0  0  0
 24 22  1  0  0  0  0
 26 25  1  6  0  0  0
 28 23  1  0  0  0  0
 28 24  1  0  0  0  0
M  END
>  <MODEL>
9

>  <REMARK>
 VINA RESULT:      -9.7      2.452      6.167
  Name = 
  2 active torsions:
  status: ('A' for Active; 'I' for Inactive)
    1  A    between atoms: C_1  and  C_2
    2  A    between atoms: C_2  and  C_3
                            x       y       z     vdW  Elec       q    Type
                         _______ _______ _______ _____ _____    ______ ____

>  <TORSDO>
F 2

$$$$
