=
 OpenBabel11052412263D

 30 32  0  0  1  0  0  0  0  0999 V2000
  184.9590  178.0330  143.3620 C   0  0  1  0  0  3  0  0  0  0  0  0
  186.3040  178.0040  144.0700 C   0  0  1  0  0  3  0  0  0  0  0  0
  186.0160  178.2430  145.5390 C   0  0  0  0  0  2  0  0  0  0  0  0
  183.9220  178.4810  144.3800 C   0  0  0  0  0  2  0  0  0  0  0  0
  184.7000  178.9860  145.5750 C   0  0  0  0  0  2  0  0  0  0  0  0
  185.6000  180.0220  142.2380 O   0  0  0  0  0  0  0  0  0  0  0  0
  184.9950  178.9580  142.1790 C   0  0  0  0  0  0  0  0  0  0  0  0
  184.2350  178.5790  140.9440 C   0  0  2  0  0  3  0  0  0  0  0  0
  185.9610  178.6130  139.2720 O   0  0  0  0  0  0  0  0  0  0  0  0
  184.8800  179.1060  139.6960 C   0  0  0  0  0  0  0  0  0  0  0  0
  184.2580  180.1650  138.9770 N   0  0  0  0  0  1  0  0  0  0  0  0
  182.7750  179.0090  141.0610 C   0  0  0  0  0  2  0  0  0  0  0  0
  181.7370  177.4930  139.5480 C   0  0  0  0  0  1  0  0  0  0  0  0
  181.8760  177.8560  140.9540 N   0  0  0  0  0  0  0  0  0  0  0  0
  180.6030  178.1500  141.5070 N   0  0  0  0  0  2  0  0  0  0  0  0
  180.2450  178.3680  143.9020 C   0  0  0  0  0  2  0  0  0  0  0  0
  179.3130  179.3270  143.1960 C   0  0  0  0  0  2  0  0  0  0  0  0
  180.6990  179.0750  142.6430 C   0  0  0  0  0  3  0  0  0  0  0  0
  186.9580  176.6460  143.8690 C   0  0  0  0  0  2  0  0  0  0  0  0
  188.2440  176.7960  143.2000 N   0  0  0  0  0  0  0  0  0  0  0  0
  187.9770  177.1410  141.9190 O   0  0  0  0  0  1  0  0  0  0  0  0
  188.9240  177.9370  143.7990 C   0  0  0  0  0  2  0  0  0  0  0  0
  191.7240  176.0860  146.9180 C   0  0  0  0  0  0  0  0  0  0  0  0
  190.3610  176.0820  147.5280 C   0  0  0  0  0  2  0  0  0  0  0  0
  192.7710  175.6730  147.6710 F   0  0  0  0  0  0  0  0  0  0  0  0
  189.7860  177.5030  144.9400 C   0  0  0  0  0  0  0  0  0  0  0  0
  189.7130  177.4220  147.4380 C   0  0  0  0  0  3  0  0  0  0  0  0
  191.9250  176.3450  145.6230 C   0  0  0  0  0  3  0  0  0  0  0  0
  189.4320  178.0170  146.2790 C   0  0  0  0  0  3  0  0  0  0  0  0
  190.9030  176.8100  144.6640 C   0  0  0  0  0  3  0  0  0  0  0  0
  1  7  1  6  0  0  0
  1  2  1  0  0  0  0
  1  4  1  0  0  0  0
  2 19  1  1  0  0  0
  2  3  1  0  0  0  0
  3  5  1  0  0  0  0
  4  5  1  0  0  0  0
  7  6  2  0  0  0  0
  8 12  1  1  0  0  0
  8  7  1  0  0  0  0
  9 10  2  0  0  0  0
 10  8  1  0  0  0  0
 11 10  1  0  0  0  0
 13 14  1  0  0  0  0
 14 12  1  0  0  0  0
 14 15  1  0  0  0  0
 15 18  1  0  0  0  0
 17 16  1  0  0  0  0
 18 17  1  0  0  0  0
 18 16  1  0  0  0  0
 20 22  1  0  0  0  0
 20 19  1  0  0  0  0
 21 20  1  0  0  0  0
 22 26  1  0  0  0  0
 23 24  1  0  0  0  0
 23 25  1  0  0  0  0
 26 29  1  0  0  0  0
 27 24  1  0  0  0  0
 28 23  2  0  0  0  0
 29 27  2  0  0  0  0
 30 26  2  0  0  0  0
 30 28  1  0  0  0  0
M  END
>  <MODEL>
1

>  <REMARK>
 VINA RESULT:      -7.6      0.000      0.000
  Name = 
  11 active torsions:
  status: ('A' for Active; 'I' for Inactive)
    1  A    between atoms: C_3  and  N_11
    2  A    between atoms: C_3  and  C_19
    3  A    between atoms: C_4  and  C_13
    4  A    between atoms: C_7  and  C_30
    5  A    between atoms: C_8  and  N_12
    6  A    between atoms: C_8  and  C_13
    7  A    between atoms: N_9  and  N_12
    8  A    between atoms: N_9  and  C_21
    9  A    between atoms: C_10  and  C_25
   10  A    between atoms: N_11  and  C_25
   11  A    between atoms: C_13  and  C_30
                            x       y       z     vdW  Elec       q    Type
                         _______ _______ _______ _____ _____    ______ ____

>  <TORSDO>
F 11

$$$$
=
 OpenBabel11052412263D

 30 32  0  0  1  0  0  0  0  0999 V2000
  185.1620  178.2490  140.7690 C   0  0  1  0  0  3  0  0  0  0  0  0
  186.0350  179.0580  141.7160 C   0  0  1  0  0  3  0  0  0  0  0  0
  185.3290  179.0480  143.0580 C   0  0  0  0  0  2  0  0  0  0  0  0
  183.8670  177.9410  141.5020 C   0  0  0  0  0  2  0  0  0  0  0  0
  183.8710  178.8080  142.7430 C   0  0  0  0  0  2  0  0  0  0  0  0
  184.3810  180.1180  139.5320 O   0  0  0  0  0  0  0  0  0  0  0  0
  184.9010  179.0080  139.5000 C   0  0  0  0  0  0  0  0  0  0  0  0
  185.2410  178.3630  138.1910 C   0  0  2  0  0  3  0  0  0  0  0  0
  182.9990  177.5570  137.8780 O   0  0  0  0  0  0  0  0  0  0  0  0
  184.2350  177.3240  137.7910 C   0  0  0  0  0  0  0  0  0  0  0  0
  184.6820  176.0670  137.2940 N   0  0  0  0  0  1  0  0  0  0  0  0
  186.6620  177.8030  138.2240 C   0  0  0  0  0  2  0  0  0  0  0  0
  187.8620  178.4840  136.2860 C   0  0  0  0  0  1  0  0  0  0  0  0
  187.6240  178.7750  137.6960 N   0  0  0  0  0  0  0  0  0  0  0  0
  188.8450  178.7250  138.4150 N   0  0  0  0  0  2  0  0  0  0  0  0
  190.3100  177.3970  139.8300 C   0  0  0  0  0  2  0  0  0  0  0  0
  190.6210  177.0670  138.3870 C   0  0  0  0  0  2  0  0  0  0  0  0
  189.1950  177.3540  138.8060 C   0  0  0  0  0  3  0  0  0  0  0  0
  187.4050  178.4070  141.8280 C   0  0  0  0  0  2  0  0  0  0  0  0
  187.5040  177.6420  143.0650 N   0  0  0  0  0  0  0  0  0  0  0  0
  187.6930  176.3510  142.7080 O   0  0  0  0  0  1  0  0  0  0  0  0
  188.7200  178.0610  143.7490 C   0  0  0  0  0  2  0  0  0  0  0  0
  188.0380  177.6930  148.2650 C   0  0  0  0  0  0  0  0  0  0  0  0
  189.4860  178.0120  148.0870 C   0  0  0  0  0  2  0  0  0  0  0  0
  187.5790  177.4380  149.5120 F   0  0  0  0  0  0  0  0  0  0  0  0
  188.6330  177.7740  145.2120 C   0  0  0  0  0  0  0  0  0  0  0  0
  190.1320  177.1030  147.0970 C   0  0  0  0  0  3  0  0  0  0  0  0
  187.1580  177.7910  147.2640 C   0  0  0  0  0  3  0  0  0  0  0  0
  189.7640  177.0410  145.8190 C   0  0  0  0  0  3  0  0  0  0  0  0
  187.4840  178.0550  145.8480 C   0  0  0  0  0  3  0  0  0  0  0  0
  1  7  1  6  0  0  0
  1  4  1  0  0  0  0
  1  2  1  0  0  0  0
  2 19  1  1  0  0  0
  2  3  1  0  0  0  0
  4  5  1  0  0  0  0
  5  3  1  0  0  0  0
  7  6  2  0  0  0  0
  8 12  1  1  0  0  0
  8  7  1  0  0  0  0
 10  9  2  0  0  0  0
 10  8  1  0  0  0  0
 11 10  1  0  0  0  0
 13 14  1  0  0  0  0
 14 12  1  0  0  0  0
 14 15  1  0  0  0  0
 15 18  1  0  0  0  0
 17 18  1  0  0  0  0
 17 16  1  0  0  0  0
 18 16  1  0  0  0  0
 19 20  1  0  0  0  0
 20 22  1  0  0  0  0
 21 20  1  0  0  0  0
 22 26  1  0  0  0  0
 23 25  1  0  0  0  0
 24 23  1  0  0  0  0
 26 29  1  0  0  0  0
 26 30  2  0  0  0  0
 27 24  1  0  0  0  0
 28 23  2  0  0  0  0
 29 27  2  0  0  0  0
 30 28  1  0  0  0  0
M  END
>  <MODEL>
2

>  <REMARK>
 VINA RESULT:      -7.5      2.877      5.080
  Name = 
  11 active torsions:
  status: ('A' for Active; 'I' for Inactive)
    1  A    between atoms: C_3  and  N_11
    2  A    between atoms: C_3  and  C_19
    3  A    between atoms: C_4  and  C_13
    4  A    between atoms: C_7  and  C_30
    5  A    between atoms: C_8  and  N_12
    6  A    between atoms: C_8  and  C_13
    7  A    between atoms: N_9  and  N_12
    8  A    between atoms: N_9  and  C_21
    9  A    between atoms: C_10  and  C_25
   10  A    between atoms: N_11  and  C_25
   11  A    between atoms: C_13  and  C_30
                            x       y       z     vdW  Elec       q    Type
                         _______ _______ _______ _____ _____    ______ ____

>  <TORSDO>
F 11

$$$$
=
 OpenBabel11052412263D

 30 32  0  0  1  0  0  0  0  0999 V2000
  188.2160  177.7300  144.6120 C   0  0  1  0  0  3  0  0  0  0  0  0
  187.0100  177.6210  145.5310 C   0  0  1  0  0  3  0  0  0  0  0  0
  187.5560  177.5330  146.9420 C   0  0  0  0  0  2  0  0  0  0  0  0
  189.4540  177.5080  145.4660 C   0  0  0  0  0  2  0  0  0  0  0  0
  188.9580  176.9870  146.7970 C   0  0  0  0  0  2  0  0  0  0  0  0
  187.3760  175.7660  143.5770 O   0  0  0  0  0  0  0  0  0  0  0  0
  188.1360  176.7240  143.5000 C   0  0  0  0  0  0  0  0  0  0  0  0
  189.0380  176.8880  142.3140 C   0  0  2  0  0  3  0  0  0  0  0  0
  190.5430  175.1170  142.9290 O   0  0  0  0  0  0  0  0  0  0  0  0
  190.4040  176.3140  142.5560 C   0  0  0  0  0  0  0  0  0  0  0  0
  191.5540  177.1270  142.3490 N   0  0  0  0  0  1  0  0  0  0  0  0
  189.0990  178.3530  141.8860 C   0  0  0  0  0  2  0  0  0  0  0  0
  186.9470  178.5780  140.8960 C   0  0  0  0  0  1  0  0  0  0  0  0
  188.3810  178.5630  140.6260 N   0  0  0  0  0  0  0  0  0  0  0  0
  188.6880  177.5440  139.6880 N   0  0  0  0  0  2  0  0  0  0  0  0
  189.9720  177.1380  137.6640 C   0  0  0  0  0  2  0  0  0  0  0  0
  190.6620  176.4330  138.8100 C   0  0  0  0  0  2  0  0  0  0  0  0
  189.9860  177.7680  139.0410 C   0  0  0  0  0  3  0  0  0  0  0  0
  186.1350  178.8560  145.3730 C   0  0  0  0  0  2  0  0  0  0  0  0
  184.7280  178.4780  145.3220 N   0  0  0  0  0  0  0  0  0  0  0  0
  184.2890  178.4510  146.6020 O   0  0  0  0  0  1  0  0  0  0  0  0
  184.0040  179.5570  144.6620 C   0  0  0  0  0  2  0  0  0  0  0  0
  181.8270  178.2070  140.8640 C   0  0  0  0  0  0  0  0  0  0  0  0
  180.8930  179.1310  141.5730 C   0  0  0  0  0  2  0  0  0  0  0  0
  181.3950  177.5830  139.7430 F   0  0  0  0  0  0  0  0  0  0  0  0
  183.1510  179.0260  143.5570 C   0  0  0  0  0  0  0  0  0  0  0  0
  180.7280  178.7520  143.0060 C   0  0  0  0  0  3  0  0  0  0  0  0
  183.1120  178.0860  141.2120 C   0  0  0  0  0  3  0  0  0  0  0  0
  181.7350  178.7500  143.8780 C   0  0  0  0  0  3  0  0  0  0  0  0
  183.7460  178.6890  142.4010 C   0  0  0  0  0  3  0  0  0  0  0  0
  1  7  1  6  0  0  0
  1  4  1  0  0  0  0
  1  2  1  0  0  0  0
  2 19  1  1  0  0  0
  2  3  1  0  0  0  0
  4  5  1  0  0  0  0
  5  3  1  0  0  0  0
  7  6  2  0  0  0  0
  8 12  1  1  0  0  0
  8 10  1  0  0  0  0
  8  7  1  0  0  0  0
 10  9  2  0  0  0  0
 11 10  1  0  0  0  0
 14 13  1  0  0  0  0
 14 12  1  0  0  0  0
 15 14  1  0  0  0  0
 16 17  1  0  0  0  0
 16 18  1  0  0  0  0
 17 18  1  0  0  0  0
 18 15  1  0  0  0  0
 20 19  1  0  0  0  0
 20 21  1  0  0  0  0
 22 20  1  0  0  0  0
 23 28  2  0  0  0  0
 23 24  1  0  0  0  0
 24 27  1  0  0  0  0
 25 23  1  0  0  0  0
 26 29  1  0  0  0  0
 26 22  1  0  0  0  0
 27 29  2  0  0  0  0
 28 30  1  0  0  0  0
 30 26  2  0  0  0  0
M  END
>  <MODEL>
3

>  <REMARK>
 VINA RESULT:      -7.4      3.728      7.797
  Name = 
  11 active torsions:
  status: ('A' for Active; 'I' for Inactive)
    1  A    between atoms: C_3  and  N_11
    2  A    between atoms: C_3  and  C_19
    3  A    between atoms: C_4  and  C_13
    4  A    between atoms: C_7  and  C_30
    5  A    between atoms: C_8  and  N_12
    6  A    between atoms: C_8  and  C_13
    7  A    between atoms: N_9  and  N_12
    8  A    between atoms: N_9  and  C_21
    9  A    between atoms: C_10  and  C_25
   10  A    between atoms: N_11  and  C_25
   11  A    between atoms: C_13  and  C_30
                            x       y       z     vdW  Elec       q    Type
                         _______ _______ _______ _____ _____    ______ ____

>  <TORSDO>
F 11

$$$$
=
 OpenBabel11052412263D

 30 32  0  0  1  0  0  0  0  0999 V2000
  183.5140  178.1960  139.9610 C   0  0  1  0  0  3  0  0  0  0  0  0
  183.6230  178.7420  141.3760 C   0  0  1  0  0  3  0  0  0  0  0  0
  182.2090  178.8040  141.9180 C   0  0  0  0  0  2  0  0  0  0  0  0
  182.0350  178.1300  139.6160 C   0  0  0  0  0  2  0  0  0  0  0  0
  181.3160  178.9010  140.7010 C   0  0  0  0  0  2  0  0  0  0  0  0
  184.1050  180.2830  138.9970 O   0  0  0  0  0  0  0  0  0  0  0  0
  184.2600  179.0670  138.9910 C   0  0  0  0  0  0  0  0  0  0  0  0
  185.1590  178.4180  137.9830 C   0  0  2  0  0  3  0  0  0  0  0  0
  184.8500  176.1050  137.4100 O   0  0  0  0  0  0  0  0  0  0  0  0
  184.4780  177.2990  137.2510 C   0  0  0  0  0  0  0  0  0  0  0  0
  183.3910  177.5890  136.3800 N   0  0  0  0  0  1  0  0  0  0  0  0
  186.4610  177.9640  138.6410 C   0  0  0  0  0  2  0  0  0  0  0  0
  188.0730  178.1110  136.8980 C   0  0  0  0  0  1  0  0  0  0  0  0
  187.6030  178.7290  138.1330 N   0  0  0  0  0  0  0  0  0  0  0  0
  188.6530  178.7710  139.0850 N   0  0  0  0  0  2  0  0  0  0  0  0
  188.9990  177.9260  141.3380 C   0  0  0  0  0  2  0  0  0  0  0  0
  190.0990  177.3800  140.4550 C   0  0  0  0  0  2  0  0  0  0  0  0
  188.7010  177.5520  139.9010 C   0  0  0  0  0  3  0  0  0  0  0  0
  184.4770  177.8060  142.2190 C   0  0  0  0  0  2  0  0  0  0  0  0
  185.5640  178.5430  142.8510 N   0  0  0  0  0  0  0  0  0  0  0  0
  185.5920  179.7660  142.2710 O   0  0  0  0  0  1  0  0  0  0  0  0
  185.2000  178.7580  144.2450 C   0  0  0  0  0  2  0  0  0  0  0  0
  188.3820  177.7580  147.3860 C   0  0  0  0  0  0  0  0  0  0  0  0
  189.1070  177.8890  146.0870 C   0  0  0  0  0  2  0  0  0  0  0  0
  189.0790  177.3710  148.4800 F   0  0  0  0  0  0  0  0  0  0  0  0
  186.2690  178.2510  145.1580 C   0  0  0  0  0  0  0  0  0  0  0  0
  188.4690  177.0710  145.0160 C   0  0  0  0  0  3  0  0  0  0  0  0
  187.1120  178.1440  147.5370 C   0  0  0  0  0  3  0  0  0  0  0  0
  187.2220  177.2730  144.5920 C   0  0  0  0  0  3  0  0  0  0  0  0
  186.2080  178.5870  146.4560 C   0  0  0  0  0  3  0  0  0  0  0  0
  1  7  1  6  0  0  0
  1  2  1  0  0  0  0
  2  3  1  0  0  0  0
  2 19  1  1  0  0  0
  4  1  1  0  0  0  0
  4  5  1  0  0  0  0
  5  3  1  0  0  0  0
  7  6  2  0  0  0  0
  8 12  1  1  0  0  0
  8  7  1  0  0  0  0
 10  9  2  0  0  0  0
 10  8  1  0  0  0  0
 11 10  1  0  0  0  0
 13 14  1  0  0  0  0
 14 12  1  0  0  0  0
 14 15  1  0  0  0  0
 15 18  1  0  0  0  0
 17 16  1  0  0  0  0
 18 17  1  0  0  0  0
 18 16  1  0  0  0  0
 19 20  1  0  0  0  0
 20 22  1  0  0  0  0
 21 20  1  0  0  0  0
 22 26  1  0  0  0  0
 23 28  2  0  0  0  0
 23 25  1  0  0  0  0
 24 23  1  0  0  0  0
 26 30  2  0  0  0  0
 27 24  1  0  0  0  0
 29 27  2  0  0  0  0
 29 26  1  0  0  0  0
 30 28  1  0  0  0  0
M  END
>  <MODEL>
4

>  <REMARK>
 VINA RESULT:      -7.4      2.493      5.244
  Name = 
  11 active torsions:
  status: ('A' for Active; 'I' for Inactive)
    1  A    between atoms: C_3  and  N_11
    2  A    between atoms: C_3  and  C_19
    3  A    between atoms: C_4  and  C_13
    4  A    between atoms: C_7  and  C_30
    5  A    between atoms: C_8  and  N_12
    6  A    between atoms: C_8  and  C_13
    7  A    between atoms: N_9  and  N_12
    8  A    between atoms: N_9  and  C_21
    9  A    between atoms: C_10  and  C_25
   10  A    between atoms: N_11  and  C_25
   11  A    between atoms: C_13  and  C_30
                            x       y       z     vdW  Elec       q    Type
                         _______ _______ _______ _____ _____    ______ ____

>  <TORSDO>
F 11

$$$$
=
 OpenBabel11052412263D

 30 32  0  0  1  0  0  0  0  0999 V2000
  188.3240  177.9850  144.7260 C   0  0  1  0  0  3  0  0  0  0  0  0
  187.1340  177.7030  145.6300 C   0  0  1  0  0  3  0  0  0  0  0  0
  187.7020  177.4470  147.0120 C   0  0  0  0  0  2  0  0  0  0  0  0
  189.5810  177.7000  145.5320 C   0  0  0  0  0  2  0  0  0  0  0  0
  189.1220  176.9830  146.7840 C   0  0  0  0  0  2  0  0  0  0  0  0
  187.7320  176.0370  143.5070 O   0  0  0  0  0  0  0  0  0  0  0  0
  188.2690  177.1380  143.4870 C   0  0  0  0  0  0  0  0  0  0  0  0
  188.9270  177.6430  142.2390 C   0  0  2  0  0  3  0  0  0  0  0  0
  187.0510  179.0670  141.7630 O   0  0  0  0  0  0  0  0  0  0  0  0
  187.9530  178.3090  141.3130 C   0  0  0  0  0  0  0  0  0  0  0  0
  188.0580  178.0940  139.9100 N   0  0  0  0  0  1  0  0  0  0  0  0
  189.6990  176.5200  141.5490 C   0  0  0  0  0  2  0  0  0  0  0  0
  191.4590  177.9050  142.3520 C   0  0  0  0  0  1  0  0  0  0  0  0
  191.1100  176.8780  141.3760 N   0  0  0  0  0  0  0  0  0  0  0  0
  191.3580  177.3520  140.0630 N   0  0  0  0  0  2  0  0  0  0  0  0
  192.1070  176.4410  137.9380 C   0  0  0  0  0  2  0  0  0  0  0  0
  190.7160  177.0020  137.7460 C   0  0  0  0  0  2  0  0  0  0  0  0
  191.0850  176.3270  139.0490 C   0  0  0  0  0  3  0  0  0  0  0  0
  186.2100  178.9120  145.6480 C   0  0  0  0  0  2  0  0  0  0  0  0
  184.8280  178.4960  145.4440 N   0  0  0  0  0  0  0  0  0  0  0  0
  184.2610  178.4240  146.6710 O   0  0  0  0  0  1  0  0  0  0  0  0
  184.1420  179.5700  144.7370 C   0  0  0  0  0  2  0  0  0  0  0  0
  182.1110  178.1600  140.8800 C   0  0  0  0  0  0  0  0  0  0  0  0
  181.1710  179.1310  141.5150 C   0  0  0  0  0  2  0  0  0  0  0  0
  181.7150  177.5140  139.7590 F   0  0  0  0  0  0  0  0  0  0  0  0
  183.3280  179.0270  143.6080 C   0  0  0  0  0  0  0  0  0  0  0  0
  180.9270  178.8030  142.9490 C   0  0  0  0  0  3  0  0  0  0  0  0
  183.3730  178.0150  141.2930 C   0  0  0  0  0  3  0  0  0  0  0  0
  181.8910  178.8010  143.8680 C   0  0  0  0  0  3  0  0  0  0  0  0
  183.9680  178.6380  142.4930 C   0  0  0  0  0  3  0  0  0  0  0  0
  1  7  1  6  0  0  0
  1  4  1  0  0  0  0
  1  2  1  0  0  0  0
  2 19  1  1  0  0  0
  2  3  1  0  0  0  0
  4  5  1  0  0  0  0
  5  3  1  0  0  0  0
  7  6  2  0  0  0  0
  8 12  1  6  0  0  0
  8  7  1  0  0  0  0
 10  9  2  0  0  0  0
 10  8  1  0  0  0  0
 11 10  1  0  0  0  0
 14 12  1  0  0  0  0
 14 13  1  0  0  0  0
 15 14  1  0  0  0  0
 16 18  1  0  0  0  0
 17 16  1  0  0  0  0
 17 18  1  0  0  0  0
 18 15  1  0  0  0  0
 20 19  1  0  0  0  0
 20 21  1  0  0  0  0
 22 20  1  0  0  0  0
 23 28  2  0  0  0  0
 23 24  1  0  0  0  0
 24 27  1  0  0  0  0
 25 23  1  0  0  0  0
 26 29  1  0  0  0  0
 26 22  1  0  0  0  0
 27 29  2  0  0  0  0
 28 30  1  0  0  0  0
 30 26  2  0  0  0  0
M  END
>  <MODEL>
5

>  <REMARK>
 VINA RESULT:      -7.3      3.851      8.004
  Name = 
  11 active torsions:
  status: ('A' for Active; 'I' for Inactive)
    1  A    between atoms: C_3  and  N_11
    2  A    between atoms: C_3  and  C_19
    3  A    between atoms: C_4  and  C_13
    4  A    between atoms: C_7  and  C_30
    5  A    between atoms: C_8  and  N_12
    6  A    between atoms: C_8  and  C_13
    7  A    between atoms: N_9  and  N_12
    8  A    between atoms: N_9  and  C_21
    9  A    between atoms: C_10  and  C_25
   10  A    between atoms: N_11  and  C_25
   11  A    between atoms: C_13  and  C_30
                            x       y       z     vdW  Elec       q    Type
                         _______ _______ _______ _____ _____    ______ ____

>  <TORSDO>
F 11

$$$$
=
 OpenBabel11052412263D

 30 32  0  0  1  0  0  0  0  0999 V2000
  187.7170  177.3670  138.3280 C   0  0  1  0  0  3  0  0  0  0  0  0
  186.4290  178.1100  138.0140 C   0  0  1  0  0  3  0  0  0  0  0  0
  186.0440  177.7180  136.6020 C   0  0  0  0  0  2  0  0  0  0  0  0
  188.1810  176.7050  137.0400 C   0  0  0  0  0  2  0  0  0  0  0  0
  187.3340  177.2990  135.9350 C   0  0  0  0  0  2  0  0  0  0  0  0
  189.0470  179.3320  138.2580 O   0  0  0  0  0  0  0  0  0  0  0  0
  188.7610  178.3050  138.8630 C   0  0  0  0  0  0  0  0  0  0  0  0
  189.4820  177.9380  140.1240 C   0  0  2  0  0  3  0  0  0  0  0  0
  190.5370  175.9410  139.3020 O   0  0  0  0  0  0  0  0  0  0  0  0
  190.6720  177.0620  139.8640 C   0  0  0  0  0  0  0  0  0  0  0  0
  191.9690  177.5090  140.2430 N   0  0  0  0  0  1  0  0  0  0  0  0
  188.5170  177.3110  141.1280 C   0  0  0  0  0  2  0  0  0  0  0  0
  188.3180  176.2340  143.2410 C   0  0  0  0  0  1  0  0  0  0  0  0
  189.1740  177.0820  142.4190 N   0  0  0  0  0  0  0  0  0  0  0  0
  189.4270  178.3080  143.0850 N   0  0  0  0  0  2  0  0  0  0  0  0
  191.5880  178.9690  143.9820 C   0  0  0  0  0  2  0  0  0  0  0  0
  191.6170  177.4780  143.7310 C   0  0  0  0  0  2  0  0  0  0  0  0
  190.3450  178.1380  144.2180 C   0  0  0  0  0  3  0  0  0  0  0  0
  185.3460  177.6930  138.9980 C   0  0  0  0  0  2  0  0  0  0  0  0
  185.1990  178.6940  140.0460 N   0  0  0  0  0  0  0  0  0  0  0  0
  184.9160  179.8640  139.4270 O   0  0  0  0  0  1  0  0  0  0  0  0
  184.0190  178.3470  140.8270 C   0  0  0  0  0  2  0  0  0  0  0  0
  185.1660  178.9670  145.2200 C   0  0  0  0  0  0  0  0  0  0  0  0
  183.8300  178.2990  145.2280 C   0  0  0  0  0  2  0  0  0  0  0  0
  185.7040  179.3530  146.4000 F   0  0  0  0  0  0  0  0  0  0  0  0
  184.2200  178.6790  142.2700 C   0  0  0  0  0  0  0  0  0  0  0  0
  182.8580  179.0010  144.3420 C   0  0  0  0  0  3  0  0  0  0  0  0
  185.9060  179.0670  144.1120 C   0  0  0  0  0  3  0  0  0  0  0  0
  183.0320  179.1240  143.0270 C   0  0  0  0  0  3  0  0  0  0  0  0
  185.4750  178.7010  142.7480 C   0  0  0  0  0  3  0  0  0  0  0  0
  1  7  1  6  0  0  0
  2  1  1  0  0  0  0
  2 19  1  1  0  0  0
  3  2  1  0  0  0  0
  4  1  1  0  0  0  0
  5  3  1  0  0  0  0
  5  4  1  0  0  0  0
  6  7  2  0  0  0  0
  7  8  1  0  0  0  0
  8 12  1  1  0  0  0
  9 10  2  0  0  0  0
 10  8  1  0  0  0  0
 10 11  1  0  0  0  0
 12 14  1  0  0  0  0
 14 15  1  0  0  0  0
 14 13  1  0  0  0  0
 15 18  1  0  0  0  0
 16 18  1  0  0  0  0
 17 16  1  0  0  0  0
 17 18  1  0  0  0  0
 19 20  1  0  0  0  0
 20 22  1  0  0  0  0
 21 20  1  0  0  0  0
 22 26  1  0  0  0  0
 23 24  1  0  0  0  0
 23 25  1  0  0  0  0
 26 30  2  0  0  0  0
 26 29  1  0  0  0  0
 27 24  1  0  0  0  0
 28 23  2  0  0  0  0
 29 27  2  0  0  0  0
 30 28  1  0  0  0  0
M  END
>  <MODEL>
6

>  <REMARK>
 VINA RESULT:      -7.1      3.080      7.457
  Name = 
  11 active torsions:
  status: ('A' for Active; 'I' for Inactive)
    1  A    between atoms: C_3  and  N_11
    2  A    between atoms: C_3  and  C_19
    3  A    between atoms: C_4  and  C_13
    4  A    between atoms: C_7  and  C_30
    5  A    between atoms: C_8  and  N_12
    6  A    between atoms: C_8  and  C_13
    7  A    between atoms: N_9  and  N_12
    8  A    between atoms: N_9  and  C_21
    9  A    between atoms: C_10  and  C_25
   10  A    between atoms: N_11  and  C_25
   11  A    between atoms: C_13  and  C_30
                            x       y       z     vdW  Elec       q    Type
                         _______ _______ _______ _____ _____    ______ ____

>  <TORSDO>
F 11

$$$$
=
 OpenBabel11052412263D

 30 32  0  0  1  0  0  0  0  0999 V2000
  190.5540  176.9450  141.5150 C   0  0  1  0  0  3  0  0  0  0  0  0
  190.8770  178.1450  142.3900 C   0  0  1  0  0  3  0  0  0  0  0  0
  189.5450  178.7280  142.8200 C   0  0  0  0  0  2  0  0  0  0  0  0
  189.0520  176.9500  141.2780 C   0  0  0  0  0  2  0  0  0  0  0  0
  188.5560  178.2950  141.7620 C   0  0  0  0  0  2  0  0  0  0  0  0
  192.4250  177.5100  140.1680 O   0  0  0  0  0  0  0  0  0  0  0  0
  191.3080  177.0080  140.2180 C   0  0  0  0  0  0  0  0  0  0  0  0
  190.6500  176.4880  138.9750 C   0  0  2  0  0  3  0  0  0  0  0  0
  191.4660  174.4620  137.9710 O   0  0  0  0  0  0  0  0  0  0  0  0
  191.5990  175.7080  138.1130 C   0  0  0  0  0  0  0  0  0  0  0  0
  192.6530  176.3860  137.4380 N   0  0  0  0  0  1  0  0  0  0  0  0
  189.9810  177.6260  138.2080 C   0  0  0  0  0  2  0  0  0  0  0  0
  189.0260  178.0610  136.0730 C   0  0  0  0  0  1  0  0  0  0  0  0
  189.0800  177.1070  137.1750 N   0  0  0  0  0  0  0  0  0  0  0  0
  187.7780  176.8930  137.6950 N   0  0  0  0  0  2  0  0  0  0  0  0
  185.8700  178.2540  138.3420 C   0  0  0  0  0  2  0  0  0  0  0  0
  185.4300  177.3180  137.2390 C   0  0  0  0  0  2  0  0  0  0  0  0
  186.8250  177.9040  137.2210 C   0  0  0  0  0  3  0  0  0  0  0  0
  191.6780  177.6920  143.6020 C   0  0  0  0  0  2  0  0  0  0  0  0
  190.9350  176.6910  144.3560 N   0  0  0  0  0  0  0  0  0  0  0  0
  191.6800  175.5610  144.3370 O   0  0  0  0  0  1  0  0  0  0  0  0
  190.8870  177.1290  145.7450 C   0  0  0  0  0  2  0  0  0  0  0  0
  186.4540  177.8910  146.6160 C   0  0  0  0  0  0  0  0  0  0  0  0
  187.2160  178.5830  147.6980 C   0  0  0  0  0  2  0  0  0  0  0  0
  185.1020  177.8790  146.6820 F   0  0  0  0  0  0  0  0  0  0  0  0
  189.4740  177.2660  146.2100 C   0  0  0  0  0  0  0  0  0  0  0  0
  188.2160  177.6770  148.3320 C   0  0  0  0  0  3  0  0  0  0  0  0
  187.0480  177.4130  145.5190 C   0  0  0  0  0  3  0  0  0  0  0  0
  189.2330  177.1350  147.6620 C   0  0  0  0  0  3  0  0  0  0  0  0
  188.5050  177.3430  145.2840 C   0  0  0  0  0  3  0  0  0  0  0  0
  1  7  1  6  0  0  0
  1  2  1  0  0  0  0
  2  3  1  0  0  0  0
  2 19  1  1  0  0  0
  4  1  1  0  0  0  0
  4  5  1  0  0  0  0
  5  3  1  0  0  0  0
  6  7  2  0  0  0  0
  8 12  1  6  0  0  0
  8  7  1  0  0  0  0
  9 10  2  0  0  0  0
 10  8  1  0  0  0  0
 11 10  1  0  0  0  0
 13 14  1  0  0  0  0
 14 15  1  0  0  0  0
 14 12  1  0  0  0  0
 17 16  1  0  0  0  0
 18 17  1  0  0  0  0
 18 15  1  0  0  0  0
 18 16  1  0  0  0  0
 19 20  1  0  0  0  0
 20 22  1  0  0  0  0
 21 20  1  0  0  0  0
 22 26  1  0  0  0  0
 23 25  1  0  0  0  0
 23 24  1  0  0  0  0
 24 27  1  0  0  0  0
 26 29  1  0  0  0  0
 28 23  2  0  0  0  0
 29 27  2  0  0  0  0
 30 28  1  0  0  0  0
 30 26  2  0  0  0  0
M  END
>  <MODEL>
7

>  <REMARK>
 VINA RESULT:      -7.0      4.480      6.273
  Name = 
  11 active torsions:
  status: ('A' for Active; 'I' for Inactive)
    1  A    between atoms: C_3  and  N_11
    2  A    between atoms: C_3  and  C_19
    3  A    between atoms: C_4  and  C_13
    4  A    between atoms: C_7  and  C_30
    5  A    between atoms: C_8  and  N_12
    6  A    between atoms: C_8  and  C_13
    7  A    between atoms: N_9  and  N_12
    8  A    between atoms: N_9  and  C_21
    9  A    between atoms: C_10  and  C_25
   10  A    between atoms: N_11  and  C_25
   11  A    between atoms: C_13  and  C_30
                            x       y       z     vdW  Elec       q    Type
                         _______ _______ _______ _____ _____    ______ ____

>  <TORSDO>
F 11

$$$$
=
 OpenBabel11052412263D

 30 32  0  0  1  0  0  0  0  0999 V2000
  188.4780  177.8740  145.3490 C   0  0  1  0  0  3  0  0  0  0  0  0
  187.0430  177.6860  145.8120 C   0  0  1  0  0  3  0  0  0  0  0  0
  187.1100  177.3910  147.2980 C   0  0  0  0  0  2  0  0  0  0  0  0
  189.3810  177.4950  146.5130 C   0  0  0  0  0  2  0  0  0  0  0  0
  188.4890  176.8190  147.5320 C   0  0  0  0  0  2  0  0  0  0  0  0
  187.9380  176.2290  143.7260 O   0  0  0  0  0  0  0  0  0  0  0  0
  188.7670  177.0300  144.1410 C   0  0  0  0  0  0  0  0  0  0  0  0
  190.1070  177.1510  143.4810 C   0  0  2  0  0  3  0  0  0  0  0  0
  191.8700  177.6540  145.0350 O   0  0  0  0  0  0  0  0  0  0  0  0
  191.0180  178.0910  144.2140 C   0  0  0  0  0  0  0  0  0  0  0  0
  190.9300  179.4900  143.9670 N   0  0  0  0  0  1  0  0  0  0  0  0
  189.9470  177.5360  142.0110 C   0  0  0  0  0  2  0  0  0  0  0  0
  192.0400  177.5030  140.8800 C   0  0  0  0  0  1  0  0  0  0  0  0
  190.8300  176.7360  141.1580 N   0  0  0  0  0  0  0  0  0  0  0  0
  190.1860  176.3880  139.9430 N   0  0  0  0  0  2  0  0  0  0  0  0
  188.5220  176.9650  138.2670 C   0  0  0  0  0  2  0  0  0  0  0  0
  189.3990  178.1750  138.4980 C   0  0  0  0  0  2  0  0  0  0  0  0
  189.0460  177.2670  139.6560 C   0  0  0  0  0  3  0  0  0  0  0  0
  186.2530  178.9620  145.5570 C   0  0  0  0  0  2  0  0  0  0  0  0
  184.9070  178.6430  145.1000 N   0  0  0  0  0  0  0  0  0  0  0  0
  184.0990  178.7350  146.1810 O   0  0  0  0  0  1  0  0  0  0  0  0
  184.4900  179.6960  144.1840 C   0  0  0  0  0  2  0  0  0  0  0  0
  185.0540  178.6280  139.7650 C   0  0  0  0  0  0  0  0  0  0  0  0
  183.6910  179.2280  139.8770 C   0  0  0  0  0  2  0  0  0  0  0  0
  185.4470  178.1340  138.5670 F   0  0  0  0  0  0  0  0  0  0  0  0
  184.5100  179.2110  142.7710 C   0  0  0  0  0  0  0  0  0  0  0  0
  182.8970  178.5890  140.9650 C   0  0  0  0  0  3  0  0  0  0  0  0
  185.9450  178.6910  140.7580 C   0  0  0  0  0  3  0  0  0  0  0  0
  183.2580  178.6260  142.2470 C   0  0  0  0  0  3  0  0  0  0  0  0
  185.6860  179.1910  142.1230 C   0  0  0  0  0  3  0  0  0  0  0  0
  1  7  1  6  0  0  0
  1  2  1  0  0  0  0
  1  4  1  0  0  0  0
  2 19  1  1  0  0  0
  2  3  1  0  0  0  0
  3  5  1  0  0  0  0
  4  5  1  0  0  0  0
  6  7  2  0  0  0  0
  8 12  1  6  0  0  0
  8  7  1  0  0  0  0
  8 10  1  0  0  0  0
 10  9  2  0  0  0  0
 11 10  1  0  0  0  0
 13 14  1  0  0  0  0
 14 12  1  0  0  0  0
 15 14  1  0  0  0  0
 16 17  1  0  0  0  0
 16 18  1  0  0  0  0
 17 18  1  0  0  0  0
 18 15  1  0  0  0  0
 20 19  1  0  0  0  0
 20 21  1  0  0  0  0
 22 20  1  0  0  0  0
 23 24  1  0  0  0  0
 23 28  2  0  0  0  0
 24 27  1  0  0  0  0
 25 23  1  0  0  0  0
 26 22  1  0  0  0  0
 27 29  2  0  0  0  0
 28 30  1  0  0  0  0
 29 26  1  0  0  0  0
 30 26  2  0  0  0  0
M  END
>  <MODEL>
8

>  <REMARK>
 VINA RESULT:      -7.0      3.584      7.629
  Name = 
  11 active torsions:
  status: ('A' for Active; 'I' for Inactive)
    1  A    between atoms: C_3  and  N_11
    2  A    between atoms: C_3  and  C_19
    3  A    between atoms: C_4  and  C_13
    4  A    between atoms: C_7  and  C_30
    5  A    between atoms: C_8  and  N_12
    6  A    between atoms: C_8  and  C_13
    7  A    between atoms: N_9  and  N_12
    8  A    between atoms: N_9  and  C_21
    9  A    between atoms: C_10  and  C_25
   10  A    between atoms: N_11  and  C_25
   11  A    between atoms: C_13  and  C_30
                            x       y       z     vdW  Elec       q    Type
                         _______ _______ _______ _____ _____    ______ ____

>  <TORSDO>
F 11

$$$$
=
 OpenBabel11052412263D

 30 32  0  0  1  0  0  0  0  0999 V2000
  183.0870  178.7150  140.9370 C   0  0  1  0  0  3  0  0  0  0  0  0
  184.0660  178.1400  141.9470 C   0  0  1  0  0  3  0  0  0  0  0  0
  185.4400  178.6310  141.5350 C   0  0  0  0  0  2  0  0  0  0  0  0
  183.9060  179.3700  139.8360 C   0  0  0  0  0  2  0  0  0  0  0  0
  185.3360  178.9230  140.0550 C   0  0  0  0  0  2  0  0  0  0  0  0
  182.6550  176.5570  140.0490 O   0  0  0  0  0  0  0  0  0  0  0  0
  182.1940  177.6420  140.3830 C   0  0  0  0  0  0  0  0  0  0  0  0
  180.7360  177.9390  140.2020 C   0  0  2  0  0  3  0  0  0  0  0  0
  179.2880  176.4110  141.3600 O   0  0  0  0  0  0  0  0  0  0  0  0
  179.9170  177.5040  141.3810 C   0  0  0  0  0  0  0  0  0  0  0  0
  179.8610  178.3280  142.5400 N   0  0  0  0  0  1  0  0  0  0  0  0
  180.2260  177.3380  138.8950 C   0  0  0  0  0  2  0  0  0  0  0  0
  181.3170  178.0920  136.9200 C   0  0  0  0  0  1  0  0  0  0  0  0
  180.2020  178.3410  137.8260 N   0  0  0  0  0  0  0  0  0  0  0  0
  180.2920  179.6530  138.3580 N   0  0  0  0  0  2  0  0  0  0  0  0
  181.4800  181.7740  138.3300 C   0  0  0  0  0  2  0  0  0  0  0  0
  180.4460  181.7980  137.2270 C   0  0  0  0  0  2  0  0  0  0  0  0
  181.1720  180.5100  137.5550 C   0  0  0  0  0  3  0  0  0  0  0  0
  183.7160  178.6410  143.3400 C   0  0  0  0  0  2  0  0  0  0  0  0
  184.9040  179.1590  144.0060 N   0  0  0  0  0  0  0  0  0  0  0  0
  184.7280  180.4950  144.1270 O   0  0  0  0  0  1  0  0  0  0  0  0
  184.9210  178.6230  145.3610 C   0  0  0  0  0  2  0  0  0  0  0  0
  189.0670  177.3420  146.8330 C   0  0  0  0  0  0  0  0  0  0  0  0
  189.2460  177.7870  145.4190 C   0  0  0  0  0  2  0  0  0  0  0  0
  190.1300  176.8200  147.4870 F   0  0  0  0  0  0  0  0  0  0  0  0
  186.2620  178.0520  145.6890 C   0  0  0  0  0  0  0  0  0  0  0  0
  188.2640  177.1330  144.5070 C   0  0  0  0  0  3  0  0  0  0  0  0
  187.9410  177.5720  147.5150 C   0  0  0  0  0  3  0  0  0  0  0  0
  186.9470  177.2950  144.6210 C   0  0  0  0  0  3  0  0  0  0  0  0
  186.6900  178.1260  146.9600 C   0  0  0  0  0  3  0  0  0  0  0  0
  1  7  1  6  0  0  0
  1  2  1  0  0  0  0
  2 19  1  1  0  0  0
  3  2  1  0  0  0  0
  4  5  1  0  0  0  0
  4  1  1  0  0  0  0
  5  3  1  0  0  0  0
  6  7  2  0  0  0  0
  8 12  1  6  0  0  0
  8  7  1  0  0  0  0
  8 10  1  0  0  0  0
  9 10  2  0  0  0  0
 10 11  1  0  0  0  0
 13 14  1  0  0  0  0
 14 15  1  0  0  0  0
 14 12  1  0  0  0  0
 17 18  1  0  0  0  0
 17 16  1  0  0  0  0
 18 16  1  0  0  0  0
 18 15  1  0  0  0  0
 19 20  1  0  0  0  0
 20 21  1  0  0  0  0
 20 22  1  0  0  0  0
 22 26  1  0  0  0  0
 23 25  1  0  0  0  0
 23 28  2  0  0  0  0
 24 23  1  0  0  0  0
 26 30  2  0  0  0  0
 27 29  2  0  0  0  0
 27 24  1  0  0  0  0
 29 26  1  0  0  0  0
 30 28  1  0  0  0  0
M  END
>  <MODEL>
9

>  <REMARK>
 VINA RESULT:      -6.8      2.672      4.485
  Name = 
  11 active torsions:
  status: ('A' for Active; 'I' for Inactive)
    1  A    between atoms: C_3  and  N_11
    2  A    between atoms: C_3  and  C_19
    3  A    between atoms: C_4  and  C_13
    4  A    between atoms: C_7  and  C_30
    5  A    between atoms: C_8  and  N_12
    6  A    between atoms: C_8  and  C_13
    7  A    between atoms: N_9  and  N_12
    8  A    between atoms: N_9  and  C_21
    9  A    between atoms: C_10  and  C_25
   10  A    between atoms: N_11  and  C_25
   11  A    between atoms: C_13  and  C_30
                            x       y       z     vdW  Elec       q    Type
                         _______ _______ _______ _____ _____    ______ ____

>  <TORSDO>
F 11

$$$$
