=
 OpenBabel11052416383D

 43 48  0  0  1  0  0  0  0  0999 V2000
  191.0270  177.1270  145.9830 C   0  0  0  0  0  0  0  0  0  0  0  0
  187.3550  178.1980  142.7080 N   0  0  2  0  0  0  0  0  0  0  0  0
  188.5100  177.5310  140.0140 C   0  0  1  0  0  3  0  0  0  0  0  0
  188.9480  177.2260  144.8360 C   0  0  0  0  0  0  0  0  0  0  0  0
  191.6980  177.6290  144.8650 C   0  0  0  0  0  3  0  0  0  0  0  0
  191.7550  176.8140  147.1640 N   0  0  0  0  0  1  0  0  0  0  0  0
  189.5860  177.7460  143.6940 C   0  0  0  0  0  0  0  0  0  0  0  0
  189.6800  176.9450  145.9480 N   0  0  0  0  0  0  0  0  0  0  0  0
  190.9700  177.9370  143.7150 C   0  0  0  0  0  3  0  0  0  0  0  0
  189.0740  177.0320  141.3480 C   0  0  0  0  0  2  0  0  0  0  0  0
  188.8040  178.0570  142.4460 C   0  0  1  0  0  3  0  0  0  0  0  0
  186.8710  177.0450  143.4710 C   0  0  0  0  0  2  0  0  0  0  0  0
  186.5350  178.2820  141.4820 C   0  0  2  0  0  3  0  0  0  0  0  0
  187.3310  178.5010  140.1830 C   0  0  0  0  0  2  0  0  0  0  0  0
  187.4580  177.0700  144.8780 C   0  0  0  0  0  2  0  0  0  0  0  0
  189.5980  178.1910  139.1620 C   0  0  2  0  0  3  0  0  0  0  0  0
  189.0700  179.2830  138.4730 O   0  0  0  0  0  1  0  0  0  0  0  0
  191.6380  175.3120  137.7130 N   0  0  0  0  0  2  0  0  0  0  0  0
  190.1550  177.2370  138.2120 N   0  0  0  0  0  2  0  0  0  0  0  0
  191.3190  176.4580  138.5030 C   0  0  0  0  0  0  0  0  0  0  0  0
  192.0720  176.7770  139.4600 O   0  0  0  0  0  0  0  0  0  0  0  0
  190.7320  174.7890  136.7000 C   0  0  1  0  0  3  0  0  0  0  0  0
  189.4550  172.6870  135.2180 O   0  0  0  0  0  0  0  0  0  0  0  0
  191.4510  174.0440  135.5610 C   0  0  2  0  0  3  0  0  0  0  0  0
  189.6660  173.9040  137.3370 C   0  0  0  0  0  2  0  0  0  0  0  0
  188.7400  173.3470  136.2490 C   0  0  1  0  0  3  0  0  0  0  0  0
  190.3470  173.5900  134.5940 C   0  0  0  0  0  2  0  0  0  0  0  0
  187.7690  174.3930  135.7150 C   0  0  0  0  0  1  0  0  0  0  0  0
  192.3090  172.8520  136.0370 C   0  0  0  0  0  3  0  0  0  0  0  0
  194.6040  171.0130  135.8610 C   0  0  0  0  0  2  0  0  0  0  0  0
  194.5450  172.1170  136.9130 C   0  0  0  0  0  2  0  0  0  0  0  0
  193.1940  170.5660  135.4850 C   0  0  0  0  0  2  0  0  0  0  0  0
  193.7310  173.2970  136.3890 C   0  0  0  0  0  2  0  0  0  0  0  0
  192.3900  171.7550  134.9670 C   0  0  0  0  0  2  0  0  0  0  0  0
  185.4680  179.3700  141.6330 C   0  0  0  0  0  2  0  0  0  0  0  0
  181.7100  178.8410  142.3650 C   0  0  0  0  0  2  0  0  0  0  0  0
  181.3810  177.9640  141.1810 C   0  0  0  0  0  0  0  0  0  0  0  0
  183.6450  178.3340  140.3410 C   0  0  0  0  0  3  0  0  0  0  0  0
  183.1960  178.7650  142.7290 C   0  0  0  0  0  2  0  0  0  0  0  0
  184.0740  178.8340  141.5070 C   0  0  0  0  0  0  0  0  0  0  0  0
  182.2830  177.7900  140.2110 C   0  0  0  0  0  3  0  0  0  0  0  0
  180.0410  177.3900  141.0060 C   0  0  0  0  0  3  0  0  0  0  0  0
  179.7940  176.4110  140.1440 C   0  0  0  0  0  2  0  0  0  0  0  0
  1  6  1  0  0  0  0
  2 12  1  6  0  0  0
  3 16  1  1  0  0  0
  3 14  1  0  0  0  0
  3 10  1  0  0  0  0
  4 15  1  0  0  0  0
  4  8  2  0  0  0  0
  5  1  2  0  0  0  0
  7  9  2  0  0  0  0
  7  4  1  0  0  0  0
  8  1  1  0  0  0  0
  9  5  1  0  0  0  0
 11 10  1  6  0  0  0
 11  2  1  0  0  0  0
 11  7  1  0  0  0  0
 12 15  1  0  0  0  0
 13 35  1  1  0  0  0
 13  2  1  0  0  0  0
 14 13  1  0  0  0  0
 16 17  1  6  0  0  0
 18 20  1  0  0  0  0
 19 20  1  0  0  0  0
 19 16  1  0  0  0  0
 20 21  2  0  0  0  0
 22 25  1  0  0  0  0
 22 18  1  1  0  0  0
 23 26  1  0  0  0  0
 24 29  1  1  0  0  0
 24 22  1  0  0  0  0
 26 28  1  6  0  0  0
 26 25  1  0  0  0  0
 27 23  1  0  0  0  0
 27 24  1  0  0  0  0
 29 33  1  0  0  0  0
 30 31  1  0  0  0  0
 32 30  1  0  0  0  0
 33 31  1  0  0  0  0
 34 32  1  0  0  0  0
 34 29  1  0  0  0  0
 36 39  1  0  0  0  0
 37 36  1  0  0  0  0
 38 40  2  0  0  0  0
 40 35  1  0  0  0  0
 40 39  1  0  0  0  0
 41 38  1  0  0  0  0
 41 37  2  0  0  0  0
 42 37  1  0  0  0  0
 43 42  2  0  0  0  0
M  END
>  <MODEL>
1

>  <REMARK>
 VINA RESULT:      -8.8      0.000      0.000
  Name = 
  7 active torsions:
  status: ('A' for Active; 'I' for Inactive)
    1  A    between atoms: C_1  and  C_34
    2  A    between atoms: C_1  and  C_35
    3  A    between atoms: C_2  and  N_6
    4  A    between atoms: C_2  and  C_13
    5  A    between atoms: N_3  and  C_4
    6  A    between atoms: C_11  and  C_14
    7  A    between atoms: C_19  and  C_25
                            x       y       z     vdW  Elec       q    Type
                         _______ _______ _______ _____ _____    ______ ____

>  <TORSDO>
F 7

$$$$
=
 OpenBabel11052416383D

 43 48  0  0  1  0  0  0  0  0999 V2000
  191.2070  176.9040  147.0990 C   0  0  0  0  0  0  0  0  0  0  0  0
  187.1100  178.0980  144.4280 N   0  0  2  0  0  0  0  0  0  0  0  0
  187.7700  177.2970  141.6070 C   0  0  1  0  0  3  0  0  0  0  0  0
  188.9760  177.0920  146.3020 C   0  0  0  0  0  0  0  0  0  0  0  0
  191.7110  177.3370  145.8700 C   0  0  0  0  0  3  0  0  0  0  0  0
  192.1020  176.5800  148.1570 N   0  0  0  0  0  1  0  0  0  0  0  0
  189.4450  177.5450  145.0530 C   0  0  0  0  0  0  0  0  0  0  0  0
  189.8650  176.7990  147.2900 N   0  0  0  0  0  0  0  0  0  0  0  0
  190.8220  177.6560  144.8440 C   0  0  0  0  0  3  0  0  0  0  0  0
  188.5180  176.8000  142.8480 C   0  0  0  0  0  2  0  0  0  0  0  0
  188.4860  177.8670  143.9390 C   0  0  1  0  0  3  0  0  0  0  0  0
  186.6970  176.9950  145.2990 C   0  0  0  0  0  2  0  0  0  0  0  0
  186.1050  178.1970  143.3490 C   0  0  2  0  0  3  0  0  0  0  0  0
  186.6880  178.3360  141.9310 C   0  0  0  0  0  2  0  0  0  0  0  0
  187.5070  177.0230  146.5900 C   0  0  0  0  0  2  0  0  0  0  0  0
  188.7370  177.8700  140.5670 C   0  0  2  0  0  3  0  0  0  0  0  0
  188.4180  179.2020  140.3010 O   0  0  0  0  0  1  0  0  0  0  0  0
  188.1650  176.9450  136.9110 N   0  0  0  0  0  2  0  0  0  0  0  0
  188.6810  177.0980  139.3320 N   0  0  0  0  0  2  0  0  0  0  0  0
  187.9330  177.5310  138.1920 C   0  0  0  0  0  0  0  0  0  0  0  0
  187.0650  178.4360  138.3100 O   0  0  0  0  0  0  0  0  0  0  0  0
  189.2610  176.0180  136.6660 C   0  0  1  0  0  3  0  0  0  0  0  0
  190.4860  173.7440  135.4120 O   0  0  0  0  0  0  0  0  0  0  0  0
  188.9570  174.5780  137.1180 C   0  0  2  0  0  3  0  0  0  0  0  0
  189.6750  176.0490  135.2000 C   0  0  0  0  0  2  0  0  0  0  0  0
  190.8120  175.0480  134.9630 C   0  0  1  0  0  3  0  0  0  0  0  0
  190.2200  173.7630  136.8010 C   0  0  0  0  0  2  0  0  0  0  0  0
  192.1480  175.5400  135.5070 C   0  0  0  0  0  1  0  0  0  0  0  0
  187.7070  173.9640  136.4500 C   0  0  0  0  0  3  0  0  0  0  0  0
  185.3160  172.2450  136.3990 C   0  0  0  0  0  2  0  0  0  0  0  0
  185.2050  173.7630  136.5070 C   0  0  0  0  0  2  0  0  0  0  0  0
  186.5890  171.8600  135.6520 C   0  0  0  0  0  2  0  0  0  0  0  0
  186.4320  174.3290  137.2150 C   0  0  0  0  0  2  0  0  0  0  0  0
  187.8080  172.4360  136.3670 C   0  0  0  0  0  2  0  0  0  0  0  0
  185.1350  179.3490  143.6320 C   0  0  0  0  0  2  0  0  0  0  0  0
  181.2910  179.0020  143.8340 C   0  0  0  0  0  2  0  0  0  0  0  0
  181.0350  178.6140  142.3970 C   0  0  0  0  0  0  0  0  0  0  0  0
  183.3990  179.0040  141.9210 C   0  0  0  0  0  3  0  0  0  0  0  0
  182.7190  178.6530  144.2670 C   0  0  0  0  0  2  0  0  0  0  0  0
  183.7290  179.0360  143.2170 C   0  0  0  0  0  0  0  0  0  0  0  0
  182.0240  178.6820  141.5030 C   0  0  0  0  0  3  0  0  0  0  0  0
  179.6840  178.2760  141.9280 C   0  0  0  0  0  3  0  0  0  0  0  0
  179.4130  177.1380  141.3020 C   0  0  0  0  0  2  0  0  0  0  0  0
  1  8  1  0  0  0  0
  1  6  1  0  0  0  0
  2 12  1  1  0  0  0
  3 16  1  6  0  0  0
  3 14  1  0  0  0  0
  3 10  1  0  0  0  0
  4 15  1  0  0  0  0
  4  8  2  0  0  0  0
  5  1  2  0  0  0  0
  7  4  1  0  0  0  0
  9  7  2  0  0  0  0
  9  5  1  0  0  0  0
 11 10  1  6  0  0  0
 11  2  1  0  0  0  0
 11  7  1  0  0  0  0
 12 15  1  0  0  0  0
 13 35  1  1  0  0  0
 13  2  1  0  0  0  0
 14 13  1  0  0  0  0
 16 17  1  6  0  0  0
 18 20  1  0  0  0  0
 19 16  1  0  0  0  0
 20 21  2  0  0  0  0
 20 19  1  0  0  0  0
 22 18  1  6  0  0  0
 22 24  1  0  0  0  0
 23 27  1  0  0  0  0
 24 29  1  6  0  0  0
 25 22  1  0  0  0  0
 26 25  1  0  0  0  0
 26 23  1  0  0  0  0
 26 28  1  1  0  0  0
 27 24  1  0  0  0  0
 29 33  1  0  0  0  0
 30 31  1  0  0  0  0
 31 33  1  0  0  0  0
 32 34  1  0  0  0  0
 32 30  1  0  0  0  0
 34 29  1  0  0  0  0
 36 39  1  0  0  0  0
 37 36  1  0  0  0  0
 38 40  2  0  0  0  0
 40 35  1  0  0  0  0
 40 39  1  0  0  0  0
 41 38  1  0  0  0  0
 41 37  2  0  0  0  0
 42 37  1  0  0  0  0
 43 42  2  0  0  0  0
M  END
>  <MODEL>
2

>  <REMARK>
 VINA RESULT:      -8.7      2.097      3.441
  Name = 
  7 active torsions:
  status: ('A' for Active; 'I' for Inactive)
    1  A    between atoms: C_1  and  C_34
    2  A    between atoms: C_1  and  C_35
    3  A    between atoms: C_2  and  N_6
    4  A    between atoms: C_2  and  C_13
    5  A    between atoms: N_3  and  C_4
    6  A    between atoms: C_11  and  C_14
    7  A    between atoms: C_19  and  C_25
                            x       y       z     vdW  Elec       q    Type
                         _______ _______ _______ _____ _____    ______ ____

>  <TORSDO>
F 7

$$$$
=
 OpenBabel11052416383D

 43 48  0  0  1  0  0  0  0  0999 V2000
  187.1000  171.5530  135.5890 C   0  0  0  0  0  0  0  0  0  0  0  0
  185.1530  175.9200  137.1660 N   0  0  2  0  0  0  0  0  0  0  0  0
  187.3980  177.9010  136.9070 C   0  0  1  0  0  3  0  0  0  0  0  0
  185.7220  173.4670  135.8730 C   0  0  0  0  0  0  0  0  0  0  0  0
  188.1580  172.1830  136.2500 C   0  0  0  0  0  3  0  0  0  0  0  0
  187.2620  170.2280  135.0970 N   0  0  0  0  0  1  0  0  0  0  0  0
  186.7590  174.1310  136.5560 C   0  0  0  0  0  0  0  0  0  0  0  0
  185.9150  172.1980  135.4230 N   0  0  0  0  0  0  0  0  0  0  0  0
  187.9820  173.4800  136.7320 C   0  0  0  0  0  3  0  0  0  0  0  0
  187.3580  176.5380  136.2080 C   0  0  0  0  0  2  0  0  0  0  0  0
  186.5780  175.5390  137.0570 C   0  0  1  0  0  3  0  0  0  0  0  0
  184.4560  175.6140  135.9140 C   0  0  0  0  0  2  0  0  0  0  0  0
  184.9410  177.3560  137.4390 C   0  0  2  0  0  3  0  0  0  0  0  0
  186.2070  178.1320  137.8470 C   0  0  0  0  0  2  0  0  0  0  0  0
  184.3730  174.1030  135.7220 C   0  0  0  0  0  2  0  0  0  0  0  0
  188.7060  178.0910  137.6800 C   0  0  2  0  0  3  0  0  0  0  0  0
  189.7490  177.4340  137.0260 O   0  0  0  0  0  1  0  0  0  0  0  0
  189.4810  177.3140  141.3340 N   0  0  0  0  0  2  0  0  0  0  0  0
  188.5800  177.5750  139.0380 N   0  0  0  0  0  2  0  0  0  0  0  0
  189.6920  177.4980  139.9330 C   0  0  0  0  0  0  0  0  0  0  0  0
  190.8680  177.5930  139.4930 O   0  0  0  0  0  0  0  0  0  0  0  0
  188.1550  177.3620  141.9330 C   0  0  1  0  0  3  0  0  0  0  0  0
  186.2530  178.1640  143.9290 O   0  0  0  0  0  0  0  0  0  0  0  0
  188.0790  176.6730  143.3080 C   0  0  2  0  0  3  0  0  0  0  0  0
  187.6550  178.7990  142.0190 C   0  0  0  0  0  2  0  0  0  0  0  0
  186.2700  178.8250  142.6750 C   0  0  1  0  0  3  0  0  0  0  0  0
  186.6190  176.8070  143.7650 C   0  0  0  0  0  2  0  0  0  0  0  0
  185.1690  178.3390  141.7390 C   0  0  0  0  0  1  0  0  0  0  0  0
  189.0530  177.2580  144.3540 C   0  0  0  0  0  3  0  0  0  0  0  0
  190.8290  177.0800  146.6980 C   0  0  0  0  0  2  0  0  0  0  0  0
  191.3860  177.2040  145.2830 C   0  0  0  0  0  2  0  0  0  0  0  0
  189.4570  177.7430  146.7860 C   0  0  0  0  0  2  0  0  0  0  0  0
  190.4210  176.5730  144.2830 C   0  0  0  0  0  2  0  0  0  0  0  0
  188.5040  177.1070  145.7780 C   0  0  0  0  0  2  0  0  0  0  0  0
  183.8500  177.5390  138.4990 C   0  0  0  0  0  2  0  0  0  0  0  0
  180.7160  179.3480  137.1420 C   0  0  0  0  0  2  0  0  0  0  0  0
  181.0120  180.7260  137.6850 C   0  0  0  0  0  0  0  0  0  0  0  0
  182.9340  179.7940  138.8690 C   0  0  0  0  0  3  0  0  0  0  0  0
  181.9950  178.5210  136.9760 C   0  0  0  0  0  2  0  0  0  0  0  0
  182.9050  178.6540  138.1690 C   0  0  0  0  0  0  0  0  0  0  0  0
  182.0200  180.9020  138.5430 C   0  0  0  0  0  3  0  0  0  0  0  0
  180.1380  181.8670  137.3840 C   0  0  0  0  0  3  0  0  0  0  0  0
  180.6140  183.0510  137.0160 C   0  0  0  0  0  2  0  0  0  0  0  0
  1  5  1  0  0  0  0
  2 12  1  6  0  0  0
  2 13  1  0  0  0  0
  3 16  1  1  0  0  0
  3 14  1  0  0  0  0
  4  7  2  0  0  0  0
  5  9  2  0  0  0  0
  6  1  1  0  0  0  0
  7  9  1  0  0  0  0
  7 11  1  0  0  0  0
  8  1  2  0  0  0  0
  8  4  1  0  0  0  0
 10  3  1  0  0  0  0
 11 10  1  6  0  0  0
 11  2  1  0  0  0  0
 13 14  1  0  0  0  0
 13 35  1  1  0  0  0
 15  4  1  0  0  0  0
 15 12  1  0  0  0  0
 16 17  1  6  0  0  0
 16 19  1  0  0  0  0
 19 20  1  0  0  0  0
 20 18  1  0  0  0  0
 21 20  2  0  0  0  0
 22 18  1  1  0  0  0
 22 25  1  0  0  0  0
 22 24  1  0  0  0  0
 24 27  1  0  0  0  0
 24 29  1  1  0  0  0
 25 26  1  0  0  0  0
 26 28  1  6  0  0  0
 26 23  1  0  0  0  0
 27 23  1  0  0  0  0
 29 34  1  0  0  0  0
 30 32  1  0  0  0  0
 31 30  1  0  0  0  0
 33 29  1  0  0  0  0
 33 31  1  0  0  0  0
 34 32  1  0  0  0  0
 36 37  1  0  0  0  0
 37 41  2  0  0  0  0
 39 36  1  0  0  0  0
 39 40  1  0  0  0  0
 40 35  1  0  0  0  0
 40 38  2  0  0  0  0
 41 38  1  0  0  0  0
 42 37  1  0  0  0  0
 43 42  2  0  0  0  0
M  END
>  <MODEL>
3

>  <REMARK>
 VINA RESULT:      -8.6      3.209      8.065
  Name = 
  7 active torsions:
  status: ('A' for Active; 'I' for Inactive)
    1  A    between atoms: C_1  and  C_34
    2  A    between atoms: C_1  and  C_35
    3  A    between atoms: C_2  and  N_6
    4  A    between atoms: C_2  and  C_13
    5  A    between atoms: N_3  and  C_4
    6  A    between atoms: C_11  and  C_14
    7  A    between atoms: C_19  and  C_25
                            x       y       z     vdW  Elec       q    Type
                         _______ _______ _______ _____ _____    ______ ____

>  <TORSDO>
F 7

$$$$
=
 OpenBabel11052416383D

 43 48  0  0  1  0  0  0  0  0999 V2000
  189.0530  177.4220  144.9290 C   0  0  0  0  0  0  0  0  0  0  0  0
  190.5540  176.5320  140.2060 N   0  0  2  0  0  0  0  0  0  0  0  0
  188.7640  178.2380  138.4960 C   0  0  1  0  0  3  0  0  0  0  0  0
  190.3530  177.1730  142.9550 C   0  0  0  0  0  0  0  0  0  0  0  0
  187.8740  177.4580  144.1800 C   0  0  0  0  0  3  0  0  0  0  0  0
  188.9960  177.5310  146.3460 N   0  0  0  0  0  1  0  0  0  0  0  0
  189.1860  177.1920  142.1660 C   0  0  0  0  0  0  0  0  0  0  0  0
  190.2550  177.2740  144.3080 N   0  0  0  0  0  0  0  0  0  0  0  0
  187.9460  177.3440  142.7920 C   0  0  0  0  0  3  0  0  0  0  0  0
  188.9700  178.4330  140.0020 C   0  0  0  0  0  2  0  0  0  0  0  0
  189.2650  177.0920  140.6670 C   0  0  1  0  0  3  0  0  0  0  0  0
  191.6650  177.2490  140.8370 C   0  0  0  0  0  2  0  0  0  0  0  0
  190.7530  176.6260  138.7440 C   0  0  2  0  0  3  0  0  0  0  0  0
  189.4960  177.0080  137.9420 C   0  0  0  0  0  2  0  0  0  0  0  0
  191.6960  176.9440  142.3310 C   0  0  0  0  0  2  0  0  0  0  0  0
  187.2760  178.1490  138.1460 C   0  0  2  0  0  3  0  0  0  0  0  0
  186.5020  178.4730  139.2600 O   0  0  0  0  0  1  0  0  0  0  0  0
  185.6620  175.3110  136.1730 N   0  0  0  0  0  2  0  0  0  0  0  0
  186.9340  176.8090  137.6860 N   0  0  0  0  0  2  0  0  0  0  0  0
  185.7840  176.5470  136.8780 C   0  0  0  0  0  0  0  0  0  0  0  0
  184.8690  177.4060  136.7810 O   0  0  0  0  0  0  0  0  0  0  0  0
  186.7490  174.3440  136.1050 C   0  0  1  0  0  3  0  0  0  0  0  0
  187.9750  171.8970  135.2390 O   0  0  0  0  0  0  0  0  0  0  0  0
  186.4040  172.9890  136.7500 C   0  0  2  0  0  3  0  0  0  0  0  0
  187.2130  174.1560  134.6650 C   0  0  0  0  0  2  0  0  0  0  0  0
  188.3390  173.1170  134.6170 C   0  0  1  0  0  3  0  0  0  0  0  0
  187.6630  172.1210  136.6000 C   0  0  0  0  0  2  0  0  0  0  0  0
  189.6640  173.6660  135.1320 C   0  0  0  0  0  1  0  0  0  0  0  0
  185.1670  172.3010  136.1330 C   0  0  0  0  0  3  0  0  0  0  0  0
  183.1320  170.1760  135.9750 C   0  0  0  0  0  2  0  0  0  0  0  0
  182.7940  171.5670  136.5030 C   0  0  0  0  0  2  0  0  0  0  0  0
  184.2800  170.2570  134.9720 C   0  0  0  0  0  2  0  0  0  0  0  0
  184.0260  172.1970  137.1490 C   0  0  0  0  0  2  0  0  0  0  0  0
  185.5030  170.8910  135.6280 C   0  0  0  0  0  2  0  0  0  0  0  0
  191.3420  175.3180  138.2060 C   0  0  0  0  0  2  0  0  0  0  0  0
  194.9950  174.9770  136.9890 C   0  0  0  0  0  2  0  0  0  0  0  0
  194.8780  175.7980  135.7270 C   0  0  0  0  0  0  0  0  0  0  0  0
  192.4730  175.9670  136.1170 C   0  0  0  0  0  3  0  0  0  0  0  0
  193.9280  175.3690  138.0170 C   0  0  0  0  0  2  0  0  0  0  0  0
  192.5740  175.5360  137.3800 C   0  0  0  0  0  0  0  0  0  0  0  0
  193.6770  176.1990  135.3020 C   0  0  0  0  0  3  0  0  0  0  0  0
  196.0490  176.0660  134.8820 C   0  0  0  0  0  3  0  0  0  0  0  0
  197.2910  176.0070  135.3470 C   0  0  0  0  0  2  0  0  0  0  0  0
  1  6  1  0  0  0  0
  2 11  1  0  0  0  0
  2 12  1  1  0  0  0
  3 16  1  1  0  0  0
  3 10  1  0  0  0  0
  4  8  2  0  0  0  0
  5  1  2  0  0  0  0
  7  9  2  0  0  0  0
  7  4  1  0  0  0  0
  8  1  1  0  0  0  0
  9  5  1  0  0  0  0
 11 10  1  6  0  0  0
 11  7  1  0  0  0  0
 12 15  1  0  0  0  0
 13 35  1  6  0  0  0
 13  2  1  0  0  0  0
 14  3  1  0  0  0  0
 14 13  1  0  0  0  0
 15  4  1  0  0  0  0
 16 17  1  1  0  0  0
 18 20  1  0  0  0  0
 19 16  1  0  0  0  0
 20 19  1  0  0  0  0
 21 20  2  0  0  0  0
 22 18  1  6  0  0  0
 22 24  1  0  0  0  0
 23 27  1  0  0  0  0
 24 29  1  6  0  0  0
 25 22  1  0  0  0  0
 26 25  1  0  0  0  0
 26 28  1  1  0  0  0
 26 23  1  0  0  0  0
 27 24  1  0  0  0  0
 29 33  1  0  0  0  0
 30 31  1  0  0  0  0
 31 33  1  0  0  0  0
 32 34  1  0  0  0  0
 32 30  1  0  0  0  0
 34 29  1  0  0  0  0
 36 39  1  0  0  0  0
 37 36  1  0  0  0  0
 38 40  2  0  0  0  0
 40 39  1  0  0  0  0
 40 35  1  0  0  0  0
 41 37  2  0  0  0  0
 41 38  1  0  0  0  0
 42 43  2  0  0  0  0
 42 37  1  0  0  0  0
M  END
>  <MODEL>
4

>  <REMARK>
 VINA RESULT:      -8.6      3.305      7.762
  Name = 
  7 active torsions:
  status: ('A' for Active; 'I' for Inactive)
    1  A    between atoms: C_1  and  C_34
    2  A    between atoms: C_1  and  C_35
    3  A    between atoms: C_2  and  N_6
    4  A    between atoms: C_2  and  C_13
    5  A    between atoms: N_3  and  C_4
    6  A    between atoms: C_11  and  C_14
    7  A    between atoms: C_19  and  C_25
                            x       y       z     vdW  Elec       q    Type
                         _______ _______ _______ _____ _____    ______ ____

>  <TORSDO>
F 7

$$$$
=
 OpenBabel11052416383D

 43 48  0  0  1  0  0  0  0  0999 V2000
  191.3030  176.7920  146.9910 C   0  0  0  0  0  0  0  0  0  0  0  0
  186.9990  178.0780  144.7160 N   0  0  2  0  0  0  0  0  0  0  0  0
  187.4330  177.4130  141.8170 C   0  0  1  0  0  3  0  0  0  0  0  0
  189.0140  177.0000  146.3850 C   0  0  0  0  0  0  0  0  0  0  0  0
  191.7040  177.2850  145.7470 C   0  0  0  0  0  3  0  0  0  0  0  0
  192.2810  176.4260  147.9580 N   0  0  0  0  0  1  0  0  0  0  0  0
  189.3790  177.5140  145.1260 C   0  0  0  0  0  0  0  0  0  0  0  0
  189.9800  176.6680  147.2840 N   0  0  0  0  0  0  0  0  0  0  0  0
  190.7340  177.6450  144.8120 C   0  0  0  0  0  3  0  0  0  0  0  0
  188.2810  176.8650  142.9700 C   0  0  0  0  0  2  0  0  0  0  0  0
  188.3330  177.8800  144.1080 C   0  0  1  0  0  3  0  0  0  0  0  0
  186.6620  176.9320  145.5650 C   0  0  0  0  0  2  0  0  0  0  0  0
  185.9100  178.2190  143.7270 C   0  0  2  0  0  3  0  0  0  0  0  0
  186.3760  178.4280  142.2750 C   0  0  0  0  0  2  0  0  0  0  0  0
  187.5740  176.9060  146.7870 C   0  0  0  0  0  2  0  0  0  0  0  0
  188.3110  178.0410  140.7310 C   0  0  2  0  0  3  0  0  0  0  0  0
  188.8590  179.2380  141.1920 O   0  0  0  0  0  1  0  0  0  0  0  0
  187.2690  178.1350  137.0630 N   0  0  0  0  0  2  0  0  0  0  0  0
  187.5340  178.2920  139.5240 N   0  0  0  0  0  2  0  0  0  0  0  0
  188.1080  178.2200  138.2160 C   0  0  0  0  0  0  0  0  0  0  0  0
  189.3580  178.2290  138.0720 O   0  0  0  0  0  0  0  0  0  0  0  0
  185.8280  177.9540  137.1600 C   0  0  1  0  0  3  0  0  0  0  0  0
  183.4500  176.6000  138.0300 O   0  0  0  0  0  0  0  0  0  0  0  0
  185.3240  176.6730  136.4720 C   0  0  2  0  0  3  0  0  0  0  0  0
  185.3770  178.0000  138.6150 C   0  0  0  0  0  2  0  0  0  0  0  0
  183.8620  177.7830  138.6940 C   0  0  1  0  0  3  0  0  0  0  0  0
  183.7990  176.6670  136.6610 C   0  0  0  0  0  2  0  0  0  0  0  0
  183.0710  179.0090  138.2530 C   0  0  0  0  0  1  0  0  0  0  0  0
  185.9650  175.3780  137.0160 C   0  0  0  0  0  3  0  0  0  0  0  0
  186.8380  172.5720  136.8020 C   0  0  0  0  0  2  0  0  0  0  0  0
  187.8380  173.7230  136.7730 C   0  0  0  0  0  2  0  0  0  0  0  0
  185.6050  172.9640  137.6120 C   0  0  0  0  0  2  0  0  0  0  0  0
  187.1860  174.9720  136.1850 C   0  0  0  0  0  2  0  0  0  0  0  0
  184.9650  174.2140  137.0170 C   0  0  0  0  0  2  0  0  0  0  0  0
  184.9620  179.3490  144.1410 C   0  0  0  0  0  2  0  0  0  0  0  0
  182.0580  178.4490  141.7540 C   0  0  0  0  0  2  0  0  0  0  0  0
  180.9230  178.5620  142.7440 C   0  0  0  0  0  0  0  0  0  0  0  0
  182.5690  178.9080  144.5170 C   0  0  0  0  0  3  0  0  0  0  0  0
  183.2650  179.2910  142.1810 C   0  0  0  0  0  2  0  0  0  0  0  0
  183.5620  179.1380  143.6490 C   0  0  0  0  0  0  0  0  0  0  0  0
  181.1870  178.7140  144.0440 C   0  0  0  0  0  3  0  0  0  0  0  0
  179.5270  178.3850  142.3260 C   0  0  0  0  0  3  0  0  0  0  0  0
  179.1900  178.1120  141.0710 C   0  0  0  0  0  2  0  0  0  0  0  0
  1  8  1  0  0  0  0
  1  6  1  0  0  0  0
  2 12  1  1  0  0  0
  3 16  1  6  0  0  0
  3 14  1  0  0  0  0
  3 10  1  0  0  0  0
  4 15  1  0  0  0  0
  4  8  2  0  0  0  0
  5  1  2  0  0  0  0
  7  4  1  0  0  0  0
  9  7  2  0  0  0  0
  9  5  1  0  0  0  0
 11 10  1  6  0  0  0
 11  2  1  0  0  0  0
 11  7  1  0  0  0  0
 12 15  1  0  0  0  0
 13 35  1  1  0  0  0
 13  2  1  0  0  0  0
 14 13  1  0  0  0  0
 16 17  1  1  0  0  0
 18 20  1  0  0  0  0
 19 16  1  0  0  0  0
 20 19  1  0  0  0  0
 21 20  2  0  0  0  0
 22 18  1  1  0  0  0
 22 25  1  0  0  0  0
 23 26  1  0  0  0  0
 24 27  1  0  0  0  0
 24 29  1  1  0  0  0
 24 22  1  0  0  0  0
 25 26  1  0  0  0  0
 26 28  1  6  0  0  0
 27 23  1  0  0  0  0
 29 34  1  0  0  0  0
 30 32  1  0  0  0  0
 31 30  1  0  0  0  0
 33 31  1  0  0  0  0
 33 29  1  0  0  0  0
 34 32  1  0  0  0  0
 36 39  1  0  0  0  0
 36 37  1  0  0  0  0
 37 41  2  0  0  0  0
 39 40  1  0  0  0  0
 40 35  1  0  0  0  0
 40 38  2  0  0  0  0
 41 38  1  0  0  0  0
 42 37  1  0  0  0  0
 43 42  2  0  0  0  0
M  END
>  <MODEL>
5

>  <REMARK>
 VINA RESULT:      -8.4      3.095      4.436
  Name = 
  7 active torsions:
  status: ('A' for Active; 'I' for Inactive)
    1  A    between atoms: C_1  and  C_34
    2  A    between atoms: C_1  and  C_35
    3  A    between atoms: C_2  and  N_6
    4  A    between atoms: C_2  and  C_13
    5  A    between atoms: N_3  and  C_4
    6  A    between atoms: C_11  and  C_14
    7  A    between atoms: C_19  and  C_25
                            x       y       z     vdW  Elec       q    Type
                         _______ _______ _______ _____ _____    ______ ____

>  <TORSDO>
F 7

$$$$
=
 OpenBabel11052416383D

 43 48  0  0  1  0  0  0  0  0999 V2000
  180.8200  178.5450  140.4110 C   0  0  0  0  0  0  0  0  0  0  0  0
  184.7660  178.2530  143.5250 N   0  0  2  0  0  0  0  0  0  0  0  0
  187.1710  178.5800  141.7520 C   0  0  1  0  0  3  0  0  0  0  0  0
  182.3500  178.8910  142.1970 C   0  0  0  0  0  0  0  0  0  0  0  0
  181.7980  177.8800  139.6680 C   0  0  0  0  0  3  0  0  0  0  0  0
  179.5140  178.7140  139.8740 N   0  0  0  0  0  1  0  0  0  0  0  0
  183.3580  178.2140  141.4840 C   0  0  0  0  0  0  0  0  0  0  0  0
  181.1110  179.0250  141.6500 N   0  0  0  0  0  0  0  0  0  0  0  0
  183.0730  177.7170  140.2100 C   0  0  0  0  0  3  0  0  0  0  0  0
  185.7420  178.9700  141.3580 C   0  0  0  0  0  2  0  0  0  0  0  0
  184.7400  178.0580  142.0590 C   0  0  1  0  0  3  0  0  0  0  0  0
  184.0870  179.5030  143.8760 C   0  0  0  0  0  2  0  0  0  0  0  0
  186.1290  178.3270  144.0910 C   0  0  2  0  0  3  0  0  0  0  0  0
  187.2540  177.9050  143.1280 C   0  0  0  0  0  2  0  0  0  0  0  0
  182.5940  179.3790  143.5930 C   0  0  0  0  0  2  0  0  0  0  0  0
  187.8100  177.6730  140.6970 C   0  0  2  0  0  3  0  0  0  0  0  0
  189.1960  177.8330  140.7040 O   0  0  0  0  0  1  0  0  0  0  0  0
  187.6590  178.7120  137.0290 N   0  0  0  0  0  2  0  0  0  0  0  0
  187.2890  177.9810  139.3710 N   0  0  0  0  0  2  0  0  0  0  0  0
  188.0430  178.7180  138.4050 C   0  0  0  0  0  0  0  0  0  0  0  0
  189.0550  179.3780  138.7610 O   0  0  0  0  0  0  0  0  0  0  0  0
  186.6050  177.8450  136.5200 C   0  0  1  0  0  3  0  0  0  0  0  0
  185.1460  175.3780  136.3620 O   0  0  0  0  0  0  0  0  0  0  0  0
  187.1370  176.6350  135.7310 C   0  0  2  0  0  3  0  0  0  0  0  0
  185.6870  177.3940  137.6500 C   0  0  0  0  0  2  0  0  0  0  0  0
  184.6030  176.4640  137.0930 C   0  0  1  0  0  3  0  0  0  0  0  0
  185.8950  175.8600  135.2640 C   0  0  0  0  0  2  0  0  0  0  0  0
  183.5280  177.2160  136.3170 C   0  0  0  0  0  1  0  0  0  0  0  0
  188.0930  175.7320  136.5410 C   0  0  0  0  0  3  0  0  0  0  0  0
  190.3740  173.8900  136.8290 C   0  0  0  0  0  2  0  0  0  0  0  0
  190.4620  175.3450  137.2790 C   0  0  0  0  0  2  0  0  0  0  0  0
  188.9340  173.3950  136.9210 C   0  0  0  0  0  2  0  0  0  0  0  0
  189.5420  176.2150  136.4260 C   0  0  0  0  0  2  0  0  0  0  0  0
  188.0240  174.2740  136.0680 C   0  0  0  0  0  2  0  0  0  0  0  0
  186.2110  177.5110  145.3840 C   0  0  0  0  0  2  0  0  0  0  0  0
  190.0610  177.1970  145.2360 C   0  0  0  0  0  2  0  0  0  0  0  0
  190.3230  177.0670  146.7180 C   0  0  0  0  0  0  0  0  0  0  0  0
  187.9530  177.4960  147.1250 C   0  0  0  0  0  3  0  0  0  0  0  0
  188.6390  176.7540  144.8740 C   0  0  0  0  0  2  0  0  0  0  0  0
  187.6220  177.2970  145.8430 C   0  0  0  0  0  0  0  0  0  0  0  0
  189.3330  177.2740  147.5890 C   0  0  0  0  0  3  0  0  0  0  0  0
  191.6790  176.8380  147.2350 C   0  0  0  0  0  3  0  0  0  0  0  0
  192.2140  175.6260  147.3130 C   0  0  0  0  0  2  0  0  0  0  0  0
  1  8  1  0  0  0  0
  2 12  1  6  0  0  0
  2 13  1  0  0  0  0
  3 16  1  6  0  0  0
  3 14  1  0  0  0  0
  4 15  1  0  0  0  0
  5  9  1  0  0  0  0
  5  1  2  0  0  0  0
  6  1  1  0  0  0  0
  7 11  1  0  0  0  0
  7  4  1  0  0  0  0
  8  4  2  0  0  0  0
  9  7  2  0  0  0  0
 10  3  1  0  0  0  0
 11 10  1  6  0  0  0
 11  2  1  0  0  0  0
 13 35  1  1  0  0  0
 14 13  1  0  0  0  0
 15 12  1  0  0  0  0
 16 17  1  6  0  0  0
 18 20  1  0  0  0  0
 19 16  1  0  0  0  0
 20 21  2  0  0  0  0
 20 19  1  0  0  0  0
 22 18  1  1  0  0  0
 22 25  1  0  0  0  0
 23 26  1  0  0  0  0
 24 22  1  0  0  0  0
 24 29  1  1  0  0  0
 26 28  1  6  0  0  0
 26 25  1  0  0  0  0
 27 24  1  0  0  0  0
 27 23  1  0  0  0  0
 30 32  1  0  0  0  0
 30 31  1  0  0  0  0
 33 29  1  0  0  0  0
 33 31  1  0  0  0  0
 34 29  1  0  0  0  0
 34 32  1  0  0  0  0
 35 40  1  0  0  0  0
 36 37  1  0  0  0  0
 37 42  1  0  0  0  0
 37 41  2  0  0  0  0
 38 41  1  0  0  0  0
 39 36  1  0  0  0  0
 39 40  1  0  0  0  0
 40 38  2  0  0  0  0
 42 43  2  0  0  0  0
M  END
>  <MODEL>
6

>  <REMARK>
 VINA RESULT:      -8.4      2.761      6.999
  Name = 
  7 active torsions:
  status: ('A' for Active; 'I' for Inactive)
    1  A    between atoms: C_1  and  C_34
    2  A    between atoms: C_1  and  C_35
    3  A    between atoms: C_2  and  N_6
    4  A    between atoms: C_2  and  C_13
    5  A    between atoms: N_3  and  C_4
    6  A    between atoms: C_11  and  C_14
    7  A    between atoms: C_19  and  C_25
                            x       y       z     vdW  Elec       q    Type
                         _______ _______ _______ _____ _____    ______ ____

>  <TORSDO>
F 7

$$$$
=
 OpenBabel11052416383D

 43 48  0  0  1  0  0  0  0  0999 V2000
  188.1500  177.9980  148.4300 C   0  0  0  0  0  0  0  0  0  0  0  0
  187.0510  178.2520  143.5230 N   0  0  2  0  0  0  0  0  0  0  0  0
  188.9870  176.3690  142.2030 C   0  0  1  0  0  3  0  0  0  0  0  0
  187.0210  177.9720  146.3390 C   0  0  0  0  0  0  0  0  0  0  0  0
  189.3880  177.8840  147.7940 C   0  0  0  0  0  3  0  0  0  0  0  0
  188.0870  178.0720  149.8500 N   0  0  0  0  0  1  0  0  0  0  0  0
  188.2510  177.8700  145.6600 C   0  0  0  0  0  0  0  0  0  0  0  0
  187.0050  178.0460  147.6980 N   0  0  0  0  0  0  0  0  0  0  0  0
  189.4340  177.8180  146.4010 C   0  0  0  0  0  3  0  0  0  0  0  0
  188.6550  176.3650  143.6990 C   0  0  0  0  0  2  0  0  0  0  0  0
  188.2990  177.7760  144.1590 C   0  0  1  0  0  3  0  0  0  0  0  0
  185.8940  177.6060  144.1470 C   0  0  0  0  0  2  0  0  0  0  0  0
  186.9770  177.9700  142.0750 C   0  0  2  0  0  3  0  0  0  0  0  0
  188.2990  177.5070  141.4360 C   0  0  0  0  0  2  0  0  0  0  0  0
  185.7350  178.0990  145.5810 C   0  0  0  0  0  2  0  0  0  0  0  0
  190.4990  176.4350  141.9700 C   0  0  2  0  0  3  0  0  0  0  0  0
  191.0160  177.6150  142.5060 O   0  0  0  0  0  1  0  0  0  0  0  0
  192.3640  176.7630  138.6580 N   0  0  0  0  0  2  0  0  0  0  0  0
  190.8030  176.3710  140.5460 N   0  0  0  0  0  2  0  0  0  0  0  0
  191.8860  177.1000  139.9610 C   0  0  0  0  0  0  0  0  0  0  0  0
  192.4290  178.0440  140.5940 O   0  0  0  0  0  0  0  0  0  0  0  0
  191.8990  175.5840  137.9400 C   0  0  1  0  0  3  0  0  0  0  0  0
  190.6790  174.2280  135.7230 O   0  0  0  0  0  0  0  0  0  0  0  0
  190.3720  175.5450  137.7520 C   0  0  2  0  0  3  0  0  0  0  0  0
  192.6140  175.4550  136.6000 C   0  0  0  0  0  2  0  0  0  0  0  0
  192.0900  174.2220  135.8530 C   0  0  1  0  0  3  0  0  0  0  0  0
  190.0750  174.2380  137.0020 C   0  0  0  0  0  2  0  0  0  0  0  0
  192.6210  172.9170  136.4340 C   0  0  0  0  0  1  0  0  0  0  0  0
  189.8030  176.7680  137.0000 C   0  0  0  0  0  3  0  0  0  0  0  0
  187.6540  178.6300  136.2310 C   0  0  0  0  0  2  0  0  0  0  0  0
  188.7470  179.0360  137.2150 C   0  0  0  0  0  2  0  0  0  0  0  0
  188.1810  177.5780  135.2600 C   0  0  0  0  0  2  0  0  0  0  0  0
  189.2510  177.8120  137.9740 C   0  0  0  0  0  2  0  0  0  0  0  0
  188.6850  176.3610  136.0310 C   0  0  0  0  0  2  0  0  0  0  0  0
  186.4310  179.1880  141.3250 C   0  0  0  0  0  2  0  0  0  0  0  0
  182.8090  178.9980  139.9880 C   0  0  0  0  0  2  0  0  0  0  0  0
  183.1060  178.3600  138.6520 C   0  0  0  0  0  0  0  0  0  0  0  0
  185.4910  178.5860  139.1300 C   0  0  0  0  0  3  0  0  0  0  0  0
  183.9040  178.6930  141.0160 C   0  0  0  0  0  2  0  0  0  0  0  0
  185.2810  178.8460  140.4260 C   0  0  0  0  0  0  0  0  0  0  0  0
  184.3700  178.2330  138.2420 C   0  0  0  0  0  3  0  0  0  0  0  0
  182.0270  177.9820  137.7310 C   0  0  0  0  0  3  0  0  0  0  0  0
  182.2090  177.8960  136.4190 C   0  0  0  0  0  2  0  0  0  0  0  0
  1  6  1  0  0  0  0
  2 12  1  1  0  0  0
  2 11  1  0  0  0  0
  3 16  1  1  0  0  0
  3 10  1  0  0  0  0
  4  8  1  0  0  0  0
  5  1  1  0  0  0  0
  7  4  2  0  0  0  0
  7  9  1  0  0  0  0
  8  1  2  0  0  0  0
  9  5  2  0  0  0  0
 11 10  1  1  0  0  0
 11  7  1  0  0  0  0
 12 15  1  0  0  0  0
 13 35  1  6  0  0  0
 13  2  1  0  0  0  0
 14 13  1  0  0  0  0
 14  3  1  0  0  0  0
 15  4  1  0  0  0  0
 16 17  1  6  0  0  0
 18 20  1  0  0  0  0
 19 16  1  0  0  0  0
 20 19  1  0  0  0  0
 20 21  2  0  0  0  0
 22 18  1  6  0  0  0
 23 26  1  0  0  0  0
 23 27  1  0  0  0  0
 24 29  1  6  0  0  0
 24 22  1  0  0  0  0
 25 22  1  0  0  0  0
 26 28  1  1  0  0  0
 26 25  1  0  0  0  0
 27 24  1  0  0  0  0
 29 33  1  0  0  0  0
 30 31  1  0  0  0  0
 31 33  1  0  0  0  0
 32 34  1  0  0  0  0
 32 30  1  0  0  0  0
 34 29  1  0  0  0  0
 36 39  1  0  0  0  0
 37 36  1  0  0  0  0
 38 40  2  0  0  0  0
 40 39  1  0  0  0  0
 40 35  1  0  0  0  0
 41 37  2  0  0  0  0
 41 38  1  0  0  0  0
 42 37  1  0  0  0  0
 43 42  2  0  0  0  0
M  END
>  <MODEL>
7

>  <REMARK>
 VINA RESULT:      -8.3      2.107      3.953
  Name = 
  7 active torsions:
  status: ('A' for Active; 'I' for Inactive)
    1  A    between atoms: C_1  and  C_34
    2  A    between atoms: C_1  and  C_35
    3  A    between atoms: C_2  and  N_6
    4  A    between atoms: C_2  and  C_13
    5  A    between atoms: N_3  and  C_4
    6  A    between atoms: C_11  and  C_14
    7  A    between atoms: C_19  and  C_25
                            x       y       z     vdW  Elec       q    Type
                         _______ _______ _______ _____ _____    ______ ____

>  <TORSDO>
F 7

$$$$
=
 OpenBabel11052416383D

 43 48  0  0  1  0  0  0  0  0999 V2000
  193.3480  175.3730  137.6670 C   0  0  0  0  0  0  0  0  0  0  0  0
  188.4680  174.2350  137.1740 N   0  0  2  0  0  0  0  0  0  0  0  0
  187.1340  176.8450  136.5070 C   0  0  1  0  0  3  0  0  0  0  0  0
  191.2890  174.3900  137.0040 C   0  0  0  0  0  0  0  0  0  0  0  0
  192.6810  176.4860  138.1830 C   0  0  0  0  0  3  0  0  0  0  0  0
  194.7670  175.2990  137.7420 N   0  0  0  0  0  1  0  0  0  0  0  0
  190.5790  175.4880  137.5240 C   0  0  0  0  0  0  0  0  0  0  0  0
  192.6460  174.3550  137.1010 N   0  0  0  0  0  0  0  0  0  0  0  0
  191.2890  176.5410  138.1070 C   0  0  0  0  0  3  0  0  0  0  0  0
  188.6380  176.5810  136.3790 C   0  0  0  0  0  2  0  0  0  0  0  0
  189.0800  175.5590  137.4230 C   0  0  1  0  0  3  0  0  0  0  0  0
  189.1350  173.5810  136.0460 C   0  0  0  0  0  2  0  0  0  0  0  0
  187.0280  174.2970  136.8500 C   0  0  2  0  0  3  0  0  0  0  0  0
  186.3630  175.6620  137.1090 C   0  0  0  0  0  2  0  0  0  0  0  0
  190.5630  173.2100  136.4320 C   0  0  0  0  0  2  0  0  0  0  0  0
  186.8590  178.1070  137.3290 C   0  0  2  0  0  3  0  0  0  0  0  0
  187.6250  179.1690  136.8460 O   0  0  0  0  0  1  0  0  0  0  0  0
  188.3750  178.5290  140.8050 N   0  0  0  0  0  2  0  0  0  0  0  0
  187.1690  177.8820  138.7360 N   0  0  0  0  0  2  0  0  0  0  0  0
  188.2910  178.4920  139.3790 C   0  0  0  0  0  0  0  0  0  0  0  0
  189.2140  179.0040  138.6920 O   0  0  0  0  0  0  0  0  0  0  0  0
  187.2740  178.1080  141.6600 C   0  0  1  0  0  3  0  0  0  0  0  0
  185.8270  177.9990  144.1370 O   0  0  0  0  0  0  0  0  0  0  0  0
  187.7140  177.1950  142.8190 C   0  0  2  0  0  3  0  0  0  0  0  0
  186.5070  179.3160  142.1830 C   0  0  0  0  0  2  0  0  0  0  0  0
  185.3700  178.8490  143.0980 C   0  0  1  0  0  3  0  0  0  0  0  0
  186.4300  176.8450  143.5870 C   0  0  0  0  0  2  0  0  0  0  0  0
  184.2010  178.2530  142.3230 C   0  0  0  0  0  1  0  0  0  0  0  0
  188.7710  177.8310  143.7480 C   0  0  0  0  0  3  0  0  0  0  0  0
  191.2130  177.7780  145.3950 C   0  0  0  0  0  2  0  0  0  0  0  0
  191.1860  178.4580  144.0290 C   0  0  0  0  0  2  0  0  0  0  0  0
  189.8250  177.8110  146.0280 C   0  0  0  0  0  2  0  0  0  0  0  0
  190.1670  177.7730  143.1220 C   0  0  0  0  0  2  0  0  0  0  0  0
  188.8150  177.1280  145.1110 C   0  0  0  0  0  2  0  0  0  0  0  0
  186.2690  173.1950  137.5940 C   0  0  0  0  0  2  0  0  0  0  0  0
  184.2380  170.9010  135.2370 C   0  0  0  0  0  2  0  0  0  0  0  0
  182.8790  171.5280  135.4460 C   0  0  0  0  0  0  0  0  0  0  0  0
  183.8550  172.9470  137.1790 C   0  0  0  0  0  3  0  0  0  0  0  0
  185.3680  171.8910  135.5410 C   0  0  0  0  0  2  0  0  0  0  0  0
  185.1090  172.6610  136.8090 C   0  0  0  0  0  0  0  0  0  0  0  0
  182.7080  172.4400  136.4060 C   0  0  0  0  0  3  0  0  0  0  0  0
  181.7040  171.0660  134.6970 C   0  0  0  0  0  3  0  0  0  0  0  0
  180.8270  170.2090  135.2070 C   0  0  0  0  0  2  0  0  0  0  0  0
  1  6  1  0  0  0  0
  1  5  1  0  0  0  0
  2 12  1  6  0  0  0
  2 11  1  0  0  0  0
  3 14  1  0  0  0  0
  3 16  1  1  0  0  0
  4  8  1  0  0  0  0
  4  7  2  0  0  0  0
  7  9  1  0  0  0  0
  8  1  2  0  0  0  0
  9  5  2  0  0  0  0
 10  3  1  0  0  0  0
 11 10  1  6  0  0  0
 11  7  1  0  0  0  0
 12 15  1  0  0  0  0
 13 14  1  0  0  0  0
 13  2  1  0  0  0  0
 13 35  1  1  0  0  0
 15  4  1  0  0  0  0
 16 17  1  6  0  0  0
 16 19  1  0  0  0  0
 19 20  1  0  0  0  0
 20 18  1  0  0  0  0
 21 20  2  0  0  0  0
 22 18  1  1  0  0  0
 22 25  1  0  0  0  0
 22 24  1  0  0  0  0
 24 27  1  0  0  0  0
 24 29  1  1  0  0  0
 25 26  1  0  0  0  0
 26 28  1  6  0  0  0
 26 23  1  0  0  0  0
 27 23  1  0  0  0  0
 29 34  1  0  0  0  0
 30 32  1  0  0  0  0
 31 30  1  0  0  0  0
 33 29  1  0  0  0  0
 33 31  1  0  0  0  0
 34 32  1  0  0  0  0
 36 37  1  0  0  0  0
 36 39  1  0  0  0  0
 37 41  2  0  0  0  0
 39 40  1  0  0  0  0
 40 38  2  0  0  0  0
 40 35  1  0  0  0  0
 41 38  1  0  0  0  0
 42 43  2  0  0  0  0
 42 37  1  0  0  0  0
M  END
>  <MODEL>
8

>  <REMARK>
 VINA RESULT:      -8.2      3.026      8.159
  Name = 
  7 active torsions:
  status: ('A' for Active; 'I' for Inactive)
    1  A    between atoms: C_1  and  C_34
    2  A    between atoms: C_1  and  C_35
    3  A    between atoms: C_2  and  N_6
    4  A    between atoms: C_2  and  C_13
    5  A    between atoms: N_3  and  C_4
    6  A    between atoms: C_11  and  C_14
    7  A    between atoms: C_19  and  C_25
                            x       y       z     vdW  Elec       q    Type
                         _______ _______ _______ _____ _____    ______ ____

>  <TORSDO>
F 7

$$$$
=
 OpenBabel11052416383D

 43 48  0  0  1  0  0  0  0  0999 V2000
  183.1030  175.3900  135.0020 C   0  0  0  0  0  0  0  0  0  0  0  0
  188.1040  175.6750  135.5130 N   0  0  2  0  0  0  0  0  0  0  0  0
  188.5310  177.0050  138.1750 C   0  0  1  0  0  3  0  0  0  0  0  0
  185.4190  174.8700  135.1260 C   0  0  0  0  0  0  0  0  0  0  0  0
  183.3140  176.6060  135.6580 C   0  0  0  0  0  3  0  0  0  0  0  0
  181.7900  175.0240  134.5940 N   0  0  0  0  0  1  0  0  0  0  0  0
  185.6740  176.0920  135.7770 C   0  0  0  0  0  0  0  0  0  0  0  0
  184.1500  174.5600  134.7460 N   0  0  0  0  0  0  0  0  0  0  0  0
  184.6070  176.9540  136.0470 C   0  0  0  0  0  3  0  0  0  0  0  0
  187.2180  176.3500  137.7320 C   0  0  0  0  0  2  0  0  0  0  0  0
  187.0650  176.4580  136.2180 C   0  0  1  0  0  3  0  0  0  0  0  0
  187.7880  174.2460  135.5850 C   0  0  0  0  0  2  0  0  0  0  0  0
  189.4600  175.8470  136.0750 C   0  0  2  0  0  3  0  0  0  0  0  0
  189.6040  177.0050  137.0780 C   0  0  0  0  0  2  0  0  0  0  0  0
  186.5420  173.9490  134.7570 C   0  0  0  0  0  2  0  0  0  0  0  0
  188.2990  178.4380  138.6650 C   0  0  2  0  0  3  0  0  0  0  0  0
  189.0550  179.3310  137.9070 O   0  0  0  0  0  1  0  0  0  0  0  0
  188.0970  178.2860  142.4720 N   0  0  0  0  0  2  0  0  0  0  0  0
  188.6590  178.5640  140.0720 N   0  0  0  0  0  2  0  0  0  0  0  0
  187.6880  178.4980  141.1200 C   0  0  0  0  0  0  0  0  0  0  0  0
  186.4630  178.6260  140.8560 O   0  0  0  0  0  0  0  0  0  0  0  0
  189.4720  177.9670  142.8280 C   0  0  1  0  0  3  0  0  0  0  0  0
  191.4970  176.5370  144.2760 O   0  0  0  0  0  0  0  0  0  0  0  0
  189.8210  178.3080  144.2870 C   0  0  2  0  0  3  0  0  0  0  0  0
  189.7810  176.5060  142.5240 C   0  0  0  0  0  2  0  0  0  0  0  0
  191.2250  176.1880  142.9290 C   0  0  1  0  0  3  0  0  0  0  0  0
  191.2980  177.9240  144.4660 C   0  0  0  0  0  2  0  0  0  0  0  0
  192.2470  176.7640  141.9560 C   0  0  0  0  0  1  0  0  0  0  0  0
  188.9250  177.5990  145.3260 C   0  0  0  0  0  3  0  0  0  0  0  0
  187.2950  177.5000  147.7780 C   0  0  0  0  0  2  0  0  0  0  0  0
  186.6540  177.5020  146.3930 C   0  0  0  0  0  2  0  0  0  0  0  0
  188.6810  176.8660  147.7170 C   0  0  0  0  0  2  0  0  0  0  0  0
  187.5420  178.2530  145.4050 C   0  0  0  0  0  2  0  0  0  0  0  0
  189.5580  177.6230  146.7230 C   0  0  0  0  0  2  0  0  0  0  0  0
  190.4850  176.0000  134.9460 C   0  0  0  0  0  2  0  0  0  0  0  0
  194.2450  175.6420  135.7660 C   0  0  0  0  0  2  0  0  0  0  0  0
  194.2640  174.1580  136.0450 C   0  0  0  0  0  0  0  0  0  0  0  0
  191.8310  174.1350  135.8270 C   0  0  0  0  0  3  0  0  0  0  0  0
  193.0770  176.0300  134.8540 C   0  0  0  0  0  2  0  0  0  0  0  0
  191.7970  175.3500  135.2660 C   0  0  0  0  0  0  0  0  0  0  0  0
  193.1160  173.4820  136.1320 C   0  0  0  0  0  3  0  0  0  0  0  0
  195.5180  173.4550  136.3460 C   0  0  0  0  0  3  0  0  0  0  0  0
  196.6830  173.8260  135.8290 C   0  0  0  0  0  2  0  0  0  0  0  0
  1  5  1  0  0  0  0
  2 12  1  1  0  0  0
  2 13  1  0  0  0  0
  2 11  1  0  0  0  0
  3 16  1  6  0  0  0
  4  7  2  0  0  0  0
  5  9  2  0  0  0  0
  6  1  1  0  0  0  0
  7  9  1  0  0  0  0
  7 11  1  0  0  0  0
  8  1  2  0  0  0  0
  8  4  1  0  0  0  0
 10  3  1  0  0  0  0
 11 10  1  1  0  0  0
 13 35  1  6  0  0  0
 13 14  1  0  0  0  0
 14  3  1  0  0  0  0
 15  4  1  0  0  0  0
 15 12  1  0  0  0  0
 16 17  1  6  0  0  0
 16 19  1  0  0  0  0
 19 20  1  0  0  0  0
 20 18  1  0  0  0  0
 21 20  2  0  0  0  0
 22 18  1  1  0  0  0
 22 24  1  0  0  0  0
 23 27  1  0  0  0  0
 24 27  1  0  0  0  0
 24 29  1  1  0  0  0
 25 22  1  0  0  0  0
 25 26  1  0  0  0  0
 26 28  1  6  0  0  0
 26 23  1  0  0  0  0
 29 33  1  0  0  0  0
 29 34  1  0  0  0  0
 31 30  1  0  0  0  0
 32 30  1  0  0  0  0
 33 31  1  0  0  0  0
 34 32  1  0  0  0  0
 35 40  1  0  0  0  0
 36 37  1  0  0  0  0
 37 41  2  0  0  0  0
 37 42  1  0  0  0  0
 38 41  1  0  0  0  0
 39 40  1  0  0  0  0
 39 36  1  0  0  0  0
 40 38  2  0  0  0  0
 43 42  2  0  0  0  0
M  END
>  <MODEL>
9

>  <REMARK>
 VINA RESULT:      -8.1      3.217     10.519
  Name = 
  7 active torsions:
  status: ('A' for Active; 'I' for Inactive)
    1  A    between atoms: C_1  and  C_34
    2  A    between atoms: C_1  and  C_35
    3  A    between atoms: C_2  and  N_6
    4  A    between atoms: C_2  and  C_13
    5  A    between atoms: N_3  and  C_4
    6  A    between atoms: C_11  and  C_14
    7  A    between atoms: C_19  and  C_25
                            x       y       z     vdW  Elec       q    Type
                         _______ _______ _______ _____ _____    ______ ____

>  <TORSDO>
F 7

$$$$
