=
 OpenBabel11052413423D

 27 31  0  0  1  0  0  0  0  0999 V2000
  186.5750  178.6480  138.8760 N   0  0  0  0  0  2  0  0  0  0  0  0
  186.8430  178.5600  136.5520 O   0  0  0  0  0  0  0  0  0  0  0  0
  184.4140  178.3270  141.9680 C   0  0  1  0  0  3  0  0  0  0  0  0
  183.3230  177.2150  139.9500 C   0  0  0  0  0  2  0  0  0  0  0  0
  184.7080  177.2290  137.4870 S   0  0  0  0  0  0  0  0  0  0  0  0
  183.0750  177.9940  141.2550 C   0  0  2  0  0  3  0  0  0  0  0  0
  186.2080  178.2030  137.5780 C   0  0  0  0  0  0  0  0  0  0  0  0
  185.6230  178.1290  139.8320 C   0  0  2  0  0  3  0  0  0  0  0  0
  184.3100  177.9890  139.0880 C   0  0  2  0  0  3  0  0  0  0  0  0
  185.4190  179.0260  141.0410 C   0  0  0  0  0  2  0  0  0  0  0  0
  184.2350  179.1160  143.2590 C   0  0  0  0  0  2  0  0  0  0  0  0
  186.8190  177.6190  146.3400 C   0  0  0  0  0  3  0  0  0  0  0  0
  185.1360  178.5980  144.3290 C   0  0  0  0  0  0  0  0  0  0  0  0
  186.2430  177.8060  143.9950 C   0  0  0  0  0  3  0  0  0  0  0  0
  187.0820  177.3170  145.0010 C   0  0  0  0  0  3  0  0  0  0  0  0
  185.7160  178.4100  146.6750 C   0  0  0  0  0  3  0  0  0  0  0  0
  184.8760  178.8990  145.6700 C   0  0  0  0  0  3  0  0  0  0  0  0
  182.2460  179.2420  140.9570 C   0  0  0  0  0  2  0  0  0  0  0  0
  180.0210  179.2880  142.0920 C   0  0  2  0  0  0  0  0  0  0  0  0
  178.9320  178.8370  139.1040 C   0  0  0  0  0  1  0  0  0  0  0  0
  179.8670  181.0640  139.8220 C   0  0  0  0  0  2  0  0  0  0  0  0
  178.9960  178.3820  142.4060 O   0  0  0  0  0  0  0  0  0  0  0  0
  180.1130  178.4090  143.2700 C   0  0  0  0  0  2  0  0  0  0  0  0
  180.1690  179.5770  139.5840 C   0  0  1  0  0  3  0  0  0  0  0  0
  178.9450  181.2690  141.0280 C   0  0  0  0  0  2  0  0  0  0  0  0
  179.5950  180.7340  142.3000 C   0  0  0  0  0  2  0  0  0  0  0  0
  180.7710  178.8920  140.8220 C   0  0  1  0  0  3  0  0  0  0  0  0
  1  8  1  0  0  0  0
  2  7  2  0  0  0  0
  3 11  1  1  0  0  0
  4  6  1  0  0  0  0
  5  7  1  0  0  0  0
  5  9  1  0  0  0  0
  6 18  1  6  0  0  0
  6  3  1  0  0  0  0
  7  1  1  0  0  0  0
  8 10  1  1  0  0  0
  9  8  1  0  0  0  0
  9  4  1  1  0  0  0
 10  3  1  0  0  0  0
 11 13  1  0  0  0  0
 12 16  1  0  0  0  0
 13 17  1  0  0  0  0
 14 13  2  0  0  0  0
 14 15  1  0  0  0  0
 15 12  2  0  0  0  0
 17 16  2  0  0  0  0
 19 26  1  1  0  0  0
 19 22  1  0  0  0  0
 19 23  1  0  0  0  0
 21 25  1  0  0  0  0
 22 23  1  0  0  0  0
 24 20  1  1  0  0  0
 24 21  1  0  0  0  0
 24 27  1  0  0  0  0
 25 26  1  0  0  0  0
 27 18  1  1  0  0  0
 27 19  1  0  0  0  0
M  END
>  <MODEL>
1

>  <REMARK>
 VINA RESULT:      -7.7      0.000      0.000
  Name = 
  4 active torsions:
  status: ('A' for Active; 'I' for Inactive)
    1  A    between atoms: C_2  and  C_6
    2  A    between atoms: C_2  and  C_9
    3  A    between atoms: C_3  and  C_14
    4  A    between atoms: C_3  and  C_26
                            x       y       z     vdW  Elec       q    Type
                         _______ _______ _______ _____ _____    ______ ____

>  <TORSDO>
F 4

$$$$
=
 OpenBabel11052413423D

 27 31  0  0  1  0  0  0  0  0999 V2000
  185.3620  177.5780  143.2160 N   0  0  0  0  0  2  0  0  0  0  0  0
  183.2510  178.0480  142.3220 O   0  0  0  0  0  0  0  0  0  0  0  0
  189.1350  177.4910  142.9120 C   0  0  1  0  0  3  0  0  0  0  0  0
  188.0920  179.0000  141.1410 C   0  0  0  0  0  2  0  0  0  0  0  0
  185.2860  179.3270  141.1270 S   0  0  0  0  0  0  0  0  0  0  0  0
  189.2410  178.0240  141.4570 C   0  0  2  0  0  3  0  0  0  0  0  0
  184.4910  178.2610  142.3270 C   0  0  0  0  0  0  0  0  0  0  0  0
  186.7220  177.9800  142.9360 C   0  0  2  0  0  3  0  0  0  0  0  0
  186.7650  178.3270  141.4620 C   0  0  2  0  0  3  0  0  0  0  0  0
  187.7520  176.9030  143.2270 C   0  0  0  0  0  2  0  0  0  0  0  0
  190.2360  176.5040  143.2800 C   0  0  0  0  0  2  0  0  0  0  0  0
  191.1350  176.7010  147.4700 C   0  0  0  0  0  3  0  0  0  0  0  0
  190.5520  176.5750  144.7360 C   0  0  0  0  0  0  0  0  0  0  0  0
  191.7410  176.0210  145.2260 C   0  0  0  0  0  3  0  0  0  0  0  0
  192.0310  176.0840  146.5930 C   0  0  0  0  0  3  0  0  0  0  0  0
  189.9480  177.2560  146.9820 C   0  0  0  0  0  3  0  0  0  0  0  0
  189.6580  177.1930  145.6170 C   0  0  0  0  0  3  0  0  0  0  0  0
  189.2560  176.8990  140.4240 C   0  0  0  0  0  2  0  0  0  0  0  0
  190.5240  176.3430  138.3430 C   0  0  2  0  0  0  0  0  0  0  0  0
  188.9240  178.8680  137.1690 C   0  0  0  0  0  1  0  0  0  0  0  0
  187.7560  176.6780  137.6010 C   0  0  0  0  0  2  0  0  0  0  0  0
  191.5740  176.8890  137.5900 O   0  0  0  0  0  0  0  0  0  0  0  0
  191.9310  176.1370  138.7310 C   0  0  0  0  0  2  0  0  0  0  0  0
  188.5070  177.8630  138.2280 C   0  0  1  0  0  3  0  0  0  0  0  0
  188.6830  175.8050  136.7520 C   0  0  0  0  0  2  0  0  0  0  0  0
  189.8060  175.2230  137.6040 C   0  0  0  0  0  2  0  0  0  0  0  0
  189.7150  177.4170  139.0670 C   0  0  1  0  0  3  0  0  0  0  0  0
  2  7  2  0  0  0  0
  3 10  1  0  0  0  0
  3 11  1  6  0  0  0
  4  6  1  0  0  0  0
  5  9  1  0  0  0  0
  5  7  1  0  0  0  0
  6 18  1  6  0  0  0
  6  3  1  0  0  0  0
  7  1  1  0  0  0  0
  8  1  1  0  0  0  0
  8 10  1  6  0  0  0
  9  4  1  1  0  0  0
  9  8  1  0  0  0  0
 11 13  1  0  0  0  0
 13 14  2  0  0  0  0
 13 17  1  0  0  0  0
 14 15  1  0  0  0  0
 15 12  2  0  0  0  0
 16 12  1  0  0  0  0
 17 16  2  0  0  0  0
 19 26  1  6  0  0  0
 19 23  1  0  0  0  0
 19 27  1  0  0  0  0
 21 24  1  0  0  0  0
 22 19  1  0  0  0  0
 22 23  1  0  0  0  0
 24 20  1  6  0  0  0
 24 27  1  0  0  0  0
 25 21  1  0  0  0  0
 25 26  1  0  0  0  0
 27 18  1  1  0  0  0
M  END
>  <MODEL>
2

>  <REMARK>
 VINA RESULT:      -7.3      3.880      7.770
  Name = 
  4 active torsions:
  status: ('A' for Active; 'I' for Inactive)
    1  A    between atoms: C_2  and  C_6
    2  A    between atoms: C_2  and  C_9
    3  A    between atoms: C_3  and  C_14
    4  A    between atoms: C_3  and  C_26
                            x       y       z     vdW  Elec       q    Type
                         _______ _______ _______ _____ _____    ______ ____

>  <TORSDO>
F 4

$$$$
=
 OpenBabel11052413423D

 27 31  0  0  1  0  0  0  0  0999 V2000
  187.0020  178.6280  138.9160 N   0  0  0  0  0  2  0  0  0  0  0  0
  187.6630  178.6280  136.6710 O   0  0  0  0  0  0  0  0  0  0  0  0
  184.3350  178.2570  141.5770 C   0  0  1  0  0  3  0  0  0  0  0  0
  183.5770  177.2670  139.3530 C   0  0  0  0  0  2  0  0  0  0  0  0
  185.3640  177.3340  137.1650 S   0  0  0  0  0  0  0  0  0  0  0  0
  183.1300  177.9990  140.6310 C   0  0  2  0  0  3  0  0  0  0  0  0
  186.8510  178.2510  137.5550 C   0  0  0  0  0  0  0  0  0  0  0  0
  185.8870  178.1040  139.6710 C   0  0  2  0  0  3  0  0  0  0  0  0
  184.7180  178.0410  138.7090 C   0  0  2  0  0  3  0  0  0  0  0  0
  185.5030  178.9570  140.8680 C   0  0  0  0  0  2  0  0  0  0  0  0
  183.9580  178.9970  142.8540 C   0  0  0  0  0  2  0  0  0  0  0  0
  186.4330  177.7530  146.1310 C   0  0  0  0  0  3  0  0  0  0  0  0
  184.8160  178.5620  143.9950 C   0  0  0  0  0  0  0  0  0  0  0  0
  184.4730  178.9120  145.3070 C   0  0  0  0  0  3  0  0  0  0  0  0
  185.2820  178.5080  146.3740 C   0  0  0  0  0  3  0  0  0  0  0  0
  186.7760  177.4020  144.8220 C   0  0  0  0  0  3  0  0  0  0  0  0
  185.9680  177.8050  143.7560 C   0  0  0  0  0  3  0  0  0  0  0  0
  182.3990  179.2870  140.2550 C   0  0  0  0  0  2  0  0  0  0  0  0
  179.9860  179.8850  140.0010 C   0  0  2  0  0  0  0  0  0  0  0  0
  179.6840  178.1590  142.6920 C   0  0  0  0  0  1  0  0  0  0  0  0
  180.1230  177.0420  140.4770 C   0  0  0  0  0  2  0  0  0  0  0  0
  179.0460  180.7080  140.6400 O   0  0  0  0  0  0  0  0  0  0  0  0
  179.9210  181.3300  139.7220 C   0  0  0  0  0  2  0  0  0  0  0  0
  180.6670  178.0030  141.5450 C   0  0  1  0  0  3  0  0  0  0  0  0
  178.9310  177.6430  139.7290 C   0  0  0  0  0  2  0  0  0  0  0  0
  179.3350  178.9270  139.0130 C   0  0  0  0  0  2  0  0  0  0  0  0
  181.0540  179.3720  140.9650 C   0  0  1  0  0  3  0  0  0  0  0  0
  1  8  1  0  0  0  0
  2  7  2  0  0  0  0
  3 11  1  1  0  0  0
  4  6  1  0  0  0  0
  5  7  1  0  0  0  0
  5  9  1  0  0  0  0
  6 18  1  6  0  0  0
  6  3  1  0  0  0  0
  7  1  1  0  0  0  0
  8 10  1  1  0  0  0
  9  4  1  1  0  0  0
  9  8  1  0  0  0  0
 10  3  1  0  0  0  0
 11 13  1  0  0  0  0
 12 15  1  0  0  0  0
 13 14  1  0  0  0  0
 14 15  2  0  0  0  0
 16 12  2  0  0  0  0
 17 13  2  0  0  0  0
 17 16  1  0  0  0  0
 19 26  1  6  0  0  0
 19 22  1  0  0  0  0
 19 27  1  0  0  0  0
 21 24  1  0  0  0  0
 23 19  1  0  0  0  0
 23 22  1  0  0  0  0
 24 20  1  1  0  0  0
 25 21  1  0  0  0  0
 26 25  1  0  0  0  0
 27 18  1  6  0  0  0
 27 24  1  0  0  0  0
M  END
>  <MODEL>
3

>  <REMARK>
 VINA RESULT:      -7.2      0.972      2.191
  Name = 
  4 active torsions:
  status: ('A' for Active; 'I' for Inactive)
    1  A    between atoms: C_2  and  C_6
    2  A    between atoms: C_2  and  C_9
    3  A    between atoms: C_3  and  C_14
    4  A    between atoms: C_3  and  C_26
                            x       y       z     vdW  Elec       q    Type
                         _______ _______ _______ _____ _____    ______ ____

>  <TORSDO>
F 4

$$$$
=
 OpenBabel11052413423D

 27 31  0  0  1  0  0  0  0  0999 V2000
  181.2290  177.9700  140.9250 N   0  0  0  0  0  2  0  0  0  0  0  0
  179.2560  177.6640  139.7030 O   0  0  0  0  0  0  0  0  0  0  0  0
  184.9030  178.8650  141.1000 C   0  0  1  0  0  3  0  0  0  0  0  0
  183.8530  179.6630  138.9180 C   0  0  0  0  0  2  0  0  0  0  0  0
  181.0980  179.1990  138.4960 S   0  0  0  0  0  0  0  0  0  0  0  0
  185.1300  179.1180  139.5850 C   0  0  2  0  0  3  0  0  0  0  0  0
  180.3870  178.2060  139.8060 C   0  0  0  0  0  0  0  0  0  0  0  0
  182.4780  178.6690  140.7240 C   0  0  2  0  0  3  0  0  0  0  0  0
  182.6940  178.7260  139.2250 C   0  0  2  0  0  3  0  0  0  0  0  0
  183.6700  177.9920  141.3750 C   0  0  0  0  0  2  0  0  0  0  0  0
  186.1290  178.3070  141.8130 C   0  0  0  0  0  2  0  0  0  0  0  0
  185.5810  178.3370  146.0690 C   0  0  0  0  0  3  0  0  0  0  0  0
  185.9350  178.3150  143.2920 C   0  0  0  0  0  0  0  0  0  0  0  0
  184.9670  179.1470  143.8710 C   0  0  0  0  0  3  0  0  0  0  0  0
  184.7920  179.1580  145.2580 C   0  0  0  0  0  3  0  0  0  0  0  0
  186.5460  177.5050  145.4930 C   0  0  0  0  0  3  0  0  0  0  0  0
  186.7210  177.4940  144.1070 C   0  0  0  0  0  3  0  0  0  0  0  0
  185.5980  177.8640  138.8480 C   0  0  0  0  0  2  0  0  0  0  0  0
  188.0210  177.7640  138.2450 C   0  0  2  0  0  0  0  0  0  0  0  0
  186.9020  178.3360  135.2900 C   0  0  0  0  0  1  0  0  0  0  0  0
  186.5990  176.0840  136.3780 C   0  0  0  0  0  2  0  0  0  0  0  0
  189.0280  178.6530  137.8380 O   0  0  0  0  0  0  0  0  0  0  0  0
  188.7490  178.5930  139.2210 C   0  0  0  0  0  2  0  0  0  0  0  0
  186.2590  177.5810  136.4400 C   0  0  1  0  0  3  0  0  0  0  0  0
  188.0770  175.8260  136.6780 C   0  0  0  0  0  2  0  0  0  0  0  0
  188.4360  176.3080  138.0800 C   0  0  0  0  0  2  0  0  0  0  0  0
  186.6350  178.2150  137.7890 C   0  0  1  0  0  3  0  0  0  0  0  0
  2  7  2  0  0  0  0
  3 10  1  0  0  0  0
  3 11  1  6  0  0  0
  4  6  1  0  0  0  0
  5  9  1  0  0  0  0
  5  7  1  0  0  0  0
  6 18  1  6  0  0  0
  6  3  1  0  0  0  0
  7  1  1  0  0  0  0
  8  1  1  0  0  0  0
  8 10  1  1  0  0  0
  9  4  1  1  0  0  0
  9  8  1  0  0  0  0
 11 13  1  0  0  0  0
 13 14  2  0  0  0  0
 13 17  1  0  0  0  0
 14 15  1  0  0  0  0
 15 12  2  0  0  0  0
 16 12  1  0  0  0  0
 17 16  2  0  0  0  0
 19 26  1  6  0  0  0
 19 23  1  0  0  0  0
 21 24  1  0  0  0  0
 21 25  1  0  0  0  0
 22 19  1  0  0  0  0
 22 23  1  0  0  0  0
 24 20  1  6  0  0  0
 24 27  1  0  0  0  0
 25 26  1  0  0  0  0
 27 19  1  0  0  0  0
 27 18  1  1  0  0  0
M  END
>  <MODEL>
4

>  <REMARK>
 VINA RESULT:      -7.0      2.253      6.209
  Name = 
  4 active torsions:
  status: ('A' for Active; 'I' for Inactive)
    1  A    between atoms: C_2  and  C_6
    2  A    between atoms: C_2  and  C_9
    3  A    between atoms: C_3  and  C_14
    4  A    between atoms: C_3  and  C_26
                            x       y       z     vdW  Elec       q    Type
                         _______ _______ _______ _____ _____    ______ ____

>  <TORSDO>
F 4

$$$$
=
 OpenBabel11052413423D

 27 31  0  0  1  0  0  0  0  0999 V2000
  184.1130  177.7190  142.4140 N   0  0  0  0  0  2  0  0  0  0  0  0
  182.3660  177.9410  140.8730 O   0  0  0  0  0  0  0  0  0  0  0  0
  187.7770  178.0060  143.3220 C   0  0  1  0  0  3  0  0  0  0  0  0
  187.2310  179.3390  141.2180 C   0  0  0  0  0  2  0  0  0  0  0  0
  184.5590  179.3780  140.2990 S   0  0  0  0  0  0  0  0  0  0  0  0
  188.2970  178.4970  141.9430 C   0  0  2  0  0  3  0  0  0  0  0  0
  183.5160  178.2790  141.2540 C   0  0  0  0  0  0  0  0  0  0  0  0
  185.4500  178.2480  142.5520 C   0  0  2  0  0  3  0  0  0  0  0  0
  185.9340  178.5460  141.1470 C   0  0  2  0  0  3  0  0  0  0  0  0
  186.4210  177.2920  143.2220 C   0  0  0  0  0  2  0  0  0  0  0  0
  188.7830  177.1500  144.0810 C   0  0  0  0  0  2  0  0  0  0  0  0
  188.5990  177.9440  148.2930 C   0  0  0  0  0  3  0  0  0  0  0  0
  188.7170  177.4230  145.5460 C   0  0  0  0  0  0  0  0  0  0  0  0
  187.5250  177.8770  146.1240 C   0  0  0  0  0  3  0  0  0  0  0  0
  187.4680  178.1380  147.4970 C   0  0  0  0  0  3  0  0  0  0  0  0
  189.7900  177.4900  147.7180 C   0  0  0  0  0  3  0  0  0  0  0  0
  189.8470  177.2290  146.3460 C   0  0  0  0  0  3  0  0  0  0  0  0
  188.7380  177.3440  141.0420 C   0  0  0  0  0  2  0  0  0  0  0  0
  190.7100  176.9950  139.5470 C   0  0  2  0  0  0  0  0  0  0  0  0
  189.0560  178.9180  137.5780 C   0  0  0  0  0  1  0  0  0  0  0  0
  188.3380  176.5350  137.9680 C   0  0  0  0  0  2  0  0  0  0  0  0
  191.7960  177.7430  139.0690 O   0  0  0  0  0  0  0  0  0  0  0  0
  191.9190  177.1950  140.3650 C   0  0  0  0  0  2  0  0  0  0  0  0
  188.5530  177.9170  138.6030 C   0  0  1  0  0  3  0  0  0  0  0  0
  189.6650  175.8790  137.5780 C   0  0  0  0  0  2  0  0  0  0  0  0
  190.5470  175.6750  138.8060 C   0  0  0  0  0  2  0  0  0  0  0  0
  189.4860  177.8670  139.8230 C   0  0  1  0  0  3  0  0  0  0  0  0
  1  8  1  0  0  0  0
  2  7  2  0  0  0  0
  3 11  1  6  0  0  0
  4  6  1  0  0  0  0
  5  9  1  0  0  0  0
  5  7  1  0  0  0  0
  6 18  1  6  0  0  0
  6  3  1  0  0  0  0
  7  1  1  0  0  0  0
  8 10  1  6  0  0  0
  9  4  1  1  0  0  0
  9  8  1  0  0  0  0
 10  3  1  0  0  0  0
 11 13  1  0  0  0  0
 13 14  2  0  0  0  0
 13 17  1  0  0  0  0
 14 15  1  0  0  0  0
 15 12  2  0  0  0  0
 16 12  1  0  0  0  0
 17 16  2  0  0  0  0
 19 26  1  6  0  0  0
 19 27  1  0  0  0  0
 19 23  1  0  0  0  0
 21 24  1  0  0  0  0
 22 19  1  0  0  0  0
 22 23  1  0  0  0  0
 24 20  1  6  0  0  0
 24 27  1  0  0  0  0
 25 21  1  0  0  0  0
 25 26  1  0  0  0  0
 27 18  1  1  0  0  0
M  END
>  <MODEL>
5

>  <REMARK>
 VINA RESULT:      -6.8      3.290      7.324
  Name = 
  4 active torsions:
  status: ('A' for Active; 'I' for Inactive)
    1  A    between atoms: C_2  and  C_6
    2  A    between atoms: C_2  and  C_9
    3  A    between atoms: C_3  and  C_14
    4  A    between atoms: C_3  and  C_26
                            x       y       z     vdW  Elec       q    Type
                         _______ _______ _______ _____ _____    ______ ____

>  <TORSDO>
F 4

$$$$
=
 OpenBabel11052413423D

 27 31  0  0  1  0  0  0  0  0999 V2000
  186.8290  178.9290  147.4840 N   0  0  0  0  0  2  0  0  0  0  0  0
  188.3080  178.6330  149.2730 O   0  0  0  0  0  0  0  0  0  0  0  0
  185.7030  178.1290  143.9590 C   0  0  1  0  0  3  0  0  0  0  0  0
  187.3150  176.3630  144.8460 C   0  0  0  0  0  2  0  0  0  0  0  0
  188.3030  176.6380  147.4790 S   0  0  0  0  0  0  0  0  0  0  0  0
  186.8360  177.1290  143.5990 C   0  0  2  0  0  3  0  0  0  0  0  0
  187.7860  178.1830  148.2210 C   0  0  0  0  0  0  0  0  0  0  0  0
  186.4700  178.1850  146.2980 C   0  0  2  0  0  3  0  0  0  0  0  0
  187.6890  177.3630  145.9300 C   0  0  2  0  0  3  0  0  0  0  0  0
  186.0840  179.0600  145.1190 C   0  0  0  0  0  2  0  0  0  0  0  0
  185.1990  178.9320  142.7660 C   0  0  0  0  0  2  0  0  0  0  0  0
  180.9320  178.6550  142.4190 C   0  0  0  0  0  3  0  0  0  0  0  0
  183.7160  178.8310  142.6450 C   0  0  0  0  0  0  0  0  0  0  0  0
  183.1260  178.5940  141.3960 C   0  0  0  0  0  3  0  0  0  0  0  0
  181.7350  178.5060  141.2850 C   0  0  0  0  0  3  0  0  0  0  0  0
  181.5180  178.8910  143.6660 C   0  0  0  0  0  3  0  0  0  0  0  0
  182.9090  178.9790  143.7780 C   0  0  0  0  0  3  0  0  0  0  0  0
  188.0270  177.8140  142.9290 C   0  0  0  0  0  2  0  0  0  0  0  0
  189.8030  177.3270  141.2410 C   0  0  2  0  0  0  0  0  0  0  0  0
  190.6220  175.0440  143.3450 C   0  0  0  0  0  1  0  0  0  0  0  0
  191.0850  177.4740  143.8230 C   0  0  0  0  0  2  0  0  0  0  0  0
  190.1040  176.3210  140.3100 O   0  0  0  0  0  0  0  0  0  0  0  0
  189.1520  177.2890  139.9200 C   0  0  0  0  0  2  0  0  0  0  0  0
  190.0030  176.4090  143.5880 C   0  0  1  0  0  3  0  0  0  0  0  0
  191.8820  177.7620  142.5470 C   0  0  0  0  0  2  0  0  0  0  0  0
  190.9660  178.2890  141.4470 C   0  0  0  0  0  2  0  0  0  0  0  0
  189.0420  176.7860  142.4490 C   0  0  1  0  0  3  0  0  0  0  0  0
  1  7  1  0  0  0  0
  3 11  1  6  0  0  0
  3 10  1  0  0  0  0
  5  7  1  0  0  0  0
  6 18  1  1  0  0  0
  6  3  1  0  0  0  0
  6  4  1  0  0  0  0
  7  2  2  0  0  0  0
  8 10  1  6  0  0  0
  8  1  1  0  0  0  0
  9  4  1  6  0  0  0
  9  8  1  0  0  0  0
  9  5  1  0  0  0  0
 12 16  1  0  0  0  0
 13 11  1  0  0  0  0
 13 17  1  0  0  0  0
 14 13  2  0  0  0  0
 15 14  1  0  0  0  0
 15 12  2  0  0  0  0
 16 17  2  0  0  0  0
 19 23  1  6  0  0  0
 19 26  1  0  0  0  0
 19 27  1  0  0  0  0
 22 19  1  0  0  0  0
 23 22  1  0  0  0  0
 24 20  1  6  0  0  0
 24 21  1  0  0  0  0
 25 21  1  0  0  0  0
 26 25  1  0  0  0  0
 27 18  1  1  0  0  0
 27 24  1  0  0  0  0
M  END
>  <MODEL>
6

>  <REMARK>
 VINA RESULT:      -6.4      4.413      8.629
  Name = 
  4 active torsions:
  status: ('A' for Active; 'I' for Inactive)
    1  A    between atoms: C_2  and  C_6
    2  A    between atoms: C_2  and  C_9
    3  A    between atoms: C_3  and  C_14
    4  A    between atoms: C_3  and  C_26
                            x       y       z     vdW  Elec       q    Type
                         _______ _______ _______ _____ _____    ______ ____

>  <TORSDO>
F 4

$$$$
=
 OpenBabel11052413423D

 27 31  0  0  1  0  0  0  0  0999 V2000
  185.3670  179.7530  145.8610 N   0  0  0  0  0  2  0  0  0  0  0  0
  186.0550  179.8960  148.0940 O   0  0  0  0  0  0  0  0  0  0  0  0
  185.6520  178.2310  142.4070 C   0  0  1  0  0  3  0  0  0  0  0  0
  186.7860  176.7730  144.1630 C   0  0  0  0  0  2  0  0  0  0  0  0
  186.7070  177.6020  146.8630 S   0  0  0  0  0  0  0  0  0  0  0  0
  186.8250  177.2580  142.7020 C   0  0  2  0  0  3  0  0  0  0  0  0
  185.9650  179.2230  147.0350 C   0  0  0  0  0  0  0  0  0  0  0  0
  185.4760  178.7770  144.8010 C   0  0  2  0  0  3  0  0  0  0  0  0
  186.7340  177.9820  145.0860 C   0  0  2  0  0  3  0  0  0  0  0  0
  185.5750  179.3880  143.4140 C   0  0  0  0  0  2  0  0  0  0  0  0
  185.6460  178.7610  140.9780 C   0  0  0  0  0  2  0  0  0  0  0  0
  181.7040  178.6010  139.2920 C   0  0  0  0  0  3  0  0  0  0  0  0
  184.2740  178.7070  140.3950 C   0  0  0  0  0  0  0  0  0  0  0  0
  183.2930  177.8940  140.9770 C   0  0  0  0  0  3  0  0  0  0  0  0
  182.0100  177.8410  140.4240 C   0  0  0  0  0  3  0  0  0  0  0  0
  182.6810  179.4140  138.7100 C   0  0  0  0  0  3  0  0  0  0  0  0
  183.9640  179.4670  139.2620 C   0  0  0  0  0  3  0  0  0  0  0  0
  188.1880  177.8800  142.4040 C   0  0  0  0  0  2  0  0  0  0  0  0
  190.1500  177.1460  141.0420 C   0  0  2  0  0  0  0  0  0  0  0  0
  190.7000  175.2550  143.5790 C   0  0  0  0  0  1  0  0  0  0  0  0
  191.1160  177.7360  143.6970 C   0  0  0  0  0  2  0  0  0  0  0  0
  190.5540  176.0040  140.3340 O   0  0  0  0  0  0  0  0  0  0  0  0
  189.6610  176.8800  139.6780 C   0  0  0  0  0  2  0  0  0  0  0  0
  190.0640  176.6330  143.5160 C   0  0  1  0  0  3  0  0  0  0  0  0
  192.0610  177.8210  142.4940 C   0  0  0  0  0  2  0  0  0  0  0  0
  191.2850  178.1440  141.2210 C   0  0  0  0  0  2  0  0  0  0  0  0
  189.2470  176.8010  142.2250 C   0  0  1  0  0  3  0  0  0  0  0  0
  1  7  1  0  0  0  0
  3 11  1  6  0  0  0
  3  6  1  0  0  0  0
  3 10  1  0  0  0  0
  5  7  1  0  0  0  0
  6 18  1  1  0  0  0
  6  4  1  0  0  0  0
  7  2  2  0  0  0  0
  8 10  1  6  0  0  0
  8  9  1  0  0  0  0
  8  1  1  0  0  0  0
  9  4  1  6  0  0  0
  9  5  1  0  0  0  0
 12 15  1  0  0  0  0
 13 14  1  0  0  0  0
 13 11  1  0  0  0  0
 15 14  2  0  0  0  0
 16 17  1  0  0  0  0
 16 12  2  0  0  0  0
 17 13  2  0  0  0  0
 19 23  1  6  0  0  0
 19 26  1  0  0  0  0
 19 27  1  0  0  0  0
 22 19  1  0  0  0  0
 23 22  1  0  0  0  0
 24 20  1  6  0  0  0
 24 21  1  0  0  0  0
 25 21  1  0  0  0  0
 26 25  1  0  0  0  0
 27 18  1  1  0  0  0
 27 24  1  0  0  0  0
M  END
>  <MODEL>
7

>  <REMARK>
 VINA RESULT:      -6.3      4.120      8.658
  Name = 
  4 active torsions:
  status: ('A' for Active; 'I' for Inactive)
    1  A    between atoms: C_2  and  C_6
    2  A    between atoms: C_2  and  C_9
    3  A    between atoms: C_3  and  C_14
    4  A    between atoms: C_3  and  C_26
                            x       y       z     vdW  Elec       q    Type
                         _______ _______ _______ _____ _____    ______ ____

>  <TORSDO>
F 4

$$$$
=
 OpenBabel11052413423D

 27 31  0  0  1  0  0  0  0  0999 V2000
  186.3690  178.0770  139.2720 N   0  0  0  0  0  2  0  0  0  0  0  0
  184.6570  178.1450  137.6780 O   0  0  0  0  0  0  0  0  0  0  0  0
  190.0270  177.7210  140.1800 C   0  0  1  0  0  3  0  0  0  0  0  0
  189.7290  178.2480  137.7040 C   0  0  0  0  0  2  0  0  0  0  0  0
  187.1120  178.6310  136.7090 S   0  0  0  0  0  0  0  0  0  0  0  0
  190.5790  177.4980  138.7450 C   0  0  2  0  0  3  0  0  0  0  0  0
  185.8750  178.2900  137.9570 C   0  0  0  0  0  0  0  0  0  0  0  0
  187.8040  178.2500  139.2630 C   0  0  2  0  0  3  0  0  0  0  0  0
  188.2690  177.8560  137.8760 C   0  0  2  0  0  3  0  0  0  0  0  0
  188.5290  177.4020  140.2930 C   0  0  0  0  0  2  0  0  0  0  0  0
  190.8170  176.9860  141.2560 C   0  0  0  0  0  2  0  0  0  0  0  0
  189.2290  177.8270  145.1520 C   0  0  0  0  0  3  0  0  0  0  0  0
  190.2660  177.2750  142.6120 C   0  0  0  0  0  0  0  0  0  0  0  0
  189.2450  176.4760  143.1430 C   0  0  0  0  0  3  0  0  0  0  0  0
  188.7270  176.7530  144.4120 C   0  0  0  0  0  3  0  0  0  0  0  0
  190.2480  178.6250  144.6250 C   0  0  0  0  0  3  0  0  0  0  0  0
  190.7660  178.3480  143.3570 C   0  0  0  0  0  3  0  0  0  0  0  0
  190.6550  176.0170  138.3740 C   0  0  0  0  0  2  0  0  0  0  0  0
  192.4200  175.3310  136.7440 C   0  0  2  0  0  0  0  0  0  0  0  0
  189.9270  175.1480  134.7280 C   0  0  0  0  0  1  0  0  0  0  0  0
  190.2640  173.4240  136.5330 C   0  0  0  0  0  2  0  0  0  0  0  0
  193.0580  175.8690  135.6160 O   0  0  0  0  0  0  0  0  0  0  0  0
  193.5340  176.2840  136.8790 C   0  0  0  0  0  2  0  0  0  0  0  0
  189.9820  174.9020  136.2250 C   0  0  1  0  0  3  0  0  0  0  0  0
  191.6890  173.0250  136.1410 C   0  0  0  0  0  2  0  0  0  0  0  0
  192.7120  173.8470  136.9190 C   0  0  0  0  0  2  0  0  0  0  0  0
  190.9910  175.8470  136.8990 C   0  0  1  0  0  3  0  0  0  0  0  0
  2  7  2  0  0  0  0
  3 10  1  0  0  0  0
  3 11  1  1  0  0  0
  4  6  1  0  0  0  0
  5  9  1  0  0  0  0
  5  7  1  0  0  0  0
  6 18  1  6  0  0  0
  6  3  1  0  0  0  0
  7  1  1  0  0  0  0
  8  1  1  0  0  0  0
  8 10  1  1  0  0  0
  9  4  1  6  0  0  0
  9  8  1  0  0  0  0
 11 13  1  0  0  0  0
 13 14  2  0  0  0  0
 13 17  1  0  0  0  0
 14 15  1  0  0  0  0
 15 12  2  0  0  0  0
 16 12  1  0  0  0  0
 17 16  2  0  0  0  0
 19 23  1  1  0  0  0
 19 27  1  0  0  0  0
 19 26  1  0  0  0  0
 22 19  1  0  0  0  0
 22 23  1  0  0  0  0
 24 20  1  6  0  0  0
 24 21  1  0  0  0  0
 24 27  1  0  0  0  0
 25 21  1  0  0  0  0
 25 26  1  0  0  0  0
 27 18  1  1  0  0  0
M  END
>  <MODEL>
8

>  <REMARK>
 VINA RESULT:      -6.3      4.975      9.066
  Name = 
  4 active torsions:
  status: ('A' for Active; 'I' for Inactive)
    1  A    between atoms: C_2  and  C_6
    2  A    between atoms: C_2  and  C_9
    3  A    between atoms: C_3  and  C_14
    4  A    between atoms: C_3  and  C_26
                            x       y       z     vdW  Elec       q    Type
                         _______ _______ _______ _____ _____    ______ ____

>  <TORSDO>
F 4

$$$$
=
 OpenBabel11052413423D

 27 31  0  0  1  0  0  0  0  0999 V2000
  191.4950  173.7060  136.3410 N   0  0  0  0  0  2  0  0  0  0  0  0
  193.3920  172.3350  136.3360 O   0  0  0  0  0  0  0  0  0  0  0  0
  189.5500  176.6510  137.7090 C   0  0  1  0  0  3  0  0  0  0  0  0
  192.0120  176.7780  138.3610 C   0  0  0  0  0  2  0  0  0  0  0  0
  193.7560  174.7500  137.4480 S   0  0  0  0  0  0  0  0  0  0  0  0
  190.5690  177.0890  138.7980 C   0  0  2  0  0  3  0  0  0  0  0  0
  192.8680  173.4480  136.5990 C   0  0  0  0  0  0  0  0  0  0  0  0
  191.1750  175.0350  136.8100 C   0  0  2  0  0  3  0  0  0  0  0  0
  192.1080  175.3090  137.9720 C   0  0  2  0  0  3  0  0  0  0  0  0
  189.7380  175.1900  137.2760 C   0  0  0  0  0  2  0  0  0  0  0  0
  188.1000  176.9170  138.0930 C   0  0  0  0  0  2  0  0  0  0  0  0
  185.6370  177.2520  134.5950 C   0  0  0  0  0  3  0  0  0  0  0  0
  187.2410  177.0360  136.8790 C   0  0  0  0  0  0  0  0  0  0  0  0
  186.0010  176.3860  136.8270 C   0  0  0  0  0  3  0  0  0  0  0  0
  185.2010  176.4940  135.6850 C   0  0  0  0  0  3  0  0  0  0  0  0
  186.8730  177.9030  134.6450 C   0  0  0  0  0  3  0  0  0  0  0  0
  187.6730  177.7950  135.7860 C   0  0  0  0  0  3  0  0  0  0  0  0
  190.2910  176.4360  140.1510 C   0  0  0  0  0  2  0  0  0  0  0  0
  188.8620  177.6850  141.7770 C   0  0  2  0  0  0  0  0  0  0  0  0
  191.6810  178.2620  143.2040 C   0  0  0  0  0  1  0  0  0  0  0  0
  190.6180  175.9800  143.3060 C   0  0  0  0  0  2  0  0  0  0  0  0
  188.6160  179.0200  142.1320 O   0  0  0  0  0  0  0  0  0  0  0  0
  187.9420  178.5270  140.9930 C   0  0  0  0  0  2  0  0  0  0  0  0
  191.2310  177.0560  142.3980 C   0  0  1  0  0  3  0  0  0  0  0  0
  189.2760  176.4290  143.8900 C   0  0  0  0  0  2  0  0  0  0  0  0
  188.2690  176.7030  142.7780 C   0  0  0  0  0  2  0  0  0  0  0  0
  190.2850  177.4780  141.2620 C   0  0  1  0  0  3  0  0  0  0  0  0
  1  7  1  0  0  0  0
  1  8  1  0  0  0  0
  2  7  2  0  0  0  0
  3 11  1  1  0  0  0
  3  6  1  0  0  0  0
  4  6  1  0  0  0  0
  5  9  1  0  0  0  0
  6 18  1  1  0  0  0
  7  5  1  0  0  0  0
  8 10  1  1  0  0  0
  8  9  1  0  0  0  0
  9  4  1  6  0  0  0
 10  3  1  0  0  0  0
 12 16  2  0  0  0  0
 12 15  1  0  0  0  0
 13 11  1  0  0  0  0
 14 13  1  0  0  0  0
 15 14  2  0  0  0  0
 16 17  1  0  0  0  0
 17 13  2  0  0  0  0
 19 23  1  6  0  0  0
 19 22  1  0  0  0  0
 19 26  1  0  0  0  0
 21 25  1  0  0  0  0
 23 22  1  0  0  0  0
 24 20  1  1  0  0  0
 24 21  1  0  0  0  0
 26 25  1  0  0  0  0
 27 18  1  6  0  0  0
 27 19  1  0  0  0  0
 27 24  1  0  0  0  0
M  END
>  <MODEL>
9

>  <REMARK>
 VINA RESULT:      -6.3      6.131      9.427
  Name = 
  4 active torsions:
  status: ('A' for Active; 'I' for Inactive)
    1  A    between atoms: C_2  and  C_6
    2  A    between atoms: C_2  and  C_9
    3  A    between atoms: C_3  and  C_14
    4  A    between atoms: C_3  and  C_26
                            x       y       z     vdW  Elec       q    Type
                         _______ _______ _______ _____ _____    ______ ____

>  <TORSDO>
F 4

$$$$
