=
 OpenBabel11052416313D

 43 47  0  0  1  0  0  0  0  0999 V2000
  190.4660  176.7910  141.3320 C   0  0  0  0  0  2  0  0  0  0  0  0
  188.2490  177.6580  141.6060 O   0  0  0  0  0  0  0  0  0  0  0  0
  188.3460  178.5090  140.4900 C   0  0  1  0  0  3  0  0  0  0  0  0
  189.4340  178.7720  138.3430 O   0  0  0  0  0  1  0  0  0  0  0  0
  189.5190  177.6090  142.2060 C   0  0  1  0  0  3  0  0  0  0  0  0
  190.5990  177.4680  139.9690 C   0  0  2  0  0  3  0  0  0  0  0  0
  189.2360  177.8720  139.3920 C   0  0  1  0  0  3  0  0  0  0  0  0
  192.7340  173.0400  135.7930 C   0  0  0  0  0  0  0  0  0  0  0  0
  191.3320  176.5690  139.0270 C   0  0  0  0  0  0  0  0  0  0  0  0
  192.7250  174.9130  137.3260 C   0  0  0  0  0  0  0  0  0  0  0  0
  191.3570  172.8750  135.9830 C   0  0  0  0  0  3  0  0  0  0  0  0
  193.4060  172.2120  134.9570 F   0  0  0  0  0  0  0  0  0  0  0  0
  191.3380  174.7410  137.5210 C   0  0  0  0  0  0  0  0  0  0  0  0
  193.4180  174.0610  136.4610 C   0  0  0  0  0  3  0  0  0  0  0  0
  190.6570  173.7240  136.8480 C   0  0  0  0  0  3  0  0  0  0  0  0
  190.6790  175.5710  138.3700 N   0  0  0  0  0  0  0  0  0  0  0  0
  192.7070  176.7380  138.8300 C   0  0  0  0  0  3  0  0  0  0  0  0
  193.3730  175.9070  137.9850 N   0  0  0  0  0  0  0  0  0  0  0  0
  189.5720  177.5760  146.0920 C   0  0  0  0  0  2  0  0  0  0  0  0
  191.6050  176.5210  144.8640 C   0  0  0  0  0  2  0  0  0  0  0  0
  190.8930  176.8640  146.1390 C   0  0  0  0  0  0  0  0  0  0  0  0
  189.2960  178.1080  144.6860 C   0  0  0  0  0  2  0  0  0  0  0  0
  189.4240  177.0120  143.6080 C   0  0  0  0  0  3  0  0  0  0  0  0
  191.3890  176.5730  147.2140 O   0  0  0  0  0  0  0  0  0  0  0  0
  190.5870  176.0270  143.8390 C   0  0  0  0  0  2  0  0  0  0  0  0
  186.9920  178.8420  140.0290 N   0  0  0  0  0  0  0  0  0  0  0  0
  186.8150  178.3460  138.7800 O   0  0  0  0  0  1  0  0  0  0  0  0
  185.7400  178.1680  141.1630 P   0  0  1  0  0  0  0  0  0  0  0  0
  185.5970  179.6800  142.2700 C   0  0  0  0  0  2  0  0  0  0  0  0
  185.4470  179.3550  143.6920 N   0  0  0  0  0  0  0  0  0  0  0  0
  185.8660  177.6540  145.4270 C   0  0  0  0  0  2  0  0  0  0  0  0
  183.6770  178.8930  145.4170 C   0  0  0  0  0  2  0  0  0  0  0  0
  184.9120  178.5370  146.2360 C   0  0  0  0  0  2  0  0  0  0  0  0
  184.0670  179.6330  144.1280 C   0  0  0  0  0  2  0  0  0  0  0  0
  185.8120  177.9550  143.9260 C   0  0  0  0  0  2  0  0  0  0  0  0
  184.1810  178.4510  140.1700 C   0  0  0  0  0  2  0  0  0  0  0  0
  183.0390  177.6400  140.7550 C   0  0  1  0  0  3  0  0  0  0  0  0
  182.1920  178.4840  141.4750 O   0  0  0  0  0  0  0  0  0  0  0  0
  180.9580  178.3880  140.8290 C   0  0  0  0  0  2  0  0  0  0  0  0
  180.1230  179.6100  141.1490 C   0  0  0  0  0  1  0  0  0  0  0  0
  182.2640  176.9700  139.6310 C   0  0  0  0  0  2  0  0  0  0  0  0
  182.2140  175.2380  138.2660 C   0  0  0  0  0  1  0  0  0  0  0  0
  183.0920  176.0760  138.9520 O   0  0  0  0  0  0  0  0  0  0  0  0
  1  5  1  0  0  0  0
  2  5  1  0  0  0  0
  3 26  1  6  0  0  0
  3  2  1  0  0  0  0
  5 23  1  1  0  0  0
  6  9  1  6  0  0  0
  6  1  1  0  0  0  0
  7  4  1  6  0  0  0
  7  6  1  0  0  0  0
  7  3  1  0  0  0  0
  8 11  2  0  0  0  0
  8 14  1  0  0  0  0
 10 13  1  0  0  0  0
 10 18  1  0  0  0  0
 11 15  1  0  0  0  0
 12  8  1  0  0  0  0
 13 16  1  0  0  0  0
 14 10  2  0  0  0  0
 15 13  2  0  0  0  0
 16  9  2  0  0  0  0
 17  9  1  0  0  0  0
 18 17  2  0  0  0  0
 19 21  1  0  0  0  0
 20 21  1  0  0  0  0
 21 24  2  0  0  0  0
 22 19  1  0  0  0  0
 23 25  1  0  0  0  0
 23 22  1  0  0  0  0
 25 20  1  0  0  0  0
 26 28  1  0  0  0  0
 27 26  1  0  0  0  0
 28 36  1  6  0  0  0
 28 29  1  0  0  0  0
 29 30  1  0  0  0  0
 30 35  1  0  0  0  0
 30 34  1  0  0  0  0
 31 33  1  0  0  0  0
 32 33  1  0  0  0  0
 34 32  1  0  0  0  0
 35 31  1  0  0  0  0
 36 37  1  0  0  0  0
 37 41  1  6  0  0  0
 37 38  1  0  0  0  0
 39 40  1  0  0  0  0
 39 38  1  0  0  0  0
 42 43  1  0  0  0  0
 43 41  1  0  0  0  0
M  END
>  <MODEL>
1

>  <REMARK>
 VINA RESULT:      -8.1      0.000      0.000
  Name = 
  12 active torsions:
  status: ('A' for Active; 'I' for Inactive)
    1  A    between atoms: N_2  and  C_13
    2  A    between atoms: N_2  and  P_41
    3  A    between atoms: O_3  and  C_4
    4  A    between atoms: O_3  and  C_12
    5  A    between atoms: C_4  and  C_15
    6  A    between atoms: C_4  and  C_22
    7  A    between atoms: C_8  and  C_34
    8  A    between atoms: N_11  and  C_14
    9  A    between atoms: C_14  and  P_41
   10  A    between atoms: C_15  and  O_42
   11  A    between atoms: C_22  and  P_41
   12  A    between atoms: C_28  and  C_35
                            x       y       z     vdW  Elec       q    Type
                         _______ _______ _______ _____ _____    ______ ____

>  <TORSDO>
F 12

$$$$
=
 OpenBabel11052416313D

 43 47  0  0  1  0  0  0  0  0999 V2000
  187.2480  178.1710  141.3960 C   0  0  0  0  0  2  0  0  0  0  0  0
  185.9690  179.2210  139.6640 O   0  0  0  0  0  0  0  0  0  0  0  0
  184.7370  178.7770  140.1780 C   0  0  1  0  0  3  0  0  0  0  0  0
  183.6100  178.1370  142.2230 O   0  0  0  0  0  1  0  0  0  0  0  0
  186.9140  178.2100  139.9070 C   0  0  1  0  0  3  0  0  0  0  0  0
  185.9810  177.8520  142.1860 C   0  0  2  0  0  3  0  0  0  0  0  0
  184.7870  178.7000  141.7260 C   0  0  1  0  0  3  0  0  0  0  0  0
  188.0510  178.0400  148.2920 C   0  0  0  0  0  0  0  0  0  0  0  0
  186.2350  178.0370  143.6470 C   0  0  0  0  0  0  0  0  0  0  0  0
  186.6480  178.3680  146.3480 C   0  0  0  0  0  0  0  0  0  0  0  0
  189.0120  177.4060  147.4940 C   0  0  0  0  0  3  0  0  0  0  0  0
  188.2670  178.1890  149.6210 F   0  0  0  0  0  0  0  0  0  0  0  0
  187.6130  177.7230  145.5470 C   0  0  0  0  0  0  0  0  0  0  0  0
  186.8710  178.5250  147.7190 C   0  0  0  0  0  3  0  0  0  0  0  0
  188.7940  177.2450  146.1210 C   0  0  0  0  0  3  0  0  0  0  0  0
  187.3790  177.5700  144.2180 N   0  0  0  0  0  0  0  0  0  0  0  0
  185.2800  178.6780  144.4440 C   0  0  0  0  0  3  0  0  0  0  0  0
  185.5060  178.8280  145.7760 N   0  0  0  0  0  0  0  0  0  0  0  0
  189.3630  177.7640  136.9230 C   0  0  0  0  0  2  0  0  0  0  0  0
  190.0420  176.6920  139.1910 C   0  0  0  0  0  2  0  0  0  0  0  0
  190.3460  176.9900  137.7530 C   0  0  0  0  0  0  0  0  0  0  0  0
  188.0220  177.8810  137.6460 C   0  0  0  0  0  2  0  0  0  0  0  0
  188.1720  178.4430  139.0750 C   0  0  0  0  0  3  0  0  0  0  0  0
  191.3870  176.5970  137.2540 O   0  0  0  0  0  0  0  0  0  0  0  0
  189.4080  177.9230  139.8350 C   0  0  0  0  0  2  0  0  0  0  0  0
  183.6690  179.6450  139.6670 N   0  0  0  0  0  0  0  0  0  0  0  0
  184.2210  180.6360  138.9250 O   0  0  0  0  0  1  0  0  0  0  0  0
  182.4820  178.6920  138.6720 P   0  0  1  0  0  0  0  0  0  0  0  0
  183.2870  177.0100  138.9060 C   0  0  0  0  0  2  0  0  0  0  0  0
  183.5120  176.2860  137.6500 N   0  0  0  0  0  0  0  0  0  0  0  0
  183.8350  174.0610  136.6370 C   0  0  0  0  0  2  0  0  0  0  0  0
  185.2330  175.9950  135.8410 C   0  0  0  0  0  2  0  0  0  0  0  0
  184.2580  174.8990  135.4270 C   0  0  0  0  0  2  0  0  0  0  0  0
  184.6020  176.9230  136.8910 C   0  0  0  0  0  2  0  0  0  0  0  0
  183.8050  174.8780  137.9330 C   0  0  0  0  0  2  0  0  0  0  0  0
  181.0940  178.4660  139.9030 C   0  0  0  0  0  2  0  0  0  0  0  0
  180.5870  179.8190  140.3680 C   0  0  1  0  0  3  0  0  0  0  0  0
  179.5970  180.2680  139.4920 O   0  0  0  0  0  0  0  0  0  0  0  0
  179.7410  181.6560  139.4710 C   0  0  0  0  0  2  0  0  0  0  0  0
  180.7620  182.0430  138.4210 C   0  0  0  0  0  1  0  0  0  0  0  0
  180.0150  179.6920  141.7710 C   0  0  0  0  0  2  0  0  0  0  0  0
  180.3750  178.5920  143.6480 C   0  0  0  0  0  1  0  0  0  0  0  0
  180.2640  178.4140  142.2700 O   0  0  0  0  0  0  0  0  0  0  0  0
  1  6  1  0  0  0  0
  2  5  1  0  0  0  0
  2  3  1  0  0  0  0
  3 26  1  1  0  0  0
  3  7  1  0  0  0  0
  5 23  1  6  0  0  0
  5  1  1  0  0  0  0
  6  9  1  1  0  0  0
  7  6  1  0  0  0  0
  7  4  1  6  0  0  0
  8 12  1  0  0  0  0
  9 16  2  0  0  0  0
  9 17  1  0  0  0  0
 10 14  2  0  0  0  0
 11  8  2  0  0  0  0
 13 15  2  0  0  0  0
 13 10  1  0  0  0  0
 14  8  1  0  0  0  0
 15 11  1  0  0  0  0
 16 13  1  0  0  0  0
 17 18  2  0  0  0  0
 18 10  1  0  0  0  0
 19 22  1  0  0  0  0
 19 21  1  0  0  0  0
 20 25  1  0  0  0  0
 21 20  1  0  0  0  0
 22 23  1  0  0  0  0
 23 25  1  0  0  0  0
 24 21  2  0  0  0  0
 27 26  1  0  0  0  0
 28 29  1  1  0  0  0
 28 26  1  0  0  0  0
 28 36  1  0  0  0  0
 30 35  1  0  0  0  0
 30 29  1  0  0  0  0
 31 35  1  0  0  0  0
 32 34  1  0  0  0  0
 33 32  1  0  0  0  0
 33 31  1  0  0  0  0
 34 30  1  0  0  0  0
 37 36  1  6  0  0  0
 37 41  1  0  0  0  0
 38 37  1  0  0  0  0
 39 38  1  0  0  0  0
 40 39  1  0  0  0  0
 41 43  1  0  0  0  0
 43 42  1  0  0  0  0
M  END
>  <MODEL>
2

>  <REMARK>
 VINA RESULT:      -8.0      4.151      7.927
  Name = 
  12 active torsions:
  status: ('A' for Active; 'I' for Inactive)
    1  A    between atoms: N_2  and  C_13
    2  A    between atoms: N_2  and  P_41
    3  A    between atoms: O_3  and  C_4
    4  A    between atoms: O_3  and  C_12
    5  A    between atoms: C_4  and  C_15
    6  A    between atoms: C_4  and  C_22
    7  A    between atoms: C_8  and  C_34
    8  A    between atoms: N_11  and  C_14
    9  A    between atoms: C_14  and  P_41
   10  A    between atoms: C_15  and  O_42
   11  A    between atoms: C_22  and  P_41
   12  A    between atoms: C_28  and  C_35
                            x       y       z     vdW  Elec       q    Type
                         _______ _______ _______ _____ _____    ______ ____

>  <TORSDO>
F 12

$$$$
=
 OpenBabel11052416313D

 43 47  0  0  1  0  0  0  0  0999 V2000
  187.3540  178.1050  141.3970 C   0  0  0  0  0  2  0  0  0  0  0  0
  186.0280  179.0640  139.6470 O   0  0  0  0  0  0  0  0  0  0  0  0
  184.8170  178.5830  140.1770 C   0  0  1  0  0  3  0  0  0  0  0  0
  183.7230  177.9460  142.2420 O   0  0  0  0  0  1  0  0  0  0  0  0
  187.0130  178.0960  139.9090 C   0  0  1  0  0  3  0  0  0  0  0  0
  186.1040  177.7530  142.2000 C   0  0  2  0  0  3  0  0  0  0  0  0
  184.8760  178.5430  141.7260 C   0  0  1  0  0  3  0  0  0  0  0  0
  188.1550  178.1020  148.3050 C   0  0  0  0  0  0  0  0  0  0  0  0
  186.3550  177.9810  143.6550 C   0  0  0  0  0  0  0  0  0  0  0  0
  186.7650  178.3930  146.3460 C   0  0  0  0  0  0  0  0  0  0  0  0
  189.1060  177.4250  147.5330 C   0  0  0  0  0  3  0  0  0  0  0  0
  188.3680  178.2900  149.6300 F   0  0  0  0  0  0  0  0  0  0  0  0
  187.7200  177.7040  145.5700 C   0  0  0  0  0  0  0  0  0  0  0  0
  186.9860  178.5900  147.7120 C   0  0  0  0  0  3  0  0  0  0  0  0
  188.8900  177.2240  146.1650 C   0  0  0  0  0  3  0  0  0  0  0  0
  187.4890  177.5130  144.2460 N   0  0  0  0  0  0  0  0  0  0  0  0
  185.4100  178.6660  144.4260 C   0  0  0  0  0  3  0  0  0  0  0  0
  185.6330  178.8550  145.7540 N   0  0  0  0  0  0  0  0  0  0  0  0
  189.4440  177.7120  136.9020 C   0  0  0  0  0  2  0  0  0  0  0  0
  190.1690  176.6530  139.1620 C   0  0  0  0  0  2  0  0  0  0  0  0
  190.4530  176.9600  137.7220 C   0  0  0  0  0  0  0  0  0  0  0  0
  188.1080  177.7970  137.6380 C   0  0  0  0  0  2  0  0  0  0  0  0
  188.2580  178.3600  139.0660 C   0  0  0  0  0  3  0  0  0  0  0  0
  191.4980  176.5930  137.2130 O   0  0  0  0  0  0  0  0  0  0  0  0
  189.5120  177.8680  139.8140 C   0  0  0  0  0  2  0  0  0  0  0  0
  183.7130  179.3960  139.6520 N   0  0  0  0  0  0  0  0  0  0  0  0
  184.2200  180.5210  139.0910 O   0  0  0  0  0  1  0  0  0  0  0  0
  182.7440  178.4600  138.4310 P   0  0  1  0  0  0  0  0  0  0  0  0
  183.0030  176.7600  139.1890 C   0  0  0  0  0  2  0  0  0  0  0  0
  183.5550  175.7750  138.2520 N   0  0  0  0  0  0  0  0  0  0  0  0
  185.1430  175.4260  136.3990 C   0  0  0  0  0  2  0  0  0  0  0  0
  182.8790  174.3340  136.3070 C   0  0  0  0  0  2  0  0  0  0  0  0
  184.3850  174.1020  136.2690 C   0  0  0  0  0  2  0  0  0  0  0  0
  182.4610  175.0180  137.6190 C   0  0  0  0  0  2  0  0  0  0  0  0
  184.3910  176.4500  137.2550 C   0  0  0  0  0  2  0  0  0  0  0  0
  181.0100  178.7430  139.0680 C   0  0  0  0  0  2  0  0  0  0  0  0
  180.7680  177.8990  140.3060 C   0  0  1  0  0  3  0  0  0  0  0  0
  180.7880  178.7190  141.4360 O   0  0  0  0  0  0  0  0  0  0  0  0
  179.9000  178.1170  142.3310 C   0  0  0  0  0  2  0  0  0  0  0  0
  180.2480  178.5310  143.7450 C   0  0  0  0  0  1  0  0  0  0  0  0
  179.4170  177.2100  140.1940 C   0  0  0  0  0  2  0  0  0  0  0  0
  179.7450  175.0290  140.1870 C   0  0  0  0  0  1  0  0  0  0  0  0
  179.5150  176.1120  139.3400 O   0  0  0  0  0  0  0  0  0  0  0  0
  1  6  1  0  0  0  0
  2  5  1  0  0  0  0
  2  3  1  0  0  0  0
  3 26  1  1  0  0  0
  3  7  1  0  0  0  0
  5 23  1  6  0  0  0
  5  1  1  0  0  0  0
  6  9  1  1  0  0  0
  7  6  1  0  0  0  0
  7  4  1  6  0  0  0
  8 12  1  0  0  0  0
  9 16  2  0  0  0  0
  9 17  1  0  0  0  0
 10 14  2  0  0  0  0
 11  8  2  0  0  0  0
 13 15  2  0  0  0  0
 13 10  1  0  0  0  0
 14  8  1  0  0  0  0
 15 11  1  0  0  0  0
 16 13  1  0  0  0  0
 17 18  2  0  0  0  0
 18 10  1  0  0  0  0
 19 22  1  0  0  0  0
 19 21  1  0  0  0  0
 20 25  1  0  0  0  0
 21 20  1  0  0  0  0
 22 23  1  0  0  0  0
 23 25  1  0  0  0  0
 24 21  2  0  0  0  0
 27 26  1  0  0  0  0
 28 36  1  1  0  0  0
 28 29  1  0  0  0  0
 28 26  1  0  0  0  0
 30 29  1  0  0  0  0
 31 35  1  0  0  0  0
 32 34  1  0  0  0  0
 33 32  1  0  0  0  0
 33 31  1  0  0  0  0
 34 30  1  0  0  0  0
 35 30  1  0  0  0  0
 37 36  1  6  0  0  0
 37 38  1  0  0  0  0
 38 39  1  0  0  0  0
 39 40  1  0  0  0  0
 41 37  1  0  0  0  0
 43 42  1  0  0  0  0
 43 41  1  0  0  0  0
M  END
>  <MODEL>
3

>  <REMARK>
 VINA RESULT:      -8.0      4.114      7.758
  Name = 
  12 active torsions:
  status: ('A' for Active; 'I' for Inactive)
    1  A    between atoms: N_2  and  C_13
    2  A    between atoms: N_2  and  P_41
    3  A    between atoms: O_3  and  C_4
    4  A    between atoms: O_3  and  C_12
    5  A    between atoms: C_4  and  C_15
    6  A    between atoms: C_4  and  C_22
    7  A    between atoms: C_8  and  C_34
    8  A    between atoms: N_11  and  C_14
    9  A    between atoms: C_14  and  P_41
   10  A    between atoms: C_15  and  O_42
   11  A    between atoms: C_22  and  P_41
   12  A    between atoms: C_28  and  C_35
                            x       y       z     vdW  Elec       q    Type
                         _______ _______ _______ _____ _____    ______ ____

>  <TORSDO>
F 12

$$$$
=
 OpenBabel11052416313D

 43 47  0  0  1  0  0  0  0  0999 V2000
  184.3290  178.3910  140.7740 C   0  0  0  0  0  2  0  0  0  0  0  0
  184.7330  177.8020  138.4880 O   0  0  0  0  0  0  0  0  0  0  0  0
  185.9960  178.4220  138.4560 C   0  0  1  0  0  3  0  0  0  0  0  0
  187.8810  179.0480  139.8400 O   0  0  0  0  0  1  0  0  0  0  0  0
  183.9070  178.5780  139.3200 C   0  0  1  0  0  3  0  0  0  0  0  0
  185.7700  178.8670  140.9430 C   0  0  2  0  0  3  0  0  0  0  0  0
  186.6880  178.3230  139.8400 C   0  0  1  0  0  3  0  0  0  0  0  0
  187.0500  177.8260  147.1790 C   0  0  0  0  0  0  0  0  0  0  0  0
  186.2760  178.4810  142.2950 C   0  0  0  0  0  0  0  0  0  0  0  0
  187.2600  177.7800  144.7690 C   0  0  0  0  0  0  0  0  0  0  0  0
  185.8590  178.5540  147.0630 C   0  0  0  0  0  3  0  0  0  0  0  0
  187.5240  177.4950  148.4040 F   0  0  0  0  0  0  0  0  0  0  0  0
  186.0640  178.5190  144.6540 C   0  0  0  0  0  0  0  0  0  0  0  0
  187.7490  177.4350  146.0320 C   0  0  0  0  0  3  0  0  0  0  0  0
  185.3650  178.9030  145.8010 C   0  0  0  0  0  3  0  0  0  0  0  0
  185.6060  178.8540  143.4200 N   0  0  0  0  0  0  0  0  0  0  0  0
  187.4610  177.7460  142.4120 C   0  0  0  0  0  3  0  0  0  0  0  0
  187.9280  177.4130  143.6450 N   0  0  0  0  0  0  0  0  0  0  0  0
  180.2780  177.6720  140.3740 C   0  0  0  0  0  2  0  0  0  0  0  0
  181.7770  175.7430  139.4890 C   0  0  0  0  0  2  0  0  0  0  0  0
  180.4560  176.2270  140.0080 C   0  0  0  0  0  0  0  0  0  0  0  0
  181.6280  178.3860  140.4230 C   0  0  0  0  0  2  0  0  0  0  0  0
  182.4430  178.1920  139.1270 C   0  0  0  0  0  3  0  0  0  0  0  0
  179.5280  175.4470  140.1410 O   0  0  0  0  0  0  0  0  0  0  0  0
  182.3470  176.7790  138.5220 C   0  0  0  0  0  2  0  0  0  0  0  0
  186.7820  177.8390  137.3620 N   0  0  0  0  0  0  0  0  0  0  0  0
  187.4030  178.8350  136.6830 O   0  0  0  0  0  1  0  0  0  0  0  0
  188.0030  176.6540  138.0050 P   0  0  1  0  0  0  0  0  0  0  0  0
  187.5700  175.2340  136.8530 C   0  0  0  0  0  2  0  0  0  0  0  0
  186.2110  174.7160  137.0420 N   0  0  0  0  0  0  0  0  0  0  0  0
  184.8770  172.7580  137.7230 C   0  0  0  0  0  2  0  0  0  0  0  0
  184.1450  174.1200  135.7390 C   0  0  0  0  0  2  0  0  0  0  0  0
  183.7390  173.5730  137.1020 C   0  0  0  0  0  2  0  0  0  0  0  0
  185.3900  175.0140  135.8550 C   0  0  0  0  0  2  0  0  0  0  0  0
  186.2590  173.2770  137.3150 C   0  0  0  0  0  2  0  0  0  0  0  0
  189.5450  177.2220  137.1140 C   0  0  0  0  0  2  0  0  0  0  0  0
  190.7740  176.8960  137.9440 C   0  0  1  0  0  3  0  0  0  0  0  0
  190.3810  176.5700  139.2430 O   0  0  0  0  0  0  0  0  0  0  0  0
  191.2210  177.3200  140.0690 C   0  0  0  0  0  2  0  0  0  0  0  0
  190.8700  177.0610  141.5190 C   0  0  0  0  0  1  0  0  0  0  0  0
  191.5110  175.7220  137.3190 C   0  0  0  0  0  2  0  0  0  0  0  0
  190.8680  173.6650  136.8520 C   0  0  0  0  0  1  0  0  0  0  0  0
  191.1010  174.5310  137.9180 O   0  0  0  0  0  0  0  0  0  0  0  0
  1  6  1  0  0  0  0
  2  5  1  0  0  0  0
  3 26  1  6  0  0  0
  3  2  1  0  0  0  0
  3  7  1  0  0  0  0
  5 23  1  1  0  0  0
  5  1  1  0  0  0  0
  6  9  1  1  0  0  0
  7  4  1  6  0  0  0
  7  6  1  0  0  0  0
  8 12  1  0  0  0  0
  9 17  2  0  0  0  0
  9 16  1  0  0  0  0
 10 14  1  0  0  0  0
 11  8  1  0  0  0  0
 13 10  1  0  0  0  0
 13 15  1  0  0  0  0
 14  8  2  0  0  0  0
 15 11  2  0  0  0  0
 16 13  2  0  0  0  0
 17 18  1  0  0  0  0
 18 10  2  0  0  0  0
 19 22  1  0  0  0  0
 20 21  1  0  0  0  0
 21 24  2  0  0  0  0
 21 19  1  0  0  0  0
 23 22  1  0  0  0  0
 25 23  1  0  0  0  0
 25 20  1  0  0  0  0
 26 28  1  0  0  0  0
 27 26  1  0  0  0  0
 28 29  1  6  0  0  0
 29 30  1  0  0  0  0
 30 35  1  0  0  0  0
 32 34  1  0  0  0  0
 32 33  1  0  0  0  0
 33 31  1  0  0  0  0
 34 30  1  0  0  0  0
 35 31  1  0  0  0  0
 36 28  1  0  0  0  0
 37 36  1  6  0  0  0
 37 38  1  0  0  0  0
 38 39  1  0  0  0  0
 39 40  1  0  0  0  0
 41 43  1  0  0  0  0
 41 37  1  0  0  0  0
 42 43  1  0  0  0  0
M  END
>  <MODEL>
4

>  <REMARK>
 VINA RESULT:      -7.7      3.531      9.055
  Name = 
  12 active torsions:
  status: ('A' for Active; 'I' for Inactive)
    1  A    between atoms: N_2  and  C_13
    2  A    between atoms: N_2  and  P_41
    3  A    between atoms: O_3  and  C_4
    4  A    between atoms: O_3  and  C_12
    5  A    between atoms: C_4  and  C_15
    6  A    between atoms: C_4  and  C_22
    7  A    between atoms: C_8  and  C_34
    8  A    between atoms: N_11  and  C_14
    9  A    between atoms: C_14  and  P_41
   10  A    between atoms: C_15  and  O_42
   11  A    between atoms: C_22  and  P_41
   12  A    between atoms: C_28  and  C_35
                            x       y       z     vdW  Elec       q    Type
                         _______ _______ _______ _____ _____    ______ ____

>  <TORSDO>
F 12

$$$$
=
 OpenBabel11052416313D

 43 47  0  0  1  0  0  0  0  0999 V2000
  185.3250  178.3830  140.5240 C   0  0  0  0  0  2  0  0  0  0  0  0
  185.5160  177.7520  138.2210 O   0  0  0  0  0  0  0  0  0  0  0  0
  186.8080  178.2920  138.0860 C   0  0  1  0  0  3  0  0  0  0  0  0
  188.8290  178.8110  139.3160 O   0  0  0  0  0  1  0  0  0  0  0  0
  184.8050  178.5830  139.1030 C   0  0  1  0  0  3  0  0  0  0  0  0
  186.8010  178.7690  140.5780 C   0  0  2  0  0  3  0  0  0  0  0  0
  187.5970  178.1600  139.4140 C   0  0  1  0  0  3  0  0  0  0  0  0
  190.3460  177.2380  145.7430 C   0  0  0  0  0  0  0  0  0  0  0  0
  187.3840  178.3640  141.8920 C   0  0  0  0  0  0  0  0  0  0  0  0
  188.4210  177.5750  144.3170 C   0  0  0  0  0  0  0  0  0  0  0  0
  191.1860  177.7080  144.7260 C   0  0  0  0  0  3  0  0  0  0  0  0
  190.8740  176.8480  146.9290 F   0  0  0  0  0  0  0  0  0  0  0  0
  189.2680  178.0420  143.2900 C   0  0  0  0  0  0  0  0  0  0  0  0
  188.9640  177.1750  145.5410 C   0  0  0  0  0  3  0  0  0  0  0  0
  190.6480  178.1090  143.4970 C   0  0  0  0  0  3  0  0  0  0  0  0
  188.7280  178.4200  142.1030 N   0  0  0  0  0  0  0  0  0  0  0  0
  186.5460  177.9030  142.9130 C   0  0  0  0  0  3  0  0  0  0  0  0
  187.0820  177.5170  144.1020 N   0  0  0  0  0  0  0  0  0  0  0  0
  181.2750  177.6300  140.4200 C   0  0  0  0  0  2  0  0  0  0  0  0
  182.5560  175.8370  139.0420 C   0  0  0  0  0  2  0  0  0  0  0  0
  181.3320  176.2670  139.7920 C   0  0  0  0  0  0  0  0  0  0  0  0
  182.6590  178.2770  140.4260 C   0  0  0  0  0  2  0  0  0  0  0  0
  183.3090  178.2880  139.0270 C   0  0  0  0  0  3  0  0  0  0  0  0
  180.3830  175.5070  139.9010 O   0  0  0  0  0  0  0  0  0  0  0  0
  183.0680  177.0080  138.2050 C   0  0  0  0  0  2  0  0  0  0  0  0
  187.4720  177.6520  136.9430 N   0  0  0  0  0  0  0  0  0  0  0  0
  188.5590  178.3840  136.5960 O   0  0  0  0  0  1  0  0  0  0  0  0
  187.9580  175.9470  137.3490 P   0  0  1  0  0  0  0  0  0  0  0  0
  187.3650  175.1550  135.7520 C   0  0  0  0  0  2  0  0  0  0  0  0
  186.2510  174.2190  135.9380 N   0  0  0  0  0  0  0  0  0  0  0  0
  183.8080  173.9360  135.7670 C   0  0  0  0  0  2  0  0  0  0  0  0
  185.0270  172.9680  137.7420 C   0  0  0  0  0  2  0  0  0  0  0  0
  184.1040  172.6650  136.5680 C   0  0  0  0  0  2  0  0  0  0  0  0
  186.3550  173.5690  137.2560 C   0  0  0  0  0  2  0  0  0  0  0  0
  184.9760  174.9260  135.7870 C   0  0  0  0  0  2  0  0  0  0  0  0
  189.7790  175.9940  136.9310 C   0  0  0  0  0  2  0  0  0  0  0  0
  190.5920  175.4420  138.0890 C   0  0  1  0  0  3  0  0  0  0  0  0
  191.2790  174.3010  137.6700 O   0  0  0  0  0  0  0  0  0  0  0  0
  192.6070  174.7110  137.5400 C   0  0  0  0  0  2  0  0  0  0  0  0
  193.2680  173.9380  136.4180 C   0  0  0  0  0  1  0  0  0  0  0  0
  191.5820  176.4950  138.5620 C   0  0  0  0  0  2  0  0  0  0  0  0
  192.4350  177.5230  140.3160 C   0  0  0  0  0  1  0  0  0  0  0  0
  191.2880  176.8670  139.8730 O   0  0  0  0  0  0  0  0  0  0  0  0
  1  6  1  0  0  0  0
  2  5  1  0  0  0  0
  3 26  1  6  0  0  0
  3  2  1  0  0  0  0
  3  7  1  0  0  0  0
  5 23  1  1  0  0  0
  5  1  1  0  0  0  0
  6  9  1  1  0  0  0
  7  4  1  6  0  0  0
  7  6  1  0  0  0  0
  8 12  1  0  0  0  0
  9 16  2  0  0  0  0
  9 17  1  0  0  0  0
 10 14  2  0  0  0  0
 11  8  2  0  0  0  0
 13 15  2  0  0  0  0
 13 10  1  0  0  0  0
 14  8  1  0  0  0  0
 15 11  1  0  0  0  0
 16 13  1  0  0  0  0
 17 18  2  0  0  0  0
 18 10  1  0  0  0  0
 19 22  1  0  0  0  0
 20 21  1  0  0  0  0
 21 24  2  0  0  0  0
 21 19  1  0  0  0  0
 23 22  1  0  0  0  0
 25 23  1  0  0  0  0
 25 20  1  0  0  0  0
 26 28  1  0  0  0  0
 27 26  1  0  0  0  0
 28 29  1  6  0  0  0
 29 30  1  0  0  0  0
 30 34  1  0  0  0  0
 31 35  1  0  0  0  0
 31 33  1  0  0  0  0
 33 32  1  0  0  0  0
 34 32  1  0  0  0  0
 35 30  1  0  0  0  0
 36 28  1  0  0  0  0
 37 36  1  6  0  0  0
 37 41  1  0  0  0  0
 38 37  1  0  0  0  0
 39 38  1  0  0  0  0
 40 39  1  0  0  0  0
 41 43  1  0  0  0  0
 43 42  1  0  0  0  0
M  END
>  <MODEL>
5

>  <REMARK>
 VINA RESULT:      -7.6      3.254      8.779
  Name = 
  12 active torsions:
  status: ('A' for Active; 'I' for Inactive)
    1  A    between atoms: N_2  and  C_13
    2  A    between atoms: N_2  and  P_41
    3  A    between atoms: O_3  and  C_4
    4  A    between atoms: O_3  and  C_12
    5  A    between atoms: C_4  and  C_15
    6  A    between atoms: C_4  and  C_22
    7  A    between atoms: C_8  and  C_34
    8  A    between atoms: N_11  and  C_14
    9  A    between atoms: C_14  and  P_41
   10  A    between atoms: C_15  and  O_42
   11  A    between atoms: C_22  and  P_41
   12  A    between atoms: C_28  and  C_35
                            x       y       z     vdW  Elec       q    Type
                         _______ _______ _______ _____ _____    ______ ____

>  <TORSDO>
F 12

$$$$
=
 OpenBabel11052416313D

 43 47  0  0  1  0  0  0  0  0999 V2000
  186.7860  178.0810  142.2610 C   0  0  0  0  0  2  0  0  0  0  0  0
  184.3980  177.8910  142.2630 O   0  0  0  0  0  0  0  0  0  0  0  0
  184.2450  178.6550  141.0910 C   0  0  1  0  0  3  0  0  0  0  0  0
  185.3540  179.2880  139.0340 O   0  0  0  0  0  1  0  0  0  0  0  0
  185.4830  178.4300  142.9750 C   0  0  1  0  0  3  0  0  0  0  0  0
  186.7710  178.6940  140.8630 C   0  0  2  0  0  3  0  0  0  0  0  0
  185.4450  178.4340  140.1350 C   0  0  1  0  0  3  0  0  0  0  0  0
  192.3800  176.6780  138.4000 C   0  0  0  0  0  0  0  0  0  0  0  0
  187.9260  178.1750  140.0690 C   0  0  0  0  0  0  0  0  0  0  0  0
  190.0340  177.2460  138.5630 C   0  0  0  0  0  0  0  0  0  0  0  0
  192.5630  177.0330  139.7420 C   0  0  0  0  0  3  0  0  0  0  0  0
  193.4300  176.2290  137.6700 F   0  0  0  0  0  0  0  0  0  0  0  0
  190.2200  177.6110  139.9130 C   0  0  0  0  0  0  0  0  0  0  0  0
  191.1160  176.7800  137.8110 C   0  0  0  0  0  3  0  0  0  0  0  0
  191.4840  177.5020  140.5000 C   0  0  0  0  0  3  0  0  0  0  0  0
  189.1620  178.0700  140.6300 N   0  0  0  0  0  0  0  0  0  0  0  0
  187.7430  177.8110  138.7310 C   0  0  0  0  0  3  0  0  0  0  0  0
  188.8010  177.3560  138.0070 N   0  0  0  0  0  0  0  0  0  0  0  0
  185.5380  178.6290  146.8560 C   0  0  0  0  0  2  0  0  0  0  0  0
  187.7260  177.8800  145.6710 C   0  0  0  0  0  2  0  0  0  0  0  0
  186.9630  178.1650  146.9310 C   0  0  0  0  0  0  0  0  0  0  0  0
  185.1740  179.0230  145.4250 C   0  0  0  0  0  2  0  0  0  0  0  0
  185.4940  177.9070  144.4090 C   0  0  0  0  0  3  0  0  0  0  0  0
  187.5020  178.0280  148.0160 O   0  0  0  0  0  0  0  0  0  0  0  0
  186.8110  177.1570  144.6840 C   0  0  0  0  0  2  0  0  0  0  0  0
  182.9450  178.3390  140.4860 N   0  0  0  0  0  0  0  0  0  0  0  0
  182.0550  178.0580  141.4690 O   0  0  0  0  0  1  0  0  0  0  0  0
  182.3510  179.7260  139.4700 P   0  0  1  0  0  0  0  0  0  0  0  0
  182.2460  178.7890  137.8450 C   0  0  0  0  0  2  0  0  0  0  0  0
  182.6660  177.3870  137.9450 N   0  0  0  0  0  0  0  0  0  0  0  0
  184.3460  175.7300  137.2310 C   0  0  0  0  0  2  0  0  0  0  0  0
  181.9190  175.0710  137.3120 C   0  0  0  0  0  2  0  0  0  0  0  0
  183.3230  174.7470  137.8080 C   0  0  0  0  0  2  0  0  0  0  0  0
  181.5130  176.5000  137.7090 C   0  0  0  0  0  2  0  0  0  0  0  0
  183.7510  177.1220  136.9980 C   0  0  0  0  0  2  0  0  0  0  0  0
  180.5270  179.7020  139.8780 C   0  0  0  0  0  2  0  0  0  0  0  0
  180.0100  181.1220  140.0240 C   0  0  1  0  0  3  0  0  0  0  0  0
  179.1640  181.4190  138.9540 O   0  0  0  0  0  0  0  0  0  0  0  0
  179.8250  182.4240  138.2440 C   0  0  0  0  0  2  0  0  0  0  0  0
  180.1770  181.9190  136.8610 C   0  0  0  0  0  1  0  0  0  0  0  0
  179.2480  181.2520  141.3340 C   0  0  0  0  0  2  0  0  0  0  0  0
  179.1480  180.0160  143.1580 C   0  0  0  0  0  1  0  0  0  0  0  0
  180.0290  180.7720  142.3860 O   0  0  0  0  0  0  0  0  0  0  0  0
  1  5  1  0  0  0  0
  2  5  1  0  0  0  0
  3 26  1  6  0  0  0
  3  2  1  0  0  0  0
  5 23  1  1  0  0  0
  6  9  1  6  0  0  0
  6  1  1  0  0  0  0
  7  4  1  6  0  0  0
  7  6  1  0  0  0  0
  7  3  1  0  0  0  0
  8 11  1  0  0  0  0
  9 16  1  0  0  0  0
 10 13  1  0  0  0  0
 11 15  2  0  0  0  0
 12  8  1  0  0  0  0
 13 15  1  0  0  0  0
 13 16  2  0  0  0  0
 14  8  2  0  0  0  0
 14 10  1  0  0  0  0
 17  9  2  0  0  0  0
 18 10  2  0  0  0  0
 18 17  1  0  0  0  0
 19 21  1  0  0  0  0
 20 21  1  0  0  0  0
 21 24  2  0  0  0  0
 22 19  1  0  0  0  0
 23 25  1  0  0  0  0
 23 22  1  0  0  0  0
 25 20  1  0  0  0  0
 26 27  1  0  0  0  0
 28 29  1  6  0  0  0
 28 36  1  0  0  0  0
 28 26  1  0  0  0  0
 29 30  1  0  0  0  0
 31 33  1  0  0  0  0
 32 34  1  0  0  0  0
 32 33  1  0  0  0  0
 34 30  1  0  0  0  0
 35 31  1  0  0  0  0
 35 30  1  0  0  0  0
 37 36  1  6  0  0  0
 37 41  1  0  0  0  0
 38 37  1  0  0  0  0
 39 38  1  0  0  0  0
 40 39  1  0  0  0  0
 41 43  1  0  0  0  0
 43 42  1  0  0  0  0
M  END
>  <MODEL>
6

>  <REMARK>
 VINA RESULT:      -7.5      2.734      5.279
  Name = 
  12 active torsions:
  status: ('A' for Active; 'I' for Inactive)
    1  A    between atoms: N_2  and  C_13
    2  A    between atoms: N_2  and  P_41
    3  A    between atoms: O_3  and  C_4
    4  A    between atoms: O_3  and  C_12
    5  A    between atoms: C_4  and  C_15
    6  A    between atoms: C_4  and  C_22
    7  A    between atoms: C_8  and  C_34
    8  A    between atoms: N_11  and  C_14
    9  A    between atoms: C_14  and  P_41
   10  A    between atoms: C_15  and  O_42
   11  A    between atoms: C_22  and  P_41
   12  A    between atoms: C_28  and  C_35
                            x       y       z     vdW  Elec       q    Type
                         _______ _______ _______ _____ _____    ______ ____

>  <TORSDO>
F 12

$$$$
=
 OpenBabel11052416313D

 43 47  0  0  1  0  0  0  0  0999 V2000
  189.4240  174.7670  136.3980 C   0  0  0  0  0  2  0  0  0  0  0  0
  190.6050  176.3230  137.7860 O   0  0  0  0  0  0  0  0  0  0  0  0
  189.5420  177.2440  137.8140 C   0  0  1  0  0  3  0  0  0  0  0  0
  187.1320  177.4260  137.6620 O   0  0  0  0  0  1  0  0  0  0  0  0
  190.6070  175.7250  136.5140 C   0  0  1  0  0  3  0  0  0  0  0  0
  188.1250  175.5520  136.5630 C   0  0  2  0  0  3  0  0  0  0  0  0
  188.1790  176.5070  137.7640 C   0  0  1  0  0  3  0  0  0  0  0  0
  182.4960  172.4350  137.0120 C   0  0  0  0  0  0  0  0  0  0  0  0
  186.9740  174.6070  136.6840 C   0  0  0  0  0  0  0  0  0  0  0  0
  184.8810  172.8390  136.9470 C   0  0  0  0  0  0  0  0  0  0  0  0
  182.2570  173.7990  136.7990 C   0  0  0  0  0  3  0  0  0  0  0  0
  181.4550  171.5790  137.1460 F   0  0  0  0  0  0  0  0  0  0  0  0
  184.6400  174.2130  136.7390 C   0  0  0  0  0  0  0  0  0  0  0  0
  183.8070  171.9540  137.0820 C   0  0  0  0  0  3  0  0  0  0  0  0
  183.3280  174.6890  136.6640 C   0  0  0  0  0  3  0  0  0  0  0  0
  185.6920  175.0620  136.6180 N   0  0  0  0  0  0  0  0  0  0  0  0
  187.2110  173.2430  136.8880 C   0  0  0  0  0  3  0  0  0  0  0  0
  186.1610  172.3890  137.0170 N   0  0  0  0  0  0  0  0  0  0  0  0
  194.0270  174.1190  137.4200 C   0  0  0  0  0  2  0  0  0  0  0  0
  194.0760  176.3800  136.1400 C   0  0  0  0  0  2  0  0  0  0  0  0
  194.8010  175.2270  136.7660 C   0  0  0  0  0  0  0  0  0  0  0  0
  192.5610  174.5140  137.5910 C   0  0  0  0  0  2  0  0  0  0  0  0
  191.9230  174.9920  136.2700 C   0  0  0  0  0  3  0  0  0  0  0  0
  196.0200  175.1920  136.7540 O   0  0  0  0  0  0  0  0  0  0  0  0
  192.8510  175.8560  135.3940 C   0  0  0  0  0  2  0  0  0  0  0  0
  189.6980  178.1120  138.9880 N   0  0  0  0  0  0  0  0  0  0  0  0
  188.9990  179.2560  138.7890 O   0  0  0  0  0  1  0  0  0  0  0  0
  189.1210  177.2700  140.4940 P   0  0  1  0  0  0  0  0  0  0  0  0
  190.6850  177.5170  141.5060 C   0  0  0  0  0  2  0  0  0  0  0  0
  190.4840  177.3550  142.9500 N   0  0  0  0  0  0  0  0  0  0  0  0
  190.3270  178.5380  145.1070 C   0  0  0  0  0  2  0  0  0  0  0  0
  191.5860  176.3640  144.9800 C   0  0  0  0  0  2  0  0  0  0  0  0
  190.4510  177.1160  145.6630 C   0  0  0  0  0  2  0  0  0  0  0  0
  191.3580  176.2850  143.4620 C   0  0  0  0  0  2  0  0  0  0  0  0
  190.7330  178.6270  143.6330 C   0  0  0  0  0  2  0  0  0  0  0  0
  188.1080  178.6270  141.2870 C   0  0  0  0  0  2  0  0  0  0  0  0
  186.9390  178.0250  142.0450 C   0  0  1  0  0  3  0  0  0  0  0  0
  187.2810  177.8900  143.3920 O   0  0  0  0  0  0  0  0  0  0  0  0
  186.0610  177.8790  144.0710 C   0  0  0  0  0  2  0  0  0  0  0  0
  186.3090  178.0150  145.5590 C   0  0  0  0  0  1  0  0  0  0  0  0
  185.7260  178.9330  141.9110 C   0  0  0  0  0  2  0  0  0  0  0  0
  184.5210  178.8180  140.0670 C   0  0  0  0  0  1  0  0  0  0  0  0
  185.6490  179.4310  140.6100 O   0  0  0  0  0  0  0  0  0  0  0  0
  1  5  1  0  0  0  0
  1  6  1  0  0  0  0
  2  3  1  0  0  0  0
  3 26  1  1  0  0  0
  5 23  1  1  0  0  0
  5  2  1  0  0  0  0
  6  9  1  1  0  0  0
  6  7  1  0  0  0  0
  7  4  1  6  0  0  0
  7  3  1  0  0  0  0
  8 14  1  0  0  0  0
  8 12  1  0  0  0  0
  9 17  1  0  0  0  0
 10 18  1  0  0  0  0
 10 14  2  0  0  0  0
 11  8  2  0  0  0  0
 13 10  1  0  0  0  0
 15 13  2  0  0  0  0
 15 11  1  0  0  0  0
 16  9  2  0  0  0  0
 16 13  1  0  0  0  0
 17 18  2  0  0  0  0
 19 22  1  0  0  0  0
 20 21  1  0  0  0  0
 21 19  1  0  0  0  0
 23 22  1  0  0  0  0
 24 21  2  0  0  0  0
 25 20  1  0  0  0  0
 25 23  1  0  0  0  0
 26 28  1  0  0  0  0
 27 26  1  0  0  0  0
 28 36  1  1  0  0  0
 28 29  1  0  0  0  0
 29 30  1  0  0  0  0
 30 34  1  0  0  0  0
 30 35  1  0  0  0  0
 31 33  1  0  0  0  0
 32 33  1  0  0  0  0
 34 32  1  0  0  0  0
 35 31  1  0  0  0  0
 37 36  1  6  0  0  0
 37 38  1  0  0  0  0
 38 39  1  0  0  0  0
 39 40  1  0  0  0  0
 41 37  1  0  0  0  0
 42 43  1  0  0  0  0
 43 41  1  0  0  0  0
M  END
>  <MODEL>
7

>  <REMARK>
 VINA RESULT:      -7.5      3.298      6.940
  Name = 
  12 active torsions:
  status: ('A' for Active; 'I' for Inactive)
    1  A    between atoms: N_2  and  C_13
    2  A    between atoms: N_2  and  P_41
    3  A    between atoms: O_3  and  C_4
    4  A    between atoms: O_3  and  C_12
    5  A    between atoms: C_4  and  C_15
    6  A    between atoms: C_4  and  C_22
    7  A    between atoms: C_8  and  C_34
    8  A    between atoms: N_11  and  C_14
    9  A    between atoms: C_14  and  P_41
   10  A    between atoms: C_15  and  O_42
   11  A    between atoms: C_22  and  P_41
   12  A    between atoms: C_28  and  C_35
                            x       y       z     vdW  Elec       q    Type
                         _______ _______ _______ _____ _____    ______ ____

>  <TORSDO>
F 12

$$$$
=
 OpenBabel11052416313D

 43 47  0  0  1  0  0  0  0  0999 V2000
  186.2850  178.1140  142.0120 C   0  0  0  0  0  2  0  0  0  0  0  0
  185.5450  177.9700  139.7380 O   0  0  0  0  0  0  0  0  0  0  0  0
  186.6850  178.6210  139.2310 C   0  0  1  0  0  3  0  0  0  0  0  0
  189.0320  179.0330  139.6600 O   0  0  0  0  0  1  0  0  0  0  0  0
  185.2490  178.5550  140.9820 C   0  0  1  0  0  3  0  0  0  0  0  0
  187.6660  178.5910  141.5700 C   0  0  2  0  0  3  0  0  0  0  0  0
  187.9320  178.2860  140.0890 C   0  0  1  0  0  3  0  0  0  0  0  0
  191.5550  176.3430  146.1990 C   0  0  0  0  0  0  0  0  0  0  0  0
  188.7160  177.9760  142.4370 C   0  0  0  0  0  0  0  0  0  0  0  0
  190.6900  176.8630  143.9990 C   0  0  0  0  0  0  0  0  0  0  0  0
  190.4260  176.9300  146.7840 C   0  0  0  0  0  3  0  0  0  0  0  0
  192.5200  175.8060  146.9820 F   0  0  0  0  0  0  0  0  0  0  0  0
  189.5570  177.4600  144.5900 C   0  0  0  0  0  0  0  0  0  0  0  0
  191.6860  176.3050  144.8070 C   0  0  0  0  0  3  0  0  0  0  0  0
  189.4270  177.4910  145.9810 C   0  0  0  0  0  3  0  0  0  0  0  0
  188.6020  178.0050  143.7930 N   0  0  0  0  0  0  0  0  0  0  0  0
  189.8400  177.3810  141.8540 C   0  0  0  0  0  3  0  0  0  0  0  0
  190.8030  176.8390  142.6460 N   0  0  0  0  0  0  0  0  0  0  0  0
  181.3960  178.8950  141.3560 C   0  0  0  0  0  2  0  0  0  0  0  0
  182.8440  179.3830  143.4580 C   0  0  0  0  0  2  0  0  0  0  0  0
  181.4980  179.2650  142.8070 C   0  0  0  0  0  0  0  0  0  0  0  0
  182.7640  178.9810  140.6810 C   0  0  0  0  0  2  0  0  0  0  0  0
  183.8410  178.1710  141.4310 C   0  0  0  0  0  3  0  0  0  0  0  0
  180.4850  179.4760  143.4540 O   0  0  0  0  0  0  0  0  0  0  0  0
  183.7400  178.2490  142.9660 C   0  0  0  0  0  2  0  0  0  0  0  0
  186.8360  178.2730  137.8130 N   0  0  0  0  0  0  0  0  0  0  0  0
  187.6400  179.1870  137.2160 O   0  0  0  0  0  1  0  0  0  0  0  0
  187.5310  176.6020  137.6280 P   0  0  1  0  0  0  0  0  0  0  0  0
  186.3660  176.0200  136.2730 C   0  0  0  0  0  2  0  0  0  0  0  0
  185.0140  176.5800  136.3790 N   0  0  0  0  0  0  0  0  0  0  0  0
  182.8760  176.4680  137.6020 C   0  0  0  0  0  2  0  0  0  0  0  0
  182.8550  176.7330  135.1010 C   0  0  0  0  0  2  0  0  0  0  0  0
  182.3940  177.3240  136.4270 C   0  0  0  0  0  2  0  0  0  0  0  0
  184.3880  176.6340  135.0460 C   0  0  0  0  0  2  0  0  0  0  0  0
  184.2170  175.7840  137.3160 C   0  0  0  0  0  2  0  0  0  0  0  0
  189.0070  176.9550  136.5380 C   0  0  0  0  0  2  0  0  0  0  0  0
  190.1410  176.0030  136.8750 C   0  0  1  0  0  3  0  0  0  0  0  0
  190.2160  175.8450  138.2610 O   0  0  0  0  0  0  0  0  0  0  0  0
  191.3520  176.5620  138.6410 C   0  0  0  0  0  2  0  0  0  0  0  0
  192.5750  175.9570  137.9860 C   0  0  0  0  0  1  0  0  0  0  0  0
  189.8850  174.6560  136.2170 C   0  0  0  0  0  2  0  0  0  0  0  0
  188.6650  172.9320  136.8500 C   0  0  0  0  0  1  0  0  0  0  0  0
  189.8030  173.6610  137.1900 O   0  0  0  0  0  0  0  0  0  0  0  0
  2  5  1  0  0  0  0
  3 26  1  6  0  0  0
  3  2  1  0  0  0  0
  3  7  1  0  0  0  0
  5 23  1  1  0  0  0
  5  1  1  0  0  0  0
  6  1  1  0  0  0  0
  6  9  1  1  0  0  0
  7  4  1  6  0  0  0
  7  6  1  0  0  0  0
  8 11  1  0  0  0  0
  8 12  1  0  0  0  0
  9 16  1  0  0  0  0
 10 13  1  0  0  0  0
 10 14  1  0  0  0  0
 13 15  1  0  0  0  0
 14  8  2  0  0  0  0
 15 11  2  0  0  0  0
 16 13  2  0  0  0  0
 17  9  2  0  0  0  0
 17 18  1  0  0  0  0
 18 10  2  0  0  0  0
 19 21  1  0  0  0  0
 21 24  2  0  0  0  0
 21 20  1  0  0  0  0
 22 19  1  0  0  0  0
 22 23  1  0  0  0  0
 23 25  1  0  0  0  0
 25 20  1  0  0  0  0
 27 26  1  0  0  0  0
 28 29  1  6  0  0  0
 28 26  1  0  0  0  0
 29 30  1  0  0  0  0
 30 35  1  0  0  0  0
 32 33  1  0  0  0  0
 33 31  1  0  0  0  0
 34 32  1  0  0  0  0
 34 30  1  0  0  0  0
 35 31  1  0  0  0  0
 36 37  1  0  0  0  0
 36 28  1  0  0  0  0
 37 41  1  6  0  0  0
 37 38  1  0  0  0  0
 38 39  1  0  0  0  0
 40 39  1  0  0  0  0
 41 43  1  0  0  0  0
 42 43  1  0  0  0  0
M  END
>  <MODEL>
8

>  <REMARK>
 VINA RESULT:      -7.4      3.168      7.903
  Name = 
  12 active torsions:
  status: ('A' for Active; 'I' for Inactive)
    1  A    between atoms: N_2  and  C_13
    2  A    between atoms: N_2  and  P_41
    3  A    between atoms: O_3  and  C_4
    4  A    between atoms: O_3  and  C_12
    5  A    between atoms: C_4  and  C_15
    6  A    between atoms: C_4  and  C_22
    7  A    between atoms: C_8  and  C_34
    8  A    between atoms: N_11  and  C_14
    9  A    between atoms: C_14  and  P_41
   10  A    between atoms: C_15  and  O_42
   11  A    between atoms: C_22  and  P_41
   12  A    between atoms: C_28  and  C_35
                            x       y       z     vdW  Elec       q    Type
                         _______ _______ _______ _____ _____    ______ ____

>  <TORSDO>
F 12

$$$$
=
 OpenBabel11052416313D

 43 47  0  0  1  0  0  0  0  0999 V2000
  186.5870  178.2570  142.5670 C   0  0  0  0  0  2  0  0  0  0  0  0
  184.2510  178.0570  143.0600 O   0  0  0  0  0  0  0  0  0  0  0  0
  183.8640  178.9250  142.0230 C   0  0  1  0  0  3  0  0  0  0  0  0
  184.5200  179.7530  139.8440 O   0  0  0  0  0  1  0  0  0  0  0  0
  185.4710  178.5320  143.5710 C   0  0  1  0  0  3  0  0  0  0  0  0
  186.2840  178.9980  141.2660 C   0  0  2  0  0  3  0  0  0  0  0  0
  184.8300  178.8000  140.8160 C   0  0  1  0  0  3  0  0  0  0  0  0
  189.4630  177.1710  135.9600 C   0  0  0  0  0  0  0  0  0  0  0  0
  187.2360  178.5610  140.2000 C   0  0  0  0  0  0  0  0  0  0  0  0
  189.0120  177.7190  138.2730 C   0  0  0  0  0  0  0  0  0  0  0  0
  188.1420  177.4900  135.6240 C   0  0  0  0  0  3  0  0  0  0  0  0
  190.3230  176.7510  135.0000 F   0  0  0  0  0  0  0  0  0  0  0  0
  187.6790  178.0330  137.9350 C   0  0  0  0  0  0  0  0  0  0  0  0
  189.9000  177.2890  137.2830 C   0  0  0  0  0  3  0  0  0  0  0  0
  187.2470  177.9190  136.6110 C   0  0  0  0  0  3  0  0  0  0  0  0
  186.8250  178.4420  138.9080 N   0  0  0  0  0  0  0  0  0  0  0  0
  188.5590  178.2510  140.5330 C   0  0  0  0  0  3  0  0  0  0  0  0
  189.4180  177.8350  139.5630 N   0  0  0  0  0  0  0  0  0  0  0  0
  186.3320  178.3690  147.3570 C   0  0  0  0  0  2  0  0  0  0  0  0
  188.2240  177.7710  145.6780 C   0  0  0  0  0  2  0  0  0  0  0  0
  187.7410  177.9240  147.0900 C   0  0  0  0  0  0  0  0  0  0  0  0
  185.6800  178.8880  146.0760 C   0  0  0  0  0  2  0  0  0  0  0  0
  185.7780  177.8770  144.9150 C   0  0  0  0  0  3  0  0  0  0  0  0
  188.4930  177.6950  148.0220 O   0  0  0  0  0  0  0  0  0  0  0  0
  187.1220  177.1280  144.8390 C   0  0  0  0  0  2  0  0  0  0  0  0
  182.4610  178.6610  141.6810 N   0  0  0  0  0  0  0  0  0  0  0  0
  181.6990  179.6990  142.1050 O   0  0  0  0  0  1  0  0  0  0  0  0
  182.2660  178.4210  139.8890 P   0  0  1  0  0  0  0  0  0  0  0  0
  181.6730  176.6390  139.9610 C   0  0  0  0  0  2  0  0  0  0  0  0
  182.3900  175.7430  139.0480 N   0  0  0  0  0  0  0  0  0  0  0  0
  184.2980  175.5510  137.4970 C   0  0  0  0  0  2  0  0  0  0  0  0
  182.0910  174.5180  136.8730 C   0  0  0  0  0  2  0  0  0  0  0  0
  183.5770  174.2620  137.0930 C   0  0  0  0  0  2  0  0  0  0  0  0
  181.4350  175.0750  138.1470 C   0  0  0  0  0  2  0  0  0  0  0  0
  183.3980  176.4980  138.2980 C   0  0  0  0  0  2  0  0  0  0  0  0
  180.5980  179.2170  139.6090 C   0  0  0  0  0  2  0  0  0  0  0  0
  180.5350  179.8140  138.2150 C   0  0  1  0  0  3  0  0  0  0  0  0
  181.6160  180.6790  138.0340 O   0  0  0  0  0  0  0  0  0  0  0  0
  181.1170  181.9460  138.3440 C   0  0  0  0  0  2  0  0  0  0  0  0
  180.8050  182.6940  137.0650 C   0  0  0  0  0  1  0  0  0  0  0  0
  180.5880  178.7000  137.1820 C   0  0  0  0  0  2  0  0  0  0  0  0
  181.5220  177.9030  135.3490 C   0  0  0  0  0  1  0  0  0  0  0  0
  181.5550  178.9910  136.2200 O   0  0  0  0  0  0  0  0  0  0  0  0
  1  5  1  0  0  0  0
  2  5  1  0  0  0  0
  3 26  1  6  0  0  0
  3  2  1  0  0  0  0
  5 23  1  1  0  0  0
  6  9  1  6  0  0  0
  6  1  1  0  0  0  0
  7  4  1  6  0  0  0
  7  6  1  0  0  0  0
  7  3  1  0  0  0  0
  8 14  1  0  0  0  0
  9 17  1  0  0  0  0
 10 18  1  0  0  0  0
 11  8  2  0  0  0  0
 11 15  1  0  0  0  0
 12  8  1  0  0  0  0
 13 10  1  0  0  0  0
 13 16  1  0  0  0  0
 14 10  2  0  0  0  0
 15 13  2  0  0  0  0
 16  9  2  0  0  0  0
 18 17  2  0  0  0  0
 20 21  1  0  0  0  0
 21 19  1  0  0  0  0
 21 24  2  0  0  0  0
 22 19  1  0  0  0  0
 23 22  1  0  0  0  0
 25 23  1  0  0  0  0
 25 20  1  0  0  0  0
 26 27  1  0  0  0  0
 28 36  1  1  0  0  0
 28 29  1  0  0  0  0
 28 26  1  0  0  0  0
 30 29  1  0  0  0  0
 31 35  1  0  0  0  0
 32 33  1  0  0  0  0
 32 34  1  0  0  0  0
 33 31  1  0  0  0  0
 34 30  1  0  0  0  0
 35 30  1  0  0  0  0
 37 41  1  6  0  0  0
 37 36  1  0  0  0  0
 38 37  1  0  0  0  0
 38 39  1  0  0  0  0
 40 39  1  0  0  0  0
 42 43  1  0  0  0  0
 43 41  1  0  0  0  0
M  END
>  <MODEL>
9

>  <REMARK>
 VINA RESULT:      -7.4      2.974      5.251
  Name = 
  12 active torsions:
  status: ('A' for Active; 'I' for Inactive)
    1  A    between atoms: N_2  and  C_13
    2  A    between atoms: N_2  and  P_41
    3  A    between atoms: O_3  and  C_4
    4  A    between atoms: O_3  and  C_12
    5  A    between atoms: C_4  and  C_15
    6  A    between atoms: C_4  and  C_22
    7  A    between atoms: C_8  and  C_34
    8  A    between atoms: N_11  and  C_14
    9  A    between atoms: C_14  and  P_41
   10  A    between atoms: C_15  and  O_42
   11  A    between atoms: C_22  and  P_41
   12  A    between atoms: C_28  and  C_35
                            x       y       z     vdW  Elec       q    Type
                         _______ _______ _______ _____ _____    ______ ____

>  <TORSDO>
F 12

$$$$
