=
 OpenBabel11052413343D

 28 30  0  0  1  0  0  0  0  0999 V2000
  185.8370  178.1120  145.0670 C   0  0  0  0  0  0  0  0  0  0  0  0
  189.7300  177.8810  147.8980 F   0  0  0  0  0  0  0  0  0  0  0  0
  189.3290  177.3470  144.2820 C   0  0  0  0  0  0  0  0  0  0  0  0
  187.7990  177.9990  146.5130 C   0  0  0  0  0  0  0  0  0  0  0  0
  187.9910  177.5710  144.1660 N   0  0  0  0  0  0  0  0  0  0  0  0
  185.6330  178.5480  147.4510 C   0  0  0  0  0  3  0  0  0  0  0  0
  189.1740  177.7750  146.6630 C   0  0  0  0  0  0  0  0  0  0  0  0
  187.0020  178.3280  147.6150 C   0  0  0  0  0  3  0  0  0  0  0  0
  189.9570  177.4440  145.5350 C   0  0  0  0  0  0  0  0  0  0  0  0
  185.0540  178.4400  146.1850 C   0  0  0  0  0  3  0  0  0  0  0  0
  187.2140  177.8910  145.2330 C   0  0  0  0  0  0  0  0  0  0  0  0
  191.2340  178.0220  142.8330 C   0  0  0  0  0  2  0  0  0  0  0  0
  189.2320  176.9360  141.8310 C   0  0  0  0  0  2  0  0  0  0  0  0
  191.3250  177.0970  140.4740 C   0  0  0  0  0  0  0  0  0  0  0  0
  190.1290  176.9970  143.0650 C   0  0  2  0  0  3  0  0  0  0  0  0
  190.0360  176.7310  140.5750 C   0  0  0  0  0  3  0  0  0  0  0  0
  191.9780  176.8710  139.3060 F   0  0  0  0  0  0  0  0  0  0  0  0
  192.1160  177.5810  141.6650 C   0  0  0  0  0  2  0  0  0  0  0  0
  191.3400  177.2050  145.6100 O   0  0  0  0  0  0  0  0  0  0  0  0
  191.9350  176.1310  146.3240 C   0  0  0  0  0  1  0  0  0  0  0  0
  185.2510  177.9980  143.7600 N   0  0  0  0  0  2  0  0  0  0  0  0
  184.7490  179.1040  142.9430 C   0  0  1  0  0  3  0  0  0  0  0  0
  185.0790  178.9540  140.4160 S   0  0  0  0  0  0  0  0  0  0  0  0
  185.5890  179.2940  141.7140 C   0  0  0  0  0  3  0  0  0  0  0  0
  183.2800  178.8890  142.5970 C   0  0  0  0  0  2  0  0  0  0  0  0
  181.1000  178.7480  143.8080 C   0  0  0  0  0  3  0  0  0  0  0  0
  180.3350  178.4800  142.5520 C   0  0  0  0  0  1  0  0  0  0  0  0
  182.4250  178.9240  143.8290 C   0  0  0  0  0  3  0  0  0  0  0  0
  1 11  2  0  0  0  0
  1 10  1  0  0  0  0
  3  9  1  0  0  0  0
  4  7  1  0  0  0  0
  4  8  2  0  0  0  0
  5  3  2  0  0  0  0
  5 11  1  0  0  0  0
  6  8  1  0  0  0  0
  7  2  1  0  0  0  0
  9 19  1  0  0  0  0
  9  7  2  0  0  0  0
 10  6  2  0  0  0  0
 11  4  1  0  0  0  0
 12 15  1  0  0  0  0
 13 15  1  0  0  0  0
 14 16  2  0  0  0  0
 14 18  1  0  0  0  0
 15  3  1  1  0  0  0
 16 13  1  0  0  0  0
 17 14  1  0  0  0  0
 18 12  1  0  0  0  0
 19 20  1  0  0  0  0
 21  1  1  0  0  0  0
 22 24  1  6  0  0  0
 22 21  1  0  0  0  0
 23 24  2  0  0  0  0
 25 22  1  0  0  0  0
 25 28  1  0  0  0  0
 26 28  2  0  0  0  0
 27 26  1  0  0  0  0
M  END
>  <MODEL>
1

>  <REMARK>
 VINA RESULT:      -8.6      0.000      0.000
  Name = 
  7 active torsions:
  status: ('A' for Active; 'I' for Inactive)
    1  A    between atoms: C_1  and  N_2
    2  A    between atoms: N_2  and  C_3
    3  A    between atoms: C_3  and  C_7
    4  A    between atoms: C_3  and  C_11
    5  A    between atoms: C_7  and  C_28
    6  A    between atoms: C_10  and  C_13
    7  A    between atoms: O_14  and  C_25
                            x       y       z     vdW  Elec       q    Type
                         _______ _______ _______ _____ _____    ______ ____

>  <TORSDO>
F 7

$$$$
=
 OpenBabel11052413343D

 28 30  0  0  1  0  0  0  0  0999 V2000
  188.1980  177.0100  143.7810 C   0  0  0  0  0  0  0  0  0  0  0  0
  185.7450  179.1350  140.2190 F   0  0  0  0  0  0  0  0  0  0  0  0
  189.1310  177.7050  140.3110 C   0  0  0  0  0  0  0  0  0  0  0  0
  186.9440  178.0880  141.9870 C   0  0  0  0  0  0  0  0  0  0  0  0
  189.1670  177.2870  141.6050 N   0  0  0  0  0  0  0  0  0  0  0  0
  185.9400  177.8230  144.1770 C   0  0  0  0  0  3  0  0  0  0  0  0
  186.8780  178.5290  140.6590 C   0  0  0  0  0  0  0  0  0  0  0  0
  185.8610  178.2670  142.8560 C   0  0  0  0  0  3  0  0  0  0  0  0
  187.9840  178.3380  139.8020 C   0  0  0  0  0  0  0  0  0  0  0  0
  187.1020  177.1990  144.6360 C   0  0  0  0  0  3  0  0  0  0  0  0
  188.1170  177.4570  142.4520 C   0  0  0  0  0  0  0  0  0  0  0  0
  190.1790  176.1920  138.6380 C   0  0  0  0  0  2  0  0  0  0  0  0
  191.6020  177.4300  140.2600 C   0  0  0  0  0  2  0  0  0  0  0  0
  192.6810  176.3710  138.2700 C   0  0  0  0  0  0  0  0  0  0  0  0
  190.3230  177.4870  139.4290 C   0  0  2  0  0  3  0  0  0  0  0  0
  192.7930  177.0660  139.4140 C   0  0  0  0  0  3  0  0  0  0  0  0
  193.8060  176.0890  137.5640 F   0  0  0  0  0  0  0  0  0  0  0  0
  191.3400  176.0510  137.6540 C   0  0  0  0  0  2  0  0  0  0  0  0
  187.9900  178.7540  138.4590 O   0  0  0  0  0  0  0  0  0  0  0  0
  187.2120  178.1620  137.4290 C   0  0  0  0  0  1  0  0  0  0  0  0
  189.3990  176.3710  144.2440 N   0  0  0  0  0  2  0  0  0  0  0  0
  190.4100  176.9710  145.1180 C   0  0  1  0  0  3  0  0  0  0  0  0
  191.3250  179.0830  144.0150 S   0  0  0  0  0  0  0  0  0  0  0  0
  191.4590  177.6870  144.3200 C   0  0  0  0  0  3  0  0  0  0  0  0
  189.7530  177.8890  146.1420 C   0  0  0  0  0  2  0  0  0  0  0  0
  188.5180  177.4280  148.2650 C   0  0  0  0  0  3  0  0  0  0  0  0
  187.4520  178.4260  147.9480 C   0  0  0  0  0  1  0  0  0  0  0  0
  189.5490  177.1810  147.4490 C   0  0  0  0  0  3  0  0  0  0  0  0
  1 21  1  0  0  0  0
  1 10  1  0  0  0  0
  2  7  1  0  0  0  0
  3  5  2  0  0  0  0
  4 11  1  0  0  0  0
  4  8  2  0  0  0  0
  5 11  1  0  0  0  0
  6 10  2  0  0  0  0
  7  4  1  0  0  0  0
  8  6  1  0  0  0  0
  9  3  1  0  0  0  0
  9  7  2  0  0  0  0
 11  1  2  0  0  0  0
 12 15  1  0  0  0  0
 14 16  2  0  0  0  0
 15 13  1  0  0  0  0
 15  3  1  1  0  0  0
 16 13  1  0  0  0  0
 17 14  1  0  0  0  0
 18 14  1  0  0  0  0
 18 12  1  0  0  0  0
 19  9  1  0  0  0  0
 20 19  1  0  0  0  0
 21 22  1  0  0  0  0
 22 24  1  6  0  0  0
 22 25  1  0  0  0  0
 23 24  2  0  0  0  0
 25 28  1  0  0  0  0
 27 26  1  0  0  0  0
 28 26  2  0  0  0  0
M  END
>  <MODEL>
2

>  <REMARK>
 VINA RESULT:      -8.5      3.463      5.837
  Name = 
  7 active torsions:
  status: ('A' for Active; 'I' for Inactive)
    1  A    between atoms: C_1  and  N_2
    2  A    between atoms: N_2  and  C_3
    3  A    between atoms: C_3  and  C_7
    4  A    between atoms: C_3  and  C_11
    5  A    between atoms: C_7  and  C_28
    6  A    between atoms: C_10  and  C_13
    7  A    between atoms: O_14  and  C_25
                            x       y       z     vdW  Elec       q    Type
                         _______ _______ _______ _____ _____    ______ ____

>  <TORSDO>
F 7

$$$$
=
 OpenBabel11052413343D

 28 30  0  0  1  0  0  0  0  0999 V2000
  187.1630  177.7640  144.5360 C   0  0  0  0  0  0  0  0  0  0  0  0
  182.6940  179.2480  145.5570 F   0  0  0  0  0  0  0  0  0  0  0  0
  184.3360  178.5380  142.3450 C   0  0  0  0  0  0  0  0  0  0  0  0
  184.9040  178.5150  145.0680 C   0  0  0  0  0  0  0  0  0  0  0  0
  185.5670  178.1710  142.7940 N   0  0  0  0  0  0  0  0  0  0  0  0
  186.4980  178.1120  146.8490 C   0  0  0  0  0  3  0  0  0  0  0  0
  183.6270  178.8960  144.6350 C   0  0  0  0  0  0  0  0  0  0  0  0
  185.2210  178.4940  146.4310 C   0  0  0  0  0  3  0  0  0  0  0  0
  183.3310  178.9100  143.2540 C   0  0  0  0  0  0  0  0  0  0  0  0
  187.4630  177.7500  145.9070 C   0  0  0  0  0  3  0  0  0  0  0  0
  185.8790  178.1480  144.1170 C   0  0  0  0  0  0  0  0  0  0  0  0
  183.3550  177.2550  140.4540 C   0  0  0  0  0  2  0  0  0  0  0  0
  185.3530  178.6890  140.0810 C   0  0  0  0  0  2  0  0  0  0  0  0
  184.0720  177.8640  138.0990 C   0  0  0  0  0  0  0  0  0  0  0  0
  184.0570  178.5410  140.8730 C   0  0  2  0  0  3  0  0  0  0  0  0
  185.1140  178.5480  138.6010 C   0  0  0  0  0  3  0  0  0  0  0  0
  183.9270  177.7900  136.7520 F   0  0  0  0  0  0  0  0  0  0  0  0
  182.9660  177.3310  138.9780 C   0  0  0  0  0  2  0  0  0  0  0  0
  182.0740  179.2810  142.7460 O   0  0  0  0  0  0  0  0  0  0  0  0
  180.8570  178.6110  143.0400 C   0  0  0  0  0  1  0  0  0  0  0  0
  188.1500  177.3950  143.5590 N   0  0  0  0  0  2  0  0  0  0  0  0
  189.3840  176.6510  143.8220 C   0  0  1  0  0  3  0  0  0  0  0  0
  190.2420  176.8180  141.4240 S   0  0  0  0  0  0  0  0  0  0  0  0
  189.9120  176.0180  142.5680 C   0  0  0  0  0  3  0  0  0  0  0  0
  190.4210  177.5540  144.4800 C   0  0  0  0  0  2  0  0  0  0  0  0
  191.7040  176.4320  146.3080 C   0  0  0  0  0  3  0  0  0  0  0  0
  190.7080  176.8280  147.3500 C   0  0  0  0  0  1  0  0  0  0  0  0
  191.5710  176.7520  145.0160 C   0  0  0  0  0  3  0  0  0  0  0  0
  1 10  1  0  0  0  0
  3  5  2  0  0  0  0
  3  9  1  0  0  0  0
  4  8  2  0  0  0  0
  5 11  1  0  0  0  0
  7  4  1  0  0  0  0
  7  2  1  0  0  0  0
  8  6  1  0  0  0  0
  9  7  2  0  0  0  0
 10  6  2  0  0  0  0
 11  1  2  0  0  0  0
 11  4  1  0  0  0  0
 12 15  1  0  0  0  0
 13 15  1  0  0  0  0
 14 16  2  0  0  0  0
 14 18  1  0  0  0  0
 15  3  1  1  0  0  0
 16 13  1  0  0  0  0
 17 14  1  0  0  0  0
 18 12  1  0  0  0  0
 19 20  1  0  0  0  0
 19  9  1  0  0  0  0
 21 22  1  0  0  0  0
 21  1  1  0  0  0  0
 22 24  1  6  0  0  0
 22 25  1  0  0  0  0
 23 24  2  0  0  0  0
 25 28  1  0  0  0  0
 26 27  1  0  0  0  0
 28 26  2  0  0  0  0
M  END
>  <MODEL>
3

>  <REMARK>
 VINA RESULT:      -8.5      3.460      6.915
  Name = 
  7 active torsions:
  status: ('A' for Active; 'I' for Inactive)
    1  A    between atoms: C_1  and  N_2
    2  A    between atoms: N_2  and  C_3
    3  A    between atoms: C_3  and  C_7
    4  A    between atoms: C_3  and  C_11
    5  A    between atoms: C_7  and  C_28
    6  A    between atoms: C_10  and  C_13
    7  A    between atoms: O_14  and  C_25
                            x       y       z     vdW  Elec       q    Type
                         _______ _______ _______ _____ _____    ______ ____

>  <TORSDO>
F 7

$$$$
=
 OpenBabel11052413343D

 28 30  0  0  1  0  0  0  0  0999 V2000
  187.7380  177.3480  143.8520 C   0  0  0  0  0  0  0  0  0  0  0  0
  183.8280  179.0050  146.1290 F   0  0  0  0  0  0  0  0  0  0  0  0
  184.5220  178.5150  142.5520 C   0  0  0  0  0  0  0  0  0  0  0  0
  185.7650  178.1850  145.0190 C   0  0  0  0  0  0  0  0  0  0  0  0
  185.7910  178.0280  142.6310 N   0  0  0  0  0  0  0  0  0  0  0  0
  187.7210  177.5060  146.2790 C   0  0  0  0  0  3  0  0  0  0  0  0
  184.4590  178.6880  144.9690 C   0  0  0  0  0  0  0  0  0  0  0  0
  186.4190  178.0080  146.2440 C   0  0  0  0  0  3  0  0  0  0  0  0
  183.8210  178.8580  143.7210 C   0  0  0  0  0  0  0  0  0  0  0  0
  188.3770  177.1780  145.0900 C   0  0  0  0  0  3  0  0  0  0  0  0
  186.4280  177.8530  143.8180 C   0  0  0  0  0  0  0  0  0  0  0  0
  183.1220  177.4200  140.8130 C   0  0  0  0  0  2  0  0  0  0  0  0
  184.9230  179.0020  140.1470 C   0  0  0  0  0  2  0  0  0  0  0  0
  183.1990  178.3540  138.4570 C   0  0  0  0  0  0  0  0  0  0  0  0
  183.8760  178.6840  141.2110 C   0  0  2  0  0  3  0  0  0  0  0  0
  184.3170  179.0300  138.7690 C   0  0  0  0  0  3  0  0  0  0  0  0
  182.7160  178.4380  137.1910 F   0  0  0  0  0  0  0  0  0  0  0  0
  182.3670  177.6550  139.5050 C   0  0  0  0  0  2  0  0  0  0  0  0
  182.5140  179.3580  143.5930 O   0  0  0  0  0  0  0  0  0  0  0  0
  181.3400  178.6460  143.9580 C   0  0  0  0  0  1  0  0  0  0  0  0
  188.4050  177.0160  142.6230 N   0  0  0  0  0  2  0  0  0  0  0  0
  189.3220  177.8830  141.8810 C   0  0  1  0  0  3  0  0  0  0  0  0
  191.6050  177.2690  142.8440 S   0  0  0  0  0  0  0  0  0  0  0  0
  190.6770  177.2520  141.7500 C   0  0  0  0  0  3  0  0  0  0  0  0
  188.7320  178.2460  140.5230 C   0  0  0  0  0  2  0  0  0  0  0  0
  189.3060  177.8430  138.1250 C   0  0  0  0  0  3  0  0  0  0  0  0
  187.9290  178.1910  137.6600 C   0  0  0  0  0  1  0  0  0  0  0  0
  189.6700  177.8760  139.4120 C   0  0  0  0  0  3  0  0  0  0  0  0
  1 10  1  0  0  0  0
  3  5  2  0  0  0  0
  3  9  1  0  0  0  0
  4  8  2  0  0  0  0
  5 11  1  0  0  0  0
  7  4  1  0  0  0  0
  7  2  1  0  0  0  0
  8  6  1  0  0  0  0
  9  7  2  0  0  0  0
 10  6  2  0  0  0  0
 11  1  2  0  0  0  0
 11  4  1  0  0  0  0
 12 15  1  0  0  0  0
 13 15  1  0  0  0  0
 14 16  2  0  0  0  0
 14 18  1  0  0  0  0
 15  3  1  1  0  0  0
 16 13  1  0  0  0  0
 17 14  1  0  0  0  0
 18 12  1  0  0  0  0
 19  9  1  0  0  0  0
 19 20  1  0  0  0  0
 21  1  1  0  0  0  0
 22 25  1  6  0  0  0
 22 21  1  0  0  0  0
 24 22  1  0  0  0  0
 24 23  2  0  0  0  0
 26 28  2  0  0  0  0
 27 26  1  0  0  0  0
 28 25  1  0  0  0  0
M  END
>  <MODEL>
4

>  <REMARK>
 VINA RESULT:      -8.4      3.629      6.668
  Name = 
  7 active torsions:
  status: ('A' for Active; 'I' for Inactive)
    1  A    between atoms: C_1  and  N_2
    2  A    between atoms: N_2  and  C_3
    3  A    between atoms: C_3  and  C_7
    4  A    between atoms: C_3  and  C_11
    5  A    between atoms: C_7  and  C_28
    6  A    between atoms: C_10  and  C_13
    7  A    between atoms: O_14  and  C_25
                            x       y       z     vdW  Elec       q    Type
                         _______ _______ _______ _____ _____    ______ ____

>  <TORSDO>
F 7

$$$$
=
 OpenBabel11052413343D

 28 30  0  0  1  0  0  0  0  0999 V2000
  188.7820  176.9400  143.4190 C   0  0  0  0  0  0  0  0  0  0  0  0
  188.0300  178.4390  138.9020 F   0  0  0  0  0  0  0  0  0  0  0  0
  185.8800  178.5550  141.8830 C   0  0  0  0  0  0  0  0  0  0  0  0
  188.4150  177.6940  141.1280 C   0  0  0  0  0  0  0  0  0  0  0  0
  186.7120  177.9710  142.7870 N   0  0  0  0  0  0  0  0  0  0  0  0
  190.5180  176.6540  141.7390 C   0  0  0  0  0  3  0  0  0  0  0  0
  187.5810  178.2930  140.1760 C   0  0  0  0  0  0  0  0  0  0  0  0
  189.6960  177.2490  140.7800 C   0  0  0  0  0  3  0  0  0  0  0  0
  186.2920  178.7330  140.5510 C   0  0  0  0  0  0  0  0  0  0  0  0
  190.0620  176.5000  143.0510 C   0  0  0  0  0  3  0  0  0  0  0  0
  187.9570  177.5380  142.4530 C   0  0  0  0  0  0  0  0  0  0  0  0
  184.3290  178.7940  143.8120 C   0  0  0  0  0  2  0  0  0  0  0  0
  183.4330  178.2520  141.5550 C   0  0  0  0  0  2  0  0  0  0  0  0
  181.8500  179.0220  143.3290 C   0  0  0  0  0  0  0  0  0  0  0  0
  184.5190  179.0100  142.3150 C   0  0  2  0  0  3  0  0  0  0  0  0
  182.0610  178.5850  142.0760 C   0  0  0  0  0  3  0  0  0  0  0  0
  180.5810  179.3060  143.7170 F   0  0  0  0  0  0  0  0  0  0  0  0
  182.9880  179.3790  144.2560 C   0  0  0  0  0  2  0  0  0  0  0  0
  185.4010  179.3410  139.6510 O   0  0  0  0  0  0  0  0  0  0  0  0
  184.8810  178.7170  138.4860 C   0  0  0  0  0  1  0  0  0  0  0  0
  188.3040  176.7840  144.7650 N   0  0  0  0  0  2  0  0  0  0  0  0
  188.2050  177.8440  145.7700 C   0  0  1  0  0  3  0  0  0  0  0  0
  186.0940  178.5450  147.0220 S   0  0  0  0  0  0  0  0  0  0  0  0
  187.1030  177.5620  146.7490 C   0  0  0  0  0  3  0  0  0  0  0  0
  189.5450  178.0440  146.4700 C   0  0  0  0  0  2  0  0  0  0  0  0
  190.8880  176.1160  147.3180 C   0  0  0  0  0  3  0  0  0  0  0  0
  191.9150  176.2630  146.2420 C   0  0  0  0  0  1  0  0  0  0  0  0
  189.8270  176.9220  147.4250 C   0  0  0  0  0  3  0  0  0  0  0  0
  1 21  1  0  0  0  0
  2  7  1  0  0  0  0
  3  5  2  0  0  0  0
  4 11  1  0  0  0  0
  6 10  2  0  0  0  0
  7  9  2  0  0  0  0
  7  4  1  0  0  0  0
  8  4  2  0  0  0  0
  8  6  1  0  0  0  0
  9  3  1  0  0  0  0
 10  1  1  0  0  0  0
 11  5  1  0  0  0  0
 11  1  2  0  0  0  0
 12 18  1  0  0  0  0
 13 16  1  0  0  0  0
 13 15  1  0  0  0  0
 14 17  1  0  0  0  0
 14 18  1  0  0  0  0
 15  3  1  6  0  0  0
 15 12  1  0  0  0  0
 16 14  2  0  0  0  0
 19  9  1  0  0  0  0
 20 19  1  0  0  0  0
 21 22  1  0  0  0  0
 22 25  1  1  0  0  0
 22 24  1  0  0  0  0
 24 23  2  0  0  0  0
 25 28  1  0  0  0  0
 26 28  2  0  0  0  0
 27 26  1  0  0  0  0
M  END
>  <MODEL>
5

>  <REMARK>
 VINA RESULT:      -8.2      3.198      7.637
  Name = 
  7 active torsions:
  status: ('A' for Active; 'I' for Inactive)
    1  A    between atoms: C_1  and  N_2
    2  A    between atoms: N_2  and  C_3
    3  A    between atoms: C_3  and  C_7
    4  A    between atoms: C_3  and  C_11
    5  A    between atoms: C_7  and  C_28
    6  A    between atoms: C_10  and  C_13
    7  A    between atoms: O_14  and  C_25
                            x       y       z     vdW  Elec       q    Type
                         _______ _______ _______ _____ _____    ______ ____

>  <TORSDO>
F 7

$$$$
=
 OpenBabel11052413343D

 28 30  0  0  1  0  0  0  0  0999 V2000
  189.7830  177.8560  142.4780 C   0  0  0  0  0  0  0  0  0  0  0  0
  188.0260  178.0000  137.9940 F   0  0  0  0  0  0  0  0  0  0  0  0
  186.4370  178.6730  141.2410 C   0  0  0  0  0  0  0  0  0  0  0  0
  188.9070  177.9250  140.2020 C   0  0  0  0  0  0  0  0  0  0  0  0
  187.4970  178.4460  142.0640 N   0  0  0  0  0  0  0  0  0  0  0  0
  191.2230  177.3230  140.5920 C   0  0  0  0  0  3  0  0  0  0  0  0
  187.8350  178.1520  139.3300 C   0  0  0  0  0  0  0  0  0  0  0  0
  190.1620  177.5460  139.7110 C   0  0  0  0  0  3  0  0  0  0  0  0
  186.5780  178.5320  139.8490 C   0  0  0  0  0  0  0  0  0  0  0  0
  191.0340  177.4770  141.9670 C   0  0  0  0  0  3  0  0  0  0  0  0
  188.7170  178.0800  141.5920 C   0  0  0  0  0  0  0  0  0  0  0  0
  185.1930  179.1160  143.3470 C   0  0  0  0  0  2  0  0  0  0  0  0
  184.0230  178.0970  141.4030 C   0  0  0  0  0  2  0  0  0  0  0  0
  182.6600  179.0300  143.2780 C   0  0  0  0  0  0  0  0  0  0  0  0
  185.1180  179.0740  141.8260 C   0  0  2  0  0  3  0  0  0  0  0  0
  182.7210  178.3950  142.0960 C   0  0  0  0  0  3  0  0  0  0  0  0
  181.4430  179.2640  143.8320 F   0  0  0  0  0  0  0  0  0  0  0  0
  183.8790  179.6480  143.9190 C   0  0  0  0  0  2  0  0  0  0  0  0
  185.4570  178.7750  139.0360 O   0  0  0  0  0  0  0  0  0  0  0  0
  184.9710  177.8810  138.0460 C   0  0  0  0  0  1  0  0  0  0  0  0
  189.5780  178.0140  143.8910 N   0  0  0  0  0  2  0  0  0  0  0  0
  189.1260  176.9730  144.8170 C   0  0  1  0  0  3  0  0  0  0  0  0
  191.5450  176.9070  145.6300 S   0  0  0  0  0  0  0  0  0  0  0  0
  190.1460  176.7220  145.8890 C   0  0  0  0  0  3  0  0  0  0  0  0
  187.7660  177.3340  145.4020 C   0  0  0  0  0  2  0  0  0  0  0  0
  186.9610  178.3070  147.5580 C   0  0  0  0  0  3  0  0  0  0  0  0
  185.7450  178.8990  146.9220 C   0  0  0  0  0  1  0  0  0  0  0  0
  187.8660  177.5960  146.8760 C   0  0  0  0  0  3  0  0  0  0  0  0
  1 21  1  0  0  0  0
  2  7  1  0  0  0  0
  3  5  2  0  0  0  0
  4 11  1  0  0  0  0
  6 10  2  0  0  0  0
  7  9  2  0  0  0  0
  7  4  1  0  0  0  0
  8  4  2  0  0  0  0
  8  6  1  0  0  0  0
  9  3  1  0  0  0  0
 10  1  1  0  0  0  0
 11  5  1  0  0  0  0
 11  1  2  0  0  0  0
 12 18  1  0  0  0  0
 13 15  1  0  0  0  0
 13 16  1  0  0  0  0
 14 17  1  0  0  0  0
 14 18  1  0  0  0  0
 15  3  1  6  0  0  0
 15 12  1  0  0  0  0
 16 14  2  0  0  0  0
 19  9  1  0  0  0  0
 20 19  1  0  0  0  0
 21 22  1  0  0  0  0
 22 25  1  1  0  0  0
 22 24  1  0  0  0  0
 23 24  2  0  0  0  0
 25 28  1  0  0  0  0
 27 26  1  0  0  0  0
 28 26  2  0  0  0  0
M  END
>  <MODEL>
6

>  <REMARK>
 VINA RESULT:      -8.2      3.355      7.325
  Name = 
  7 active torsions:
  status: ('A' for Active; 'I' for Inactive)
    1  A    between atoms: C_1  and  N_2
    2  A    between atoms: N_2  and  C_3
    3  A    between atoms: C_3  and  C_7
    4  A    between atoms: C_3  and  C_11
    5  A    between atoms: C_7  and  C_28
    6  A    between atoms: C_10  and  C_13
    7  A    between atoms: O_14  and  C_25
                            x       y       z     vdW  Elec       q    Type
                         _______ _______ _______ _____ _____    ______ ____

>  <TORSDO>
F 7

$$$$
=
 OpenBabel11052413343D

 28 30  0  0  1  0  0  0  0  0999 V2000
  184.6900  178.7030  143.0850 C   0  0  0  0  0  0  0  0  0  0  0  0
  186.2640  177.8580  147.5600 F   0  0  0  0  0  0  0  0  0  0  0  0
  187.9610  177.6090  144.3080 C   0  0  0  0  0  0  0  0  0  0  0  0
  185.4730  178.2790  145.3570 C   0  0  0  0  0  0  0  0  0  0  0  0
  186.9420  177.9860  143.4890 N   0  0  0  0  0  0  0  0  0  0  0  0
  183.1910  179.0030  144.9770 C   0  0  0  0  0  3  0  0  0  0  0  0
  186.5040  177.8950  146.2240 C   0  0  0  0  0  0  0  0  0  0  0  0
  184.2100  178.6220  145.8520 C   0  0  0  0  0  3  0  0  0  0  0  0
  187.7700  177.5540  145.6990 C   0  0  0  0  0  0  0  0  0  0  0  0
  183.4300  179.0420  143.6010 C   0  0  0  0  0  3  0  0  0  0  0  0
  185.7140  178.3210  143.9670 C   0  0  0  0  0  0  0  0  0  0  0  0
  190.2990  178.3740  143.9420 C   0  0  0  0  0  2  0  0  0  0  0  0
  189.1600  176.9860  142.2210 C   0  0  0  0  0  2  0  0  0  0  0  0
  191.6400  177.2720  142.0940 C   0  0  0  0  0  0  0  0  0  0  0  0
  189.2910  177.2530  143.7180 C   0  0  2  0  0  3  0  0  0  0  0  0
  190.5050  176.7710  141.5790 C   0  0  0  0  0  3  0  0  0  0  0  0
  192.8120  177.0250  141.4550 F   0  0  0  0  0  0  0  0  0  0  0  0
  191.6790  177.9420  143.4470 C   0  0  0  0  0  2  0  0  0  0  0  0
  188.8500  177.1590  146.5070 O   0  0  0  0  0  0  0  0  0  0  0  0
  189.3120  177.8780  147.6420 C   0  0  0  0  0  1  0  0  0  0  0  0
  184.9450  178.7400  141.6720 N   0  0  0  0  0  2  0  0  0  0  0  0
  183.9330  178.8230  140.6170 C   0  0  1  0  0  3  0  0  0  0  0  0
  184.8630  178.2520  138.3090 S   0  0  0  0  0  0  0  0  0  0  0  0
  184.5450  179.2310  139.3090 C   0  0  0  0  0  3  0  0  0  0  0  0
  183.1740  177.5060  140.5000 C   0  0  0  0  0  2  0  0  0  0  0  0
  180.8200  176.9080  139.9170 C   0  0  0  0  0  3  0  0  0  0  0  0
  181.2340  175.6570  139.2120 C   0  0  0  0  0  1  0  0  0  0  0  0
  181.6920  177.7350  140.5040 C   0  0  0  0  0  3  0  0  0  0  0  0
  1 10  2  0  0  0  0
  1 11  1  0  0  0  0
  3  9  1  0  0  0  0
  4  8  1  0  0  0  0
  4  7  1  0  0  0  0
  5 11  1  0  0  0  0
  5  3  2  0  0  0  0
  6  8  2  0  0  0  0
  7  2  1  0  0  0  0
  9  7  2  0  0  0  0
  9 19  1  0  0  0  0
 10  6  1  0  0  0  0
 11  4  2  0  0  0  0
 13 15  1  0  0  0  0
 14 18  1  0  0  0  0
 15 12  1  0  0  0  0
 15  3  1  6  0  0  0
 16 14  2  0  0  0  0
 16 13  1  0  0  0  0
 17 14  1  0  0  0  0
 18 12  1  0  0  0  0
 19 20  1  0  0  0  0
 21  1  1  0  0  0  0
 22 24  1  6  0  0  0
 22 21  1  0  0  0  0
 23 24  2  0  0  0  0
 25 28  1  0  0  0  0
 25 22  1  0  0  0  0
 26 28  2  0  0  0  0
 27 26  1  0  0  0  0
M  END
>  <MODEL>
7

>  <REMARK>
 VINA RESULT:      -8.2      1.934      2.628
  Name = 
  7 active torsions:
  status: ('A' for Active; 'I' for Inactive)
    1  A    between atoms: C_1  and  N_2
    2  A    between atoms: N_2  and  C_3
    3  A    between atoms: C_3  and  C_7
    4  A    between atoms: C_3  and  C_11
    5  A    between atoms: C_7  and  C_28
    6  A    between atoms: C_10  and  C_13
    7  A    between atoms: O_14  and  C_25
                            x       y       z     vdW  Elec       q    Type
                         _______ _______ _______ _____ _____    ______ ____

>  <TORSDO>
F 7

$$$$
=
 OpenBabel11052413343D

 28 30  0  0  1  0  0  0  0  0999 V2000
  184.6770  178.9670  142.8740 C   0  0  0  0  0  0  0  0  0  0  0  0
  186.7650  177.3690  146.9110 F   0  0  0  0  0  0  0  0  0  0  0  0
  188.0120  177.5780  143.4590 C   0  0  0  0  0  0  0  0  0  0  0  0
  185.7210  178.1610  144.9260 C   0  0  0  0  0  0  0  0  0  0  0  0
  186.9180  178.1160  142.8540 N   0  0  0  0  0  0  0  0  0  0  0  0
  183.4530  179.0150  144.9750 C   0  0  0  0  0  3  0  0  0  0  0  0
  186.8320  177.6090  145.5760 C   0  0  0  0  0  0  0  0  0  0  0  0
  184.5530  178.4650  145.6350 C   0  0  0  0  0  3  0  0  0  0  0  0
  187.9990  177.3100  144.8380 C   0  0  0  0  0  0  0  0  0  0  0  0
  183.5150  179.2640  143.6020 C   0  0  0  0  0  3  0  0  0  0  0  0
  185.7830  178.4140  143.5390 C   0  0  0  0  0  0  0  0  0  0  0  0
  190.3650  178.2330  142.9930 C   0  0  0  0  0  2  0  0  0  0  0  0
  188.9240  177.3780  141.1540 C   0  0  0  0  0  2  0  0  0  0  0  0
  191.3940  177.5010  140.7940 C   0  0  0  0  0  0  0  0  0  0  0  0
  189.2330  177.2740  142.6450 C   0  0  2  0  0  3  0  0  0  0  0  0
  190.1690  177.2210  140.3210 C   0  0  0  0  0  3  0  0  0  0  0  0
  192.4650  177.3260  139.9790 F   0  0  0  0  0  0  0  0  0  0  0  0
  191.6370  177.8280  142.2480 C   0  0  0  0  0  2  0  0  0  0  0  0
  189.1500  176.7550  145.4220 O   0  0  0  0  0  0  0  0  0  0  0  0
  189.8630  177.3340  146.5050 C   0  0  0  0  0  1  0  0  0  0  0  0
  184.7490  179.2180  141.4600 N   0  0  0  0  0  2  0  0  0  0  0  0
  184.4560  178.2520  140.4000 C   0  0  1  0  0  3  0  0  0  0  0  0
  181.9670  178.7790  140.1890 S   0  0  0  0  0  0  0  0  0  0  0  0
  183.0160  177.8310  140.4340 C   0  0  0  0  0  3  0  0  0  0  0  0
  184.8480  178.8170  139.0390 C   0  0  0  0  0  2  0  0  0  0  0  0
  186.1200  177.4170  137.4070 C   0  0  0  0  0  3  0  0  0  0  0  0
  187.4080  178.1180  137.6970 C   0  0  0  0  0  1  0  0  0  0  0  0
  184.9700  177.7260  138.0170 C   0  0  0  0  0  3  0  0  0  0  0  0
  1 11  2  0  0  0  0
  1 10  1  0  0  0  0
  3  9  1  0  0  0  0
  4  7  1  0  0  0  0
  4  8  2  0  0  0  0
  5  3  2  0  0  0  0
  5 11  1  0  0  0  0
  6  8  1  0  0  0  0
  7  2  1  0  0  0  0
  9 19  1  0  0  0  0
  9  7  2  0  0  0  0
 10  6  2  0  0  0  0
 11  4  1  0  0  0  0
 13 15  1  0  0  0  0
 14 18  1  0  0  0  0
 15 12  1  0  0  0  0
 15  3  1  1  0  0  0
 16 14  2  0  0  0  0
 16 13  1  0  0  0  0
 17 14  1  0  0  0  0
 18 12  1  0  0  0  0
 19 20  1  0  0  0  0
 21  1  1  0  0  0  0
 22 25  1  6  0  0  0
 22 24  1  0  0  0  0
 22 21  1  0  0  0  0
 23 24  2  0  0  0  0
 26 27  1  0  0  0  0
 26 28  2  0  0  0  0
 28 25  1  0  0  0  0
M  END
>  <MODEL>
8

>  <REMARK>
 VINA RESULT:      -8.0      2.104      3.406
  Name = 
  7 active torsions:
  status: ('A' for Active; 'I' for Inactive)
    1  A    between atoms: C_1  and  N_2
    2  A    between atoms: N_2  and  C_3
    3  A    between atoms: C_3  and  C_7
    4  A    between atoms: C_3  and  C_11
    5  A    between atoms: C_7  and  C_28
    6  A    between atoms: C_10  and  C_13
    7  A    between atoms: O_14  and  C_25
                            x       y       z     vdW  Elec       q    Type
                         _______ _______ _______ _____ _____    ______ ____

>  <TORSDO>
F 7

$$$$
=
 OpenBabel11052413343D

 28 30  0  0  1  0  0  0  0  0999 V2000
  187.4770  177.5180  144.3320 C   0  0  0  0  0  0  0  0  0  0  0  0
  184.8300  179.1220  140.6390 F   0  0  0  0  0  0  0  0  0  0  0  0
  188.2910  177.8910  140.7830 C   0  0  0  0  0  0  0  0  0  0  0  0
  186.1250  178.3320  142.4720 C   0  0  0  0  0  0  0  0  0  0  0  0
  188.3800  177.6140  142.1130 N   0  0  0  0  0  0  0  0  0  0  0  0
  185.1880  178.2470  144.7060 C   0  0  0  0  0  3  0  0  0  0  0  0
  186.0050  178.6260  141.1070 C   0  0  0  0  0  0  0  0  0  0  0  0
  185.0540  178.5440  143.3480 C   0  0  0  0  0  3  0  0  0  0  0  0
  187.0990  178.4040  140.2440 C   0  0  0  0  0  0  0  0  0  0  0  0
  186.3930  177.7380  145.1940 C   0  0  0  0  0  3  0  0  0  0  0  0
  187.3420  177.8170  142.9660 C   0  0  0  0  0  0  0  0  0  0  0  0
  189.2720  176.3790  139.0700 C   0  0  0  0  0  2  0  0  0  0  0  0
  190.7480  177.5070  140.7240 C   0  0  0  0  0  2  0  0  0  0  0  0
  191.7800  176.4550  138.7060 C   0  0  0  0  0  0  0  0  0  0  0  0
  189.4730  177.6440  139.8960 C   0  0  2  0  0  3  0  0  0  0  0  0
  191.9220  177.1130  139.8690 C   0  0  0  0  0  3  0  0  0  0  0  0
  192.8920  176.1430  137.9920 F   0  0  0  0  0  0  0  0  0  0  0  0
  190.4270  176.2130  138.0820 C   0  0  0  0  0  2  0  0  0  0  0  0
  187.0520  178.6760  138.8650 O   0  0  0  0  0  0  0  0  0  0  0  0
  186.1900  178.0230  137.9450 C   0  0  0  0  0  1  0  0  0  0  0  0
  188.7220  176.9960  144.8250 N   0  0  0  0  0  2  0  0  0  0  0  0
  189.4740  177.5070  145.9730 C   0  0  1  0  0  3  0  0  0  0  0  0
  188.4830  177.9670  148.2790 S   0  0  0  0  0  0  0  0  0  0  0  0
  188.8800  177.0320  147.2660 C   0  0  0  0  0  3  0  0  0  0  0  0
  190.9480  177.1330  145.8550 C   0  0  0  0  0  2  0  0  0  0  0  0
  191.6530  177.8890  143.5810 C   0  0  0  0  0  3  0  0  0  0  0  0
  191.6780  179.3270  143.9860 C   0  0  0  0  0  1  0  0  0  0  0  0
  191.3320  176.9010  144.4230 C   0  0  0  0  0  3  0  0  0  0  0  0
  1 21  1  0  0  0  0
  1 10  1  0  0  0  0
  2  7  1  0  0  0  0
  3  5  2  0  0  0  0
  4 11  1  0  0  0  0
  4  8  2  0  0  0  0
  5 11  1  0  0  0  0
  6 10  2  0  0  0  0
  7  4  1  0  0  0  0
  8  6  1  0  0  0  0
  9  3  1  0  0  0  0
  9  7  2  0  0  0  0
 11  1  2  0  0  0  0
 12 15  1  0  0  0  0
 14 16  2  0  0  0  0
 15 13  1  0  0  0  0
 15  3  1  1  0  0  0
 16 13  1  0  0  0  0
 17 14  1  0  0  0  0
 18 14  1  0  0  0  0
 18 12  1  0  0  0  0
 19  9  1  0  0  0  0
 20 19  1  0  0  0  0
 21 22  1  0  0  0  0
 22 25  1  6  0  0  0
 22 24  1  0  0  0  0
 24 23  2  0  0  0  0
 26 27  1  0  0  0  0
 26 28  2  0  0  0  0
 28 25  1  0  0  0  0
M  END
>  <MODEL>
9

>  <REMARK>
 VINA RESULT:      -8.0      3.394      6.101
  Name = 
  7 active torsions:
  status: ('A' for Active; 'I' for Inactive)
    1  A    between atoms: C_1  and  N_2
    2  A    between atoms: N_2  and  C_3
    3  A    between atoms: C_3  and  C_7
    4  A    between atoms: C_3  and  C_11
    5  A    between atoms: C_7  and  C_28
    6  A    between atoms: C_10  and  C_13
    7  A    between atoms: O_14  and  C_25
                            x       y       z     vdW  Elec       q    Type
                         _______ _______ _______ _____ _____    ______ ____

>  <TORSDO>
F 7

$$$$
