=
 OpenBabel11052412273D

 30 31  0  0  1  0  0  0  0  0999 V2000
  187.0570  178.4420  140.6000 N   0  0  0  0  0  0  0  0  0  0  0  0
  185.9920  179.0920  141.3390 C   0  0  1  0  0  3  0  0  0  0  0  0
  189.4070  177.7240  140.2680 N   0  0  0  0  0  2  0  0  0  0  0  0
  184.8750  179.3000  140.3290 C   0  0  0  0  0  2  0  0  0  0  0  0
  186.6760  178.0660  139.2550 C   0  0  0  0  0  2  0  0  0  0  0  0
  185.2040  178.4120  139.1350 C   0  0  0  0  0  2  0  0  0  0  0  0
  188.6900  178.7330  142.2470 O   0  0  0  0  0  0  0  0  0  0  0  0
  188.3990  178.3160  141.0920 C   0  0  0  0  0  0  0  0  0  0  0  0
  190.7810  177.5320  140.7190 C   0  0  1  0  0  3  0  0  0  0  0  0
  190.1130  175.7670  142.1820 O   0  0  0  0  0  0  0  0  0  0  0  0
  190.8210  176.7970  142.0250 C   0  0  0  0  0  0  0  0  0  0  0  0
  191.6300  177.2700  143.1010 N   0  0  0  0  0  1  0  0  0  0  0  0
  193.0730  177.3410  139.6610 C   0  0  0  0  0  1  0  0  0  0  0  0
  191.6390  176.8350  139.6580 C   0  0  2  0  0  3  0  0  0  0  0  0
  190.8650  174.5610  137.9520 O   0  0  0  0  0  0  0  0  0  0  0  0
  191.0460  176.8710  138.3180 N   0  0  0  0  0  2  0  0  0  0  0  0
  190.1830  175.9290  136.2090 N   0  0  0  0  0  1  0  0  0  0  0  0
  190.7130  175.7330  137.5140 C   0  0  0  0  0  0  0  0  0  0  0  0
  185.5160  178.1800  142.4660 C   0  0  0  0  0  2  0  0  0  0  0  0
  185.6770  178.8430  143.7510 N   0  0  0  0  0  0  0  0  0  0  0  0
  184.5370  179.7270  143.9070 C   0  0  0  0  0  1  0  0  0  0  0  0
  185.5620  177.8250  144.7860 C   0  0  0  0  0  2  0  0  0  0  0  0
  189.4820  177.1110  147.0340 C   0  0  0  0  0  0  0  0  0  0  0  0
  188.3870  176.9840  148.0420 C   0  0  0  0  0  2  0  0  0  0  0  0
  190.7990  177.1080  147.4760 O   0  0  0  0  0  1  0  0  0  0  0  0
  186.7980  177.7990  145.6240 C   0  0  0  0  0  0  0  0  0  0  0  0
  187.4700  178.1630  148.0050 C   0  0  0  0  0  3  0  0  0  0  0  0
  189.2390  177.1740  145.7220 C   0  0  0  0  0  3  0  0  0  0  0  0
  186.7450  178.4880  146.9320 C   0  0  0  0  0  3  0  0  0  0  0  0
  187.9040  177.2590  145.0930 C   0  0  0  0  0  3  0  0  0  0  0  0
  1  8  1  0  0  0  0
  1  2  1  0  0  0  0
  2 19  1  1  0  0  0
  3  8  1  0  0  0  0
  4  2  1  0  0  0  0
  5  1  1  0  0  0  0
  6  5  1  0  0  0  0
  6  4  1  0  0  0  0
  8  7  2  0  0  0  0
  9  3  1  6  0  0  0
  9 11  1  0  0  0  0
 11 10  2  0  0  0  0
 11 12  1  0  0  0  0
 14 13  1  6  0  0  0
 14  9  1  0  0  0  0
 16 14  1  0  0  0  0
 17 18  1  0  0  0  0
 18 15  2  0  0  0  0
 18 16  1  0  0  0  0
 19 20  1  0  0  0  0
 20 21  1  0  0  0  0
 20 22  1  0  0  0  0
 22 26  1  0  0  0  0
 23 25  1  0  0  0  0
 23 24  1  0  0  0  0
 26 29  1  0  0  0  0
 27 24  1  0  0  0  0
 28 23  2  0  0  0  0
 29 27  2  0  0  0  0
 30 26  2  0  0  0  0
 30 28  1  0  0  0  0
M  END
>  <MODEL>
1

>  <REMARK>
 VINA RESULT:      -7.8      0.000      0.000
  Name = 
  8 active torsions:
  status: ('A' for Active; 'I' for Inactive)
    1  A    between atoms: C_3  and  N_11
    2  A    between atoms: C_3  and  C_19
    3  A    between atoms: C_4  and  C_8
    4  A    between atoms: C_8  and  C_12
    5  A    between atoms: C_8  and  N_13
    6  A    between atoms: N_9  and  C_12
    7  A    between atoms: C_10  and  C_25
    8  A    between atoms: N_11  and  C_25
                            x       y       z     vdW  Elec       q    Type
                         _______ _______ _______ _____ _____    ______ ____

>  <TORSDO>
F 8

$$$$
=
 OpenBabel11052412273D

 30 31  0  0  1  0  0  0  0  0999 V2000
  190.2760  177.4530  143.1800 N   0  0  0  0  0  0  0  0  0  0  0  0
  189.8480  177.1570  144.5330 C   0  0  1  0  0  3  0  0  0  0  0  0
  190.0300  177.3970  140.7140 N   0  0  0  0  0  2  0  0  0  0  0  0
  191.0870  177.3400  145.3940 C   0  0  0  0  0  2  0  0  0  0  0  0
  191.6290  177.9660  143.1060 C   0  0  0  0  0  2  0  0  0  0  0  0
  192.0910  178.1090  144.5440 C   0  0  0  0  0  2  0  0  0  0  0  0
  188.3570  176.6160  142.1420 O   0  0  0  0  0  0  0  0  0  0  0  0
  189.5020  177.1350  142.0170 C   0  0  0  0  0  0  0  0  0  0  0  0
  189.2810  177.1320  139.4910 C   0  0  1  0  0  3  0  0  0  0  0  0
  189.0400  179.2410  138.3990 O   0  0  0  0  0  0  0  0  0  0  0  0
  188.4870  178.3320  139.0740 C   0  0  0  0  0  0  0  0  0  0  0  0
  187.1200  178.4700  139.4600 N   0  0  0  0  0  1  0  0  0  0  0  0
  189.6110  175.4270  137.6470 C   0  0  0  0  0  1  0  0  0  0  0  0
  190.1900  176.6400  138.3590 C   0  0  2  0  0  3  0  0  0  0  0  0
  192.5820  176.3480  136.6650 O   0  0  0  0  0  0  0  0  0  0  0  0
  191.5750  176.4200  138.7820 N   0  0  0  0  0  2  0  0  0  0  0  0
  193.9870  176.0020  138.4770 N   0  0  0  0  0  1  0  0  0  0  0  0
  192.7040  176.2550  137.9150 C   0  0  0  0  0  0  0  0  0  0  0  0
  188.7640  178.1420  144.9590 C   0  0  0  0  0  2  0  0  0  0  0  0
  187.6770  177.4380  145.6230 N   0  0  0  0  0  0  0  0  0  0  0  0
  188.2130  176.9350  146.8740 C   0  0  0  0  0  1  0  0  0  0  0  0
  186.6640  178.4250  145.9680 C   0  0  0  0  0  2  0  0  0  0  0  0
  183.6940  178.6200  142.4930 C   0  0  0  0  0  0  0  0  0  0  0  0
  183.1940  179.5710  143.5320 C   0  0  0  0  0  2  0  0  0  0  0  0
  182.8900  178.3510  141.3940 O   0  0  0  0  0  1  0  0  0  0  0  0
  185.5440  178.3820  144.9820 C   0  0  0  0  0  0  0  0  0  0  0  0
  183.1040  178.9190  144.8730 C   0  0  0  0  0  3  0  0  0  0  0  0
  184.9070  178.0630  142.5630 C   0  0  0  0  0  3  0  0  0  0  0  0
  184.1660  178.4280  145.5160 C   0  0  0  0  0  3  0  0  0  0  0  0
  185.8530  178.1880  143.6910 C   0  0  0  0  0  3  0  0  0  0  0  0
  1  2  1  0  0  0  0
  2 19  1  1  0  0  0
  2  4  1  0  0  0  0
  3  8  1  0  0  0  0
  5  1  1  0  0  0  0
  5  6  1  0  0  0  0
  6  4  1  0  0  0  0
  8  7  2  0  0  0  0
  8  1  1  0  0  0  0
  9 11  1  6  0  0  0
  9  3  1  0  0  0  0
 10 11  2  0  0  0  0
 11 12  1  0  0  0  0
 14 13  1  1  0  0  0
 14 16  1  0  0  0  0
 14  9  1  0  0  0  0
 15 18  2  0  0  0  0
 18 17  1  0  0  0  0
 18 16  1  0  0  0  0
 19 20  1  0  0  0  0
 20 22  1  0  0  0  0
 20 21  1  0  0  0  0
 23 28  2  0  0  0  0
 23 24  1  0  0  0  0
 24 27  1  0  0  0  0
 25 23  1  0  0  0  0
 26 29  1  0  0  0  0
 26 22  1  0  0  0  0
 27 29  2  0  0  0  0
 28 30  1  0  0  0  0
 30 26  2  0  0  0  0
M  END
>  <MODEL>
2

>  <REMARK>
 VINA RESULT:      -7.7      2.139      4.922
  Name = 
  8 active torsions:
  status: ('A' for Active; 'I' for Inactive)
    1  A    between atoms: C_3  and  N_11
    2  A    between atoms: C_3  and  C_19
    3  A    between atoms: C_4  and  C_8
    4  A    between atoms: C_8  and  C_12
    5  A    between atoms: C_8  and  N_13
    6  A    between atoms: N_9  and  C_12
    7  A    between atoms: C_10  and  C_25
    8  A    between atoms: N_11  and  C_25
                            x       y       z     vdW  Elec       q    Type
                         _______ _______ _______ _____ _____    ______ ____

>  <TORSDO>
F 8

$$$$
=
 OpenBabel11052412273D

 30 31  0  0  1  0  0  0  0  0999 V2000
  190.1960  177.4400  143.1990 N   0  0  0  0  0  0  0  0  0  0  0  0
  189.8470  177.1730  144.5810 C   0  0  1  0  0  3  0  0  0  0  0  0
  189.8060  177.3360  140.7530 N   0  0  0  0  0  2  0  0  0  0  0  0
  191.1360  177.3670  145.3630 C   0  0  0  0  0  2  0  0  0  0  0  0
  191.5440  177.9450  143.0360 C   0  0  0  0  0  2  0  0  0  0  0  0
  192.0910  178.1140  144.4410 C   0  0  0  0  0  2  0  0  0  0  0  0
  188.2170  176.5920  142.2920 O   0  0  0  0  0  0  0  0  0  0  0  0
  189.3540  177.1020  142.0900 C   0  0  0  0  0  0  0  0  0  0  0  0
  188.9850  177.0500  139.5820 C   0  0  1  0  0  3  0  0  0  0  0  0
  189.0860  179.2430  138.6430 O   0  0  0  0  0  0  0  0  0  0  0  0
  188.3540  178.3000  139.0480 C   0  0  0  0  0  0  0  0  0  0  0  0
  186.9350  178.4440  139.0210 N   0  0  0  0  0  1  0  0  0  0  0  0
  191.2570  176.6590  138.5350 C   0  0  0  0  0  1  0  0  0  0  0  0
  189.7770  176.3130  138.4950 C   0  0  2  0  0  3  0  0  0  0  0  0
  187.4400  174.9470  137.3330 O   0  0  0  0  0  0  0  0  0  0  0  0
  189.2100  176.4760  137.1540 N   0  0  0  0  0  2  0  0  0  0  0  0
  187.6780  176.0000  135.2810 N   0  0  0  0  0  1  0  0  0  0  0  0
  188.0850  175.7640  136.6240 C   0  0  0  0  0  0  0  0  0  0  0  0
  188.7940  178.1720  145.0490 C   0  0  0  0  0  2  0  0  0  0  0  0
  187.6910  177.4740  145.6940 N   0  0  0  0  0  0  0  0  0  0  0  0
  188.2040  176.9600  146.9500 C   0  0  0  0  0  1  0  0  0  0  0  0
  186.6820  178.4690  146.0290 C   0  0  0  0  0  2  0  0  0  0  0  0
  183.6860  178.6440  142.5760 C   0  0  0  0  0  0  0  0  0  0  0  0
  183.1700  179.5680  143.6310 C   0  0  0  0  0  2  0  0  0  0  0  0
  182.8820  178.3720  141.4770 O   0  0  0  0  0  1  0  0  0  0  0  0
  185.5570  178.4140  145.0490 C   0  0  0  0  0  0  0  0  0  0  0  0
  183.1040  178.8940  144.9630 C   0  0  0  0  0  3  0  0  0  0  0  0
  184.9120  178.1150  142.6290 C   0  0  0  0  0  3  0  0  0  0  0  0
  184.1820  178.4190  145.5930 C   0  0  0  0  0  3  0  0  0  0  0  0
  185.8620  178.2460  143.7540 C   0  0  0  0  0  3  0  0  0  0  0  0
  1  2  1  0  0  0  0
  2 19  1  1  0  0  0
  2  4  1  0  0  0  0
  3  8  1  0  0  0  0
  5  1  1  0  0  0  0
  5  6  1  0  0  0  0
  6  4  1  0  0  0  0
  8  7  2  0  0  0  0
  8  1  1  0  0  0  0
  9 11  1  6  0  0  0
  9  3  1  0  0  0  0
 10 11  2  0  0  0  0
 12 11  1  0  0  0  0
 14 13  1  6  0  0  0
 14  9  1  0  0  0  0
 16 14  1  0  0  0  0
 17 18  1  0  0  0  0
 18 16  1  0  0  0  0
 18 15  2  0  0  0  0
 19 20  1  0  0  0  0
 20 22  1  0  0  0  0
 20 21  1  0  0  0  0
 23 28  2  0  0  0  0
 23 24  1  0  0  0  0
 24 27  1  0  0  0  0
 25 23  1  0  0  0  0
 26 29  1  0  0  0  0
 26 22  1  0  0  0  0
 27 29  2  0  0  0  0
 28 30  1  0  0  0  0
 30 26  2  0  0  0  0
M  END
>  <MODEL>
3

>  <REMARK>
 VINA RESULT:      -7.4      2.196      4.875
  Name = 
  8 active torsions:
  status: ('A' for Active; 'I' for Inactive)
    1  A    between atoms: C_3  and  N_11
    2  A    between atoms: C_3  and  C_19
    3  A    between atoms: C_4  and  C_8
    4  A    between atoms: C_8  and  C_12
    5  A    between atoms: C_8  and  N_13
    6  A    between atoms: N_9  and  C_12
    7  A    between atoms: C_10  and  C_25
    8  A    between atoms: N_11  and  C_25
                            x       y       z     vdW  Elec       q    Type
                         _______ _______ _______ _____ _____    ______ ____

>  <TORSDO>
F 8

$$$$
=
 OpenBabel11052412273D

 30 31  0  0  1  0  0  0  0  0999 V2000
  189.7820  177.3370  139.7320 N   0  0  0  0  0  0  0  0  0  0  0  0
  189.3740  177.7520  138.4040 C   0  0  1  0  0  3  0  0  0  0  0  0
  189.7580  177.4840  142.2070 N   0  0  0  0  0  2  0  0  0  0  0  0
  190.4130  177.1620  137.4640 C   0  0  0  0  0  2  0  0  0  0  0  0
  190.8900  176.4030  139.7260 C   0  0  0  0  0  2  0  0  0  0  0  0
  191.1670  176.1080  138.2640 C   0  0  0  0  0  2  0  0  0  0  0  0
  188.3340  178.7690  140.8770 O   0  0  0  0  0  0  0  0  0  0  0  0
  189.2480  177.9010  140.9370 C   0  0  0  0  0  0  0  0  0  0  0  0
  189.2350  177.9900  143.4710 C   0  0  1  0  0  3  0  0  0  0  0  0
  187.9500  175.9780  143.4460 O   0  0  0  0  0  0  0  0  0  0  0  0
  188.2510  177.0300  144.0690 C   0  0  0  0  0  0  0  0  0  0  0  0
  187.6310  177.3120  145.3230 N   0  0  0  0  0  1  0  0  0  0  0  0
  191.2190  179.4830  143.9650 C   0  0  0  0  0  1  0  0  0  0  0  0
  190.3560  178.3310  144.4580 C   0  0  2  0  0  3  0  0  0  0  0  0
  190.6980  177.1760  147.1460 O   0  0  0  0  0  0  0  0  0  0  0  0
  191.1600  177.1690  144.8470 N   0  0  0  0  0  2  0  0  0  0  0  0
  192.1720  175.5470  146.4040 N   0  0  0  0  0  1  0  0  0  0  0  0
  191.3180  176.6620  146.1770 C   0  0  0  0  0  0  0  0  0  0  0  0
  187.9960  177.1810  138.0860 C   0  0  0  0  0  2  0  0  0  0  0  0
  187.0560  178.2580  137.8140 N   0  0  0  0  0  0  0  0  0  0  0  0
  187.6280  179.0440  136.7360 C   0  0  0  0  0  1  0  0  0  0  0  0
  185.8380  177.6540  137.2910 C   0  0  0  0  0  2  0  0  0  0  0  0
  182.8130  178.3610  140.6500 C   0  0  0  0  0  0  0  0  0  0  0  0
  182.4380  177.0660  140.0070 C   0  0  0  0  0  2  0  0  0  0  0  0
  181.9580  178.9080  141.5970 O   0  0  0  0  0  1  0  0  0  0  0  0
  184.6940  177.9180  138.2140 C   0  0  0  0  0  0  0  0  0  0  0  0
  182.3180  177.2050  138.5250 C   0  0  0  0  0  3  0  0  0  0  0  0
  183.9660  178.9820  140.3810 C   0  0  0  0  0  3  0  0  0  0  0  0
  183.3420  177.5510  137.7410 C   0  0  0  0  0  3  0  0  0  0  0  0
  184.9480  178.5740  139.3550 C   0  0  0  0  0  3  0  0  0  0  0  0
  1  8  1  0  0  0  0
  2 19  1  6  0  0  0
  2  1  1  0  0  0  0
  4  6  1  0  0  0  0
  4  2  1  0  0  0  0
  5  1  1  0  0  0  0
  6  5  1  0  0  0  0
  7  8  2  0  0  0  0
  8  3  1  0  0  0  0
  9  3  1  6  0  0  0
  9 11  1  0  0  0  0
  9 14  1  0  0  0  0
 10 11  2  0  0  0  0
 11 12  1  0  0  0  0
 14 13  1  6  0  0  0
 14 16  1  0  0  0  0
 16 18  1  0  0  0  0
 18 17  1  0  0  0  0
 18 15  2  0  0  0  0
 20 19  1  0  0  0  0
 21 20  1  0  0  0  0
 22 20  1  0  0  0  0
 22 26  1  0  0  0  0
 23 25  1  0  0  0  0
 24 23  1  0  0  0  0
 26 30  2  0  0  0  0
 27 24  1  0  0  0  0
 28 23  2  0  0  0  0
 29 26  1  0  0  0  0
 29 27  2  0  0  0  0
 30 28  1  0  0  0  0
M  END
>  <MODEL>
4

>  <REMARK>
 VINA RESULT:      -7.2      2.517      6.892
  Name = 
  8 active torsions:
  status: ('A' for Active; 'I' for Inactive)
    1  A    between atoms: C_3  and  N_11
    2  A    between atoms: C_3  and  C_19
    3  A    between atoms: C_4  and  C_8
    4  A    between atoms: C_8  and  C_12
    5  A    between atoms: C_8  and  N_13
    6  A    between atoms: N_9  and  C_12
    7  A    between atoms: C_10  and  C_25
    8  A    between atoms: N_11  and  C_25
                            x       y       z     vdW  Elec       q    Type
                         _______ _______ _______ _____ _____    ______ ____

>  <TORSDO>
F 8

$$$$
=
 OpenBabel11052412273D

 30 31  0  0  1  0  0  0  0  0999 V2000
  184.3630  178.9060  142.1810 N   0  0  0  0  0  0  0  0  0  0  0  0
  185.6630  179.1130  142.7900 C   0  0  1  0  0  3  0  0  0  0  0  0
  182.7800  178.9250  140.2740 N   0  0  0  0  0  2  0  0  0  0  0  0
  185.4000  179.1600  144.2870 C   0  0  0  0  0  2  0  0  0  0  0  0
  183.3120  178.6550  143.1460 C   0  0  0  0  0  2  0  0  0  0  0  0
  184.0010  178.5950  144.4960 C   0  0  0  0  0  2  0  0  0  0  0  0
  185.0540  179.3750  139.9980 O   0  0  0  0  0  0  0  0  0  0  0  0
  184.1080  179.0790  140.7810 C   0  0  0  0  0  0  0  0  0  0  0  0
  182.4580  179.0510  138.8570 C   0  0  1  0  0  3  0  0  0  0  0  0
  183.3800  177.3790  137.4240 O   0  0  0  0  0  0  0  0  0  0  0  0
  182.4350  177.7100  138.1880 C   0  0  0  0  0  0  0  0  0  0  0  0
  181.3400  176.8170  138.3860 N   0  0  0  0  0  1  0  0  0  0  0  0
  181.1640  180.6160  137.3440 C   0  0  0  0  0  1  0  0  0  0  0  0
  181.1460  179.8100  138.6340 C   0  0  2  0  0  3  0  0  0  0  0  0
  178.9920  179.2790  140.5710 O   0  0  0  0  0  0  0  0  0  0  0  0
  180.7440  180.6240  139.7840 N   0  0  0  0  0  2  0  0  0  0  0  0
  179.3690  181.2500  141.7330 N   0  0  0  0  0  1  0  0  0  0  0  0
  179.6670  180.3360  140.6840 C   0  0  0  0  0  0  0  0  0  0  0  0
  186.5810  177.9410  142.4570 C   0  0  0  0  0  2  0  0  0  0  0  0
  187.3300  177.5380  143.6370 N   0  0  0  0  0  0  0  0  0  0  0  0
  187.4200  176.0900  143.5960 C   0  0  0  0  0  1  0  0  0  0  0  0
  188.6870  178.0450  143.4880 C   0  0  0  0  0  2  0  0  0  0  0  0
  191.3750  176.5930  146.8940 C   0  0  0  0  0  0  0  0  0  0  0  0
  189.9670  176.3790  147.3450 C   0  0  0  0  0  2  0  0  0  0  0  0
  192.4040  176.3950  147.8050 O   0  0  0  0  0  1  0  0  0  0  0  0
  189.4830  177.7590  144.7180 C   0  0  0  0  0  0  0  0  0  0  0  0
  189.1490  177.6200  147.1920 C   0  0  0  0  0  3  0  0  0  0  0  0
  191.6770  176.9170  145.6330 C   0  0  0  0  0  3  0  0  0  0  0  0
  188.9170  178.1980  146.0110 C   0  0  0  0  0  3  0  0  0  0  0  0
  190.7060  177.2310  144.5640 C   0  0  0  0  0  3  0  0  0  0  0  0
  1  2  1  0  0  0  0
  1  5  1  0  0  0  0
  2 19  1  1  0  0  0
  2  4  1  0  0  0  0
  3  8  1  0  0  0  0
  4  6  1  0  0  0  0
  5  6  1  0  0  0  0
  7  8  2  0  0  0  0
  8  1  1  0  0  0  0
  9 11  1  1  0  0  0
  9  3  1  0  0  0  0
 10 11  2  0  0  0  0
 11 12  1  0  0  0  0
 14 13  1  6  0  0  0
 14  9  1  0  0  0  0
 14 16  1  0  0  0  0
 15 18  2  0  0  0  0
 16 18  1  0  0  0  0
 18 17  1  0  0  0  0
 19 20  1  0  0  0  0
 21 20  1  0  0  0  0
 22 20  1  0  0  0  0
 22 26  1  0  0  0  0
 23 24  1  0  0  0  0
 23 25  1  0  0  0  0
 26 29  1  0  0  0  0
 27 24  1  0  0  0  0
 28 23  2  0  0  0  0
 29 27  2  0  0  0  0
 30 26  2  0  0  0  0
 30 28  1  0  0  0  0
M  END
>  <MODEL>
5

>  <REMARK>
 VINA RESULT:      -7.1      3.890      7.091
  Name = 
  8 active torsions:
  status: ('A' for Active; 'I' for Inactive)
    1  A    between atoms: C_3  and  N_11
    2  A    between atoms: C_3  and  C_19
    3  A    between atoms: C_4  and  C_8
    4  A    between atoms: C_8  and  C_12
    5  A    between atoms: C_8  and  N_13
    6  A    between atoms: N_9  and  C_12
    7  A    between atoms: C_10  and  C_25
    8  A    between atoms: N_11  and  C_25
                            x       y       z     vdW  Elec       q    Type
                         _______ _______ _______ _____ _____    ______ ____

>  <TORSDO>
F 8

$$$$
=
 OpenBabel11052412273D

 30 31  0  0  1  0  0  0  0  0999 V2000
  184.1660  178.7100  141.8380 N   0  0  0  0  0  0  0  0  0  0  0  0
  185.1160  178.3890  142.8860 C   0  0  1  0  0  3  0  0  0  0  0  0
  181.8770  178.9270  140.9110 N   0  0  0  0  0  2  0  0  0  0  0  0
  186.4520  178.2330  142.1780 C   0  0  0  0  0  2  0  0  0  0  0  0
  184.7870  178.9350  140.5490 C   0  0  0  0  0  2  0  0  0  0  0  0
  186.2810  178.8490  140.7960 C   0  0  0  0  0  2  0  0  0  0  0  0
  182.2580  178.3870  143.1500 O   0  0  0  0  0  0  0  0  0  0  0  0
  182.7440  178.6650  142.0180 C   0  0  0  0  0  0  0  0  0  0  0  0
  180.4230  178.9340  141.0330 C   0  0  1  0  0  3  0  0  0  0  0  0
  179.6400  181.0310  140.2030 O   0  0  0  0  0  0  0  0  0  0  0  0
  179.9040  180.3280  141.2150 C   0  0  0  0  0  0  0  0  0  0  0  0
  179.7350  180.8780  142.5210 N   0  0  0  0  0  1  0  0  0  0  0  0
  178.9720  176.9990  140.2840 C   0  0  0  0  0  1  0  0  0  0  0  0
  179.7470  178.2340  139.8500 C   0  0  2  0  0  3  0  0  0  0  0  0
  179.9110  179.5700  137.2300 O   0  0  0  0  0  0  0  0  0  0  0  0
  180.6640  177.9460  138.7450 N   0  0  0  0  0  2  0  0  0  0  0  0
  181.6120  178.1840  136.4810 N   0  0  0  0  0  1  0  0  0  0  0  0
  180.6860  178.6070  137.4750 C   0  0  0  0  0  0  0  0  0  0  0  0
  185.1850  179.5370  143.8880 C   0  0  0  0  0  2  0  0  0  0  0  0
  185.4240  179.0200  145.2280 N   0  0  0  0  0  0  0  0  0  0  0  0
  184.1200  178.8250  145.8350 C   0  0  0  0  0  1  0  0  0  0  0  0
  186.0210  177.6990  145.0860 C   0  0  0  0  0  2  0  0  0  0  0  0
  190.3050  177.0720  146.5650 C   0  0  0  0  0  0  0  0  0  0  0  0
  189.4060  176.6660  147.6870 C   0  0  0  0  0  2  0  0  0  0  0  0
  191.6720  177.1430  146.7980 O   0  0  0  0  0  1  0  0  0  0  0  0
  187.3760  177.6760  145.7130 C   0  0  0  0  0  0  0  0  0  0  0  0
  188.4010  177.7270  147.9940 C   0  0  0  0  0  3  0  0  0  0  0  0
  189.8430  177.3160  145.3350 C   0  0  0  0  0  3  0  0  0  0  0  0
  187.4840  178.1370  147.1140 C   0  0  0  0  0  3  0  0  0  0  0  0
  188.4200  177.3530  144.9370 C   0  0  0  0  0  3  0  0  0  0  0  0
  1  8  1  0  0  0  0
  1  2  1  0  0  0  0
  2 19  1  1  0  0  0
  3  8  1  0  0  0  0
  4  2  1  0  0  0  0
  5  6  1  0  0  0  0
  5  1  1  0  0  0  0
  6  4  1  0  0  0  0
  8  7  2  0  0  0  0
  9  3  1  6  0  0  0
  9 11  1  0  0  0  0
 10 11  2  0  0  0  0
 11 12  1  0  0  0  0
 14 13  1  1  0  0  0
 14  9  1  0  0  0  0
 15 18  2  0  0  0  0
 16 14  1  0  0  0  0
 17 18  1  0  0  0  0
 18 16  1  0  0  0  0
 19 20  1  0  0  0  0
 20 21  1  0  0  0  0
 22 20  1  0  0  0  0
 22 26  1  0  0  0  0
 23 25  1  0  0  0  0
 23 24  1  0  0  0  0
 24 27  1  0  0  0  0
 26 29  1  0  0  0  0
 28 23  2  0  0  0  0
 29 27  2  0  0  0  0
 30 28  1  0  0  0  0
 30 26  2  0  0  0  0
M  END
>  <MODEL>
6

>  <REMARK>
 VINA RESULT:      -7.0      4.311      7.083
  Name = 
  8 active torsions:
  status: ('A' for Active; 'I' for Inactive)
    1  A    between atoms: C_3  and  N_11
    2  A    between atoms: C_3  and  C_19
    3  A    between atoms: C_4  and  C_8
    4  A    between atoms: C_8  and  C_12
    5  A    between atoms: C_8  and  N_13
    6  A    between atoms: N_9  and  C_12
    7  A    between atoms: C_10  and  C_25
    8  A    between atoms: N_11  and  C_25
                            x       y       z     vdW  Elec       q    Type
                         _______ _______ _______ _____ _____    ______ ____

>  <TORSDO>
F 8

$$$$
=
 OpenBabel11052412273D

 30 31  0  0  1  0  0  0  0  0999 V2000
  184.8260  178.5110  143.8640 N   0  0  0  0  0  0  0  0  0  0  0  0
  185.8510  178.7820  144.8530 C   0  0  1  0  0  3  0  0  0  0  0  0
  184.0330  178.0570  141.5600 N   0  0  0  0  0  2  0  0  0  0  0  0
  185.1070  179.3360  146.0570 C   0  0  0  0  0  2  0  0  0  0  0  0
  183.4800  178.6830  144.3710 C   0  0  0  0  0  2  0  0  0  0  0  0
  183.6360  179.0010  145.8460 C   0  0  0  0  0  2  0  0  0  0  0  0
  186.3030  178.1810  142.0840 O   0  0  0  0  0  0  0  0  0  0  0  0
  185.1080  178.2440  142.4840 C   0  0  0  0  0  0  0  0  0  0  0  0
  184.2490  177.7460  140.1510 C   0  0  1  0  0  3  0  0  0  0  0  0
  183.1320  176.4560  138.4810 O   0  0  0  0  0  0  0  0  0  0  0  0
  183.0270  177.1290  139.5410 C   0  0  0  0  0  0  0  0  0  0  0  0
  181.7430  177.3210  140.1330 N   0  0  0  0  0  1  0  0  0  0  0  0
  183.5680  179.9360  139.0790 C   0  0  0  0  0  1  0  0  0  0  0  0
  184.7120  178.9730  139.3590 C   0  0  2  0  0  3  0  0  0  0  0  0
  187.5860  178.3890  139.0900 O   0  0  0  0  0  0  0  0  0  0  0  0
  185.4550  178.6330  138.1430 N   0  0  0  0  0  2  0  0  0  0  0  0
  187.4500  178.1090  136.7920 N   0  0  0  0  0  1  0  0  0  0  0  0
  186.8630  178.3850  138.0590 C   0  0  0  0  0  0  0  0  0  0  0  0
  186.5620  177.4860  145.2280 C   0  0  0  0  0  2  0  0  0  0  0  0
  187.8300  177.7790  145.8800 N   0  0  0  0  0  0  0  0  0  0  0  0
  187.6140  177.5980  147.3040 C   0  0  0  0  0  1  0  0  0  0  0  0
  188.7800  176.7560  145.4680 C   0  0  0  0  0  2  0  0  0  0  0  0
  190.7990  177.2610  141.3930 C   0  0  0  0  0  0  0  0  0  0  0  0
  191.8360  177.5760  142.4220 C   0  0  0  0  0  2  0  0  0  0  0  0
  191.0920  177.4980  140.0570 O   0  0  0  0  0  1  0  0  0  0  0  0
  189.4410  177.1510  144.1890 C   0  0  0  0  0  0  0  0  0  0  0  0
  191.3390  178.5810  143.4090 C   0  0  0  0  0  3  0  0  0  0  0  0
  189.6240  176.7110  141.7120 C   0  0  0  0  0  3  0  0  0  0  0  0
  190.2950  178.3590  144.2100 C   0  0  0  0  0  3  0  0  0  0  0  0
  189.1300  176.4600  143.0820 C   0  0  0  0  0  3  0  0  0  0  0  0
  1  5  1  0  0  0  0
  1  2  1  0  0  0  0
  2 19  1  1  0  0  0
  2  4  1  0  0  0  0
  3  8  1  0  0  0  0
  5  6  1  0  0  0  0
  6  4  1  0  0  0  0
  7  8  2  0  0  0  0
  8  1  1  0  0  0  0
  9 11  1  6  0  0  0
  9  3  1  0  0  0  0
 10 11  2  0  0  0  0
 11 12  1  0  0  0  0
 14 13  1  6  0  0  0
 14  9  1  0  0  0  0
 16 14  1  0  0  0  0
 17 18  1  0  0  0  0
 18 16  1  0  0  0  0
 18 15  2  0  0  0  0
 19 20  1  0  0  0  0
 20 21  1  0  0  0  0
 22 20  1  0  0  0  0
 23 28  2  0  0  0  0
 23 24  1  0  0  0  0
 24 27  1  0  0  0  0
 25 23  1  0  0  0  0
 26 29  1  0  0  0  0
 26 22  1  0  0  0  0
 27 29  2  0  0  0  0
 28 30  1  0  0  0  0
 30 26  2  0  0  0  0
M  END
>  <MODEL>
7

>  <REMARK>
 VINA RESULT:      -7.0      2.640      5.769
  Name = 
  8 active torsions:
  status: ('A' for Active; 'I' for Inactive)
    1  A    between atoms: C_3  and  N_11
    2  A    between atoms: C_3  and  C_19
    3  A    between atoms: C_4  and  C_8
    4  A    between atoms: C_8  and  C_12
    5  A    between atoms: C_8  and  N_13
    6  A    between atoms: N_9  and  C_12
    7  A    between atoms: C_10  and  C_25
    8  A    between atoms: N_11  and  C_25
                            x       y       z     vdW  Elec       q    Type
                         _______ _______ _______ _____ _____    ______ ____

>  <TORSDO>
F 8

$$$$
=
 OpenBabel11052412273D

 30 31  0  0  1  0  0  0  0  0999 V2000
  185.8660  178.3030  144.0910 N   0  0  0  0  0  0  0  0  0  0  0  0
  184.7700  178.1170  143.1600 C   0  0  1  0  0  3  0  0  0  0  0  0
  188.1730  177.9070  144.9080 N   0  0  0  0  0  2  0  0  0  0  0  0
  183.5310  178.5850  143.9050 C   0  0  0  0  0  2  0  0  0  0  0  0
  185.4790  178.9960  145.3030 C   0  0  0  0  0  2  0  0  0  0  0  0
  184.0250  179.3810  145.1060 C   0  0  0  0  0  2  0  0  0  0  0  0
  187.4260  177.0730  142.8600 O   0  0  0  0  0  0  0  0  0  0  0  0
  187.1690  177.7330  143.9050 C   0  0  0  0  0  0  0  0  0  0  0  0
  189.5280  177.3850  144.7650 C   0  0  1  0  0  3  0  0  0  0  0  0
  190.6910  179.3700  144.1240 O   0  0  0  0  0  0  0  0  0  0  0  0
  190.3240  178.2090  143.7980 C   0  0  0  0  0  0  0  0  0  0  0  0
  190.6430  177.7040  142.5030 N   0  0  0  0  0  1  0  0  0  0  0  0
  191.4690  176.3730  146.0380 C   0  0  0  0  0  1  0  0  0  0  0  0
  190.2400  177.2650  146.1170 C   0  0  2  0  0  3  0  0  0  0  0  0
  188.9040  179.0040  148.0840 O   0  0  0  0  0  0  0  0  0  0  0  0
  189.3460  176.8730  147.2100 N   0  0  0  0  0  2  0  0  0  0  0  0
  187.9290  177.2210  149.1980 N   0  0  0  0  0  1  0  0  0  0  0  0
  188.7420  177.7580  148.1610 C   0  0  0  0  0  0  0  0  0  0  0  0
  184.9930  178.9790  141.9220 C   0  0  0  0  0  2  0  0  0  0  0  0
  184.9290  178.1590  140.7210 N   0  0  0  0  0  0  0  0  0  0  0  0
  183.5360  177.7970  140.5420 C   0  0  0  0  0  1  0  0  0  0  0  0
  185.2890  179.0070  139.5930 C   0  0  0  0  0  2  0  0  0  0  0  0
  189.3960  177.7880  137.9870 C   0  0  0  0  0  0  0  0  0  0  0  0
  188.7570  178.6220  136.9250 C   0  0  0  0  0  2  0  0  0  0  0  0
  190.5890  177.1390  137.6970 O   0  0  0  0  0  1  0  0  0  0  0  0
  186.5090  178.4750  138.9160 C   0  0  0  0  0  0  0  0  0  0  0  0
  187.3840  178.1340  136.5980 C   0  0  0  0  0  3  0  0  0  0  0  0
  188.8860  177.6880  139.2180 C   0  0  0  0  0  3  0  0  0  0  0  0
  186.3890  178.1090  137.4880 C   0  0  0  0  0  3  0  0  0  0  0  0
  187.5970  178.2540  139.6680 C   0  0  0  0  0  3  0  0  0  0  0  0
  1  5  1  0  0  0  0
  2 19  1  6  0  0  0
  2  4  1  0  0  0  0
  2  1  1  0  0  0  0
  4  6  1  0  0  0  0
  6  5  1  0  0  0  0
  7  8  2  0  0  0  0
  8  1  1  0  0  0  0
  8  3  1  0  0  0  0
  9 11  1  6  0  0  0
  9  3  1  0  0  0  0
  9 14  1  0  0  0  0
 11 10  2  0  0  0  0
 12 11  1  0  0  0  0
 14 13  1  6  0  0  0
 14 16  1  0  0  0  0
 15 18  2  0  0  0  0
 16 18  1  0  0  0  0
 18 17  1  0  0  0  0
 20 19  1  0  0  0  0
 21 20  1  0  0  0  0
 22 20  1  0  0  0  0
 23 28  2  0  0  0  0
 24 23  1  0  0  0  0
 25 23  1  0  0  0  0
 26 22  1  0  0  0  0
 26 30  2  0  0  0  0
 27 24  1  0  0  0  0
 27 29  2  0  0  0  0
 28 30  1  0  0  0  0
 29 26  1  0  0  0  0
M  END
>  <MODEL>
8

>  <REMARK>
 VINA RESULT:      -6.9      2.383      7.030
  Name = 
  8 active torsions:
  status: ('A' for Active; 'I' for Inactive)
    1  A    between atoms: C_3  and  N_11
    2  A    between atoms: C_3  and  C_19
    3  A    between atoms: C_4  and  C_8
    4  A    between atoms: C_8  and  C_12
    5  A    between atoms: C_8  and  N_13
    6  A    between atoms: N_9  and  C_12
    7  A    between atoms: C_10  and  C_25
    8  A    between atoms: N_11  and  C_25
                            x       y       z     vdW  Elec       q    Type
                         _______ _______ _______ _____ _____    ______ ____

>  <TORSDO>
F 8

$$$$
=
 OpenBabel11052412273D

 30 31  0  0  1  0  0  0  0  0999 V2000
  186.0370  178.5890  141.2320 N   0  0  0  0  0  0  0  0  0  0  0  0
  185.3900  178.9800  142.4690 C   0  0  1  0  0  3  0  0  0  0  0  0
  188.0050  178.3130  139.7500 N   0  0  0  0  0  2  0  0  0  0  0  0
  183.9110  179.0840  142.1310 C   0  0  0  0  0  2  0  0  0  0  0  0
  185.1030  178.2740  140.1700 C   0  0  0  0  0  2  0  0  0  0  0  0
  183.7240  178.3740  140.7960 C   0  0  0  0  0  2  0  0  0  0  0  0
  188.2150  179.0070  141.9680 O   0  0  0  0  0  0  0  0  0  0  0  0
  187.4550  178.6500  141.0260 C   0  0  0  0  0  0  0  0  0  0  0  0
  189.4400  178.3180  139.4840 C   0  0  1  0  0  3  0  0  0  0  0  0
  191.3590  177.6900  140.7580 O   0  0  0  0  0  0  0  0  0  0  0  0
  190.1680  177.4260  140.4430 C   0  0  0  0  0  0  0  0  0  0  0  0
  189.5360  176.2630  140.9780 N   0  0  0  0  0  1  0  0  0  0  0  0
  189.0580  178.8800  137.0450 C   0  0  0  0  0  1  0  0  0  0  0  0
  189.7520  177.9510  138.0290 C   0  0  2  0  0  3  0  0  0  0  0  0
  191.6060  176.0060  136.8220 O   0  0  0  0  0  0  0  0  0  0  0  0
  189.5070  176.5400  137.7210 N   0  0  0  0  0  2  0  0  0  0  0  0
  190.0330  174.3030  136.8270 N   0  0  0  0  0  1  0  0  0  0  0  0
  190.4350  175.6390  137.1050 C   0  0  0  0  0  0  0  0  0  0  0  0
  185.6100  177.9050  143.5280 C   0  0  0  0  0  2  0  0  0  0  0  0
  186.2640  178.4770  144.6960 N   0  0  0  0  0  0  0  0  0  0  0  0
  185.2990  179.3650  145.3170 C   0  0  0  0  0  1  0  0  0  0  0  0
  186.5010  177.3930  145.6390 C   0  0  0  0  0  2  0  0  0  0  0  0
  190.9720  177.0380  146.5480 C   0  0  0  0  0  0  0  0  0  0  0  0
  190.8610  177.7370  145.2320 C   0  0  0  0  0  2  0  0  0  0  0  0
  192.2270  176.6440  146.9900 O   0  0  0  0  0  1  0  0  0  0  0  0
  187.9650  177.1230  145.7560 C   0  0  0  0  0  0  0  0  0  0  0  0
  189.9830  176.9860  144.2850 C   0  0  0  0  0  3  0  0  0  0  0  0
  189.9110  176.8260  147.3330 C   0  0  0  0  0  3  0  0  0  0  0  0
  188.6890  176.7540  144.5210 C   0  0  0  0  0  3  0  0  0  0  0  0
  188.5050  177.1170  146.9840 C   0  0  0  0  0  3  0  0  0  0  0  0
  1  2  1  0  0  0  0
  2 19  1  1  0  0  0
  3  8  1  0  0  0  0
  4  2  1  0  0  0  0
  5  6  1  0  0  0  0
  5  1  1  0  0  0  0
  6  4  1  0  0  0  0
  8  1  1  0  0  0  0
  8  7  2  0  0  0  0
  9  3  1  6  0  0  0
  9 11  1  0  0  0  0
 11 10  2  0  0  0  0
 11 12  1  0  0  0  0
 14 13  1  6  0  0  0
 14  9  1  0  0  0  0
 15 18  2  0  0  0  0
 16 14  1  0  0  0  0
 17 18  1  0  0  0  0
 18 16  1  0  0  0  0
 19 20  1  0  0  0  0
 20 21  1  0  0  0  0
 20 22  1  0  0  0  0
 22 26  1  0  0  0  0
 23 25  1  0  0  0  0
 23 28  2  0  0  0  0
 24 23  1  0  0  0  0
 26 30  2  0  0  0  0
 27 29  2  0  0  0  0
 27 24  1  0  0  0  0
 29 26  1  0  0  0  0
 30 28  1  0  0  0  0
M  END
>  <MODEL>
9

>  <REMARK>
 VINA RESULT:      -6.9      1.578      2.285
  Name = 
  8 active torsions:
  status: ('A' for Active; 'I' for Inactive)
    1  A    between atoms: C_3  and  N_11
    2  A    between atoms: C_3  and  C_19
    3  A    between atoms: C_4  and  C_8
    4  A    between atoms: C_8  and  C_12
    5  A    between atoms: C_8  and  N_13
    6  A    between atoms: N_9  and  C_12
    7  A    between atoms: C_10  and  C_25
    8  A    between atoms: N_11  and  C_25
                            x       y       z     vdW  Elec       q    Type
                         _______ _______ _______ _____ _____    ______ ____

>  <TORSDO>
F 8

$$$$
