=
 OpenBabel11052414183D

 34 39  0  0  1  0  0  0  0  0999 V2000
  190.3760  175.6140  143.0670 C   0  0  2  0  0  3  0  0  0  0  0  0
  190.5120  177.7160  144.4340 C   0  0  1  0  0  3  0  0  0  0  0  0
  188.4840  177.2680  142.9420 C   0  0  0  0  0  0  0  0  0  0  0  0
  186.2900  178.2540  142.6130 C   0  0  0  0  0  0  0  0  0  0  0  0
  192.0160  175.7410  144.9490 C   0  0  0  0  0  3  0  0  0  0  0  0
  191.4390  177.0420  145.4460 C   0  0  0  0  0  2  0  0  0  0  0  0
  186.9250  177.4910  144.8270 C   0  0  0  0  0  3  0  0  0  0  0  0
  189.5530  176.6660  143.8360 C   0  0  1  0  0  3  0  0  0  0  0  0
  185.6860  177.9010  145.3240 C   0  0  0  0  0  3  0  0  0  0  0  0
  185.0510  178.6630  143.1140 C   0  0  0  0  0  3  0  0  0  0  0  0
  191.5040  175.0720  143.9040 C   0  0  0  0  0  3  0  0  0  0  0  0
  188.7240  177.4120  141.5590 C   0  0  0  0  0  0  0  0  0  0  0  0
  190.9610  176.2380  141.8010 C   0  0  0  0  0  2  0  0  0  0  0  0
  189.7840  178.8490  145.1350 C   0  0  0  0  0  1  0  0  0  0  0  0
  186.5660  178.4110  141.2950 N   0  0  0  0  0  0  0  0  0  0  0  0
  187.7440  178.0160  140.7370 C   0  0  0  0  0  0  0  0  0  0  0  0
  184.7500  178.4950  144.4700 C   0  0  0  0  0  0  0  0  0  0  0  0
  187.2440  177.6700  143.4720 C   0  0  0  0  0  0  0  0  0  0  0  0
  189.9040  176.8260  140.9890 N   0  0  0  0  0  2  0  0  0  0  0  0
  187.0550  178.0370  137.0130 C   0  0  0  0  0  0  0  0  0  0  0  0
  188.1980  178.6640  136.5110 C   0  0  0  0  0  3  0  0  0  0  0  0
  187.9290  178.2290  139.2770 C   0  0  0  0  0  0  0  0  0  0  0  0
  189.2040  179.0800  137.3840 C   0  0  0  0  0  3  0  0  0  0  0  0
  186.9200  177.8250  138.3870 C   0  0  0  0  0  3  0  0  0  0  0  0
  189.0680  178.8680  138.7590 C   0  0  0  0  0  3  0  0  0  0  0  0
  185.7900  177.5200  135.9200 Cl  0  0  0  0  0  0  0  0  0  0  0  0
  183.4230  178.9140  144.9960 C   0  0  0  0  0  2  0  0  0  0  0  0
  182.6090  179.5720  143.8950 C   0  0  0  0  0  2  0  0  0  0  0  0
  181.2580  178.9330  141.8810 C   0  0  0  0  0  2  0  0  0  0  0  0
  180.2130  179.8750  141.8360 O   0  0  0  0  0  0  0  0  0  0  0  0
  179.2130  178.3030  143.3470 O   0  0  0  0  0  0  0  0  0  0  0  0
  180.2990  178.7050  144.1440 C   0  0  0  0  0  2  0  0  0  0  0  0
  181.5880  178.5970  143.3360 C   0  0  0  0  0  3  0  0  0  0  0  0
  179.0210  179.2610  142.3130 C   0  0  0  0  0  2  0  0  0  0  0  0
  1 13  1  6  0  0  0
  1  8  1  0  0  0  0
  1 11  1  0  0  0  0
  2 14  1  1  0  0  0
  2  6  1  0  0  0  0
  3 18  1  0  0  0  0
  4 10  2  0  0  0  0
  4 18  1  0  0  0  0
  5  6  1  0  0  0  0
  7  9  1  0  0  0  0
  8  3  1  6  0  0  0
  8  2  1  0  0  0  0
 10 17  1  0  0  0  0
 11  5  2  0  0  0  0
 12  3  2  0  0  0  0
 15  4  1  0  0  0  0
 16 15  2  0  0  0  0
 16 12  1  0  0  0  0
 17 27  1  0  0  0  0
 17  9  2  0  0  0  0
 18  7  2  0  0  0  0
 19 12  1  0  0  0  0
 19 13  1  0  0  0  0
 20 24  1  0  0  0  0
 21 20  2  0  0  0  0
 21 23  1  0  0  0  0
 22 16  1  0  0  0  0
 23 25  2  0  0  0  0
 24 22  2  0  0  0  0
 25 22  1  0  0  0  0
 26 20  1  0  0  0  0
 28 27  1  0  0  0  0
 29 33  1  0  0  0  0
 30 29  1  0  0  0  0
 30 34  1  0  0  0  0
 31 32  1  0  0  0  0
 33 28  1  0  0  0  0
 33 32  1  0  0  0  0
 34 31  1  0  0  0  0
M  END
>  <MODEL>
1

>  <REMARK>
 VINA RESULT:      -9.9      0.000      0.000
  Name = 
  4 active torsions:
  status: ('A' for Active; 'I' for Inactive)
    1  A    between atoms: C_3  and  C_13
    2  A    between atoms: C_3  and  C_29
    3  A    between atoms: C_12  and  C_28
    4  A    between atoms: C_13  and  C_33
                            x       y       z     vdW  Elec       q    Type
                         _______ _______ _______ _____ _____    ______ ____

>  <TORSDO>
F 4

$$$$
=
 OpenBabel11052414183D

 34 39  0  0  1  0  0  0  0  0999 V2000
  185.1820  179.3220  144.6970 C   0  0  2  0  0  3  0  0  0  0  0  0
  186.5000  177.1970  144.4600 C   0  0  1  0  0  3  0  0  0  0  0  0
  185.7130  178.4740  142.3880 C   0  0  0  0  0  0  0  0  0  0  0  0
  186.1230  178.3720  139.9980 C   0  0  0  0  0  0  0  0  0  0  0  0
  186.4540  178.4480  146.6640 C   0  0  0  0  0  3  0  0  0  0  0  0
  187.1460  177.4000  145.8300 C   0  0  0  0  0  2  0  0  0  0  0  0
  187.9990  178.6550  141.5110 C   0  0  0  0  0  3  0  0  0  0  0  0
  186.2040  178.5700  143.8210 C   0  0  1  0  0  3  0  0  0  0  0  0
  188.8740  178.6740  140.4220 C   0  0  0  0  0  3  0  0  0  0  0  0
  187.0020  178.3900  138.9110 C   0  0  0  0  0  3  0  0  0  0  0  0
  185.6040  179.3470  146.1430 C   0  0  0  0  0  3  0  0  0  0  0  0
  184.3290  178.3780  142.1250 C   0  0  0  0  0  0  0  0  0  0  0  0
  183.8160  178.6460  144.5960 C   0  0  0  0  0  2  0  0  0  0  0  0
  187.4280  176.3420  143.6160 C   0  0  0  0  0  1  0  0  0  0  0  0
  184.7910  178.2450  139.7810 N   0  0  0  0  0  0  0  0  0  0  0  0
  183.8770  178.2410  140.7910 C   0  0  0  0  0  0  0  0  0  0  0  0
  188.3780  178.5330  139.1220 C   0  0  0  0  0  0  0  0  0  0  0  0
  186.6180  178.4960  141.3120 C   0  0  0  0  0  0  0  0  0  0  0  0
  183.3980  178.5500  143.2040 N   0  0  0  0  0  2  0  0  0  0  0  0
  180.5600  176.6770  139.8480 C   0  0  0  0  0  0  0  0  0  0  0  0
  179.7170  177.7890  139.8080 C   0  0  0  0  0  3  0  0  0  0  0  0
  182.4410  178.1080  140.4310 C   0  0  0  0  0  0  0  0  0  0  0  0
  180.2260  179.0590  140.0830 C   0  0  0  0  0  3  0  0  0  0  0  0
  181.9120  176.8350  140.1620 C   0  0  0  0  0  3  0  0  0  0  0  0
  181.5780  179.2170  140.3980 C   0  0  0  0  0  3  0  0  0  0  0  0
  179.9230  175.0820  139.5080 Cl  0  0  0  0  0  0  0  0  0  0  0  0
  189.3090  178.5720  137.9620 C   0  0  0  0  0  2  0  0  0  0  0  0
  189.2610  177.2530  137.2100 C   0  0  0  0  0  2  0  0  0  0  0  0
  191.3290  176.4800  138.3990 C   0  0  0  0  0  2  0  0  0  0  0  0
  192.1850  176.0310  137.3750 O   0  0  0  0  0  0  0  0  0  0  0  0
  190.9190  174.0190  137.6910 O   0  0  0  0  0  0  0  0  0  0  0  0
  189.8840  174.8530  137.2330 C   0  0  0  0  0  2  0  0  0  0  0  0
  189.8790  176.1450  138.0430 C   0  0  0  0  0  3  0  0  0  0  0  0
  192.1690  174.6080  137.3550 C   0  0  0  0  0  2  0  0  0  0  0  0
  1 13  1  1  0  0  0
  1 11  1  0  0  0  0
  2 14  1  6  0  0  0
  2  6  1  0  0  0  0
  4 18  1  0  0  0  0
  6  5  1  0  0  0  0
  8  3  1  6  0  0  0
  8  2  1  0  0  0  0
  8  1  1  0  0  0  0
  9  7  2  0  0  0  0
 10 17  2  0  0  0  0
 10  4  1  0  0  0  0
 11  5  2  0  0  0  0
 12  3  1  0  0  0  0
 12 19  1  0  0  0  0
 15  4  2  0  0  0  0
 15 16  1  0  0  0  0
 16 12  2  0  0  0  0
 17  9  1  0  0  0  0
 18  7  1  0  0  0  0
 18  3  2  0  0  0  0
 19 13  1  0  0  0  0
 20 24  1  0  0  0  0
 21 20  2  0  0  0  0
 21 23  1  0  0  0  0
 22 16  1  0  0  0  0
 23 25  2  0  0  0  0
 24 22  2  0  0  0  0
 25 22  1  0  0  0  0
 26 20  1  0  0  0  0
 27 17  1  0  0  0  0
 28 27  1  0  0  0  0
 28 33  1  0  0  0  0
 30 29  1  0  0  0  0
 32 31  1  0  0  0  0
 32 33  1  0  0  0  0
 33 29  1  0  0  0  0
 34 30  1  0  0  0  0
 34 31  1  0  0  0  0
M  END
>  <MODEL>
2

>  <REMARK>
 VINA RESULT:      -9.0      4.208      7.732
  Name = 
  4 active torsions:
  status: ('A' for Active; 'I' for Inactive)
    1  A    between atoms: C_3  and  C_13
    2  A    between atoms: C_3  and  C_29
    3  A    between atoms: C_12  and  C_28
    4  A    between atoms: C_13  and  C_33
                            x       y       z     vdW  Elec       q    Type
                         _______ _______ _______ _____ _____    ______ ____

>  <TORSDO>
F 4

$$$$
=
 OpenBabel11052414183D

 34 39  0  0  1  0  0  0  0  0999 V2000
  189.8810  178.2480  145.1790 C   0  0  2  0  0  3  0  0  0  0  0  0
  190.2170  175.9890  144.1340 C   0  0  1  0  0  3  0  0  0  0  0  0
  188.8660  177.7910  142.9220 C   0  0  0  0  0  0  0  0  0  0  0  0
  187.9240  178.0900  140.7050 C   0  0  0  0  0  0  0  0  0  0  0  0
  191.6820  176.7530  146.0580 C   0  0  0  0  0  3  0  0  0  0  0  0
  191.5080  175.7740  144.9240 C   0  0  0  0  0  2  0  0  0  0  0  0
  190.3030  177.6680  140.9340 C   0  0  0  0  0  3  0  0  0  0  0  0
  190.0350  177.4930  143.8430 C   0  0  1  0  0  3  0  0  0  0  0  0
  190.4460  177.7250  139.5460 C   0  0  0  0  0  3  0  0  0  0  0  0
  188.0720  178.1440  139.3160 C   0  0  0  0  0  3  0  0  0  0  0  0
  190.9800  177.8940  146.1460 C   0  0  0  0  0  3  0  0  0  0  0  0
  187.5880  178.0380  143.4670 C   0  0  0  0  0  0  0  0  0  0  0  0
  188.5370  177.9040  145.8170 C   0  0  0  0  0  2  0  0  0  0  0  0
  190.2840  175.1480  142.8720 C   0  0  0  0  0  1  0  0  0  0  0  0
  186.7020  178.2870  141.2580 N   0  0  0  0  0  0  0  0  0  0  0  0
  186.4910  178.2690  142.6040 C   0  0  0  0  0  0  0  0  0  0  0  0
  189.3290  177.9540  138.7350 C   0  0  0  0  0  0  0  0  0  0  0  0
  189.0420  177.8410  141.5270 C   0  0  0  0  0  0  0  0  0  0  0  0
  187.4480  178.1780  144.8890 N   0  0  0  0  0  2  0  0  0  0  0  0
  182.7220  178.6420  142.6320 C   0  0  0  0  0  0  0  0  0  0  0  0
  182.4670  178.8960  143.9820 C   0  0  0  0  0  3  0  0  0  0  0  0
  185.1080  178.5110  143.0950 C   0  0  0  0  0  0  0  0  0  0  0  0
  183.5240  178.9520  144.8920 C   0  0  0  0  0  3  0  0  0  0  0  0
  184.0340  178.4460  142.1930 C   0  0  0  0  0  3  0  0  0  0  0  0
  184.8360  178.7560  144.4520 C   0  0  0  0  0  3  0  0  0  0  0  0
  181.3980  178.5650  141.4910 Cl  0  0  0  0  0  0  0  0  0  0  0  0
  189.4870  178.0320  137.2570 C   0  0  0  0  0  2  0  0  0  0  0  0
  188.6400  176.9640  136.5850 C   0  0  0  0  0  2  0  0  0  0  0  0
  189.4260  174.6100  136.9410 C   0  0  0  0  0  2  0  0  0  0  0  0
  190.3690  174.7000  137.9810 O   0  0  0  0  0  0  0  0  0  0  0  0
  191.8210  175.1980  136.1380 O   0  0  0  0  0  0  0  0  0  0  0  0
  190.9720  176.3150  136.0500 C   0  0  0  0  0  2  0  0  0  0  0  0
  189.5200  175.8490  136.0500 C   0  0  0  0  0  3  0  0  0  0  0  0
  191.6760  174.6090  137.4250 C   0  0  0  0  0  2  0  0  0  0  0  0
  1 13  1  1  0  0  0
  1 11  1  0  0  0  0
  2 14  1  6  0  0  0
  2  6  1  0  0  0  0
  3 12  1  0  0  0  0
  4 15  2  0  0  0  0
  4 18  1  0  0  0  0
  5 11  2  0  0  0  0
  6  5  1  0  0  0  0
  7 18  1  0  0  0  0
  8  3  1  6  0  0  0
  8  2  1  0  0  0  0
  8  1  1  0  0  0  0
  9  7  2  0  0  0  0
 10  4  1  0  0  0  0
 12 19  1  0  0  0  0
 15 16  1  0  0  0  0
 16 22  1  0  0  0  0
 16 12  2  0  0  0  0
 17 10  2  0  0  0  0
 17  9  1  0  0  0  0
 18  3  2  0  0  0  0
 19 13  1  0  0  0  0
 20 21  1  0  0  0  0
 21 23  2  0  0  0  0
 22 25  2  0  0  0  0
 24 20  2  0  0  0  0
 24 22  1  0  0  0  0
 25 23  1  0  0  0  0
 26 20  1  0  0  0  0
 27 17  1  0  0  0  0
 28 27  1  0  0  0  0
 29 30  1  0  0  0  0
 31 34  1  0  0  0  0
 32 31  1  0  0  0  0
 33 32  1  0  0  0  0
 33 28  1  0  0  0  0
 33 29  1  0  0  0  0
 34 30  1  0  0  0  0
M  END
>  <MODEL>
3

>  <REMARK>
 VINA RESULT:      -8.9      3.780      7.365
  Name = 
  4 active torsions:
  status: ('A' for Active; 'I' for Inactive)
    1  A    between atoms: C_3  and  C_13
    2  A    between atoms: C_3  and  C_29
    3  A    between atoms: C_12  and  C_28
    4  A    between atoms: C_13  and  C_33
                            x       y       z     vdW  Elec       q    Type
                         _______ _______ _______ _____ _____    ______ ____

>  <TORSDO>
F 4

$$$$
=
 OpenBabel11052414183D

 34 39  0  0  1  0  0  0  0  0999 V2000
  189.8640  178.2470  145.2370 C   0  0  2  0  0  3  0  0  0  0  0  0
  190.1750  176.0150  144.1280 C   0  0  1  0  0  3  0  0  0  0  0  0
  188.8040  177.8500  142.9900 C   0  0  0  0  0  0  0  0  0  0  0  0
  187.8180  178.2080  140.8010 C   0  0  0  0  0  0  0  0  0  0  0  0
  191.6790  176.7260  146.0410 C   0  0  0  0  0  3  0  0  0  0  0  0
  191.4810  175.7780  144.8860 C   0  0  0  0  0  2  0  0  0  0  0  0
  190.2000  177.7770  140.9710 C   0  0  0  0  0  3  0  0  0  0  0  0
  189.9900  177.5270  143.8800 C   0  0  1  0  0  3  0  0  0  0  0  0
  190.3160  177.8700  139.5820 C   0  0  0  0  0  3  0  0  0  0  0  0
  187.9380  178.2980  139.4110 C   0  0  0  0  0  3  0  0  0  0  0  0
  190.9820  177.8660  146.1720 C   0  0  0  0  0  3  0  0  0  0  0  0
  187.5370  178.0840  143.5670 C   0  0  0  0  0  0  0  0  0  0  0  0
  188.5320  177.8880  145.8930 C   0  0  0  0  0  2  0  0  0  0  0  0
  190.2150  175.2070  142.8430 C   0  0  0  0  0  1  0  0  0  0  0  0
  186.6070  178.3930  141.3830 N   0  0  0  0  0  0  0  0  0  0  0  0
  186.4230  178.3400  142.7320 C   0  0  0  0  0  0  0  0  0  0  0  0
  189.1840  178.1220  138.8000 C   0  0  0  0  0  0  0  0  0  0  0  0
  188.9520  177.9370  141.5940 C   0  0  0  0  0  0  0  0  0  0  0  0
  187.4260  178.1880  144.9940 N   0  0  0  0  0  2  0  0  0  0  0  0
  182.6550  178.6960  142.8500 C   0  0  0  0  0  0  0  0  0  0  0  0
  182.4300  178.9360  144.2070 C   0  0  0  0  0  3  0  0  0  0  0  0
  185.0510  178.5700  143.2570 C   0  0  0  0  0  0  0  0  0  0  0  0
  183.5070  178.9870  145.0930 C   0  0  0  0  0  3  0  0  0  0  0  0
  183.9570  178.5100  142.3790 C   0  0  0  0  0  3  0  0  0  0  0  0
  184.8090  178.8010  144.6220 C   0  0  0  0  0  3  0  0  0  0  0  0
  181.3050  178.6250  141.7380 Cl  0  0  0  0  0  0  0  0  0  0  0  0
  189.3110  178.2380  137.3220 C   0  0  0  0  0  2  0  0  0  0  0  0
  187.9780  178.6380  136.7120 C   0  0  0  0  0  2  0  0  0  0  0  0
  186.3110  176.7860  136.4260 C   0  0  0  0  0  2  0  0  0  0  0  0
  186.8120  175.7280  137.2080 O   0  0  0  0  0  0  0  0  0  0  0  0
  188.0450  175.3010  135.1960 O   0  0  0  0  0  0  0  0  0  0  0  0
  188.5970  176.5520  135.5240 C   0  0  0  0  0  2  0  0  0  0  0  0
  187.4720  177.5480  135.7840 C   0  0  0  0  0  3  0  0  0  0  0  0
  187.4060  174.7630  136.3470 C   0  0  0  0  0  2  0  0  0  0  0  0
  1 13  1  1  0  0  0
  1 11  1  0  0  0  0
  2 14  1  6  0  0  0
  2  6  1  0  0  0  0
  3 12  1  0  0  0  0
  4 15  2  0  0  0  0
  4 18  1  0  0  0  0
  5 11  2  0  0  0  0
  6  5  1  0  0  0  0
  7 18  1  0  0  0  0
  8  3  1  6  0  0  0
  8  2  1  0  0  0  0
  8  1  1  0  0  0  0
  9  7  2  0  0  0  0
 10  4  1  0  0  0  0
 12 19  1  0  0  0  0
 15 16  1  0  0  0  0
 16 22  1  0  0  0  0
 16 12  2  0  0  0  0
 17 10  2  0  0  0  0
 17  9  1  0  0  0  0
 18  3  2  0  0  0  0
 19 13  1  0  0  0  0
 20 21  1  0  0  0  0
 21 23  2  0  0  0  0
 22 25  2  0  0  0  0
 24 20  2  0  0  0  0
 24 22  1  0  0  0  0
 25 23  1  0  0  0  0
 26 20  1  0  0  0  0
 27 17  1  0  0  0  0
 28 27  1  0  0  0  0
 29 30  1  0  0  0  0
 31 32  1  0  0  0  0
 31 34  1  0  0  0  0
 32 33  1  0  0  0  0
 33 29  1  0  0  0  0
 33 28  1  0  0  0  0
 34 30  1  0  0  0  0
M  END
>  <MODEL>
4

>  <REMARK>
 VINA RESULT:      -8.8      3.064      6.671
  Name = 
  4 active torsions:
  status: ('A' for Active; 'I' for Inactive)
    1  A    between atoms: C_3  and  C_13
    2  A    between atoms: C_3  and  C_29
    3  A    between atoms: C_12  and  C_28
    4  A    between atoms: C_13  and  C_33
                            x       y       z     vdW  Elec       q    Type
                         _______ _______ _______ _____ _____    ______ ____

>  <TORSDO>
F 4

$$$$
=
 OpenBabel11052414183D

 34 39  0  0  1  0  0  0  0  0999 V2000
  186.7830  176.2810  136.6300 C   0  0  2  0  0  3  0  0  0  0  0  0
  188.4150  178.1850  136.5020 C   0  0  1  0  0  3  0  0  0  0  0  0
  187.1640  177.6920  138.6780 C   0  0  0  0  0  0  0  0  0  0  0  0
  187.2870  178.4370  140.9860 C   0  0  0  0  0  0  0  0  0  0  0  0
  188.4220  176.3590  134.7440 C   0  0  0  0  0  3  0  0  0  0  0  0
  189.1800  177.5040  135.3680 C   0  0  0  0  0  2  0  0  0  0  0  0
  189.2560  177.4730  139.9450 C   0  0  0  0  0  3  0  0  0  0  0  0
  187.8050  177.1140  137.4300 C   0  0  1  0  0  3  0  0  0  0  0  0
  189.9720  177.6590  141.1300 C   0  0  0  0  0  3  0  0  0  0  0  0
  188.0080  178.6220  142.1690 C   0  0  0  0  0  3  0  0  0  0  0  0
  187.3690  175.7760  135.3380 C   0  0  0  0  0  3  0  0  0  0  0  0
  185.7980  178.0460  138.6670 C   0  0  0  0  0  0  0  0  0  0  0  0
  185.5550  177.1330  136.3120 C   0  0  0  0  0  2  0  0  0  0  0  0
  189.3680  179.1190  137.2270 C   0  0  0  0  0  1  0  0  0  0  0  0
  185.9810  178.7990  140.9310 N   0  0  0  0  0  0  0  0  0  0  0  0
  185.2150  178.6280  139.8180 C   0  0  0  0  0  0  0  0  0  0  0  0
  189.3510  178.2410  142.2410 C   0  0  0  0  0  0  0  0  0  0  0  0
  187.9110  177.8670  139.8570 C   0  0  0  0  0  0  0  0  0  0  0  0
  184.9910  177.6900  137.5340 N   0  0  0  0  0  2  0  0  0  0  0  0
  182.0160  180.5200  139.0930 C   0  0  0  0  0  0  0  0  0  0  0  0
  181.0960  179.8560  139.9090 C   0  0  0  0  0  3  0  0  0  0  0  0
  183.7910  179.0520  139.8800 C   0  0  0  0  0  0  0  0  0  0  0  0
  181.5160  178.7900  140.7070 C   0  0  0  0  0  3  0  0  0  0  0  0
  183.3530  180.1170  139.0750 C   0  0  0  0  0  3  0  0  0  0  0  0
  182.8540  178.3880  140.6890 C   0  0  0  0  0  3  0  0  0  0  0  0
  181.4910  181.8530  138.0880 Cl  0  0  0  0  0  0  0  0  0  0  0  0
  190.1100  178.4210  143.5080 C   0  0  0  0  0  2  0  0  0  0  0  0
  189.2480  178.0220  144.6940 C   0  0  0  0  0  2  0  0  0  0  0  0
  189.4340  176.7530  146.8490 C   0  0  0  0  0  2  0  0  0  0  0  0
  190.3920  177.4590  147.6000 O   0  0  0  0  0  0  0  0  0  0  0  0
  191.8820  176.0700  146.3340 O   0  0  0  0  0  0  0  0  0  0  0  0
  191.3350  176.8170  145.2760 C   0  0  0  0  0  2  0  0  0  0  0  0
  189.8130  176.7850  145.3670 C   0  0  0  0  0  3  0  0  0  0  0  0
  191.6230  176.7470  147.5580 C   0  0  0  0  0  2  0  0  0  0  0  0
  1 11  1  6  0  0  0
  1  8  1  0  0  0  0
  2 14  1  1  0  0  0
  2  8  1  0  0  0  0
  3 18  1  0  0  0  0
  4 10  1  0  0  0  0
  5 11  2  0  0  0  0
  5  6  1  0  0  0  0
  6  2  1  0  0  0  0
  7  9  2  0  0  0  0
  8  3  1  1  0  0  0
  9 17  1  0  0  0  0
 10 17  2  0  0  0  0
 12  3  2  0  0  0  0
 12 16  1  0  0  0  0
 13  1  1  0  0  0  0
 13 19  1  0  0  0  0
 15  4  1  0  0  0  0
 16 22  1  0  0  0  0
 16 15  2  0  0  0  0
 17 27  1  0  0  0  0
 18  7  1  0  0  0  0
 18  4  2  0  0  0  0
 19 12  1  0  0  0  0
 20 21  1  0  0  0  0
 21 23  2  0  0  0  0
 22 25  2  0  0  0  0
 24 20  2  0  0  0  0
 24 22  1  0  0  0  0
 25 23  1  0  0  0  0
 26 20  1  0  0  0  0
 27 28  1  0  0  0  0
 28 33  1  0  0  0  0
 29 30  1  0  0  0  0
 31 34  1  0  0  0  0
 32 33  1  0  0  0  0
 32 31  1  0  0  0  0
 33 29  1  0  0  0  0
 34 30  1  0  0  0  0
M  END
>  <MODEL>
5

>  <REMARK>
 VINA RESULT:      -8.4      3.805      7.666
  Name = 
  4 active torsions:
  status: ('A' for Active; 'I' for Inactive)
    1  A    between atoms: C_3  and  C_13
    2  A    between atoms: C_3  and  C_29
    3  A    between atoms: C_12  and  C_28
    4  A    between atoms: C_13  and  C_33
                            x       y       z     vdW  Elec       q    Type
                         _______ _______ _______ _____ _____    ______ ____

>  <TORSDO>
F 4

$$$$
=
 OpenBabel11052414183D

 34 39  0  0  1  0  0  0  0  0999 V2000
  187.8290  176.7480  146.5170 C   0  0  2  0  0  3  0  0  0  0  0  0
  187.1120  179.1160  146.9500 C   0  0  1  0  0  3  0  0  0  0  0  0
  186.4580  177.9390  144.7750 C   0  0  0  0  0  0  0  0  0  0  0  0
  184.9700  178.3880  142.9100 C   0  0  0  0  0  0  0  0  0  0  0  0
  187.9310  177.6480  148.8470 C   0  0  0  0  0  3  0  0  0  0  0  0
  187.1910  178.9040  148.4610 C   0  0  0  0  0  2  0  0  0  0  0  0
  184.0660  178.3420  145.1620 C   0  0  0  0  0  3  0  0  0  0  0  0
  186.7220  177.7910  146.2620 C   0  0  1  0  0  3  0  0  0  0  0  0
  182.7960  178.6280  144.6580 C   0  0  0  0  0  3  0  0  0  0  0  0
  183.6970  178.6760  142.4100 C   0  0  0  0  0  3  0  0  0  0  0  0
  188.1760  176.6540  147.9790 C   0  0  0  0  0  3  0  0  0  0  0  0
  187.5140  177.7700  143.8540 C   0  0  0  0  0  0  0  0  0  0  0  0
  189.0870  177.1280  145.7390 C   0  0  0  0  0  2  0  0  0  0  0  0
  186.1230  180.2350  146.6750 C   0  0  0  0  0  1  0  0  0  0  0  0
  186.0130  178.2550  142.0540 N   0  0  0  0  0  0  0  0  0  0  0  0
  187.2740  177.9550  142.4710 C   0  0  0  0  0  0  0  0  0  0  0  0
  182.6110  178.8030  143.2820 C   0  0  0  0  0  0  0  0  0  0  0  0
  185.1660  178.2270  144.2970 C   0  0  0  0  0  0  0  0  0  0  0  0
  188.7820  177.2870  144.3230 N   0  0  0  0  0  2  0  0  0  0  0  0
  189.1290  178.3000  139.1880 C   0  0  0  0  0  0  0  0  0  0  0  0
  190.3360  177.6550  139.4690 C   0  0  0  0  0  3  0  0  0  0  0  0
  188.3360  177.8210  141.4390 C   0  0  0  0  0  0  0  0  0  0  0  0
  190.5510  177.0990  140.7310 C   0  0  0  0  0  3  0  0  0  0  0  0
  188.1380  178.3860  140.1690 C   0  0  0  0  0  3  0  0  0  0  0  0
  189.5590  177.1850  141.7120 C   0  0  0  0  0  3  0  0  0  0  0  0
  188.8600  179.0030  137.6080 Cl  0  0  0  0  0  0  0  0  0  0  0  0
  181.2530  179.0900  142.7450 C   0  0  0  0  0  2  0  0  0  0  0  0
  180.9740  178.2130  141.5360 C   0  0  0  0  0  2  0  0  0  0  0  0
  180.7970  178.9930  139.1590 C   0  0  0  0  0  2  0  0  0  0  0  0
  181.6520  180.1080  139.0830 O   0  0  0  0  0  0  0  0  0  0  0  0
  179.6830  181.2200  139.8840 O   0  0  0  0  0  0  0  0  0  0  0  0
  179.9310  180.3960  140.9950 C   0  0  0  0  0  2  0  0  0  0  0  0
  180.1160  178.9570  140.5280 C   0  0  0  0  0  3  0  0  0  0  0  0
  180.8630  181.2930  139.0910 C   0  0  0  0  0  2  0  0  0  0  0  0
  1 13  1  6  0  0  0
  1 11  1  0  0  0  0
  2 14  1  1  0  0  0
  2  6  1  0  0  0  0
  4 18  1  0  0  0  0
  6  5  1  0  0  0  0
  8  3  1  6  0  0  0
  8  1  1  0  0  0  0
  8  2  1  0  0  0  0
  9  7  1  0  0  0  0
 10  4  2  0  0  0  0
 10 17  1  0  0  0  0
 11  5  2  0  0  0  0
 12 19  1  0  0  0  0
 12  3  2  0  0  0  0
 15 16  2  0  0  0  0
 15  4  1  0  0  0  0
 16 12  1  0  0  0  0
 17  9  2  0  0  0  0
 18  3  1  0  0  0  0
 18  7  2  0  0  0  0
 19 13  1  0  0  0  0
 20 21  2  0  0  0  0
 20 24  1  0  0  0  0
 21 23  1  0  0  0  0
 22 25  1  0  0  0  0
 22 16  1  0  0  0  0
 23 25  2  0  0  0  0
 24 22  2  0  0  0  0
 26 20  1  0  0  0  0
 27 17  1  0  0  0  0
 28 27  1  0  0  0  0
 29 33  1  0  0  0  0
 30 34  1  0  0  0  0
 30 29  1  0  0  0  0
 31 32  1  0  0  0  0
 33 32  1  0  0  0  0
 33 28  1  0  0  0  0
 34 31  1  0  0  0  0
M  END
>  <MODEL>
6

>  <REMARK>
 VINA RESULT:      -8.2      2.128      3.554
  Name = 
  4 active torsions:
  status: ('A' for Active; 'I' for Inactive)
    1  A    between atoms: C_3  and  C_13
    2  A    between atoms: C_3  and  C_29
    3  A    between atoms: C_12  and  C_28
    4  A    between atoms: C_13  and  C_33
                            x       y       z     vdW  Elec       q    Type
                         _______ _______ _______ _____ _____    ______ ____

>  <TORSDO>
F 4

$$$$
=
 OpenBabel11052414183D

 34 39  0  0  1  0  0  0  0  0999 V2000
  188.4560  178.9380  138.4990 C   0  0  2  0  0  3  0  0  0  0  0  0
  187.2180  176.9250  137.6470 C   0  0  1  0  0  3  0  0  0  0  0  0
  186.2620  178.3200  139.5650 C   0  0  0  0  0  0  0  0  0  0  0  0
  184.1580  178.4450  140.7710 C   0  0  0  0  0  0  0  0  0  0  0  0
  189.0680  177.9800  136.2720 C   0  0  0  0  0  3  0  0  0  0  0  0
  187.8810  177.0510  136.2760 C   0  0  0  0  0  2  0  0  0  0  0  0
  184.1590  178.7140  138.3600 C   0  0  0  0  0  3  0  0  0  0  0  0
  187.0580  178.3260  138.2740 C   0  0  1  0  0  3  0  0  0  0  0  0
  182.7720  178.8780  138.3780 C   0  0  0  0  0  3  0  0  0  0  0  0
  182.7700  178.6080  140.7850 C   0  0  0  0  0  3  0  0  0  0  0  0
  189.2990  178.8660  137.2540 C   0  0  0  0  0  3  0  0  0  0  0  0
  186.9270  178.1620  140.8000 C   0  0  0  0  0  0  0  0  0  0  0  0
  189.1740  178.1900  139.6210 C   0  0  0  0  0  2  0  0  0  0  0  0
  185.8950  176.2020  137.4740 C   0  0  0  0  0  1  0  0  0  0  0  0
  184.8230  178.2560  141.9380 N   0  0  0  0  0  0  0  0  0  0  0  0
  186.1760  178.1110  141.9990 C   0  0  0  0  0  0  0  0  0  0  0  0
  182.0750  178.8170  139.5890 C   0  0  0  0  0  0  0  0  0  0  0  0
  184.8650  178.4880  139.5520 C   0  0  0  0  0  0  0  0  0  0  0  0
  188.3620  178.1860  140.8310 N   0  0  0  0  0  2  0  0  0  0  0  0
  186.6410  178.1270  145.7570 C   0  0  0  0  0  0  0  0  0  0  0  0
  187.8950  177.5270  145.8960 C   0  0  0  0  0  3  0  0  0  0  0  0
  186.7970  177.9210  143.3370 C   0  0  0  0  0  0  0  0  0  0  0  0
  188.6000  177.1170  144.7640 C   0  0  0  0  0  3  0  0  0  0  0  0
  186.0940  178.3180  144.4860 C   0  0  0  0  0  3  0  0  0  0  0  0
  188.0520  177.3080  143.4920 C   0  0  0  0  0  3  0  0  0  0  0  0
  185.7530  178.6370  147.1770 Cl  0  0  0  0  0  0  0  0  0  0  0  0
  180.6000  179.0100  139.6100 C   0  0  0  0  0  2  0  0  0  0  0  0
  180.2500  180.2880  140.3540 C   0  0  0  0  0  2  0  0  0  0  0  0
  179.9950  180.5030  142.8400 C   0  0  0  0  0  2  0  0  0  0  0  0
  180.8580  179.5280  143.3740 O   0  0  0  0  0  0  0  0  0  0  0  0
  178.9330  178.1440  143.0200 O   0  0  0  0  0  0  0  0  0  0  0  0
  179.2120  178.4690  141.6810 C   0  0  0  0  0  2  0  0  0  0  0  0
  179.3640  179.9800  141.5480 C   0  0  0  0  0  3  0  0  0  0  0  0
  180.0830  178.4180  143.8110 C   0  0  0  0  0  2  0  0  0  0  0  0
  1 11  1  6  0  0  0
  1 13  1  0  0  0  0
  2 14  1  6  0  0  0
  2  8  1  0  0  0  0
  3 12  1  0  0  0  0
  4 10  1  0  0  0  0
  4 15  2  0  0  0  0
  5  6  1  0  0  0  0
  5 11  2  0  0  0  0
  6  2  1  0  0  0  0
  7  9  2  0  0  0  0
  7 18  1  0  0  0  0
  8  1  1  0  0  0  0
  8  3  1  1  0  0  0
  9 17  1  0  0  0  0
 12 19  1  0  0  0  0
 12 16  2  0  0  0  0
 13 19  1  0  0  0  0
 15 16  1  0  0  0  0
 16 22  1  0  0  0  0
 17 27  1  0  0  0  0
 17 10  2  0  0  0  0
 18  3  2  0  0  0  0
 18  4  1  0  0  0  0
 20 21  1  0  0  0  0
 20 26  1  0  0  0  0
 22 25  2  0  0  0  0
 22 24  1  0  0  0  0
 23 21  2  0  0  0  0
 24 20  2  0  0  0  0
 25 23  1  0  0  0  0
 27 28  1  0  0  0  0
 28 33  1  0  0  0  0
 29 30  1  0  0  0  0
 30 34  1  0  0  0  0
 31 34  1  0  0  0  0
 32 31  1  0  0  0  0
 33 32  1  0  0  0  0
 33 29  1  0  0  0  0
M  END
>  <MODEL>
7

>  <REMARK>
 VINA RESULT:      -8.2      2.691      5.961
  Name = 
  4 active torsions:
  status: ('A' for Active; 'I' for Inactive)
    1  A    between atoms: C_3  and  C_13
    2  A    between atoms: C_3  and  C_29
    3  A    between atoms: C_12  and  C_28
    4  A    between atoms: C_13  and  C_33
                            x       y       z     vdW  Elec       q    Type
                         _______ _______ _______ _____ _____    ______ ____

>  <TORSDO>
F 4

$$$$
=
 OpenBabel11052414183D

 34 39  0  0  1  0  0  0  0  0999 V2000
  181.8170  177.7140  140.5390 C   0  0  2  0  0  3  0  0  0  0  0  0
  182.3920  179.8950  139.4340 C   0  0  1  0  0  3  0  0  0  0  0  0
  184.2300  178.4200  140.4280 C   0  0  0  0  0  0  0  0  0  0  0  0
  186.6570  178.3700  140.3930 C   0  0  0  0  0  0  0  0  0  0  0  0
  180.1320  178.8110  139.0530 C   0  0  0  0  0  3  0  0  0  0  0  0
  181.1290  179.8360  138.5750 C   0  0  0  0  0  2  0  0  0  0  0  0
  185.4400  178.3210  138.2940 C   0  0  0  0  0  3  0  0  0  0  0  0
  182.8880  178.4620  139.7200 C   0  0  1  0  0  3  0  0  0  0  0  0
  186.6480  178.2770  137.5950 C   0  0  0  0  0  3  0  0  0  0  0  0
  187.8630  178.3280  139.6890 C   0  0  0  0  0  3  0  0  0  0  0  0
  180.4560  177.8230  139.9030 C   0  0  0  0  0  3  0  0  0  0  0  0
  184.2790  178.4080  141.8390 C   0  0  0  0  0  0  0  0  0  0  0  0
  181.7470  178.2920  141.9510 C   0  0  0  0  0  2  0  0  0  0  0  0
  183.4220  180.7420  138.7100 C   0  0  0  0  0  1  0  0  0  0  0  0
  186.6700  178.3950  141.7480 N   0  0  0  0  0  0  0  0  0  0  0  0
  185.5320  178.4160  142.4960 C   0  0  0  0  0  0  0  0  0  0  0  0
  187.8620  178.2880  138.2910 C   0  0  0  0  0  0  0  0  0  0  0  0
  185.4300  178.3760  139.6970 C   0  0  0  0  0  0  0  0  0  0  0  0
  183.0600  178.2570  142.5810 N   0  0  0  0  0  2  0  0  0  0  0  0
  186.9940  177.9120  145.9530 C   0  0  0  0  0  0  0  0  0  0  0  0
  186.0170  178.4880  146.7670 C   0  0  0  0  0  3  0  0  0  0  0  0
  185.6710  178.4310  143.9770 C   0  0  0  0  0  0  0  0  0  0  0  0
  184.8710  179.0420  146.1940 C   0  0  0  0  0  3  0  0  0  0  0  0
  186.8240  177.8880  144.5670 C   0  0  0  0  0  3  0  0  0  0  0  0
  184.7010  179.0170  144.8070 C   0  0  0  0  0  3  0  0  0  0  0  0
  188.4350  177.2230  146.6700 Cl  0  0  0  0  0  0  0  0  0  0  0  0
  189.1480  178.2230  137.5460 C   0  0  0  0  0  2  0  0  0  0  0  0
  189.2850  176.8750  136.8590 C   0  0  0  0  0  2  0  0  0  0  0  0
  191.1420  176.4750  138.4960 C   0  0  0  0  0  2  0  0  0  0  0  0
  192.2890  176.2960  137.7010 O   0  0  0  0  0  0  0  0  0  0  0  0
  191.4700  174.0420  137.6600 O   0  0  0  0  0  0  0  0  0  0  0  0
  190.4090  174.6690  136.9830 C   0  0  0  0  0  2  0  0  0  0  0  0
  189.9270  175.8660  137.7940 C   0  0  0  0  0  3  0  0  0  0  0  0
  192.5990  174.9080  137.6490 C   0  0  0  0  0  2  0  0  0  0  0  0
  1 11  1  6  0  0  0
  1 13  1  0  0  0  0
  2 14  1  6  0  0  0
  2  8  1  0  0  0  0
  3 12  1  0  0  0  0
  4 15  2  0  0  0  0
  5 11  2  0  0  0  0
  6  5  1  0  0  0  0
  6  2  1  0  0  0  0
  7 18  1  0  0  0  0
  8  3  1  1  0  0  0
  8  1  1  0  0  0  0
  9 17  1  0  0  0  0
  9  7  2  0  0  0  0
 10  4  1  0  0  0  0
 12 16  2  0  0  0  0
 12 19  1  0  0  0  0
 13 19  1  0  0  0  0
 15 16  1  0  0  0  0
 16 22  1  0  0  0  0
 17 10  2  0  0  0  0
 18  4  1  0  0  0  0
 18  3  2  0  0  0  0
 20 26  1  0  0  0  0
 20 21  1  0  0  0  0
 22 24  1  0  0  0  0
 22 25  2  0  0  0  0
 23 21  2  0  0  0  0
 24 20  2  0  0  0  0
 25 23  1  0  0  0  0
 27 17  1  0  0  0  0
 28 27  1  0  0  0  0
 28 33  1  0  0  0  0
 30 29  1  0  0  0  0
 32 31  1  0  0  0  0
 32 33  1  0  0  0  0
 33 29  1  0  0  0  0
 34 31  1  0  0  0  0
 34 30  1  0  0  0  0
M  END
>  <MODEL>
8

>  <REMARK>
 VINA RESULT:      -8.1      4.562      9.282
  Name = 
  4 active torsions:
  status: ('A' for Active; 'I' for Inactive)
    1  A    between atoms: C_3  and  C_13
    2  A    between atoms: C_3  and  C_29
    3  A    between atoms: C_12  and  C_28
    4  A    between atoms: C_13  and  C_33
                            x       y       z     vdW  Elec       q    Type
                         _______ _______ _______ _____ _____    ______ ____

>  <TORSDO>
F 4

$$$$
=
 OpenBabel11052414183D

 34 39  0  0  1  0  0  0  0  0999 V2000
  190.7230  176.9430  137.2530 C   0  0  2  0  0  3  0  0  0  0  0  0
  188.8790  175.2400  137.1570 C   0  0  1  0  0  3  0  0  0  0  0  0
  188.7210  177.2360  138.7490 C   0  0  0  0  0  0  0  0  0  0  0  0
  187.0150  178.2240  140.1660 C   0  0  0  0  0  0  0  0  0  0  0  0
  190.5980  175.3880  135.2990 C   0  0  0  0  0  3  0  0  0  0  0  0
  189.2480  174.8670  135.7210 C   0  0  0  0  0  2  0  0  0  0  0  0
  186.5730  177.9500  137.7950 C   0  0  0  0  0  3  0  0  0  0  0  0
  189.2030  176.7290  137.4020 C   0  0  1  0  0  3  0  0  0  0  0  0
  185.3040  178.5080  137.9680 C   0  0  0  0  0  3  0  0  0  0  0  0
  185.7440  178.7820  140.3330 C   0  0  0  0  0  3  0  0  0  0  0  0
  191.2410  176.3600  135.9650 C   0  0  0  0  0  3  0  0  0  0  0  0
  189.5720  177.1640  139.8720 C   0  0  0  0  0  0  0  0  0  0  0  0
  191.4560  176.2820  138.4190 C   0  0  0  0  0  2  0  0  0  0  0  0
  187.4130  174.9120  137.3740 C   0  0  0  0  0  1  0  0  0  0  0  0
  187.8440  178.1090  141.2320 N   0  0  0  0  0  0  0  0  0  0  0  0
  189.1020  177.5960  141.1360 C   0  0  0  0  0  0  0  0  0  0  0  0
  184.8860  178.9180  139.2380 C   0  0  0  0  0  0  0  0  0  0  0  0
  187.4370  177.7940  138.8910 C   0  0  0  0  0  0  0  0  0  0  0  0
  190.9420  176.7780  139.6890 N   0  0  0  0  0  2  0  0  0  0  0  0
  191.3320  176.2310  143.8760 C   0  0  0  0  0  0  0  0  0  0  0  0
  191.5430  177.3620  144.6670 C   0  0  0  0  0  3  0  0  0  0  0  0
  189.9250  177.5300  142.3730 C   0  0  0  0  0  0  0  0  0  0  0  0
  190.9550  178.5780  144.3140 C   0  0  0  0  0  3  0  0  0  0  0  0
  190.5320  176.3160  142.7340 C   0  0  0  0  0  3  0  0  0  0  0  0
  190.1550  178.6620  143.1710 C   0  0  0  0  0  3  0  0  0  0  0  0
  192.0730  174.7070  144.3130 Cl  0  0  0  0  0  0  0  0  0  0  0  0
  183.5410  179.5290  139.4170 C   0  0  0  0  0  2  0  0  0  0  0  0
  182.4660  178.5900  138.8960 C   0  0  0  0  0  2  0  0  0  0  0  0
  182.4730  176.1800  139.5900 C   0  0  0  0  0  2  0  0  0  0  0  0
  181.4590  175.5820  138.8180 O   0  0  0  0  0  0  0  0  0  0  0  0
  180.1050  176.3850  140.6270 O   0  0  0  0  0  0  0  0  0  0  0  0
  180.5410  177.6220  140.1210 C   0  0  0  0  0  2  0  0  0  0  0  0
  182.0580  177.6020  139.9740 C   0  0  0  0  0  3  0  0  0  0  0  0
  180.3140  175.3830  139.6400 C   0  0  0  0  0  2  0  0  0  0  0  0
  1 11  1  6  0  0  0
  1  8  1  0  0  0  0
  1 13  1  0  0  0  0
  2 14  1  6  0  0  0
  2  8  1  0  0  0  0
  3 18  2  0  0  0  0
  3 12  1  0  0  0  0
  4 10  1  0  0  0  0
  4 15  2  0  0  0  0
  5  6  1  0  0  0  0
  5 11  2  0  0  0  0
  6  2  1  0  0  0  0
  7  9  2  0  0  0  0
  7 18  1  0  0  0  0
  8  3  1  1  0  0  0
  9 17  1  0  0  0  0
 12 16  2  0  0  0  0
 13 19  1  0  0  0  0
 16 15  1  0  0  0  0
 16 22  1  0  0  0  0
 17 27  1  0  0  0  0
 17 10  2  0  0  0  0
 18  4  1  0  0  0  0
 19 12  1  0  0  0  0
 20 26  1  0  0  0  0
 20 21  1  0  0  0  0
 22 24  1  0  0  0  0
 22 25  2  0  0  0  0
 23 21  2  0  0  0  0
 24 20  2  0  0  0  0
 25 23  1  0  0  0  0
 28 27  1  0  0  0  0
 28 33  1  0  0  0  0
 29 33  1  0  0  0  0
 30 29  1  0  0  0  0
 30 34  1  0  0  0  0
 32 31  1  0  0  0  0
 33 32  1  0  0  0  0
 34 31  1  0  0  0  0
M  END
>  <MODEL>
9

>  <REMARK>
 VINA RESULT:      -7.9      3.220      6.050
  Name = 
  4 active torsions:
  status: ('A' for Active; 'I' for Inactive)
    1  A    between atoms: C_3  and  C_13
    2  A    between atoms: C_3  and  C_29
    3  A    between atoms: C_12  and  C_28
    4  A    between atoms: C_13  and  C_33
                            x       y       z     vdW  Elec       q    Type
                         _______ _______ _______ _____ _____    ______ ____

>  <TORSDO>
F 4

$$$$
