=
 OpenBabel11052416573D

 32 37  0  0  1  0  0  0  0  0999 V2000
  179.3670  179.2990  139.6390 C   0  0  2  0  0  3  0  0  0  0  0  0
  180.6790  179.3120  143.1630 C   0  0  0  0  0  3  0  0  0  0  0  0
  185.8370  178.1370  143.3210 C   0  0  0  0  0  0  0  0  0  0  0  0
  186.6360  178.3740  148.2080 C   0  0  0  0  0  3  0  0  0  0  0  0
  187.9050  178.0590  147.9520 C   0  0  0  0  0  3  0  0  0  0  0  0
  183.6490  178.5550  142.3310 C   0  0  0  0  0  0  0  0  0  0  0  0
  183.9610  178.6930  144.7360 C   0  0  0  0  0  3  0  0  0  0  0  0
  179.3470  179.4360  141.0830 N   0  0  0  0  0  2  0  0  0  0  0  0
  181.7300  179.1390  143.9560 C   0  0  0  0  0  3  0  0  0  0  0  0
  185.6150  178.5170  147.1140 C   0  0  0  0  0  3  0  0  0  0  0  0
  185.3160  178.3690  144.6050 C   0  0  0  0  0  0  0  0  0  0  0  0
  186.1660  178.2700  145.7210 C   0  0  2  0  0  3  0  0  0  0  0  0
  188.0010  177.7170  144.2140 C   0  0  0  0  0  0  0  0  0  0  0  0
  181.0730  178.8750  139.1530 S   0  0  0  0  0  0  0  0  0  0  0  0
  181.5780  178.9060  140.8680 C   0  0  0  0  0  0  0  0  0  0  0  0
  178.9870  180.5580  139.0260 N   0  0  0  0  0  1  0  0  0  0  0  0
  183.1160  178.7910  143.6240 C   0  0  0  0  0  0  0  0  0  0  0  0
  182.9820  178.6090  141.1780 C   0  0  0  0  0  3  0  0  0  0  0  0
  180.5980  179.2030  141.7070 C   0  0  0  0  0  0  0  0  0  0  0  0
  188.3600  177.8360  146.5730 C   0  0  0  0  0  3  0  0  0  0  0  0
  187.5290  177.9390  145.5250 C   0  0  0  0  0  0  0  0  0  0  0  0
  185.0060  178.2320  142.2070 C   0  0  0  0  0  3  0  0  0  0  0  0
  187.1470  177.8210  143.1610 N   0  0  0  0  0  0  0  0  0  0  0  0
  191.6040  178.5490  143.8920 C   0  0  0  0  0  0  0  0  0  0  0  0
  192.0530  177.5770  142.8430 C   0  0  0  0  0  2  0  0  0  0  0  0
  189.6360  176.8820  142.4960 C   0  0  1  0  0  3  0  0  0  0  0  0
  191.3290  176.5770  140.7960 F   0  0  0  0  0  0  0  0  0  0  0  0
  190.9260  177.4030  141.8300 C   0  0  2  0  0  3  0  0  0  0  0  0
  190.3620  178.4690  144.3830 C   0  0  0  0  0  3  0  0  0  0  0  0
  192.4170  179.5700  144.2660 F   0  0  0  0  0  0  0  0  0  0  0  0
  189.5990  175.4860  142.4670 O   0  0  0  0  0  1  0  0  0  0  0  0
  189.4360  177.3590  143.9510 C   0  0  1  0  0  3  0  0  0  0  0  0
  1 16  1  6  0  0  0
  1  8  1  0  0  0  0
  2  9  1  0  0  0  0
  3 11  1  0  0  0  0
  5  4  1  0  0  0  0
  6 17  1  0  0  0  0
  8 19  1  0  0  0  0
 10  4  2  0  0  0  0
 11  7  2  0  0  0  0
 11 12  1  0  0  0  0
 12 10  1  1  0  0  0
 13 21  2  0  0  0  0
 14  1  1  0  0  0  0
 14 15  1  0  0  0  0
 15 18  2  0  0  0  0
 15 19  1  0  0  0  0
 17  9  2  0  0  0  0
 17  7  1  0  0  0  0
 18  6  1  0  0  0  0
 19  2  2  0  0  0  0
 20  5  2  0  0  0  0
 21 12  1  0  0  0  0
 21 20  1  0  0  0  0
 22  6  2  0  0  0  0
 22  3  1  0  0  0  0
 23  3  2  0  0  0  0
 23 13  1  0  0  0  0
 24 30  1  0  0  0  0
 24 29  2  0  0  0  0
 25 24  1  0  0  0  0
 26 31  1  1  0  0  0
 26 32  1  0  0  0  0
 28 27  1  6  0  0  0
 28 26  1  0  0  0  0
 28 25  1  0  0  0  0
 32 13  1  6  0  0  0
 32 29  1  0  0  0  0
M  END
>  <MODEL>
1

>  <REMARK>
 VINA RESULT:     -12.1      0.000      0.000
  Name = 
  1 active torsions:
  status: ('A' for Active; 'I' for Inactive)
    1  A    between atoms: C_16  and  C_32
                            x       y       z     vdW  Elec       q    Type
                         _______ _______ _______ _____ _____    ______ ____

>  <TORSDO>
F 1

$$$$
=
 OpenBabel11052416573D

 32 37  0  0  1  0  0  0  0  0999 V2000
  191.8150  176.7790  147.3090 C   0  0  2  0  0  3  0  0  0  0  0  0
  188.1940  177.7370  147.6270 C   0  0  0  0  0  3  0  0  0  0  0  0
  185.8120  177.9260  142.9040 C   0  0  0  0  0  0  0  0  0  0  0  0
  181.2360  179.2410  144.2860 C   0  0  0  0  0  3  0  0  0  0  0  0
  180.9050  179.2110  142.9970 C   0  0  0  0  0  3  0  0  0  0  0  0
  187.6200  177.6030  144.5050 C   0  0  0  0  0  0  0  0  0  0  0  0
  185.4030  178.2450  145.2620 C   0  0  0  0  0  3  0  0  0  0  0  0
  190.5740  177.1520  147.9580 N   0  0  0  0  0  2  0  0  0  0  0  0
  187.0500  177.9760  146.9960 C   0  0  0  0  0  3  0  0  0  0  0  0
  182.6270  178.9200  144.7600 C   0  0  0  0  0  3  0  0  0  0  0  0
  184.9280  178.2500  143.9470 C   0  0  0  0  0  0  0  0  0  0  0  0
  183.5910  178.5690  143.6420 C   0  0  0  0  0  0  0  0  0  0  0  0
  184.0970  178.2230  141.2820 C   0  0  0  0  0  0  0  0  0  0  0  0
  191.4910  176.6890  145.5170 S   0  0  0  0  0  0  0  0  0  0  0  0
  189.7870  177.1570  145.7930 C   0  0  0  0  0  0  0  0  0  0  0  0
  192.2430  175.4780  147.7900 N   0  0  0  0  0  1  0  0  0  0  0  0
  186.7340  177.9280  145.5630 C   0  0  0  0  0  0  0  0  0  0  0  0
  188.9090  177.2800  144.6240 C   0  0  0  0  0  3  0  0  0  0  0  0
  189.4890  177.3520  147.0680 C   0  0  0  0  0  0  0  0  0  0  0  0
  181.9000  178.8580  141.9750 C   0  0  0  0  0  3  0  0  0  0  0  0
  183.1690  178.5560  142.2920 C   0  0  0  0  0  0  0  0  0  0  0  0
  187.1380  177.6090  143.1910 C   0  0  0  0  0  3  0  0  0  0  0  0
  185.3800  177.9220  141.6180 N   0  0  0  0  0  2  0  0  0  0  0  0
  182.9490  176.4970  138.2040 C   0  0  0  0  0  0  0  0  0  0  0  0
  183.6230  177.2970  137.1310 C   0  0  0  0  0  2  0  0  0  0  0  0
  184.8900  178.5740  138.9230 C   0  0  1  0  0  3  0  0  0  0  0  0
  185.6890  178.3980  136.6470 F   0  0  0  0  0  0  0  0  0  0  0  0
  184.9960  177.7270  137.6380 C   0  0  2  0  0  3  0  0  0  0  0  0
  183.0190  176.9020  139.4770 C   0  0  0  0  0  3  0  0  0  0  0  0
  182.3590  175.3130  137.9000 F   0  0  0  0  0  0  0  0  0  0  0  0
  184.8100  179.9320  138.6090 O   0  0  0  0  0  1  0  0  0  0  0  0
  183.7020  178.1990  139.8340 C   0  0  1  0  0  3  0  0  0  0  0  0
  1 16  1  1  0  0  0
  1  8  1  0  0  0  0
  3 22  2  0  0  0  0
  3 11  1  0  0  0  0
  4 10  2  0  0  0  0
  5  4  1  0  0  0  0
  6 18  2  0  0  0  0
  6 17  1  0  0  0  0
  7 17  2  0  0  0  0
  9  2  2  0  0  0  0
 11  7  1  0  0  0  0
 12 11  2  0  0  0  0
 12 10  1  0  0  0  0
 13 23  1  0  0  0  0
 13 21  2  0  0  0  0
 14 15  1  0  0  0  0
 14  1  1  0  0  0  0
 15 19  2  0  0  0  0
 17  9  1  0  0  0  0
 18 15  1  0  0  0  0
 19  2  1  0  0  0  0
 19  8  1  0  0  0  0
 20 21  1  0  0  0  0
 20  5  2  0  0  0  0
 21 12  1  0  0  0  0
 22  6  1  0  0  0  0
 23  3  1  0  0  0  0
 24 29  2  0  0  0  0
 25 28  1  0  0  0  0
 25 24  1  0  0  0  0
 26 31  1  6  0  0  0
 26 32  1  0  0  0  0
 28 27  1  6  0  0  0
 28 26  1  0  0  0  0
 29 32  1  0  0  0  0
 30 24  1  0  0  0  0
 32 13  1  1  0  0  0
M  END
>  <MODEL>
2

>  <REMARK>
 VINA RESULT:     -11.7      4.123      8.344
  Name = 
  1 active torsions:
  status: ('A' for Active; 'I' for Inactive)
    1  A    between atoms: C_16  and  C_32
                            x       y       z     vdW  Elec       q    Type
                         _______ _______ _______ _____ _____    ______ ____

>  <TORSDO>
F 1

$$$$
=
 OpenBabel11052416573D

 32 37  0  0  1  0  0  0  0  0999 V2000
  191.5880  176.8550  146.9040 C   0  0  2  0  0  3  0  0  0  0  0  0
  187.9160  177.5850  147.2430 C   0  0  0  0  0  3  0  0  0  0  0  0
  185.6000  178.1390  142.5160 C   0  0  0  0  0  0  0  0  0  0  0  0
  180.9390  179.0630  143.9310 C   0  0  0  0  0  3  0  0  0  0  0  0
  180.6300  179.1490  142.6380 C   0  0  0  0  0  3  0  0  0  0  0  0
  187.3980  177.7460  144.1130 C   0  0  0  0  0  0  0  0  0  0  0  0
  185.1380  178.1900  144.8860 C   0  0  0  0  0  3  0  0  0  0  0  0
  190.3180  177.0940  147.5620 N   0  0  0  0  0  2  0  0  0  0  0  0
  186.7710  177.8280  146.6160 C   0  0  0  0  0  3  0  0  0  0  0  0
  182.3370  178.7670  144.3980 C   0  0  0  0  0  3  0  0  0  0  0  0
  184.6830  178.3060  143.5680 C   0  0  0  0  0  0  0  0  0  0  0  0
  183.3370  178.5840  143.2700 C   0  0  0  0  0  0  0  0  0  0  0  0
  183.8960  178.5120  140.8980 C   0  0  0  0  0  0  0  0  0  0  0  0
  191.2970  176.9340  145.1060 S   0  0  0  0  0  0  0  0  0  0  0  0
  189.5660  177.2820  145.3930 C   0  0  0  0  0  0  0  0  0  0  0  0
  192.0780  175.5350  147.2580 N   0  0  0  0  0  1  0  0  0  0  0  0
  186.4790  177.9130  145.1800 C   0  0  0  0  0  0  0  0  0  0  0  0
  188.7010  177.4800  144.2240 C   0  0  0  0  0  3  0  0  0  0  0  0
  189.2380  177.3280  146.6750 C   0  0  0  0  0  0  0  0  0  0  0  0
  181.6580  178.9570  141.6070 C   0  0  0  0  0  3  0  0  0  0  0  0
  182.9360  178.6900  141.9170 C   0  0  0  0  0  0  0  0  0  0  0  0
  186.9360  177.8630  142.7960 C   0  0  0  0  0  3  0  0  0  0  0  0
  185.1880  178.2450  141.2280 N   0  0  0  0  0  2  0  0  0  0  0  0
  182.0310  180.0310  138.0720 C   0  0  0  0  0  0  0  0  0  0  0  0
  181.8380  178.8560  137.1620 C   0  0  0  0  0  2  0  0  0  0  0  0
  182.8000  177.3440  138.9610 C   0  0  1  0  0  3  0  0  0  0  0  0
  181.3420  176.5180  137.2170 F   0  0  0  0  0  0  0  0  0  0  0  0
  181.6100  177.6140  138.0170 C   0  0  2  0  0  3  0  0  0  0  0  0
  182.7920  179.9060  139.1640 C   0  0  0  0  0  3  0  0  0  0  0  0
  181.3530  181.1850  137.8450 F   0  0  0  0  0  0  0  0  0  0  0  0
  183.7290  176.4990  138.3490 O   0  0  0  0  0  1  0  0  0  0  0  0
  183.5250  178.6180  139.4470 C   0  0  1  0  0  3  0  0  0  0  0  0
  1 16  1  6  0  0  0
  1  8  1  0  0  0  0
  3 22  2  0  0  0  0
  3 11  1  0  0  0  0
  4 10  2  0  0  0  0
  5  4  1  0  0  0  0
  6 18  2  0  0  0  0
  6 17  1  0  0  0  0
  7 17  2  0  0  0  0
  9  2  2  0  0  0  0
 11  7  1  0  0  0  0
 12 11  2  0  0  0  0
 12 10  1  0  0  0  0
 13 23  1  0  0  0  0
 13 21  2  0  0  0  0
 14 15  1  0  0  0  0
 14  1  1  0  0  0  0
 15 19  2  0  0  0  0
 17  9  1  0  0  0  0
 18 15  1  0  0  0  0
 19  2  1  0  0  0  0
 19  8  1  0  0  0  0
 20 21  1  0  0  0  0
 20  5  2  0  0  0  0
 21 12  1  0  0  0  0
 22  6  1  0  0  0  0
 23  3  1  0  0  0  0
 24 29  2  0  0  0  0
 25 28  1  0  0  0  0
 25 24  1  0  0  0  0
 26 31  1  6  0  0  0
 26 32  1  0  0  0  0
 28 27  1  6  0  0  0
 28 26  1  0  0  0  0
 29 32  1  0  0  0  0
 30 24  1  0  0  0  0
 32 13  1  1  0  0  0
M  END
>  <MODEL>
3

>  <REMARK>
 VINA RESULT:     -11.2      4.440      8.611
  Name = 
  1 active torsions:
  status: ('A' for Active; 'I' for Inactive)
    1  A    between atoms: C_16  and  C_32
                            x       y       z     vdW  Elec       q    Type
                         _______ _______ _______ _____ _____    ______ ____

>  <TORSDO>
F 1

$$$$
=
 OpenBabel11052416573D

 32 37  0  0  1  0  0  0  0  0999 V2000
  191.0050  177.4110  144.0850 C   0  0  2  0  0  3  0  0  0  0  0  0
  187.5100  177.6990  145.4400 C   0  0  0  0  0  3  0  0  0  0  0  0
  184.0100  178.6870  141.5940 C   0  0  0  0  0  0  0  0  0  0  0  0
  179.8320  178.9080  144.2520 C   0  0  0  0  0  3  0  0  0  0  0  0
  179.1910  179.1480  143.1100 C   0  0  0  0  0  3  0  0  0  0  0  0
  186.1840  178.2560  142.6070 C   0  0  0  0  0  0  0  0  0  0  0  0
  184.1810  178.3470  143.9780 C   0  0  0  0  0  3  0  0  0  0  0  0
  189.9390  177.4190  145.0680 N   0  0  0  0  0  2  0  0  0  0  0  0
  186.2280  177.9100  145.1660 C   0  0  0  0  0  3  0  0  0  0  0  0
  181.3190  178.6950  144.3020 C   0  0  0  0  0  3  0  0  0  0  0  0
  183.3920  178.6050  142.8530 C   0  0  0  0  0  0  0  0  0  0  0  0
  181.9990  178.7820  142.9480 C   0  0  0  0  0  0  0  0  0  0  0  0
  181.9240  179.1120  140.5340 C   0  0  0  0  0  0  0  0  0  0  0  0
  190.2500  177.7190  142.4540 S   0  0  0  0  0  0  0  0  0  0  0  0
  188.6360  177.8400  143.2150 C   0  0  0  0  0  0  0  0  0  0  0  0
  191.6530  176.1120  144.0820 N   0  0  0  0  0  1  0  0  0  0  0  0
  185.5670  178.1710  143.8810 C   0  0  0  0  0  0  0  0  0  0  0  0
  187.4850  178.1130  142.3470 C   0  0  0  0  0  3  0  0  0  0  0  0
  188.6520  177.6650  144.5270 C   0  0  0  0  0  0  0  0  0  0  0  0
  179.9250  179.2150  141.8380 C   0  0  0  0  0  2  0  0  0  0  0  0
  181.2530  179.0400  141.7730 C   0  0  0  0  0  0  0  0  0  0  0  0
  185.3880  178.5140  141.4850 C   0  0  0  0  0  3  0  0  0  0  0  0
  183.2710  178.9360  140.4840 N   0  0  0  0  0  0  0  0  0  0  0  0
  181.4530  178.8320  136.8630 C   0  0  0  0  0  0  0  0  0  0  0  0
  180.7920  180.1360  136.5360 C   0  0  0  0  0  2  0  0  0  0  0  0
  181.1750  180.8950  138.9280 C   0  0  1  0  0  3  0  0  0  0  0  0
  180.8610  182.4560  137.1080 F   0  0  0  0  0  0  0  0  0  0  0  0
  181.3830  181.2180  137.4340 C   0  0  2  0  0  3  0  0  0  0  0  0
  181.6690  178.5000  138.1400 C   0  0  0  0  0  3  0  0  0  0  0  0
  181.9250  178.0400  135.8670 F   0  0  0  0  0  0  0  0  0  0  0  0
  179.9820  181.4560  139.3890 O   0  0  0  0  0  1  0  0  0  0  0  0
  181.1810  179.3870  139.2580 C   0  0  1  0  0  3  0  0  0  0  0  0
  1 16  1  6  0  0  0
  1  8  1  0  0  0  0
  3 11  1  0  0  0  0
  4 10  1  0  0  0  0
  5  4  2  0  0  0  0
  6 17  1  0  0  0  0
  9  2  1  0  0  0  0
 11 12  1  0  0  0  0
 11  7  2  0  0  0  0
 12 10  2  0  0  0  0
 13 21  2  0  0  0  0
 14 15  1  0  0  0  0
 14  1  1  0  0  0  0
 15 19  1  0  0  0  0
 17  7  1  0  0  0  0
 17  9  2  0  0  0  0
 18  6  1  0  0  0  0
 18 15  2  0  0  0  0
 19  8  1  0  0  0  0
 19  2  2  0  0  0  0
 20  5  1  0  0  0  0
 21 20  1  0  0  0  0
 21 12  1  0  0  0  0
 22  3  1  0  0  0  0
 22  6  2  0  0  0  0
 23 13  1  0  0  0  0
 23  3  2  0  0  0  0
 24 29  2  0  0  0  0
 25 24  1  0  0  0  0
 25 28  1  0  0  0  0
 26 32  1  0  0  0  0
 26 31  1  6  0  0  0
 28 27  1  6  0  0  0
 28 26  1  0  0  0  0
 29 32  1  0  0  0  0
 30 24  1  0  0  0  0
 32 13  1  1  0  0  0
M  END
>  <MODEL>
4

>  <REMARK>
 VINA RESULT:     -10.6      4.443      8.893
  Name = 
  1 active torsions:
  status: ('A' for Active; 'I' for Inactive)
    1  A    between atoms: C_16  and  C_32
                            x       y       z     vdW  Elec       q    Type
                         _______ _______ _______ _____ _____    ______ ____

>  <TORSDO>
F 1

$$$$
=
 OpenBabel11052416573D

 32 37  0  0  1  0  0  0  0  0999 V2000
  191.3740  176.7370  147.2340 C   0  0  2  0  0  3  0  0  0  0  0  0
  187.7970  177.5040  146.3660 C   0  0  0  0  0  3  0  0  0  0  0  0
  187.1350  178.0320  141.1420 C   0  0  0  0  0  0  0  0  0  0  0  0
  182.2790  179.0130  140.9720 C   0  0  0  0  0  3  0  0  0  0  0  0
  182.4040  179.0890  139.6490 C   0  0  0  0  0  3  0  0  0  0  0  0
  188.3180  177.6380  143.2360 C   0  0  0  0  0  0  0  0  0  0  0  0
  185.9350  178.1110  143.2360 C   0  0  0  0  0  3  0  0  0  0  0  0
  189.9630  176.9940  147.4460 N   0  0  0  0  0  2  0  0  0  0  0  0
  186.9180  177.7510  145.4020 C   0  0  0  0  0  3  0  0  0  0  0  0
  183.4480  178.7090  141.8670 C   0  0  0  0  0  3  0  0  0  0  0  0
  185.9310  178.2180  141.8410 C   0  0  0  0  0  0  0  0  0  0  0  0
  184.7550  178.5060  141.1230 C   0  0  0  0  0  0  0  0  0  0  0  0
  186.0490  178.4060  139.0590 C   0  0  0  0  0  0  0  0  0  0  0  0
  191.6790  176.8010  145.4370 S   0  0  0  0  0  0  0  0  0  0  0  0
  189.9520  177.1680  145.1490 C   0  0  0  0  0  0  0  0  0  0  0  0
  191.7080  175.4160  147.7350 N   0  0  0  0  0  1  0  0  0  0  0  0
  187.1070  177.8240  143.9480 C   0  0  0  0  0  0  0  0  0  0  0  0
  189.5120  177.3620  143.7630 C   0  0  0  0  0  3  0  0  0  0  0  0
  189.2290  177.2290  146.2570 C   0  0  0  0  0  0  0  0  0  0  0  0
  183.7070  178.8780  139.0050 C   0  0  0  0  0  3  0  0  0  0  0  0
  184.8130  178.6020  139.7120 C   0  0  0  0  0  0  0  0  0  0  0  0
  188.3060  177.7470  141.8400 C   0  0  0  0  0  3  0  0  0  0  0  0
  187.1620  178.1300  139.7890 N   0  0  0  0  0  2  0  0  0  0  0  0
  185.4910  177.1320  135.6180 C   0  0  0  0  0  0  0  0  0  0  0  0
  186.6980  177.6500  134.8970 C   0  0  0  0  0  2  0  0  0  0  0  0
  187.6420  178.4480  137.1150 C   0  0  1  0  0  3  0  0  0  0  0  0
  189.0450  177.9920  135.1980 F   0  0  0  0  0  0  0  0  0  0  0  0
  187.8890  177.6010  135.8490 C   0  0  2  0  0  3  0  0  0  0  0  0
  185.2640  177.5020  136.8830 C   0  0  0  0  0  3  0  0  0  0  0  0
  184.6890  176.2100  135.0260 F   0  0  0  0  0  0  0  0  0  0  0  0
  188.1070  179.7520  136.9300 O   0  0  0  0  0  1  0  0  0  0  0  0
  186.1660  178.5010  137.5650 C   0  0  1  0  0  3  0  0  0  0  0  0
  1  8  1  0  0  0  0
  1 16  1  6  0  0  0
  3 22  2  0  0  0  0
  3 11  1  0  0  0  0
  4 10  2  0  0  0  0
  5  4  1  0  0  0  0
  6 18  2  0  0  0  0
  6 17  1  0  0  0  0
  7 17  2  0  0  0  0
  9  2  2  0  0  0  0
 11  7  1  0  0  0  0
 12 11  2  0  0  0  0
 12 10  1  0  0  0  0
 13 21  2  0  0  0  0
 13 23  1  0  0  0  0
 14  1  1  0  0  0  0
 15 14  1  0  0  0  0
 15 19  2  0  0  0  0
 17  9  1  0  0  0  0
 18 15  1  0  0  0  0
 19  2  1  0  0  0  0
 19  8  1  0  0  0  0
 20  5  2  0  0  0  0
 20 21  1  0  0  0  0
 21 12  1  0  0  0  0
 22  6  1  0  0  0  0
 23  3  1  0  0  0  0
 24 29  2  0  0  0  0
 25 24  1  0  0  0  0
 25 28  1  0  0  0  0
 26 31  1  6  0  0  0
 26 32  1  0  0  0  0
 28 27  1  6  0  0  0
 28 26  1  0  0  0  0
 29 32  1  0  0  0  0
 30 24  1  0  0  0  0
 32 13  1  1  0  0  0
M  END
>  <MODEL>
5

>  <REMARK>
 VINA RESULT:     -10.2      4.614      8.386
  Name = 
  1 active torsions:
  status: ('A' for Active; 'I' for Inactive)
    1  A    between atoms: C_16  and  C_32
                            x       y       z     vdW  Elec       q    Type
                         _______ _______ _______ _____ _____    ______ ____

>  <TORSDO>
F 1

$$$$
=
 OpenBabel11052416573D

 32 37  0  0  1  0  0  0  0  0999 V2000
  190.0240  177.5370  146.7670 C   0  0  2  0  0  3  0  0  0  0  0  0
  186.3960  178.4550  147.1280 C   0  0  0  0  0  3  0  0  0  0  0  0
  183.8620  178.2210  142.4860 C   0  0  0  0  0  0  0  0  0  0  0  0
  179.3070  179.5630  143.9110 C   0  0  0  0  0  3  0  0  0  0  0  0
  178.9360  179.4240  142.6390 C   0  0  0  0  0  3  0  0  0  0  0  0
  185.7270  178.0600  144.0480 C   0  0  0  0  0  0  0  0  0  0  0  0
  183.5220  178.7220  144.8240 C   0  0  0  0  0  3  0  0  0  0  0  0
  188.7970  177.9400  147.4260 N   0  0  0  0  0  2  0  0  0  0  0  0
  185.2280  178.6220  146.5180 C   0  0  0  0  0  3  0  0  0  0  0  0
  180.7180  179.3060  144.3620 C   0  0  0  0  0  3  0  0  0  0  0  0
  183.0050  178.6130  143.5290 C   0  0  0  0  0  0  0  0  0  0  0  0
  181.6540  178.8820  143.2450 C   0  0  0  0  0  0  0  0  0  0  0  0
  182.0910  178.3570  140.9040 C   0  0  0  0  0  0  0  0  0  0  0  0
  189.6450  177.2970  145.0000 S   0  0  0  0  0  0  0  0  0  0  0  0
  187.9420  177.7570  145.2940 C   0  0  0  0  0  0  0  0  0  0  0  0
  190.4930  176.2870  147.3360 N   0  0  0  0  0  1  0  0  0  0  0  0
  184.8680  178.4530  145.1050 C   0  0  0  0  0  0  0  0  0  0  0  0
  187.0250  177.7700  144.1490 C   0  0  0  0  0  3  0  0  0  0  0  0
  187.6800  178.0480  146.5590 C   0  0  0  0  0  0  0  0  0  0  0  0
  179.9050  179.0070  141.6160 C   0  0  0  0  0  3  0  0  0  0  0  0
  181.1890  178.7540  141.9140 C   0  0  0  0  0  0  0  0  0  0  0  0
  185.2020  177.9510  142.7540 C   0  0  0  0  0  3  0  0  0  0  0  0
  183.3900  178.1060  141.2200 N   0  0  0  0  0  2  0  0  0  0  0  0
  180.7430  176.4010  138.0530 C   0  0  0  0  0  0  0  0  0  0  0  0
  181.4320  177.0400  136.8860 C   0  0  0  0  0  2  0  0  0  0  0  0
  182.8320  178.4090  138.5030 C   0  0  1  0  0  3  0  0  0  0  0  0
  183.5480  177.9470  136.2390 F   0  0  0  0  0  0  0  0  0  0  0  0
  182.8440  177.4290  137.3110 C   0  0  2  0  0  3  0  0  0  0  0  0
  180.8780  176.9290  139.2740 C   0  0  0  0  0  3  0  0  0  0  0  0
  180.0700  175.2330  137.8890 F   0  0  0  0  0  0  0  0  0  0  0  0
  182.8280  179.7300  138.0490 O   0  0  0  0  0  1  0  0  0  0  0  0
  181.6510  178.2090  139.4760 C   0  0  1  0  0  3  0  0  0  0  0  0
  1 16  1  1  0  0  0
  1  8  1  0  0  0  0
  3 22  2  0  0  0  0
  3 11  1  0  0  0  0
  4 10  2  0  0  0  0
  5  4  1  0  0  0  0
  6 18  2  0  0  0  0
  6 17  1  0  0  0  0
  7 17  2  0  0  0  0
  9  2  2  0  0  0  0
 11  7  1  0  0  0  0
 12 11  2  0  0  0  0
 12 10  1  0  0  0  0
 13 23  1  0  0  0  0
 13 21  2  0  0  0  0
 14 15  1  0  0  0  0
 14  1  1  0  0  0  0
 15 19  2  0  0  0  0
 17  9  1  0  0  0  0
 18 15  1  0  0  0  0
 19  2  1  0  0  0  0
 19  8  1  0  0  0  0
 20 21  1  0  0  0  0
 20  5  2  0  0  0  0
 21 12  1  0  0  0  0
 22  6  1  0  0  0  0
 23  3  1  0  0  0  0
 24 29  2  0  0  0  0
 25 28  1  0  0  0  0
 25 24  1  0  0  0  0
 26 31  1  6  0  0  0
 26 32  1  0  0  0  0
 28 27  1  6  0  0  0
 28 26  1  0  0  0  0
 29 32  1  0  0  0  0
 30 24  1  0  0  0  0
 32 13  1  1  0  0  0
M  END
>  <MODEL>
6

>  <REMARK>
 VINA RESULT:     -10.1      4.254      8.618
  Name = 
  1 active torsions:
  status: ('A' for Active; 'I' for Inactive)
    1  A    between atoms: C_16  and  C_32
                            x       y       z     vdW  Elec       q    Type
                         _______ _______ _______ _____ _____    ______ ____

>  <TORSDO>
F 1

$$$$
=
 OpenBabel11052416573D

 32 37  0  0  1  0  0  0  0  0999 V2000
  180.1780  179.5300  142.3700 C   0  0  2  0  0  3  0  0  0  0  0  0
  183.0620  178.9970  144.7220 C   0  0  0  0  0  3  0  0  0  0  0  0
  187.4550  177.5940  142.1250 C   0  0  0  0  0  0  0  0  0  0  0  0
  190.6000  177.1140  145.9260 C   0  0  0  0  0  3  0  0  0  0  0  0
  191.5310  176.7840  145.0330 C   0  0  0  0  0  3  0  0  0  0  0  0
  185.1240  178.2380  142.4290 C   0  0  0  0  0  0  0  0  0  0  0  0
  186.6040  178.0260  144.3430 C   0  0  0  0  0  3  0  0  0  0  0  0
  180.8930  179.4660  143.6290 N   0  0  0  0  0  2  0  0  0  0  0  0
  184.3420  178.6710  144.8510 C   0  0  0  0  0  3  0  0  0  0  0  0
  189.1920  177.4520  145.5220 C   0  0  0  0  0  3  0  0  0  0  0  0
  187.6700  177.6660  143.5110 C   0  0  0  0  0  0  0  0  0  0  0  0
  188.9470  177.3770  144.0260 C   0  0  0  0  0  0  0  0  0  0  0  0
  189.7170  176.9620  141.7500 C   0  0  0  0  0  0  0  0  0  0  0  0
  181.3590  179.1060  141.0470 S   0  0  0  0  0  0  0  0  0  0  0  0
  182.6500  178.8770  142.2620 C   0  0  0  0  0  0  0  0  0  0  0  0
  179.6800  180.8780  142.1620 N   0  0  0  0  0  1  0  0  0  0  0  0
  185.3330  178.3140  143.8290 C   0  0  0  0  0  0  0  0  0  0  0  0
  183.9800  178.4800  141.7850 C   0  0  0  0  0  3  0  0  0  0  0  0
  182.2560  179.0960  143.5060 C   0  0  0  0  0  0  0  0  0  0  0  0
  191.2120  176.7360  143.6000 C   0  0  0  0  0  2  0  0  0  0  0  0
  189.9860  177.0190  143.1340 C   0  0  0  0  0  0  0  0  0  0  0  0
  186.1950  177.8780  141.6020 C   0  0  0  0  0  3  0  0  0  0  0  0
  188.4690  177.2480  141.2930 N   0  0  0  0  0  0  0  0  0  0  0  0
  192.9500  177.5090  140.0120 C   0  0  0  0  0  0  0  0  0  0  0  0
  192.6780  176.9230  138.6600 C   0  0  0  0  0  2  0  0  0  0  0  0
  190.2430  176.6230  139.3150 C   0  0  1  0  0  3  0  0  0  0  0  0
  190.9570  176.7670  137.0090 F   0  0  0  0  0  0  0  0  0  0  0  0
  191.2290  177.2170  138.2880 C   0  0  2  0  0  3  0  0  0  0  0  0
  192.0420  177.3820  140.9860 C   0  0  0  0  0  3  0  0  0  0  0  0
  194.0650  178.2560  140.2180 F   0  0  0  0  0  0  0  0  0  0  0  0
  189.8610  175.3330  138.9380 O   0  0  0  0  0  1  0  0  0  0  0  0
  190.7820  176.5830  140.7620 C   0  0  1  0  0  3  0  0  0  0  0  0
  1 16  1  6  0  0  0
  1  8  1  0  0  0  0
  2  9  1  0  0  0  0
  3 11  1  0  0  0  0
  5  4  2  0  0  0  0
  6 17  1  0  0  0  0
 10  4  1  0  0  0  0
 11 12  1  0  0  0  0
 11  7  2  0  0  0  0
 12 10  2  0  0  0  0
 13 21  2  0  0  0  0
 14 15  1  0  0  0  0
 14  1  1  0  0  0  0
 15 19  1  0  0  0  0
 17  7  1  0  0  0  0
 17  9  2  0  0  0  0
 18 15  2  0  0  0  0
 18  6  1  0  0  0  0
 19  8  1  0  0  0  0
 19  2  2  0  0  0  0
 20  5  1  0  0  0  0
 21 20  1  0  0  0  0
 21 12  1  0  0  0  0
 22  3  1  0  0  0  0
 22  6  2  0  0  0  0
 23 13  1  0  0  0  0
 23  3  2  0  0  0  0
 24 30  1  0  0  0  0
 24 29  2  0  0  0  0
 25 24  1  0  0  0  0
 26 31  1  6  0  0  0
 26 32  1  0  0  0  0
 28 27  1  6  0  0  0
 28 25  1  0  0  0  0
 28 26  1  0  0  0  0
 32 29  1  0  0  0  0
 32 13  1  1  0  0  0
M  END
>  <MODEL>
7

>  <REMARK>
 VINA RESULT:      -9.8      2.031      3.266
  Name = 
  1 active torsions:
  status: ('A' for Active; 'I' for Inactive)
    1  A    between atoms: C_16  and  C_32
                            x       y       z     vdW  Elec       q    Type
                         _______ _______ _______ _____ _____    ______ ____

>  <TORSDO>
F 1

$$$$
=
 OpenBabel11052416573D

 32 37  0  0  1  0  0  0  0  0999 V2000
  188.5260  177.5160  147.9410 C   0  0  2  0  0  3  0  0  0  0  0  0
  186.9530  178.3140  144.6210 C   0  0  0  0  0  3  0  0  0  0  0  0
  190.0150  176.7530  140.5950 C   0  0  0  0  0  0  0  0  0  0  0  0
  187.2170  178.1910  136.7630 C   0  0  0  0  0  3  0  0  0  0  0  0
  188.1690  177.7070  135.9670 C   0  0  0  0  0  3  0  0  0  0  0  0
  189.3370  177.0970  142.9110 C   0  0  0  0  0  0  0  0  0  0  0  0
  187.9090  177.8280  141.0870 C   0  0  0  0  0  3  0  0  0  0  0  0
  187.5370  178.0150  147.0050 N   0  0  0  0  0  2  0  0  0  0  0  0
  187.0640  178.2580  143.2990 C   0  0  0  0  0  3  0  0  0  0  0  0
  187.3250  178.1310  138.2610 C   0  0  0  0  0  3  0  0  0  0  0  0
  188.8300  177.3600  140.1440 C   0  0  0  0  0  0  0  0  0  0  0  0
  188.6000  177.4780  138.7610 C   0  0  0  0  0  0  0  0  0  0  0  0
  190.7420  176.3830  138.3610 C   0  0  0  0  0  0  0  0  0  0  0  0
  189.8930  176.8060  146.9660 S   0  0  0  0  0  0  0  0  0  0  0  0
  189.0500  177.2410  145.4500 C   0  0  0  0  0  0  0  0  0  0  0  0
  187.9330  176.4820  148.7690 N   0  0  0  0  0  1  0  0  0  0  0  0
  188.1390  177.7090  142.4640 C   0  0  0  0  0  0  0  0  0  0  0  0
  189.7040  176.9080  144.1800 C   0  0  0  0  0  3  0  0  0  0  0  0
  187.8840  177.8380  145.6420 C   0  0  0  0  0  0  0  0  0  0  0  0
  189.3750  177.0870  136.5310 C   0  0  0  0  0  3  0  0  0  0  0  0
  189.5690  176.9840  137.8550 C   0  0  0  0  0  0  0  0  0  0  0  0
  190.2540  176.6290  141.9610 C   0  0  0  0  0  3  0  0  0  0  0  0
  190.9260  176.2880  139.7050 N   0  0  0  0  0  2  0  0  0  0  0  0
  192.3940  173.6520  136.4670 C   0  0  0  0  0  0  0  0  0  0  0  0
  193.8290  174.0810  136.4940 C   0  0  0  0  0  2  0  0  0  0  0  0
  193.2040  175.9630  138.0810 C   0  0  1  0  0  3  0  0  0  0  0  0
  195.4500  175.0760  137.9430 F   0  0  0  0  0  0  0  0  0  0  0  0
  194.1130  174.7390  137.8410 C   0  0  2  0  0  3  0  0  0  0  0  0
  191.4480  174.4660  136.9480 C   0  0  0  0  0  3  0  0  0  0  0  0
  192.0660  172.4010  136.0530 F   0  0  0  0  0  0  0  0  0  0  0  0
  193.8190  177.1270  137.6160 O   0  0  0  0  0  1  0  0  0  0  0  0
  191.8030  175.8470  137.4430 C   0  0  1  0  0  3  0  0  0  0  0  0
  1 16  1  1  0  0  0
  2 19  1  0  0  0  0
  3 22  2  0  0  0  0
  4 10  2  0  0  0  0
  5 20  2  0  0  0  0
  5  4  1  0  0  0  0
  6 18  2  0  0  0  0
  7 17  2  0  0  0  0
  8  1  1  0  0  0  0
  9  2  2  0  0  0  0
 10 12  1  0  0  0  0
 11  3  1  0  0  0  0
 11  7  1  0  0  0  0
 12 11  2  0  0  0  0
 13 23  1  0  0  0  0
 14  1  1  0  0  0  0
 15 19  2  0  0  0  0
 15 14  1  0  0  0  0
 17  6  1  0  0  0  0
 17  9  1  0  0  0  0
 18 15  1  0  0  0  0
 19  8  1  0  0  0  0
 20 21  1  0  0  0  0
 21 13  2  0  0  0  0
 21 12  1  0  0  0  0
 22  6  1  0  0  0  0
 23  3  1  0  0  0  0
 24 25  1  0  0  0  0
 24 29  2  0  0  0  0
 25 28  1  0  0  0  0
 26 31  1  6  0  0  0
 28 27  1  6  0  0  0
 28 26  1  0  0  0  0
 29 32  1  0  0  0  0
 30 24  1  0  0  0  0
 32 26  1  0  0  0  0
 32 13  1  1  0  0  0
M  END
>  <MODEL>
8

>  <REMARK>
 VINA RESULT:      -9.6      5.205      8.332
  Name = 
  1 active torsions:
  status: ('A' for Active; 'I' for Inactive)
    1  A    between atoms: C_16  and  C_32
                            x       y       z     vdW  Elec       q    Type
                         _______ _______ _______ _____ _____    ______ ____

>  <TORSDO>
F 1

$$$$
=
 OpenBabel11052416573D

 32 37  0  0  1  0  0  0  0  0999 V2000
  191.2000  176.7530  147.6830 C   0  0  2  0  0  3  0  0  0  0  0  0
  191.6800  177.1830  143.9790 C   0  0  0  0  0  3  0  0  0  0  0  0
  187.0760  178.0230  141.5080 C   0  0  0  0  0  0  0  0  0  0  0  0
  188.6610  178.4400  136.8290 C   0  0  0  0  0  3  0  0  0  0  0  0
  187.3890  178.6280  136.4810 C   0  0  0  0  0  3  0  0  0  0  0  0
  188.5920  177.6110  143.3710 C   0  0  0  0  0  0  0  0  0  0  0  0
  189.4470  177.8060  141.1050 C   0  0  0  0  0  3  0  0  0  0  0  0
  191.9040  176.8420  146.4190 N   0  0  0  0  0  2  0  0  0  0  0  0
  191.1020  177.4000  142.8040 C   0  0  0  0  0  3  0  0  0  0  0  0
  189.0710  178.2130  138.2570 C   0  0  0  0  0  2  0  0  0  0  0  0
  188.1560  178.0150  140.6090 C   0  0  0  0  0  0  0  0  0  0  0  0
  187.9130  178.2190  139.2380 C   0  0  0  0  0  0  0  0  0  0  0  0
  185.5360  178.4250  139.7400 C   0  0  0  0  0  0  0  0  0  0  0  0
  189.4270  177.0090  147.3430 S   0  0  0  0  0  0  0  0  0  0  0  0
  189.7790  177.1910  145.5990 C   0  0  0  0  0  0  0  0  0  0  0  0
  191.6770  177.7910  148.5790 N   0  0  0  0  0  1  0  0  0  0  0  0
  189.6870  177.6030  142.4700 C   0  0  0  0  0  0  0  0  0  0  0  0
  188.6520  177.4340  144.6920 C   0  0  0  0  0  3  0  0  0  0  0  0
  191.0650  177.0820  145.3020 C   0  0  0  0  0  0  0  0  0  0  0  0
  186.3250  178.6200  137.4940 C   0  0  0  0  0  3  0  0  0  0  0  0
  186.5840  178.4260  138.7960 C   0  0  0  0  0  0  0  0  0  0  0  0
  187.3030  177.8220  142.8670 C   0  0  0  0  0  3  0  0  0  0  0  0
  185.8130  178.2230  141.0560 N   0  0  0  0  0  0  0  0  0  0  0  0
  182.5990  180.5670  138.9910 C   0  0  0  0  0  0  0  0  0  0  0  0
  181.4600  179.6860  139.4040 C   0  0  0  0  0  2  0  0  0  0  0  0
  183.1300  178.0230  140.3480 C   0  0  1  0  0  3  0  0  0  0  0  0
  180.8330  178.1230  141.1010 F   0  0  0  0  0  0  0  0  0  0  0  0
  181.8850  178.8890  140.6330 C   0  0  2  0  0  3  0  0  0  0  0  0
  183.8460  180.0840  138.9900 C   0  0  0  0  0  3  0  0  0  0  0  0
  182.3810  181.8790  138.7190 F   0  0  0  0  0  0  0  0  0  0  0  0
  182.7520  176.7520  139.9110 O   0  0  0  0  0  1  0  0  0  0  0  0
  184.1080  178.6360  139.3230 C   0  0  1  0  0  3  0  0  0  0  0  0
  1 16  1  1  0  0  0
  2 19  1  0  0  0  0
  3 22  2  0  0  0  0
  4 10  1  0  0  0  0
  5  4  2  0  0  0  0
  5 20  1  0  0  0  0
  6 18  2  0  0  0  0
  7 17  2  0  0  0  0
  8  1  1  0  0  0  0
  9  2  2  0  0  0  0
 10 12  1  0  0  0  0
 11  7  1  0  0  0  0
 11  3  1  0  0  0  0
 12 11  2  0  0  0  0
 13 23  2  0  0  0  0
 14  1  1  0  0  0  0
 15 14  1  0  0  0  0
 17  9  1  0  0  0  0
 17  6  1  0  0  0  0
 18 15  1  0  0  0  0
 19 15  2  0  0  0  0
 19  8  1  0  0  0  0
 20 21  2  0  0  0  0
 21 12  1  0  0  0  0
 21 13  1  0  0  0  0
 22  6  1  0  0  0  0
 23  3  1  0  0  0  0
 24 25  1  0  0  0  0
 25 28  1  0  0  0  0
 26 31  1  6  0  0  0
 26 28  1  0  0  0  0
 28 27  1  6  0  0  0
 29 24  2  0  0  0  0
 29 32  1  0  0  0  0
 30 24  1  0  0  0  0
 32 13  1  1  0  0  0
 32 26  1  0  0  0  0
M  END
>  <MODEL>
9

>  <REMARK>
 VINA RESULT:      -9.5      4.743      9.369
  Name = 
  1 active torsions:
  status: ('A' for Active; 'I' for Inactive)
    1  A    between atoms: C_16  and  C_32
                            x       y       z     vdW  Elec       q    Type
                         _______ _______ _______ _____ _____    ______ ____

>  <TORSDO>
F 1

$$$$
