=
 OpenBabel11052417023D

 32 36  0  0  1  0  0  0  0  0999 V2000
  188.1730  174.9010  135.9730 C   0  0  0  0  0  3  0  0  0  0  0  0
  189.1260  174.0980  135.3480 C   0  0  0  0  0  3  0  0  0  0  0  0
  188.5630  175.8080  136.9580 C   0  0  0  0  0  3  0  0  0  0  0  0
  189.9100  175.9280  137.3380 C   0  0  0  0  0  0  0  0  0  0  0  0
  190.4700  174.2130  135.7000 C   0  0  0  0  0  3  0  0  0  0  0  0
  190.8770  175.1220  136.6900 C   0  0  0  0  0  0  0  0  0  0  0  0
  194.4140  174.0250  137.5870 N   0  0  0  0  0  0  0  0  0  0  0  0
  195.1500  175.0120  136.8610 C   0  0  0  0  0  0  0  0  0  0  0  0
  195.5890  176.6690  135.5530 C   0  0  0  0  0  0  0  0  0  0  0  0
  192.3400  175.2610  136.9900 C   0  0  2  0  0  3  0  0  0  0  0  0
  196.7550  176.1670  136.0130 N   0  0  0  0  0  0  0  0  0  0  0  0
  196.4880  175.1450  136.8190 N   0  0  0  0  0  2  0  0  0  0  0  0
  193.0730  176.0120  135.8560 C   0  0  0  0  0  2  0  0  0  0  0  0
  195.0840  173.0820  138.4680 C   0  0  0  0  0  1  0  0  0  0  0  0
  195.4840  177.8060  134.5970 C   0  0  0  0  0  1  0  0  0  0  0  0
  192.9780  173.8920  137.3250 C   0  0  0  0  0  2  0  0  0  0  0  0
  194.5450  175.9560  136.0920 C   0  0  0  0  0  0  0  0  0  0  0  0
  188.2760  177.6610  143.0120 C   0  0  0  0  0  2  0  0  0  0  0  0
  189.8000  178.2410  138.3310 C   0  0  0  0  0  2  0  0  0  0  0  0
  189.6070  176.6320  140.7140 C   0  0  2  0  0  3  0  0  0  0  0  0
  188.6990  178.4150  139.3720 C   0  0  0  0  0  2  0  0  0  0  0  0
  188.0190  178.1860  141.5880 C   0  0  0  0  0  2  0  0  0  0  0  0
  190.2660  176.8590  138.3800 N   0  0  0  0  0  0  0  0  0  0  0  0
  189.7000  177.1520  143.2260 C   0  0  1  0  0  3  0  0  0  0  0  0
  189.1790  178.0460  140.7060 N   0  0  1  0  0  0  0  0  0  0  0  0
  190.1330  176.2120  142.0930 C   0  0  0  0  0  2  0  0  0  0  0  0
  190.7140  176.3910  139.6860 C   0  0  0  0  0  2  0  0  0  0  0  0
  190.6640  178.3200  143.3720 C   0  0  0  0  0  2  0  0  0  0  0  0
  191.6380  178.0650  144.5060 C   0  0  0  0  0  2  0  0  0  0  0  0
  191.2230  176.8110  145.2470 C   0  0  0  0  0  2  0  0  0  0  0  0
  189.3210  177.0850  146.8340 C   0  0  0  0  0  1  0  0  0  0  0  0
  190.8300  177.1380  146.6770 C   0  0  0  0  0  2  0  0  0  0  0  0
  1  3  1  0  0  0  0
  2  5  1  0  0  0  0
  2  1  2  0  0  0  0
  3  4  2  0  0  0  0
  4 23  1  0  0  0  0
  5  6  2  0  0  0  0
  6  4  1  0  0  0  0
  7 14  1  0  0  0  0
  8  7  1  0  0  0  0
  9 11  2  0  0  0  0
  9 17  1  0  0  0  0
 10  6  1  6  0  0  0
 10 16  1  0  0  0  0
 11 12  1  0  0  0  0
 12  8  1  0  0  0  0
 13 17  1  0  0  0  0
 13 10  1  0  0  0  0
 15  9  1  0  0  0  0
 16  7  1  0  0  0  0
 17  8  2  0  0  0  0
 18 24  1  0  0  0  0
 19 23  1  0  0  0  0
 19 21  1  0  0  0  0
 20 27  1  6  0  0  0
 20 26  1  0  0  0  0
 22 18  1  0  0  0  0
 23 27  1  0  0  0  0
 24 28  1  6  0  0  0
 25 21  1  6  0  0  0
 25 20  1  0  0  0  0
 25 22  1  0  0  0  0
 26 24  1  0  0  0  0
 28 29  1  0  0  0  0
 29 30  1  0  0  0  0
 30 32  1  0  0  0  0
 32 31  1  0  0  0  0
M  END
>  <MODEL>
1

>  <REMARK>
 VINA RESULT:      -7.2      0.000      0.000
  Name = 
  6 active torsions:
  status: ('A' for Active; 'I' for Inactive)
    1  A    between atoms: C_10  and  C_20
    2  A    between atoms: C_10  and  C_24
    3  A    between atoms: N_14  and  C_15
    4  A    between atoms: C_16  and  C_26
    5  A    between atoms: C_17  and  C_20
    6  A    between atoms: C_19  and  C_24
                            x       y       z     vdW  Elec       q    Type
                         _______ _______ _______ _____ _____    ______ ____

>  <TORSDO>
F 6

$$$$
=
 OpenBabel11052417023D

 32 36  0  0  1  0  0  0  0  0999 V2000
  183.1810  179.1790  144.5620 C   0  0  0  0  0  3  0  0  0  0  0  0
  184.4720  178.9910  145.0510 C   0  0  0  0  0  3  0  0  0  0  0  0
  182.9040  178.9420  143.2150 C   0  0  0  0  0  3  0  0  0  0  0  0
  183.9110  178.5160  142.3340 C   0  0  0  0  0  0  0  0  0  0  0  0
  185.4830  178.5540  144.1960 C   0  0  0  0  0  3  0  0  0  0  0  0
  185.2190  178.3110  142.8390 C   0  0  0  0  0  0  0  0  0  0  0  0
  187.7070  178.2210  139.9540 N   0  0  0  0  0  0  0  0  0  0  0  0
  188.7680  177.5060  140.5900 C   0  0  0  0  0  0  0  0  0  0  0  0
  189.9160  176.4970  142.1120 C   0  0  0  0  0  0  0  0  0  0  0  0
  186.3180  177.7780  141.9690 C   0  0  2  0  0  3  0  0  0  0  0  0
  190.6430  176.5230  140.9740 N   0  0  0  0  0  0  0  0  0  0  0  0
  189.9380  177.1450  140.0340 N   0  0  0  0  0  0  0  0  0  0  0  0
  187.5750  177.4430  142.8040 C   0  0  0  0  0  2  0  0  0  0  0  0
  187.7660  178.5590  138.5410 C   0  0  0  0  0  1  0  0  0  0  0  0
  190.3880  175.9080  143.3950 C   0  0  0  0  0  1  0  0  0  0  0  0
  186.6100  178.7280  140.7840 C   0  0  0  0  0  2  0  0  0  0  0  0
  188.7050  177.1070  141.8890 C   0  0  1  0  0  3  0  0  0  0  0  0
  179.3660  179.3520  138.2720 C   0  0  0  0  0  2  0  0  0  0  0  0
  183.1340  177.0030  140.4750 C   0  0  0  0  0  2  0  0  0  0  0  0
  181.7890  179.4510  139.7640 C   0  0  2  0  0  3  0  0  0  0  0  0
  181.6370  177.0850  140.1970 C   0  0  0  0  0  2  0  0  0  0  0  0
  179.8850  178.1690  139.1090 C   0  0  0  0  0  2  0  0  0  0  0  0
  183.5880  178.3080  140.9440 N   0  0  0  0  0  0  0  0  0  0  0  0
  180.4780  180.2260  137.6970 C   0  0  1  0  0  3  0  0  0  0  0  0
  181.3430  178.1470  139.2310 N   0  0  1  0  0  0  0  0  0  0  0  0
  181.5130  180.5880  138.7710 C   0  0  0  0  0  2  0  0  0  0  0  0
  183.2890  179.4320  140.0660 C   0  0  0  0  0  2  0  0  0  0  0  0
  181.1340  179.5380  136.5090 C   0  0  0  0  0  2  0  0  0  0  0  0
  180.8130  180.2790  135.2250 C   0  0  0  0  0  2  0  0  0  0  0  0
  180.1410  181.5930  135.5630 C   0  0  0  0  0  2  0  0  0  0  0  0
  180.8810  183.9590  135.8250 C   0  0  0  0  0  1  0  0  0  0  0  0
  180.8670  182.7530  134.9030 C   0  0  0  0  0  2  0  0  0  0  0  0
  1  2  1  0  0  0  0
  3  1  2  0  0  0  0
  4  6  2  0  0  0  0
  4  3  1  0  0  0  0
  5  2  2  0  0  0  0
  6  5  1  0  0  0  0
  7  8  1  0  0  0  0
  7 16  1  0  0  0  0
  8 17  1  0  0  0  0
  9 15  1  0  0  0  0
 10 13  1  0  0  0  0
 10  6  1  1  0  0  0
 11  9  2  0  0  0  0
 12  8  2  0  0  0  0
 12 11  1  0  0  0  0
 14  7  1  0  0  0  0
 16 10  1  0  0  0  0
 17  9  1  0  0  0  0
 17 13  1  1  0  0  0
 18 22  1  0  0  0  0
 19 23  1  0  0  0  0
 20 26  1  6  0  0  0
 20 27  1  0  0  0  0
 21 19  1  0  0  0  0
 23  4  1  0  0  0  0
 24 28  1  6  0  0  0
 24 18  1  0  0  0  0
 24 26  1  0  0  0  0
 25 22  1  1  0  0  0
 25 20  1  0  0  0  0
 25 21  1  0  0  0  0
 27 23  1  0  0  0  0
 29 30  1  0  0  0  0
 29 28  1  0  0  0  0
 32 30  1  0  0  0  0
 32 31  1  0  0  0  0
M  END
>  <MODEL>
2

>  <REMARK>
 VINA RESULT:      -7.1      5.907     10.102
  Name = 
  6 active torsions:
  status: ('A' for Active; 'I' for Inactive)
    1  A    between atoms: C_10  and  C_20
    2  A    between atoms: C_10  and  C_24
    3  A    between atoms: N_14  and  C_15
    4  A    between atoms: C_16  and  C_26
    5  A    between atoms: C_17  and  C_20
    6  A    between atoms: C_19  and  C_24
                            x       y       z     vdW  Elec       q    Type
                         _______ _______ _______ _____ _____    ______ ____

>  <TORSDO>
F 6

$$$$
=
 OpenBabel11052417023D

 32 36  0  0  1  0  0  0  0  0999 V2000
  188.6940  179.2210  137.3140 C   0  0  0  0  0  3  0  0  0  0  0  0
  188.8490  178.5210  136.1190 C   0  0  0  0  0  3  0  0  0  0  0  0
  189.1260  178.6560  138.5140 C   0  0  0  0  0  3  0  0  0  0  0  0
  189.7150  177.3810  138.5430 C   0  0  0  0  0  0  0  0  0  0  0  0
  189.4460  177.2610  136.1230 C   0  0  0  0  0  3  0  0  0  0  0  0
  189.8850  176.6790  137.3240 C   0  0  0  0  0  0  0  0  0  0  0  0
  190.8700  173.2590  135.9640 N   0  0  0  0  0  0  0  0  0  0  0  0
  192.2100  173.1950  136.4560 C   0  0  0  0  0  0  0  0  0  0  0  0
  194.0580  173.7710  137.4050 C   0  0  0  0  0  0  0  0  0  0  0  0
  190.5820  175.3520  137.2750 C   0  0  2  0  0  3  0  0  0  0  0  0
  194.2100  172.5320  136.8880 N   0  0  0  0  0  0  0  0  0  0  0  0
  193.0720  172.1750  136.3020 N   0  0  0  0  0  0  0  0  0  0  0  0
  192.1120  175.5220  137.4050 C   0  0  0  0  0  2  0  0  0  0  0  0
  190.2560  172.1230  135.2950 C   0  0  0  0  0  1  0  0  0  0  0  0
  195.1310  174.5210  138.1130 C   0  0  0  0  0  1  0  0  0  0  0  0
  190.1630  174.5420  136.0260 C   0  0  0  0  0  2  0  0  0  0  0  0
  192.7810  174.2120  137.1540 C   0  0  1  0  0  3  0  0  0  0  0  0
  190.5160  178.9160  144.4480 C   0  0  0  0  0  2  0  0  0  0  0  0
  191.5360  176.6870  140.1400 C   0  0  0  0  0  2  0  0  0  0  0  0
  189.6240  177.8180  141.9760 C   0  0  2  0  0  3  0  0  0  0  0  0
  191.8940  177.7520  141.1690 C   0  0  0  0  0  2  0  0  0  0  0  0
  191.4330  178.7520  143.2230 C   0  0  0  0  0  2  0  0  0  0  0  0
  190.1220  176.8220  139.8080 N   0  0  0  0  0  0  0  0  0  0  0  0
  189.4200  177.8550  144.5340 C   0  0  1  0  0  3  0  0  0  0  0  0
  191.0410  177.6400  142.3550 N   0  0  1  0  0  0  0  0  0  0  0  0
  188.6960  177.6900  143.1910 C   0  0  0  0  0  2  0  0  0  0  0  0
  189.2030  176.7750  140.9390 C   0  0  0  0  0  2  0  0  0  0  0  0
  189.9990  176.5330  145.0150 C   0  0  0  0  0  2  0  0  0  0  0  0
  190.5340  176.6710  146.4270 C   0  0  0  0  0  2  0  0  0  0  0  0
  189.3740  176.6890  147.4000 C   0  0  0  0  0  2  0  0  0  0  0  0
  187.8780  178.3940  148.4330 C   0  0  0  0  0  1  0  0  0  0  0  0
  189.3180  178.0130  148.1440 C   0  0  0  0  0  2  0  0  0  0  0  0
  1  3  1  0  0  0  0
  2  5  1  0  0  0  0
  2  1  2  0  0  0  0
  3  4  2  0  0  0  0
  4 23  1  0  0  0  0
  5  6  2  0  0  0  0
  6  4  1  0  0  0  0
  7 16  1  0  0  0  0
  7  8  1  0  0  0  0
  8 17  1  0  0  0  0
  9 15  1  0  0  0  0
 10  6  1  6  0  0  0
 10 13  1  0  0  0  0
 11  9  2  0  0  0  0
 12  8  2  0  0  0  0
 12 11  1  0  0  0  0
 14  7  1  0  0  0  0
 16 10  1  0  0  0  0
 17  9  1  0  0  0  0
 17 13  1  6  0  0  0
 18 24  1  0  0  0  0
 19 21  1  0  0  0  0
 20 27  1  6  0  0  0
 20 25  1  0  0  0  0
 20 26  1  0  0  0  0
 22 18  1  0  0  0  0
 23 19  1  0  0  0  0
 23 27  1  0  0  0  0
 24 28  1  6  0  0  0
 25 21  1  6  0  0  0
 25 22  1  0  0  0  0
 26 24  1  0  0  0  0
 28 29  1  0  0  0  0
 29 30  1  0  0  0  0
 30 32  1  0  0  0  0
 32 31  1  0  0  0  0
M  END
>  <MODEL>
3

>  <REMARK>
 VINA RESULT:      -6.8      1.891      3.243
  Name = 
  6 active torsions:
  status: ('A' for Active; 'I' for Inactive)
    1  A    between atoms: C_10  and  C_20
    2  A    between atoms: C_10  and  C_24
    3  A    between atoms: N_14  and  C_15
    4  A    between atoms: C_16  and  C_26
    5  A    between atoms: C_17  and  C_20
    6  A    between atoms: C_19  and  C_24
                            x       y       z     vdW  Elec       q    Type
                         _______ _______ _______ _____ _____    ______ ____

>  <TORSDO>
F 6

$$$$
=
 OpenBabel11052417023D

 32 36  0  0  1  0  0  0  0  0999 V2000
  191.3530  178.3250  144.1120 C   0  0  0  0  0  3  0  0  0  0  0  0
  192.0810  178.2870  142.9240 C   0  0  0  0  0  3  0  0  0  0  0  0
  190.0040  177.9680  144.1150 C   0  0  0  0  0  3  0  0  0  0  0  0
  189.3590  177.5700  142.9320 C   0  0  0  0  0  0  0  0  0  0  0  0
  191.4630  177.8810  141.7420 C   0  0  0  0  0  3  0  0  0  0  0  0
  190.1060  177.5180  141.7300 C   0  0  0  0  0  0  0  0  0  0  0  0
  188.1240  177.6590  138.4790 N   0  0  0  0  0  0  0  0  0  0  0  0
  188.8670  176.7050  137.7170 C   0  0  0  0  0  0  0  0  0  0  0  0
  190.3940  175.2850  137.1680 C   0  0  0  0  0  0  0  0  0  0  0  0
  189.4990  177.0230  140.4520 C   0  0  2  0  0  3  0  0  0  0  0  0
  189.5510  175.4330  136.1230 N   0  0  0  0  0  0  0  0  0  0  0  0
  188.6090  176.3090  136.4590 N   0  0  0  0  0  0  0  0  0  0  0  0
  190.5670  176.3760  139.5420 C   0  0  0  0  0  2  0  0  0  0  0  0
  186.9000  178.2500  137.9610 C   0  0  0  0  0  1  0  0  0  0  0  0
  191.5960  174.4070  137.1580 C   0  0  0  0  0  1  0  0  0  0  0  0
  188.6910  178.1360  139.7440 C   0  0  0  0  0  2  0  0  0  0  0  0
  189.9690  176.0780  138.2070 C   0  0  1  0  0  3  0  0  0  0  0  0
  184.0530  179.3770  145.4710 C   0  0  0  0  0  2  0  0  0  0  0  0
  187.4730  176.1760  143.8520 C   0  0  0  0  0  2  0  0  0  0  0  0
  186.2000  178.7570  143.7060 C   0  0  2  0  0  3  0  0  0  0  0  0
  186.7460  176.8180  145.0290 C   0  0  0  0  0  2  0  0  0  0  0  0
  185.0970  178.2860  145.7700 C   0  0  0  0  0  2  0  0  0  0  0  0
  187.9570  177.2360  142.9750 N   0  0  0  0  0  0  0  0  0  0  0  0
  183.7790  179.5660  143.9800 C   0  0  1  0  0  3  0  0  0  0  0  0
  185.6580  177.6810  144.5620 N   0  0  1  0  0  0  0  0  0  0  0  0
  185.0860  179.6730  143.1830 C   0  0  0  0  0  2  0  0  0  0  0  0
  186.9450  178.1740  142.5040 C   0  0  0  0  0  2  0  0  0  0  0  0
  182.9040  178.4380  143.4540 C   0  0  0  0  0  2  0  0  0  0  0  0
  182.1790  178.8730  142.1950 C   0  0  0  0  0  2  0  0  0  0  0  0
  180.7990  179.3770  142.5640 C   0  0  0  0  0  2  0  0  0  0  0  0
  179.0550  179.3380  144.3430 C   0  0  0  0  0  1  0  0  0  0  0  0
  180.2450  178.6070  143.7500 C   0  0  0  0  0  2  0  0  0  0  0  0
  1  3  1  0  0  0  0
  2  1  2  0  0  0  0
  4 23  1  0  0  0  0
  4  3  2  0  0  0  0
  5  2  1  0  0  0  0
  6  5  2  0  0  0  0
  6  4  1  0  0  0  0
  7 16  1  0  0  0  0
  8 17  1  0  0  0  0
  8  7  1  0  0  0  0
  9 17  1  0  0  0  0
 10  6  1  1  0  0  0
 11 12  1  0  0  0  0
 11  9  2  0  0  0  0
 12  8  2  0  0  0  0
 13 10  1  0  0  0  0
 14  7  1  0  0  0  0
 15  9  1  0  0  0  0
 16 10  1  0  0  0  0
 17 13  1  6  0  0  0
 18 22  1  0  0  0  0
 19 21  1  0  0  0  0
 20 27  1  6  0  0  0
 20 25  1  0  0  0  0
 23 19  1  0  0  0  0
 24 28  1  6  0  0  0
 24 18  1  0  0  0  0
 25 21  1  1  0  0  0
 25 22  1  0  0  0  0
 26 20  1  0  0  0  0
 26 24  1  0  0  0  0
 27 23  1  0  0  0  0
 29 30  1  0  0  0  0
 29 28  1  0  0  0  0
 30 32  1  0  0  0  0
 32 31  1  0  0  0  0
M  END
>  <MODEL>
4

>  <REMARK>
 VINA RESULT:      -6.6      3.745      7.208
  Name = 
  6 active torsions:
  status: ('A' for Active; 'I' for Inactive)
    1  A    between atoms: C_10  and  C_20
    2  A    between atoms: C_10  and  C_24
    3  A    between atoms: N_14  and  C_15
    4  A    between atoms: C_16  and  C_26
    5  A    between atoms: C_17  and  C_20
    6  A    between atoms: C_19  and  C_24
                            x       y       z     vdW  Elec       q    Type
                         _______ _______ _______ _____ _____    ______ ____

>  <TORSDO>
F 6

$$$$
=
 OpenBabel11052417023D

 32 36  0  0  1  0  0  0  0  0999 V2000
  188.6110  179.7230  137.2090 C   0  0  0  0  0  3  0  0  0  0  0  0
  187.9640  179.0480  136.1740 C   0  0  0  0  0  3  0  0  0  0  0  0
  189.0640  179.0190  138.3250 C   0  0  0  0  0  3  0  0  0  0  0  0
  188.8770  177.6300  138.4280 C   0  0  0  0  0  0  0  0  0  0  0  0
  187.7820  177.6680  136.2510 C   0  0  0  0  0  3  0  0  0  0  0  0
  188.2330  176.9460  137.3680 C   0  0  0  0  0  0  0  0  0  0  0  0
  186.4430  173.5850  137.2490 N   0  0  0  0  0  0  0  0  0  0  0  0
  187.4610  172.8060  136.6160 C   0  0  0  0  0  0  0  0  0  0  0  0
  189.3090  172.2850  135.6350 C   0  0  0  0  0  0  0  0  0  0  0  0
  188.0780  175.4550  137.3800 C   0  0  2  0  0  3  0  0  0  0  0  0
  188.5430  171.1760  135.7220 N   0  0  0  0  0  0  0  0  0  0  0  0
  187.4020  171.4950  136.3270 N   0  0  0  0  0  2  0  0  0  0  0  0
  188.9720  174.7930  136.3070 C   0  0  0  0  0  2  0  0  0  0  0  0
  185.2230  172.9700  137.7470 C   0  0  0  0  0  1  0  0  0  0  0  0
  190.6500  172.3290  134.9910 C   0  0  0  0  0  1  0  0  0  0  0  0
  186.5900  175.0430  137.2700 C   0  0  0  0  0  2  0  0  0  0  0  0
  188.6440  173.3400  136.2130 C   0  0  0  0  0  0  0  0  0  0  0  0
  191.3420  178.7070  143.9630 C   0  0  0  0  0  2  0  0  0  0  0  0
  190.6680  176.3510  139.6540 C   0  0  0  0  0  2  0  0  0  0  0  0
  189.6500  178.0070  141.7820 C   0  0  2  0  0  3  0  0  0  0  0  0
  191.5570  177.2220  140.5350 C   0  0  0  0  0  2  0  0  0  0  0  0
  191.8810  178.2780  142.5870 C   0  0  0  0  0  2  0  0  0  0  0  0
  189.3370  176.9450  139.6110 N   0  0  0  0  0  0  0  0  0  0  0  0
  190.0070  178.0590  144.3230 C   0  0  1  0  0  3  0  0  0  0  0  0
  190.9800  177.3710  141.8740 N   0  0  1  0  0  0  0  0  0  0  0  0
  189.0050  178.1640  143.1650 C   0  0  0  0  0  2  0  0  0  0  0  0
  188.7080  177.1780  140.9060 C   0  0  0  0  0  2  0  0  0  0  0  0
  190.2160  176.6110  144.7420 C   0  0  0  0  0  2  0  0  0  0  0  0
  191.4240  176.4920  145.6510 C   0  0  0  0  0  2  0  0  0  0  0  0
  190.9760  176.6060  147.0930 C   0  0  0  0  0  2  0  0  0  0  0  0
  189.1190  177.9340  148.0930 C   0  0  0  0  0  1  0  0  0  0  0  0
  189.4690  176.7770  147.1750 C   0  0  0  0  0  2  0  0  0  0  0  0
  1  3  1  0  0  0  0
  2  5  1  0  0  0  0
  2  1  2  0  0  0  0
  3  4  2  0  0  0  0
  4 23  1  0  0  0  0
  5  6  2  0  0  0  0
  6  4  1  0  0  0  0
  7 16  1  0  0  0  0
  7 14  1  0  0  0  0
  8  7  1  0  0  0  0
  9 11  2  0  0  0  0
  9 17  1  0  0  0  0
 10  6  1  6  0  0  0
 11 12  1  0  0  0  0
 12  8  1  0  0  0  0
 13 10  1  0  0  0  0
 15  9  1  0  0  0  0
 16 10  1  0  0  0  0
 17 13  1  0  0  0  0
 17  8  2  0  0  0  0
 18 24  1  0  0  0  0
 19 21  1  0  0  0  0
 20 27  1  6  0  0  0
 20 25  1  0  0  0  0
 20 26  1  0  0  0  0
 22 18  1  0  0  0  0
 23 19  1  0  0  0  0
 23 27  1  0  0  0  0
 24 28  1  6  0  0  0
 25 21  1  6  0  0  0
 25 22  1  0  0  0  0
 26 24  1  0  0  0  0
 28 29  1  0  0  0  0
 29 30  1  0  0  0  0
 30 32  1  0  0  0  0
 32 31  1  0  0  0  0
M  END
>  <MODEL>
5

>  <REMARK>
 VINA RESULT:      -6.5      3.640      5.101
  Name = 
  6 active torsions:
  status: ('A' for Active; 'I' for Inactive)
    1  A    between atoms: C_10  and  C_20
    2  A    between atoms: C_10  and  C_24
    3  A    between atoms: N_14  and  C_15
    4  A    between atoms: C_16  and  C_26
    5  A    between atoms: C_17  and  C_20
    6  A    between atoms: C_19  and  C_24
                            x       y       z     vdW  Elec       q    Type
                         _______ _______ _______ _____ _____    ______ ____

>  <TORSDO>
F 6

$$$$
=
 OpenBabel11052417023D

 32 36  0  0  1  0  0  0  0  0999 V2000
  188.5300  177.9140  135.4020 C   0  0  0  0  0  3  0  0  0  0  0  0
  187.8420  178.6820  136.3400 C   0  0  0  0  0  3  0  0  0  0  0  0
  189.4200  176.9270  135.8260 C   0  0  0  0  0  3  0  0  0  0  0  0
  189.6430  176.6940  137.1930 C   0  0  0  0  0  0  0  0  0  0  0  0
  188.0370  178.4560  137.7020 C   0  0  0  0  0  3  0  0  0  0  0  0
  188.9310  177.4660  138.1430 C   0  0  0  0  0  0  0  0  0  0  0  0
  190.5350  177.4810  141.5990 N   0  0  0  0  0  0  0  0  0  0  0  0
  189.3550  177.5900  142.3980 C   0  0  0  0  0  0  0  0  0  0  0  0
  187.2800  177.8080  142.9430 C   0  0  0  0  0  0  0  0  0  0  0  0
  189.0600  177.2100  139.6150 C   0  0  2  0  0  3  0  0  0  0  0  0
  188.0160  177.7520  144.0740 N   0  0  0  0  0  0  0  0  0  0  0  0
  189.2960  177.6170  143.7410 N   0  0  0  0  0  2  0  0  0  0  0  0
  187.8540  177.7890  140.3890 C   0  0  0  0  0  2  0  0  0  0  0  0
  191.8420  177.2860  142.2070 C   0  0  0  0  0  1  0  0  0  0  0  0
  185.8030  177.9880  142.9130 C   0  0  0  0  0  1  0  0  0  0  0  0
  190.4230  177.7030  140.1550 C   0  0  0  0  0  2  0  0  0  0  0  0
  188.1130  177.6930  141.8560 C   0  0  0  0  0  0  0  0  0  0  0  0
  194.5910  173.6690  135.1350 C   0  0  0  0  0  2  0  0  0  0  0  0
  190.2600  174.2670  137.4710 C   0  0  0  0  0  2  0  0  0  0  0  0
  192.7630  175.3460  136.5340 C   0  0  2  0  0  3  0  0  0  0  0  0
  191.0320  173.6860  136.2920 C   0  0  0  0  0  2  0  0  0  0  0  0
  193.0850  173.3690  135.2360 C   0  0  0  0  0  2  0  0  0  0  0  0
  190.5920  175.6830  137.5880 N   0  0  0  0  0  0  0  0  0  0  0  0
  195.1460  174.4120  136.3500 C   0  0  1  0  0  3  0  0  0  0  0  0
  192.4730  173.8990  136.4550 N   0  0  1  0  0  0  0  0  0  0  0  0
  194.2630  175.6090  136.7230 C   0  0  0  0  0  2  0  0  0  0  0  0
  192.0130  175.9890  137.7020 C   0  0  0  0  0  2  0  0  0  0  0  0
  195.3100  173.4590  137.5240 C   0  0  0  0  0  2  0  0  0  0  0  0
  195.9840  174.1620  138.6870 C   0  0  0  0  0  2  0  0  0  0  0  0
  197.4250  174.4540  138.3250 C   0  0  0  0  0  2  0  0  0  0  0  0
  197.2050  175.3490  140.6410 C   0  0  0  0  0  1  0  0  0  0  0  0
  198.1730  175.0240  139.5180 C   0  0  0  0  0  2  0  0  0  0  0  0
  1  3  2  0  0  0  0
  1  2  1  0  0  0  0
  2  5  2  0  0  0  0
  3  4  1  0  0  0  0
  4 23  1  0  0  0  0
  4  6  2  0  0  0  0
  5  6  1  0  0  0  0
  7 14  1  0  0  0  0
  7  8  1  0  0  0  0
  8 12  1  0  0  0  0
  9 11  2  0  0  0  0
 10  6  1  6  0  0  0
 10 16  1  0  0  0  0
 10 13  1  0  0  0  0
 12 11  1  0  0  0  0
 13 17  1  0  0  0  0
 15  9  1  0  0  0  0
 16  7  1  0  0  0  0
 17  8  2  0  0  0  0
 17  9  1  0  0  0  0
 18 22  1  0  0  0  0
 18 24  1  0  0  0  0
 19 23  1  0  0  0  0
 20 26  1  1  0  0  0
 20 27  1  0  0  0  0
 21 25  1  0  0  0  0
 21 19  1  0  0  0  0
 23 27  1  0  0  0  0
 24 26  1  0  0  0  0
 24 28  1  1  0  0  0
 25 22  1  6  0  0  0
 25 20  1  0  0  0  0
 28 29  1  0  0  0  0
 30 29  1  0  0  0  0
 30 32  1  0  0  0  0
 32 31  1  0  0  0  0
M  END
>  <MODEL>
6

>  <REMARK>
 VINA RESULT:      -6.3      2.238      7.658
  Name = 
  6 active torsions:
  status: ('A' for Active; 'I' for Inactive)
    1  A    between atoms: C_10  and  C_20
    2  A    between atoms: C_10  and  C_24
    3  A    between atoms: N_14  and  C_15
    4  A    between atoms: C_16  and  C_26
    5  A    between atoms: C_17  and  C_20
    6  A    between atoms: C_19  and  C_24
                            x       y       z     vdW  Elec       q    Type
                         _______ _______ _______ _____ _____    ______ ____

>  <TORSDO>
F 6

$$$$
=
 OpenBabel11052417023D

 32 36  0  0  1  0  0  0  0  0999 V2000
  187.9090  178.2780  138.0020 C   0  0  0  0  0  3  0  0  0  0  0  0
  186.5650  178.3700  137.6460 C   0  0  0  0  0  3  0  0  0  0  0  0
  188.2710  178.2160  139.3480 C   0  0  0  0  0  3  0  0  0  0  0  0
  187.2980  178.2470  140.3610 C   0  0  0  0  0  0  0  0  0  0  0  0
  185.5820  178.3870  138.6350 C   0  0  0  0  0  3  0  0  0  0  0  0
  185.9320  178.3250  139.9940 C   0  0  0  0  0  0  0  0  0  0  0  0
  183.9680  179.3260  143.1010 N   0  0  0  0  0  0  0  0  0  0  0  0
  182.6520  178.9880  142.6580 C   0  0  0  0  0  0  0  0  0  0  0  0
  181.0380  178.3430  141.3820 C   0  0  0  0  0  0  0  0  0  0  0  0
  184.8420  178.2780  141.0220 C   0  0  2  0  0  3  0  0  0  0  0  0
  180.5210  178.7060  142.5760 N   0  0  0  0  0  0  0  0  0  0  0  0
  181.5140  179.1050  143.3650 N   0  0  0  0  0  2  0  0  0  0  0  0
  183.4470  178.3500  140.3590 C   0  0  0  0  0  2  0  0  0  0  0  0
  184.2150  179.7640  144.4660 C   0  0  0  0  0  1  0  0  0  0  0  0
  180.2270  177.8690  140.2270 C   0  0  0  0  0  1  0  0  0  0  0  0
  185.0510  179.3530  142.1150 C   0  0  0  0  0  2  0  0  0  0  0  0
  182.4020  178.5010  141.4140 C   0  0  0  0  0  0  0  0  0  0  0  0
  191.6890  175.9270  143.9940 C   0  0  0  0  0  2  0  0  0  0  0  0
  187.1040  177.2720  142.6750 C   0  0  0  0  0  2  0  0  0  0  0  0
  189.9590  177.6090  142.4810 C   0  0  2  0  0  3  0  0  0  0  0  0
  188.1000  176.1530  142.9600 C   0  0  0  0  0  2  0  0  0  0  0  0
  190.2430  175.5390  143.6350 C   0  0  0  0  0  2  0  0  0  0  0  0
  187.7170  178.2080  141.7400 N   0  0  0  0  0  0  0  0  0  0  0  0
  191.8910  177.4320  144.1610 C   0  0  1  0  0  3  0  0  0  0  0  0
  189.3600  176.6950  143.4750 N   0  0  1  0  0  0  0  0  0  0  0  0
  191.2750  178.2110  142.9920 C   0  0  0  0  0  2  0  0  0  0  0  0
  189.0040  178.7570  142.1510 C   0  0  0  0  0  2  0  0  0  0  0  0
  191.3250  177.8980  145.4940 C   0  0  0  0  0  2  0  0  0  0  0  0
  191.3630  176.7720  146.5090 C   0  0  0  0  0  2  0  0  0  0  0  0
  190.0190  176.6800  147.2010 C   0  0  0  0  0  2  0  0  0  0  0  0
  187.7350  177.4730  146.5930 C   0  0  0  0  0  1  0  0  0  0  0  0
  189.1650  177.8950  146.8790 C   0  0  0  0  0  2  0  0  0  0  0  0
  1  3  1  0  0  0  0
  2  1  2  0  0  0  0
  2  5  1  0  0  0  0
  3  4  2  0  0  0  0
  4 23  1  0  0  0  0
  5  6  2  0  0  0  0
  6  4  1  0  0  0  0
  7 14  1  0  0  0  0
  8  7  1  0  0  0  0
  8 12  1  0  0  0  0
  9 17  1  0  0  0  0
  9 11  2  0  0  0  0
 10  6  1  6  0  0  0
 10 16  1  0  0  0  0
 11 12  1  0  0  0  0
 13 10  1  0  0  0  0
 13 17  1  0  0  0  0
 15  9  1  0  0  0  0
 16  7  1  0  0  0  0
 17  8  2  0  0  0  0
 18 24  1  0  0  0  0
 19 21  1  0  0  0  0
 20 27  1  1  0  0  0
 20 26  1  0  0  0  0
 20 25  1  0  0  0  0
 22 18  1  0  0  0  0
 23 27  1  0  0  0  0
 23 19  1  0  0  0  0
 24 28  1  1  0  0  0
 25 21  1  6  0  0  0
 25 22  1  0  0  0  0
 26 24  1  0  0  0  0
 28 29  1  0  0  0  0
 29 30  1  0  0  0  0
 31 32  1  0  0  0  0
 32 30  1  0  0  0  0
M  END
>  <MODEL>
7

>  <REMARK>
 VINA RESULT:      -6.2      5.146      8.860
  Name = 
  6 active torsions:
  status: ('A' for Active; 'I' for Inactive)
    1  A    between atoms: C_10  and  C_20
    2  A    between atoms: C_10  and  C_24
    3  A    between atoms: N_14  and  C_15
    4  A    between atoms: C_16  and  C_26
    5  A    between atoms: C_17  and  C_20
    6  A    between atoms: C_19  and  C_24
                            x       y       z     vdW  Elec       q    Type
                         _______ _______ _______ _____ _____    ______ ____

>  <TORSDO>
F 6

$$$$
=
 OpenBabel11052417023D

 32 36  0  0  1  0  0  0  0  0999 V2000
  187.2790  178.1570  138.4000 C   0  0  0  0  0  3  0  0  0  0  0  0
  188.1220  178.2430  139.5070 C   0  0  0  0  0  3  0  0  0  0  0  0
  185.8990  178.2830  138.5620 C   0  0  0  0  0  3  0  0  0  0  0  0
  185.3370  178.4930  139.8320 C   0  0  0  0  0  0  0  0  0  0  0  0
  187.5840  178.4670  140.7740 C   0  0  0  0  0  3  0  0  0  0  0  0
  186.1970  178.5950  140.9520 C   0  0  0  0  0  0  0  0  0  0  0  0
  183.6520  178.8360  143.7770 N   0  0  0  0  0  0  0  0  0  0  0  0
  184.5240  178.6270  144.8890 C   0  0  0  0  0  0  0  0  0  0  0  0
  186.3100  178.2100  146.0240 C   0  0  0  0  0  0  0  0  0  0  0  0
  185.6670  178.9020  142.3210 C   0  0  2  0  0  3  0  0  0  0  0  0
  185.2830  178.3720  146.8860 N   0  0  0  0  0  0  0  0  0  0  0  0
  184.1800  178.6290  146.1890 N   0  0  0  0  0  2  0  0  0  0  0  0
  186.5210  178.2210  143.4140 C   0  0  0  0  0  2  0  0  0  0  0  0
  182.2520  179.1810  143.9710 C   0  0  0  0  0  1  0  0  0  0  0  0
  187.7030  177.8780  146.4320 C   0  0  0  0  0  1  0  0  0  0  0  0
  184.1610  178.5660  142.4290 C   0  0  0  0  0  2  0  0  0  0  0  0
  185.8530  178.3820  144.7390 C   0  0  0  0  0  0  0  0  0  0  0  0
  180.1280  176.5900  137.1640 C   0  0  0  0  0  2  0  0  0  0  0  0
  183.1900  179.7530  139.4430 C   0  0  0  0  0  2  0  0  0  0  0  0
  182.3230  177.0550  138.9180 C   0  0  2  0  0  3  0  0  0  0  0  0
  182.4540  179.3430  138.1720 C   0  0  0  0  0  2  0  0  0  0  0  0
  180.9700  177.8780  137.1320 C   0  0  0  0  0  2  0  0  0  0  0  0
  183.9030  178.5900  139.9590 N   0  0  0  0  0  0  0  0  0  0  0  0
  180.0290  175.9620  138.5530 C   0  0  1  0  0  3  0  0  0  0  0  0
  181.5510  178.2180  138.4320 N   0  0  1  0  0  0  0  0  0  0  0  0
  181.4080  175.8600  139.2180 C   0  0  0  0  0  2  0  0  0  0  0  0
  183.0880  177.4050  140.1960 C   0  0  0  0  0  2  0  0  0  0  0  0
  179.0540  176.7440  139.4210 C   0  0  0  0  0  2  0  0  0  0  0  0
  179.3150  176.4690  140.8900 C   0  0  0  0  0  2  0  0  0  0  0  0
  179.6530  177.7700  141.5870 C   0  0  0  0  0  2  0  0  0  0  0  0
  179.6820  180.2530  141.3750 C   0  0  0  0  0  1  0  0  0  0  0  0
  179.1680  178.9570  140.7730 C   0  0  0  0  0  2  0  0  0  0  0  0
  1  3  2  0  0  0  0
  1  2  1  0  0  0  0
  2  5  2  0  0  0  0
  3  4  1  0  0  0  0
  4 23  1  0  0  0  0
  4  6  2  0  0  0  0
  5  6  1  0  0  0  0
  7 14  1  0  0  0  0
  7  8  1  0  0  0  0
  8 12  1  0  0  0  0
  9 15  1  0  0  0  0
  9 11  2  0  0  0  0
 10  6  1  6  0  0  0
 10 16  1  0  0  0  0
 10 13  1  0  0  0  0
 12 11  1  0  0  0  0
 13 17  1  0  0  0  0
 16  7  1  0  0  0  0
 17  8  2  0  0  0  0
 17  9  1  0  0  0  0
 18 24  1  0  0  0  0
 19 23  1  0  0  0  0
 20 26  1  1  0  0  0
 20 27  1  0  0  0  0
 21 25  1  0  0  0  0
 21 19  1  0  0  0  0
 22 18  1  0  0  0  0
 23 27  1  0  0  0  0
 24 26  1  0  0  0  0
 24 28  1  1  0  0  0
 25 22  1  6  0  0  0
 25 20  1  0  0  0  0
 28 29  1  0  0  0  0
 29 30  1  0  0  0  0
 32 31  1  0  0  0  0
 32 30  1  0  0  0  0
M  END
>  <MODEL>
8

>  <REMARK>
 VINA RESULT:      -6.0      6.365     10.675
  Name = 
  6 active torsions:
  status: ('A' for Active; 'I' for Inactive)
    1  A    between atoms: C_10  and  C_20
    2  A    between atoms: C_10  and  C_24
    3  A    between atoms: N_14  and  C_15
    4  A    between atoms: C_16  and  C_26
    5  A    between atoms: C_17  and  C_20
    6  A    between atoms: C_19  and  C_24
                            x       y       z     vdW  Elec       q    Type
                         _______ _______ _______ _____ _____    ______ ____

>  <TORSDO>
F 6

$$$$
=
 OpenBabel11052417023D

 32 36  0  0  1  0  0  0  0  0999 V2000
  192.3740  177.5050  141.1650 C   0  0  0  0  0  3  0  0  0  0  0  0
  192.0490  177.4440  142.5190 C   0  0  0  0  0  3  0  0  0  0  0  0
  191.3630  177.5020  140.2040 C   0  0  0  0  0  3  0  0  0  0  0  0
  190.0100  177.4340  140.5780 C   0  0  0  0  0  0  0  0  0  0  0  0
  190.7130  177.3910  142.9120 C   0  0  0  0  0  3  0  0  0  0  0  0
  189.6840  177.3870  141.9560 C   0  0  0  0  0  0  0  0  0  0  0  0
  186.7670  177.7930  144.3730 N   0  0  0  0  0  0  0  0  0  0  0  0
  185.7700  178.2470  143.4550 C   0  0  0  0  0  0  0  0  0  0  0  0
  184.8400  178.9070  141.6250 C   0  0  0  0  0  0  0  0  0  0  0  0
  188.2590  177.3980  142.4230 C   0  0  2  0  0  3  0  0  0  0  0  0
  183.9180  178.9450  142.6120 N   0  0  0  0  0  0  0  0  0  0  0  0
  184.4900  178.5390  143.7410 N   0  0  0  0  0  2  0  0  0  0  0  0
  187.3860  178.3060  141.5280 C   0  0  0  0  0  2  0  0  0  0  0  0
  186.4380  177.5030  145.7600 C   0  0  0  0  0  1  0  0  0  0  0  0
  184.5800  179.3200  140.2190 C   0  0  0  0  0  1  0  0  0  0  0  0
  188.1620  177.7520  143.9260 C   0  0  0  0  0  2  0  0  0  0  0  0
  186.0310  178.4500  142.1360 C   0  0  0  0  0  0  0  0  0  0  0  0
  189.2530  176.2190  134.5940 C   0  0  0  0  0  2  0  0  0  0  0  0
  188.5950  178.6320  138.8730 C   0  0  0  0  0  2  0  0  0  0  0  0
  189.2100  176.2080  137.4410 C   0  0  2  0  0  3  0  0  0  0  0  0
  189.1790  178.6180  137.4650 C   0  0  0  0  0  2  0  0  0  0  0  0
  189.4320  177.4920  135.4410 C   0  0  0  0  0  2  0  0  0  0  0  0
  188.9970  177.4050  139.5520 N   0  0  0  0  0  0  0  0  0  0  0  0
  188.3610  175.1690  135.2530 C   0  0  1  0  0  3  0  0  0  0  0  0
  188.7510  177.4210  136.7340 N   0  0  1  0  0  0  0  0  0  0  0  0
  188.7650  174.9320  136.7140 C   0  0  0  0  0  2  0  0  0  0  0  0
  188.6570  176.1650  138.8670 C   0  0  0  0  0  2  0  0  0  0  0  0
  186.8980  175.5710  135.1440 C   0  0  0  0  0  2  0  0  0  0  0  0
  186.0130  174.5350  135.8090 C   0  0  0  0  0  2  0  0  0  0  0  0
  185.0550  175.2320  136.7530 C   0  0  0  0  0  2  0  0  0  0  0  0
  185.0200  172.8780  137.5740 C   0  0  0  0  0  1  0  0  0  0  0  0
  184.3070  174.2190  137.6030 C   0  0  0  0  0  2  0  0  0  0  0  0
  1  2  1  0  0  0  0
  2  5  2  0  0  0  0
  3  4  1  0  0  0  0
  3  1  2  0  0  0  0
  4  6  2  0  0  0  0
  6  5  1  0  0  0  0
  7 14  1  0  0  0  0
  8 12  1  0  0  0  0
  8  7  1  0  0  0  0
  9 17  1  0  0  0  0
  9 11  2  0  0  0  0
 10  6  1  6  0  0  0
 10 16  1  0  0  0  0
 11 12  1  0  0  0  0
 13 17  1  0  0  0  0
 13 10  1  0  0  0  0
 15  9  1  0  0  0  0
 16  7  1  0  0  0  0
 17  8  2  0  0  0  0
 18 24  1  0  0  0  0
 18 22  1  0  0  0  0
 19 23  1  0  0  0  0
 20 26  1  6  0  0  0
 20 27  1  0  0  0  0
 21 19  1  0  0  0  0
 23  4  1  0  0  0  0
 24 28  1  1  0  0  0
 24 26  1  0  0  0  0
 25 22  1  6  0  0  0
 25 20  1  0  0  0  0
 25 21  1  0  0  0  0
 27 23  1  0  0  0  0
 28 29  1  0  0  0  0
 29 30  1  0  0  0  0
 30 32  1  0  0  0  0
 31 32  1  0  0  0  0
M  END
>  <MODEL>
9

>  <REMARK>
 VINA RESULT:      -6.0      3.761      8.914
  Name = 
  6 active torsions:
  status: ('A' for Active; 'I' for Inactive)
    1  A    between atoms: C_10  and  C_20
    2  A    between atoms: C_10  and  C_24
    3  A    between atoms: N_14  and  C_15
    4  A    between atoms: C_16  and  C_26
    5  A    between atoms: C_17  and  C_20
    6  A    between atoms: C_19  and  C_24
                            x       y       z     vdW  Elec       q    Type
                         _______ _______ _______ _____ _____    ______ ____

>  <TORSDO>
F 6

$$$$
