=
 OpenBabel11052412553D

 25 28  0  0  1  0  0  0  0  0999 V2000
  189.4140  177.3680  145.7580 C   0  0  0  0  0  0  0  0  0  0  0  0
  188.1820  178.0390  145.5390 C   0  0  0  0  0  0  0  0  0  0  0  0
  188.8440  177.1480  148.1170 C   0  0  0  0  0  3  0  0  0  0  0  0
  190.3810  177.1490  144.7010 N   0  0  0  0  0  0  0  0  0  0  0  0
  186.5820  177.5230  143.8000 N   0  0  0  0  0  0  0  0  0  0  0  0
  187.6590  177.8440  147.9050 C   0  0  0  0  0  3  0  0  0  0  0  0
  191.3670  176.0790  144.8870 C   0  0  0  0  0  2  0  0  0  0  0  0
  192.0070  176.2230  146.2580 C   0  0  0  0  0  2  0  0  0  0  0  0
  186.0030  179.0200  146.4110 C   0  0  2  0  0  3  0  0  0  0  0  0
  185.4070  179.3760  147.6230 O   0  0  0  0  0  1  0  0  0  0  0  0
  187.7170  178.3690  144.1500 C   0  0  0  0  0  2  0  0  0  0  0  0
  189.7210  176.9100  147.0620 C   0  0  0  0  0  0  0  0  0  0  0  0
  190.9380  176.0710  147.3340 C   0  0  0  0  0  2  0  0  0  0  0  0
  185.0330  178.1770  145.5930 C   0  0  0  0  0  2  0  0  0  0  0  0
  185.3650  178.2650  144.1060 C   0  0  0  0  0  2  0  0  0  0  0  0
  187.3150  178.2980  146.6270 C   0  0  0  0  0  0  0  0  0  0  0  0
  191.9630  178.0530  143.0680 C   0  0  0  0  0  2  0  0  0  0  0  0
  191.6280  179.2000  143.9930 C   0  0  0  0  0  2  0  0  0  0  0  0
  190.5660  178.1640  143.6490 C   0  0  0  0  0  3  0  0  0  0  0  0
  186.6110  177.3510  142.3580 C   0  0  0  0  0  2  0  0  0  0  0  0
  188.1190  178.6930  141.0730 O   0  0  0  0  0  1  0  0  0  0  0  0
  186.8590  178.6880  141.6760 C   0  0  1  0  0  3  0  0  0  0  0  0
  185.8070  178.9470  140.6500 C   0  0  0  0  0  0  0  0  0  0  0  0
  184.6910  179.4250  140.9870 O   0  0  0  0  0  0  0  0  0  0  0  0
  186.0670  178.6550  139.2840 N   0  0  0  0  0  1  0  0  0  0  0  0
  1 12  1  0  0  0  0
  2  1  2  0  0  0  0
  2 16  1  0  0  0  0
  4  7  1  0  0  0  0
  4  1  1  0  0  0  0
  5 15  1  0  0  0  0
  5 11  1  0  0  0  0
  6  3  1  0  0  0  0
  7  8  1  0  0  0  0
  8 13  1  0  0  0  0
  9 16  1  0  0  0  0
  9 10  1  1  0  0  0
 11  2  1  0  0  0  0
 12 13  1  0  0  0  0
 12  3  2  0  0  0  0
 14  9  1  0  0  0  0
 15 14  1  0  0  0  0
 16  6  2  0  0  0  0
 17 19  1  0  0  0  0
 17 18  1  0  0  0  0
 19 18  1  0  0  0  0
 19  4  1  0  0  0  0
 20  5  1  0  0  0  0
 22 21  1  6  0  0  0
 22 20  1  0  0  0  0
 23 24  2  0  0  0  0
 23 22  1  0  0  0  0
 25 23  1  0  0  0  0
M  END
>  <MODEL>
1

>  <REMARK>
 VINA RESULT:      -8.0      0.000      0.000
  Name = 
  4 active torsions:
  status: ('A' for Active; 'I' for Inactive)
    1  A    between atoms: C_2  and  C_25
    2  A    between atoms: N_5  and  C_22
    3  A    between atoms: N_6  and  C_15
    4  A    between atoms: C_15  and  C_25
                            x       y       z     vdW  Elec       q    Type
                         _______ _______ _______ _____ _____    ______ ____

>  <TORSDO>
F 4

$$$$
=
 OpenBabel11052412553D

 25 28  0  0  1  0  0  0  0  0999 V2000
  187.6330  177.7950  145.1310 C   0  0  0  0  0  0  0  0  0  0  0  0
  188.5000  177.2900  144.1260 C   0  0  0  0  0  0  0  0  0  0  0  0
  189.2440  177.1100  146.8270 C   0  0  0  0  0  3  0  0  0  0  0  0
  186.3420  178.3770  144.8240 N   0  0  0  0  0  0  0  0  0  0  0  0
  189.1930  178.4710  142.1320 N   0  0  0  0  0  0  0  0  0  0  0  0
  190.0690  176.5770  145.8420 C   0  0  0  0  0  3  0  0  0  0  0  0
  185.7420  179.2700  145.8210 C   0  0  0  0  0  2  0  0  0  0  0  0
  185.7830  178.5970  147.1830 C   0  0  0  0  0  2  0  0  0  0  0  0
  190.6410  176.1030  143.4330 C   0  0  2  0  0  3  0  0  0  0  0  0
  191.6560  175.3250  143.9950 O   0  0  0  0  0  1  0  0  0  0  0  0
  188.2200  177.5270  142.6700 C   0  0  0  0  0  2  0  0  0  0  0  0
  188.0350  177.7110  146.4860 C   0  0  0  0  0  0  0  0  0  0  0  0
  187.2330  178.3530  147.5830 C   0  0  0  0  0  2  0  0  0  0  0  0
  191.2570  177.2190  142.5980 C   0  0  0  0  0  2  0  0  0  0  0  0
  190.2740  177.6980  141.5320 C   0  0  0  0  0  2  0  0  0  0  0  0
  189.7120  176.6560  144.4910 C   0  0  0  0  0  0  0  0  0  0  0  0
  185.0760  178.9690  142.8160 C   0  0  0  0  0  2  0  0  0  0  0  0
  184.0850  178.3060  143.7460 C   0  0  0  0  0  2  0  0  0  0  0  0
  185.5340  177.8370  143.7180 C   0  0  0  0  0  3  0  0  0  0  0  0
  188.5390  179.1800  141.0460 C   0  0  0  0  0  2  0  0  0  0  0  0
  186.5710  178.5420  139.8440 O   0  0  0  0  0  1  0  0  0  0  0  0
  187.9020  178.1910  140.0820 C   0  0  1  0  0  3  0  0  0  0  0  0
  188.6560  178.1660  138.7960 C   0  0  0  0  0  0  0  0  0  0  0  0
  189.0410  179.2390  138.2590 O   0  0  0  0  0  0  0  0  0  0  0  0
  188.9470  176.9210  138.1730 N   0  0  0  0  0  1  0  0  0  0  0  0
  1 12  1  0  0  0  0
  2 16  1  0  0  0  0
  2  1  2  0  0  0  0
  4  1  1  0  0  0  0
  4  7  1  0  0  0  0
  5 11  1  0  0  0  0
  6  3  1  0  0  0  0
  7  8  1  0  0  0  0
  8 13  1  0  0  0  0
  9 10  1  1  0  0  0
  9 16  1  0  0  0  0
 11  2  1  0  0  0  0
 12  3  2  0  0  0  0
 12 13  1  0  0  0  0
 14  9  1  0  0  0  0
 15  5  1  0  0  0  0
 15 14  1  0  0  0  0
 16  6  2  0  0  0  0
 17 19  1  0  0  0  0
 17 18  1  0  0  0  0
 19 18  1  0  0  0  0
 19  4  1  0  0  0  0
 20  5  1  0  0  0  0
 22 21  1  6  0  0  0
 22 20  1  0  0  0  0
 23 22  1  0  0  0  0
 24 23  2  0  0  0  0
 25 23  1  0  0  0  0
M  END
>  <MODEL>
2

>  <REMARK>
 VINA RESULT:      -7.9      2.337      4.739
  Name = 
  4 active torsions:
  status: ('A' for Active; 'I' for Inactive)
    1  A    between atoms: C_2  and  C_25
    2  A    between atoms: N_5  and  C_22
    3  A    between atoms: N_6  and  C_15
    4  A    between atoms: C_15  and  C_25
                            x       y       z     vdW  Elec       q    Type
                         _______ _______ _______ _____ _____    ______ ____

>  <TORSDO>
F 4

$$$$
=
 OpenBabel11052412553D

 25 28  0  0  1  0  0  0  0  0999 V2000
  189.3410  177.4530  145.7060 C   0  0  0  0  0  0  0  0  0  0  0  0
  188.1050  178.0780  145.3890 C   0  0  0  0  0  0  0  0  0  0  0  0
  188.4890  176.9630  147.9370 C   0  0  0  0  0  3  0  0  0  0  0  0
  190.4460  177.3930  144.7720 N   0  0  0  0  0  0  0  0  0  0  0  0
  186.7770  177.6620  143.4120 N   0  0  0  0  0  0  0  0  0  0  0  0
  187.2980  177.6150  147.6360 C   0  0  0  0  0  3  0  0  0  0  0  0
  191.4670  176.3620  144.9850 C   0  0  0  0  0  2  0  0  0  0  0  0
  191.9160  176.3970  146.4370 C   0  0  0  0  0  2  0  0  0  0  0  0
  185.7750  178.8520  146.0530 C   0  0  2  0  0  3  0  0  0  0  0  0
  185.0070  179.0510  147.2030 O   0  0  0  0  0  1  0  0  0  0  0  0
  187.8010  178.5250  143.9890 C   0  0  0  0  0  2  0  0  0  0  0  0
  189.5070  176.8800  146.9910 C   0  0  0  0  0  0  0  0  0  0  0  0
  190.7310  176.0810  147.3410 C   0  0  0  0  0  2  0  0  0  0  0  0
  184.9730  178.0480  145.0370 C   0  0  0  0  0  2  0  0  0  0  0  0
  185.4850  178.3050  143.6220 C   0  0  0  0  0  2  0  0  0  0  0  0
  187.0920  178.1800  146.3720 C   0  0  0  0  0  0  0  0  0  0  0  0
  191.9880  178.2820  143.0940 C   0  0  0  0  0  2  0  0  0  0  0  0
  191.9530  179.3090  144.2030 C   0  0  0  0  0  2  0  0  0  0  0  0
  190.6980  178.5190  143.8550 C   0  0  0  0  0  3  0  0  0  0  0  0
  187.0010  177.6400  141.9770 C   0  0  0  0  0  2  0  0  0  0  0  0
  188.9850  176.3060  141.8910 O   0  0  0  0  0  1  0  0  0  0  0  0
  188.4920  177.5960  141.6790 C   0  0  1  0  0  3  0  0  0  0  0  0
  188.7500  178.0110  140.2700 C   0  0  0  0  0  0  0  0  0  0  0  0
  187.8610  178.6100  139.6080 O   0  0  0  0  0  0  0  0  0  0  0  0
  190.0090  177.7320  139.6720 N   0  0  0  0  0  1  0  0  0  0  0  0
  1 12  1  0  0  0  0
  2  1  2  0  0  0  0
  2 16  1  0  0  0  0
  4  7  1  0  0  0  0
  4  1  1  0  0  0  0
  5 15  1  0  0  0  0
  5 11  1  0  0  0  0
  6  3  1  0  0  0  0
  7  8  1  0  0  0  0
  8 13  1  0  0  0  0
  9 16  1  0  0  0  0
  9 10  1  1  0  0  0
 11  2  1  0  0  0  0
 12 13  1  0  0  0  0
 12  3  2  0  0  0  0
 14  9  1  0  0  0  0
 15 14  1  0  0  0  0
 16  6  2  0  0  0  0
 17 19  1  0  0  0  0
 17 18  1  0  0  0  0
 19 18  1  0  0  0  0
 19  4  1  0  0  0  0
 20  5  1  0  0  0  0
 22 21  1  6  0  0  0
 22 20  1  0  0  0  0
 23 22  1  0  0  0  0
 24 23  2  0  0  0  0
 25 23  1  0  0  0  0
M  END
>  <MODEL>
3

>  <REMARK>
 VINA RESULT:      -7.8      1.276      1.457
  Name = 
  4 active torsions:
  status: ('A' for Active; 'I' for Inactive)
    1  A    between atoms: C_2  and  C_25
    2  A    between atoms: N_5  and  C_22
    3  A    between atoms: N_6  and  C_15
    4  A    between atoms: C_15  and  C_25
                            x       y       z     vdW  Elec       q    Type
                         _______ _______ _______ _____ _____    ______ ____

>  <TORSDO>
F 4

$$$$
=
 OpenBabel11052412553D

 25 28  0  0  1  0  0  0  0  0999 V2000
  188.0610  177.7400  145.5660 C   0  0  0  0  0  0  0  0  0  0  0  0
  188.0610  177.3970  144.1870 C   0  0  0  0  0  0  0  0  0  0  0  0
  190.4240  177.1570  145.6830 C   0  0  0  0  0  3  0  0  0  0  0  0
  186.8670  178.1820  146.2590 N   0  0  0  0  0  0  0  0  0  0  0  0
  187.1840  178.7590  142.3920 N   0  0  0  0  0  0  0  0  0  0  0  0
  190.4080  176.7810  144.3440 C   0  0  0  0  0  3  0  0  0  0  0  0
  187.0400  178.9410  147.5010 C   0  0  0  0  0  2  0  0  0  0  0  0
  188.0140  178.2030  148.4060 C   0  0  0  0  0  2  0  0  0  0  0  0
  189.2500  176.5110  142.1210 C   0  0  2  0  0  3  0  0  0  0  0  0
  190.4200  175.8290  141.7770 O   0  0  0  0  0  1  0  0  0  0  0  0
  186.8690  177.6790  143.3190 C   0  0  0  0  0  2  0  0  0  0  0  0
  189.2680  177.6300  146.2980 C   0  0  0  0  0  0  0  0  0  0  0  0
  189.3720  178.1100  147.7180 C   0  0  0  0  0  2  0  0  0  0  0  0
  189.0930  177.7370  141.2290 C   0  0  0  0  0  2  0  0  0  0  0  0
  187.6270  178.1540  141.1420 C   0  0  0  0  0  2  0  0  0  0  0  0
  189.2370  176.8910  143.5850 C   0  0  0  0  0  0  0  0  0  0  0  0
  184.5740  178.7290  145.6040 C   0  0  0  0  0  2  0  0  0  0  0  0
  184.4590  177.9610  146.9010 C   0  0  0  0  0  2  0  0  0  0  0  0
  185.5560  177.6120  145.9040 C   0  0  0  0  0  3  0  0  0  0  0  0
  185.9370  179.4450  142.1020 C   0  0  0  0  0  2  0  0  0  0  0  0
  183.8030  178.4340  142.4810 O   0  0  0  0  0  1  0  0  0  0  0  0
  184.8950  178.4520  141.6100 C   0  0  1  0  0  3  0  0  0  0  0  0
  184.4410  178.8170  140.2370 C   0  0  0  0  0  0  0  0  0  0  0  0
  184.8620  179.8670  139.6830 O   0  0  0  0  0  0  0  0  0  0  0  0
  183.5300  177.9710  139.5480 N   0  0  0  0  0  1  0  0  0  0  0  0
  1  4  1  0  0  0  0
  1 12  1  0  0  0  0
  2  1  2  0  0  0  0
  3 12  2  0  0  0  0
  4  7  1  0  0  0  0
  5 11  1  0  0  0  0
  6  3  1  0  0  0  0
  7  8  1  0  0  0  0
  9 10  1  6  0  0  0
  9 16  1  0  0  0  0
 11  2  1  0  0  0  0
 12 13  1  0  0  0  0
 13  8  1  0  0  0  0
 14  9  1  0  0  0  0
 15 14  1  0  0  0  0
 15  5  1  0  0  0  0
 16  2  1  0  0  0  0
 16  6  2  0  0  0  0
 17 19  1  0  0  0  0
 17 18  1  0  0  0  0
 19  4  1  0  0  0  0
 19 18  1  0  0  0  0
 20  5  1  0  0  0  0
 22 20  1  0  0  0  0
 22 21  1  1  0  0  0
 23 22  1  0  0  0  0
 24 23  2  0  0  0  0
 25 23  1  0  0  0  0
M  END
>  <MODEL>
4

>  <REMARK>
 VINA RESULT:      -7.5      2.132      4.416
  Name = 
  4 active torsions:
  status: ('A' for Active; 'I' for Inactive)
    1  A    between atoms: C_2  and  C_25
    2  A    between atoms: N_5  and  C_22
    3  A    between atoms: N_6  and  C_15
    4  A    between atoms: C_15  and  C_25
                            x       y       z     vdW  Elec       q    Type
                         _______ _______ _______ _____ _____    ______ ____

>  <TORSDO>
F 4

$$$$
=
 OpenBabel11052412553D

 25 28  0  0  1  0  0  0  0  0999 V2000
  187.8150  177.9210  142.9420 C   0  0  0  0  0  0  0  0  0  0  0  0
  187.5390  178.3530  141.6170 C   0  0  0  0  0  0  0  0  0  0  0  0
  185.4420  178.1040  143.4670 C   0  0  0  0  0  3  0  0  0  0  0  0
  189.1580  177.6320  143.4030 N   0  0  0  0  0  0  0  0  0  0  0  0
  188.3040  177.2760  139.5910 N   0  0  0  0  0  0  0  0  0  0  0  0
  185.1840  178.5680  142.1820 C   0  0  0  0  0  3  0  0  0  0  0  0
  189.3050  176.7720  144.5810 C   0  0  0  0  0  2  0  0  0  0  0  0
  188.3930  177.2790  145.6870 C   0  0  0  0  0  2  0  0  0  0  0  0
  185.9090  179.1730  139.8440 C   0  0  2  0  0  3  0  0  0  0  0  0
  184.6110  179.6790  139.7450 O   0  0  0  0  0  1  0  0  0  0  0  0
  188.6020  178.3280  140.5570 C   0  0  0  0  0  2  0  0  0  0  0  0
  186.7410  177.7840  143.8540 C   0  0  0  0  0  0  0  0  0  0  0  0
  186.9430  177.1970  145.2230 C   0  0  0  0  0  2  0  0  0  0  0  0
  186.1000  178.0530  138.8280 C   0  0  0  0  0  2  0  0  0  0  0  0
  187.5780  177.8850  138.4840 C   0  0  0  0  0  2  0  0  0  0  0  0
  186.2180  178.7010  141.2480 C   0  0  0  0  0  0  0  0  0  0  0  0
  191.5550  178.0490  143.6630 C   0  0  0  0  0  2  0  0  0  0  0  0
  190.8750  179.3650  143.9630 C   0  0  0  0  0  2  0  0  0  0  0  0
  190.2940  178.4300  142.9100 C   0  0  0  0  0  3  0  0  0  0  0  0
  189.5750  176.8230  139.0540 C   0  0  0  0  0  2  0  0  0  0  0  0
  190.4560  177.0630  136.8420 O   0  0  0  0  0  1  0  0  0  0  0  0
  189.4260  176.4740  137.5810 C   0  0  1  0  0  3  0  0  0  0  0  0
  189.4530  174.9940  137.3960 C   0  0  0  0  0  0  0  0  0  0  0  0
  188.4290  174.3830  136.9890 O   0  0  0  0  0  0  0  0  0  0  0  0
  190.6430  174.2700  137.6770 N   0  0  0  0  0  1  0  0  0  0  0  0
  1  4  1  0  0  0  0
  1 12  1  0  0  0  0
  2  1  2  0  0  0  0
  3 12  2  0  0  0  0
  4  7  1  0  0  0  0
  5 11  1  0  0  0  0
  6  3  1  0  0  0  0
  7  8  1  0  0  0  0
  9 10  1  1  0  0  0
  9 16  1  0  0  0  0
 11  2  1  0  0  0  0
 12 13  1  0  0  0  0
 13  8  1  0  0  0  0
 14  9  1  0  0  0  0
 15 14  1  0  0  0  0
 15  5  1  0  0  0  0
 16  2  1  0  0  0  0
 16  6  2  0  0  0  0
 17 18  1  0  0  0  0
 19  4  1  0  0  0  0
 19 17  1  0  0  0  0
 19 18  1  0  0  0  0
 20  5  1  0  0  0  0
 22 21  1  6  0  0  0
 22 20  1  0  0  0  0
 23 22  1  0  0  0  0
 23 25  1  0  0  0  0
 24 23  2  0  0  0  0
M  END
>  <MODEL>
5

>  <REMARK>
 VINA RESULT:      -7.4      3.051      5.030
  Name = 
  4 active torsions:
  status: ('A' for Active; 'I' for Inactive)
    1  A    between atoms: C_2  and  C_25
    2  A    between atoms: N_5  and  C_22
    3  A    between atoms: N_6  and  C_15
    4  A    between atoms: C_15  and  C_25
                            x       y       z     vdW  Elec       q    Type
                         _______ _______ _______ _____ _____    ______ ____

>  <TORSDO>
F 4

$$$$
=
 OpenBabel11052412553D

 25 28  0  0  1  0  0  0  0  0999 V2000
  187.7230  178.0110  142.9890 C   0  0  0  0  0  0  0  0  0  0  0  0
  187.4280  178.4380  141.6670 C   0  0  0  0  0  0  0  0  0  0  0  0
  185.3460  178.1050  143.5190 C   0  0  0  0  0  3  0  0  0  0  0  0
  189.0760  177.7700  143.4470 N   0  0  0  0  0  0  0  0  0  0  0  0
  188.2280  177.3980  139.6350 N   0  0  0  0  0  0  0  0  0  0  0  0
  185.0680  178.5640  142.2370 C   0  0  0  0  0  3  0  0  0  0  0  0
  189.2570  176.9110  144.6210 C   0  0  0  0  0  2  0  0  0  0  0  0
  188.3290  177.3790  145.7300 C   0  0  0  0  0  2  0  0  0  0  0  0
  185.7660  179.2050  139.9010 C   0  0  2  0  0  3  0  0  0  0  0  0
  184.4500  179.6630  139.8060 O   0  0  0  0  0  1  0  0  0  0  0  0
  188.4890  178.4560  140.6050 C   0  0  0  0  0  2  0  0  0  0  0  0
  186.6560  177.8310  143.9030 C   0  0  0  0  0  0  0  0  0  0  0  0
  186.8830  177.2470  145.2690 C   0  0  0  0  0  2  0  0  0  0  0  0
  185.9960  178.0970  138.8800 C   0  0  0  0  0  2  0  0  0  0  0  0
  187.4780  177.9840  138.5310 C   0  0  0  0  0  2  0  0  0  0  0  0
  186.0950  178.7390  141.3020 C   0  0  0  0  0  0  0  0  0  0  0  0
  191.4890  178.1550  143.5760 C   0  0  0  0  0  2  0  0  0  0  0  0
  190.8420  179.4370  144.0500 C   0  0  0  0  0  2  0  0  0  0  0  0
  190.1810  178.6110  142.9550 C   0  0  0  0  0  3  0  0  0  0  0  0
  189.5140  176.9930  139.0940 C   0  0  0  0  0  2  0  0  0  0  0  0
  190.4480  175.9000  141.0050 O   0  0  0  0  0  1  0  0  0  0  0  0
  190.5740  177.0220  140.1840 C   0  0  1  0  0  3  0  0  0  0  0  0
  191.9370  177.0560  139.5780 C   0  0  0  0  0  0  0  0  0  0  0  0
  192.9230  177.4700  140.2440 O   0  0  0  0  0  0  0  0  0  0  0  0
  192.1240  176.6130  138.2400 N   0  0  0  0  0  1  0  0  0  0  0  0
  1  4  1  0  0  0  0
  1 12  1  0  0  0  0
  2  1  2  0  0  0  0
  3 12  2  0  0  0  0
  4  7  1  0  0  0  0
  5 11  1  0  0  0  0
  6  3  1  0  0  0  0
  7  8  1  0  0  0  0
  9 10  1  1  0  0  0
  9 16  1  0  0  0  0
 11  2  1  0  0  0  0
 12 13  1  0  0  0  0
 13  8  1  0  0  0  0
 14  9  1  0  0  0  0
 15 14  1  0  0  0  0
 15  5  1  0  0  0  0
 16  2  1  0  0  0  0
 16  6  2  0  0  0  0
 17 18  1  0  0  0  0
 19  4  1  0  0  0  0
 19 17  1  0  0  0  0
 19 18  1  0  0  0  0
 20  5  1  0  0  0  0
 20 22  1  0  0  0  0
 22 21  1  1  0  0  0
 23 22  1  0  0  0  0
 23 24  2  0  0  0  0
 25 23  1  0  0  0  0
M  END
>  <MODEL>
6

>  <REMARK>
 VINA RESULT:      -7.3      2.557      5.003
  Name = 
  4 active torsions:
  status: ('A' for Active; 'I' for Inactive)
    1  A    between atoms: C_2  and  C_25
    2  A    between atoms: N_5  and  C_22
    3  A    between atoms: N_6  and  C_15
    4  A    between atoms: C_15  and  C_25
                            x       y       z     vdW  Elec       q    Type
                         _______ _______ _______ _____ _____    ______ ____

>  <TORSDO>
F 4

$$$$
=
 OpenBabel11052412553D

 25 28  0  0  1  0  0  0  0  0999 V2000
  187.2730  178.0040  145.6350 C   0  0  0  0  0  0  0  0  0  0  0  0
  188.5280  177.4010  145.3520 C   0  0  0  0  0  0  0  0  0  0  0  0
  187.7840  177.8860  148.0150 C   0  0  0  0  0  3  0  0  0  0  0  0
  186.3250  178.3540  144.5960 N   0  0  0  0  0  0  0  0  0  0  0  0
  190.1520  178.2040  143.7510 N   0  0  0  0  0  0  0  0  0  0  0  0
  188.9910  177.2560  147.7340 C   0  0  0  0  0  3  0  0  0  0  0  0
  185.3080  179.3620  144.9120 C   0  0  0  0  0  2  0  0  0  0  0  0
  184.6400  179.0030  146.2290 C   0  0  0  0  0  2  0  0  0  0  0  0
  190.7110  176.3510  146.1280 C   0  0  2  0  0  3  0  0  0  0  0  0
  191.2890  175.8340  147.2900 O   0  0  0  0  0  1  0  0  0  0  0  0
  189.0330  177.2890  143.9420 C   0  0  0  0  0  2  0  0  0  0  0  0
  186.9250  178.2570  146.9840 C   0  0  0  0  0  0  0  0  0  0  0  0
  185.6800  179.0190  147.3440 C   0  0  0  0  0  2  0  0  0  0  0  0
  191.6770  177.3280  145.4690 C   0  0  0  0  0  2  0  0  0  0  0  0
  191.3810  177.4530  143.9760 C   0  0  0  0  0  2  0  0  0  0  0  0
  189.3760  177.0040  146.4120 C   0  0  0  0  0  0  0  0  0  0  0  0
  186.3390  178.3440  142.1500 C   0  0  0  0  0  2  0  0  0  0  0  0
  184.9720  177.8390  142.5540 C   0  0  0  0  0  2  0  0  0  0  0  0
  186.1910  177.5010  143.4030 C   0  0  0  0  0  3  0  0  0  0  0  0
  190.1510  178.5860  142.3490 C   0  0  0  0  0  2  0  0  0  0  0  0
  188.9000  177.1660  140.8850 O   0  0  0  0  0  1  0  0  0  0  0  0
  190.1570  177.3460  141.4680 C   0  0  1  0  0  3  0  0  0  0  0  0
  191.1950  177.4730  140.4050 C   0  0  0  0  0  0  0  0  0  0  0  0
  192.4150  177.5500  140.7090 O   0  0  0  0  0  0  0  0  0  0  0  0
  190.8040  177.5030  139.0380 N   0  0  0  0  0  1  0  0  0  0  0  0
  1 12  1  0  0  0  0
  2  1  2  0  0  0  0
  2 16  1  0  0  0  0
  4  7  1  0  0  0  0
  4  1  1  0  0  0  0
  5 11  1  0  0  0  0
  5 15  1  0  0  0  0
  6  3  1  0  0  0  0
  7  8  1  0  0  0  0
  8 13  1  0  0  0  0
  9 16  1  0  0  0  0
  9 10  1  1  0  0  0
 11  2  1  0  0  0  0
 12 13  1  0  0  0  0
 12  3  2  0  0  0  0
 14  9  1  0  0  0  0
 15 14  1  0  0  0  0
 16  6  2  0  0  0  0
 17 18  1  0  0  0  0
 17 19  1  0  0  0  0
 18 19  1  0  0  0  0
 19  4  1  0  0  0  0
 20  5  1  0  0  0  0
 22 21  1  6  0  0  0
 22 20  1  0  0  0  0
 23 24  2  0  0  0  0
 23 22  1  0  0  0  0
 25 23  1  0  0  0  0
M  END
>  <MODEL>
7

>  <REMARK>
 VINA RESULT:      -7.3      2.298      4.947
  Name = 
  4 active torsions:
  status: ('A' for Active; 'I' for Inactive)
    1  A    between atoms: C_2  and  C_25
    2  A    between atoms: N_5  and  C_22
    3  A    between atoms: N_6  and  C_15
    4  A    between atoms: C_15  and  C_25
                            x       y       z     vdW  Elec       q    Type
                         _______ _______ _______ _____ _____    ______ ____

>  <TORSDO>
F 4

$$$$
=
 OpenBabel11052412553D

 25 28  0  0  1  0  0  0  0  0999 V2000
  187.5530  177.6870  142.7350 C   0  0  0  0  0  0  0  0  0  0  0  0
  186.3150  178.3630  142.8980 C   0  0  0  0  0  0  0  0  0  0  0  0
  187.5700  177.2010  145.1240 C   0  0  0  0  0  3  0  0  0  0  0  0
  188.2300  177.5980  141.4570 N   0  0  0  0  0  0  0  0  0  0  0  0
  184.3320  178.0220  141.5560 N   0  0  0  0  0  0  0  0  0  0  0  0
  186.3800  177.9020  145.2850 C   0  0  0  0  0  3  0  0  0  0  0  0
  189.2150  176.5260  141.2800 C   0  0  0  0  0  2  0  0  0  0  0  0
  190.1720  176.5250  142.4610 C   0  0  0  0  0  2  0  0  0  0  0  0
  184.4290  179.2160  144.3770 C   0  0  2  0  0  3  0  0  0  0  0  0
  184.1510  179.4290  145.7300 O   0  0  0  0  0  1  0  0  0  0  0  0
  185.5310  178.8390  141.7090 C   0  0  0  0  0  2  0  0  0  0  0  0
  188.1610  177.0920  143.8680 C   0  0  0  0  0  0  0  0  0  0  0  0
  189.3940  176.2420  143.7410 C   0  0  0  0  0  2  0  0  0  0  0  0
  183.2760  178.4560  143.7330 C   0  0  0  0  0  2  0  0  0  0  0  0
  183.2380  178.7110  142.2280 C   0  0  0  0  0  2  0  0  0  0  0  0
  185.7430  178.4900  144.1860 C   0  0  0  0  0  0  0  0  0  0  0  0
  187.7250  178.2270  139.1480 C   0  0  0  0  0  2  0  0  0  0  0  0
  189.1710  178.6070  139.3700 C   0  0  0  0  0  2  0  0  0  0  0  0
  188.1690  178.7250  140.5110 C   0  0  0  0  0  3  0  0  0  0  0  0
  184.0070  178.0110  140.1400 C   0  0  0  0  0  2  0  0  0  0  0  0
  184.4990  180.0650  139.0170 O   0  0  0  0  0  1  0  0  0  0  0  0
  183.4980  179.3780  139.7080 C   0  0  1  0  0  3  0  0  0  0  0  0
  182.2950  179.2300  138.8400 C   0  0  0  0  0  0  0  0  0  0  0  0
  181.9100  180.1840  138.1120 O   0  0  0  0  0  0  0  0  0  0  0  0
  181.5780  178.0030  138.8320 N   0  0  0  0  0  1  0  0  0  0  0  0
  1  2  2  0  0  0  0
  1 12  1  0  0  0  0
  2 16  1  0  0  0  0
  3  6  1  0  0  0  0
  4  1  1  0  0  0  0
  5 11  1  0  0  0  0
  5 15  1  0  0  0  0
  7  4  1  0  0  0  0
  7  8  1  0  0  0  0
  8 13  1  0  0  0  0
  9 10  1  1  0  0  0
 11  2  1  0  0  0  0
 12  3  2  0  0  0  0
 13 12  1  0  0  0  0
 14  9  1  0  0  0  0
 15 14  1  0  0  0  0
 16  9  1  0  0  0  0
 16  6  2  0  0  0  0
 17 18  1  0  0  0  0
 17 19  1  0  0  0  0
 18 19  1  0  0  0  0
 19  4  1  0  0  0  0
 20  5  1  0  0  0  0
 22 21  1  6  0  0  0
 22 20  1  0  0  0  0
 23 22  1  0  0  0  0
 24 23  2  0  0  0  0
 25 23  1  0  0  0  0
M  END
>  <MODEL>
8

>  <REMARK>
 VINA RESULT:      -7.1      2.548      3.768
  Name = 
  4 active torsions:
  status: ('A' for Active; 'I' for Inactive)
    1  A    between atoms: C_2  and  C_25
    2  A    between atoms: N_5  and  C_22
    3  A    between atoms: N_6  and  C_15
    4  A    between atoms: C_15  and  C_25
                            x       y       z     vdW  Elec       q    Type
                         _______ _______ _______ _____ _____    ______ ____

>  <TORSDO>
F 4

$$$$
=
 OpenBabel11052412553D

 25 28  0  0  1  0  0  0  0  0999 V2000
  189.2320  177.3450  143.9930 C   0  0  0  0  0  0  0  0  0  0  0  0
  188.8820  177.1740  142.6270 C   0  0  0  0  0  0  0  0  0  0  0  0
  191.5520  176.8500  143.4310 C   0  0  0  0  0  3  0  0  0  0  0  0
  188.2530  177.6490  145.0170 N   0  0  0  0  0  0  0  0  0  0  0  0
  187.5630  178.7110  141.3050 N   0  0  0  0  0  0  0  0  0  0  0  0
  191.1950  176.6410  142.1030 C   0  0  0  0  0  3  0  0  0  0  0  0
  188.7330  178.2550  146.2630 C   0  0  0  0  0  2  0  0  0  0  0  0
  189.9120  177.4520  146.7870 C   0  0  0  0  0  2  0  0  0  0  0  0
  189.5080  176.6000  140.2300 C   0  0  2  0  0  3  0  0  0  0  0  0
  190.5560  176.0140  139.5150 O   0  0  0  0  0  1  0  0  0  0  0  0
  187.5050  177.5120  142.1340 C   0  0  0  0  0  2  0  0  0  0  0  0
  190.5880  177.1950  144.3750 C   0  0  0  0  0  0  0  0  0  0  0  0
  191.0490  177.5010  145.7720 C   0  0  0  0  0  2  0  0  0  0  0  0
  189.1170  177.9180  139.5730 C   0  0  0  0  0  2  0  0  0  0  0  0
  187.6750  178.2830  139.9160 C   0  0  0  0  0  2  0  0  0  0  0  0
  189.8680  176.7950  141.6860 C   0  0  0  0  0  0  0  0  0  0  0  0
  185.8660  178.1820  144.9930 C   0  0  0  0  0  2  0  0  0  0  0  0
  186.0750  177.2930  146.1980 C   0  0  0  0  0  2  0  0  0  0  0  0
  186.8990  177.0730  144.9360 C   0  0  0  0  0  3  0  0  0  0  0  0
  186.2780  179.3750  141.4310 C   0  0  0  0  0  2  0  0  0  0  0  0
  184.2340  178.3150  142.0820 O   0  0  0  0  0  1  0  0  0  0  0  0
  185.1560  178.4260  141.0380 C   0  0  1  0  0  3  0  0  0  0  0  0
  184.4710  178.9180  139.8080 C   0  0  0  0  0  0  0  0  0  0  0  0
  184.5580  180.1280  139.4690 O   0  0  0  0  0  0  0  0  0  0  0  0
  183.7170  178.0140  139.0120 N   0  0  0  0  0  1  0  0  0  0  0  0
  1 12  1  0  0  0  0
  1  4  1  0  0  0  0
  2  1  2  0  0  0  0
  3 12  2  0  0  0  0
  4  7  1  0  0  0  0
  5 20  1  0  0  0  0
  5 11  1  0  0  0  0
  6  3  1  0  0  0  0
  7  8  1  0  0  0  0
  9 10  1  6  0  0  0
  9 16  1  0  0  0  0
 11  2  1  0  0  0  0
 12 13  1  0  0  0  0
 13  8  1  0  0  0  0
 14 15  1  0  0  0  0
 14  9  1  0  0  0  0
 15  5  1  0  0  0  0
 16  6  2  0  0  0  0
 16  2  1  0  0  0  0
 17 18  1  0  0  0  0
 19 17  1  0  0  0  0
 19  4  1  0  0  0  0
 19 18  1  0  0  0  0
 22 20  1  0  0  0  0
 22 21  1  1  0  0  0
 23 22  1  0  0  0  0
 24 23  2  0  0  0  0
 25 23  1  0  0  0  0
M  END
>  <MODEL>
9

>  <REMARK>
 VINA RESULT:      -6.7      2.053      4.656
  Name = 
  4 active torsions:
  status: ('A' for Active; 'I' for Inactive)
    1  A    between atoms: C_2  and  C_25
    2  A    between atoms: N_5  and  C_22
    3  A    between atoms: N_6  and  C_15
    4  A    between atoms: C_15  and  C_25
                            x       y       z     vdW  Elec       q    Type
                         _______ _______ _______ _____ _____    ______ ____

>  <TORSDO>
F 4

$$$$
