=
 OpenBabel11052415353D

 37 37  0  0  1  0  0  0  0  0999 V2000
  185.4840  178.7320  138.2160 C   0  0  0  0  0  2  0  0  0  0  0  0
  186.3810  176.5310  144.1900 O   0  0  0  0  0  1  0  0  0  0  0  0
  186.8020  178.2790  137.6060 C   0  0  2  0  0  3  0  0  0  0  0  0
  184.4750  178.8330  143.3020 C   0  0  0  0  0  2  0  0  0  0  0  0
  188.8590  177.2750  143.3170 C   0  0  0  0  0  3  0  0  0  0  0  0
  184.1960  178.7590  144.7910 C   0  0  0  0  0  2  0  0  0  0  0  0
  182.2960  178.0670  140.2560 C   0  0  2  0  0  3  0  0  0  0  0  0
  188.6510  177.2950  140.8620 C   0  0  2  0  0  3  0  0  0  0  0  0
  188.7500  176.9260  137.9240 O   0  0  0  0  0  1  0  0  0  0  0  0
  182.9130  175.8670  139.2220 C   0  0  0  0  0  1  0  0  0  0  0  0
  183.5650  178.2940  141.0750 C   0  0  0  0  0  2  0  0  0  0  0  0
  186.0050  180.0220  145.6130 O   0  0  0  0  0  0  0  0  0  0  0  0
  187.6180  177.4210  138.5750 C   0  0  1  0  0  3  0  0  0  0  0  0
  186.0910  177.7470  146.2390 C   0  0  0  0  0  2  0  0  0  0  0  0
  185.4690  178.9270  145.5520 C   0  0  0  0  0  0  0  0  0  0  0  0
  182.5080  177.3200  138.9150 C   0  0  2  0  0  0  0  0  0  0  0  0
  187.5360  179.3940  137.1950 O   0  0  0  0  0  1  0  0  0  0  0  0
  188.0260  178.2060  139.8200 C   0  0  0  0  0  2  0  0  0  0  0  0
  188.5190  178.0170  144.9150 S   0  0  0  0  0  0  0  0  0  0  0  0
  183.4620  177.9910  138.1030 O   0  0  0  0  0  0  0  0  0  0  0  0
  183.2120  178.5310  142.5290 C   0  0  0  0  0  2  0  0  0  0  0  0
  188.4260  177.8830  142.2140 C   0  0  0  0  0  3  0  0  0  0  0  0
  190.0200  177.1770  140.6150 O   0  0  0  0  0  1  0  0  0  0  0  0
  187.0540  176.9890  145.3260 C   0  0  2  0  0  3  0  0  0  0  0  0
  184.6750  177.6270  138.4880 O   0  0  0  0  0  0  0  0  0  0  0  0
  180.8130  176.0110  137.7440 O   0  0  0  0  0  1  0  0  0  0  0  0
  181.1670  177.3010  138.1490 C   0  0  2  0  0  3  0  0  0  0  0  0
  181.1060  178.2720  136.9680 C   0  0  0  0  0  2  0  0  0  0  0  0
  180.0340  179.1710  137.1090 O   0  0  0  0  0  0  0  0  0  0  0  0
  179.5720  181.5000  137.5780 C   0  0  0  0  0  1  0  0  0  0  0  0
  180.5150  180.4880  136.9430 C   0  0  0  0  0  0  0  0  0  0  0  0
  180.5870  180.7840  135.4600 C   0  0  0  0  0  1  0  0  0  0  0  0
  181.7910  180.6370  137.4700 F   0  0  0  0  0  0  0  0  0  0  0  0
  181.5090  179.2580  140.1300 O   0  0  0  0  0  0  0  0  0  0  0  0
  180.3240  179.5070  140.8290 C   0  0  0  0  0  0  0  0  0  0  0  0
  179.9910  180.7890  141.2510 O   0  0  0  0  0  1  0  0  0  0  0  0
  179.5520  178.5510  141.0960 O   0  0  0  0  0  0  0  0  0  0  0  0
  1 25  1  0  0  0  0
  3 17  1  1  0  0  0
  3  1  1  0  0  0  0
  3 13  1  0  0  0  0
  4  6  1  0  0  0  0
  5 19  1  0  0  0  0
  6 15  1  0  0  0  0
  7 34  1  6  0  0  0
  7 11  1  0  0  0  0
  8 23  1  6  0  0  0
  8 22  1  0  0  0  0
 11 21  1  0  0  0  0
 13  9  1  6  0  0  0
 13 18  1  0  0  0  0
 15 12  2  0  0  0  0
 15 14  1  0  0  0  0
 16 10  1  1  0  0  0
 16  7  1  0  0  0  0
 18  8  1  0  0  0  0
 19 24  1  0  0  0  0
 20 25  1  0  0  0  0
 20 16  1  0  0  0  0
 21  4  1  0  0  0  0
 22  5  2  0  0  0  0
 24  2  1  6  0  0  0
 24 14  1  0  0  0  0
 27 26  1  6  0  0  0
 27 16  1  0  0  0  0
 28 29  1  0  0  0  0
 28 27  1  0  0  0  0
 31 29  1  0  0  0  0
 31 33  1  0  0  0  0
 31 30  1  0  0  0  0
 32 31  1  0  0  0  0
 34 35  1  0  0  0  0
 35 37  2  0  0  0  0
 35 36  1  0  0  0  0
M  END
>  <MODEL>
1

>  <REMARK>
 VINA RESULT:      -6.7      0.000      0.000
  Name = 
  6 active torsions:
  status: ('A' for Active; 'I' for Inactive)
    1  A    between atoms: C_4  and  O_22
    2  A    between atoms: C_10  and  O_22
    3  A    between atoms: O_16  and  C_21
    4  A    between atoms: O_16  and  C_30
    5  A    between atoms: C_20  and  C_24
    6  A    between atoms: C_24  and  C_30
                            x       y       z     vdW  Elec       q    Type
                         _______ _______ _______ _____ _____    ______ ____

>  <TORSDO>
F 6

$$$$
=
 OpenBabel11052415353D

 37 37  0  0  1  0  0  0  0  0999 V2000
  185.5350  178.6350  138.2020 C   0  0  0  0  0  2  0  0  0  0  0  0
  186.3720  176.5380  144.2210 O   0  0  0  0  0  1  0  0  0  0  0  0
  186.8710  178.1990  137.6210 C   0  0  2  0  0  3  0  0  0  0  0  0
  184.4390  178.7900  143.2690 C   0  0  0  0  0  2  0  0  0  0  0  0
  188.8510  177.3150  143.3790 C   0  0  0  0  0  3  0  0  0  0  0  0
  184.1360  178.7320  144.7530 C   0  0  0  0  0  2  0  0  0  0  0  0
  182.3270  177.9400  140.1980 C   0  0  2  0  0  3  0  0  0  0  0  0
  188.6840  177.2970  140.9210 C   0  0  2  0  0  3  0  0  0  0  0  0
  188.8390  176.8870  137.9900 O   0  0  0  0  0  1  0  0  0  0  0  0
  183.0020  175.7370  139.2070 C   0  0  0  0  0  1  0  0  0  0  0  0
  183.5770  178.2020  141.0350 C   0  0  0  0  0  2  0  0  0  0  0  0
  185.9080  180.0400  145.5870 O   0  0  0  0  0  0  0  0  0  0  0  0
  187.6870  177.3700  138.6160 C   0  0  1  0  0  3  0  0  0  0  0  0
  186.0260  177.7770  146.2480 C   0  0  0  0  0  2  0  0  0  0  0  0
  185.3930  178.9350  145.5330 C   0  0  0  0  0  0  0  0  0  0  0  0
  182.5750  177.1780  138.8720 C   0  0  2  0  0  0  0  0  0  0  0  0
  187.5920  179.3220  137.2060 O   0  0  0  0  0  1  0  0  0  0  0  0
  188.0590  178.1810  139.8550 C   0  0  0  0  0  2  0  0  0  0  0  0
  188.4700  178.0730  144.9600 S   0  0  0  0  0  0  0  0  0  0  0  0
  183.5300  177.8540  138.0670 O   0  0  0  0  0  0  0  0  0  0  0  0
  183.1950  178.4530  142.4790 C   0  0  0  0  0  2  0  0  0  0  0  0
  188.4240  177.9000  142.2600 C   0  0  0  0  0  3  0  0  0  0  0  0
  190.0590  177.2010  140.6990 O   0  0  0  0  0  1  0  0  0  0  0  0
  187.0170  177.0240  145.3620 C   0  0  2  0  0  3  0  0  0  0  0  0
  184.7430  177.5190  138.4770 O   0  0  0  0  0  0  0  0  0  0  0  0
  180.3300  176.2400  138.6640 O   0  0  0  0  0  1  0  0  0  0  0  0
  181.2470  177.1230  138.0840 C   0  0  2  0  0  3  0  0  0  0  0  0
  181.4160  176.8220  136.5940 C   0  0  0  0  0  2  0  0  0  0  0  0
  180.8860  175.5590  136.2710 O   0  0  0  0  0  0  0  0  0  0  0  0
  183.0690  175.5950  135.2260 C   0  0  0  0  0  1  0  0  0  0  0  0
  181.9190  174.7480  135.7530 C   0  0  0  0  0  0  0  0  0  0  0  0
  181.3590  173.9490  134.5940 C   0  0  0  0  0  1  0  0  0  0  0  0
  182.3900  173.8510  136.7020 F   0  0  0  0  0  0  0  0  0  0  0  0
  181.5190  179.1130  140.0420 O   0  0  0  0  0  0  0  0  0  0  0  0
  180.3930  179.4150  140.8140 C   0  0  0  0  0  0  0  0  0  0  0  0
  180.1370  180.7120  141.2420 O   0  0  0  0  0  1  0  0  0  0  0  0
  179.6050  178.4910  141.1420 O   0  0  0  0  0  0  0  0  0  0  0  0
  1 25  1  0  0  0  0
  3 17  1  1  0  0  0
  3  1  1  0  0  0  0
  3 13  1  0  0  0  0
  4  6  1  0  0  0  0
  5 19  1  0  0  0  0
  6 15  1  0  0  0  0
  7 34  1  6  0  0  0
  7 11  1  0  0  0  0
  8 23  1  6  0  0  0
  8 22  1  0  0  0  0
 11 21  1  0  0  0  0
 13  9  1  6  0  0  0
 13 18  1  0  0  0  0
 15 12  2  0  0  0  0
 15 14  1  0  0  0  0
 16 10  1  1  0  0  0
 16  7  1  0  0  0  0
 18  8  1  0  0  0  0
 19 24  1  0  0  0  0
 20 25  1  0  0  0  0
 20 16  1  0  0  0  0
 21  4  1  0  0  0  0
 22  5  2  0  0  0  0
 24  2  1  6  0  0  0
 24 14  1  0  0  0  0
 27 26  1  1  0  0  0
 27 16  1  0  0  0  0
 28 27  1  0  0  0  0
 29 28  1  0  0  0  0
 30 31  1  0  0  0  0
 31 29  1  0  0  0  0
 31 33  1  0  0  0  0
 32 31  1  0  0  0  0
 34 35  1  0  0  0  0
 35 37  2  0  0  0  0
 35 36  1  0  0  0  0
M  END
>  <MODEL>
2

>  <REMARK>
 VINA RESULT:      -6.4      1.708      2.338
  Name = 
  6 active torsions:
  status: ('A' for Active; 'I' for Inactive)
    1  A    between atoms: C_4  and  O_22
    2  A    between atoms: C_10  and  O_22
    3  A    between atoms: O_16  and  C_21
    4  A    between atoms: O_16  and  C_30
    5  A    between atoms: C_20  and  C_24
    6  A    between atoms: C_24  and  C_30
                            x       y       z     vdW  Elec       q    Type
                         _______ _______ _______ _____ _____    ______ ____

>  <TORSDO>
F 6

$$$$
=
 OpenBabel11052415353D

 37 37  0  0  1  0  0  0  0  0999 V2000
  186.2890  178.9950  140.9200 C   0  0  0  0  0  2  0  0  0  0  0  0
  188.9250  174.1530  137.6120 O   0  0  0  0  0  1  0  0  0  0  0  0
  184.8700  178.8920  140.3820 C   0  0  2  0  0  3  0  0  0  0  0  0
  190.4000  176.6030  138.8530 C   0  0  0  0  0  2  0  0  0  0  0  0
  187.0390  175.2180  135.9500 C   0  0  0  0  0  3  0  0  0  0  0  0
  191.5550  175.8130  138.2680 C   0  0  0  0  0  2  0  0  0  0  0  0
  189.4430  177.4320  142.4600 C   0  0  2  0  0  3  0  0  0  0  0  0
  185.5220  176.4350  137.4620 C   0  0  2  0  0  3  0  0  0  0  0  0
  183.3380  177.5480  139.1270 O   0  0  0  0  0  1  0  0  0  0  0  0
  187.5290  176.0150  143.2450 C   0  0  0  0  0  1  0  0  0  0  0  0
  189.2740  177.2240  140.9570 C   0  0  0  0  0  2  0  0  0  0  0  0
  191.4320  176.5050  136.0210 O   0  0  0  0  0  0  0  0  0  0  0  0
  184.6830  177.6660  139.4850 C   0  0  1  0  0  3  0  0  0  0  0  0
  190.9480  174.2140  136.3210 C   0  0  0  0  0  2  0  0  0  0  0  0
  191.3220  175.5820  136.8120 C   0  0  0  0  0  0  0  0  0  0  0  0
  188.1240  177.4340  143.2730 C   0  0  2  0  0  0  0  0  0  0  0  0
  184.5430  180.0630  139.6930 O   0  0  0  0  0  1  0  0  0  0  0  0
  185.5580  177.7420  138.2360 C   0  0  0  0  0  2  0  0  0  0  0  0
  188.6110  175.0860  135.0960 S   0  0  0  0  0  0  0  0  0  0  0  0
  187.2210  178.4110  142.7750 O   0  0  0  0  0  0  0  0  0  0  0  0
  190.5680  176.7220  140.3510 C   0  0  0  0  0  2  0  0  0  0  0  0
  186.7980  176.2890  136.7040 C   0  0  0  0  0  3  0  0  0  0  0  0
  184.4410  176.4470  136.5790 O   0  0  0  0  0  1  0  0  0  0  0  0
  189.4350  173.9940  136.3210 C   0  0  2  0  0  3  0  0  0  0  0  0
  186.5720  177.9010  141.7400 O   0  0  0  0  0  0  0  0  0  0  0  0
  188.8840  176.6860  145.4690 O   0  0  0  0  0  1  0  0  0  0  0  0
  188.4520  177.7970  144.7370 C   0  0  2  0  0  3  0  0  0  0  0  0
  187.3220  178.5200  145.4730 C   0  0  0  0  0  2  0  0  0  0  0  0
  186.2920  177.6250  145.8170 O   0  0  0  0  0  0  0  0  0  0  0  0
  184.3660  178.9430  145.1760 C   0  0  0  0  0  1  0  0  0  0  0  0
  185.1940  178.3600  146.3130 C   0  0  0  0  0  0  0  0  0  0  0  0
  185.7270  179.5120  147.1400 C   0  0  0  0  0  1  0  0  0  0  0  0
  184.3870  177.5830  147.1340 F   0  0  0  0  0  0  0  0  0  0  0  0
  190.3050  178.5350  142.7650 O   0  0  0  0  0  0  0  0  0  0  0  0
  191.4240  178.4660  143.6010 C   0  0  0  0  0  0  0  0  0  0  0  0
  191.9190  179.5970  144.2390 O   0  0  0  0  0  1  0  0  0  0  0  0
  192.0030  177.3620  143.7660 O   0  0  0  0  0  0  0  0  0  0  0  0
  1 25  1  0  0  0  0
  3 17  1  6  0  0  0
  3  1  1  0  0  0  0
  4 21  1  0  0  0  0
  5 22  2  0  0  0  0
  6  4  1  0  0  0  0
  7 34  1  6  0  0  0
  7 16  1  0  0  0  0
  8 23  1  6  0  0  0
  8 18  1  0  0  0  0
 11  7  1  0  0  0  0
 12 15  2  0  0  0  0
 13  9  1  6  0  0  0
 13  3  1  0  0  0  0
 14 15  1  0  0  0  0
 15  6  1  0  0  0  0
 16 10  1  6  0  0  0
 16 27  1  0  0  0  0
 18 13  1  0  0  0  0
 19  5  1  0  0  0  0
 19 24  1  0  0  0  0
 20 16  1  0  0  0  0
 21 11  1  0  0  0  0
 22  8  1  0  0  0  0
 24 14  1  0  0  0  0
 24  2  1  1  0  0  0
 25 20  1  0  0  0  0
 27 26  1  1  0  0  0
 27 28  1  0  0  0  0
 28 29  1  0  0  0  0
 29 31  1  0  0  0  0
 30 31  1  0  0  0  0
 31 33  1  0  0  0  0
 31 32  1  0  0  0  0
 34 35  1  0  0  0  0
 35 37  2  0  0  0  0
 35 36  1  0  0  0  0
M  END
>  <MODEL>
3

>  <REMARK>
 VINA RESULT:      -6.3      3.882      8.720
  Name = 
  6 active torsions:
  status: ('A' for Active; 'I' for Inactive)
    1  A    between atoms: C_4  and  O_22
    2  A    between atoms: C_10  and  O_22
    3  A    between atoms: O_16  and  C_21
    4  A    between atoms: O_16  and  C_30
    5  A    between atoms: C_20  and  C_24
    6  A    between atoms: C_24  and  C_30
                            x       y       z     vdW  Elec       q    Type
                         _______ _______ _______ _____ _____    ______ ____

>  <TORSDO>
F 6

$$$$
=
 OpenBabel11052415353D

 37 37  0  0  1  0  0  0  0  0999 V2000
  190.0820  176.3950  140.6820 C   0  0  0  0  0  2  0  0  0  0  0  0
  184.7980  179.8930  139.5980 O   0  0  0  0  0  1  0  0  0  0  0  0
  190.6670  176.4260  139.2780 C   0  0  2  0  0  3  0  0  0  0  0  0
  185.2430  177.8200  141.8840 C   0  0  0  0  0  2  0  0  0  0  0  0
  185.2340  178.5120  137.2830 C   0  0  0  0  0  3  0  0  0  0  0  0
  183.8510  178.3330  142.2000 C   0  0  0  0  0  2  0  0  0  0  0  0
  188.5640  178.1360  143.7520 C   0  0  2  0  0  3  0  0  0  0  0  0
  187.6130  177.8830  137.3970 C   0  0  2  0  0  3  0  0  0  0  0  0
  190.5300  177.4410  137.1150 O   0  0  0  0  0  1  0  0  0  0  0  0
  190.0590  179.8370  142.6750 C   0  0  0  0  0  1  0  0  0  0  0  0
  187.6060  177.9090  142.5850 C   0  0  0  0  0  2  0  0  0  0  0  0
  182.5820  177.0280  140.7070 O   0  0  0  0  0  0  0  0  0  0  0  0
  189.8770  177.3470  138.3470 C   0  0  1  0  0  3  0  0  0  0  0  0
  182.5420  179.3330  140.1990 C   0  0  0  0  0  2  0  0  0  0  0  0
  182.9630  178.1460  141.0150 C   0  0  0  0  0  0  0  0  0  0  0  0
  190.0250  178.4530  143.3460 C   0  0  2  0  0  0  0  0  0  0  0  0
  190.7190  175.1290  138.7620 O   0  0  0  0  0  1  0  0  0  0  0  0
  188.4440  176.8580  138.1490 C   0  0  0  0  0  2  0  0  0  0  0  0
  183.5370  178.2910  137.8230 S   0  0  0  0  0  0  0  0  0  0  0  0
  190.5550  177.4320  142.5120 O   0  0  0  0  0  0  0  0  0  0  0  0
  186.1760  178.1310  143.0330 C   0  0  0  0  0  2  0  0  0  0  0  0
  186.1830  177.7230  137.7850 C   0  0  0  0  0  3  0  0  0  0  0  0
  187.7600  177.6840  136.0230 O   0  0  0  0  0  1  0  0  0  0  0  0
  183.5280  179.6380  139.0720 C   0  0  2  0  0  3  0  0  0  0  0  0
  190.1690  177.6600  141.2670 O   0  0  0  0  0  0  0  0  0  0  0  0
  191.8970  179.4730  144.5360 O   0  0  0  0  0  1  0  0  0  0  0  0
  190.8860  178.5100  144.6270 C   0  0  2  0  0  3  0  0  0  0  0  0
  191.4660  177.1600  145.0530 C   0  0  0  0  0  2  0  0  0  0  0  0
  191.9470  177.2130  146.3740 O   0  0  0  0  0  0  0  0  0  0  0  0
  192.8080  175.7770  148.1220 C   0  0  0  0  0  1  0  0  0  0  0  0
  191.8480  175.9280  146.9490 C   0  0  0  0  0  0  0  0  0  0  0  0
  192.2310  174.9060  145.9000 C   0  0  0  0  0  1  0  0  0  0  0  0
  190.5520  175.6510  147.3620 F   0  0  0  0  0  0  0  0  0  0  0  0
  188.4560  177.1170  144.7530 O   0  0  0  0  0  0  0  0  0  0  0  0
  187.8440  177.2850  145.9990 C   0  0  0  0  0  0  0  0  0  0  0  0
  186.4810  177.0800  146.1680 O   0  0  0  0  0  0  0  0  0  0  0  0
  188.5410  177.6450  146.9830 O   0  0  0  0  0  1  0  0  0  0  0  0
  1 25  1  0  0  0  0
  3 17  1  6  0  0  0
  3  1  1  0  0  0  0
  4  6  1  0  0  0  0
  4 21  1  0  0  0  0
  5 22  2  0  0  0  0
  5 19  1  0  0  0  0
  7 34  1  1  0  0  0
  8 23  1  6  0  0  0
  8 22  1  0  0  0  0
  8 18  1  0  0  0  0
 11 21  1  0  0  0  0
 11  7  1  0  0  0  0
 12 15  2  0  0  0  0
 13  9  1  6  0  0  0
 13  3  1  0  0  0  0
 14 15  1  0  0  0  0
 15  6  1  0  0  0  0
 16 10  1  6  0  0  0
 16  7  1  0  0  0  0
 16 27  1  0  0  0  0
 18 13  1  0  0  0  0
 19 24  1  0  0  0  0
 20 16  1  0  0  0  0
 24  2  1  1  0  0  0
 24 14  1  0  0  0  0
 25 20  1  0  0  0  0
 27 26  1  6  0  0  0
 27 28  1  0  0  0  0
 28 29  1  0  0  0  0
 29 31  1  0  0  0  0
 31 33  1  0  0  0  0
 31 30  1  0  0  0  0
 32 31  1  0  0  0  0
 34 35  1  0  0  0  0
 35 36  2  0  0  0  0
 35 37  1  0  0  0  0
M  END
>  <MODEL>
4

>  <REMARK>
 VINA RESULT:      -6.1      3.834      8.991
  Name = 
  6 active torsions:
  status: ('A' for Active; 'I' for Inactive)
    1  A    between atoms: C_4  and  O_22
    2  A    between atoms: C_10  and  O_22
    3  A    between atoms: O_16  and  C_21
    4  A    between atoms: O_16  and  C_30
    5  A    between atoms: C_20  and  C_24
    6  A    between atoms: C_24  and  C_30
                            x       y       z     vdW  Elec       q    Type
                         _______ _______ _______ _____ _____    ______ ____

>  <TORSDO>
F 6

$$$$
=
 OpenBabel11052415353D

 37 37  0  0  1  0  0  0  0  0999 V2000
  185.2590  178.9180  141.9280 C   0  0  0  0  0  2  0  0  0  0  0  0
  187.7580  175.1760  137.3360 O   0  0  0  0  0  1  0  0  0  0  0  0
  183.7870  178.6240  141.6850 C   0  0  2  0  0  3  0  0  0  0  0  0
  189.0880  177.6640  138.6630 C   0  0  0  0  0  2  0  0  0  0  0  0
  185.3940  176.0860  136.3160 C   0  0  0  0  0  3  0  0  0  0  0  0
  190.1810  177.1960  137.7210 C   0  0  0  0  0  2  0  0  0  0  0  0
  188.8880  177.7820  142.4790 C   0  0  2  0  0  3  0  0  0  0  0  0
  184.1060  176.7700  138.3010 C   0  0  2  0  0  3  0  0  0  0  0  0
  182.2290  177.2030  140.5530 O   0  0  0  0  0  1  0  0  0  0  0  0
  187.4520  175.9320  143.3760 C   0  0  0  0  0  1  0  0  0  0  0  0
  188.4050  177.7590  141.0310 C   0  0  0  0  0  2  0  0  0  0  0  0
  189.4300  178.1610  135.7090 O   0  0  0  0  0  0  0  0  0  0  0  0
  183.5860  177.5240  140.6410 C   0  0  1  0  0  3  0  0  0  0  0  0
  189.3880  175.8000  135.6870 C   0  0  0  0  0  2  0  0  0  0  0  0
  189.6520  177.1320  136.3270 C   0  0  0  0  0  0  0  0  0  0  0  0
  187.8120  177.4200  143.5330 C   0  0  2  0  0  0  0  0  0  0  0  0
  183.1320  179.7970  141.2990 O   0  0  0  0  0  1  0  0  0  0  0  0
  184.1210  177.9380  139.2720 C   0  0  0  0  0  2  0  0  0  0  0  0
  186.7240  176.3760  135.1460 S   0  0  0  0  0  0  0  0  0  0  0  0
  186.6780  178.2680  143.4160 O   0  0  0  0  0  0  0  0  0  0  0  0
  189.5830  177.6010  140.0910 C   0  0  0  0  0  2  0  0  0  0  0  0
  185.1750  176.9760  137.2830 C   0  0  0  0  0  3  0  0  0  0  0  0
  182.8590  176.6990  137.6770 O   0  0  0  0  0  1  0  0  0  0  0  0
  187.9700  175.3000  135.9600 C   0  0  2  0  0  3  0  0  0  0  0  0
  185.8920  177.7940  142.4630 O   0  0  0  0  0  0  0  0  0  0  0  0
  189.4740  176.7530  145.1920 O   0  0  0  0  0  1  0  0  0  0  0  0
  188.4150  177.6310  144.9390 C   0  0  2  0  0  3  0  0  0  0  0  0
  187.3910  177.5780  146.0750 C   0  0  0  0  0  2  0  0  0  0  0  0
  187.9090  176.8970  147.1910 O   0  0  0  0  0  0  0  0  0  0  0  0
  187.0780  179.0050  148.0400 C   0  0  0  0  0  1  0  0  0  0  0  0
  187.9480  177.7810  148.2900 C   0  0  0  0  0  0  0  0  0  0  0  0
  189.3760  178.2530  148.4700 C   0  0  0  0  0  1  0  0  0  0  0  0
  187.5550  177.1540  149.4650 F   0  0  0  0  0  0  0  0  0  0  0  0
  189.6170  178.9760  142.7920 O   0  0  0  0  0  0  0  0  0  0  0  0
  190.9040  179.0030  143.3380 C   0  0  0  0  0  0  0  0  0  0  0  0
  191.3070  180.0280  144.1860 O   0  0  0  0  0  1  0  0  0  0  0  0
  191.7190  178.0920  143.0420 O   0  0  0  0  0  0  0  0  0  0  0  0
  1 25  1  0  0  0  0
  3 17  1  6  0  0  0
  3  1  1  0  0  0  0
  4 21  1  0  0  0  0
  5 22  2  0  0  0  0
  6  4  1  0  0  0  0
  7 34  1  1  0  0  0
  7 16  1  0  0  0  0
  8 23  1  6  0  0  0
  8 18  1  0  0  0  0
 11  7  1  0  0  0  0
 12 15  2  0  0  0  0
 13  9  1  6  0  0  0
 13  3  1  0  0  0  0
 14 24  1  0  0  0  0
 14 15  1  0  0  0  0
 15  6  1  0  0  0  0
 16 10  1  6  0  0  0
 16 27  1  0  0  0  0
 18 13  1  0  0  0  0
 19 24  1  0  0  0  0
 19  5  1  0  0  0  0
 20 16  1  0  0  0  0
 21 11  1  0  0  0  0
 22  8  1  0  0  0  0
 24  2  1  1  0  0  0
 25 20  1  0  0  0  0
 27 26  1  1  0  0  0
 27 28  1  0  0  0  0
 28 29  1  0  0  0  0
 29 31  1  0  0  0  0
 30 31  1  0  0  0  0
 31 32  1  0  0  0  0
 31 33  1  0  0  0  0
 34 35  1  0  0  0  0
 35 36  1  0  0  0  0
 37 35  2  0  0  0  0
M  END
>  <MODEL>
5

>  <REMARK>
 VINA RESULT:      -6.0      3.851      9.211
  Name = 
  6 active torsions:
  status: ('A' for Active; 'I' for Inactive)
    1  A    between atoms: C_4  and  O_22
    2  A    between atoms: C_10  and  O_22
    3  A    between atoms: O_16  and  C_21
    4  A    between atoms: O_16  and  C_30
    5  A    between atoms: C_20  and  C_24
    6  A    between atoms: C_24  and  C_30
                            x       y       z     vdW  Elec       q    Type
                         _______ _______ _______ _____ _____    ______ ____

>  <TORSDO>
F 6

$$$$
=
 OpenBabel11052415353D

 37 37  0  0  1  0  0  0  0  0999 V2000
  185.7900  178.5080  137.7550 C   0  0  0  0  0  2  0  0  0  0  0  0
  186.4270  176.4840  143.8250 O   0  0  0  0  0  1  0  0  0  0  0  0
  187.1570  178.0960  137.2330 C   0  0  2  0  0  3  0  0  0  0  0  0
  184.4850  178.6850  142.7720 C   0  0  0  0  0  2  0  0  0  0  0  0
  188.9200  177.3100  143.0750 C   0  0  0  0  0  3  0  0  0  0  0  0
  184.1240  178.6340  144.2440 C   0  0  0  0  0  2  0  0  0  0  0  0
  182.5180  177.7600  139.6270 C   0  0  2  0  0  3  0  0  0  0  0  0
  188.8530  177.2650  140.6130 C   0  0  2  0  0  3  0  0  0  0  0  0
  189.1360  176.8320  137.6950 O   0  0  0  0  0  1  0  0  0  0  0  0
  183.2810  175.5640  138.6860 C   0  0  0  0  0  1  0  0  0  0  0  0
  183.7270  178.0570  140.5110 C   0  0  0  0  0  2  0  0  0  0  0  0
  185.8310  179.9880  145.1350 O   0  0  0  0  0  0  0  0  0  0  0  0
  187.9500  177.2950  138.2690 C   0  0  1  0  0  3  0  0  0  0  0  0
  185.9710  177.7340  145.8230 C   0  0  0  0  0  2  0  0  0  0  0  0
  185.3430  178.8710  145.0720 C   0  0  0  0  0  0  0  0  0  0  0  0
  182.8370  176.9910  138.3200 C   0  0  2  0  0  0  0  0  0  0  0  0
  187.8690  179.2310  136.8370 O   0  0  0  0  0  1  0  0  0  0  0  0
  188.2530  178.1250  139.5140 C   0  0  0  0  0  2  0  0  0  0  0  0
  188.4590  178.0730  144.6320 S   0  0  0  0  0  0  0  0  0  0  0  0
  183.8090  177.6820  137.5470 O   0  0  0  0  0  0  0  0  0  0  0  0
  183.2820  178.3120  141.9360 C   0  0  0  0  0  2  0  0  0  0  0  0
  188.5270  177.8740  141.9340 C   0  0  0  0  0  3  0  0  0  0  0  0
  190.2380  177.1970  140.4470 O   0  0  0  0  0  1  0  0  0  0  0  0
  187.0140  176.9950  144.9850 C   0  0  2  0  0  3  0  0  0  0  0  0
  185.0110  177.3770  138.0090 O   0  0  0  0  0  0  0  0  0  0  0  0
  180.4490  176.4880  138.2460 O   0  0  0  0  0  1  0  0  0  0  0  0
  181.5440  176.9000  137.4800 C   0  0  2  0  0  3  0  0  0  0  0  0
  181.6750  176.0390  136.2210 C   0  0  0  0  0  2  0  0  0  0  0  0
  180.4550  175.4110  135.9110 O   0  0  0  0  0  0  0  0  0  0  0  0
  180.3000  173.2450  136.9800 C   0  0  0  0  0  1  0  0  0  0  0  0
  180.6820  174.0300  135.7320 C   0  0  0  0  0  0  0  0  0  0  0  0
  182.1620  173.8200  135.4850 C   0  0  0  0  0  1  0  0  0  0  0  0
  179.9920  173.5360  134.6340 F   0  0  0  0  0  0  0  0  0  0  0  0
  181.6930  178.9130  139.4260 O   0  0  0  0  0  0  0  0  0  0  0  0
  182.0090  179.9830  138.5820 C   0  0  0  0  0  0  0  0  0  0  0  0
  181.3550  180.1620  137.3700 O   0  0  0  0  0  0  0  0  0  0  0  0
  182.9140  180.7880  138.9200 O   0  0  0  0  0  1  0  0  0  0  0  0
  1 25  1  0  0  0  0
  3 17  1  1  0  0  0
  3  1  1  0  0  0  0
  3 13  1  0  0  0  0
  4  6  1  0  0  0  0
  5 19  1  0  0  0  0
  6 15  1  0  0  0  0
  7 34  1  6  0  0  0
  7 11  1  0  0  0  0
  8 23  1  6  0  0  0
  8 22  1  0  0  0  0
 11 21  1  0  0  0  0
 13  9  1  6  0  0  0
 13 18  1  0  0  0  0
 15 12  2  0  0  0  0
 15 14  1  0  0  0  0
 16 10  1  1  0  0  0
 16  7  1  0  0  0  0
 18  8  1  0  0  0  0
 19 24  1  0  0  0  0
 20 25  1  0  0  0  0
 20 16  1  0  0  0  0
 21  4  1  0  0  0  0
 22  5  2  0  0  0  0
 24  2  1  6  0  0  0
 24 14  1  0  0  0  0
 27 26  1  1  0  0  0
 27 16  1  0  0  0  0
 28 27  1  0  0  0  0
 29 28  1  0  0  0  0
 31 29  1  0  0  0  0
 31 30  1  0  0  0  0
 32 31  1  0  0  0  0
 33 31  1  0  0  0  0
 35 37  1  0  0  0  0
 35 34  1  0  0  0  0
 36 35  2  0  0  0  0
M  END
>  <MODEL>
6

>  <REMARK>
 VINA RESULT:      -5.8      1.999      2.856
  Name = 
  6 active torsions:
  status: ('A' for Active; 'I' for Inactive)
    1  A    between atoms: C_4  and  O_22
    2  A    between atoms: C_10  and  O_22
    3  A    between atoms: O_16  and  C_21
    4  A    between atoms: O_16  and  C_30
    5  A    between atoms: C_20  and  C_24
    6  A    between atoms: C_24  and  C_30
                            x       y       z     vdW  Elec       q    Type
                         _______ _______ _______ _____ _____    ______ ____

>  <TORSDO>
F 6

$$$$
=
 OpenBabel11052415353D

 37 37  0  0  1  0  0  0  0  0999 V2000
  186.2760  179.0360  140.7850 C   0  0  0  0  0  2  0  0  0  0  0  0
  188.9460  174.2230  137.4630 O   0  0  0  0  0  1  0  0  0  0  0  0
  184.8640  178.9430  140.2260 C   0  0  2  0  0  3  0  0  0  0  0  0
  190.4090  176.6560  138.7490 C   0  0  0  0  0  2  0  0  0  0  0  0
  187.0850  175.3100  135.7850 C   0  0  0  0  0  3  0  0  0  0  0  0
  191.5700  175.8680  138.1720 C   0  0  0  0  0  2  0  0  0  0  0  0
  189.4050  177.4490  142.3510 C   0  0  2  0  0  3  0  0  0  0  0  0
  185.5510  176.5150  137.2890 C   0  0  2  0  0  3  0  0  0  0  0  0
  183.3470  177.6160  138.9360 O   0  0  0  0  0  1  0  0  0  0  0  0
  187.4760  176.0290  143.0950 C   0  0  0  0  0  1  0  0  0  0  0  0
  189.2560  177.2580  140.8440 C   0  0  0  0  0  2  0  0  0  0  0  0
  191.4800  176.5850  135.9310 O   0  0  0  0  0  0  0  0  0  0  0  0
  184.6870  177.7270  139.3130 C   0  0  1  0  0  3  0  0  0  0  0  0
  190.9860  174.2920  136.2000 C   0  0  0  0  0  2  0  0  0  0  0  0
  191.3570  175.6530  136.7100 C   0  0  0  0  0  0  0  0  0  0  0  0
  188.0750  177.4460  143.1460 C   0  0  2  0  0  0  0  0  0  0  0  0
  184.5500  180.1210  139.5450 O   0  0  0  0  0  1  0  0  0  0  0  0
  185.5790  177.8130  138.0770 C   0  0  0  0  0  2  0  0  0  0  0  0
  188.6690  175.1830  134.9520 S   0  0  0  0  0  0  0  0  0  0  0  0
  187.1810  178.4310  142.6460 O   0  0  0  0  0  0  0  0  0  0  0  0
  190.5570  176.7580  140.2500 C   0  0  0  0  0  2  0  0  0  0  0  0
  186.8370  176.3740  136.5470 C   0  0  0  0  0  3  0  0  0  0  0  0
  184.4820  176.5390  136.3920 O   0  0  0  0  0  1  0  0  0  0  0  0
  189.4740  174.0760  136.1770 C   0  0  2  0  0  3  0  0  0  0  0  0
  186.5460  177.9330  141.5970 O   0  0  0  0  0  0  0  0  0  0  0  0
  189.0730  176.7630  145.2660 O   0  0  0  0  0  1  0  0  0  0  0  0
  188.3840  177.7930  144.6180 C   0  0  2  0  0  3  0  0  0  0  0  0
  187.1600  178.2160  145.4330 C   0  0  0  0  0  2  0  0  0  0  0  0
  187.0690  177.4770  146.6270 O   0  0  0  0  0  0  0  0  0  0  0  0
  187.6320  177.4760  148.9800 C   0  0  0  0  0  1  0  0  0  0  0  0
  187.4880  178.2900  147.7020 C   0  0  0  0  0  0  0  0  0  0  0  0
  186.4290  179.3470  147.9390 C   0  0  0  0  0  1  0  0  0  0  0  0
  188.6820  178.9380  147.4180 F   0  0  0  0  0  0  0  0  0  0  0  0
  190.2650  178.5470  142.6790 O   0  0  0  0  0  0  0  0  0  0  0  0
  191.4070  178.4530  143.4810 C   0  0  0  0  0  0  0  0  0  0  0  0
  192.0540  177.2390  143.6760 O   0  0  0  0  0  0  0  0  0  0  0  0
  191.8490  179.4850  144.0490 O   0  0  0  0  0  1  0  0  0  0  0  0
  1 25  1  0  0  0  0
  3 17  1  6  0  0  0
  3  1  1  0  0  0  0
  4 21  1  0  0  0  0
  5 22  2  0  0  0  0
  6  4  1  0  0  0  0
  7 34  1  6  0  0  0
  7 16  1  0  0  0  0
  8 23  1  6  0  0  0
  8 18  1  0  0  0  0
 11  7  1  0  0  0  0
 12 15  2  0  0  0  0
 13  9  1  6  0  0  0
 13  3  1  0  0  0  0
 14 15  1  0  0  0  0
 15  6  1  0  0  0  0
 16 10  1  6  0  0  0
 16 27  1  0  0  0  0
 18 13  1  0  0  0  0
 19  5  1  0  0  0  0
 19 24  1  0  0  0  0
 20 16  1  0  0  0  0
 21 11  1  0  0  0  0
 22  8  1  0  0  0  0
 24 14  1  0  0  0  0
 24  2  1  1  0  0  0
 25 20  1  0  0  0  0
 27 26  1  1  0  0  0
 27 28  1  0  0  0  0
 28 29  1  0  0  0  0
 29 31  1  0  0  0  0
 31 32  1  0  0  0  0
 31 30  1  0  0  0  0
 33 31  1  0  0  0  0
 34 35  1  0  0  0  0
 35 36  2  0  0  0  0
 35 37  1  0  0  0  0
M  END
>  <MODEL>
7

>  <REMARK>
 VINA RESULT:      -5.7      4.085      9.148
  Name = 
  6 active torsions:
  status: ('A' for Active; 'I' for Inactive)
    1  A    between atoms: C_4  and  O_22
    2  A    between atoms: C_10  and  O_22
    3  A    between atoms: O_16  and  C_21
    4  A    between atoms: O_16  and  C_30
    5  A    between atoms: C_20  and  C_24
    6  A    between atoms: C_24  and  C_30
                            x       y       z     vdW  Elec       q    Type
                         _______ _______ _______ _____ _____    ______ ____

>  <TORSDO>
F 6

$$$$
=
 OpenBabel11052415353D

 37 37  0  0  1  0  0  0  0  0999 V2000
  187.0650  178.6840  140.3910 C   0  0  0  0  0  2  0  0  0  0  0  0
  191.1370  174.3840  137.8860 O   0  0  0  0  0  1  0  0  0  0  0  0
  185.8580  178.3930  139.5120 C   0  0  2  0  0  3  0  0  0  0  0  0
  191.8720  176.9820  139.4450 C   0  0  0  0  0  2  0  0  0  0  0  0
  189.5910  175.2160  135.7940 C   0  0  0  0  0  3  0  0  0  0  0  0
  193.2410  176.3870  139.1760 C   0  0  0  0  0  2  0  0  0  0  0  0
  189.9280  177.5480  142.6880 C   0  0  2  0  0  3  0  0  0  0  0  0
  187.5800  176.1520  136.8660 C   0  0  2  0  0  3  0  0  0  0  0  0
  184.9080  176.8820  137.9180 O   0  0  0  0  0  1  0  0  0  0  0  0
  188.1110  175.8430  142.9710 C   0  0  0  0  0  1  0  0  0  0  0  0
  190.1750  177.3660  141.1920 C   0  0  0  0  0  2  0  0  0  0  0  0
  193.5840  177.1250  136.9660 O   0  0  0  0  0  0  0  0  0  0  0  0
  186.0870  177.1830  138.6040 C   0  0  1  0  0  3  0  0  0  0  0  0
  193.3870  174.7800  137.1480 C   0  0  0  0  0  2  0  0  0  0  0  0
  193.4180  176.1710  137.7090 C   0  0  0  0  0  0  0  0  0  0  0  0
  188.4620  177.3320  143.1400 C   0  0  2  0  0  0  0  0  0  0  0  0
  185.5450  179.5250  138.7560 O   0  0  0  0  0  1  0  0  0  0  0  0
  187.2260  177.4240  137.6160 C   0  0  0  0  0  2  0  0  0  0  0  0
  191.3290  175.3410  135.3660 S   0  0  0  0  0  0  0  0  0  0  0  0
  187.5780  178.1830  142.4240 O   0  0  0  0  0  0  0  0  0  0  0  0
  191.6390  177.0760  140.9360 C   0  0  0  0  0  2  0  0  0  0  0  0
  189.0130  176.2170  136.4560 C   0  0  0  0  0  3  0  0  0  0  0  0
  186.7660  176.0340  135.7380 O   0  0  0  0  0  1  0  0  0  0  0  0
  191.9730  174.3430  136.7670 C   0  0  2  0  0  3  0  0  0  0  0  0
  187.2930  177.6170  141.2620 O   0  0  0  0  0  0  0  0  0  0  0  0
  189.0940  176.8190  145.4410 O   0  0  0  0  0  1  0  0  0  0  0  0
  188.3550  177.6930  144.6380 C   0  0  2  0  0  3  0  0  0  0  0  0
  186.9190  177.8120  145.1520 C   0  0  0  0  0  2  0  0  0  0  0  0
  186.8950  178.2970  146.4730 O   0  0  0  0  0  0  0  0  0  0  0  0
  184.5860  178.0830  147.1670 C   0  0  0  0  0  1  0  0  0  0  0  0
  185.6930  179.0080  146.6780 C   0  0  0  0  0  0  0  0  0  0  0  0
  185.2570  179.5970  145.3530 C   0  0  0  0  0  1  0  0  0  0  0  0
  185.8640  180.0540  147.5750 F   0  0  0  0  0  0  0  0  0  0  0  0
  190.5120  178.7540  143.1930 O   0  0  0  0  0  0  0  0  0  0  0  0
  191.5760  178.8060  144.1000 C   0  0  0  0  0  0  0  0  0  0  0  0
  191.9880  177.6760  144.7950 O   0  0  0  0  0  1  0  0  0  0  0  0
  192.1600  179.9010  144.3020 O   0  0  0  0  0  0  0  0  0  0  0  0
  1 25  1  0  0  0  0
  3 17  1  6  0  0  0
  3  1  1  0  0  0  0
  4 21  1  0  0  0  0
  5 22  2  0  0  0  0
  6  4  1  0  0  0  0
  7 16  1  0  0  0  0
  7 34  1  6  0  0  0
  8 23  1  6  0  0  0
  8 18  1  0  0  0  0
 11  7  1  0  0  0  0
 12 15  2  0  0  0  0
 13  9  1  6  0  0  0
 13  3  1  0  0  0  0
 14 15  1  0  0  0  0
 15  6  1  0  0  0  0
 16 10  1  6  0  0  0
 16 27  1  0  0  0  0
 18 13  1  0  0  0  0
 19  5  1  0  0  0  0
 19 24  1  0  0  0  0
 20 16  1  0  0  0  0
 21 11  1  0  0  0  0
 22  8  1  0  0  0  0
 24 14  1  0  0  0  0
 24  2  1  1  0  0  0
 25 20  1  0  0  0  0
 27 28  1  0  0  0  0
 27 26  1  1  0  0  0
 28 29  1  0  0  0  0
 29 31  1  0  0  0  0
 31 30  1  0  0  0  0
 31 33  1  0  0  0  0
 32 31  1  0  0  0  0
 34 35  1  0  0  0  0
 35 37  2  0  0  0  0
 35 36  1  0  0  0  0
M  END
>  <MODEL>
8

>  <REMARK>
 VINA RESULT:      -5.6      4.409      8.894
  Name = 
  6 active torsions:
  status: ('A' for Active; 'I' for Inactive)
    1  A    between atoms: C_4  and  O_22
    2  A    between atoms: C_10  and  O_22
    3  A    between atoms: O_16  and  C_21
    4  A    between atoms: O_16  and  C_30
    5  A    between atoms: C_20  and  C_24
    6  A    between atoms: C_24  and  C_30
                            x       y       z     vdW  Elec       q    Type
                         _______ _______ _______ _____ _____    ______ ____

>  <TORSDO>
F 6

$$$$
=
 OpenBabel11052415353D

 37 37  0  0  1  0  0  0  0  0999 V2000
  186.8730  179.0330  142.4940 C   0  0  0  0  0  2  0  0  0  0  0  0
  185.5360  174.9630  137.7000 O   0  0  0  0  0  1  0  0  0  0  0  0
  185.4760  179.1580  143.0830 C   0  0  2  0  0  3  0  0  0  0  0  0
  187.9410  176.9380  137.8720 C   0  0  0  0  0  2  0  0  0  0  0  0
  183.3080  176.5210  137.9650 C   0  0  0  0  0  3  0  0  0  0  0  0
  188.2130  176.2350  136.5560 C   0  0  0  0  0  2  0  0  0  0  0  0
  189.8220  176.9370  141.2000 C   0  0  2  0  0  3  0  0  0  0  0  0
  183.4830  177.4380  140.2440 C   0  0  2  0  0  3  0  0  0  0  0  0
  183.2570  178.2610  143.0820 O   0  0  0  0  0  1  0  0  0  0  0  0
  188.6640  175.5050  142.9030 C   0  0  0  0  0  1  0  0  0  0  0  0
  188.6600  177.1090  140.2250 C   0  0  0  0  0  2  0  0  0  0  0  0
  186.7850  177.4550  135.1350 O   0  0  0  0  0  0  0  0  0  0  0  0
  184.4850  178.2000  142.4180 C   0  0  1  0  0  3  0  0  0  0  0  0
  186.1450  175.1960  135.3900 C   0  0  0  0  0  2  0  0  0  0  0  0
  187.0320  176.3780  135.6540 C   0  0  0  0  0  0  0  0  0  0  0  0
  189.4140  176.8320  142.6910 C   0  0  2  0  0  0  0  0  0  0  0  0
  185.0360  180.4790  142.9700 O   0  0  0  0  0  1  0  0  0  0  0  0
  184.3010  178.5140  140.9360 C   0  0  0  0  0  2  0  0  0  0  0  0
  183.8430  176.4930  136.2520 S   0  0  0  0  0  0  0  0  0  0  0  0
  188.6460  177.9590  143.0900 O   0  0  0  0  0  0  0  0  0  0  0  0
  189.0800  176.6810  138.8330 C   0  0  0  0  0  2  0  0  0  0  0  0
  183.8650  177.3930  138.8040 C   0  0  0  0  0  3  0  0  0  0  0  0
  182.1240  177.7340  140.3690 O   0  0  0  0  0  1  0  0  0  0  0  0
  185.0120  175.0850  136.4100 C   0  0  2  0  0  3  0  0  0  0  0  0
  187.3850  177.7570  142.7390 O   0  0  0  0  0  0  0  0  0  0  0  0
  191.2840  175.5400  143.5830 O   0  0  0  0  0  1  0  0  0  0  0  0
  190.6980  176.8100  143.5490 C   0  0  2  0  0  3  0  0  0  0  0  0
  190.5140  177.3550  144.9670 C   0  0  0  0  0  2  0  0  0  0  0  0
  191.7020  177.2350  145.7110 O   0  0  0  0  0  0  0  0  0  0  0  0
  192.0220  175.3150  147.1490 C   0  0  0  0  0  1  0  0  0  0  0  0
  191.3960  176.6930  146.9780 C   0  0  0  0  0  0  0  0  0  0  0  0
  189.8930  176.5370  147.0780 C   0  0  0  0  0  1  0  0  0  0  0  0
  191.8080  177.5300  148.0060 F   0  0  0  0  0  0  0  0  0  0  0  0
  190.8790  177.8740  140.9610 O   0  0  0  0  0  0  0  0  0  0  0  0
  192.1260  177.5480  140.4180 C   0  0  0  0  0  0  0  0  0  0  0  0
  192.2620  177.2060  139.0780 O   0  0  0  0  0  0  0  0  0  0  0  0
  193.1410  177.5490  141.1610 O   0  0  0  0  0  1  0  0  0  0  0  0
  1 25  1  0  0  0  0
  1  3  1  0  0  0  0
  3 17  1  6  0  0  0
  4 21  1  0  0  0  0
  5 22  2  0  0  0  0
  6  4  1  0  0  0  0
  7 34  1  1  0  0  0
  7 16  1  0  0  0  0
  8 23  1  6  0  0  0
  8 18  1  0  0  0  0
 11  7  1  0  0  0  0
 12 15  2  0  0  0  0
 13  9  1  1  0  0  0
 13  3  1  0  0  0  0
 14 15  1  0  0  0  0
 14 24  1  0  0  0  0
 15  6  1  0  0  0  0
 16 10  1  1  0  0  0
 16 20  1  0  0  0  0
 16 27  1  0  0  0  0
 18 13  1  0  0  0  0
 19 24  1  0  0  0  0
 19  5  1  0  0  0  0
 21 11  1  0  0  0  0
 22  8  1  0  0  0  0
 24  2  1  1  0  0  0
 25 20  1  0  0  0  0
 27 26  1  1  0  0  0
 27 28  1  0  0  0  0
 28 29  1  0  0  0  0
 29 31  1  0  0  0  0
 31 32  1  0  0  0  0
 31 30  1  0  0  0  0
 31 33  1  0  0  0  0
 35 34  1  0  0  0  0
 35 37  1  0  0  0  0
 36 35  2  0  0  0  0
M  END
>  <MODEL>
9

>  <REMARK>
 VINA RESULT:      -5.2      4.038      9.882
  Name = 
  6 active torsions:
  status: ('A' for Active; 'I' for Inactive)
    1  A    between atoms: C_4  and  O_22
    2  A    between atoms: C_10  and  O_22
    3  A    between atoms: O_16  and  C_21
    4  A    between atoms: O_16  and  C_30
    5  A    between atoms: C_20  and  C_24
    6  A    between atoms: C_24  and  C_30
                            x       y       z     vdW  Elec       q    Type
                         _______ _______ _______ _____ _____    ______ ____

>  <TORSDO>
F 6

$$$$
