=
 OpenBabel11052412463D

 25 28  0  0  1  0  0  0  0  0999 V2000
  185.8130  177.9780  144.1520 C   0  0  0  0  0  0  0  0  0  0  0  0
  186.9550  177.7170  144.9310 C   0  0  0  0  0  0  0  0  0  0  0  0
  184.5560  178.6940  146.0950 C   0  0  0  0  0  3  0  0  0  0  0  0
  185.5590  177.8380  142.6920 C   0  0  1  0  0  3  0  0  0  0  0  0
  184.5150  179.2760  140.4570 C   0  0  0  0  0  3  0  0  0  0  0  0
  185.7010  178.5040  146.8850 C   0  0  0  0  0  3  0  0  0  0  0  0
  184.1500  178.3510  142.6250 C   0  0  0  0  0  0  0  0  0  0  0  0
  183.6200  178.8430  141.3540 C   0  0  0  0  0  3  0  0  0  0  0  0
  189.3450  177.9590  146.4570 C   0  0  0  0  0  2  0  0  0  0  0  0
  188.0570  177.9330  147.0740 O   0  0  0  0  0  0  0  0  0  0  0  0
  188.2200  177.1170  144.4160 C   0  0  0  0  0  0  0  0  0  0  0  0
  185.9260  179.2940  140.7680 N   0  0  0  0  0  0  0  0  0  0  0  0
  184.6440  178.4220  144.7320 C   0  0  0  0  0  0  0  0  0  0  0  0
  183.6340  178.6750  143.7700 N   0  0  0  0  0  0  0  0  0  0  0  0
  189.3320  177.2150  145.1500 C   0  0  0  0  0  3  0  0  0  0  0  0
  186.4280  178.6970  141.8150 C   0  0  0  0  0  3  0  0  0  0  0  0
  186.8980  178.0490  146.3010 C   0  0  0  0  0  0  0  0  0  0  0  0
  188.2860  176.3750  143.2320 O   0  0  0  0  0  0  0  0  0  0  0  0
  189.4800  176.2400  142.4690 C   0  0  0  0  0  2  0  0  0  0  0  0
  189.7110  177.4660  141.5880 C   0  0  0  0  0  2  0  0  0  0  0  0
  189.5830  177.1780  140.0910 C   0  0  1  0  0  3  0  0  0  0  0  0
  189.0640  178.3800  139.3150 C   0  0  0  0  0  1  0  0  0  0  0  0
  190.8350  176.6100  139.4980 C   0  0  0  0  0  0  0  0  0  0  0  0
  191.9600  177.1180  139.7530 O   0  0  0  0  0  1  0  0  0  0  0  0
  190.7600  175.4820  138.6930 O   0  0  0  0  0  0  0  0  0  0  0  0
  1 13  2  0  0  0  0
  1  2  1  0  0  0  0
  2 17  2  0  0  0  0
  3  6  2  0  0  0  0
  4 16  1  6  0  0  0
  4  1  1  0  0  0  0
  5 12  1  0  0  0  0
  5  8  2  0  0  0  0
  7  4  1  0  0  0  0
  7 14  2  0  0  0  0
  8  7  1  0  0  0  0
  9 10  1  0  0  0  0
 11  2  1  0  0  0  0
 11 15  2  0  0  0  0
 12 16  2  0  0  0  0
 13  3  1  0  0  0  0
 14 13  1  0  0  0  0
 15  9  1  0  0  0  0
 17  6  1  0  0  0  0
 17 10  1  0  0  0  0
 18 11  1  0  0  0  0
 19 18  1  0  0  0  0
 20 19  1  0  0  0  0
 21 22  1  6  0  0  0
 21 20  1  0  0  0  0
 23 24  1  0  0  0  0
 23 21  1  0  0  0  0
 25 23  2  0  0  0  0
M  END
>  <MODEL>
1

>  <REMARK>
 VINA RESULT:      -8.7      0.000      0.000
  Name = 
  5 active torsions:
  status: ('A' for Active; 'I' for Inactive)
    1  A    between atoms: C_2  and  C_21
    2  A    between atoms: C_6  and  C_15
    3  A    between atoms: C_6  and  O_23
    4  A    between atoms: C_15  and  C_21
    5  A    between atoms: C_16  and  O_23
                            x       y       z     vdW  Elec       q    Type
                         _______ _______ _______ _____ _____    ______ ____

>  <TORSDO>
F 5

$$$$
=
 OpenBabel11052412463D

 25 28  0  0  1  0  0  0  0  0999 V2000
  187.1760  177.7740  145.9080 C   0  0  0  0  0  0  0  0  0  0  0  0
  188.5310  177.4220  145.7730 C   0  0  0  0  0  0  0  0  0  0  0  0
  187.4510  178.2430  148.2680 C   0  0  0  0  0  3  0  0  0  0  0  0
  186.0620  177.8130  144.9210 C   0  0  1  0  0  3  0  0  0  0  0  0
  183.9680  179.5110  143.9810 C   0  0  0  0  0  3  0  0  0  0  0  0
  188.8210  177.9610  148.1470 C   0  0  0  0  0  3  0  0  0  0  0  0
  184.9570  178.3270  145.7990 C   0  0  0  0  0  0  0  0  0  0  0  0
  183.7930  178.9700  145.1920 C   0  0  0  0  0  3  0  0  0  0  0  0
  191.3620  177.4820  145.4880 C   0  0  0  0  0  2  0  0  0  0  0  0
  190.7360  177.3770  146.7680 O   0  0  0  0  0  0  0  0  0  0  0  0
  189.1550  176.8930  144.5260 C   0  0  0  0  0  0  0  0  0  0  0  0
  185.2640  179.4950  143.3420 N   0  0  0  0  0  0  0  0  0  0  0  0
  186.6540  178.1400  147.1310 C   0  0  0  0  0  0  0  0  0  0  0  0
  185.2880  178.5070  147.0400 N   0  0  0  0  0  0  0  0  0  0  0  0
  190.4860  176.9040  144.4100 C   0  0  0  0  0  3  0  0  0  0  0  0
  186.2610  178.7750  143.7820 C   0  0  0  0  0  3  0  0  0  0  0  0
  189.3610  177.5830  146.9030 C   0  0  0  0  0  0  0  0  0  0  0  0
  188.4180  176.3020  143.4950 O   0  0  0  0  0  0  0  0  0  0  0  0
  188.8350  176.3250  142.1340 C   0  0  0  0  0  2  0  0  0  0  0  0
  188.5310  177.6750  141.4880 C   0  0  0  0  0  2  0  0  0  0  0  0
  189.3510  177.9480  140.2250 C   0  0  1  0  0  3  0  0  0  0  0  0
  190.1380  176.7260  139.7740 C   0  0  0  0  0  1  0  0  0  0  0  0
  188.5350  178.5450  139.1200 C   0  0  0  0  0  0  0  0  0  0  0  0
  189.0820  179.2080  138.1980 O   0  0  0  0  0  0  0  0  0  0  0  0
  187.1640  178.3290  139.0880 O   0  0  0  0  0  1  0  0  0  0  0  0
  1 13  1  0  0  0  0
  2  1  2  0  0  0  0
  2 17  1  0  0  0  0
  4 16  1  6  0  0  0
  4  7  1  0  0  0  0
  4  1  1  0  0  0  0
  5  8  2  0  0  0  0
  6  3  1  0  0  0  0
  7 14  2  0  0  0  0
  8  7  1  0  0  0  0
  9 10  1  0  0  0  0
 10 17  1  0  0  0  0
 11  2  1  0  0  0  0
 12 16  2  0  0  0  0
 12  5  1  0  0  0  0
 13  3  2  0  0  0  0
 14 13  1  0  0  0  0
 15 11  2  0  0  0  0
 15  9  1  0  0  0  0
 17  6  2  0  0  0  0
 18 11  1  0  0  0  0
 19 18  1  0  0  0  0
 20 19  1  0  0  0  0
 21 22  1  6  0  0  0
 21 20  1  0  0  0  0
 23 21  1  0  0  0  0
 24 23  2  0  0  0  0
 25 23  1  0  0  0  0
M  END
>  <MODEL>
2

>  <REMARK>
 VINA RESULT:      -8.5      1.898      2.725
  Name = 
  5 active torsions:
  status: ('A' for Active; 'I' for Inactive)
    1  A    between atoms: C_2  and  C_21
    2  A    between atoms: C_6  and  C_15
    3  A    between atoms: C_6  and  O_23
    4  A    between atoms: C_15  and  C_21
    5  A    between atoms: C_16  and  O_23
                            x       y       z     vdW  Elec       q    Type
                         _______ _______ _______ _____ _____    ______ ____

>  <TORSDO>
F 5

$$$$
=
 OpenBabel11052412463D

 25 28  0  0  1  0  0  0  0  0999 V2000
  188.0180  177.7970  144.3260 C   0  0  0  0  0  0  0  0  0  0  0  0
  186.7790  178.1550  143.7650 C   0  0  0  0  0  0  0  0  0  0  0  0
  187.1030  177.8250  146.5670 C   0  0  0  0  0  3  0  0  0  0  0  0
  189.3430  177.5250  143.7020 C   0  0  1  0  0  3  0  0  0  0  0  0
  191.4600  175.6080  143.6990 C   0  0  0  0  0  3  0  0  0  0  0  0
  185.8390  178.1190  146.0290 C   0  0  0  0  0  3  0  0  0  0  0  0
  190.1350  177.1660  144.9260 C   0  0  0  0  0  0  0  0  0  0  0  0
  191.3590  176.3780  144.7890 C   0  0  0  0  0  3  0  0  0  0  0  0
  184.1240  178.1250  142.7400 C   0  0  0  0  0  2  0  0  0  0  0  0
  184.4030  178.4680  144.0990 O   0  0  0  0  0  0  0  0  0  0  0  0
  186.5460  178.4390  142.3200 C   0  0  0  0  0  0  0  0  0  0  0  0
  190.3790  175.5340  142.7430 N   0  0  0  0  0  0  0  0  0  0  0  0
  188.1730  177.6710  145.6890 C   0  0  0  0  0  0  0  0  0  0  0  0
  189.4800  177.2520  146.0420 N   0  0  0  0  0  0  0  0  0  0  0  0
  185.2940  178.4450  141.8520 C   0  0  0  0  0  3  0  0  0  0  0  0
  189.3660  176.3580  142.7530 C   0  0  0  0  0  3  0  0  0  0  0  0
  185.6740  178.2520  144.6380 C   0  0  0  0  0  0  0  0  0  0  0  0
  187.5720  178.7850  141.4350 O   0  0  0  0  0  0  0  0  0  0  0  0
  187.6560  178.2740  140.1090 C   0  0  0  0  0  2  0  0  0  0  0  0
  189.0770  178.3990  139.5610 C   0  0  0  0  0  2  0  0  0  0  0  0
  189.4680  177.2680  138.6080 C   0  0  1  0  0  3  0  0  0  0  0  0
  189.5770  177.7410  137.1660 C   0  0  0  0  0  1  0  0  0  0  0  0
  190.6830  176.5200  139.0610 C   0  0  0  0  0  0  0  0  0  0  0  0
  190.8980  175.3390  138.6750 O   0  0  0  0  0  0  0  0  0  0  0  0
  191.6080  177.1510  139.8820 O   0  0  0  0  0  1  0  0  0  0  0  0
  1 13  1  0  0  0  0
  2  1  2  0  0  0  0
  2 17  1  0  0  0  0
  4 16  1  6  0  0  0
  4  1  1  0  0  0  0
  4  7  1  0  0  0  0
  5  8  2  0  0  0  0
  6  3  1  0  0  0  0
  7 14  2  0  0  0  0
  8  7  1  0  0  0  0
  9 10  1  0  0  0  0
 10 17  1  0  0  0  0
 11  2  1  0  0  0  0
 12 16  2  0  0  0  0
 12  5  1  0  0  0  0
 13 14  1  0  0  0  0
 13  3  2  0  0  0  0
 15 11  2  0  0  0  0
 15  9  1  0  0  0  0
 17  6  2  0  0  0  0
 18 11  1  0  0  0  0
 19 18  1  0  0  0  0
 20 19  1  0  0  0  0
 21 22  1  6  0  0  0
 21 23  1  0  0  0  0
 21 20  1  0  0  0  0
 23 25  1  0  0  0  0
 24 23  2  0  0  0  0
M  END
>  <MODEL>
3

>  <REMARK>
 VINA RESULT:      -8.4      2.360      4.393
  Name = 
  5 active torsions:
  status: ('A' for Active; 'I' for Inactive)
    1  A    between atoms: C_2  and  C_21
    2  A    between atoms: C_6  and  C_15
    3  A    between atoms: C_6  and  O_23
    4  A    between atoms: C_15  and  C_21
    5  A    between atoms: C_16  and  O_23
                            x       y       z     vdW  Elec       q    Type
                         _______ _______ _______ _____ _____    ______ ____

>  <TORSDO>
F 5

$$$$
=
 OpenBabel11052412463D

 25 28  0  0  1  0  0  0  0  0999 V2000
  185.6870  178.0000  144.1600 C   0  0  0  0  0  0  0  0  0  0  0  0
  186.7140  177.7110  145.0760 C   0  0  0  0  0  0  0  0  0  0  0  0
  184.2370  178.8150  145.9200 C   0  0  0  0  0  3  0  0  0  0  0  0
  185.6050  177.8340  142.6830 C   0  0  1  0  0  3  0  0  0  0  0  0
  184.9030  179.2570  140.3080 C   0  0  0  0  0  3  0  0  0  0  0  0
  185.2680  178.5980  146.8470 C   0  0  0  0  0  3  0  0  0  0  0  0
  184.2380  178.4020  142.4340 C   0  0  0  0  0  0  0  0  0  0  0  0
  183.8880  178.8840  141.0980 C   0  0  0  0  0  3  0  0  0  0  0  0
  188.9100  177.8940  146.8780 C   0  0  0  0  0  2  0  0  0  0  0  0
  187.5570  177.9360  147.3340 O   0  0  0  0  0  0  0  0  0  0  0  0
  188.0040  177.0480  144.7310 C   0  0  0  0  0  0  0  0  0  0  0  0
  186.2660  179.2250  140.7890 N   0  0  0  0  0  0  0  0  0  0  0  0
  184.4770  178.5050  144.5830 C   0  0  0  0  0  0  0  0  0  0  0  0
  183.6030  178.7760  143.5000 N   0  0  0  0  0  0  0  0  0  0  0  0
  189.0230  177.1190  145.5930 C   0  0  0  0  0  3  0  0  0  0  0  0
  186.6110  178.6340  141.9010 C   0  0  0  0  0  3  0  0  0  0  0  0
  186.5060  178.0800  146.4230 C   0  0  0  0  0  0  0  0  0  0  0  0
  188.1810  176.2750  143.5790 O   0  0  0  0  0  0  0  0  0  0  0  0
  189.4300  175.6950  143.2200 C   0  0  0  0  0  2  0  0  0  0  0  0
  190.0210  176.3820  141.9900 C   0  0  0  0  0  2  0  0  0  0  0  0
  191.3650  177.0640  142.2560 C   0  0  1  0  0  3  0  0  0  0  0  0
  192.0520  177.5030  140.9710 C   0  0  0  0  0  1  0  0  0  0  0  0
  191.2680  178.1690  143.2620 C   0  0  0  0  0  0  0  0  0  0  0  0
  192.0560  178.2210  144.2440 O   0  0  0  0  0  1  0  0  0  0  0  0
  190.3250  179.1730  143.0860 O   0  0  0  0  0  0  0  0  0  0  0  0
  1 13  2  0  0  0  0
  1  2  1  0  0  0  0
  2 17  2  0  0  0  0
  3  6  2  0  0  0  0
  4 16  1  6  0  0  0
  4  1  1  0  0  0  0
  5 12  1  0  0  0  0
  5  8  2  0  0  0  0
  7  4  1  0  0  0  0
  7 14  2  0  0  0  0
  8  7  1  0  0  0  0
  9 10  1  0  0  0  0
 11  2  1  0  0  0  0
 11 15  2  0  0  0  0
 12 16  2  0  0  0  0
 13  3  1  0  0  0  0
 14 13  1  0  0  0  0
 15  9  1  0  0  0  0
 17  6  1  0  0  0  0
 17 10  1  0  0  0  0
 18 11  1  0  0  0  0
 19 18  1  0  0  0  0
 20 21  1  0  0  0  0
 20 19  1  0  0  0  0
 21 22  1  6  0  0  0
 21 23  1  0  0  0  0
 23 24  1  0  0  0  0
 25 23  2  0  0  0  0
M  END
>  <MODEL>
4

>  <REMARK>
 VINA RESULT:      -8.3      1.728      1.964
  Name = 
  5 active torsions:
  status: ('A' for Active; 'I' for Inactive)
    1  A    between atoms: C_2  and  C_21
    2  A    between atoms: C_6  and  C_15
    3  A    between atoms: C_6  and  O_23
    4  A    between atoms: C_15  and  C_21
    5  A    between atoms: C_16  and  O_23
                            x       y       z     vdW  Elec       q    Type
                         _______ _______ _______ _____ _____    ______ ____

>  <TORSDO>
F 5

$$$$
=
 OpenBabel11052412463D

 25 28  0  0  1  0  0  0  0  0999 V2000
  187.5000  177.5220  144.2110 C   0  0  0  0  0  0  0  0  0  0  0  0
  188.8530  177.2670  144.4980 C   0  0  0  0  0  0  0  0  0  0  0  0
  186.9720  177.7950  146.5590 C   0  0  0  0  0  3  0  0  0  0  0  0
  186.7580  177.5810  142.9230 C   0  0  1  0  0  3  0  0  0  0  0  0
  184.9310  179.2260  141.4690 C   0  0  0  0  0  3  0  0  0  0  0  0
  188.3290  177.6080  146.8680 C   0  0  0  0  0  3  0  0  0  0  0  0
  185.3920  177.9460  143.4280 C   0  0  0  0  0  0  0  0  0  0  0  0
  184.4280  178.5690  142.5210 C   0  0  0  0  0  3  0  0  0  0  0  0
  191.6130  177.5240  145.1460 C   0  0  0  0  0  2  0  0  0  0  0  0
  190.6250  177.2680  146.1460 O   0  0  0  0  0  0  0  0  0  0  0  0
  189.8830  176.8900  143.4870 C   0  0  0  0  0  0  0  0  0  0  0  0
  186.3590  179.3460  141.2830 N   0  0  0  0  0  0  0  0  0  0  0  0
  186.5890  177.7450  145.2210 C   0  0  0  0  0  0  0  0  0  0  0  0
  185.2960  178.0350  144.7180 N   0  0  0  0  0  0  0  0  0  0  0  0
  191.1770  176.9920  143.8080 C   0  0  0  0  0  3  0  0  0  0  0  0
  187.2230  178.6520  141.9740 C   0  0  0  0  0  3  0  0  0  0  0  0
  189.2650  177.3770  145.8440 C   0  0  0  0  0  0  0  0  0  0  0  0
  189.5650  176.3500  142.2370 O   0  0  0  0  0  0  0  0  0  0  0  0
  190.2390  176.7210  141.0390 C   0  0  0  0  0  2  0  0  0  0  0  0
  189.2480  176.9480  139.8990 C   0  0  0  0  0  2  0  0  0  0  0  0
  189.8030  177.8190  138.7700 C   0  0  1  0  0  3  0  0  0  0  0  0
  190.5960  177.0090  137.7550 C   0  0  0  0  0  1  0  0  0  0  0  0
  188.7550  178.6760  138.1290 C   0  0  0  0  0  0  0  0  0  0  0  0
  189.0760  179.6510  137.3970 O   0  0  0  0  0  0  0  0  0  0  0  0
  187.4140  178.3650  138.3070 O   0  0  0  0  0  1  0  0  0  0  0  0
  1  2  2  0  0  0  0
  1 13  1  0  0  0  0
  2 17  1  0  0  0  0
  3  6  1  0  0  0  0
  4 16  1  6  0  0  0
  4  7  1  0  0  0  0
  4  1  1  0  0  0  0
  5  8  2  0  0  0  0
  7 14  2  0  0  0  0
  8  7  1  0  0  0  0
  9 10  1  0  0  0  0
 11 15  2  0  0  0  0
 11  2  1  0  0  0  0
 12  5  1  0  0  0  0
 12 16  2  0  0  0  0
 13  3  2  0  0  0  0
 14 13  1  0  0  0  0
 15  9  1  0  0  0  0
 17 10  1  0  0  0  0
 17  6  2  0  0  0  0
 18 11  1  0  0  0  0
 19 18  1  0  0  0  0
 20 19  1  0  0  0  0
 21 22  1  6  0  0  0
 21 20  1  0  0  0  0
 23 25  1  0  0  0  0
 23 21  1  0  0  0  0
 24 23  2  0  0  0  0
M  END
>  <MODEL>
5

>  <REMARK>
 VINA RESULT:      -8.3      1.811      2.339
  Name = 
  5 active torsions:
  status: ('A' for Active; 'I' for Inactive)
    1  A    between atoms: C_2  and  C_21
    2  A    between atoms: C_6  and  C_15
    3  A    between atoms: C_6  and  O_23
    4  A    between atoms: C_15  and  C_21
    5  A    between atoms: C_16  and  O_23
                            x       y       z     vdW  Elec       q    Type
                         _______ _______ _______ _____ _____    ______ ____

>  <TORSDO>
F 5

$$$$
=
 OpenBabel11052412463D

 25 28  0  0  1  0  0  0  0  0999 V2000
  188.2820  177.8200  145.4570 C   0  0  0  0  0  0  0  0  0  0  0  0
  186.9580  178.2130  145.7240 C   0  0  0  0  0  0  0  0  0  0  0  0
  188.8600  177.8900  147.8070 C   0  0  0  0  0  3  0  0  0  0  0  0
  188.9800  177.5040  144.1810 C   0  0  1  0  0  3  0  0  0  0  0  0
  190.6490  175.5220  142.9780 C   0  0  0  0  0  3  0  0  0  0  0  0
  187.5290  178.2190  148.1080 C   0  0  0  0  0  3  0  0  0  0  0  0
  190.3330  177.1280  144.7130 C   0  0  0  0  0  0  0  0  0  0  0  0
  191.2250  176.3020  143.9010 C   0  0  0  0  0  3  0  0  0  0  0  0
  184.2070  178.2570  146.4570 C   0  0  0  0  0  2  0  0  0  0  0  0
  185.2400  178.6000  147.3840 O   0  0  0  0  0  0  0  0  0  0  0  0
  185.9250  178.4940  144.6850 C   0  0  0  0  0  0  0  0  0  0  0  0
  189.2110  175.4750  142.8410 N   0  0  0  0  0  0  0  0  0  0  0  0
  189.2060  177.6980  146.4720 C   0  0  0  0  0  0  0  0  0  0  0  0
  190.4610  177.2410  145.9980 N   0  0  0  0  0  0  0  0  0  0  0  0
  184.6380  178.5360  145.0430 C   0  0  0  0  0  3  0  0  0  0  0  0
  188.4150  176.3300  143.4260 C   0  0  0  0  0  3  0  0  0  0  0  0
  186.5800  178.3480  147.0770 C   0  0  0  0  0  0  0  0  0  0  0  0
  186.2410  178.8030  143.3590 O   0  0  0  0  0  0  0  0  0  0  0  0
  185.3200  179.4240  142.4680 C   0  0  0  0  0  2  0  0  0  0  0  0
  185.3740  178.7780  141.0840 C   0  0  0  0  0  2  0  0  0  0  0  0
  183.9960  178.5560  140.4580 C   0  0  1  0  0  3  0  0  0  0  0  0
  182.9030  178.4160  141.5070 C   0  0  0  0  0  1  0  0  0  0  0  0
  183.6610  179.5740  139.4120 C   0  0  0  0  0  0  0  0  0  0  0  0
  184.5600  180.2910  138.8960 O   0  0  0  0  0  0  0  0  0  0  0  0
  182.3500  179.7000  138.9750 O   0  0  0  0  0  1  0  0  0  0  0  0
  1  2  2  0  0  0  0
  1 13  1  0  0  0  0
  2 17  1  0  0  0  0
  3  6  1  0  0  0  0
  4 16  1  1  0  0  0
  4  7  1  0  0  0  0
  4  1  1  0  0  0  0
  5  8  2  0  0  0  0
  7 14  2  0  0  0  0
  8  7  1  0  0  0  0
  9 10  1  0  0  0  0
 11 15  2  0  0  0  0
 11  2  1  0  0  0  0
 12  5  1  0  0  0  0
 12 16  2  0  0  0  0
 13  3  2  0  0  0  0
 14 13  1  0  0  0  0
 15  9  1  0  0  0  0
 17 10  1  0  0  0  0
 17  6  2  0  0  0  0
 18 11  1  0  0  0  0
 19 18  1  0  0  0  0
 20 19  1  0  0  0  0
 21 20  1  0  0  0  0
 21 22  1  1  0  0  0
 23 21  1  0  0  0  0
 24 23  2  0  0  0  0
 25 23  1  0  0  0  0
M  END
>  <MODEL>
6

>  <REMARK>
 VINA RESULT:      -8.2      3.204      5.506
  Name = 
  5 active torsions:
  status: ('A' for Active; 'I' for Inactive)
    1  A    between atoms: C_2  and  C_21
    2  A    between atoms: C_6  and  C_15
    3  A    between atoms: C_6  and  O_23
    4  A    between atoms: C_15  and  C_21
    5  A    between atoms: C_16  and  O_23
                            x       y       z     vdW  Elec       q    Type
                         _______ _______ _______ _____ _____    ______ ____

>  <TORSDO>
F 5

$$$$
=
 OpenBabel11052412463D

 25 28  0  0  1  0  0  0  0  0999 V2000
  184.1700  178.8180  143.4150 C   0  0  0  0  0  0  0  0  0  0  0  0
  183.8700  178.7140  142.0450 C   0  0  0  0  0  0  0  0  0  0  0  0
  181.8240  178.9580  143.9990 C   0  0  0  0  0  3  0  0  0  0  0  0
  185.4680  178.8310  144.1440 C   0  0  1  0  0  3  0  0  0  0  0  0
  186.7990  177.6170  146.3590 C   0  0  0  0  0  3  0  0  0  0  0  0
  181.4940  178.7890  142.6450 C   0  0  0  0  0  3  0  0  0  0  0  0
  184.9690  178.9190  145.5570 C   0  0  0  0  0  0  0  0  0  0  0  0
  185.8360  178.4970  146.6570 C   0  0  0  0  0  3  0  0  0  0  0  0
  183.1140  177.7660  139.4690 C   0  0  0  0  0  2  0  0  0  0  0  0
  182.1760  178.3950  140.3450 O   0  0  0  0  0  0  0  0  0  0  0  0
  184.8820  178.6770  140.9500 C   0  0  0  0  0  0  0  0  0  0  0  0
  186.9280  177.0830  145.0220 N   0  0  0  0  0  0  0  0  0  0  0  0
  183.1710  178.9680  144.3530 C   0  0  0  0  0  0  0  0  0  0  0  0
  183.6800  179.0000  145.6750 N   0  0  0  0  0  0  0  0  0  0  0  0
  184.5130  178.2520  139.7380 C   0  0  0  0  0  3  0  0  0  0  0  0
  186.2870  177.5770  143.9980 C   0  0  0  0  0  3  0  0  0  0  0  0
  182.5080  178.6380  141.6810 C   0  0  0  0  0  0  0  0  0  0  0  0
  186.1900  179.1470  141.1030 O   0  0  0  0  0  0  0  0  0  0  0  0
  187.3150  178.5130  140.5050 C   0  0  0  0  0  2  0  0  0  0  0  0
  188.4950  178.4590  141.4730 C   0  0  0  0  0  2  0  0  0  0  0  0
  189.3480  177.1970  141.3290 C   0  0  1  0  0  3  0  0  0  0  0  0
  190.4110  177.3420  140.2490 C   0  0  0  0  0  1  0  0  0  0  0  0
  189.9140  176.7250  142.6320 C   0  0  0  0  0  0  0  0  0  0  0  0
  190.0470  177.5160  143.6050 O   0  0  0  0  0  1  0  0  0  0  0  0
  190.2570  175.3890  142.7850 O   0  0  0  0  0  0  0  0  0  0  0  0
  1  4  1  0  0  0  0
  1 13  1  0  0  0  0
  2  1  2  0  0  0  0
  3 13  2  0  0  0  0
  4 16  1  1  0  0  0
  4  7  1  0  0  0  0
  5  8  2  0  0  0  0
  6  3  1  0  0  0  0
  7 14  2  0  0  0  0
  7  8  1  0  0  0  0
  9 15  1  0  0  0  0
  9 10  1  0  0  0  0
 10 17  1  0  0  0  0
 11 18  1  0  0  0  0
 11  2  1  0  0  0  0
 12  5  1  0  0  0  0
 13 14  1  0  0  0  0
 15 11  2  0  0  0  0
 16 12  2  0  0  0  0
 17  2  1  0  0  0  0
 17  6  2  0  0  0  0
 19 18  1  0  0  0  0
 19 20  1  0  0  0  0
 21 22  1  6  0  0  0
 21 20  1  0  0  0  0
 21 23  1  0  0  0  0
 23 25  2  0  0  0  0
 23 24  1  0  0  0  0
M  END
>  <MODEL>
7

>  <REMARK>
 VINA RESULT:      -7.9      2.277      4.766
  Name = 
  5 active torsions:
  status: ('A' for Active; 'I' for Inactive)
    1  A    between atoms: C_2  and  C_21
    2  A    between atoms: C_6  and  C_15
    3  A    between atoms: C_6  and  O_23
    4  A    between atoms: C_15  and  C_21
    5  A    between atoms: C_16  and  O_23
                            x       y       z     vdW  Elec       q    Type
                         _______ _______ _______ _____ _____    ______ ____

>  <TORSDO>
F 5

$$$$
=
 OpenBabel11052412463D

 25 28  0  0  1  0  0  0  0  0999 V2000
  187.5700  177.9130  142.4750 C   0  0  0  0  0  0  0  0  0  0  0  0
  186.3840  178.2830  143.1330 C   0  0  0  0  0  0  0  0  0  0  0  0
  186.6560  178.5230  140.3170 C   0  0  0  0  0  3  0  0  0  0  0  0
  188.8540  177.3610  142.9880 C   0  0  1  0  0  3  0  0  0  0  0  0
  191.6780  177.7560  142.8310 C   0  0  0  0  0  3  0  0  0  0  0  0
  185.4850  178.9610  140.9560 C   0  0  0  0  0  3  0  0  0  0  0  0
  189.6300  177.2780  141.7060 C   0  0  0  0  0  0  0  0  0  0  0  0
  191.0910  177.2340  141.7470 C   0  0  0  0  0  3  0  0  0  0  0  0
  184.2800  179.7440  144.3750 C   0  0  0  0  0  2  0  0  0  0  0  0
  184.2290  179.3760  142.9950 O   0  0  0  0  0  0  0  0  0  0  0  0
  186.1250  178.1030  144.5910 C   0  0  0  0  0  0  0  0  0  0  0  0
  190.8910  178.3730  143.8740 N   0  0  0  0  0  0  0  0  0  0  0  0
  187.6810  178.0030  141.1040 C   0  0  0  0  0  0  0  0  0  0  0  0
  188.9710  177.6340  140.6470 N   0  0  0  0  0  0  0  0  0  0  0  0
  185.1200  178.7750  145.1610 C   0  0  0  0  0  3  0  0  0  0  0  0
  189.5920  178.2620  143.9410 C   0  0  0  0  0  3  0  0  0  0  0  0
  185.3630  178.8700  142.3550 C   0  0  0  0  0  0  0  0  0  0  0  0
  186.8310  177.1940  145.3850 O   0  0  0  0  0  0  0  0  0  0  0  0
  187.2900  177.5050  146.6960 C   0  0  0  0  0  2  0  0  0  0  0  0
  188.5570  176.7220  147.0350 C   0  0  0  0  0  2  0  0  0  0  0  0
  189.7330  177.6090  147.4480 C   0  0  1  0  0  3  0  0  0  0  0  0
  189.5180  178.2520  148.8100 C   0  0  0  0  0  1  0  0  0  0  0  0
  191.0540  176.9110  147.3440 C   0  0  0  0  0  0  0  0  0  0  0  0
  191.3140  176.1600  146.3650 O   0  0  0  0  0  0  0  0  0  0  0  0
  192.0200  177.1280  148.3170 O   0  0  0  0  0  1  0  0  0  0  0  0
  1  4  1  0  0  0  0
  1  2  1  0  0  0  0
  2 11  1  0  0  0  0
  3  6  2  0  0  0  0
  3 13  1  0  0  0  0
  4 16  1  1  0  0  0
  5 12  1  0  0  0  0
  6 17  1  0  0  0  0
  7  8  1  0  0  0  0
  7  4  1  0  0  0  0
  8  5  2  0  0  0  0
  9 15  1  0  0  0  0
 10  9  1  0  0  0  0
 11 15  2  0  0  0  0
 11 18  1  0  0  0  0
 12 16  2  0  0  0  0
 13  1  2  0  0  0  0
 14 13  1  0  0  0  0
 14  7  2  0  0  0  0
 17 10  1  0  0  0  0
 17  2  2  0  0  0  0
 18 19  1  0  0  0  0
 19 20  1  0  0  0  0
 20 21  1  0  0  0  0
 21 22  1  1  0  0  0
 23 21  1  0  0  0  0
 23 25  1  0  0  0  0
 24 23  2  0  0  0  0
M  END
>  <MODEL>
8

>  <REMARK>
 VINA RESULT:      -7.7      2.872      5.927
  Name = 
  5 active torsions:
  status: ('A' for Active; 'I' for Inactive)
    1  A    between atoms: C_2  and  C_21
    2  A    between atoms: C_6  and  C_15
    3  A    between atoms: C_6  and  O_23
    4  A    between atoms: C_15  and  C_21
    5  A    between atoms: C_16  and  O_23
                            x       y       z     vdW  Elec       q    Type
                         _______ _______ _______ _____ _____    ______ ____

>  <TORSDO>
F 5

$$$$
=
 OpenBabel11052412463D

 25 28  0  0  1  0  0  0  0  0999 V2000
  186.3720  178.3300  144.0450 C   0  0  0  0  0  0  0  0  0  0  0  0
  185.2300  178.5720  143.2600 C   0  0  0  0  0  0  0  0  0  0  0  0
  185.1140  178.5860  146.0970 C   0  0  0  0  0  3  0  0  0  0  0  0
  187.7830  178.0360  143.6710 C   0  0  1  0  0  3  0  0  0  0  0  0
  189.9090  176.2130  144.2290 C   0  0  0  0  0  3  0  0  0  0  0  0
  183.9460  178.7670  145.3390 C   0  0  0  0  0  3  0  0  0  0  0  0
  188.3790  177.8540  145.0370 C   0  0  0  0  0  0  0  0  0  0  0  0
  189.6240  177.1020  145.1880 C   0  0  0  0  0  3  0  0  0  0  0  0
  182.7710  178.3220  141.8490 C   0  0  0  0  0  2  0  0  0  0  0  0
  182.8250  178.8330  143.1830 O   0  0  0  0  0  0  0  0  0  0  0  0
  185.2230  178.6750  141.7720 C   0  0  0  0  0  0  0  0  0  0  0  0
  188.9950  175.9860  143.1330 N   0  0  0  0  0  0  0  0  0  0  0  0
  186.3110  178.3700  145.4210 C   0  0  0  0  0  0  0  0  0  0  0  0
  187.5540  178.0450  146.0200 N   0  0  0  0  0  0  0  0  0  0  0  0
  184.0610  178.5790  141.1190 C   0  0  0  0  0  3  0  0  0  0  0  0
  187.9780  176.7670  142.8870 C   0  0  0  0  0  3  0  0  0  0  0  0
  184.0000  178.7290  143.9330 C   0  0  0  0  0  0  0  0  0  0  0  0
  186.3690  178.9530  141.0210 O   0  0  0  0  0  0  0  0  0  0  0  0
  186.5600  178.4750  139.6930 C   0  0  0  0  0  2  0  0  0  0  0  0
  188.0260  178.1300  139.4390 C   0  0  0  0  0  2  0  0  0  0  0  0
  188.2790  177.5090  138.0630 C   0  0  1  0  0  3  0  0  0  0  0  0
  187.0440  176.8120  137.5100 C   0  0  0  0  0  1  0  0  0  0  0  0
  188.8770  178.4770  137.0900 C   0  0  0  0  0  0  0  0  0  0  0  0
  189.2170  178.1060  135.9340 O   0  0  0  0  0  0  0  0  0  0  0  0
  189.0180  179.8100  137.4500 O   0  0  0  0  0  1  0  0  0  0  0  0
  1 13  1  0  0  0  0
  2 17  1  0  0  0  0
  2  1  2  0  0  0  0
  4 16  1  6  0  0  0
  4  1  1  0  0  0  0
  4  7  1  0  0  0  0
  5  8  2  0  0  0  0
  6  3  1  0  0  0  0
  7  8  1  0  0  0  0
  7 14  2  0  0  0  0
  9 10  1  0  0  0  0
 10 17  1  0  0  0  0
 11  2  1  0  0  0  0
 12  5  1  0  0  0  0
 13 14  1  0  0  0  0
 13  3  2  0  0  0  0
 15 11  2  0  0  0  0
 15  9  1  0  0  0  0
 16 12  2  0  0  0  0
 17  6  2  0  0  0  0
 18 11  1  0  0  0  0
 19 18  1  0  0  0  0
 20 19  1  0  0  0  0
 21 22  1  6  0  0  0
 21 20  1  0  0  0  0
 23 25  1  0  0  0  0
 23 21  1  0  0  0  0
 24 23  2  0  0  0  0
M  END
>  <MODEL>
9

>  <REMARK>
 VINA RESULT:      -7.4      2.659      4.529
  Name = 
  5 active torsions:
  status: ('A' for Active; 'I' for Inactive)
    1  A    between atoms: C_2  and  C_21
    2  A    between atoms: C_6  and  C_15
    3  A    between atoms: C_6  and  O_23
    4  A    between atoms: C_15  and  C_21
    5  A    between atoms: C_16  and  O_23
                            x       y       z     vdW  Elec       q    Type
                         _______ _______ _______ _____ _____    ______ ____

>  <TORSDO>
F 5

$$$$
