=
 OpenBabel11052412373D

 30 35  0  0  1  0  0  0  0  0999 V2000
  193.4860  176.3770  135.8500 C   0  0  1  0  0  3  0  0  0  0  0  0
  196.7380  176.0900  135.3280 C   0  0  1  0  0  3  0  0  0  0  0  0
  196.0860  174.5610  138.9510 O   0  0  0  0  0  1  0  0  0  0  0  0
  192.1810  175.5950  135.6940 C   0  0  2  0  0  3  0  0  0  0  0  0
  194.1670  176.0220  137.1650 C   0  0  1  0  0  3  0  0  0  0  0  0
  191.5840  175.8810  138.0860 C   0  0  2  0  0  3  0  0  0  0  0  0
  191.0560  173.3130  135.5640 C   0  0  0  0  0  2  0  0  0  0  0  0
  193.4870  172.2570  136.9230 O   0  0  0  0  0  1  0  0  0  0  0  0
  193.1760  176.7360  138.5100 S   0  0  0  0  0  0  0  0  0  0  0  0
  191.1760  176.0870  136.6710 N   0  0  2  0  0  0  0  0  0  0  0  0
  197.9870  175.2590  135.1160 C   0  0  0  0  0  2  0  0  0  0  0  0
  189.9490  173.9500  136.3390 C   0  0  0  0  0  0  0  0  0  0  0  0
  195.5580  175.4520  134.6040 C   0  0  0  0  0  2  0  0  0  0  0  0
  194.3080  174.5010  137.3240 C   0  0  2  0  0  3  0  0  0  0  0  0
  197.3210  175.2530  136.4750 C   0  0  2  0  0  3  0  0  0  0  0  0
  194.3730  176.4130  134.5940 C   0  0  0  0  0  2  0  0  0  0  0  0
  193.1750  173.6850  134.6170 O   0  0  0  0  0  1  0  0  0  0  0  0
  193.1040  173.6000  137.0070 C   0  0  1  0  0  3  0  0  0  0  0  0
  192.3910  174.0470  135.7150 C   0  0  1  0  0  0  0  0  0  0  0  0
  188.9490  173.2410  136.7070 N   0  0  0  0  0  2  0  0  0  0  0  0
  195.6220  173.9000  137.8110 C   0  0  1  0  0  3  0  0  0  0  0  0
  196.6770  173.8830  136.7050 C   0  0  0  0  0  2  0  0  0  0  0  0
  189.8680  175.4530  136.4170 C   0  0  2  0  0  3  0  0  0  0  0  0
  190.4210  176.1650  139.0760 C   0  0  2  0  0  3  0  0  0  0  0  0
  190.0790  177.6410  139.1320 C   0  0  1  0  0  3  0  0  0  0  0  0
  188.6130  177.7900  139.4760 C   0  0  0  0  0  1  0  0  0  0  0  0
  190.8030  176.9840  140.2940 C   0  0  0  0  0  2  0  0  0  0  0  0
  189.4190  177.4840  135.2140 O   0  0  0  0  0  1  0  0  0  0  0  0
  187.5900  175.9660  135.3890 C   0  0  0  0  0  1  0  0  0  0  0  0
  189.0970  176.1280  135.2740 C   0  0  2  0  0  3  0  0  0  0  0  0
  1 16  1  6  0  0  0
  1  5  1  0  0  0  0
  2 13  1  6  0  0  0
  2 15  1  0  0  0  0
  4 19  1  0  0  0  0
  4  1  1  0  0  0  0
  4 10  1  0  0  0  0
  5 14  1  0  0  0  0
  5  9  1  0  0  0  0
  6  9  1  0  0  0  0
  6 24  1  0  0  0  0
  7 19  1  0  0  0  0
  7 12  1  0  0  0  0
  8 18  1  0  0  0  0
 10  6  1  0  0  0  0
 11  2  1  0  0  0  0
 11 15  1  0  0  0  0
 12 23  1  0  0  0  0
 12 20  2  0  0  0  0
 14 21  1  0  0  0  0
 15 22  1  0  0  0  0
 16 13  1  0  0  0  0
 17 19  1  0  0  0  0
 18 14  1  0  0  0  0
 19 18  1  0  0  0  0
 21  3  1  0  0  0  0
 22 21  1  0  0  0  0
 23 10  1  0  0  0  0
 24 25  1  0  0  0  0
 24 27  1  0  0  0  0
 25 26  1  0  0  0  0
 25 27  1  0  0  0  0
 28 30  1  0  0  0  0
 30 29  1  0  0  0  0
 30 23  1  0  0  0  0
M  END
>  <MODEL>
1

>  <REMARK>
 VINA RESULT:      -5.3      0.000      0.000
  Name = 
  2 active torsions:
  status: ('A' for Active; 'I' for Inactive)
    1  A    between atoms: C_6  and  C_8
    2  A    between atoms: C_27  and  C_30
                            x       y       z     vdW  Elec       q    Type
                         _______ _______ _______ _____ _____    ______ ____

>  <TORSDO>
F 2

$$$$
=
 OpenBabel11052412373D

 30 35  0  0  1  0  0  0  0  0999 V2000
  183.4240  178.6290  139.5220 C   0  0  1  0  0  3  0  0  0  0  0  0
  183.7770  179.1030  142.7740 C   0  0  1  0  0  3  0  0  0  0  0  0
  180.1470  180.4770  141.8690 O   0  0  0  0  0  1  0  0  0  0  0  0
  182.8820  177.6100  138.5180 C   0  0  2  0  0  3  0  0  0  0  0  0
  182.3100  179.5430  140.0100 C   0  0  1  0  0  3  0  0  0  0  0  0
  181.4160  179.2890  137.4260 C   0  0  2  0  0  3  0  0  0  0  0  0
  181.2420  175.7130  138.0700 C   0  0  0  0  0  2  0  0  0  0  0  0
  179.6970  176.7640  140.3890 O   0  0  0  0  0  1  0  0  0  0  0  0
  181.8470  180.6330  138.6310 S   0  0  0  0  0  0  0  0  0  0  0  0
  182.5080  178.2940  137.2530 N   0  0  2  0  0  0  0  0  0  0  0  0
  183.3960  178.8170  144.2130 C   0  0  0  0  0  2  0  0  0  0  0  0
  181.1050  176.3160  136.7100 C   0  0  0  0  0  0  0  0  0  0  0  0
  183.7340  177.8150  141.9590 C   0  0  0  0  0  2  0  0  0  0  0  0
  181.1040  178.7330  140.5080 C   0  0  2  0  0  3  0  0  0  0  0  0
  182.4200  179.5620  143.3270 C   0  0  2  0  0  3  0  0  0  0  0  0
  184.3660  178.0460  140.5890 C   0  0  0  0  0  2  0  0  0  0  0  0
  182.2930  175.9500  140.1590 O   0  0  0  0  0  1  0  0  0  0  0  0
  180.5910  177.5570  139.6620 C   0  0  1  0  0  3  0  0  0  0  0  0
  181.7560  176.7070  139.1150 C   0  0  1  0  0  0  0  0  0  0  0  0
  180.2760  175.8090  135.8760 N   0  0  0  0  0  2  0  0  0  0  0  0
  180.4170  179.1070  141.8160 C   0  0  1  0  0  3  0  0  0  0  0  0
  181.2270  178.6490  143.0290 C   0  0  0  0  0  2  0  0  0  0  0  0
  182.1390  177.3010  136.2280 C   0  0  2  0  0  3  0  0  0  0  0  0
  180.8720  179.8010  136.0630 C   0  0  2  0  0  3  0  0  0  0  0  0
  180.5350  181.2790  136.1140 C   0  0  1  0  0  3  0  0  0  0  0  0
  180.7130  181.8660  134.7300 C   0  0  0  0  0  1  0  0  0  0  0  0
  179.4230  180.2450  136.0800 C   0  0  0  0  0  2  0  0  0  0  0  0
  183.4670  175.3310  135.8660 O   0  0  0  0  0  1  0  0  0  0  0  0
  184.6660  177.3910  135.8780 C   0  0  0  0  0  1  0  0  0  0  0  0
  183.3640  176.6820  135.5390 C   0  0  2  0  0  3  0  0  0  0  0  0
  1  5  1  0  0  0  0
  1 16  1  1  0  0  0
  2 13  1  6  0  0  0
  2 15  1  0  0  0  0
  2 11  1  0  0  0  0
  4 19  1  0  0  0  0
  4  1  1  0  0  0  0
  5 14  1  0  0  0  0
  6  9  1  0  0  0  0
  7 19  1  0  0  0  0
  9  5  1  0  0  0  0
 10  6  1  0  0  0  0
 10  4  1  0  0  0  0
 12  7  1  0  0  0  0
 14 21  1  0  0  0  0
 15 11  1  0  0  0  0
 16 13  1  0  0  0  0
 18  8  1  0  0  0  0
 18 14  1  0  0  0  0
 19 18  1  0  0  0  0
 19 17  1  0  0  0  0
 20 12  2  0  0  0  0
 21  3  1  0  0  0  0
 21 22  1  0  0  0  0
 22 15  1  0  0  0  0
 23 12  1  0  0  0  0
 23 10  1  0  0  0  0
 24 27  1  0  0  0  0
 24 25  1  0  0  0  0
 24  6  1  0  0  0  0
 26 25  1  0  0  0  0
 27 25  1  0  0  0  0
 30 28  1  0  0  0  0
 30 29  1  0  0  0  0
 30 23  1  0  0  0  0
M  END
>  <MODEL>
2

>  <REMARK>
 VINA RESULT:      -5.0      9.254     12.326
  Name = 
  2 active torsions:
  status: ('A' for Active; 'I' for Inactive)
    1  A    between atoms: C_6  and  C_8
    2  A    between atoms: C_27  and  C_30
                            x       y       z     vdW  Elec       q    Type
                         _______ _______ _______ _____ _____    ______ ____

>  <TORSDO>
F 2

$$$$
=
 OpenBabel11052412373D

 30 35  0  0  1  0  0  0  0  0999 V2000
  182.7230  176.9660  139.5350 C   0  0  1  0  0  3  0  0  0  0  0  0
  180.3700  178.8410  140.9040 C   0  0  1  0  0  3  0  0  0  0  0  0
  182.2420  181.1950  138.2900 O   0  0  0  0  0  1  0  0  0  0  0  0
  182.9720  176.0570  138.3310 C   0  0  2  0  0  3  0  0  0  0  0  0
  182.9770  178.4210  139.1690 C   0  0  1  0  0  3  0  0  0  0  0  0
  184.9750  177.3420  137.6250 C   0  0  2  0  0  3  0  0  0  0  0  0
  182.3560  175.4730  135.9280 C   0  0  0  0  0  2  0  0  0  0  0  0
  181.2650  178.2390  135.7440 O   0  0  0  0  0  1  0  0  0  0  0  0
  184.7680  178.6290  138.9460 S   0  0  0  0  0  0  0  0  0  0  0  0
  184.4230  176.0170  138.0170 N   0  0  2  0  0  0  0  0  0  0  0  0
  179.0850  179.6400  140.8230 C   0  0  0  0  0  2  0  0  0  0  0  0
  183.8140  175.2010  135.7500 C   0  0  0  0  0  0  0  0  0  0  0  0
  180.2620  177.5910  140.0380 C   0  0  0  0  0  2  0  0  0  0  0  0
  182.2090  178.8160  137.8990 C   0  0  2  0  0  3  0  0  0  0  0  0
  180.3240  180.1670  140.1330 C   0  0  2  0  0  3  0  0  0  0  0  0
  181.4360  176.6590  140.3220 C   0  0  0  0  0  2  0  0  0  0  0  0
  180.7290  176.1890  137.4660 O   0  0  0  0  0  1  0  0  0  0  0  0
  182.2350  177.8750  136.6840 C   0  0  1  0  0  3  0  0  0  0  0  0
  182.0620  176.4040  137.1090 C   0  0  1  0  0  0  0  0  0  0  0  0
  184.2560  174.8690  134.5950 N   0  0  0  0  0  2  0  0  0  0  0  0
  181.4470  180.1360  137.8440 C   0  0  1  0  0  3  0  0  0  0  0  0
  180.1310  180.0600  138.6180 C   0  0  0  0  0  2  0  0  0  0  0  0
  184.6880  175.0200  136.9640 C   0  0  2  0  0  3  0  0  0  0  0  0
  186.4190  177.2280  137.0620 C   0  0  2  0  0  3  0  0  0  0  0  0
  187.0700  178.5890  136.9100 C   0  0  1  0  0  3  0  0  0  0  0  0
  188.5670  178.4340  137.0690 C   0  0  0  0  0  1  0  0  0  0  0  0
  186.6140  177.8220  135.6810 C   0  0  0  0  0  2  0  0  0  0  0  0
  186.0460  173.0740  137.3470 O   0  0  0  0  0  1  0  0  0  0  0  0
  183.7490  172.6480  136.8740 C   0  0  0  0  0  1  0  0  0  0  0  0
  184.7600  173.5870  137.5130 C   0  0  2  0  0  3  0  0  0  0  0  0
  1 16  1  6  0  0  0
  2 13  1  6  0  0  0
  4  1  1  0  0  0  0
  5  1  1  0  0  0  0
  6 10  1  0  0  0  0
  6  9  1  0  0  0  0
  7 19  1  0  0  0  0
  8 18  1  0  0  0  0
  9  5  1  0  0  0  0
 10  4  1  0  0  0  0
 11  2  1  0  0  0  0
 12  7  1  0  0  0  0
 12 23  1  0  0  0  0
 13 16  1  0  0  0  0
 14  5  1  0  0  0  0
 15 11  1  0  0  0  0
 15  2  1  0  0  0  0
 18 19  1  0  0  0  0
 18 14  1  0  0  0  0
 19 17  1  0  0  0  0
 19  4  1  0  0  0  0
 20 12  2  0  0  0  0
 21 14  1  0  0  0  0
 21  3  1  0  0  0  0
 21 22  1  0  0  0  0
 22 15  1  0  0  0  0
 23 30  1  0  0  0  0
 23 10  1  0  0  0  0
 24  6  1  0  0  0  0
 25 24  1  0  0  0  0
 25 26  1  0  0  0  0
 27 25  1  0  0  0  0
 27 24  1  0  0  0  0
 28 30  1  0  0  0  0
 29 30  1  0  0  0  0
M  END
>  <MODEL>
3

>  <REMARK>
 VINA RESULT:      -4.9      6.575     11.475
  Name = 
  2 active torsions:
  status: ('A' for Active; 'I' for Inactive)
    1  A    between atoms: C_6  and  C_8
    2  A    between atoms: C_27  and  C_30
                            x       y       z     vdW  Elec       q    Type
                         _______ _______ _______ _____ _____    ______ ____

>  <TORSDO>
F 2

$$$$
=
 OpenBabel11052412373D

 30 35  0  0  1  0  0  0  0  0999 V2000
  181.7280  179.2130  138.9340 C   0  0  1  0  0  3  0  0  0  0  0  0
  181.9760  178.3600  135.7500 C   0  0  1  0  0  3  0  0  0  0  0  0
  184.0050  175.5890  137.7720 O   0  0  0  0  0  1  0  0  0  0  0  0
  180.8690  178.9550  140.1730 C   0  0  2  0  0  3  0  0  0  0  0  0
  182.7990  178.1400  138.7930 C   0  0  1  0  0  3  0  0  0  0  0  0
  182.8290  178.2740  141.5360 C   0  0  2  0  0  3  0  0  0  0  0  0
  179.3120  177.3560  141.4020 C   0  0  0  0  0  2  0  0  0  0  0  0
  180.5040  175.2110  139.7140 O   0  0  0  0  0  1  0  0  0  0  0  0
  184.0180  178.4010  140.1150 S   0  0  0  0  0  0  0  0  0  0  0  0
  181.6680  179.1950  141.4020 N   0  0  2  0  0  0  0  0  0  0  0  0
  181.6930  177.4210  134.5940 C   0  0  0  0  0  2  0  0  0  0  0  0
  179.9940  177.8380  142.6400 C   0  0  0  0  0  0  0  0  0  0  0  0
  180.7560  178.4470  136.6600 C   0  0  0  0  0  2  0  0  0  0  0  0
  182.1880  176.7330  138.8680 C   0  0  2  0  0  3  0  0  0  0  0  0
  182.6380  176.9760  135.6890 C   0  0  2  0  0  3  0  0  0  0  0  0
  180.9390  179.5810  137.6660 C   0  0  0  0  0  2  0  0  0  0  0  0
  179.2610  177.5520  139.0600 O   0  0  0  0  0  1  0  0  0  0  0  0
  181.1620  176.4190  139.9680 C   0  0  1  0  0  3  0  0  0  0  0  0
  180.1490  177.5690  140.1370 C   0  0  1  0  0  0  0  0  0  0  0  0
  179.6800  177.3260  143.7720 N   0  0  0  0  0  2  0  0  0  0  0  0
  182.6140  175.6590  137.8730 C   0  0  1  0  0  3  0  0  0  0  0  0
  181.9640  175.8700  136.5060 C   0  0  0  0  0  2  0  0  0  0  0  0
  180.8050  179.1070  142.5940 C   0  0  2  0  0  3  0  0  0  0  0  0
  183.4930  178.3720  142.9370 C   0  0  2  0  0  3  0  0  0  0  0  0
  184.4920  179.5110  143.0060 C   0  0  1  0  0  3  0  0  0  0  0  0
  184.5560  180.0170  144.4310 C   0  0  0  0  0  1  0  0  0  0  0  0
  184.9790  178.0730  142.9620 C   0  0  0  0  0  2  0  0  0  0  0  0
  179.1040  180.2100  143.8850 O   0  0  0  0  0  1  0  0  0  0  0  0
  179.2870  180.9090  141.6140 C   0  0  0  0  0  1  0  0  0  0  0  0
  180.0160  180.4000  142.8470 C   0  0  2  0  0  3  0  0  0  0  0  0
  1 16  1  6  0  0  0
  1  4  1  0  0  0  0
  2 11  1  6  0  0  0
  2 13  1  0  0  0  0
  3 21  1  0  0  0  0
  4 10  1  0  0  0  0
  5 14  1  0  0  0  0
  5  1  1  0  0  0  0
  5  9  1  0  0  0  0
  6 24  1  0  0  0  0
  7 12  1  0  0  0  0
  8 18  1  0  0  0  0
  9  6  1  0  0  0  0
 10  6  1  0  0  0  0
 10 23  1  0  0  0  0
 11 15  1  0  0  0  0
 12 20  2  0  0  0  0
 13 16  1  0  0  0  0
 14 18  1  0  0  0  0
 15  2  1  0  0  0  0
 15 22  1  0  0  0  0
 17 19  1  0  0  0  0
 18 19  1  0  0  0  0
 19  4  1  0  0  0  0
 19  7  1  0  0  0  0
 21 14  1  0  0  0  0
 22 21  1  0  0  0  0
 23 12  1  0  0  0  0
 23 30  1  0  0  0  0
 24 27  1  0  0  0  0
 24 25  1  0  0  0  0
 25 26  1  0  0  0  0
 27 25  1  0  0  0  0
 29 30  1  0  0  0  0
 30 28  1  0  0  0  0
M  END
>  <MODEL>
4

>  <REMARK>
 VINA RESULT:      -4.8     10.306     12.471
  Name = 
  2 active torsions:
  status: ('A' for Active; 'I' for Inactive)
    1  A    between atoms: C_6  and  C_8
    2  A    between atoms: C_27  and  C_30
                            x       y       z     vdW  Elec       q    Type
                         _______ _______ _______ _____ _____    ______ ____

>  <TORSDO>
F 2

$$$$
=
 OpenBabel11052412373D

 30 35  0  0  1  0  0  0  0  0999 V2000
  183.8820  177.5590  139.5880 C   0  0  1  0  0  3  0  0  0  0  0  0
  186.2540  177.4230  137.2890 C   0  0  1  0  0  3  0  0  0  0  0  0
  182.9940  175.9100  135.5680 O   0  0  0  0  0  1  0  0  0  0  0  0
  182.7500  178.4630  140.0800 C   0  0  2  0  0  3  0  0  0  0  0  0
  183.4050  176.6820  138.4390 C   0  0  1  0  0  3  0  0  0  0  0  0
  181.0580  176.6600  139.8630 C   0  0  2  0  0  3  0  0  0  0  0  0
  181.0600  180.2800  139.5040 C   0  0  0  0  0  2  0  0  0  0  0  0
  181.4250  179.4470  136.6680 O   0  0  0  0  0  1  0  0  0  0  0  0
  182.2570  175.4520  139.1240 S   0  0  0  0  0  0  0  0  0  0  0  0
  181.7120  177.6480  140.7620 N   0  0  2  0  0  0  0  0  0  0  0  0
  186.8530  177.8470  135.9640 C   0  0  0  0  0  2  0  0  0  0  0  0
  180.1380  179.5410  140.4170 C   0  0  0  0  0  0  0  0  0  0  0  0
  185.6060  178.6210  137.9750 C   0  0  0  0  0  2  0  0  0  0  0  0
  182.7320  177.5220  137.3420 C   0  0  2  0  0  3  0  0  0  0  0  0
  185.5970  177.0020  135.9680 C   0  0  2  0  0  3  0  0  0  0  0  0
  185.2400  178.2620  139.4120 C   0  0  0  0  0  2  0  0  0  0  0  0
  183.2120  180.2720  138.5600 O   0  0  0  0  0  1  0  0  0  0  0  0
  181.7110  178.5980  137.7430 C   0  0  1  0  0  3  0  0  0  0  0  0
  182.1950  179.4050  138.9640 C   0  0  1  0  0  0  0  0  0  0  0  0
  178.9320  179.9480  140.5600 N   0  0  0  0  0  2  0  0  0  0  0  0
  183.0630  177.2710  135.8750 C   0  0  1  0  0  3  0  0  0  0  0  0
  184.4210  177.8620  135.4950 C   0  0  0  0  0  2  0  0  0  0  0  0
  180.7020  178.5270  141.3800 C   0  0  2  0  0  3  0  0  0  0  0  0
  179.8140  176.0050  140.5240 C   0  0  2  0  0  3  0  0  0  0  0  0
  179.9100  174.4910  140.5230 C   0  0  1  0  0  3  0  0  0  0  0  0
  179.1470  173.9540  141.7150 C   0  0  0  0  0  1  0  0  0  0  0  0
  178.9440  175.1930  139.5850 C   0  0  0  0  0  2  0  0  0  0  0  0
  182.4880  178.7450  142.9730 O   0  0  0  0  0  1  0  0  0  0  0  0
  180.2930  178.6320  143.8970 C   0  0  0  0  0  1  0  0  0  0  0  0
  181.1590  179.0910  142.7330 C   0  0  2  0  0  3  0  0  0  0  0  0
  1 16  1  6  0  0  0
  1  4  1  0  0  0  0
  2 11  1  6  0  0  0
  2 13  1  0  0  0  0
  3 21  1  0  0  0  0
  4 10  1  0  0  0  0
  5  9  1  0  0  0  0
  5  1  1  0  0  0  0
  6 24  1  0  0  0  0
  6 10  1  0  0  0  0
  7 12  1  0  0  0  0
  8 18  1  0  0  0  0
  9  6  1  0  0  0  0
 10 23  1  0  0  0  0
 11 15  1  0  0  0  0
 12 20  2  0  0  0  0
 12 23  1  0  0  0  0
 13 16  1  0  0  0  0
 14 18  1  0  0  0  0
 14  5  1  0  0  0  0
 15  2  1  0  0  0  0
 17 19  1  0  0  0  0
 18 19  1  0  0  0  0
 19  7  1  0  0  0  0
 19  4  1  0  0  0  0
 21 14  1  0  0  0  0
 22 21  1  0  0  0  0
 22 15  1  0  0  0  0
 23 30  1  0  0  0  0
 25 24  1  0  0  0  0
 25 26  1  0  0  0  0
 27 25  1  0  0  0  0
 27 24  1  0  0  0  0
 30 28  1  0  0  0  0
 30 29  1  0  0  0  0
M  END
>  <MODEL>
5

>  <REMARK>
 VINA RESULT:      -4.8      8.156     11.643
  Name = 
  2 active torsions:
  status: ('A' for Active; 'I' for Inactive)
    1  A    between atoms: C_6  and  C_8
    2  A    between atoms: C_27  and  C_30
                            x       y       z     vdW  Elec       q    Type
                         _______ _______ _______ _____ _____    ______ ____

>  <TORSDO>
F 2

$$$$
=
 OpenBabel11052412373D

 30 35  0  0  1  0  0  0  0  0999 V2000
  180.2060  176.2640  139.3920 C   0  0  1  0  0  3  0  0  0  0  0  0
  179.0520  173.7600  137.5680 C   0  0  1  0  0  3  0  0  0  0  0  0
  179.1980  176.9030  135.1210 O   0  0  0  0  0  1  0  0  0  0  0  0
  181.5150  176.9630  139.7640 C   0  0  2  0  0  3  0  0  0  0  0  0
  179.6560  176.8190  138.0860 C   0  0  1  0  0  3  0  0  0  0  0  0
  180.6720  179.1830  139.0440 C   0  0  2  0  0  3  0  0  0  0  0  0
  183.9080  177.5220  139.0910 C   0  0  0  0  0  2  0  0  0  0  0  0
  183.0440  176.9620  136.2970 O   0  0  0  0  0  1  0  0  0  0  0  0
  179.0650  178.5060  138.4090 S   0  0  0  0  0  0  0  0  0  0  0  0
  181.2450  178.3720  140.1500 N   0  0  2  0  0  0  0  0  0  0  0  0
  179.1820  172.7690  136.4300 C   0  0  0  0  0  2  0  0  0  0  0  0
  183.6490  178.8460  139.7330 C   0  0  0  0  0  0  0  0  0  0  0  0
  180.4020  173.9490  138.2500 C   0  0  0  0  0  2  0  0  0  0  0  0
  180.7260  176.8060  136.9830 C   0  0  2  0  0  3  0  0  0  0  0  0
  178.9930  174.2360  136.1100 C   0  0  2  0  0  3  0  0  0  0  0  0
  180.2240  174.7330  139.5470 C   0  0  0  0  0  2  0  0  0  0  0  0
  182.9460  175.4440  138.5640 O   0  0  0  0  0  1  0  0  0  0  0  0
  182.1400  177.3130  137.3050 C   0  0  1  0  0  3  0  0  0  0  0  0
  182.6240  176.7980  138.6760 C   0  0  1  0  0  0  0  0  0  0  0  0
  184.5530  179.7520  139.6950 N   0  0  0  0  0  2  0  0  0  0  0  0
  180.3760  176.3130  135.5830 C   0  0  1  0  0  3  0  0  0  0  0  0
  180.2980  174.7870  135.5270 C   0  0  0  0  0  2  0  0  0  0  0  0
  182.4750  179.0020  140.6650 C   0  0  2  0  0  3  0  0  0  0  0  0
  180.6370  180.6980  139.3890 C   0  0  2  0  0  3  0  0  0  0  0  0
  179.8020  181.4810  138.3940 C   0  0  1  0  0  3  0  0  0  0  0  0
  179.2130  182.6870  139.0940 C   0  0  0  0  0  1  0  0  0  0  0  0
  181.3160  181.6000  138.3770 C   0  0  0  0  0  2  0  0  0  0  0  0
  181.8550  179.3160  142.9660 O   0  0  0  0  0  1  0  0  0  0  0  0
  184.1770  178.9490  142.5660 C   0  0  0  0  0  1  0  0  0  0  0  0
  182.7510  178.6460  142.1330 C   0  0  2  0  0  3  0  0  0  0  0  0
  1 16  1  6  0  0  0
  1  4  1  0  0  0  0
  2 11  1  6  0  0  0
  2 13  1  0  0  0  0
  3 21  1  0  0  0  0
  4 10  1  0  0  0  0
  5  9  1  0  0  0  0
  5  1  1  0  0  0  0
  6 24  1  0  0  0  0
  6 10  1  0  0  0  0
  7 12  1  0  0  0  0
  8 18  1  0  0  0  0
  9  6  1  0  0  0  0
 10 23  1  0  0  0  0
 12 23  1  0  0  0  0
 13 16  1  0  0  0  0
 14 18  1  0  0  0  0
 14  5  1  0  0  0  0
 15 11  1  0  0  0  0
 15  2  1  0  0  0  0
 17 19  1  0  0  0  0
 18 19  1  0  0  0  0
 19  7  1  0  0  0  0
 19  4  1  0  0  0  0
 20 12  2  0  0  0  0
 21 14  1  0  0  0  0
 22 21  1  0  0  0  0
 22 15  1  0  0  0  0
 23 30  1  0  0  0  0
 25 26  1  0  0  0  0
 25 24  1  0  0  0  0
 27 25  1  0  0  0  0
 27 24  1  0  0  0  0
 30 29  1  0  0  0  0
 30 28  1  0  0  0  0
M  END
>  <MODEL>
6

>  <REMARK>
 VINA RESULT:      -4.8     10.175     12.974
  Name = 
  2 active torsions:
  status: ('A' for Active; 'I' for Inactive)
    1  A    between atoms: C_6  and  C_8
    2  A    between atoms: C_27  and  C_30
                            x       y       z     vdW  Elec       q    Type
                         _______ _______ _______ _____ _____    ______ ____

>  <TORSDO>
F 2

$$$$
=
 OpenBabel11052412373D

 30 35  0  0  1  0  0  0  0  0999 V2000
  182.0280  178.6260  137.6280 C   0  0  1  0  0  3  0  0  0  0  0  0
  179.7380  180.4110  139.2060 C   0  0  1  0  0  3  0  0  0  0  0  0
  180.4280  177.2450  141.5270 O   0  0  0  0  0  1  0  0  0  0  0  0
  183.5440  178.4320  137.5500 C   0  0  2  0  0  3  0  0  0  0  0  0
  181.4400  177.7880  138.7530 C   0  0  1  0  0  3  0  0  0  0  0  0
  183.3750  175.9960  137.9890 C   0  0  2  0  0  3  0  0  0  0  0  0
  185.7870  178.6110  138.7440 C   0  0  0  0  0  2  0  0  0  0  0  0
  184.2200  178.5620  141.2770 O   0  0  0  0  0  1  0  0  0  0  0  0
  181.5380  176.0440  138.2520 S   0  0  0  0  0  0  0  0  0  0  0  0
  183.8560  177.0620  137.0700 N   0  0  2  0  0  0  0  0  0  0  0  0
  179.2810  181.2650  140.3720 C   0  0  0  0  0  2  0  0  0  0  0  0
  186.1340  177.3510  138.0220 C   0  0  0  0  0  0  0  0  0  0  0  0
  181.1830  180.7440  138.8520 C   0  0  0  0  0  2  0  0  0  0  0  0
  182.1850  178.0300  140.0750 C   0  0  2  0  0  3  0  0  0  0  0  0
  179.5410  179.7900  140.5960 C   0  0  2  0  0  3  0  0  0  0  0  0
  181.5570  180.0870  137.5260 C   0  0  0  0  0  2  0  0  0  0  0  0
  184.0880  180.1970  139.0950 O   0  0  0  0  0  1  0  0  0  0  0  0
  183.7220  178.0460  140.0750 C   0  0  1  0  0  3  0  0  0  0  0  0
  184.2770  178.8310  138.8710 C   0  0  1  0  0  0  0  0  0  0  0  0
  187.2630  176.7890  138.2420 N   0  0  0  0  0  2  0  0  0  0  0  0
  181.4050  178.2310  141.3690 C   0  0  1  0  0  3  0  0  0  0  0  0
  180.8020  179.6340  141.4500 C   0  0  0  0  0  2  0  0  0  0  0  0
  185.3050  176.9230  136.8380 C   0  0  2  0  0  3  0  0  0  0  0  0
  183.9300  174.5970  137.6010 C   0  0  2  0  0  3  0  0  0  0  0  0
  183.6650  174.2730  136.1430 C   0  0  1  0  0  3  0  0  0  0  0  0
  184.7560  173.3510  135.6430 C   0  0  0  0  0  1  0  0  0  0  0  0
  182.8760  173.5710  137.2340 C   0  0  0  0  0  2  0  0  0  0  0  0
  184.6720  177.5040  134.5940 O   0  0  0  0  0  1  0  0  0  0  0  0
  186.9210  176.7630  134.8690 C   0  0  0  0  0  1  0  0  0  0  0  0
  185.7440  177.5030  135.4850 C   0  0  2  0  0  3  0  0  0  0  0  0
  1 16  1  1  0  0  0
  1  5  1  0  0  0  0
  2 13  1  1  0  0  0
  2 11  1  0  0  0  0
  2 15  1  0  0  0  0
  4  1  1  0  0  0  0
  4 19  1  0  0  0  0
  5 14  1  0  0  0  0
  6  9  1  0  0  0  0
  7 19  1  0  0  0  0
  9  5  1  0  0  0  0
 10  4  1  0  0  0  0
 10  6  1  0  0  0  0
 11 15  1  0  0  0  0
 12 20  2  0  0  0  0
 12  7  1  0  0  0  0
 14 21  1  0  0  0  0
 15 22  1  0  0  0  0
 16 13  1  0  0  0  0
 18 14  1  0  0  0  0
 18  8  1  0  0  0  0
 19 17  1  0  0  0  0
 19 18  1  0  0  0  0
 21 22  1  0  0  0  0
 21  3  1  0  0  0  0
 23 10  1  0  0  0  0
 23 12  1  0  0  0  0
 24  6  1  0  0  0  0
 25 27  1  0  0  0  0
 25 24  1  0  0  0  0
 26 25  1  0  0  0  0
 27 24  1  0  0  0  0
 28 30  1  0  0  0  0
 29 30  1  0  0  0  0
 30 23  1  0  0  0  0
M  END
>  <MODEL>
7

>  <REMARK>
 VINA RESULT:      -4.5      7.481     11.644
  Name = 
  2 active torsions:
  status: ('A' for Active; 'I' for Inactive)
    1  A    between atoms: C_6  and  C_8
    2  A    between atoms: C_27  and  C_30
                            x       y       z     vdW  Elec       q    Type
                         _______ _______ _______ _____ _____    ______ ____

>  <TORSDO>
F 2

$$$$
=
 OpenBabel11052412373D

 30 35  0  0  1  0  0  0  0  0999 V2000
  184.0230  176.9980  137.8100 C   0  0  1  0  0  3  0  0  0  0  0  0
  186.2620  174.7670  136.8430 C   0  0  1  0  0  3  0  0  0  0  0  0
  182.8350  172.7670  137.2180 O   0  0  0  0  0  1  0  0  0  0  0  0
  182.9720  177.9540  137.2440 C   0  0  2  0  0  3  0  0  0  0  0  0
  183.4380  175.6050  137.9870 C   0  0  1  0  0  3  0  0  0  0  0  0
  181.1690  176.9990  138.6580 C   0  0  2  0  0  3  0  0  0  0  0  0
  181.3620  178.4790  135.3410 C   0  0  0  0  0  2  0  0  0  0  0  0
  181.5320  175.5840  134.6610 O   0  0  0  0  0  1  0  0  0  0  0  0
  182.2570  175.6730  139.3670 S   0  0  0  0  0  0  0  0  0  0  0  0
  181.9250  178.2180  138.2640 N   0  0  2  0  0  0  0  0  0  0  0  0
  186.8160  173.7850  135.8300 C   0  0  0  0  0  2  0  0  0  0  0  0
  180.4460  178.9710  136.4140 C   0  0  0  0  0  0  0  0  0  0  0  0
  185.7200  176.0010  136.1290 C   0  0  0  0  0  2  0  0  0  0  0  0
  182.7590  175.1190  136.6970 C   0  0  2  0  0  3  0  0  0  0  0  0
  185.5150  173.4630  136.5340 C   0  0  2  0  0  3  0  0  0  0  0  0
  185.4080  177.0940  137.1470 C   0  0  0  0  0  2  0  0  0  0  0  0
  183.4590  177.5000  134.9300 O   0  0  0  0  0  1  0  0  0  0  0  0
  181.8230  176.0740  135.9380 C   0  0  1  0  0  3  0  0  0  0  0  0
  182.4150  177.4950  135.8590 C   0  0  1  0  0  0  0  0  0  0  0  0
  179.2750  179.3850  136.1020 N   0  0  0  0  0  2  0  0  0  0  0  0
  182.9990  173.7010  136.1920 C   0  0  1  0  0  3  0  0  0  0  0  0
  184.3670  173.5650  135.5250 C   0  0  0  0  0  2  0  0  0  0  0  0
  181.0000  179.2620  137.7850 C   0  0  2  0  0  3  0  0  0  0  0  0
  179.9250  177.3380  139.5250 C   0  0  2  0  0  3  0  0  0  0  0  0
  180.3030  177.6030  140.9690 C   0  0  1  0  0  3  0  0  0  0  0  0
  179.3030  178.5710  141.5640 C   0  0  0  0  0  1  0  0  0  0  0  0
  179.5930  176.3150  140.5930 C   0  0  0  0  0  2  0  0  0  0  0  0
  182.7390  180.6320  138.7200 O   0  0  0  0  0  1  0  0  0  0  0  0
  180.5720  181.6240  138.6520 C   0  0  0  0  0  1  0  0  0  0  0  0
  181.5570  180.6790  137.9810 C   0  0  2  0  0  3  0  0  0  0  0  0
  1 16  1  6  0  0  0
  1  5  1  0  0  0  0
  2 11  1  6  0  0  0
  4  1  1  0  0  0  0
  4 10  1  0  0  0  0
  5  9  1  0  0  0  0
  6  9  1  0  0  0  0
  6 24  1  0  0  0  0
  7 19  1  0  0  0  0
  7 12  1  0  0  0  0
  8 18  1  0  0  0  0
 10  6  1  0  0  0  0
 11 15  1  0  0  0  0
 12 23  1  0  0  0  0
 13  2  1  0  0  0  0
 13 16  1  0  0  0  0
 14  5  1  0  0  0  0
 15  2  1  0  0  0  0
 17 19  1  0  0  0  0
 18 14  1  0  0  0  0
 19 18  1  0  0  0  0
 19  4  1  0  0  0  0
 20 12  2  0  0  0  0
 21 14  1  0  0  0  0
 21  3  1  0  0  0  0
 22 21  1  0  0  0  0
 22 15  1  0  0  0  0
 23 30  1  0  0  0  0
 23 10  1  0  0  0  0
 24 27  1  0  0  0  0
 24 25  1  0  0  0  0
 25 26  1  0  0  0  0
 27 25  1  0  0  0  0
 30 29  1  0  0  0  0
 30 28  1  0  0  0  0
M  END
>  <MODEL>
8

>  <REMARK>
 VINA RESULT:      -4.3      7.888     10.766
  Name = 
  2 active torsions:
  status: ('A' for Active; 'I' for Inactive)
    1  A    between atoms: C_6  and  C_8
    2  A    between atoms: C_27  and  C_30
                            x       y       z     vdW  Elec       q    Type
                         _______ _______ _______ _____ _____    ______ ____

>  <TORSDO>
F 2

$$$$
=
 OpenBabel11052412373D

 30 35  0  0  1  0  0  0  0  0999 V2000
  179.7350  176.3690  138.1460 C   0  0  1  0  0  3  0  0  0  0  0  0
  179.3680  173.1340  137.5760 C   0  0  1  0  0  3  0  0  0  0  0  0
  181.7930  174.4680  134.7080 O   0  0  0  0  0  1  0  0  0  0  0  0
  180.6550  177.3550  138.8670 C   0  0  2  0  0  3  0  0  0  0  0  0
  180.2760  176.0480  136.7600 C   0  0  1  0  0  3  0  0  0  0  0  0
  181.0410  178.6850  136.8070 C   0  0  2  0  0  3  0  0  0  0  0  0
  182.9910  177.8400  139.7590 C   0  0  0  0  0  2  0  0  0  0  0  0
  183.9370  175.7500  137.8600 O   0  0  0  0  0  1  0  0  0  0  0  0
  180.0670  177.5300  135.7290 S   0  0  0  0  0  0  0  0  0  0  0  0
  180.5750  178.6900  138.2190 N   0  0  2  0  0  0  0  0  0  0  0  0
  179.9160  171.7230  137.4920 C   0  0  0  0  0  2  0  0  0  0  0  0
  182.7400  179.2420  139.3080 C   0  0  0  0  0  0  0  0  0  0  0  0
  179.9970  173.8670  138.7550 C   0  0  0  0  0  2  0  0  0  0  0  0
  181.7500  175.6190  136.8250 C   0  0  2  0  0  3  0  0  0  0  0  0
  180.3480  172.7440  136.4610 C   0  0  2  0  0  3  0  0  0  0  0  0
  179.2620  175.1810  139.0020 C   0  0  0  0  0  2  0  0  0  0  0  0
  182.0730  175.6790  139.8540 O   0  0  0  0  0  1  0  0  0  0  0  0
  182.7310  176.4360  137.6810 C   0  0  1  0  0  3  0  0  0  0  0  0
  182.1100  176.8140  139.0410 C   0  0  1  0  0  0  0  0  0  0  0  0
  183.6660  180.1180  139.4280 N   0  0  0  0  0  2  0  0  0  0  0  0
  182.2310  174.4090  136.0330 C   0  0  1  0  0  3  0  0  0  0  0  0
  181.8190  173.0980  136.7020 C   0  0  0  0  0  2  0  0  0  0  0  0
  181.3310  179.6820  139.0060 C   0  0  2  0  0  3  0  0  0  0  0  0
  181.1880  180.1230  136.2370 C   0  0  2  0  0  3  0  0  0  0  0  0
  179.8420  180.7250  135.8810 C   0  0  1  0  0  3  0  0  0  0  0  0
  179.9270  182.2290  136.0310 C   0  0  0  0  0  1  0  0  0  0  0  0
  180.7890  180.2770  134.7820 C   0  0  0  0  0  2  0  0  0  0  0  0
  180.6760  179.3450  141.2940 O   0  0  0  0  0  1  0  0  0  0  0  0
  179.0600  180.4190  139.9080 C   0  0  0  0  0  1  0  0  0  0  0  0
  180.5360  180.2110  140.2090 C   0  0  2  0  0  3  0  0  0  0  0  0
  1  4  1  0  0  0  0
  1 16  1  1  0  0  0
  2 11  1  1  0  0  0
  2 13  1  0  0  0  0
  3 21  1  0  0  0  0
  4 19  1  0  0  0  0
  5 14  1  0  0  0  0
  5  1  1  0  0  0  0
  6 10  1  0  0  0  0
  9  5  1  0  0  0  0
  9  6  1  0  0  0  0
 10  4  1  0  0  0  0
 10 23  1  0  0  0  0
 12 20  2  0  0  0  0
 12  7  1  0  0  0  0
 13 16  1  0  0  0  0
 14 18  1  0  0  0  0
 15 22  1  0  0  0  0
 15 11  1  0  0  0  0
 15  2  1  0  0  0  0
 18  8  1  0  0  0  0
 18 19  1  0  0  0  0
 19  7  1  0  0  0  0
 19 17  1  0  0  0  0
 21 22  1  0  0  0  0
 21 14  1  0  0  0  0
 23 12  1  0  0  0  0
 23 30  1  0  0  0  0
 24  6  1  0  0  0  0
 25 26  1  0  0  0  0
 25 24  1  0  0  0  0
 27 25  1  0  0  0  0
 27 24  1  0  0  0  0
 29 30  1  0  0  0  0
 30 28  1  0  0  0  0
M  END
>  <MODEL>
9

>  <REMARK>
 VINA RESULT:      -4.3     10.554     12.787
  Name = 
  2 active torsions:
  status: ('A' for Active; 'I' for Inactive)
    1  A    between atoms: C_6  and  C_8
    2  A    between atoms: C_27  and  C_30
                            x       y       z     vdW  Elec       q    Type
                         _______ _______ _______ _____ _____    ______ ____

>  <TORSDO>
F 2

$$$$
