=
 OpenBabel11052413093D

 31 35  0  0  0  0  0  0  0  0999 V2000
  185.0130  178.5660  144.3040 C   0  0  0  0  0  0  0  0  0  0  0  0
  188.6150  177.4930  144.0500 C   0  0  0  0  0  0  0  0  0  0  0  0
  189.1200  177.3920  145.3830 C   0  0  0  0  0  0  0  0  0  0  0  0
  188.5540  177.3220  138.7860 O   0  0  0  0  0  0  0  0  0  0  0  0
  189.7040  176.9960  139.1870 C   0  0  0  0  0  0  0  0  0  0  0  0
  188.8650  177.5550  147.8100 C   0  0  0  0  0  0  0  0  0  0  0  0
  187.2810  177.8750  143.7120 C   0  0  0  0  0  0  0  0  0  0  0  0
  184.6640  178.6200  142.9560 C   0  0  0  0  0  3  0  0  0  0  0  0
  188.3380  177.6640  146.5200 C   0  0  0  0  0  3  0  0  0  0  0  0
  189.0800  177.2700  141.6540 C   0  0  0  0  0  0  0  0  0  0  0  0
  184.0100  178.9000  145.3470 C   0  0  0  0  0  1  0  0  0  0  0  0
  191.2810  176.7220  144.5020 C   0  0  0  0  0  3  0  0  0  0  0  0
  188.0670  177.8310  148.9110 O   0  0  0  0  0  1  0  0  0  0  0  0
  187.8030  177.6370  141.3760 N   0  0  0  0  0  0  0  0  0  0  0  0
  189.5090  177.1910  142.9850 C   0  0  0  0  0  0  0  0  0  0  0  0
  189.9950  176.9610  140.5920 N   0  0  0  0  0  2  0  0  0  0  0  0
  186.3080  178.1970  144.6760 C   0  0  0  0  0  3  0  0  0  0  0  0
  190.1930  177.1690  147.9890 C   0  0  0  0  0  3  0  0  0  0  0  0
  186.9070  177.9360  142.3470 C   0  0  0  0  0  0  0  0  0  0  0  0
  185.6090  178.3060  141.9800 C   0  0  0  0  0  3  0  0  0  0  0  0
  190.7930  176.8220  143.2430 N   0  0  0  0  0  0  0  0  0  0  0  0
  190.4670  177.0020  145.5900 C   0  0  0  0  0  0  0  0  0  0  0  0
  190.9930  176.8930  146.8810 C   0  0  0  0  0  3  0  0  0  0  0  0
  192.7200  175.9680  136.3110 C   0  0  0  0  0  0  0  0  0  0  0  0
  190.3950  176.2270  136.9280 C   0  0  0  0  0  3  0  0  0  0  0  0
  192.5490  177.1240  139.7690 F   0  0  0  0  0  0  0  0  0  0  0  0
  193.6610  175.6420  135.3950 F   0  0  0  0  0  0  0  0  0  0  0  0
  191.3660  175.8900  135.9810 C   0  0  0  0  0  3  0  0  0  0  0  0
  192.1360  176.7250  138.5400 C   0  0  0  0  0  0  0  0  0  0  0  0
  190.7640  176.6480  138.2150 C   0  0  0  0  0  0  0  0  0  0  0  0
  193.1020  176.3850  137.5880 C   0  0  0  0  0  3  0  0  0  0  0  0
  1 17  1  0  0  0  0
  1 11  1  0  0  0  0
  2  3  1  0  0  0  0
  3 22  2  0  0  0  0
  3  9  1  0  0  0  0
  4  5  2  0  0  0  0
  5 16  1  0  0  0  0
  6 18  1  0  0  0  0
  6 13  1  0  0  0  0
  7  2  1  0  0  0  0
  7 17  2  0  0  0  0
  8  1  2  0  0  0  0
  9  6  2  0  0  0  0
 10 15  1  0  0  0  0
 12 22  1  0  0  0  0
 14 10  2  0  0  0  0
 14 19  1  0  0  0  0
 15 21  1  0  0  0  0
 15  2  2  0  0  0  0
 16 10  1  0  0  0  0
 19  7  1  0  0  0  0
 20 19  2  0  0  0  0
 20  8  1  0  0  0  0
 21 12  2  0  0  0  0
 22 23  1  0  0  0  0
 23 18  2  0  0  0  0
 24 31  1  0  0  0  0
 25 30  2  0  0  0  0
 27 24  1  0  0  0  0
 28 24  2  0  0  0  0
 28 25  1  0  0  0  0
 29 26  1  0  0  0  0
 30 29  1  0  0  0  0
 30  5  1  0  0  0  0
 31 29  2  0  0  0  0
M  END
>  <MODEL>
1

>  <REMARK>
 VINA RESULT:     -11.9      0.000      0.000
  Name = 
  1 active torsions:
  status: ('A' for Active; 'I' for Inactive)
    1  A    between atoms: C_9  and  C_22
                            x       y       z     vdW  Elec       q    Type
                         _______ _______ _______ _____ _____    ______ ____

>  <TORSDO>
F 1

$$$$
=
 OpenBabel11052413093D

 31 35  0  0  0  0  0  0  0  0999 V2000
  190.1530  177.3350  142.0760 C   0  0  0  0  0  0  0  0  0  0  0  0
  186.6910  178.3210  143.1850 C   0  0  0  0  0  0  0  0  0  0  0  0
  186.6560  178.2040  144.6090 C   0  0  0  0  0  0  0  0  0  0  0  0
  185.0180  179.2830  138.2840 O   0  0  0  0  0  0  0  0  0  0  0  0
  184.0710  179.5090  139.0860 C   0  0  0  0  0  0  0  0  0  0  0  0
  187.6920  177.6870  146.7630 C   0  0  0  0  0  0  0  0  0  0  0  0
  187.8320  178.0360  142.3740 C   0  0  0  0  0  0  0  0  0  0  0  0
  190.0380  177.4950  140.6960 C   0  0  0  0  0  3  0  0  0  0  0  0
  187.7630  177.7890  145.3710 C   0  0  0  0  0  3  0  0  0  0  0  0
  185.4680  178.8870  141.1380 C   0  0  0  0  0  0  0  0  0  0  0  0
  191.4370  176.8790  142.6670 C   0  0  0  0  0  1  0  0  0  0  0  0
  184.3390  178.9310  144.6000 C   0  0  0  0  0  3  0  0  0  0  0  0
  188.8030  177.2730  147.4850 O   0  0  0  0  0  1  0  0  0  0  0  0
  186.5740  178.6060  140.4040 N   0  0  0  0  0  0  0  0  0  0  0  0
  185.5030  178.7510  142.5320 C   0  0  0  0  0  0  0  0  0  0  0  0
  184.2600  179.3230  140.4960 N   0  0  0  0  0  2  0  0  0  0  0  0
  189.0610  177.6030  142.9040 C   0  0  0  0  0  3  0  0  0  0  0  0
  186.5050  177.9990  147.4250 C   0  0  0  0  0  3  0  0  0  0  0  0
  187.7330  178.1920  140.9690 C   0  0  0  0  0  0  0  0  0  0  0  0
  188.8300  177.9220  140.1450 C   0  0  0  0  0  3  0  0  0  0  0  0
  184.3830  179.0370  143.2510 N   0  0  0  0  0  0  0  0  0  0  0  0
  185.4600  178.5160  145.3040 C   0  0  0  0  0  0  0  0  0  0  0  0
  185.3910  178.4130  146.6960 C   0  0  0  0  0  3  0  0  0  0  0  0
  180.2780  180.9100  137.6480 C   0  0  0  0  0  0  0  0  0  0  0  0
  182.3980  181.3130  138.7410 C   0  0  0  0  0  3  0  0  0  0  0  0
  182.1480  177.7780  137.7620 F   0  0  0  0  0  0  0  0  0  0  0  0
  179.0850  181.3640  137.1980 F   0  0  0  0  0  0  0  0  0  0  0  0
  181.1670  181.7830  138.2770 C   0  0  0  0  0  3  0  0  0  0  0  0
  181.8530  179.0890  137.9420 C   0  0  0  0  0  0  0  0  0  0  0  0
  182.7580  179.9660  138.5810 C   0  0  0  0  0  0  0  0  0  0  0  0
  180.6220  179.5670  137.4810 C   0  0  0  0  0  3  0  0  0  0  0  0
  1 11  1  0  0  0  0
  1 17  1  0  0  0  0
  2  3  1  0  0  0  0
  3 22  2  0  0  0  0
  3  9  1  0  0  0  0
  4  5  2  0  0  0  0
  5 16  1  0  0  0  0
  6 18  1  0  0  0  0
  6 13  1  0  0  0  0
  7 17  2  0  0  0  0
  7  2  1  0  0  0  0
  8  1  2  0  0  0  0
  9  6  2  0  0  0  0
 10 15  1  0  0  0  0
 12 22  1  0  0  0  0
 14 19  1  0  0  0  0
 14 10  2  0  0  0  0
 15  2  2  0  0  0  0
 15 21  1  0  0  0  0
 16 10  1  0  0  0  0
 19  7  1  0  0  0  0
 20  8  1  0  0  0  0
 20 19  2  0  0  0  0
 21 12  2  0  0  0  0
 22 23  1  0  0  0  0
 23 18  2  0  0  0  0
 24 28  1  0  0  0  0
 26 29  1  0  0  0  0
 27 24  1  0  0  0  0
 28 25  2  0  0  0  0
 29 30  2  0  0  0  0
 30 25  1  0  0  0  0
 30  5  1  0  0  0  0
 31 24  2  0  0  0  0
 31 29  1  0  0  0  0
M  END
>  <MODEL>
2

>  <REMARK>
 VINA RESULT:     -11.0      4.549      7.233
  Name = 
  1 active torsions:
  status: ('A' for Active; 'I' for Inactive)
    1  A    between atoms: C_9  and  C_22
                            x       y       z     vdW  Elec       q    Type
                         _______ _______ _______ _____ _____    ______ ____

>  <TORSDO>
F 1

$$$$
=
 OpenBabel11052413093D

 31 35  0  0  0  0  0  0  0  0999 V2000
  186.8740  178.2520  147.3880 C   0  0  0  0  0  0  0  0  0  0  0  0
  187.6330  177.8850  143.7170 C   0  0  0  0  0  0  0  0  0  0  0  0
  189.0280  177.5950  143.6020 C   0  0  0  0  0  0  0  0  0  0  0  0
  182.6630  178.8150  142.2410 O   0  0  0  0  0  0  0  0  0  0  0  0
  183.3600  178.6120  141.2090 C   0  0  0  0  0  0  0  0  0  0  0  0
  191.2400  177.1990  144.5650 C   0  0  0  0  0  0  0  0  0  0  0  0
  186.9460  178.0970  144.9500 C   0  0  0  0  0  0  0  0  0  0  0  0
  185.5080  178.5280  147.3430 C   0  0  0  0  0  3  0  0  0  0  0  0
  189.8810  177.4850  144.7150 C   0  0  0  0  0  3  0  0  0  0  0  0
  185.5070  178.2530  142.5530 C   0  0  0  0  0  0  0  0  0  0  0  0
  187.5770  178.1840  148.6950 C   0  0  0  0  0  1  0  0  0  0  0  0
  188.7980  177.5030  141.1860 C   0  0  0  0  0  3  0  0  0  0  0  0
  192.0560  177.0980  145.6830 O   0  0  0  0  0  1  0  0  0  0  0  0
  184.8920  178.4470  143.7470 N   0  0  0  0  0  0  0  0  0  0  0  0
  186.8790  177.9700  142.5130 C   0  0  0  0  0  0  0  0  0  0  0  0
  184.7620  178.3340  141.3290 N   0  0  0  0  0  2  0  0  0  0  0  0
  187.5820  178.0400  146.2030 C   0  0  0  0  0  3  0  0  0  0  0  0
  191.7780  177.0170  143.2910 C   0  0  0  0  0  3  0  0  0  0  0  0
  185.5570  178.3790  144.9250 C   0  0  0  0  0  0  0  0  0  0  0  0
  184.8520  178.5910  146.1140 C   0  0  0  0  0  3  0  0  0  0  0  0
  187.4780  177.7790  141.3070 N   0  0  0  0  0  0  0  0  0  0  0  0
  189.5960  177.4050  142.3170 C   0  0  0  0  0  0  0  0  0  0  0  0
  190.9570  177.1200  142.1680 C   0  0  0  0  0  3  0  0  0  0  0  0
  181.5600  178.8380  137.3200 C   0  0  0  0  0  0  0  0  0  0  0  0
  182.4850  179.9110  139.2800 C   0  0  0  0  0  3  0  0  0  0  0  0
  182.6120  176.2580  139.6770 F   0  0  0  0  0  0  0  0  0  0  0  0
  180.9930  178.9220  136.0930 F   0  0  0  0  0  0  0  0  0  0  0  0
  181.9000  179.9990  138.0140 C   0  0  0  0  0  3  0  0  0  0  0  0
  182.3910  177.4910  139.1570 C   0  0  0  0  0  0  0  0  0  0  0  0
  182.7390  178.6620  139.8670 C   0  0  0  0  0  0  0  0  0  0  0  0
  181.8050  177.5880  137.8910 C   0  0  0  0  0  3  0  0  0  0  0  0
  1 11  1  0  0  0  0
  2  7  1  0  0  0  0
  3  2  1  0  0  0  0
  3  9  1  0  0  0  0
  5 16  1  0  0  0  0
  5  4  2  0  0  0  0
  6  9  2  0  0  0  0
  6 13  1  0  0  0  0
  7 17  1  0  0  0  0
  8  1  1  0  0  0  0
 10 14  2  0  0  0  0
 12 21  2  0  0  0  0
 12 22  1  0  0  0  0
 14 19  1  0  0  0  0
 15 10  1  0  0  0  0
 15  2  2  0  0  0  0
 16 10  1  0  0  0  0
 17  1  2  0  0  0  0
 18  6  1  0  0  0  0
 19  7  2  0  0  0  0
 19 20  1  0  0  0  0
 20  8  2  0  0  0  0
 21 15  1  0  0  0  0
 22  3  2  0  0  0  0
 23 22  1  0  0  0  0
 23 18  2  0  0  0  0
 24 31  2  0  0  0  0
 24 28  1  0  0  0  0
 25 30  1  0  0  0  0
 27 24  1  0  0  0  0
 28 25  2  0  0  0  0
 29 26  1  0  0  0  0
 29 30  2  0  0  0  0
 30  5  1  0  0  0  0
 31 29  1  0  0  0  0
M  END
>  <MODEL>
3

>  <REMARK>
 VINA RESULT:     -10.9      4.143      6.454
  Name = 
  1 active torsions:
  status: ('A' for Active; 'I' for Inactive)
    1  A    between atoms: C_9  and  C_22
                            x       y       z     vdW  Elec       q    Type
                         _______ _______ _______ _____ _____    ______ ____

>  <TORSDO>
F 1

$$$$
=
 OpenBabel11052413093D

 31 35  0  0  0  0  0  0  0  0999 V2000
  188.6750  177.6090  147.1680 C   0  0  0  0  0  0  0  0  0  0  0  0
  187.3810  177.8900  143.6420 C   0  0  0  0  0  0  0  0  0  0  0  0
  186.0020  178.2570  143.7270 C   0  0  0  0  0  0  0  0  0  0  0  0
  192.0100  176.6210  141.4730 O   0  0  0  0  0  0  0  0  0  0  0  0
  191.1750  176.8270  140.5500 C   0  0  0  0  0  0  0  0  0  0  0  0
  183.9880  178.8150  144.9950 C   0  0  0  0  0  0  0  0  0  0  0  0
  188.2380  177.6820  144.7650 C   0  0  0  0  0  0  0  0  0  0  0  0
  190.0010  177.2530  146.9290 C   0  0  0  0  0  3  0  0  0  0  0  0
  185.3370  178.4560  144.9500 C   0  0  0  0  0  3  0  0  0  0  0  0
  189.2810  177.3590  142.1870 C   0  0  0  0  0  0  0  0  0  0  0  0
  188.1850  177.7640  148.5620 C   0  0  0  0  0  1  0  0  0  0  0  0
  185.8630  178.2510  141.3020 C   0  0  0  0  0  3  0  0  0  0  0  0
  183.3600  179.0030  146.2180 O   0  0  0  0  0  1  0  0  0  0  0  0
  190.0610  177.1710  143.2810 N   0  0  0  0  0  0  0  0  0  0  0  0
  187.9360  177.7190  142.3420 C   0  0  0  0  0  0  0  0  0  0  0  0
  189.8240  177.1910  140.8690 N   0  0  0  0  0  2  0  0  0  0  0  0
  187.8050  177.8200  146.0960 C   0  0  0  0  0  3  0  0  0  0  0  0
  183.2710  178.9840  143.8100 C   0  0  0  0  0  3  0  0  0  0  0  0
  189.5890  177.3190  144.5420 C   0  0  0  0  0  0  0  0  0  0  0  0
  190.4560  177.1080  145.6190 C   0  0  0  0  0  3  0  0  0  0  0  0
  187.1700  177.9020  141.2330 N   0  0  0  0  0  0  0  0  0  0  0  0
  185.2540  178.4340  142.5350 C   0  0  0  0  0  0  0  0  0  0  0  0
  183.9040  178.7940  142.5820 C   0  0  0  0  0  3  0  0  0  0  0  0
  192.2680  176.4330  136.4190 C   0  0  0  0  0  0  0  0  0  0  0  0
  190.5880  176.5070  138.1570 C   0  0  0  0  0  3  0  0  0  0  0  0
  193.9300  176.9280  139.6300 F   0  0  0  0  0  0  0  0  0  0  0  0
  192.6010  176.3080  135.1130 F   0  0  0  0  0  0  0  0  0  0  0  0
  190.9300  176.3780  136.8080 C   0  0  0  0  0  3  0  0  0  0  0  0
  192.9320  176.7500  138.7300 C   0  0  0  0  0  0  0  0  0  0  0  0
  191.5790  176.6950  139.1330 C   0  0  0  0  0  0  0  0  0  0  0  0
  193.2660  176.6190  137.3780 C   0  0  0  0  0  3  0  0  0  0  0  0
  1 11  1  0  0  0  0
  2  3  1  0  0  0  0
  2  7  1  0  0  0  0
  3  9  1  0  0  0  0
  5 16  1  0  0  0  0
  5  4  2  0  0  0  0
  6 13  1  0  0  0  0
  7 17  1  0  0  0  0
  8  1  1  0  0  0  0
  9  6  2  0  0  0  0
 10 15  1  0  0  0  0
 10 14  2  0  0  0  0
 12 22  1  0  0  0  0
 14 19  1  0  0  0  0
 15  2  2  0  0  0  0
 16 10  1  0  0  0  0
 17  1  2  0  0  0  0
 18  6  1  0  0  0  0
 19  7  2  0  0  0  0
 19 20  1  0  0  0  0
 20  8  2  0  0  0  0
 21 12  2  0  0  0  0
 21 15  1  0  0  0  0
 22 23  1  0  0  0  0
 22  3  2  0  0  0  0
 23 18  2  0  0  0  0
 24 28  2  0  0  0  0
 24 31  1  0  0  0  0
 25 30  2  0  0  0  0
 27 24  1  0  0  0  0
 28 25  1  0  0  0  0
 29 30  1  0  0  0  0
 29 26  1  0  0  0  0
 30  5  1  0  0  0  0
 31 29  2  0  0  0  0
M  END
>  <MODEL>
4

>  <REMARK>
 VINA RESULT:     -10.8      1.546      4.140
  Name = 
  1 active torsions:
  status: ('A' for Active; 'I' for Inactive)
    1  A    between atoms: C_9  and  C_22
                            x       y       z     vdW  Elec       q    Type
                         _______ _______ _______ _____ _____    ______ ____

>  <TORSDO>
F 1

$$$$
=
 OpenBabel11052413093D

 31 35  0  0  0  0  0  0  0  0999 V2000
  191.2050  177.4860  140.5130 C   0  0  0  0  0  0  0  0  0  0  0  0
  188.0880  177.9330  142.5790 C   0  0  0  0  0  0  0  0  0  0  0  0
  188.4410  177.6680  143.9380 C   0  0  0  0  0  0  0  0  0  0  0  0
  185.0970  179.1810  138.4270 O   0  0  0  0  0  0  0  0  0  0  0  0
  184.3800  179.2100  139.4640 C   0  0  0  0  0  0  0  0  0  0  0  0
  190.0530  177.0620  145.6740 C   0  0  0  0  0  0  0  0  0  0  0  0
  188.9930  177.8700  141.4760 C   0  0  0  0  0  0  0  0  0  0  0  0
  190.7140  177.7700  139.2400 C   0  0  0  0  0  3  0  0  0  0  0  0
  189.7430  177.3130  144.3350 C   0  0  0  0  0  3  0  0  0  0  0  0
  186.3200  178.5540  140.9980 C   0  0  0  0  0  0  0  0  0  0  0  0
  192.6360  177.1290  140.6970 C   0  0  0  0  0  1  0  0  0  0  0  0
  186.1490  178.1100  144.6080 C   0  0  0  0  0  3  0  0  0  0  0  0
  191.3480  176.7140  146.0330 O   0  0  0  0  0  1  0  0  0  0  0  0
  187.2130  178.4830  139.9790 N   0  0  0  0  0  0  0  0  0  0  0  0
  186.7350  178.2820  142.3080 C   0  0  0  0  0  0  0  0  0  0  0  0
  184.9520  178.9050  140.7440 N   0  0  0  0  0  2  0  0  0  0  0  0
  190.3520  177.5360  141.6170 C   0  0  0  0  0  3  0  0  0  0  0  0
  189.0610  177.1620  146.6500 C   0  0  0  0  0  3  0  0  0  0  0  0
  188.5120  178.1560  140.1740 C   0  0  0  0  0  0  0  0  0  0  0  0
  189.3710  178.1040  139.0720 C   0  0  0  0  0  3  0  0  0  0  0  0
  185.8250  178.3580  143.3170 N   0  0  0  0  0  0  0  0  0  0  0  0
  187.4490  177.7630  144.9470 C   0  0  0  0  0  0  0  0  0  0  0  0
  187.7610  177.5110  146.2860 C   0  0  0  0  0  3  0  0  0  0  0  0
  180.2360  180.2810  139.1510 C   0  0  0  0  0  0  0  0  0  0  0  0
  182.5700  180.7340  138.7070 C   0  0  0  0  0  3  0  0  0  0  0  0
  182.2420  177.5880  140.5810 F   0  0  0  0  0  0  0  0  0  0  0  0
  178.9320  180.6290  139.0460 F   0  0  0  0  0  0  0  0  0  0  0  0
  181.2250  181.0950  138.5970 C   0  0  0  0  0  3  0  0  0  0  0  0
  181.9370  178.7370  139.9280 C   0  0  0  0  0  0  0  0  0  0  0  0
  182.9450  179.5550  139.3700 C   0  0  0  0  0  0  0  0  0  0  0  0
  180.5930  179.1050  139.8150 C   0  0  0  0  0  3  0  0  0  0  0  0
  1 11  1  0  0  0  0
  1 17  1  0  0  0  0
  2  3  1  0  0  0  0
  3  9  2  0  0  0  0
  3 22  1  0  0  0  0
  4  5  2  0  0  0  0
  5 16  1  0  0  0  0
  6 13  1  0  0  0  0
  6 18  2  0  0  0  0
  7 17  2  0  0  0  0
  7  2  1  0  0  0  0
  8  1  2  0  0  0  0
  9  6  1  0  0  0  0
 10 15  1  0  0  0  0
 12 22  1  0  0  0  0
 14 19  1  0  0  0  0
 14 10  2  0  0  0  0
 15  2  2  0  0  0  0
 15 21  1  0  0  0  0
 16 10  1  0  0  0  0
 19  7  1  0  0  0  0
 20  8  1  0  0  0  0
 20 19  2  0  0  0  0
 21 12  2  0  0  0  0
 22 23  2  0  0  0  0
 23 18  1  0  0  0  0
 24 31  1  0  0  0  0
 25 30  2  0  0  0  0
 27 24  1  0  0  0  0
 28 25  1  0  0  0  0
 28 24  2  0  0  0  0
 29 26  1  0  0  0  0
 30  5  1  0  0  0  0
 30 29  1  0  0  0  0
 31 29  2  0  0  0  0
M  END
>  <MODEL>
5

>  <REMARK>
 VINA RESULT:     -10.7      4.231      7.190
  Name = 
  1 active torsions:
  status: ('A' for Active; 'I' for Inactive)
    1  A    between atoms: C_9  and  C_22
                            x       y       z     vdW  Elec       q    Type
                         _______ _______ _______ _____ _____    ______ ____

>  <TORSDO>
F 1

$$$$
=
 OpenBabel11052413093D

 31 35  0  0  0  0  0  0  0  0999 V2000
  191.5380  176.0410  145.9030 C   0  0  0  0  0  0  0  0  0  0  0  0
  188.3690  177.4670  144.4490 C   0  0  0  0  0  0  0  0  0  0  0  0
  187.5490  177.8740  145.5450 C   0  0  0  0  0  0  0  0  0  0  0  0
  189.8720  176.6390  139.4690 O   0  0  0  0  0  0  0  0  0  0  0  0
  188.7270  177.1680  139.4620 C   0  0  0  0  0  0  0  0  0  0  0  0
  187.1100  178.1410  147.9360 C   0  0  0  0  0  0  0  0  0  0  0  0
  189.6610  176.8720  144.5770 C   0  0  0  0  0  0  0  0  0  0  0  0
  192.2220  175.6930  144.7400 C   0  0  0  0  0  3  0  0  0  0  0  0
  187.9390  177.7300  146.8890 C   0  0  0  0  0  3  0  0  0  0  0  0
  188.6110  177.2900  142.0160 C   0  0  0  0  0  0  0  0  0  0  0  0
  192.1530  175.7910  147.2320 C   0  0  0  0  0  1  0  0  0  0  0  0
  185.8470  178.6190  143.9800 C   0  0  0  0  0  3  0  0  0  0  0  0
  187.5250  177.9840  149.2510 O   0  0  0  0  0  1  0  0  0  0  0  0
  189.8350  176.7280  142.1820 N   0  0  0  0  0  0  0  0  0  0  0  0
  187.8580  177.6670  143.1360 C   0  0  0  0  0  0  0  0  0  0  0  0
  188.0790  177.5000  140.6990 N   0  0  0  0  0  2  0  0  0  0  0  0
  190.2710  176.6230  145.8200 C   0  0  0  0  0  3  0  0  0  0  0  0
  185.8660  178.7080  147.6590 C   0  0  0  0  0  3  0  0  0  0  0  0
  190.3730  176.5120  143.4060 C   0  0  0  0  0  0  0  0  0  0  0  0
  191.6410  175.9290  143.4950 C   0  0  0  0  0  3  0  0  0  0  0  0
  186.6330  178.2280  142.9490 N   0  0  0  0  0  0  0  0  0  0  0  0
  186.2800  178.4530  145.2880 C   0  0  0  0  0  0  0  0  0  0  0  0
  185.4520  178.8640  146.3370 C   0  0  0  0  0  3  0  0  0  0  0  0
  186.6910  177.9230  135.7600 C   0  0  0  0  0  0  0  0  0  0  0  0
  186.9920  176.6140  137.7720 C   0  0  0  0  0  3  0  0  0  0  0  0
  189.4170  179.3760  137.7030 F   0  0  0  0  0  0  0  0  0  0  0  0
  186.0410  178.1500  134.5950 F   0  0  0  0  0  0  0  0  0  0  0  0
  186.3210  176.8480  136.5690 C   0  0  0  0  0  3  0  0  0  0  0  0
  188.4100  178.5370  137.3570 C   0  0  0  0  0  0  0  0  0  0  0  0
  188.0420  177.4510  138.1820 C   0  0  0  0  0  0  0  0  0  0  0  0
  187.7330  178.7640  136.1540 C   0  0  0  0  0  3  0  0  0  0  0  0
  1 11  1  0  0  0  0
  2  7  1  0  0  0  0
  2  3  1  0  0  0  0
  3  9  1  0  0  0  0
  5  4  2  0  0  0  0
  5 16  1  0  0  0  0
  6 13  1  0  0  0  0
  7 17  2  0  0  0  0
  8  1  2  0  0  0  0
  9  6  2  0  0  0  0
 10 14  2  0  0  0  0
 10 15  1  0  0  0  0
 12 22  1  0  0  0  0
 14 19  1  0  0  0  0
 15  2  2  0  0  0  0
 16 10  1  0  0  0  0
 17  1  1  0  0  0  0
 18  6  1  0  0  0  0
 19 20  2  0  0  0  0
 19  7  1  0  0  0  0
 20  8  1  0  0  0  0
 21 15  1  0  0  0  0
 21 12  2  0  0  0  0
 22  3  2  0  0  0  0
 22 23  1  0  0  0  0
 23 18  2  0  0  0  0
 24 31  2  0  0  0  0
 24 28  1  0  0  0  0
 25 30  1  0  0  0  0
 27 24  1  0  0  0  0
 28 25  2  0  0  0  0
 29 26  1  0  0  0  0
 29 30  2  0  0  0  0
 30  5  1  0  0  0  0
 31 29  1  0  0  0  0
M  END
>  <MODEL>
6

>  <REMARK>
 VINA RESULT:     -10.6      2.514      4.634
  Name = 
  1 active torsions:
  status: ('A' for Active; 'I' for Inactive)
    1  A    between atoms: C_9  and  C_22
                            x       y       z     vdW  Elec       q    Type
                         _______ _______ _______ _____ _____    ______ ____

>  <TORSDO>
F 1

$$$$
=
 OpenBabel11052413093D

 31 35  0  0  0  0  0  0  0  0999 V2000
  185.8960  178.3100  145.8490 C   0  0  0  0  0  0  0  0  0  0  0  0
  186.7010  178.3580  142.1700 C   0  0  0  0  0  0  0  0  0  0  0  0
  188.0910  178.0530  142.0390 C   0  0  0  0  0  0  0  0  0  0  0  0
  181.7730  179.5610  140.7530 O   0  0  0  0  0  0  0  0  0  0  0  0
  182.4800  179.4660  139.7130 C   0  0  0  0  0  0  0  0  0  0  0  0
  190.2810  177.5000  142.9760 C   0  0  0  0  0  0  0  0  0  0  0  0
  186.0000  178.4400  143.4120 C   0  0  0  0  0  0  0  0  0  0  0  0
  184.5370  178.6190  145.8200 C   0  0  0  0  0  3  0  0  0  0  0  0
  188.9260  177.7960  143.1420 C   0  0  0  0  0  3  0  0  0  0  0  0
  184.6000  178.9050  141.0320 C   0  0  0  0  0  0  0  0  0  0  0  0
  186.5780  178.0750  147.1480 C   0  0  0  0  0  1  0  0  0  0  0  0
  187.8940  178.2490  139.6260 C   0  0  0  0  0  3  0  0  0  0  0  0
  191.0780  177.2510  144.0850 O   0  0  0  0  0  1  0  0  0  0  0  0
  183.9720  178.9720  142.2330 N   0  0  0  0  0  0  0  0  0  0  0  0
  185.9660  178.6000  140.9760 C   0  0  0  0  0  0  0  0  0  0  0  0
  183.8750  179.1450  139.8170 N   0  0  0  0  0  2  0  0  0  0  0  0
  186.6170  178.2230  144.6570 C   0  0  0  0  0  3  0  0  0  0  0  0
  190.8330  177.4560  141.6950 C   0  0  0  0  0  3  0  0  0  0  0  0
  184.6180  178.7520  143.4020 C   0  0  0  0  0  0  0  0  0  0  0  0
  183.9000  178.8390  144.6000 C   0  0  0  0  0  3  0  0  0  0  0  0
  186.5790  178.5380  139.7620 N   0  0  0  0  0  0  0  0  0  0  0  0
  188.6740  178.0030  140.7470 C   0  0  0  0  0  0  0  0  0  0  0  0
  190.0300  177.7070  140.5830 C   0  0  0  0  0  3  0  0  0  0  0  0
  180.7550  180.0220  135.8230 C   0  0  0  0  0  0  0  0  0  0  0  0
  181.8220  178.6130  137.4740 C   0  0  0  0  0  3  0  0  0  0  0  0
  181.3950  182.0090  138.8170 F   0  0  0  0  0  0  0  0  0  0  0  0
  180.2120  180.1850  134.5940 F   0  0  0  0  0  0  0  0  0  0  0  0
  181.2620  178.7800  136.2050 C   0  0  0  0  0  3  0  0  0  0  0  0
  181.3630  180.9390  137.9840 C   0  0  0  0  0  0  0  0  0  0  0  0
  181.8800  179.6850  138.3790 C   0  0  0  0  0  0  0  0  0  0  0  0
  180.8060  181.0980  136.7120 C   0  0  0  0  0  3  0  0  0  0  0  0
  1 11  1  0  0  0  0
  2  7  1  0  0  0  0
  3  2  1  0  0  0  0
  3  9  1  0  0  0  0
  5 16  1  0  0  0  0
  5  4  2  0  0  0  0
  6  9  2  0  0  0  0
  6 13  1  0  0  0  0
  7 17  1  0  0  0  0
  8  1  1  0  0  0  0
 10 14  2  0  0  0  0
 12 21  2  0  0  0  0
 12 22  1  0  0  0  0
 14 19  1  0  0  0  0
 15 10  1  0  0  0  0
 15  2  2  0  0  0  0
 16 10  1  0  0  0  0
 17  1  2  0  0  0  0
 18  6  1  0  0  0  0
 19  7  2  0  0  0  0
 19 20  1  0  0  0  0
 20  8  2  0  0  0  0
 21 15  1  0  0  0  0
 22  3  2  0  0  0  0
 23 22  1  0  0  0  0
 23 18  2  0  0  0  0
 24 28  2  0  0  0  0
 24 31  1  0  0  0  0
 25 30  2  0  0  0  0
 27 24  1  0  0  0  0
 28 25  1  0  0  0  0
 29 30  1  0  0  0  0
 29 26  1  0  0  0  0
 30  5  1  0  0  0  0
 31 29  2  0  0  0  0
M  END
>  <MODEL>
7

>  <REMARK>
 VINA RESULT:     -10.6      5.049      7.238
  Name = 
  1 active torsions:
  status: ('A' for Active; 'I' for Inactive)
    1  A    between atoms: C_9  and  C_22
                            x       y       z     vdW  Elec       q    Type
                         _______ _______ _______ _____ _____    ______ ____

>  <TORSDO>
F 1

$$$$
=
 OpenBabel11052413093D

 31 35  0  0  0  0  0  0  0  0999 V2000
  183.6730  178.9740  139.6540 C   0  0  0  0  0  0  0  0  0  0  0  0
  187.3250  178.0980  139.9410 C   0  0  0  0  0  0  0  0  0  0  0  0
  187.8480  178.0310  138.6130 C   0  0  0  0  0  0  0  0  0  0  0  0
  187.2210  177.8970  145.2040 O   0  0  0  0  0  0  0  0  0  0  0  0
  188.3920  177.6380  144.8130 C   0  0  0  0  0  0  0  0  0  0  0  0
  187.6090  178.1910  136.1850 C   0  0  0  0  0  0  0  0  0  0  0  0
  185.9690  178.4050  140.2670 C   0  0  0  0  0  0  0  0  0  0  0  0
  183.3080  179.0030  140.9990 C   0  0  0  0  0  3  0  0  0  0  0  0
  187.0640  178.2650  137.4690 C   0  0  0  0  0  3  0  0  0  0  0  0
  187.7770  177.8880  142.3410 C   0  0  0  0  0  0  0  0  0  0  0  0
  182.6630  179.2570  138.6030 C   0  0  0  0  0  1  0  0  0  0  0  0
  190.0340  177.4750  139.5140 C   0  0  0  0  0  3  0  0  0  0  0  0
  186.8080  178.4270  135.0760 O   0  0  0  0  0  1  0  0  0  0  0  0
  186.4800  178.1840  142.6070 N   0  0  0  0  0  0  0  0  0  0  0  0
  188.2240  177.8390  141.0140 C   0  0  0  0  0  0  0  0  0  0  0  0
  188.6980  177.6250  143.4110 N   0  0  0  0  0  2  0  0  0  0  0  0
  184.9900  178.6770  139.2950 C   0  0  0  0  0  3  0  0  0  0  0  0
  188.9590  177.8790  136.0170 C   0  0  0  0  0  3  0  0  0  0  0  0
  185.5790  178.4390  141.6290 C   0  0  0  0  0  0  0  0  0  0  0  0
  184.2590  178.7360  141.9830 C   0  0  0  0  0  3  0  0  0  0  0  0
  189.5280  177.5410  140.7680 N   0  0  0  0  0  0  0  0  0  0  0  0
  189.2170  177.7150  138.4180 C   0  0  0  0  0  0  0  0  0  0  0  0
  189.7610  177.6410  137.1330 C   0  0  0  0  0  3  0  0  0  0  0  0
  191.5330  176.7530  147.5990 C   0  0  0  0  0  0  0  0  0  0  0  0
  190.6490  176.7480  145.3480 C   0  0  0  0  0  3  0  0  0  0  0  0
  188.1900  178.2150  147.6540 F   0  0  0  0  0  0  0  0  0  0  0  0
  192.5320  176.4690  148.4690 F   0  0  0  0  0  0  0  0  0  0  0  0
  191.6810  176.4550  146.2440 C   0  0  0  0  0  3  0  0  0  0  0  0
  189.3180  177.6410  147.1680 C   0  0  0  0  0  0  0  0  0  0  0  0
  189.4590  177.3440  145.7940 C   0  0  0  0  0  0  0  0  0  0  0  0
  190.3550  177.3440  148.0590 C   0  0  0  0  0  3  0  0  0  0  0  0
  1  8  1  0  0  0  0
  2  7  1  0  0  0  0
  2 15  1  0  0  0  0
  3  2  2  0  0  0  0
  5  4  2  0  0  0  0
  5 30  1  0  0  0  0
  6  9  2  0  0  0  0
  7 19  2  0  0  0  0
  8 20  2  0  0  0  0
  9  3  1  0  0  0  0
 10 14  2  0  0  0  0
 10 16  1  0  0  0  0
 11  1  1  0  0  0  0
 12 21  1  0  0  0  0
 13  6  1  0  0  0  0
 15 10  1  0  0  0  0
 16  5  1  0  0  0  0
 17  1  2  0  0  0  0
 17  7  1  0  0  0  0
 18  6  1  0  0  0  0
 18 23  2  0  0  0  0
 19 20  1  0  0  0  0
 19 14  1  0  0  0  0
 21 15  2  0  0  0  0
 22  3  1  0  0  0  0
 22 12  2  0  0  0  0
 23 22  1  0  0  0  0
 24 31  1  0  0  0  0
 24 27  1  0  0  0  0
 25 30  2  0  0  0  0
 25 28  1  0  0  0  0
 28 24  2  0  0  0  0
 29 26  1  0  0  0  0
 29 31  2  0  0  0  0
 30 29  1  0  0  0  0
M  END
>  <MODEL>
8

>  <REMARK>
 VINA RESULT:     -10.3      3.460      7.747
  Name = 
  1 active torsions:
  status: ('A' for Active; 'I' for Inactive)
    1  A    between atoms: C_9  and  C_22
                            x       y       z     vdW  Elec       q    Type
                         _______ _______ _______ _____ _____    ______ ____

>  <TORSDO>
F 1

$$$$
=
 OpenBabel11052413093D

 31 35  0  0  0  0  0  0  0  0999 V2000
  187.5370  177.8140  146.8030 C   0  0  0  0  0  0  0  0  0  0  0  0
  187.2810  178.0130  143.0500 C   0  0  0  0  0  0  0  0  0  0  0  0
  188.5900  177.7830  142.5260 C   0  0  0  0  0  0  0  0  0  0  0  0
  182.1080  179.0060  143.1090 O   0  0  0  0  0  0  0  0  0  0  0  0
  182.5010  178.9780  141.9110 C   0  0  0  0  0  0  0  0  0  0  0  0
  190.9750  177.3130  142.7940 C   0  0  0  0  0  0  0  0  0  0  0  0
  186.9510  178.0210  144.4400 C   0  0  0  0  0  0  0  0  0  0  0  0
  186.2130  178.0550  147.1650 C   0  0  0  0  0  3  0  0  0  0  0  0
  189.7090  177.5350  143.3420 C   0  0  0  0  0  3  0  0  0  0  0  0
  184.9250  178.4860  142.5640 C   0  0  0  0  0  0  0  0  0  0  0  0
  188.5630  177.5760  147.8500 C   0  0  0  0  0  1  0  0  0  0  0  0
  187.7200  178.0400  140.2730 C   0  0  0  0  0  3  0  0  0  0  0  0
  192.0590  177.0730  143.6260 O   0  0  0  0  0  1  0  0  0  0  0  0
  184.6550  178.4850  143.8940 N   0  0  0  0  0  0  0  0  0  0  0  0
  186.2320  178.2520  142.1180 C   0  0  0  0  0  0  0  0  0  0  0  0
  183.8810  178.7250  141.6090 N   0  0  0  0  0  2  0  0  0  0  0  0
  187.9000  177.7990  145.4550 C   0  0  0  0  0  3  0  0  0  0  0  0
  191.1490  177.3360  141.4100 C   0  0  0  0  0  3  0  0  0  0  0  0
  185.6100  178.2640  144.8280 C   0  0  0  0  0  0  0  0  0  0  0  0
  185.2520  178.2780  146.1800 C   0  0  0  0  0  3  0  0  0  0  0  0
  186.4840  178.2580  140.7810 N   0  0  0  0  0  0  0  0  0  0  0  0
  188.7910  177.8000  141.1220 C   0  0  0  0  0  0  0  0  0  0  0  0
  190.0580  177.5790  140.5760 C   0  0  0  0  0  3  0  0  0  0  0  0
  179.7800  179.6100  138.6520 C   0  0  0  0  0  0  0  0  0  0  0  0
  181.9240  178.8750  139.4950 C   0  0  0  0  0  3  0  0  0  0  0  0
  179.8380  180.0860  142.2700 F   0  0  0  0  0  0  0  0  0  0  0  0
  178.9310  179.8050  137.6160 F   0  0  0  0  0  0  0  0  0  0  0  0
  181.0480  179.0750  138.4260 C   0  0  0  0  0  3  0  0  0  0  0  0
  180.2570  179.7470  141.0260 C   0  0  0  0  0  0  0  0  0  0  0  0
  181.5430  179.2060  140.8060 C   0  0  0  0  0  0  0  0  0  0  0  0
  179.3870  179.9450  139.9500 C   0  0  0  0  0  3  0  0  0  0  0  0
  1  8  1  0  0  0  0
  1 11  1  0  0  0  0
  2  7  1  0  0  0  0
  3  2  1  0  0  0  0
  3  9  1  0  0  0  0
  5  4  2  0  0  0  0
  6  9  2  0  0  0  0
  6 13  1  0  0  0  0
  7 19  2  0  0  0  0
  7 17  1  0  0  0  0
 10 14  2  0  0  0  0
 12 21  2  0  0  0  0
 12 22  1  0  0  0  0
 14 19  1  0  0  0  0
 15 10  1  0  0  0  0
 15  2  2  0  0  0  0
 16  5  1  0  0  0  0
 16 10  1  0  0  0  0
 17  1  2  0  0  0  0
 18  6  1  0  0  0  0
 19 20  1  0  0  0  0
 20  8  2  0  0  0  0
 21 15  1  0  0  0  0
 22  3  2  0  0  0  0
 23 22  1  0  0  0  0
 23 18  2  0  0  0  0
 24 31  1  0  0  0  0
 25 30  2  0  0  0  0
 27 24  1  0  0  0  0
 28 24  2  0  0  0  0
 28 25  1  0  0  0  0
 29 26  1  0  0  0  0
 30 29  1  0  0  0  0
 30  5  1  0  0  0  0
 31 29  2  0  0  0  0
M  END
>  <MODEL>
9

>  <REMARK>
 VINA RESULT:      -9.9      4.808      7.716
  Name = 
  1 active torsions:
  status: ('A' for Active; 'I' for Inactive)
    1  A    between atoms: C_9  and  C_22
                            x       y       z     vdW  Elec       q    Type
                         _______ _______ _______ _____ _____    ______ ____

>  <TORSDO>
F 1

$$$$
