=
 OpenBabel11052412243D

 30 32  0  0  1  0  0  0  0  0999 V2000
  190.7070  177.4750  144.1300 C   0  0  0  0  0  0  0  0  0  0  0  0
  191.2630  176.9720  145.3070 C   0  0  0  0  0  3  0  0  0  0  0  0
  191.7670  177.6790  142.7430 Cl  0  0  0  0  0  0  0  0  0  0  0  0
  188.5300  177.6230  145.2290 C   0  0  0  0  0  0  0  0  0  0  0  0
  190.4740  176.8010  146.4420 C   0  0  0  0  0  3  0  0  0  0  0  0
  189.3410  177.8250  144.0830 C   0  0  0  0  0  0  0  0  0  0  0  0
  189.1190  177.1210  146.4010 C   0  0  0  0  0  3  0  0  0  0  0  0
  184.4670  179.3250  145.6950 N   0  0  0  0  0  0  0  0  0  0  0  0
  184.5180  179.3190  144.3980 C   0  0  0  0  0  3  0  0  0  0  0  0
  184.9800  178.2530  146.5320 C   0  0  0  0  0  2  0  0  0  0  0  0
  186.3150  177.6690  143.9670 C   0  0  0  0  0  3  0  0  0  0  0  0
  186.4600  178.1350  146.3900 C   0  0  0  0  0  3  0  0  0  0  0  0
  185.1730  178.2620  143.5920 C   0  0  0  0  0  0  0  0  0  0  0  0
  187.0690  177.8720  145.2290 C   0  0  0  0  0  0  0  0  0  0  0  0
  185.5560  179.7740  141.0870 O   0  0  0  0  0  0  0  0  0  0  0  0
  184.9160  178.6900  141.0770 C   0  0  0  0  0  0  0  0  0  0  0  0
  184.6840  177.9490  142.2820 N   0  0  0  0  0  2  0  0  0  0  0  0
  184.3740  178.1760  139.7930 C   0  0  0  0  0  1  0  0  0  0  0  0
  188.6750  178.5940  142.5910 S   0  0  0  0  0  0  0  0  0  0  0  0
  188.8240  177.1440  141.6810 O   0  0  0  0  0  0  0  0  0  0  0  0
  188.2600  177.4250  140.4350 C   0  0  0  0  0  2  0  0  0  0  0  0
  188.9430  177.2640  137.8770 C   0  0  1  0  0  3  0  0  0  0  0  0
  189.4900  178.5380  138.5130 C   0  0  0  0  0  2  0  0  0  0  0  0
  189.3260  177.2930  139.3520 C   0  0  1  0  0  0  0  0  0  0  0  0
  190.6370  176.6070  139.6830 C   0  0  0  0  0  1  0  0  0  0  0  0
  187.4450  177.4000  137.6280 C   0  0  2  0  0  3  0  0  0  0  0  0
  186.8700  176.1290  137.5870 O   0  0  0  0  0  1  0  0  0  0  0  0
  188.1470  177.6930  135.3590 O   0  0  0  0  0  1  0  0  0  0  0  0
  187.2050  178.1090  136.3010 C   0  0  2  0  0  3  0  0  0  0  0  0
  187.3040  179.4790  136.4640 F   0  0  0  0  0  0  0  0  0  0  0  0
  1  2  1  0  0  0  0
  2  5  2  0  0  0  0
  3  1  1  0  0  0  0
  4  7  2  0  0  0  0
  6  1  2  0  0  0  0
  6  4  1  0  0  0  0
  7  5  1  0  0  0  0
  8 10  1  0  0  0  0
  9  8  2  0  0  0  0
 11 14  1  0  0  0  0
 12 10  1  0  0  0  0
 13 11  2  0  0  0  0
 13  9  1  0  0  0  0
 14  4  1  0  0  0  0
 14 12  2  0  0  0  0
 16 15  2  0  0  0  0
 16 17  1  0  0  0  0
 17 13  1  0  0  0  0
 18 16  1  0  0  0  0
 19  6  1  0  0  0  0
 20 19  1  0  0  0  0
 21 20  1  0  0  0  0
 22 26  1  1  0  0  0
 22 23  1  0  0  0  0
 22 24  1  0  0  0  0
 23 24  1  0  0  0  0
 24 25  1  1  0  0  0
 24 21  1  0  0  0  0
 26 27  1  6  0  0  0
 29 28  1  6  0  0  0
 29 30  1  0  0  0  0
 29 26  1  0  0  0  0
M  END
>  <MODEL>
1

>  <REMARK>
 VINA RESULT:      -8.0      0.000      0.000
  Name = 
  8 active torsions:
  status: ('A' for Active; 'I' for Inactive)
    1  A    between atoms: O_1  and  C_4
    2  A    between atoms: O_1  and  S_5
    3  A    between atoms: C_4  and  C_27
    4  A    between atoms: S_5  and  C_22
    5  A    between atoms: C_8  and  C_12
    6  A    between atoms: C_9  and  C_12
    7  A    between atoms: N_16  and  C_25
    8  A    between atoms: C_19  and  C_29
                            x       y       z     vdW  Elec       q    Type
                         _______ _______ _______ _____ _____    ______ ____

>  <TORSDO>
F 8

$$$$
=
 OpenBabel11052412243D

 30 32  0  0  1  0  0  0  0  0999 V2000
  189.9710  177.4240  145.1790 C   0  0  0  0  0  0  0  0  0  0  0  0
  191.2370  177.9840  145.3570 C   0  0  0  0  0  3  0  0  0  0  0  0
  189.0860  176.9240  146.6130 Cl  0  0  0  0  0  0  0  0  0  0  0  0
  190.2000  177.6910  142.7620 C   0  0  0  0  0  0  0  0  0  0  0  0
  191.9910  178.3870  144.2570 C   0  0  0  0  0  3  0  0  0  0  0  0
  189.4470  177.2530  143.8810 C   0  0  0  0  0  0  0  0  0  0  0  0
  191.4740  178.2450  142.9720 C   0  0  0  0  0  3  0  0  0  0  0  0
  188.7990  178.6240  138.6650 N   0  0  0  0  0  0  0  0  0  0  0  0
  189.8560  177.9400  138.3480 C   0  0  0  0  0  3  0  0  0  0  0  0
  187.8990  178.2690  139.7510 C   0  0  0  0  0  2  0  0  0  0  0  0
  190.2790  176.6650  140.4290 C   0  0  0  0  0  3  0  0  0  0  0  0
  188.5980  178.3600  141.0650 C   0  0  0  0  0  3  0  0  0  0  0  0
  190.3390  176.7540  139.0930 C   0  0  0  0  0  0  0  0  0  0  0  0
  189.6780  177.6360  141.3750 C   0  0  0  0  0  0  0  0  0  0  0  0
  193.1850  176.6830  138.3150 O   0  0  0  0  0  0  0  0  0  0  0  0
  192.4400  175.6970  138.0730 C   0  0  0  0  0  0  0  0  0  0  0  0
  191.0470  175.7130  138.4080 N   0  0  0  0  0  2  0  0  0  0  0  0
  193.0130  174.4960  137.4110 C   0  0  0  0  0  1  0  0  0  0  0  0
  187.8640  176.4100  143.6690 S   0  0  0  0  0  0  0  0  0  0  0  0
  186.9690  177.8280  144.0370 O   0  0  0  0  0  0  0  0  0  0  0  0
  186.0080  177.4330  144.9700 C   0  0  0  0  0  2  0  0  0  0  0  0
  184.2210  179.3590  144.6040 C   0  0  1  0  0  3  0  0  0  0  0  0
  183.7840  178.4080  145.7130 C   0  0  0  0  0  2  0  0  0  0  0  0
  185.2550  178.6590  145.4770 C   0  0  1  0  0  0  0  0  0  0  0  0
  185.8970  179.5370  146.5330 C   0  0  0  0  0  1  0  0  0  0  0  0
  184.0240  178.7050  143.2410 C   0  0  2  0  0  3  0  0  0  0  0  0
  184.7740  179.3980  142.2880 O   0  0  0  0  0  1  0  0  0  0  0  0
  182.4210  178.8110  141.4680 O   0  0  0  0  0  1  0  0  0  0  0  0
  182.5510  178.7470  142.8560 C   0  0  2  0  0  3  0  0  0  0  0  0
  181.9390  179.8520  143.4190 F   0  0  0  0  0  0  0  0  0  0  0  0
  1  2  1  0  0  0  0
  1  3  1  0  0  0  0
  4  7  2  0  0  0  0
  4  6  1  0  0  0  0
  5  2  2  0  0  0  0
  6  1  2  0  0  0  0
  7  5  1  0  0  0  0
  8 10  1  0  0  0  0
  9  8  2  0  0  0  0
  9 13  1  0  0  0  0
 10 12  1  0  0  0  0
 11 14  1  0  0  0  0
 12 14  2  0  0  0  0
 13 11  2  0  0  0  0
 14  4  1  0  0  0  0
 16 15  2  0  0  0  0
 16 17  1  0  0  0  0
 17 13  1  0  0  0  0
 18 16  1  0  0  0  0
 19  6  1  0  0  0  0
 19 20  1  0  0  0  0
 20 21  1  0  0  0  0
 21 24  1  0  0  0  0
 22 26  1  6  0  0  0
 22 24  1  0  0  0  0
 22 23  1  0  0  0  0
 24 23  1  0  0  0  0
 24 25  1  1  0  0  0
 26 27  1  6  0  0  0
 29 28  1  6  0  0  0
 29 26  1  0  0  0  0
 29 30  1  0  0  0  0
M  END
>  <MODEL>
2

>  <REMARK>
 VINA RESULT:      -7.7      3.401      6.629
  Name = 
  8 active torsions:
  status: ('A' for Active; 'I' for Inactive)
    1  A    between atoms: O_1  and  C_4
    2  A    between atoms: O_1  and  S_5
    3  A    between atoms: C_4  and  C_27
    4  A    between atoms: S_5  and  C_22
    5  A    between atoms: C_8  and  C_12
    6  A    between atoms: C_9  and  C_12
    7  A    between atoms: N_16  and  C_25
    8  A    between atoms: C_19  and  C_29
                            x       y       z     vdW  Elec       q    Type
                         _______ _______ _______ _____ _____    ______ ____

>  <TORSDO>
F 8

$$$$
=
 OpenBabel11052412243D

 30 32  0  0  1  0  0  0  0  0999 V2000
  186.0300  178.3640  146.5980 C   0  0  0  0  0  0  0  0  0  0  0  0
  186.4750  178.6500  147.8890 C   0  0  0  0  0  3  0  0  0  0  0  0
  184.3190  178.5690  146.2550 Cl  0  0  0  0  0  0  0  0  0  0  0  0
  188.3100  177.7710  145.9510 C   0  0  0  0  0  0  0  0  0  0  0  0
  187.8180  178.4920  148.2230 C   0  0  0  0  0  3  0  0  0  0  0  0
  186.9370  177.9020  145.6200 C   0  0  0  0  0  0  0  0  0  0  0  0
  188.7270  178.0600  147.2600 C   0  0  0  0  0  3  0  0  0  0  0  0
  191.3130  175.6450  143.4840 N   0  0  0  0  0  0  0  0  0  0  0  0
  190.4200  175.8400  142.5620 C   0  0  0  0  0  3  0  0  0  0  0  0
  191.6670  176.6320  144.4920 C   0  0  0  0  0  2  0  0  0  0  0  0
  189.0920  177.6960  143.5250 C   0  0  0  0  0  3  0  0  0  0  0  0
  190.5090  176.9070  145.3900 C   0  0  0  0  0  3  0  0  0  0  0  0
  189.5830  177.0570  142.4540 C   0  0  0  0  0  0  0  0  0  0  0  0
  189.3390  177.3880  144.9550 C   0  0  0  0  0  0  0  0  0  0  0  0
  191.1740  177.5480  140.0170 O   0  0  0  0  0  0  0  0  0  0  0  0
  189.9240  177.7040  139.9960 C   0  0  0  0  0  0  0  0  0  0  0  0
  189.1270  177.5060  141.1710 N   0  0  0  0  0  2  0  0  0  0  0  0
  189.2630  178.1180  138.7320 C   0  0  0  0  0  1  0  0  0  0  0  0
  186.3160  177.4170  143.9960 S   0  0  0  0  0  0  0  0  0  0  0  0
  185.6550  178.9730  143.6950 O   0  0  0  0  0  0  0  0  0  0  0  0
  185.4440  179.0290  142.3160 C   0  0  0  0  0  2  0  0  0  0  0  0
  183.4340  178.8850  140.5910 C   0  0  1  0  0  3  0  0  0  0  0  0
  183.6960  177.5310  141.2440 C   0  0  0  0  0  2  0  0  0  0  0  0
  183.9650  178.8010  142.0170 C   0  0  1  0  0  0  0  0  0  0  0  0
  182.9390  179.0830  143.0970 C   0  0  0  0  0  1  0  0  0  0  0  0
  184.5070  179.1850  139.5520 C   0  0  2  0  0  3  0  0  0  0  0  0
  184.2790  180.4510  139.0100 O   0  0  0  0  0  1  0  0  0  0  0  0
  185.6340  178.1870  137.6910 O   0  0  0  0  0  1  0  0  0  0  0  0
  184.4580  178.1420  138.4420 C   0  0  2  0  0  3  0  0  0  0  0  0
  183.3810  178.3800  137.6080 F   0  0  0  0  0  0  0  0  0  0  0  0
  1  2  1  0  0  0  0
  2  5  2  0  0  0  0
  3  1  1  0  0  0  0
  4  7  2  0  0  0  0
  6  4  1  0  0  0  0
  6  1  2  0  0  0  0
  7  5  1  0  0  0  0
  8 10  1  0  0  0  0
  9  8  2  0  0  0  0
 10 12  1  0  0  0  0
 11 14  1  0  0  0  0
 13  9  1  0  0  0  0
 13 11  2  0  0  0  0
 14 12  2  0  0  0  0
 14  4  1  0  0  0  0
 16 15  2  0  0  0  0
 16 17  1  0  0  0  0
 17 13  1  0  0  0  0
 18 16  1  0  0  0  0
 19  6  1  0  0  0  0
 20 19  1  0  0  0  0
 21 20  1  0  0  0  0
 22 26  1  6  0  0  0
 22 23  1  0  0  0  0
 22 24  1  0  0  0  0
 23 24  1  0  0  0  0
 24 21  1  0  0  0  0
 24 25  1  1  0  0  0
 26 27  1  6  0  0  0
 28 29  1  0  0  0  0
 29 30  1  6  0  0  0
 29 26  1  0  0  0  0
M  END
>  <MODEL>
3

>  <REMARK>
 VINA RESULT:      -7.6      2.813      5.193
  Name = 
  8 active torsions:
  status: ('A' for Active; 'I' for Inactive)
    1  A    between atoms: O_1  and  C_4
    2  A    between atoms: O_1  and  S_5
    3  A    between atoms: C_4  and  C_27
    4  A    between atoms: S_5  and  C_22
    5  A    between atoms: C_8  and  C_12
    6  A    between atoms: C_9  and  C_12
    7  A    between atoms: N_16  and  C_25
    8  A    between atoms: C_19  and  C_29
                            x       y       z     vdW  Elec       q    Type
                         _______ _______ _______ _____ _____    ______ ____

>  <TORSDO>
F 8

$$$$
=
 OpenBabel11052412243D

 30 32  0  0  1  0  0  0  0  0999 V2000
  190.5390  176.4780  144.8210 C   0  0  0  0  0  0  0  0  0  0  0  0
  191.1820  176.8750  145.9940 C   0  0  0  0  0  3  0  0  0  0  0  0
  191.4860  175.6100  143.6200 Cl  0  0  0  0  0  0  0  0  0  0  0  0
  188.4630  177.4830  145.6250 C   0  0  0  0  0  0  0  0  0  0  0  0
  190.4870  177.5780  146.9750 C   0  0  0  0  0  3  0  0  0  0  0  0
  189.1800  176.7940  144.6130 C   0  0  0  0  0  0  0  0  0  0  0  0
  189.1380  177.8750  146.7920 C   0  0  0  0  0  3  0  0  0  0  0  0
  184.4090  179.2520  145.8600 N   0  0  0  0  0  0  0  0  0  0  0  0
  184.5590  179.3020  144.5710 C   0  0  0  0  0  3  0  0  0  0  0  0
  184.8360  178.1320  146.6830 C   0  0  0  0  0  2  0  0  0  0  0  0
  186.3520  177.6330  144.2030 C   0  0  0  0  0  3  0  0  0  0  0  0
  186.3200  177.9880  146.6480 C   0  0  0  0  0  3  0  0  0  0  0  0
  185.2540  178.2680  143.7700 C   0  0  0  0  0  0  0  0  0  0  0  0
  187.0110  177.7640  145.5250 C   0  0  0  0  0  0  0  0  0  0  0  0
  185.8610  179.8770  141.3720 O   0  0  0  0  0  0  0  0  0  0  0  0
  185.2010  178.8100  141.2650 C   0  0  0  0  0  0  0  0  0  0  0  0
  184.8610  178.0240  142.4130 N   0  0  0  0  0  2  0  0  0  0  0  0
  184.7490  178.3660  139.9200 C   0  0  0  0  0  1  0  0  0  0  0  0
  188.4060  176.3830  143.0340 S   0  0  0  0  0  0  0  0  0  0  0  0
  189.3590  177.5260  142.1780 O   0  0  0  0  0  0  0  0  0  0  0  0
  189.9640  176.8100  141.1440 C   0  0  0  0  0  2  0  0  0  0  0  0
  190.5250  177.3270  138.6040 C   0  0  1  0  0  3  0  0  0  0  0  0
  189.3020  176.4230  138.7230 C   0  0  0  0  0  2  0  0  0  0  0  0
  189.5930  177.4370  139.8040 C   0  0  1  0  0  0  0  0  0  0  0  0
  188.6610  178.6330  139.7790 C   0  0  0  0  0  1  0  0  0  0  0  0
  191.7960  176.5350  138.8840 C   0  0  2  0  0  3  0  0  0  0  0  0
  192.6930  177.3410  139.5870 O   0  0  0  0  0  1  0  0  0  0  0  0
  192.8140  174.7560  137.6480 O   0  0  0  0  0  1  0  0  0  0  0  0
  192.4310  176.0960  137.5700 C   0  0  2  0  0  3  0  0  0  0  0  0
  193.5450  176.8680  137.2940 F   0  0  0  0  0  0  0  0  0  0  0  0
  1  2  1  0  0  0  0
  2  5  2  0  0  0  0
  3  1  1  0  0  0  0
  4  7  2  0  0  0  0
  6  1  2  0  0  0  0
  6  4  1  0  0  0  0
  7  5  1  0  0  0  0
  8 10  1  0  0  0  0
  9  8  2  0  0  0  0
 11 14  1  0  0  0  0
 12 10  1  0  0  0  0
 13 11  2  0  0  0  0
 13  9  1  0  0  0  0
 14  4  1  0  0  0  0
 14 12  2  0  0  0  0
 16 15  2  0  0  0  0
 16 17  1  0  0  0  0
 17 13  1  0  0  0  0
 18 16  1  0  0  0  0
 19  6  1  0  0  0  0
 20 19  1  0  0  0  0
 21 20  1  0  0  0  0
 22 23  1  0  0  0  0
 22 26  1  1  0  0  0
 22 24  1  0  0  0  0
 23 24  1  0  0  0  0
 24 25  1  1  0  0  0
 24 21  1  0  0  0  0
 26 27  1  6  0  0  0
 29 30  1  1  0  0  0
 29 28  1  0  0  0  0
 29 26  1  0  0  0  0
M  END
>  <MODEL>
4

>  <REMARK>
 VINA RESULT:      -7.6      2.272      2.662
  Name = 
  8 active torsions:
  status: ('A' for Active; 'I' for Inactive)
    1  A    between atoms: O_1  and  C_4
    2  A    between atoms: O_1  and  S_5
    3  A    between atoms: C_4  and  C_27
    4  A    between atoms: S_5  and  C_22
    5  A    between atoms: C_8  and  C_12
    6  A    between atoms: C_9  and  C_12
    7  A    between atoms: N_16  and  C_25
    8  A    between atoms: C_19  and  C_29
                            x       y       z     vdW  Elec       q    Type
                         _______ _______ _______ _____ _____    ______ ____

>  <TORSDO>
F 8

$$$$
=
 OpenBabel11052412243D

 30 32  0  0  1  0  0  0  0  0999 V2000
  186.7440  178.0860  146.9030 C   0  0  0  0  0  0  0  0  0  0  0  0
  186.8570  178.6220  148.1870 C   0  0  0  0  0  3  0  0  0  0  0  0
  185.1860  178.2060  146.0980 Cl  0  0  0  0  0  0  0  0  0  0  0  0
  189.0870  177.3980  146.9900 C   0  0  0  0  0  0  0  0  0  0  0  0
  188.0640  178.5440  148.8790 C   0  0  0  0  0  3  0  0  0  0  0  0
  187.8490  177.4510  146.2990 C   0  0  0  0  0  0  0  0  0  0  0  0
  189.1690  177.9400  148.2830 C   0  0  0  0  0  3  0  0  0  0  0  0
  192.3380  174.7640  145.5370 N   0  0  0  0  0  0  0  0  0  0  0  0
  191.8900  175.1590  144.3850 C   0  0  0  0  0  3  0  0  0  0  0  0
  192.4770  175.6340  146.6940 C   0  0  0  0  0  2  0  0  0  0  0  0
  190.6650  177.2230  144.9950 C   0  0  0  0  0  3  0  0  0  0  0  0
  191.1430  176.1180  147.1530 C   0  0  0  0  0  3  0  0  0  0  0  0
  191.3840  176.5230  144.1070 C   0  0  0  0  0  0  0  0  0  0  0  0
  190.3180  176.8370  146.3850 C   0  0  0  0  0  0  0  0  0  0  0  0
  189.6590  176.0860  141.7530 O   0  0  0  0  0  0  0  0  0  0  0  0
  190.6370  176.8770  141.6800 C   0  0  0  0  0  0  0  0  0  0  0  0
  191.5130  177.0860  142.7950 N   0  0  0  0  0  2  0  0  0  0  0  0
  190.8970  177.5960  140.4070 C   0  0  0  0  0  1  0  0  0  0  0  0
  187.6420  176.6530  144.6920 S   0  0  0  0  0  0  0  0  0  0  0  0
  187.3730  178.1490  143.8940 O   0  0  0  0  0  0  0  0  0  0  0  0
  186.6300  177.8370  142.7540 C   0  0  0  0  0  2  0  0  0  0  0  0
  184.8840  179.1620  141.2610 C   0  0  1  0  0  3  0  0  0  0  0  0
  184.1810  178.1510  142.1610 C   0  0  0  0  0  2  0  0  0  0  0  0
  185.4600  178.8070  142.6260 C   0  0  1  0  0  0  0  0  0  0  0  0
  185.2470  179.8550  143.7000 C   0  0  0  0  0  1  0  0  0  0  0  0
  185.5680  178.4500  140.1000 C   0  0  2  0  0  3  0  0  0  0  0  0
  186.9090  178.8350  140.0530 O   0  0  0  0  0  1  0  0  0  0  0  0
  184.4110  180.1340  138.8560 O   0  0  0  0  0  1  0  0  0  0  0  0
  184.8860  178.8230  138.7900 C   0  0  2  0  0  3  0  0  0  0  0  0
  183.8260  177.9710  138.5410 F   0  0  0  0  0  0  0  0  0  0  0  0
  1  2  1  0  0  0  0
  2  5  2  0  0  0  0
  3  1  1  0  0  0  0
  4  7  2  0  0  0  0
  6  1  2  0  0  0  0
  6  4  1  0  0  0  0
  7  5  1  0  0  0  0
  8 10  1  0  0  0  0
  9  8  2  0  0  0  0
 10 12  1  0  0  0  0
 11 14  1  0  0  0  0
 13  9  1  0  0  0  0
 13 11  2  0  0  0  0
 14  4  1  0  0  0  0
 14 12  2  0  0  0  0
 16 15  2  0  0  0  0
 16 17  1  0  0  0  0
 17 13  1  0  0  0  0
 18 16  1  0  0  0  0
 19  6  1  0  0  0  0
 20 19  1  0  0  0  0
 21 20  1  0  0  0  0
 22 26  1  6  0  0  0
 22 23  1  0  0  0  0
 22 24  1  0  0  0  0
 23 24  1  0  0  0  0
 24 21  1  0  0  0  0
 24 25  1  1  0  0  0
 26 27  1  6  0  0  0
 29 30  1  1  0  0  0
 29 28  1  0  0  0  0
 29 26  1  0  0  0  0
M  END
>  <MODEL>
5

>  <REMARK>
 VINA RESULT:      -7.4      3.196      5.433
  Name = 
  8 active torsions:
  status: ('A' for Active; 'I' for Inactive)
    1  A    between atoms: O_1  and  C_4
    2  A    between atoms: O_1  and  S_5
    3  A    between atoms: C_4  and  C_27
    4  A    between atoms: S_5  and  C_22
    5  A    between atoms: C_8  and  C_12
    6  A    between atoms: C_9  and  C_12
    7  A    between atoms: N_16  and  C_25
    8  A    between atoms: C_19  and  C_29
                            x       y       z     vdW  Elec       q    Type
                         _______ _______ _______ _____ _____    ______ ____

>  <TORSDO>
F 8

$$$$
=
 OpenBabel11052412243D

 30 32  0  0  1  0  0  0  0  0999 V2000
  185.4610  178.1850  144.2760 C   0  0  0  0  0  0  0  0  0  0  0  0
  184.8210  178.5980  145.4460 C   0  0  0  0  0  3  0  0  0  0  0  0
  184.5100  178.1200  142.8000 Cl  0  0  0  0  0  0  0  0  0  0  0  0
  187.5420  177.9010  145.5230 C   0  0  0  0  0  0  0  0  0  0  0  0
  185.5200  178.6560  146.6490 C   0  0  0  0  0  3  0  0  0  0  0  0
  186.8220  177.8130  144.3050 C   0  0  0  0  0  0  0  0  0  0  0  0
  186.8700  178.3140  146.6850 C   0  0  0  0  0  3  0  0  0  0  0  0
  191.5330  176.0980  146.1880 N   0  0  0  0  0  0  0  0  0  0  0  0
  191.5770  176.1730  144.8920 C   0  0  0  0  0  3  0  0  0  0  0  0
  190.9780  177.1350  147.0420 C   0  0  0  0  0  2  0  0  0  0  0  0
  189.8430  177.8790  144.4240 C   0  0  0  0  0  3  0  0  0  0  0  0
  189.5140  177.2890  146.8010 C   0  0  0  0  0  3  0  0  0  0  0  0
  190.9990  177.2840  144.1000 C   0  0  0  0  0  0  0  0  0  0  0  0
  188.9960  177.6240  145.6150 C   0  0  0  0  0  0  0  0  0  0  0  0
  190.5470  176.0880  141.4400 O   0  0  0  0  0  0  0  0  0  0  0  0
  191.3210  177.0740  141.5650 C   0  0  0  0  0  0  0  0  0  0  0  0
  191.5870  177.6560  142.8470 N   0  0  0  0  0  2  0  0  0  0  0  0
  191.9850  177.6350  140.3600 C   0  0  0  0  0  1  0  0  0  0  0  0
  187.5930  177.1610  142.8080 S   0  0  0  0  0  0  0  0  0  0  0  0
  187.3630  178.6320  141.9520 O   0  0  0  0  0  0  0  0  0  0  0  0
  188.0170  178.4600  140.7310 C   0  0  0  0  0  2  0  0  0  0  0  0
  187.4040  178.3300  138.1530 C   0  0  1  0  0  3  0  0  0  0  0  0
  187.1110  177.0080  138.8550 C   0  0  0  0  0  2  0  0  0  0  0  0
  186.9850  178.3050  139.6180 C   0  0  1  0  0  0  0  0  0  0  0  0
  185.5490  178.7200  139.8760 C   0  0  0  0  0  1  0  0  0  0  0  0
  188.9050  178.4950  137.9470 C   0  0  2  0  0  3  0  0  0  0  0  0
  189.1740  179.8140  137.5750 O   0  0  0  0  0  1  0  0  0  0  0  0
  190.6260  177.0150  137.1880 O   0  0  0  0  0  1  0  0  0  0  0  0
  189.3830  177.5510  136.8490 C   0  0  2  0  0  3  0  0  0  0  0  0
  189.4950  178.2290  135.6490 F   0  0  0  0  0  0  0  0  0  0  0  0
  1  6  2  0  0  0  0
  1  2  1  0  0  0  0
  2  5  2  0  0  0  0
  3  1  1  0  0  0  0
  4 14  1  0  0  0  0
  4  7  2  0  0  0  0
  5  7  1  0  0  0  0
  6  4  1  0  0  0  0
  8 10  1  0  0  0  0
  9  8  2  0  0  0  0
 11 14  1  0  0  0  0
 12 10  1  0  0  0  0
 13 11  2  0  0  0  0
 13  9  1  0  0  0  0
 14 12  2  0  0  0  0
 15 16  2  0  0  0  0
 16 17  1  0  0  0  0
 17 13  1  0  0  0  0
 18 16  1  0  0  0  0
 19  6  1  0  0  0  0
 20 19  1  0  0  0  0
 21 20  1  0  0  0  0
 22 26  1  1  0  0  0
 22 23  1  0  0  0  0
 22 24  1  0  0  0  0
 23 24  1  0  0  0  0
 24 25  1  1  0  0  0
 24 21  1  0  0  0  0
 26 27  1  6  0  0  0
 29 30  1  6  0  0  0
 29 28  1  0  0  0  0
 29 26  1  0  0  0  0
M  END
>  <MODEL>
6

>  <REMARK>
 VINA RESULT:      -7.4      2.776      4.756
  Name = 
  8 active torsions:
  status: ('A' for Active; 'I' for Inactive)
    1  A    between atoms: O_1  and  C_4
    2  A    between atoms: O_1  and  S_5
    3  A    between atoms: C_4  and  C_27
    4  A    between atoms: S_5  and  C_22
    5  A    between atoms: C_8  and  C_12
    6  A    between atoms: C_9  and  C_12
    7  A    between atoms: N_16  and  C_25
    8  A    between atoms: C_19  and  C_29
                            x       y       z     vdW  Elec       q    Type
                         _______ _______ _______ _____ _____    ______ ____

>  <TORSDO>
F 8

$$$$
=
 OpenBabel11052412243D

 30 32  0  0  1  0  0  0  0  0999 V2000
  185.9450  177.8500  145.7480 C   0  0  0  0  0  0  0  0  0  0  0  0
  184.9280  178.5620  146.3840 C   0  0  0  0  0  3  0  0  0  0  0  0
  187.1950  177.1290  146.7520 Cl  0  0  0  0  0  0  0  0  0  0  0  0
  184.9210  178.3310  143.5830 C   0  0  0  0  0  0  0  0  0  0  0  0
  183.9180  179.1660  145.6380 C   0  0  0  0  0  3  0  0  0  0  0  0
  185.9660  177.7430  144.3410 C   0  0  0  0  0  0  0  0  0  0  0  0
  183.9140  179.0470  144.2500 C   0  0  0  0  0  3  0  0  0  0  0  0
  183.8400  178.6650  139.3000 N   0  0  0  0  0  0  0  0  0  0  0  0
  185.0560  179.1120  139.2200 C   0  0  0  0  0  3  0  0  0  0  0  0
  183.4410  177.5430  140.1350 C   0  0  0  0  0  2  0  0  0  0  0  0
  186.0610  178.2280  141.3040 C   0  0  0  0  0  3  0  0  0  0  0  0
  183.6320  177.8670  141.5790 C   0  0  0  0  0  3  0  0  0  0  0  0
  186.1900  178.5970  140.0220 C   0  0  0  0  0  0  0  0  0  0  0  0
  184.8180  178.1800  142.1120 C   0  0  0  0  0  0  0  0  0  0  0  0
  187.3700  176.8820  137.9300 O   0  0  0  0  0  0  0  0  0  0  0  0
  188.0530  177.8030  138.4510 C   0  0  0  0  0  0  0  0  0  0  0  0
  187.5210  178.6310  139.4920 N   0  0  0  0  0  2  0  0  0  0  0  0
  189.4480  178.0240  137.9880 C   0  0  0  0  0  1  0  0  0  0  0  0
  187.3600  176.9260  143.5350 S   0  0  0  0  0  0  0  0  0  0  0  0
  188.4140  178.2460  143.8430 O   0  0  0  0  0  0  0  0  0  0  0  0
  189.1310  177.8930  144.9880 C   0  0  0  0  0  2  0  0  0  0  0  0
  191.6160  177.1830  145.5870 C   0  0  1  0  0  3  0  0  0  0  0  0
  191.1610  176.5420  144.2800 C   0  0  0  0  0  2  0  0  0  0  0  0
  190.6240  177.8970  144.6760 C   0  0  1  0  0  0  0  0  0  0  0  0
  191.2090  179.0410  143.8710 C   0  0  0  0  0  1  0  0  0  0  0  0
  190.9650  176.4800  146.7730 C   0  0  2  0  0  3  0  0  0  0  0  0
  190.5380  177.4380  147.6950 O   0  0  0  0  0  1  0  0  0  0  0  0
  192.7680  176.2670  148.3310 O   0  0  0  0  0  1  0  0  0  0  0  0
  191.9710  175.5490  147.4380 C   0  0  2  0  0  3  0  0  0  0  0  0
  192.7800  174.9580  146.4840 F   0  0  0  0  0  0  0  0  0  0  0  0
  1  2  1  0  0  0  0
  1  3  1  0  0  0  0
  4  7  2  0  0  0  0
  4  6  1  0  0  0  0
  5  2  2  0  0  0  0
  6  1  2  0  0  0  0
  7  5  1  0  0  0  0
  8 10  1  0  0  0  0
  9  8  2  0  0  0  0
  9 13  1  0  0  0  0
 10 12  1  0  0  0  0
 11 14  1  0  0  0  0
 12 14  2  0  0  0  0
 13 11  2  0  0  0  0
 14  4  1  0  0  0  0
 15 16  2  0  0  0  0
 16 17  1  0  0  0  0
 17 13  1  0  0  0  0
 18 16  1  0  0  0  0
 19 20  1  0  0  0  0
 19  6  1  0  0  0  0
 20 21  1  0  0  0  0
 22 26  1  1  0  0  0
 23 24  1  0  0  0  0
 23 22  1  0  0  0  0
 24 25  1  6  0  0  0
 24 21  1  0  0  0  0
 24 22  1  0  0  0  0
 26 29  1  0  0  0  0
 26 27  1  1  0  0  0
 29 30  1  6  0  0  0
 29 28  1  0  0  0  0
M  END
>  <MODEL>
7

>  <REMARK>
 VINA RESULT:      -7.4      3.433      6.800
  Name = 
  8 active torsions:
  status: ('A' for Active; 'I' for Inactive)
    1  A    between atoms: O_1  and  C_4
    2  A    between atoms: O_1  and  S_5
    3  A    between atoms: C_4  and  C_27
    4  A    between atoms: S_5  and  C_22
    5  A    between atoms: C_8  and  C_12
    6  A    between atoms: C_9  and  C_12
    7  A    between atoms: N_16  and  C_25
    8  A    between atoms: C_19  and  C_29
                            x       y       z     vdW  Elec       q    Type
                         _______ _______ _______ _____ _____    ______ ____

>  <TORSDO>
F 8

$$$$
=
 OpenBabel11052412243D

 30 32  0  0  1  0  0  0  0  0999 V2000
  190.7550  177.4560  142.4360 C   0  0  0  0  0  0  0  0  0  0  0  0
  191.5210  176.8700  143.4450 C   0  0  0  0  0  3  0  0  0  0  0  0
  191.5240  177.7350  140.8800 Cl  0  0  0  0  0  0  0  0  0  0  0  0
  188.8460  177.5620  143.9560 C   0  0  0  0  0  0  0  0  0  0  0  0
  190.9700  176.6370  144.7030 C   0  0  0  0  0  3  0  0  0  0  0  0
  189.4170  177.8270  142.6850 C   0  0  0  0  0  0  0  0  0  0  0  0
  189.6420  176.9770  144.9530 C   0  0  0  0  0  3  0  0  0  0  0  0
  184.9940  179.3220  145.2570 N   0  0  0  0  0  0  0  0  0  0  0  0
  184.7680  179.3050  143.9790 C   0  0  0  0  0  3  0  0  0  0  0  0
  185.6610  178.2490  145.9770 C   0  0  0  0  0  2  0  0  0  0  0  0
  186.4130  177.6270  143.1930 C   0  0  0  0  0  3  0  0  0  0  0  0
  187.0760  178.1100  145.5250 C   0  0  0  0  0  3  0  0  0  0  0  0
  185.2250  178.2330  143.0630 C   0  0  0  0  0  0  0  0  0  0  0  0
  187.4210  177.8310  144.2630 C   0  0  0  0  0  0  0  0  0  0  0  0
  185.1670  179.6600  140.4800 O   0  0  0  0  0  0  0  0  0  0  0  0
  184.4840  178.6130  140.6380 C   0  0  0  0  0  0  0  0  0  0  0  0
  184.4640  177.9160  141.8900 N   0  0  0  0  0  2  0  0  0  0  0  0
  183.6680  178.0990  139.5080 C   0  0  0  0  0  1  0  0  0  0  0  0
  188.4870  178.6990  141.4060 S   0  0  0  0  0  0  0  0  0  0  0  0
  189.1310  177.7150  140.1540 O   0  0  0  0  0  0  0  0  0  0  0  0
  188.1080  177.5910  139.2120 C   0  0  0  0  0  2  0  0  0  0  0  0
  189.3930  176.8460  137.0140 C   0  0  1  0  0  3  0  0  0  0  0  0
  187.9350  177.1760  136.7130 C   0  0  0  0  0  2  0  0  0  0  0  0
  188.6540  177.9060  137.8230 C   0  0  1  0  0  0  0  0  0  0  0  0
  189.0120  179.3370  137.4750 C   0  0  0  0  0  1  0  0  0  0  0  0
  189.4940  175.4970  137.7160 C   0  0  2  0  0  3  0  0  0  0  0  0
  190.6650  175.4640  138.4770 O   0  0  0  0  0  1  0  0  0  0  0  0
  189.7830  173.1570  137.3090 O   0  0  0  0  0  1  0  0  0  0  0  0
  189.5280  174.3780  136.6830 C   0  0  2  0  0  3  0  0  0  0  0  0
  190.5160  174.6210  135.7460 F   0  0  0  0  0  0  0  0  0  0  0  0
  1  6  2  0  0  0  0
  1  2  1  0  0  0  0
  2  5  2  0  0  0  0
  3  1  1  0  0  0  0
  4 14  1  0  0  0  0
  4  7  2  0  0  0  0
  5  7  1  0  0  0  0
  6  4  1  0  0  0  0
  8 10  1  0  0  0  0
  9  8  2  0  0  0  0
 11 14  1  0  0  0  0
 12 10  1  0  0  0  0
 13 11  2  0  0  0  0
 13  9  1  0  0  0  0
 14 12  2  0  0  0  0
 15 16  2  0  0  0  0
 16 17  1  0  0  0  0
 17 13  1  0  0  0  0
 18 16  1  0  0  0  0
 19  6  1  0  0  0  0
 20 19  1  0  0  0  0
 21 20  1  0  0  0  0
 22 26  1  1  0  0  0
 22 24  1  0  0  0  0
 23 22  1  0  0  0  0
 23 24  1  0  0  0  0
 24 25  1  6  0  0  0
 24 21  1  0  0  0  0
 26 27  1  6  0  0  0
 29 30  1  6  0  0  0
 29 28  1  0  0  0  0
 29 26  1  0  0  0  0
M  END
>  <MODEL>
8

>  <REMARK>
 VINA RESULT:      -7.2      1.907      2.328
  Name = 
  8 active torsions:
  status: ('A' for Active; 'I' for Inactive)
    1  A    between atoms: O_1  and  C_4
    2  A    between atoms: O_1  and  S_5
    3  A    between atoms: C_4  and  C_27
    4  A    between atoms: S_5  and  C_22
    5  A    between atoms: C_8  and  C_12
    6  A    between atoms: C_9  and  C_12
    7  A    between atoms: N_16  and  C_25
    8  A    between atoms: C_19  and  C_29
                            x       y       z     vdW  Elec       q    Type
                         _______ _______ _______ _____ _____    ______ ____

>  <TORSDO>
F 8

$$$$
=
 OpenBabel11052412243D

 30 32  0  0  1  0  0  0  0  0999 V2000
  187.1200  177.6670  145.9040 C   0  0  0  0  0  0  0  0  0  0  0  0
  186.4340  178.2750  146.9560 C   0  0  0  0  0  3  0  0  0  0  0  0
  188.5680  176.7480  146.2900 Cl  0  0  0  0  0  0  0  0  0  0  0  0
  185.4790  178.5560  144.3280 C   0  0  0  0  0  0  0  0  0  0  0  0
  185.2880  179.0270  146.7090 C   0  0  0  0  0  3  0  0  0  0  0  0
  186.6630  177.8160  144.5780 C   0  0  0  0  0  0  0  0  0  0  0  0
  184.8130  179.1620  145.4070 C   0  0  0  0  0  3  0  0  0  0  0  0
  184.2610  177.9830  140.1080 N   0  0  0  0  0  0  0  0  0  0  0  0
  183.1010  177.8040  140.6620 C   0  0  0  0  0  3  0  0  0  0  0  0
  185.2120  178.9990  140.5300 C   0  0  0  0  0  2  0  0  0  0  0  0
  183.4160  178.8890  142.8670 C   0  0  0  0  0  3  0  0  0  0  0  0
  185.6920  178.7290  141.9160 C   0  0  0  0  0  3  0  0  0  0  0  0
  182.6150  178.5500  141.8470 C   0  0  0  0  0  0  0  0  0  0  0  0
  184.8800  178.6760  142.9780 C   0  0  0  0  0  0  0  0  0  0  0  0
  180.8640  180.3240  140.2670 O   0  0  0  0  0  0  0  0  0  0  0  0
  180.3840  179.6410  141.2110 C   0  0  0  0  0  0  0  0  0  0  0  0
  181.2140  178.7960  142.0180 N   0  0  0  0  0  2  0  0  0  0  0  0
  178.9310  179.7270  141.5060 C   0  0  0  0  0  1  0  0  0  0  0  0
  187.6370  177.1280  143.2220 S   0  0  0  0  0  0  0  0  0  0  0  0
  189.0330  178.0260  143.6640 O   0  0  0  0  0  0  0  0  0  0  0  0
  189.6730  178.3380  142.4630 C   0  0  0  0  0  2  0  0  0  0  0  0
  190.5320  176.7670  140.5060 C   0  0  1  0  0  3  0  0  0  0  0  0
  191.6920  177.5020  141.1700 C   0  0  0  0  0  2  0  0  0  0  0  0
  190.4750  177.1320  141.9840 C   0  0  1  0  0  0  0  0  0  0  0  0
  190.7110  175.9750  142.9350 C   0  0  0  0  0  1  0  0  0  0  0  0
  189.7510  177.7190  139.6070 C   0  0  2  0  0  3  0  0  0  0  0  0
  188.3860  177.4480  139.7310 O   0  0  0  0  0  1  0  0  0  0  0  0
  189.1860  178.0100  137.3000 O   0  0  0  0  0  1  0  0  0  0  0  0
  190.1770  177.5270  138.1570 C   0  0  2  0  0  3  0  0  0  0  0  0
  190.3890  176.1860  137.8930 F   0  0  0  0  0  0  0  0  0  0  0  0
  1  3  1  0  0  0  0
  1  2  1  0  0  0  0
  4  6  1  0  0  0  0
  4  7  2  0  0  0  0
  5  2  2  0  0  0  0
  6  1  2  0  0  0  0
  7  5  1  0  0  0  0
  8 10  1  0  0  0  0
  8  9  2  0  0  0  0
  9 13  1  0  0  0  0
 10 12  1  0  0  0  0
 11 14  1  0  0  0  0
 12 14  2  0  0  0  0
 13 17  1  0  0  0  0
 13 11  2  0  0  0  0
 14  4  1  0  0  0  0
 15 16  2  0  0  0  0
 16 18  1  0  0  0  0
 16 17  1  0  0  0  0
 19 20  1  0  0  0  0
 19  6  1  0  0  0  0
 21 20  1  0  0  0  0
 22 26  1  6  0  0  0
 22 23  1  0  0  0  0
 22 24  1  0  0  0  0
 23 24  1  0  0  0  0
 24 21  1  0  0  0  0
 24 25  1  1  0  0  0
 26 27  1  6  0  0  0
 29 28  1  6  0  0  0
 29 26  1  0  0  0  0
 30 29  1  0  0  0  0
M  END
>  <MODEL>
9

>  <REMARK>
 VINA RESULT:      -7.0      2.557      4.038
  Name = 
  8 active torsions:
  status: ('A' for Active; 'I' for Inactive)
    1  A    between atoms: O_1  and  C_4
    2  A    between atoms: O_1  and  S_5
    3  A    between atoms: C_4  and  C_27
    4  A    between atoms: S_5  and  C_22
    5  A    between atoms: C_8  and  C_12
    6  A    between atoms: C_9  and  C_12
    7  A    between atoms: N_16  and  C_25
    8  A    between atoms: C_19  and  C_29
                            x       y       z     vdW  Elec       q    Type
                         _______ _______ _______ _____ _____    ______ ____

>  <TORSDO>
F 8

$$$$
