=
 OpenBabel11052413323D

 28 32  0  0  1  0  0  0  0  0999 V2000
  189.8470  177.5980  141.8760 C   0  0  1  0  0  3  0  0  0  0  0  0
  185.3590  178.9390  139.7290 C   0  0  0  0  0  3  0  0  0  0  0  0
  189.9720  175.6650  137.4860 C   0  0  0  0  0  1  0  0  0  0  0  0
  185.3590  177.9120  137.4850 C   0  0  2  0  0  3  0  0  0  0  0  0
  187.5510  178.0850  138.9540 C   0  0  1  0  0  3  0  0  0  0  0  0
  183.2020  178.2160  138.7570 C   0  0  0  0  0  0  0  0  0  0  0  0
  186.0530  178.2590  138.7990 C   0  0  0  0  0  0  0  0  0  0  0  0
  187.6130  177.1190  136.6700 C   0  0  0  0  0  2  0  0  0  0  0  0
  183.9300  177.4070  137.7180 C   0  0  0  0  0  2  0  0  0  0  0  0
  189.9910  176.7230  139.5940 C   0  0  2  0  0  3  0  0  0  0  0  0
  187.9690  177.8140  140.3860 C   0  0  0  0  0  2  0  0  0  0  0  0
  186.1120  176.8810  136.6440 C   0  0  0  0  0  2  0  0  0  0  0  0
  192.0930  177.6790  140.7150 C   0  0  0  0  0  2  0  0  0  0  0  0
  188.0930  176.9370  138.1070 C   0  0  1  0  0  3  0  0  0  0  0  0
  191.5360  176.7120  139.6730 C   0  0  0  0  0  2  0  0  0  0  0  0
  182.0150  178.0130  138.9550 O   0  0  0  0  0  0  0  0  0  0  0  0
  183.9090  179.2910  139.5320 C   0  0  0  0  0  2  0  0  0  0  0  0
  189.5610  176.8810  138.1870 N   0  0  0  0  0  0  0  0  0  0  0  0
  191.3690  177.4840  142.0390 C   0  0  0  0  0  2  0  0  0  0  0  0
  189.4280  177.7800  140.4660 N   0  0  1  0  0  0  0  0  0  0  0  0
  189.1040  176.4940  142.6590 C   0  0  0  0  0  2  0  0  0  0  0  0
  188.5410  176.9420  143.9710 C   0  0  0  0  0  0  0  0  0  0  0  0
  187.5100  177.8130  146.4230 C   0  0  0  0  0  0  0  0  0  0  0  0
  187.1680  177.1820  144.1100 C   0  0  0  0  0  3  0  0  0  0  0  0
  189.3940  177.1320  145.0640 C   0  0  0  0  0  3  0  0  0  0  0  0
  188.8790  177.5680  146.2880 C   0  0  0  0  0  3  0  0  0  0  0  0
  186.9860  178.2580  147.6680 N   0  0  0  0  0  1  0  0  0  0  0  0
  186.6540  177.6170  145.3340 C   0  0  0  0  0  3  0  0  0  0  0  0
  1 19  1  0  0  0  0
  1 21  1  6  0  0  0
  3 18  1  0  0  0  0
  4 12  1  1  0  0  0
  4  9  1  0  0  0  0
  4  7  1  0  0  0  0
  5 11  1  1  0  0  0
  6 16  2  0  0  0  0
  6 17  1  0  0  0  0
  7  5  1  0  0  0  0
  7  2  2  0  0  0  0
  9  6  1  0  0  0  0
 10 15  1  6  0  0  0
 10 20  1  0  0  0  0
 12  8  1  0  0  0  0
 13 19  1  0  0  0  0
 14  8  1  6  0  0  0
 14 18  1  0  0  0  0
 14  5  1  0  0  0  0
 15 13  1  0  0  0  0
 17  2  1  0  0  0  0
 18 10  1  0  0  0  0
 20 11  1  1  0  0  0
 20  1  1  0  0  0  0
 21 22  1  0  0  0  0
 22 24  2  0  0  0  0
 22 25  1  0  0  0  0
 23 27  1  0  0  0  0
 24 28  1  0  0  0  0
 25 26  2  0  0  0  0
 26 23  1  0  0  0  0
 28 23  2  0  0  0  0
M  END
>  <MODEL>
1

>  <REMARK>
 VINA RESULT:      -8.8      0.000      0.000
  Name = 
  2 active torsions:
  status: ('A' for Active; 'I' for Inactive)
    1  A    between atoms: C_1  and  C_2
    2  A    between atoms: C_2  and  C_3
                            x       y       z     vdW  Elec       q    Type
                         _______ _______ _______ _____ _____    ______ ____

>  <TORSDO>
F 2

$$$$
=
 OpenBabel11052413323D

 28 32  0  0  1  0  0  0  0  0999 V2000
  190.7410  176.3300  143.5750 C   0  0  1  0  0  3  0  0  0  0  0  0
  185.7390  177.5670  143.6250 C   0  0  0  0  0  3  0  0  0  0  0  0
  189.9490  178.0270  147.9930 C   0  0  0  0  0  1  0  0  0  0  0  0
  185.3040  178.5000  145.8670 C   0  0  2  0  0  3  0  0  0  0  0  0
  187.5220  177.1780  145.2990 C   0  0  1  0  0  3  0  0  0  0  0  0
  184.0170  179.3280  143.8610 C   0  0  0  0  0  0  0  0  0  0  0  0
  186.2170  177.8110  144.8580 C   0  0  0  0  0  0  0  0  0  0  0  0
  187.0890  178.0280  147.5890 C   0  0  0  0  0  2  0  0  0  0  0  0
  184.5390  179.6670  145.2320 C   0  0  0  0  0  2  0  0  0  0  0  0
  190.3280  177.0610  145.8760 C   0  0  2  0  0  3  0  0  0  0  0  0
  188.5680  177.1570  144.2020 C   0  0  0  0  0  2  0  0  0  0  0  0
  186.0330  179.0110  147.1100 C   0  0  0  0  0  2  0  0  0  0  0  0
  191.9560  175.1260  145.4380 C   0  0  0  0  0  2  0  0  0  0  0  0
  188.1430  177.8990  146.4920 C   0  0  1  0  0  3  0  0  0  0  0  0
  191.5600  176.2660  146.3710 C   0  0  0  0  0  2  0  0  0  0  0  0
  183.2800  180.1120  143.2870 O   0  0  0  0  0  0  0  0  0  0  0  0
  184.3680  178.0230  143.2050 C   0  0  0  0  0  2  0  0  0  0  0  0
  189.3370  177.1830  146.9680 N   0  0  0  0  0  0  0  0  0  0  0  0
  192.0390  175.6340  144.0060 C   0  0  0  0  0  2  0  0  0  0  0  0
  189.7450  176.4280  144.6690 N   0  0  1  0  0  0  0  0  0  0  0  0
  191.0220  177.6410  142.8070 C   0  0  0  0  0  2  0  0  0  0  0  0
  190.7500  177.5630  141.3380 C   0  0  0  0  0  0  0  0  0  0  0  0
  190.2500  177.3790  138.5900 C   0  0  0  0  0  0  0  0  0  0  0  0
  189.4740  177.8460  140.8360 C   0  0  0  0  0  3  0  0  0  0  0  0
  191.7760  177.1950  140.4610 C   0  0  0  0  0  3  0  0  0  0  0  0
  191.5270  177.1020  139.0880 C   0  0  0  0  0  3  0  0  0  0  0  0
  189.9960  177.2830  137.1940 N   0  0  0  0  0  1  0  0  0  0  0  0
  189.2250  177.7540  139.4640 C   0  0  0  0  0  3  0  0  0  0  0  0
  1 21  1  1  0  0  0
  1 19  1  0  0  0  0
  1 20  1  0  0  0  0
  2  7  2  0  0  0  0
  4  9  1  6  0  0  0
  4 12  1  0  0  0  0
  5 11  1  6  0  0  0
  5 14  1  0  0  0  0
  6  9  1  0  0  0  0
  7  5  1  0  0  0  0
  7  4  1  0  0  0  0
 10 15  1  1  0  0  0
 10 18  1  0  0  0  0
 12  8  1  0  0  0  0
 13 15  1  0  0  0  0
 14 18  1  0  0  0  0
 14  8  1  1  0  0  0
 16  6  2  0  0  0  0
 17  2  1  0  0  0  0
 17  6  1  0  0  0  0
 18  3  1  0  0  0  0
 19 13  1  0  0  0  0
 20 11  1  6  0  0  0
 20 10  1  0  0  0  0
 22 21  1  0  0  0  0
 23 26  2  0  0  0  0
 23 28  1  0  0  0  0
 24 22  1  0  0  0  0
 25 22  2  0  0  0  0
 26 25  1  0  0  0  0
 27 23  1  0  0  0  0
 28 24  2  0  0  0  0
M  END
>  <MODEL>
2

>  <REMARK>
 VINA RESULT:      -8.8      2.739      6.829
  Name = 
  2 active torsions:
  status: ('A' for Active; 'I' for Inactive)
    1  A    between atoms: C_1  and  C_2
    2  A    between atoms: C_2  and  C_3
                            x       y       z     vdW  Elec       q    Type
                         _______ _______ _______ _____ _____    ______ ____

>  <TORSDO>
F 2

$$$$
=
 OpenBabel11052413323D

 28 32  0  0  1  0  0  0  0  0999 V2000
  184.5560  179.0020  142.1450 C   0  0  1  0  0  3  0  0  0  0  0  0
  188.3150  178.8030  138.6260 C   0  0  0  0  0  3  0  0  0  0  0  0
  188.1740  176.7530  144.3520 C   0  0  0  0  0  1  0  0  0  0  0  0
  190.1780  177.5990  139.7050 C   0  0  2  0  0  3  0  0  0  0  0  0
  188.1180  178.5280  141.0790 C   0  0  1  0  0  3  0  0  0  0  0  0
  189.7970  177.4090  137.2190 C   0  0  0  0  0  0  0  0  0  0  0  0
  188.8020  178.2560  139.7530 C   0  0  0  0  0  0  0  0  0  0  0  0
  190.0090  177.3950  142.2170 C   0  0  0  0  0  2  0  0  0  0  0  0
  190.3480  176.7380  138.4480 C   0  0  0  0  0  2  0  0  0  0  0  0
  186.4360  177.9780  143.3340 C   0  0  2  0  0  3  0  0  0  0  0  0
  186.6060  178.5310  140.9740 C   0  0  0  0  0  2  0  0  0  0  0  0
  190.4940  176.7430  140.9320 C   0  0  0  0  0  2  0  0  0  0  0  0
  184.8810  179.5940  144.5820 C   0  0  0  0  0  2  0  0  0  0  0  0
  188.4880  177.5000  142.1450 C   0  0  1  0  0  3  0  0  0  0  0  0
  185.8380  178.4110  144.6950 C   0  0  0  0  0  2  0  0  0  0  0  0
  189.9770  176.9010  136.1240 O   0  0  0  0  0  0  0  0  0  0  0  0
  189.0560  178.7120  137.3190 C   0  0  0  0  0  2  0  0  0  0  0  0
  187.9070  177.8670  143.4450 N   0  0  0  0  0  0  0  0  0  0  0  0
  183.8680  179.3380  143.4750 C   0  0  0  0  0  2  0  0  0  0  0  0
  186.0310  178.9160  142.2610 N   0  0  1  0  0  0  0  0  0  0  0  0
  183.8710  177.8170  141.4300 C   0  0  0  0  0  2  0  0  0  0  0  0
  182.9100  178.2200  140.3560 C   0  0  0  0  0  0  0  0  0  0  0  0
  181.0870  178.9820  138.3730 C   0  0  0  0  0  0  0  0  0  0  0  0
  183.2140  179.2790  139.4910 C   0  0  0  0  0  3  0  0  0  0  0  0
  181.6950  177.5390  140.2190 C   0  0  0  0  0  3  0  0  0  0  0  0
  180.7830  177.9210  139.2310 C   0  0  0  0  0  3  0  0  0  0  0  0
  180.1590  179.3710  137.3670 N   0  0  0  0  0  1  0  0  0  0  0  0
  182.3040  179.6590  138.5020 C   0  0  0  0  0  3  0  0  0  0  0  0
  1 21  1  1  0  0  0
  1 20  1  0  0  0  0
  1 19  1  0  0  0  0
  2  7  2  0  0  0  0
  4  9  1  6  0  0  0
  4  7  1  0  0  0  0
  4 12  1  0  0  0  0
  5 11  1  6  0  0  0
  5 14  1  0  0  0  0
  6 17  1  0  0  0  0
  6  9  1  0  0  0  0
  7  5  1  0  0  0  0
 10 18  1  0  0  0  0
 10 15  1  1  0  0  0
 12  8  1  0  0  0  0
 13 15  1  0  0  0  0
 14  8  1  1  0  0  0
 14 18  1  0  0  0  0
 16  6  2  0  0  0  0
 17  2  1  0  0  0  0
 18  3  1  0  0  0  0
 19 13  1  0  0  0  0
 20 11  1  6  0  0  0
 20 10  1  0  0  0  0
 22 21  1  0  0  0  0
 23 28  2  0  0  0  0
 23 26  1  0  0  0  0
 24 22  2  0  0  0  0
 25 22  1  0  0  0  0
 26 25  2  0  0  0  0
 27 23  1  0  0  0  0
 28 24  1  0  0  0  0
M  END
>  <MODEL>
3

>  <REMARK>
 VINA RESULT:      -8.2      3.137      6.909
  Name = 
  2 active torsions:
  status: ('A' for Active; 'I' for Inactive)
    1  A    between atoms: C_1  and  C_2
    2  A    between atoms: C_2  and  C_3
                            x       y       z     vdW  Elec       q    Type
                         _______ _______ _______ _____ _____    ______ ____

>  <TORSDO>
F 2

$$$$
=
 OpenBabel11052413323D

 28 32  0  0  1  0  0  0  0  0999 V2000
  188.9580  178.1000  139.6930 C   0  0  1  0  0  3  0  0  0  0  0  0
  185.8020  179.5890  143.4840 C   0  0  0  0  0  3  0  0  0  0  0  0
  184.5440  177.5060  137.9070 C   0  0  0  0  0  1  0  0  0  0  0  0
  183.5160  179.2440  142.6240 C   0  0  2  0  0  3  0  0  0  0  0  0
  185.6360  179.1880  141.0460 C   0  0  1  0  0  3  0  0  0  0  0  0
  184.0150  178.9830  145.0830 C   0  0  0  0  0  0  0  0  0  0  0  0
  185.0290  179.2650  142.4330 C   0  0  0  0  0  0  0  0  0  0  0  0
  183.3480  178.9170  140.1260 C   0  0  0  0  0  2  0  0  0  0  0  0
  183.1230  178.5690  143.9440 C   0  0  0  0  0  2  0  0  0  0  0  0
  186.7210  177.9220  138.7130 C   0  0  2  0  0  3  0  0  0  0  0  0
  187.0170  178.5610  141.0400 C   0  0  0  0  0  2  0  0  0  0  0  0
  182.7600  178.5640  141.4830 C   0  0  0  0  0  2  0  0  0  0  0  0
  188.6800  178.7040  137.2530 C   0  0  0  0  0  2  0  0  0  0  0  0
  184.7760  178.3790  140.0790 C   0  0  1  0  0  3  0  0  0  0  0  0
  187.3140  178.0260  137.2880 C   0  0  0  0  0  2  0  0  0  0  0  0
  183.7440  178.6280  146.2190 O   0  0  0  0  0  0  0  0  0  0  0  0
  185.2150  179.8530  144.8440 C   0  0  0  0  0  2  0  0  0  0  0  0
  185.3320  178.4330  138.7180 N   0  0  0  0  0  0  0  0  0  0  0  0
  189.5950  178.0800  138.2970 C   0  0  0  0  0  2  0  0  0  0  0  0
  187.5760  178.6350  139.6910 N   0  0  1  0  0  0  0  0  0  0  0  0
  189.1550  176.7570  140.4310 C   0  0  0  0  0  2  0  0  0  0  0  0
  189.8020  176.8840  141.7740 C   0  0  0  0  0  0  0  0  0  0  0  0
  191.0120  177.1580  144.2830 C   0  0  0  0  0  0  0  0  0  0  0  0
  189.1370  176.4460  142.9260 C   0  0  0  0  0  3  0  0  0  0  0  0
  191.0760  177.4520  141.8810 C   0  0  0  0  0  3  0  0  0  0  0  0
  191.6800  177.5910  143.1340 C   0  0  0  0  0  3  0  0  0  0  0  0
  191.6270  177.3000  145.5580 N   0  0  0  0  0  1  0  0  0  0  0  0
  189.7420  176.5830  144.1790 C   0  0  0  0  0  3  0  0  0  0  0  0
  1 21  1  6  0  0  0
  2 17  1  0  0  0  0
  3 18  1  0  0  0  0
  4 12  1  6  0  0  0
  4  9  1  0  0  0  0
  5 11  1  1  0  0  0
  5  7  1  0  0  0  0
  6 16  2  0  0  0  0
  7  4  1  0  0  0  0
  7  2  2  0  0  0  0
  8 12  1  0  0  0  0
  9  6  1  0  0  0  0
 10 15  1  6  0  0  0
 10 18  1  0  0  0  0
 10 20  1  0  0  0  0
 13 15  1  0  0  0  0
 13 19  1  0  0  0  0
 14  8  1  6  0  0  0
 14  5  1  0  0  0  0
 17  6  1  0  0  0  0
 18 14  1  0  0  0  0
 19  1  1  0  0  0  0
 20  1  1  0  0  0  0
 20 11  1  1  0  0  0
 21 22  1  0  0  0  0
 22 25  2  0  0  0  0
 22 24  1  0  0  0  0
 23 27  1  0  0  0  0
 24 28  2  0  0  0  0
 25 26  1  0  0  0  0
 26 23  2  0  0  0  0
 28 23  1  0  0  0  0
M  END
>  <MODEL>
4

>  <REMARK>
 VINA RESULT:      -8.2      2.640      4.542
  Name = 
  2 active torsions:
  status: ('A' for Active; 'I' for Inactive)
    1  A    between atoms: C_1  and  C_2
    2  A    between atoms: C_2  and  C_3
                            x       y       z     vdW  Elec       q    Type
                         _______ _______ _______ _____ _____    ______ ____

>  <TORSDO>
F 2

$$$$
=
 OpenBabel11052413323D

 28 32  0  0  1  0  0  0  0  0999 V2000
  182.3600  178.2500  139.4260 C   0  0  1  0  0  3  0  0  0  0  0  0
  186.6990  178.2470  142.2060 C   0  0  0  0  0  3  0  0  0  0  0  0
  180.8950  178.7150  143.9710 C   0  0  0  0  0  1  0  0  0  0  0  0
  185.9840  178.4260  144.5600 C   0  0  2  0  0  3  0  0  0  0  0  0
  184.3320  178.8910  142.5480 C   0  0  1  0  0  3  0  0  0  0  0  0
  188.0710  177.1500  143.9470 C   0  0  0  0  0  0  0  0  0  0  0  0
  185.6810  178.4300  143.0650 C   0  0  0  0  0  0  0  0  0  0  0  0
  183.5930  179.1630  144.9000 C   0  0  0  0  0  2  0  0  0  0  0  0
  186.9480  177.2950  144.9380 C   0  0  0  0  0  2  0  0  0  0  0  0
  181.5990  178.6280  141.7230 C   0  0  2  0  0  3  0  0  0  0  0  0
  183.9480  178.2380  141.2350 C   0  0  0  0  0  2  0  0  0  0  0  0
  184.7380  178.3220  145.4410 C   0  0  0  0  0  2  0  0  0  0  0  0
  180.4080  179.8170  139.7850 C   0  0  0  0  0  2  0  0  0  0  0  0
  183.2030  178.6040  143.5350 C   0  0  1  0  0  3  0  0  0  0  0  0
  180.2900  179.2710  141.2050 C   0  0  0  0  0  2  0  0  0  0  0  0
  188.9860  176.3780  144.1840 O   0  0  0  0  0  0  0  0  0  0  0  0
  188.0970  177.9650  142.6860 C   0  0  0  0  0  2  0  0  0  0  0  0
  181.9360  179.1770  143.0540 N   0  0  0  0  0  0  0  0  0  0  0  0
  181.0230  178.7640  138.8750 C   0  0  0  0  0  2  0  0  0  0  0  0
  182.7000  178.8230  140.7500 N   0  0  1  0  0  0  0  0  0  0  0  0
  182.4720  176.7130  139.3130 C   0  0  0  0  0  2  0  0  0  0  0  0
  183.4410  176.2420  138.2750 C   0  0  0  0  0  0  0  0  0  0  0  0
  185.2260  175.3490  136.3130 C   0  0  0  0  0  0  0  0  0  0  0  0
  184.2610  177.1570  137.6030 C   0  0  0  0  0  3  0  0  0  0  0  0
  183.5230  174.8790  137.9690 C   0  0  0  0  0  3  0  0  0  0  0  0
  184.4130  174.4330  136.9870 C   0  0  0  0  0  3  0  0  0  0  0  0
  186.1300  174.8940  135.3140 N   0  0  0  0  0  1  0  0  0  0  0  0
  185.1520  176.7100  136.6230 C   0  0  0  0  0  3  0  0  0  0  0  0
  1 21  1  1  0  0  0
  1 20  1  0  0  0  0
  2 17  1  0  0  0  0
  2  7  2  0  0  0  0
  4  9  1  6  0  0  0
  4 12  1  0  0  0  0
  5 11  1  6  0  0  0
  5  7  1  0  0  0  0
  5 14  1  0  0  0  0
  6 16  2  0  0  0  0
  6  9  1  0  0  0  0
  7  4  1  0  0  0  0
  8 12  1  0  0  0  0
 10 15  1  6  0  0  0
 10 18  1  0  0  0  0
 13 15  1  0  0  0  0
 14  8  1  1  0  0  0
 17  6  1  0  0  0  0
 18 14  1  0  0  0  0
 18  3  1  0  0  0  0
 19  1  1  0  0  0  0
 19 13  1  0  0  0  0
 20 11  1  1  0  0  0
 20 10  1  0  0  0  0
 22 21  1  0  0  0  0
 23 28  2  0  0  0  0
 23 26  1  0  0  0  0
 24 22  2  0  0  0  0
 25 22  1  0  0  0  0
 26 25  2  0  0  0  0
 27 23  1  0  0  0  0
 28 24  1  0  0  0  0
M  END
>  <MODEL>
5

>  <REMARK>
 VINA RESULT:      -8.1      3.586      8.655
  Name = 
  2 active torsions:
  status: ('A' for Active; 'I' for Inactive)
    1  A    between atoms: C_1  and  C_2
    2  A    between atoms: C_2  and  C_3
                            x       y       z     vdW  Elec       q    Type
                         _______ _______ _______ _____ _____    ______ ____

>  <TORSDO>
F 2

$$$$
=
 OpenBabel11052413323D

 28 32  0  0  1  0  0  0  0  0999 V2000
  189.4310  177.6480  138.0880 C   0  0  1  0  0  3  0  0  0  0  0  0
  189.4350  178.2530  143.2050 C   0  0  0  0  0  3  0  0  0  0  0  0
  184.8020  178.1120  139.2630 C   0  0  0  0  0  1  0  0  0  0  0  0
  187.0630  178.4370  143.8580 C   0  0  2  0  0  3  0  0  0  0  0  0
  187.8490  178.6310  141.3410 C   0  0  1  0  0  3  0  0  0  0  0  0
  188.7460  177.3890  145.4180 C   0  0  0  0  0  0  0  0  0  0  0  0
  188.1570  178.3490  142.7980 C   0  0  0  0  0  0  0  0  0  0  0  0
  185.4630  178.9040  141.9610 C   0  0  0  0  0  2  0  0  0  0  0  0
  187.3010  177.4410  144.9980 C   0  0  0  0  0  2  0  0  0  0  0  0
  187.0770  178.0220  138.6480 C   0  0  2  0  0  3  0  0  0  0  0  0
  188.7670  177.8890  140.3890 C   0  0  0  0  0  2  0  0  0  0  0  0
  185.6540  178.2230  143.3070 C   0  0  0  0  0  2  0  0  0  0  0  0
  188.0260  178.9910  136.4690 C   0  0  0  0  0  2  0  0  0  0  0  0
  186.4190  178.2530  140.9650 C   0  0  1  0  0  3  0  0  0  0  0  0
  186.7850  178.4890  137.2010 C   0  0  0  0  0  2  0  0  0  0  0  0
  189.0640  176.7380  146.3990 O   0  0  0  0  0  0  0  0  0  0  0  0
  189.7950  178.1540  144.6630 C   0  0  0  0  0  2  0  0  0  0  0  0
  186.1210  178.6560  139.5820 N   0  0  0  0  0  0  0  0  0  0  0  0
  189.1570  177.9830  136.6150 C   0  0  0  0  0  2  0  0  0  0  0  0
  188.4830  178.3060  139.0180 N   0  0  1  0  0  0  0  0  0  0  0  0
  189.6340  176.1320  138.3010 C   0  0  0  0  0  2  0  0  0  0  0  0
  191.0020  175.6390  137.9480 C   0  0  0  0  0  0  0  0  0  0  0  0
  193.5530  174.7210  137.2510 C   0  0  0  0  0  0  0  0  0  0  0  0
  192.1370  176.3700  138.3200 C   0  0  0  0  0  3  0  0  0  0  0  0
  191.1480  174.4440  137.2340 C   0  0  0  0  0  3  0  0  0  0  0  0
  192.4210  173.9870  136.8850 C   0  0  0  0  0  3  0  0  0  0  0  0
  194.8490  174.2560  136.8950 N   0  0  0  0  0  1  0  0  0  0  0  0
  193.4110  175.9110  137.9720 C   0  0  0  0  0  3  0  0  0  0  0  0
  1 21  1  6  0  0  0
  1 20  1  0  0  0  0
  2 17  1  0  0  0  0
  3 18  1  0  0  0  0
  4 12  1  6  0  0  0
  4  9  1  0  0  0  0
  5 11  1  6  0  0  0
  5  7  1  0  0  0  0
  6 16  2  0  0  0  0
  7  2  2  0  0  0  0
  7  4  1  0  0  0  0
  8 12  1  0  0  0  0
  9  6  1  0  0  0  0
 10 15  1  6  0  0  0
 10 20  1  0  0  0  0
 10 18  1  0  0  0  0
 13 19  1  0  0  0  0
 13 15  1  0  0  0  0
 14  5  1  0  0  0  0
 14  8  1  1  0  0  0
 17  6  1  0  0  0  0
 18 14  1  0  0  0  0
 19  1  1  0  0  0  0
 20 11  1  1  0  0  0
 22 21  1  0  0  0  0
 22 24  1  0  0  0  0
 23 28  1  0  0  0  0
 25 22  2  0  0  0  0
 26 25  1  0  0  0  0
 26 23  2  0  0  0  0
 27 23  1  0  0  0  0
 28 24  2  0  0  0  0
M  END
>  <MODEL>
6

>  <REMARK>
 VINA RESULT:      -8.0      2.897      7.129
  Name = 
  2 active torsions:
  status: ('A' for Active; 'I' for Inactive)
    1  A    between atoms: C_1  and  C_2
    2  A    between atoms: C_2  and  C_3
                            x       y       z     vdW  Elec       q    Type
                         _______ _______ _______ _____ _____    ______ ____

>  <TORSDO>
F 2

$$$$
=
 OpenBabel11052413323D

 28 32  0  0  1  0  0  0  0  0999 V2000
  190.3470  177.5000  141.6390 C   0  0  1  0  0  3  0  0  0  0  0  0
  185.7040  179.4210  142.7810 C   0  0  0  0  0  3  0  0  0  0  0  0
  187.6650  176.5850  137.7680 C   0  0  0  0  0  1  0  0  0  0  0  0
  184.2760  178.9180  140.8330 C   0  0  2  0  0  3  0  0  0  0  0  0
  186.9080  178.6930  140.7430 C   0  0  1  0  0  3  0  0  0  0  0  0
  183.2960  178.9990  143.1560 C   0  0  0  0  0  0  0  0  0  0  0  0
  185.6340  178.9430  141.5260 C   0  0  0  0  0  0  0  0  0  0  0  0
  185.5170  178.2560  138.7370 C   0  0  0  0  0  2  0  0  0  0  0  0
  183.1720  178.4180  141.7730 C   0  0  0  0  0  2  0  0  0  0  0  0
  189.0360  177.1480  139.6010 C   0  0  2  0  0  3  0  0  0  0  0  0
  188.0160  178.0990  141.5910 C   0  0  0  0  0  2  0  0  0  0  0  0
  184.2500  178.0760  139.5570 C   0  0  0  0  0  2  0  0  0  0  0  0
  191.5200  177.7660  139.4150 C   0  0  0  0  0  2  0  0  0  0  0  0
  186.6910  177.7450  139.5670 C   0  0  1  0  0  3  0  0  0  0  0  0
  190.3310  177.0720  138.7570 C   0  0  0  0  0  2  0  0  0  0  0  0
  182.4150  178.7940  143.9760 O   0  0  0  0  0  0  0  0  0  0  0  0
  184.4730  179.8530  143.5300 C   0  0  0  0  0  2  0  0  0  0  0  0
  187.9170  177.6270  138.7610 N   0  0  0  0  0  0  0  0  0  0  0  0
  191.6540  177.3050  140.8590 C   0  0  0  0  0  2  0  0  0  0  0  0
  189.2370  178.0020  140.7950 N   0  0  1  0  0  0  0  0  0  0  0  0
  190.0170  176.2730  142.5180 C   0  0  0  0  0  2  0  0  0  0  0  0
  189.9010  176.5750  143.9780 C   0  0  0  0  0  0  0  0  0  0  0  0
  189.7060  177.1730  146.7060 C   0  0  0  0  0  0  0  0  0  0  0  0
  188.6530  176.8510  144.5490 C   0  0  0  0  0  3  0  0  0  0  0  0
  191.0500  176.5910  144.7780 C   0  0  0  0  0  3  0  0  0  0  0  0
  190.9530  176.8910  146.1400 C   0  0  0  0  0  3  0  0  0  0  0  0
  189.6080  177.4790  148.0920 N   0  0  0  0  0  1  0  0  0  0  0  0
  188.5560  177.1500  145.9110 C   0  0  0  0  0  3  0  0  0  0  0  0
  1 21  1  6  0  0  0
  2 17  1  0  0  0  0
  3 18  1  0  0  0  0
  4 12  1  6  0  0  0
  4  7  1  0  0  0  0
  4  9  1  0  0  0  0
  5  7  1  0  0  0  0
  5 11  1  1  0  0  0
  6 17  1  0  0  0  0
  6 16  2  0  0  0  0
  7  2  2  0  0  0  0
  8 12  1  0  0  0  0
  9  6  1  0  0  0  0
 10 15  1  6  0  0  0
 10 20  1  0  0  0  0
 13 19  1  0  0  0  0
 14  8  1  6  0  0  0
 14  5  1  0  0  0  0
 15 13  1  0  0  0  0
 18 14  1  0  0  0  0
 18 10  1  0  0  0  0
 19  1  1  0  0  0  0
 20 11  1  1  0  0  0
 20  1  1  0  0  0  0
 21 22  1  0  0  0  0
 22 24  2  0  0  0  0
 22 25  1  0  0  0  0
 23 27  1  0  0  0  0
 24 28  1  0  0  0  0
 25 26  2  0  0  0  0
 26 23  1  0  0  0  0
 28 23  2  0  0  0  0
M  END
>  <MODEL>
7

>  <REMARK>
 VINA RESULT:      -7.9      1.952      2.627
  Name = 
  2 active torsions:
  status: ('A' for Active; 'I' for Inactive)
    1  A    between atoms: C_1  and  C_2
    2  A    between atoms: C_2  and  C_3
                            x       y       z     vdW  Elec       q    Type
                         _______ _______ _______ _____ _____    ______ ____

>  <TORSDO>
F 2

$$$$
=
 OpenBabel11052413323D

 28 32  0  0  1  0  0  0  0  0999 V2000
  187.7840  178.3640  141.6940 C   0  0  1  0  0  3  0  0  0  0  0  0
  182.7800  179.2490  142.5500 C   0  0  0  0  0  3  0  0  0  0  0  0
  185.6170  177.1920  137.5760 C   0  0  0  0  0  1  0  0  0  0  0  0
  181.6220  178.6010  140.4710 C   0  0  2  0  0  3  0  0  0  0  0  0
  184.2450  178.9090  140.5830 C   0  0  1  0  0  3  0  0  0  0  0  0
  180.4870  178.3340  142.7080 C   0  0  0  0  0  0  0  0  0  0  0  0
  182.8960  178.8490  141.2710 C   0  0  0  0  0  0  0  0  0  0  0  0
  183.1140  178.3370  138.4510 C   0  0  0  0  0  2  0  0  0  0  0  0
  180.5800  177.8320  141.2920 C   0  0  0  0  0  2  0  0  0  0  0  0
  186.7160  177.8940  139.5410 C   0  0  2  0  0  3  0  0  0  0  0  0
  185.3890  178.4910  141.4870 C   0  0  0  0  0  2  0  0  0  0  0  0
  181.8560  177.8570  139.1560 C   0  0  0  0  0  2  0  0  0  0  0  0
  189.0300  179.0030  139.5870 C   0  0  0  0  0  2  0  0  0  0  0  0
  184.3070  178.0150  139.3470 C   0  0  1  0  0  3  0  0  0  0  0  0
  188.0550  178.1310  138.8010 C   0  0  0  0  0  2  0  0  0  0  0  0
  179.6120  177.9050  143.4420 O   0  0  0  0  0  0  0  0  0  0  0  0
  181.4380  179.3780  143.2190 C   0  0  0  0  0  2  0  0  0  0  0  0
  185.5830  178.1960  138.6380 N   0  0  0  0  0  0  0  0  0  0  0  0
  189.1540  178.4840  141.0130 C   0  0  0  0  0  2  0  0  0  0  0  0
  186.6570  178.6910  140.7880 N   0  0  1  0  0  0  0  0  0  0  0  0
  187.6490  177.0410  142.4790 C   0  0  0  0  0  2  0  0  0  0  0  0
  187.7770  177.1910  143.9620 C   0  0  0  0  0  0  0  0  0  0  0  0
  188.0380  177.5030  146.7320 C   0  0  0  0  0  0  0  0  0  0  0  0
  186.6490  177.4530  144.7500 C   0  0  0  0  0  3  0  0  0  0  0  0
  189.0340  177.0780  144.5660 C   0  0  0  0  0  3  0  0  0  0  0  0
  189.1660  177.2350  145.9490 C   0  0  0  0  0  3  0  0  0  0  0  0
  188.1720  177.6640  148.1390 N   0  0  0  0  0  1  0  0  0  0  0  0
  186.7800  177.6090  146.1320 C   0  0  0  0  0  3  0  0  0  0  0  0
  1 21  1  6  0  0  0
  2 17  1  0  0  0  0
  3 18  1  0  0  0  0
  4 12  1  6  0  0  0
  4  7  1  0  0  0  0
  4  9  1  0  0  0  0
  5  7  1  0  0  0  0
  5 11  1  1  0  0  0
  6 17  1  0  0  0  0
  6 16  2  0  0  0  0
  7  2  2  0  0  0  0
  8 12  1  0  0  0  0
  9  6  1  0  0  0  0
 10 15  1  6  0  0  0
 10 20  1  0  0  0  0
 13 19  1  0  0  0  0
 14  8  1  6  0  0  0
 14  5  1  0  0  0  0
 15 13  1  0  0  0  0
 18 14  1  0  0  0  0
 18 10  1  0  0  0  0
 19  1  1  0  0  0  0
 20 11  1  1  0  0  0
 20  1  1  0  0  0  0
 21 22  1  0  0  0  0
 22 25  2  0  0  0  0
 22 24  1  0  0  0  0
 23 27  1  0  0  0  0
 24 28  2  0  0  0  0
 25 26  1  0  0  0  0
 26 23  2  0  0  0  0
 28 23  1  0  0  0  0
M  END
>  <MODEL>
8

>  <REMARK>
 VINA RESULT:      -7.7      2.338      3.504
  Name = 
  2 active torsions:
  status: ('A' for Active; 'I' for Inactive)
    1  A    between atoms: C_1  and  C_2
    2  A    between atoms: C_2  and  C_3
                            x       y       z     vdW  Elec       q    Type
                         _______ _______ _______ _____ _____    ______ ____

>  <TORSDO>
F 2

$$$$
=
 OpenBabel11052413323D

 28 32  0  0  1  0  0  0  0  0999 V2000
  188.2830  177.1170  139.0320 C   0  0  1  0  0  3  0  0  0  0  0  0
  187.5060  176.7710  144.1140 C   0  0  0  0  0  3  0  0  0  0  0  0
  192.6160  177.8000  140.9760 C   0  0  0  0  0  1  0  0  0  0  0  0
  189.7060  177.1740  145.1550 C   0  0  2  0  0  3  0  0  0  0  0  0
  189.4410  176.6840  142.5710 C   0  0  1  0  0  3  0  0  0  0  0  0
  187.5840  177.8750  146.3260 C   0  0  0  0  0  0  0  0  0  0  0  0
  188.8250  176.9550  143.9290 C   0  0  0  0  0  0  0  0  0  0  0  0
  191.6800  177.0030  143.5900 C   0  0  0  0  0  2  0  0  0  0  0  0
  189.0560  178.1410  146.1520 C   0  0  0  0  0  2  0  0  0  0  0  0
  190.5240  177.3290  139.9950 C   0  0  2  0  0  3  0  0  0  0  0  0
  188.5650  177.1470  141.4230 C   0  0  0  0  0  2  0  0  0  0  0  0
  191.1080  177.6850  144.8230 C   0  0  0  0  0  2  0  0  0  0  0  0
  190.2140  176.0630  137.7840 C   0  0  0  0  0  2  0  0  0  0  0  0
  190.7960  177.3670  142.4000 C   0  0  1  0  0  3  0  0  0  0  0  0
  191.1630  176.8750  138.6610 C   0  0  0  0  0  2  0  0  0  0  0  0
  186.9610  178.4790  147.1830 O   0  0  0  0  0  0  0  0  0  0  0  0
  186.8810  176.8520  145.4810 C   0  0  0  0  0  2  0  0  0  0  0  0
  191.4160  176.9790  141.1230 N   0  0  0  0  0  0  0  0  0  0  0  0
  188.8810  176.7860  137.6580 C   0  0  0  0  0  2  0  0  0  0  0  0
  189.1730  176.7420  140.1570 N   0  0  1  0  0  0  0  0  0  0  0  0
  187.7150  178.5530  139.0780 C   0  0  0  0  0  2  0  0  0  0  0  0
  186.2520  178.6260  139.3820 C   0  0  0  0  0  0  0  0  0  0  0  0
  183.5110  178.7250  139.9430 C   0  0  0  0  0  0  0  0  0  0  0  0
  185.8100  178.9540  140.6700 C   0  0  0  0  0  3  0  0  0  0  0  0
  185.3190  178.3560  138.3750 C   0  0  0  0  0  3  0  0  0  0  0  0
  183.9500  178.4040  138.6550 C   0  0  0  0  0  3  0  0  0  0  0  0
  182.1190  178.7730  140.2280 N   0  0  0  0  0  1  0  0  0  0  0  0
  184.4420  179.0030  140.9490 C   0  0  0  0  0  3  0  0  0  0  0  0
  1 21  1  6  0  0  0
  1 20  1  0  0  0  0
  2 17  1  0  0  0  0
  3 18  1  0  0  0  0
  4 12  1  6  0  0  0
  4  9  1  0  0  0  0
  5 11  1  6  0  0  0
  5  7  1  0  0  0  0
  6 16  2  0  0  0  0
  7  2  2  0  0  0  0
  7  4  1  0  0  0  0
  8 12  1  0  0  0  0
  9  6  1  0  0  0  0
 10 15  1  6  0  0  0
 10 20  1  0  0  0  0
 10 18  1  0  0  0  0
 13 15  1  0  0  0  0
 14  5  1  0  0  0  0
 14  8  1  1  0  0  0
 17  6  1  0  0  0  0
 18 14  1  0  0  0  0
 19 13  1  0  0  0  0
 19  1  1  0  0  0  0
 20 11  1  1  0  0  0
 21 22  1  0  0  0  0
 22 24  1  0  0  0  0
 23 27  1  0  0  0  0
 23 28  1  0  0  0  0
 24 28  2  0  0  0  0
 25 26  1  0  0  0  0
 25 22  2  0  0  0  0
 26 23  2  0  0  0  0
M  END
>  <MODEL>
9

>  <REMARK>
 VINA RESULT:      -7.7      2.566      6.349
  Name = 
  2 active torsions:
  status: ('A' for Active; 'I' for Inactive)
    1  A    between atoms: C_1  and  C_2
    2  A    between atoms: C_2  and  C_3
                            x       y       z     vdW  Elec       q    Type
                         _______ _______ _______ _____ _____    ______ ____

>  <TORSDO>
F 2

$$$$
