=
 OpenBabel11052415303D

 37 41  0  0  1  0  0  0  0  0999 V2000
  181.6170  178.7430  136.2430 C   0  0  0  0  0  2  0  0  0  0  0  0
  185.3930  178.2750  138.6960 C   0  0  2  0  0  3  0  0  0  0  0  0
  180.3280  179.5420  136.1500 C   0  0  2  0  0  3  0  0  0  0  0  0
  182.1630  177.9800  141.0090 C   0  0  0  0  0  2  0  0  0  0  0  0
  183.9610  178.3890  139.2430 C   0  0  2  0  0  3  0  0  0  0  0  0
  185.3650  177.2100  137.6200 C   0  0  1  0  0  3  0  0  0  0  0  0
  183.6400  177.7670  140.6300 C   0  0  1  0  0  3  0  0  0  0  0  0
  179.9470  179.9160  137.5760 C   0  0  0  0  0  2  0  0  0  0  0  0
  183.9400  177.2230  137.0840 C   0  0  2  0  0  3  0  0  0  0  0  0
  186.6390  179.1890  140.7060 C   0  0  0  0  0  2  0  0  0  0  0  0
  180.8460  179.1030  138.5060 C   0  0  2  0  0  0  0  0  0  0  0  0
  181.7210  179.4100  140.8740 C   0  0  0  0  0  3  0  0  0  0  0  0
  186.5010  178.0290  139.7170 C   0  0  0  0  0  2  0  0  0  0  0  0
  183.0430  177.8140  138.1710 C   0  0  2  0  0  3  0  0  0  0  0  0
  184.6190  178.1480  141.7770 C   0  0  1  0  0  3  0  0  0  0  0  0
  181.1430  179.9000  139.7660 C   0  0  0  0  0  3  0  0  0  0  0  0
  182.1120  178.9290  137.6670 C   0  0  1  0  0  3  0  0  0  0  0  0
  185.3720  179.4470  141.5240 C   0  0  0  0  0  2  0  0  0  0  0  0
  180.2750  177.8280  138.7790 O   0  0  0  0  0  0  0  0  0  0  0  0
  178.9310  177.9740  139.1750 C   0  0  0  0  0  1  0  0  0  0  0  0
  179.7270  177.2840  135.2790 C   0  0  0  0  0  1  0  0  0  0  0  0
  179.2280  178.6930  135.5340 C   0  0  0  0  0  2  0  0  0  0  0  0
  183.4360  175.8370  136.6650 C   0  0  1  0  0  3  0  0  0  0  0  0
  183.6360  175.6190  135.1750 C   0  0  0  0  0  1  0  0  0  0  0  0
  184.0780  174.7110  137.4730 C   0  0  0  0  0  2  0  0  0  0  0  0
  184.3340  173.4910  136.6050 C   0  0  0  0  0  2  0  0  0  0  0  0
  183.7170  172.3680  137.1570 O   0  0  0  0  0  1  0  0  0  0  0  0
  184.0370  178.1130  143.1890 C   0  0  0  0  0  2  0  0  0  0  0  0
  186.1520  177.7250  144.4300 C   0  0  0  0  0  2  0  0  0  0  0  0
  184.3540  178.8880  145.5470 C   0  0  0  0  0  2  0  0  0  0  0  0
  185.6920  179.5300  147.4140 O   0  0  0  0  0  1  0  0  0  0  0  0
  186.5980  177.9840  145.8510 C   0  0  0  0  0  2  0  0  0  0  0  0
  185.3640  178.4500  146.5950 C   0  0  2  0  0  3  0  0  0  0  0  0
  185.0170  178.6940  144.1960 C   0  0  2  0  0  3  0  0  0  0  0  0
  186.3330  177.5570  136.4990 C   0  0  0  0  0  2  0  0  0  0  0  0
  187.0860  176.3220  136.0460 C   0  0  0  0  0  2  0  0  0  0  0  0
  187.6480  175.6030  137.2530 C   0  0  0  0  0  1  0  0  0  0  0  0
  1 17  1  0  0  0  0
  2  5  1  0  0  0  0
  2 13  1  1  0  0  0
  3 22  1  1  0  0  0
  3  1  1  0  0  0  0
  3  8  1  0  0  0  0
  5  7  1  0  0  0  0
  6  2  1  0  0  0  0
  7  4  1  0  0  0  0
  7 15  1  0  0  0  0
  8 11  1  0  0  0  0
  9  6  1  0  0  0  0
  9 14  1  0  0  0  0
 10 18  1  0  0  0  0
 11 19  1  0  0  0  0
 11 16  1  0  0  0  0
 12  4  1  0  0  0  0
 13 10  1  0  0  0  0
 14  5  1  0  0  0  0
 15 28  1  0  0  0  0
 16 12  2  0  0  0  0
 17 14  1  0  0  0  0
 17 11  1  0  0  0  0
 18 15  1  0  0  0  0
 19 20  1  0  0  0  0
 21 22  1  0  0  0  0
 23  9  1  0  0  0  0
 23 25  1  0  0  0  0
 24 23  1  0  0  0  0
 26 27  1  0  0  0  0
 26 25  1  0  0  0  0
 28 34  1  0  0  0  0
 29 32  1  0  0  0  0
 30 33  1  0  0  0  0
 32 33  1  0  0  0  0
 33 31  1  0  0  0  0
 34 29  1  0  0  0  0
 34 30  1  0  0  0  0
 35  6  1  0  0  0  0
 36 35  1  0  0  0  0
 36 37  1  0  0  0  0
M  END
>  <MODEL>
1

>  <REMARK>
 VINA RESULT:      -5.6      0.000      0.000
  Name = 
  9 active torsions:
  status: ('A' for Active; 'I' for Inactive)
    1  A    between atoms: C_3  and  C_32
    2  A    between atoms: C_5  and  C_23
    3  A    between atoms: C_6  and  C_31
    4  A    between atoms: C_6  and  C_35
    5  A    between atoms: C_9  and  C_13
    6  A    between atoms: C_9  and  C_16
    7  A    between atoms: O_11  and  C_26
    8  A    between atoms: C_20  and  C_21
    9  A    between atoms: C_21  and  C_32
                            x       y       z     vdW  Elec       q    Type
                         _______ _______ _______ _____ _____    ______ ____

>  <TORSDO>
F 9

$$$$
=
 OpenBabel11052415303D

 37 41  0  0  1  0  0  0  0  0999 V2000
  181.2090  174.7710  135.5590 C   0  0  0  0  0  2  0  0  0  0  0  0
  184.2820  177.5030  137.4490 C   0  0  2  0  0  3  0  0  0  0  0  0
  179.7130  174.5780  135.3780 C   0  0  2  0  0  3  0  0  0  0  0  0
  181.6310  176.2770  140.1580 C   0  0  0  0  0  2  0  0  0  0  0  0
  183.0100  176.9620  138.1220 C   0  0  2  0  0  3  0  0  0  0  0  0
  184.9880  176.3140  136.8330 C   0  0  1  0  0  3  0  0  0  0  0  0
  182.9810  176.8330  139.6700 C   0  0  1  0  0  3  0  0  0  0  0  0
  179.0480  175.1550  136.6200 C   0  0  0  0  0  2  0  0  0  0  0  0
  183.8860  175.3070  136.5370 C   0  0  2  0  0  3  0  0  0  0  0  0
  184.5550  179.6270  138.8090 C   0  0  0  0  0  2  0  0  0  0  0  0
  180.1570  175.4200  137.6370 C   0  0  2  0  0  0  0  0  0  0  0  0
  180.4520  177.0180  139.5940 C   0  0  0  0  0  3  0  0  0  0  0  0
  185.2190  178.3360  138.3210 C   0  0  0  0  0  2  0  0  0  0  0  0
  182.7130  175.6210  137.4640 C   0  0  2  0  0  3  0  0  0  0  0  0
  183.4350  178.0950  140.4560 C   0  0  1  0  0  3  0  0  0  0  0  0
  179.8070  176.6350  138.4790 C   0  0  0  0  0  3  0  0  0  0  0  0
  181.3600  175.7140  136.7400 C   0  0  1  0  0  3  0  0  0  0  0  0
  183.3050  179.3850  139.6570 C   0  0  0  0  0  2  0  0  0  0  0  0
  180.4170  174.2600  138.4200 O   0  0  0  0  0  0  0  0  0  0  0  0
  179.2100  173.7250  138.9090 C   0  0  0  0  0  1  0  0  0  0  0  0
  180.6330  172.2620  135.4650 C   0  0  0  0  0  1  0  0  0  0  0  0
  179.3840  173.0990  135.2640 C   0  0  0  0  0  2  0  0  0  0  0  0
  184.3330  173.8500  136.7090 C   0  0  1  0  0  3  0  0  0  0  0  0
  184.5570  173.1920  135.3580 C   0  0  0  0  0  1  0  0  0  0  0  0
  185.5700  173.7170  137.5940 C   0  0  0  0  0  2  0  0  0  0  0  0
  186.4960  172.6260  137.0800 C   0  0  0  0  0  2  0  0  0  0  0  0
  187.8120  173.0880  137.0440 O   0  0  0  0  0  1  0  0  0  0  0  0
  182.8500  178.2530  141.8580 C   0  0  0  0  0  2  0  0  0  0  0  0
  185.1990  178.2270  142.6620 C   0  0  0  0  0  2  0  0  0  0  0  0
  183.4410  178.7130  144.2460 C   0  0  0  0  0  2  0  0  0  0  0  0
  184.9420  179.3770  145.9750 O   0  0  0  0  0  1  0  0  0  0  0  0
  185.8450  178.3690  144.0200 C   0  0  0  0  0  2  0  0  0  0  0  0
  184.7080  178.3890  145.0210 C   0  0  2  0  0  3  0  0  0  0  0  0
  183.8540  178.9010  142.7980 C   0  0  2  0  0  3  0  0  0  0  0  0
  185.6740  176.7130  135.5340 C   0  0  0  0  0  2  0  0  0  0  0  0
  187.0780  176.1460  135.4780 C   0  0  0  0  0  2  0  0  0  0  0  0
  187.8490  176.5840  136.7050 C   0  0  0  0  0  1  0  0  0  0  0  0
  1 17  1  0  0  0  0
  2  5  1  0  0  0  0
  2 13  1  1  0  0  0
  3 22  1  1  0  0  0
  3  1  1  0  0  0  0
  3  8  1  0  0  0  0
  5  7  1  0  0  0  0
  6  2  1  0  0  0  0
  7  4  1  0  0  0  0
  7 15  1  0  0  0  0
  8 11  1  0  0  0  0
  9 23  1  0  0  0  0
  9  6  1  0  0  0  0
  9 14  1  0  0  0  0
 10 18  1  0  0  0  0
 11 19  1  0  0  0  0
 11 16  1  0  0  0  0
 12  4  1  0  0  0  0
 13 10  1  0  0  0  0
 14  5  1  0  0  0  0
 15 28  1  0  0  0  0
 16 12  2  0  0  0  0
 17 14  1  0  0  0  0
 17 11  1  0  0  0  0
 18 15  1  0  0  0  0
 19 20  1  0  0  0  0
 22 21  1  0  0  0  0
 23 25  1  0  0  0  0
 24 23  1  0  0  0  0
 26 25  1  0  0  0  0
 27 26  1  0  0  0  0
 28 34  1  0  0  0  0
 29 34  1  0  0  0  0
 29 32  1  0  0  0  0
 30 33  1  0  0  0  0
 32 33  1  0  0  0  0
 33 31  1  0  0  0  0
 34 30  1  0  0  0  0
 35  6  1  0  0  0  0
 36 35  1  0  0  0  0
 36 37  1  0  0  0  0
M  END
>  <MODEL>
2

>  <REMARK>
 VINA RESULT:      -5.4      2.082      2.925
  Name = 
  9 active torsions:
  status: ('A' for Active; 'I' for Inactive)
    1  A    between atoms: C_3  and  C_32
    2  A    between atoms: C_5  and  C_23
    3  A    between atoms: C_6  and  C_31
    4  A    between atoms: C_6  and  C_35
    5  A    between atoms: C_9  and  C_13
    6  A    between atoms: C_9  and  C_16
    7  A    between atoms: O_11  and  C_26
    8  A    between atoms: C_20  and  C_21
    9  A    between atoms: C_21  and  C_32
                            x       y       z     vdW  Elec       q    Type
                         _______ _______ _______ _____ _____    ______ ____

>  <TORSDO>
F 9

$$$$
=
 OpenBabel11052415303D

 37 41  0  0  1  0  0  0  0  0999 V2000
  189.5400  178.7660  144.1740 C   0  0  0  0  0  2  0  0  0  0  0  0
  187.6050  178.5840  140.0860 C   0  0  2  0  0  3  0  0  0  0  0  0
  190.8790  178.9400  144.8700 C   0  0  2  0  0  3  0  0  0  0  0  0
  190.5780  175.9470  140.3570 C   0  0  0  0  0  2  0  0  0  0  0  0
  188.8820  177.8480  140.5220 C   0  0  2  0  0  3  0  0  0  0  0  0
  186.5580  178.3030  141.1430 C   0  0  1  0  0  3  0  0  0  0  0  0
  189.2760  176.5370  139.7860 C   0  0  1  0  0  3  0  0  0  0  0  0
  191.9300  178.3540  143.9380 C   0  0  0  0  0  2  0  0  0  0  0  0
  187.3430  178.0460  142.4220 C   0  0  2  0  0  3  0  0  0  0  0  0
  188.0830  178.7330  137.6000 C   0  0  0  0  0  2  0  0  0  0  0  0
  191.1830  177.5930  142.8440 C   0  0  2  0  0  0  0  0  0  0  0  0
  191.6940  176.9500  140.4370 C   0  0  0  0  0  3  0  0  0  0  0  0
  187.0890  178.2930  138.6790 C   0  0  0  0  0  2  0  0  0  0  0  0
  188.7490  177.6050  142.0200 C   0  0  2  0  0  3  0  0  0  0  0  0
  189.2780  176.6150  138.2330 C   0  0  1  0  0  3  0  0  0  0  0  0
  191.9530  177.6750  141.5370 C   0  0  0  0  0  3  0  0  0  0  0  0
  189.8690  178.3690  142.7450 C   0  0  1  0  0  3  0  0  0  0  0  0
  189.4400  178.0320  137.6990 C   0  0  0  0  0  2  0  0  0  0  0  0
  190.9180  176.2540  143.2470 O   0  0  0  0  0  0  0  0  0  0  0  0
  192.0240  175.7300  143.9450 C   0  0  0  0  0  1  0  0  0  0  0  0
  189.6000  177.4000  146.3570 C   0  0  0  0  0  1  0  0  0  0  0  0
  190.8880  178.1840  146.1880 C   0  0  0  0  0  2  0  0  0  0  0  0
  186.6920  177.0010  143.3360 C   0  0  1  0  0  3  0  0  0  0  0  0
  187.6160  175.8130  143.5410 C   0  0  0  0  0  1  0  0  0  0  0  0
  186.2500  177.5880  144.6750 C   0  0  0  0  0  2  0  0  0  0  0  0
  184.9740  178.3990  144.5220 C   0  0  0  0  0  2  0  0  0  0  0  0
  184.5820  178.9180  145.7570 O   0  0  0  0  0  1  0  0  0  0  0  0
  190.2170  175.6450  137.5180 C   0  0  0  0  0  2  0  0  0  0  0  0
  191.2780  175.9100  135.2890 C   0  0  0  0  0  2  0  0  0  0  0  0
  192.6610  176.1170  137.2590 C   0  0  0  0  0  2  0  0  0  0  0  0
  194.5540  176.9300  136.0600 O   0  0  0  0  0  1  0  0  0  0  0  0
  192.7020  176.1010  134.8210 C   0  0  0  0  0  2  0  0  0  0  0  0
  193.5690  175.9440  136.0530 C   0  0  2  0  0  3  0  0  0  0  0  0
  191.2700  176.3960  136.7190 C   0  0  2  0  0  3  0  0  0  0  0  0
  185.6540  179.5110  141.3350 C   0  0  0  0  0  2  0  0  0  0  0  0
  184.2930  179.2610  140.7170 C   0  0  0  0  0  2  0  0  0  0  0  0
  183.8090  177.8810  141.1060 C   0  0  0  0  0  1  0  0  0  0  0  0
  1  3  1  0  0  0  0
  2 13  1  6  0  0  0
  2  5  1  0  0  0  0
  2  6  1  0  0  0  0
  3 22  1  1  0  0  0
  4 12  1  0  0  0  0
  5 14  1  0  0  0  0
  6 35  1  0  0  0  0
  6  9  1  0  0  0  0
  7  4  1  0  0  0  0
  7  5  1  0  0  0  0
  8  3  1  0  0  0  0
  9 23  1  0  0  0  0
 10 18  1  0  0  0  0
 10 13  1  0  0  0  0
 11 19  1  0  0  0  0
 11  8  1  0  0  0  0
 12 16  2  0  0  0  0
 14  9  1  0  0  0  0
 14 17  1  0  0  0  0
 15  7  1  0  0  0  0
 16 11  1  0  0  0  0
 17 11  1  0  0  0  0
 17  1  1  0  0  0  0
 18 15  1  0  0  0  0
 19 20  1  0  0  0  0
 22 21  1  0  0  0  0
 23 24  1  0  0  0  0
 23 25  1  0  0  0  0
 26 25  1  0  0  0  0
 26 27  1  0  0  0  0
 28 15  1  0  0  0  0
 29 34  1  0  0  0  0
 32 29  1  0  0  0  0
 32 33  1  0  0  0  0
 33 31  1  0  0  0  0
 33 30  1  0  0  0  0
 34 30  1  0  0  0  0
 34 28  1  0  0  0  0
 36 37  1  0  0  0  0
 36 35  1  0  0  0  0
M  END
>  <MODEL>
3

>  <REMARK>
 VINA RESULT:      -5.2      4.182      9.847
  Name = 
  9 active torsions:
  status: ('A' for Active; 'I' for Inactive)
    1  A    between atoms: C_3  and  C_32
    2  A    between atoms: C_5  and  C_23
    3  A    between atoms: C_6  and  C_31
    4  A    between atoms: C_6  and  C_35
    5  A    between atoms: C_9  and  C_13
    6  A    between atoms: C_9  and  C_16
    7  A    between atoms: O_11  and  C_26
    8  A    between atoms: C_20  and  C_21
    9  A    between atoms: C_21  and  C_32
                            x       y       z     vdW  Elec       q    Type
                         _______ _______ _______ _____ _____    ______ ____

>  <TORSDO>
F 9

$$$$
=
 OpenBabel11052415303D

 37 41  0  0  1  0  0  0  0  0999 V2000
  189.5680  178.5890  144.3900 C   0  0  0  0  0  2  0  0  0  0  0  0
  187.3780  178.6760  140.4300 C   0  0  2  0  0  3  0  0  0  0  0  0
  190.9460  178.7410  145.0130 C   0  0  2  0  0  3  0  0  0  0  0  0
  190.4110  176.0960  140.3080 C   0  0  0  0  0  2  0  0  0  0  0  0
  188.6940  177.9380  140.7260 C   0  0  2  0  0  3  0  0  0  0  0  0
  186.4070  178.2900  141.5260 C   0  0  1  0  0  3  0  0  0  0  0  0
  189.0640  176.6970  139.8680 C   0  0  1  0  0  3  0  0  0  0  0  0
  191.9460  178.2530  143.9740 C   0  0  0  0  0  2  0  0  0  0  0  0
  187.2780  177.9550  142.7290 C   0  0  2  0  0  3  0  0  0  0  0  0
  187.6930  179.0260  137.9380 C   0  0  0  0  0  2  0  0  0  0  0  0
  191.1440  177.5600  142.8730 C   0  0  2  0  0  0  0  0  0  0  0  0
  191.5110  177.1160  140.3960 C   0  0  0  0  0  3  0  0  0  0  0  0
  186.7790  178.4810  139.0390 C   0  0  0  0  0  2  0  0  0  0  0  0
  188.6630  177.5780  142.2060 C   0  0  2  0  0  3  0  0  0  0  0  0
  188.9650  176.8940  138.3280 C   0  0  1  0  0  3  0  0  0  0  0  0
  191.8270  177.7600  141.5310 C   0  0  0  0  0  3  0  0  0  0  0  0
  189.8120  178.3110  142.9180 C   0  0  1  0  0  3  0  0  0  0  0  0
  189.0660  178.3510  137.8970 C   0  0  0  0  0  2  0  0  0  0  0  0
  190.9300  176.1880  143.1870 O   0  0  0  0  0  0  0  0  0  0  0  0
  192.0290  175.6780  143.9050 C   0  0  0  0  0  1  0  0  0  0  0  0
  189.7350  177.1890  146.5440 C   0  0  0  0  0  1  0  0  0  0  0  0
  191.0530  177.8870  146.2650 C   0  0  0  0  0  2  0  0  0  0  0  0
  186.7050  176.8280  143.5970 C   0  0  1  0  0  3  0  0  0  0  0  0
  187.6230  175.6170  143.5820 C   0  0  0  0  0  1  0  0  0  0  0  0
  186.4180  177.2790  145.0280 C   0  0  0  0  0  2  0  0  0  0  0  0
  185.9200  178.7140  145.0590 C   0  0  0  0  0  2  0  0  0  0  0  0
  184.7890  178.8140  145.8710 O   0  0  0  0  0  1  0  0  0  0  0  0
  189.8740  176.0040  137.4830 C   0  0  0  0  0  2  0  0  0  0  0  0
  187.6010  175.1090  137.0390 C   0  0  0  0  0  2  0  0  0  0  0  0
  189.4790  173.5940  136.9340 C   0  0  0  0  0  2  0  0  0  0  0  0
  188.2120  171.8070  135.9940 O   0  0  0  0  0  1  0  0  0  0  0  0
  187.0490  173.7260  136.7800 C   0  0  0  0  0  2  0  0  0  0  0  0
  188.2040  172.7710  137.0010 C   0  0  2  0  0  3  0  0  0  0  0  0
  189.0580  175.0250  136.6530 C   0  0  2  0  0  3  0  0  0  0  0  0
  185.4950  179.4580  141.8670 C   0  0  0  0  0  2  0  0  0  0  0  0
  184.0760  178.9770  142.0950 C   0  0  0  0  0  2  0  0  0  0  0  0
  183.7170  177.9490  141.0440 C   0  0  0  0  0  1  0  0  0  0  0  0
  1  3  1  0  0  0  0
  2 13  1  6  0  0  0
  2  5  1  0  0  0  0
  2  6  1  0  0  0  0
  3 22  1  1  0  0  0
  4 12  1  0  0  0  0
  5 14  1  0  0  0  0
  6 35  1  0  0  0  0
  6  9  1  0  0  0  0
  7  4  1  0  0  0  0
  7  5  1  0  0  0  0
  8  3  1  0  0  0  0
  9 23  1  0  0  0  0
 10 13  1  0  0  0  0
 11 17  1  0  0  0  0
 11 19  1  0  0  0  0
 11  8  1  0  0  0  0
 12 16  2  0  0  0  0
 14  9  1  0  0  0  0
 14 17  1  0  0  0  0
 15  7  1  0  0  0  0
 16 11  1  0  0  0  0
 17  1  1  0  0  0  0
 18 10  1  0  0  0  0
 18 15  1  0  0  0  0
 19 20  1  0  0  0  0
 22 21  1  0  0  0  0
 23 25  1  0  0  0  0
 24 23  1  0  0  0  0
 25 26  1  0  0  0  0
 26 27  1  0  0  0  0
 28 15  1  0  0  0  0
 30 33  1  0  0  0  0
 31 33  1  0  0  0  0
 32 33  1  0  0  0  0
 32 29  1  0  0  0  0
 34 30  1  0  0  0  0
 34 29  1  0  0  0  0
 34 28  1  0  0  0  0
 35 36  1  0  0  0  0
 37 36  1  0  0  0  0
M  END
>  <MODEL>
4

>  <REMARK>
 VINA RESULT:      -5.1      3.607      9.606
  Name = 
  9 active torsions:
  status: ('A' for Active; 'I' for Inactive)
    1  A    between atoms: C_3  and  C_32
    2  A    between atoms: C_5  and  C_23
    3  A    between atoms: C_6  and  C_31
    4  A    between atoms: C_6  and  C_35
    5  A    between atoms: C_9  and  C_13
    6  A    between atoms: C_9  and  C_16
    7  A    between atoms: O_11  and  C_26
    8  A    between atoms: C_20  and  C_21
    9  A    between atoms: C_21  and  C_32
                            x       y       z     vdW  Elec       q    Type
                         _______ _______ _______ _____ _____    ______ ____

>  <TORSDO>
F 9

$$$$
=
 OpenBabel11052415303D

 37 41  0  0  1  0  0  0  0  0999 V2000
  181.0430  175.9770  139.9520 C   0  0  0  0  0  2  0  0  0  0  0  0
  184.7790  178.1960  141.2210 C   0  0  2  0  0  3  0  0  0  0  0  0
  180.5640  174.7730  139.1600 C   0  0  2  0  0  3  0  0  0  0  0  0
  184.6730  177.7620  137.2630 C   0  0  0  0  0  2  0  0  0  0  0  0
  184.4580  177.6900  139.8060 C   0  0  2  0  0  3  0  0  0  0  0  0
  183.5610  178.9620  141.6960 C   0  0  1  0  0  3  0  0  0  0  0  0
  185.1100  178.4070  138.5910 C   0  0  1  0  0  3  0  0  0  0  0  0
  181.5740  174.5620  138.0400 C   0  0  0  0  0  2  0  0  0  0  0  0
  182.3880  178.3470  140.9460 C   0  0  2  0  0  3  0  0  0  0  0  0
  187.3100  178.1740  141.0670 C   0  0  0  0  0  2  0  0  0  0  0  0
  182.4710  175.7990  138.0090 C   0  0  2  0  0  0  0  0  0  0  0  0
  184.8510  176.2700  137.2470 C   0  0  0  0  0  3  0  0  0  0  0  0
  186.0630  179.0040  141.3880 C   0  0  0  0  0  2  0  0  0  0  0  0
  182.9400  177.6930  139.6810 C   0  0  2  0  0  3  0  0  0  0  0  0
  186.6480  178.6180  138.6840 C   0  0  1  0  0  3  0  0  0  0  0  0
  183.8750  175.4090  137.5800 C   0  0  0  0  0  3  0  0  0  0  0  0
  182.4580  176.2480  139.4710 C   0  0  1  0  0  3  0  0  0  0  0  0
  187.3360  177.6440  139.6320 C   0  0  0  0  0  2  0  0  0  0  0  0
  181.9050  176.8170  137.1910 O   0  0  0  0  0  0  0  0  0  0  0  0
  181.5200  176.2820  135.9470 C   0  0  0  0  0  1  0  0  0  0  0  0
  178.9330  176.5400  138.5010 C   0  0  0  0  0  1  0  0  0  0  0  0
  179.1930  175.0480  138.5650 C   0  0  0  0  0  2  0  0  0  0  0  0
  181.2930  179.3620  140.5940 C   0  0  1  0  0  3  0  0  0  0  0  0
  181.2730  179.6360  139.1000 C   0  0  0  0  0  1  0  0  0  0  0  0
  179.9140  178.9310  141.0900 C   0  0  0  0  0  2  0  0  0  0  0  0
  179.6970  179.3490  142.5350 C   0  0  0  0  0  2  0  0  0  0  0  0
  180.4300  180.5020  142.8180 O   0  0  0  0  0  1  0  0  0  0  0  0
  187.3890  178.7080  137.3520 C   0  0  0  0  0  2  0  0  0  0  0  0
  189.6780  177.7600  137.1880 C   0  0  0  0  0  2  0  0  0  0  0  0
  187.9760  176.9370  135.6850 C   0  0  0  0  0  2  0  0  0  0  0  0
  189.3110  175.1330  134.8790 O   0  0  0  0  0  1  0  0  0  0  0  0
  190.3430  176.7770  136.2520 C   0  0  0  0  0  2  0  0  0  0  0  0
  189.3330  176.4980  135.1580 C   0  0  2  0  0  3  0  0  0  0  0  0
  188.2030  177.4500  137.0950 C   0  0  2  0  0  3  0  0  0  0  0  0
  183.3630  178.7760  143.1930 C   0  0  0  0  0  2  0  0  0  0  0  0
  184.2270  179.7490  143.9690 C   0  0  0  0  0  2  0  0  0  0  0  0
  184.9450  179.0110  145.0790 C   0  0  0  0  0  1  0  0  0  0  0  0
  2 13  1  6  0  0  0
  2  6  1  0  0  0  0
  3 22  1  6  0  0  0
  3  1  1  0  0  0  0
  4  7  1  0  0  0  0
  5  2  1  0  0  0  0
  6 35  1  0  0  0  0
  7 15  1  0  0  0  0
  7  5  1  0  0  0  0
  8  3  1  0  0  0  0
  9  6  1  0  0  0  0
 10 13  1  0  0  0  0
 11  8  1  0  0  0  0
 11 17  1  0  0  0  0
 12  4  1  0  0  0  0
 12 16  2  0  0  0  0
 14  5  1  0  0  0  0
 14  9  1  0  0  0  0
 15 18  1  0  0  0  0
 16 11  1  0  0  0  0
 17 14  1  0  0  0  0
 17  1  1  0  0  0  0
 18 10  1  0  0  0  0
 19 11  1  0  0  0  0
 20 19  1  0  0  0  0
 21 22  1  0  0  0  0
 23  9  1  0  0  0  0
 23 25  1  0  0  0  0
 24 23  1  0  0  0  0
 25 26  1  0  0  0  0
 26 27  1  0  0  0  0
 28 15  1  0  0  0  0
 30 34  1  0  0  0  0
 31 33  1  0  0  0  0
 32 29  1  0  0  0  0
 33 30  1  0  0  0  0
 33 32  1  0  0  0  0
 34 29  1  0  0  0  0
 34 28  1  0  0  0  0
 35 36  1  0  0  0  0
 36 37  1  0  0  0  0
M  END
>  <MODEL>
5

>  <REMARK>
 VINA RESULT:      -4.7      2.217      6.605
  Name = 
  9 active torsions:
  status: ('A' for Active; 'I' for Inactive)
    1  A    between atoms: C_3  and  C_32
    2  A    between atoms: C_5  and  C_23
    3  A    between atoms: C_6  and  C_31
    4  A    between atoms: C_6  and  C_35
    5  A    between atoms: C_9  and  C_13
    6  A    between atoms: C_9  and  C_16
    7  A    between atoms: O_11  and  C_26
    8  A    between atoms: C_20  and  C_21
    9  A    between atoms: C_21  and  C_32
                            x       y       z     vdW  Elec       q    Type
                         _______ _______ _______ _____ _____    ______ ____

>  <TORSDO>
F 9

$$$$
=
 OpenBabel11052415303D

 37 41  0  0  1  0  0  0  0  0999 V2000
  181.0220  174.4530  137.2870 C   0  0  0  0  0  2  0  0  0  0  0  0
  183.0140  178.1750  138.9190 C   0  0  2  0  0  3  0  0  0  0  0  0
  181.2160  172.9560  137.1130 C   0  0  2  0  0  3  0  0  0  0  0  0
  185.4130  176.3050  136.3470 C   0  0  0  0  0  2  0  0  0  0  0  0
  183.6740  177.1030  138.0360 C   0  0  2  0  0  3  0  0  0  0  0  0
  181.7190  178.5640  138.2380 C   0  0  1  0  0  3  0  0  0  0  0  0
  184.8900  177.5050  137.1570 C   0  0  1  0  0  3  0  0  0  0  0  0
  182.7140  172.7290  136.9570 C   0  0  0  0  0  2  0  0  0  0  0  0
  181.3050  177.3350  137.4400 C   0  0  2  0  0  3  0  0  0  0  0  0
  185.0910  179.0180  140.1060 C   0  0  0  0  0  2  0  0  0  0  0  0
  183.3550  174.1010  136.7550 C   0  0  2  0  0  0  0  0  0  0  0  0
  185.6580  175.0870  137.1920 C   0  0  0  0  0  3  0  0  0  0  0  0
  183.8640  179.3940  139.2710 C   0  0  0  0  0  2  0  0  0  0  0  0
  182.5630  176.5090  137.1790 C   0  0  2  0  0  3  0  0  0  0  0  0
  186.0220  178.2780  137.8920 C   0  0  1  0  0  3  0  0  0  0  0  0
  184.7440  174.1190  137.3700 C   0  0  0  0  0  3  0  0  0  0  0  0
  182.4100  175.0200  137.5310 C   0  0  1  0  0  3  0  0  0  0  0  0
  186.0350  178.0440  139.3960 C   0  0  0  0  0  2  0  0  0  0  0  0
  183.3530  174.4660  135.3790 O   0  0  0  0  0  0  0  0  0  0  0  0
  183.8450  173.4040  134.5960 C   0  0  0  0  0  1  0  0  0  0  0  0
  179.8640  173.6440  135.1340 C   0  0  0  0  0  1  0  0  0  0  0  0
  180.4940  172.4750  135.8660 C   0  0  0  0  0  2  0  0  0  0  0  0
  180.6020  177.6770  136.1210 C   0  0  1  0  0  3  0  0  0  0  0  0
  179.0930  177.6780  136.2990 C   0  0  0  0  0  1  0  0  0  0  0  0
  181.0830  178.9990  135.5260 C   0  0  0  0  0  2  0  0  0  0  0  0
  179.9090  179.8780  135.1270 C   0  0  0  0  0  2  0  0  0  0  0  0
  179.9710  181.0990  135.8010 O   0  0  0  0  0  1  0  0  0  0  0  0
  187.4210  178.1330  137.2980 C   0  0  0  0  0  2  0  0  0  0  0  0
  189.2870  178.2850  138.9300 C   0  0  0  0  0  2  0  0  0  0  0  0
  189.1970  176.3760  137.4520 C   0  0  0  0  0  2  0  0  0  0  0  0
  190.9200  175.1880  138.5930 O   0  0  0  0  0  1  0  0  0  0  0  0
  190.5230  177.4550  139.1910 C   0  0  0  0  0  2  0  0  0  0  0  0
  190.5830  176.4360  138.0720 C   0  0  2  0  0  3  0  0  0  0  0  0
  188.3300  177.3480  138.2310 C   0  0  2  0  0  3  0  0  0  0  0  0
  180.6480  178.8850  139.2700 C   0  0  0  0  0  2  0  0  0  0  0  0
  180.7050  177.8990  140.4200 C   0  0  0  0  0  2  0  0  0  0  0  0
  180.3480  178.6070  141.7090 C   0  0  0  0  0  1  0  0  0  0  0  0
  1 17  1  0  0  0  0
  2 13  1  6  0  0  0
  3 22  1  6  0  0  0
  3  1  1  0  0  0  0
  4  7  1  0  0  0  0
  4 12  1  0  0  0  0
  5  2  1  0  0  0  0
  6  2  1  0  0  0  0
  6 35  1  0  0  0  0
  7 15  1  0  0  0  0
  7  5  1  0  0  0  0
  8  3  1  0  0  0  0
  9  6  1  0  0  0  0
 11  8  1  0  0  0  0
 11 16  1  0  0  0  0
 11 17  1  0  0  0  0
 12 16  2  0  0  0  0
 13 10  1  0  0  0  0
 14  9  1  0  0  0  0
 14 17  1  0  0  0  0
 14  5  1  0  0  0  0
 15 18  1  0  0  0  0
 18 10  1  0  0  0  0
 19 11  1  0  0  0  0
 20 19  1  0  0  0  0
 21 22  1  0  0  0  0
 23 24  1  0  0  0  0
 23  9  1  0  0  0  0
 25 23  1  0  0  0  0
 26 25  1  0  0  0  0
 26 27  1  0  0  0  0
 28 15  1  0  0  0  0
 28 34  1  0  0  0  0
 29 32  1  0  0  0  0
 30 33  1  0  0  0  0
 30 34  1  0  0  0  0
 33 31  1  0  0  0  0
 33 32  1  0  0  0  0
 34 29  1  0  0  0  0
 35 36  1  0  0  0  0
 36 37  1  0  0  0  0
M  END
>  <MODEL>
6

>  <REMARK>
 VINA RESULT:      -4.7      3.143      6.310
  Name = 
  9 active torsions:
  status: ('A' for Active; 'I' for Inactive)
    1  A    between atoms: C_3  and  C_32
    2  A    between atoms: C_5  and  C_23
    3  A    between atoms: C_6  and  C_31
    4  A    between atoms: C_6  and  C_35
    5  A    between atoms: C_9  and  C_13
    6  A    between atoms: C_9  and  C_16
    7  A    between atoms: O_11  and  C_26
    8  A    between atoms: C_20  and  C_21
    9  A    between atoms: C_21  and  C_32
                            x       y       z     vdW  Elec       q    Type
                         _______ _______ _______ _____ _____    ______ ____

>  <TORSDO>
F 9

$$$$
=
 OpenBabel11052415303D

 37 41  0  0  1  0  0  0  0  0999 V2000
  190.1500  175.5160  138.1720 C   0  0  0  0  0  2  0  0  0  0  0  0
  186.2410  173.6220  136.8990 C   0  0  2  0  0  3  0  0  0  0  0  0
  190.7400  176.5530  139.1130 C   0  0  2  0  0  3  0  0  0  0  0  0
  186.0520  177.5890  136.5920 C   0  0  0  0  0  2  0  0  0  0  0  0
  186.5080  175.1250  137.0800 C   0  0  2  0  0  3  0  0  0  0  0  0
  187.3600  173.0830  136.0320 C   0  0  1  0  0  3  0  0  0  0  0  0
  185.6420  176.1380  136.2810 C   0  0  1  0  0  3  0  0  0  0  0  0
  189.6790  177.6290  139.2910 C   0  0  0  0  0  2  0  0  0  0  0  0
  188.5430  174.0060  136.2890 C   0  0  2  0  0  3  0  0  0  0  0  0
  183.7430  173.6250  137.3320 C   0  0  0  0  0  2  0  0  0  0  0  0
  188.5970  177.3680  138.2440 C   0  0  2  0  0  0  0  0  0  0  0  0
  186.1130  177.8800  138.0640 C   0  0  0  0  0  3  0  0  0  0  0  0
  184.8650  173.2260  136.3700 C   0  0  0  0  0  2  0  0  0  0  0  0
  187.9880  175.3380  136.7910 C   0  0  2  0  0  3  0  0  0  0  0  0
  184.1050  175.9140  136.3600 C   0  0  1  0  0  3  0  0  0  0  0  0
  187.2400  177.7780  138.7880 C   0  0  0  0  0  3  0  0  0  0  0  0
  188.6720  175.8500  138.0690 C   0  0  1  0  0  3  0  0  0  0  0  0
  183.6700  175.1310  137.5920 C   0  0  0  0  0  2  0  0  0  0  0  0
  188.9170  178.0070  137.0130 O   0  0  0  0  0  0  0  0  0  0  0  0
  189.0780  179.3920  137.2130 C   0  0  0  0  0  1  0  0  0  0  0  0
  192.8870  176.0810  137.9350 C   0  0  0  0  0  1  0  0  0  0  0  0
  191.9900  177.1640  138.5030 C   0  0  0  0  0  2  0  0  0  0  0  0
  189.4250  174.2210  135.0540 C   0  0  1  0  0  3  0  0  0  0  0  0
  189.3640  175.6680  134.5940 C   0  0  0  0  0  1  0  0  0  0  0  0
  190.8690  173.7800  135.2810 C   0  0  0  0  0  2  0  0  0  0  0  0
  191.8460  174.7630  134.6580 C   0  0  0  0  0  2  0  0  0  0  0  0
  193.1430  174.2500  134.7070 O   0  0  0  0  0  1  0  0  0  0  0  0
  183.2390  177.1560  136.1620 C   0  0  0  0  0  2  0  0  0  0  0  0
  180.8670  177.4580  136.8290 C   0  0  0  0  0  2  0  0  0  0  0  0
  182.5720  178.6530  138.0530 C   0  0  0  0  0  2  0  0  0  0  0  0
  181.0830  179.3800  139.7670 O   0  0  0  0  0  1  0  0  0  0  0  0
  180.1640  178.3370  137.8370 C   0  0  0  0  0  2  0  0  0  0  0  0
  181.2240  179.2710  138.3840 C   0  0  2  0  0  3  0  0  0  0  0  0
  182.2870  177.3490  137.3310 C   0  0  2  0  0  3  0  0  0  0  0  0
  187.7210  171.6640  136.4460 C   0  0  0  0  0  2  0  0  0  0  0  0
  187.8250  170.7650  135.2310 C   0  0  0  0  0  2  0  0  0  0  0  0
  186.4450  170.2870  134.8370 C   0  0  0  0  0  1  0  0  0  0  0  0
  1  3  1  0  0  0  0
  2 13  1  6  0  0  0
  2  5  1  0  0  0  0
  3 22  1  6  0  0  0
  3  8  1  0  0  0  0
  4 12  1  0  0  0  0
  6  9  1  0  0  0  0
  6 35  1  0  0  0  0
  6  2  1  0  0  0  0
  7 15  1  0  0  0  0
  7  4  1  0  0  0  0
  7  5  1  0  0  0  0
  9 14  1  0  0  0  0
 10 18  1  0  0  0  0
 11 16  1  0  0  0  0
 11  8  1  0  0  0  0
 12 16  2  0  0  0  0
 13 10  1  0  0  0  0
 14  5  1  0  0  0  0
 14 17  1  0  0  0  0
 15 18  1  0  0  0  0
 17  1  1  0  0  0  0
 17 11  1  0  0  0  0
 19 20  1  0  0  0  0
 19 11  1  0  0  0  0
 21 22  1  0  0  0  0
 23 25  1  0  0  0  0
 23  9  1  0  0  0  0
 24 23  1  0  0  0  0
 26 27  1  0  0  0  0
 26 25  1  0  0  0  0
 28 15  1  0  0  0  0
 28 34  1  0  0  0  0
 29 34  1  0  0  0  0
 29 32  1  0  0  0  0
 30 33  1  0  0  0  0
 32 33  1  0  0  0  0
 33 31  1  0  0  0  0
 34 30  1  0  0  0  0
 36 35  1  0  0  0  0
 37 36  1  0  0  0  0
M  END
>  <MODEL>
7

>  <REMARK>
 VINA RESULT:      -4.2      3.715      7.910
  Name = 
  9 active torsions:
  status: ('A' for Active; 'I' for Inactive)
    1  A    between atoms: C_3  and  C_32
    2  A    between atoms: C_5  and  C_23
    3  A    between atoms: C_6  and  C_31
    4  A    between atoms: C_6  and  C_35
    5  A    between atoms: C_9  and  C_13
    6  A    between atoms: C_9  and  C_16
    7  A    between atoms: O_11  and  C_26
    8  A    between atoms: C_20  and  C_21
    9  A    between atoms: C_21  and  C_32
                            x       y       z     vdW  Elec       q    Type
                         _______ _______ _______ _____ _____    ______ ____

>  <TORSDO>
F 9

$$$$
=
 OpenBabel11052415303D

 37 41  0  0  1  0  0  0  0  0999 V2000
  192.5250  176.3770  136.4690 C   0  0  0  0  0  2  0  0  0  0  0  0
  188.0740  176.5570  137.2730 C   0  0  2  0  0  3  0  0  0  0  0  0
  193.5520  175.8870  135.4620 C   0  0  2  0  0  3  0  0  0  0  0  0
  189.2340  172.8070  136.5950 C   0  0  0  0  0  2  0  0  0  0  0  0
  188.8660  175.3240  136.8080 C   0  0  2  0  0  3  0  0  0  0  0  0
  188.8170  177.1270  138.4640 C   0  0  1  0  0  3  0  0  0  0  0  0
  188.3110  173.9110  137.1410 C   0  0  1  0  0  3  0  0  0  0  0  0
  192.9610  174.6440  134.8110 C   0  0  0  0  0  2  0  0  0  0  0  0
  190.2690  176.7170  138.2590 C   0  0  2  0  0  3  0  0  0  0  0  0
  185.8080  175.9340  136.3220 C   0  0  0  0  0  2  0  0  0  0  0  0
  191.7330  174.2520  135.6310 C   0  0  2  0  0  0  0  0  0  0  0  0
  189.5780  172.9910  135.1440 C   0  0  0  0  0  3  0  0  0  0  0  0
  186.5910  176.3500  137.5700 C   0  0  0  0  0  2  0  0  0  0  0  0
  190.2790  175.4890  137.3520 C   0  0  2  0  0  3  0  0  0  0  0  0
  186.8150  173.6780  136.7860 C   0  0  1  0  0  3  0  0  0  0  0  0
  190.6820  173.6320  134.7260 C   0  0  0  0  0  3  0  0  0  0  0  0
  191.2540  175.6010  136.1680 C   0  0  1  0  0  3  0  0  0  0  0  0
  186.2950  174.6200  135.7070 C   0  0  0  0  0  2  0  0  0  0  0  0
  192.0950  173.4070  136.7180 O   0  0  0  0  0  0  0  0  0  0  0  0
  192.8910  172.3390  136.2570 C   0  0  0  0  0  1  0  0  0  0  0  0
  194.5860  175.2120  137.6280 C   0  0  0  0  0  1  0  0  0  0  0  0
  194.8480  175.5260  136.1680 C   0  0  0  0  0  2  0  0  0  0  0  0
  191.0080  176.4240  139.5710 C   0  0  1  0  0  3  0  0  0  0  0  0
  192.3030  177.2140  139.6490 C   0  0  0  0  0  1  0  0  0  0  0  0
  190.1380  176.6760  140.8010 C   0  0  0  0  0  2  0  0  0  0  0  0
  190.9320  176.4760  142.0820 C   0  0  0  0  0  2  0  0  0  0  0  0
  190.3290  175.4990  142.8750 O   0  0  0  0  0  1  0  0  0  0  0  0
  186.4160  172.2330  136.4960 C   0  0  0  0  0  2  0  0  0  0  0  0
  184.0410  172.2360  137.2210 C   0  0  0  0  0  2  0  0  0  0  0  0
  184.6850  170.8080  135.3820 C   0  0  0  0  0  2  0  0  0  0  0  0
  182.4420  170.2580  134.7910 O   0  0  0  0  0  1  0  0  0  0  0  0
  182.8200  171.4420  136.8190 C   0  0  0  0  0  2  0  0  0  0  0  0
  183.3160  170.3690  135.8720 C   0  0  2  0  0  3  0  0  0  0  0  0
  184.9700  172.1500  136.0330 C   0  0  2  0  0  3  0  0  0  0  0  0
  188.7140  178.6450  138.4810 C   0  0  0  0  0  2  0  0  0  0  0  0
  188.9500  179.2100  137.0950 C   0  0  0  0  0  2  0  0  0  0  0  0
  187.6400  179.7040  136.5220 C   0  0  0  0  0  1  0  0  0  0  0  0
  2 13  1  1  0  0  0
  2  6  1  0  0  0  0
  3 22  1  1  0  0  0
  3  1  1  0  0  0  0
  4  7  1  0  0  0  0
  5  7  1  0  0  0  0
  5  2  1  0  0  0  0
  5 14  1  0  0  0  0
  6 35  1  0  0  0  0
  8  3  1  0  0  0  0
  8 11  1  0  0  0  0
  9  6  1  0  0  0  0
  9 23  1  0  0  0  0
 10 13  1  0  0  0  0
 11 17  1  0  0  0  0
 11 19  1  0  0  0  0
 12  4  1  0  0  0  0
 14  9  1  0  0  0  0
 15  7  1  0  0  0  0
 16 12  2  0  0  0  0
 16 11  1  0  0  0  0
 17  1  1  0  0  0  0
 17 14  1  0  0  0  0
 18 10  1  0  0  0  0
 18 15  1  0  0  0  0
 20 19  1  0  0  0  0
 22 21  1  0  0  0  0
 23 24  1  0  0  0  0
 23 25  1  0  0  0  0
 25 26  1  0  0  0  0
 26 27  1  0  0  0  0
 28 15  1  0  0  0  0
 30 33  1  0  0  0  0
 30 34  1  0  0  0  0
 31 33  1  0  0  0  0
 32 29  1  0  0  0  0
 33 32  1  0  0  0  0
 34 28  1  0  0  0  0
 34 29  1  0  0  0  0
 36 35  1  0  0  0  0
 37 36  1  0  0  0  0
M  END
>  <MODEL>
8

>  <REMARK>
 VINA RESULT:      -4.1      5.259     10.200
  Name = 
  9 active torsions:
  status: ('A' for Active; 'I' for Inactive)
    1  A    between atoms: C_3  and  C_32
    2  A    between atoms: C_5  and  C_23
    3  A    between atoms: C_6  and  C_31
    4  A    between atoms: C_6  and  C_35
    5  A    between atoms: C_9  and  C_13
    6  A    between atoms: C_9  and  C_16
    7  A    between atoms: O_11  and  C_26
    8  A    between atoms: C_20  and  C_21
    9  A    between atoms: C_21  and  C_32
                            x       y       z     vdW  Elec       q    Type
                         _______ _______ _______ _____ _____    ______ ____

>  <TORSDO>
F 9

$$$$
=
 OpenBabel11052415303D

 37 41  0  0  1  0  0  0  0  0999 V2000
  192.1010  177.4240  140.0450 C   0  0  0  0  0  2  0  0  0  0  0  0
  187.7070  178.1660  139.2520 C   0  0  2  0  0  3  0  0  0  0  0  0
  193.4500  177.3080  139.3560 C   0  0  2  0  0  3  0  0  0  0  0  0
  189.0560  175.1600  137.0140 C   0  0  0  0  0  2  0  0  0  0  0  0
  188.6240  177.2100  138.4710 C   0  0  2  0  0  3  0  0  0  0  0  0
  187.9000  177.8520  140.7210 C   0  0  1  0  0  3  0  0  0  0  0  0
  187.9870  175.9980  137.7370 C   0  0  1  0  0  3  0  0  0  0  0  0
  193.1790  176.7530  137.9650 C   0  0  0  0  0  2  0  0  0  0  0  0
  189.3110  177.2910  140.8250 C   0  0  2  0  0  3  0  0  0  0  0  0
  186.0250  178.6590  137.4190 C   0  0  0  0  0  2  0  0  0  0  0  0
  191.7250  176.2840  137.9470 C   0  0  2  0  0  0  0  0  0  0  0  0
  189.9590  175.9840  136.1410 C   0  0  0  0  0  3  0  0  0  0  0  0
  186.2320  178.1790  138.8580 C   0  0  0  0  0  2  0  0  0  0  0  0
  189.6930  176.7440  139.4510 C   0  0  2  0  0  3  0  0  0  0  0  0
  186.7650  176.3290  136.8340 C   0  0  1  0  0  3  0  0  0  0  0  0
  191.1350  176.4800  136.5600 C   0  0  0  0  0  3  0  0  0  0  0  0
  191.0650  177.2280  138.9520 C   0  0  1  0  0  3  0  0  0  0  0  0
  186.7250  177.7820  136.3780 C   0  0  0  0  0  2  0  0  0  0  0  0
  191.6180  174.9420  138.4100 O   0  0  0  0  0  0  0  0  0  0  0  0
  192.3820  174.0850  137.5940 C   0  0  0  0  0  1  0  0  0  0  0  0
  195.0870  175.4360  139.1620 C   0  0  0  0  0  1  0  0  0  0  0  0
  194.3490  176.3510  140.1210 C   0  0  0  0  0  2  0  0  0  0  0  0
  189.4540  176.2020  141.8960 C   0  0  1  0  0  3  0  0  0  0  0  0
  190.8300  176.2540  142.5370 C   0  0  0  0  0  1  0  0  0  0  0  0
  188.3540  176.2740  142.9540 C   0  0  0  0  0  2  0  0  0  0  0  0
  188.9080  176.7540  144.2860 C   0  0  0  0  0  2  0  0  0  0  0  0
  187.9140  177.4120  145.0120 O   0  0  0  0  0  1  0  0  0  0  0  0
  186.5240  175.3770  135.6640 C   0  0  0  0  0  2  0  0  0  0  0  0
  184.3810  175.2070  136.9080 C   0  0  0  0  0  2  0  0  0  0  0  0
  185.6360  173.1870  136.4880 C   0  0  0  0  0  2  0  0  0  0  0  0
  183.8880  171.7390  137.2160 O   0  0  0  0  0  1  0  0  0  0  0  0
  183.6520  174.0750  137.5930 C   0  0  0  0  0  2  0  0  0  0  0  0
  184.5970  172.8910  137.5560 C   0  0  2  0  0  3  0  0  0  0  0  0
  185.2770  174.5370  135.8940 C   0  0  2  0  0  3  0  0  0  0  0  0
  187.7930  179.1190  141.5570 C   0  0  0  0  0  2  0  0  0  0  0  0
  186.3420  179.4420  141.8500 C   0  0  0  0  0  2  0  0  0  0  0  0
  185.6830  178.2510  142.5100 C   0  0  0  0  0  1  0  0  0  0  0  0
  2 13  1  6  0  0  0
  2  6  1  0  0  0  0
  3  1  1  0  0  0  0
  3 22  1  1  0  0  0
  4  7  1  0  0  0  0
  5  2  1  0  0  0  0
  5 14  1  0  0  0  0
  6  9  1  0  0  0  0
  6 35  1  0  0  0  0
  7  5  1  0  0  0  0
  8  3  1  0  0  0  0
  9 23  1  0  0  0  0
 10 13  1  0  0  0  0
 11  8  1  0  0  0  0
 11 19  1  0  0  0  0
 11 17  1  0  0  0  0
 12 16  2  0  0  0  0
 12  4  1  0  0  0  0
 14  9  1  0  0  0  0
 15  7  1  0  0  0  0
 16 11  1  0  0  0  0
 17 14  1  0  0  0  0
 17  1  1  0  0  0  0
 18 15  1  0  0  0  0
 18 10  1  0  0  0  0
 20 19  1  0  0  0  0
 21 22  1  0  0  0  0
 23 24  1  0  0  0  0
 23 25  1  0  0  0  0
 25 26  1  0  0  0  0
 26 27  1  0  0  0  0
 28 34  1  0  0  0  0
 28 15  1  0  0  0  0
 29 32  1  0  0  0  0
 30 33  1  0  0  0  0
 31 33  1  0  0  0  0
 33 32  1  0  0  0  0
 34 30  1  0  0  0  0
 34 29  1  0  0  0  0
 35 36  1  0  0  0  0
 36 37  1  0  0  0  0
M  END
>  <MODEL>
9

>  <REMARK>
 VINA RESULT:      -4.0      3.656      9.492
  Name = 
  9 active torsions:
  status: ('A' for Active; 'I' for Inactive)
    1  A    between atoms: C_3  and  C_32
    2  A    between atoms: C_5  and  C_23
    3  A    between atoms: C_6  and  C_31
    4  A    between atoms: C_6  and  C_35
    5  A    between atoms: C_9  and  C_13
    6  A    between atoms: C_9  and  C_16
    7  A    between atoms: O_11  and  C_26
    8  A    between atoms: C_20  and  C_21
    9  A    between atoms: C_21  and  C_32
                            x       y       z     vdW  Elec       q    Type
                         _______ _______ _______ _____ _____    ______ ____

>  <TORSDO>
F 9

$$$$
