=
 OpenBabel11052412563D

 31 34  0  0  1  0  0  0  0  0999 V2000
  183.6410  178.7120  143.2020 C   0  0  0  0  0  0  0  0  0  0  0  0
  187.3200  177.9190  143.3540 C   0  0  0  0  0  0  0  0  0  0  0  0
  187.6150  177.5540  144.7060 C   0  0  0  0  0  0  0  0  0  0  0  0
  186.6510  178.3010  146.8590 C   0  0  0  0  0  3  0  0  0  0  0  0
  186.0230  178.2800  142.8760 C   0  0  0  0  0  0  0  0  0  0  0  0
  183.4970  179.0170  141.8500 C   0  0  0  0  0  3  0  0  0  0  0  0
  186.5350  177.3410  145.7250 C   0  0  0  0  0  2  0  0  0  0  0  0
  188.1630  178.2460  141.0780 C   0  0  0  0  0  0  0  0  0  0  0  0
  182.2560  178.7810  144.2700 Cl  0  0  0  0  0  0  0  0  0  0  0  0
  189.9400  177.2740  144.1040 C   0  0  0  0  0  3  0  0  0  0  0  0
  187.6740  178.2800  147.7090 C   0  0  0  0  0  3  0  0  0  0  0  0
  186.9170  178.5750  140.6610 N   0  0  0  0  0  0  0  0  0  0  0  0
  188.3930  177.9180  142.4220 C   0  0  0  0  0  0  0  0  0  0  0  0
  184.8910  178.3490  143.7070 C   0  0  0  0  0  3  0  0  0  0  0  0
  188.8370  177.3820  147.5930 C   0  0  0  0  0  3  0  0  0  0  0  0
  185.8580  178.6030  141.5040 C   0  0  0  0  0  0  0  0  0  0  0  0
  184.6040  178.9640  141.0040 C   0  0  0  0  0  3  0  0  0  0  0  0
  189.6490  177.5900  142.8230 N   0  0  0  0  0  0  0  0  0  0  0  0
  188.9480  177.2660  145.0760 C   0  0  0  0  0  0  0  0  0  0  0  0
  189.3800  176.9380  146.4530 C   0  0  0  0  0  3  0  0  0  0  0  0
  189.2830  178.2600  140.0830 C   0  0  0  0  0  2  0  0  0  0  0  0
  189.0860  178.8110  137.6460 C   0  0  0  0  0  1  0  0  0  0  0  0
  188.8050  177.7740  138.7210 C   0  0  1  0  0  3  0  0  0  0  0  0
  190.3750  176.0220  139.1140 O   0  0  0  0  0  0  0  0  0  0  0  0
  189.4590  176.4730  138.3730 C   0  0  0  0  0  0  0  0  0  0  0  0
  189.8880  175.3480  136.3410 O   0  0  0  0  0  0  0  0  0  0  0  0
  189.0180  175.7300  137.1680 C   0  0  0  0  0  0  0  0  0  0  0  0
  187.0630  174.3100  137.2110 C   0  0  0  0  0  3  0  0  0  0  0  0
  187.6430  175.4220  136.8930 N   0  0  0  0  0  0  0  0  0  0  0  0
  185.6280  174.0850  136.8800 C   0  0  0  0  0  2  0  0  0  0  0  0
  185.0680  172.9520  137.7170 C   0  0  0  0  0  1  0  0  0  0  0  0
  1 14  1  0  0  0  0
  1  9  1  0  0  0  0
  2  3  1  0  0  0  0
  3 19  2  0  0  0  0
  3  7  1  0  0  0  0
  4 11  2  0  0  0  0
  5  2  1  0  0  0  0
  5 14  2  0  0  0  0
  6  1  2  0  0  0  0
  7  4  1  0  0  0  0
  8 13  1  0  0  0  0
 10 19  1  0  0  0  0
 12  8  2  0  0  0  0
 12 16  1  0  0  0  0
 13 18  1  0  0  0  0
 13  2  2  0  0  0  0
 15 11  1  0  0  0  0
 16  5  1  0  0  0  0
 17 16  2  0  0  0  0
 17  6  1  0  0  0  0
 18 10  2  0  0  0  0
 19 20  1  0  0  0  0
 20 15  2  0  0  0  0
 21  8  1  0  0  0  0
 23 22  1  6  0  0  0
 23 21  1  0  0  0  0
 25 23  1  0  0  0  0
 25 24  2  0  0  0  0
 26 27  2  0  0  0  0
 27 25  1  0  0  0  0
 29 27  1  0  0  0  0
 29 28  2  0  0  0  0
 30 28  1  0  0  0  0
 30 31  1  0  0  0  0
M  END
>  <MODEL>
1

>  <REMARK>
 VINA RESULT:      -9.7      0.000      0.000
  Name = 
  6 active torsions:
  status: ('A' for Active; 'I' for Inactive)
    1  A    between atoms: C_1  and  C_11
    2  A    between atoms: C_9  and  C_22
    3  A    between atoms: C_9  and  C_23
    4  A    between atoms: C_15  and  C_23
    5  A    between atoms: C_19  and  C_22
    6  A    between atoms: C_19  and  N_24
                            x       y       z     vdW  Elec       q    Type
                         _______ _______ _______ _____ _____    ______ ____

>  <TORSDO>
F 6

$$$$
=
 OpenBabel11052412563D

 31 34  0  0  1  0  0  0  0  0999 V2000
  183.5760  178.6430  143.1650 C   0  0  0  0  0  0  0  0  0  0  0  0
  187.2780  177.9630  143.3050 C   0  0  0  0  0  0  0  0  0  0  0  0
  187.5840  177.5850  144.6510 C   0  0  0  0  0  0  0  0  0  0  0  0
  186.5970  178.2660  146.8160 C   0  0  0  0  0  3  0  0  0  0  0  0
  185.9700  178.2910  142.8330 C   0  0  0  0  0  0  0  0  0  0  0  0
  183.4230  178.9670  141.8180 C   0  0  0  0  0  3  0  0  0  0  0  0
  186.5120  177.3220  145.6660 C   0  0  0  0  0  2  0  0  0  0  0  0
  188.1110  178.3540  141.0360 C   0  0  0  0  0  0  0  0  0  0  0  0
  182.1890  178.6520  144.2330 Cl  0  0  0  0  0  0  0  0  0  0  0  0
  189.9170  177.3870  144.0470 C   0  0  0  0  0  3  0  0  0  0  0  0
  187.6200  178.2630  147.6670 C   0  0  0  0  0  3  0  0  0  0  0  0
  186.8550  178.6510  140.6230 N   0  0  0  0  0  0  0  0  0  0  0  0
  188.3510  178.0110  142.3750 C   0  0  0  0  0  0  0  0  0  0  0  0
  184.8370  178.3110  143.6640 C   0  0  0  0  0  3  0  0  0  0  0  0
  188.8110  177.4040  147.5370 C   0  0  0  0  0  3  0  0  0  0  0  0
  185.7960  178.6320  141.4670 C   0  0  0  0  0  0  0  0  0  0  0  0
  184.5310  178.9620  140.9720 C   0  0  0  0  0  3  0  0  0  0  0  0
  189.6170  177.7160  142.7700 N   0  0  0  0  0  0  0  0  0  0  0  0
  188.9250  177.3330  145.0180 C   0  0  0  0  0  0  0  0  0  0  0  0
  189.3670  176.9950  146.3890 C   0  0  0  0  0  3  0  0  0  0  0  0
  189.2290  178.4190  140.0420 C   0  0  0  0  0  2  0  0  0  0  0  0
  188.7480  177.1600  137.9280 C   0  0  0  0  0  1  0  0  0  0  0  0
  189.3820  177.0930  139.3080 C   0  0  1  0  0  3  0  0  0  0  0  0
  191.6570  177.2080  140.0170 O   0  0  0  0  0  0  0  0  0  0  0  0
  190.8280  176.7220  139.1990 C   0  0  0  0  0  0  0  0  0  0  0  0
  190.8620  174.5910  138.1790 O   0  0  0  0  0  0  0  0  0  0  0  0
  191.2660  175.7840  138.1370 C   0  0  0  0  0  0  0  0  0  0  0  0
  193.4170  176.0190  137.0600 C   0  0  0  0  0  3  0  0  0  0  0  0
  192.1310  176.1670  137.0570 N   0  0  0  0  0  0  0  0  0  0  0  0
  194.2290  176.4500  135.8880 C   0  0  0  0  0  2  0  0  0  0  0  0
  193.9860  175.5260  134.7120 C   0  0  0  0  0  1  0  0  0  0  0  0
  1 14  1  0  0  0  0
  1  9  1  0  0  0  0
  2  3  1  0  0  0  0
  3 19  2  0  0  0  0
  3  7  1  0  0  0  0
  4 11  2  0  0  0  0
  5  2  1  0  0  0  0
  5 14  2  0  0  0  0
  6  1  2  0  0  0  0
  7  4  1  0  0  0  0
  8 13  1  0  0  0  0
 10 19  1  0  0  0  0
 12  8  2  0  0  0  0
 12 16  1  0  0  0  0
 13 18  1  0  0  0  0
 13  2  2  0  0  0  0
 15 11  1  0  0  0  0
 16  5  1  0  0  0  0
 17 16  2  0  0  0  0
 17  6  1  0  0  0  0
 18 10  2  0  0  0  0
 19 20  1  0  0  0  0
 20 15  2  0  0  0  0
 21  8  1  0  0  0  0
 23 22  1  6  0  0  0
 23 21  1  0  0  0  0
 25 23  1  0  0  0  0
 25 24  2  0  0  0  0
 27 26  2  0  0  0  0
 27 25  1  0  0  0  0
 29 28  2  0  0  0  0
 29 27  1  0  0  0  0
 30 28  1  0  0  0  0
 31 30  1  0  0  0  0
M  END
>  <MODEL>
2

>  <REMARK>
 VINA RESULT:      -9.6      1.916      2.904
  Name = 
  6 active torsions:
  status: ('A' for Active; 'I' for Inactive)
    1  A    between atoms: C_1  and  C_11
    2  A    between atoms: C_9  and  C_22
    3  A    between atoms: C_9  and  C_23
    4  A    between atoms: C_15  and  C_23
    5  A    between atoms: C_19  and  C_22
    6  A    between atoms: C_19  and  N_24
                            x       y       z     vdW  Elec       q    Type
                         _______ _______ _______ _____ _____    ______ ____

>  <TORSDO>
F 6

$$$$
=
 OpenBabel11052412563D

 31 34  0  0  1  0  0  0  0  0999 V2000
  188.7910  177.6870  147.6230 C   0  0  0  0  0  0  0  0  0  0  0  0
  187.4740  177.8790  144.0990 C   0  0  0  0  0  0  0  0  0  0  0  0
  186.1930  178.5140  144.1650 C   0  0  0  0  0  0  0  0  0  0  0  0
  184.4330  178.4930  145.9030 C   0  0  0  0  0  3  0  0  0  0  0  0
  188.3130  177.6280  145.2280 C   0  0  0  0  0  0  0  0  0  0  0  0
  190.0280  177.0840  147.4050 C   0  0  0  0  0  3  0  0  0  0  0  0
  185.6840  179.1480  145.4250 C   0  0  0  0  0  2  0  0  0  0  0  0
  189.2000  176.8630  142.6890 C   0  0  0  0  0  0  0  0  0  0  0  0
  188.2970  178.1130  149.2470 Cl  0  0  0  0  0  0  0  0  0  0  0  0
  185.9610  178.2510  141.7720 C   0  0  0  0  0  3  0  0  0  0  0  0
  183.2900  178.5560  145.2250 C   0  0  0  0  0  3  0  0  0  0  0  0
  189.9710  176.6500  143.7830 N   0  0  0  0  0  0  0  0  0  0  0  0
  187.9430  177.4730  142.8210 C   0  0  0  0  0  0  0  0  0  0  0  0
  187.9450  177.9540  146.5450 C   0  0  0  0  0  3  0  0  0  0  0  0
  183.1380  179.1940  143.9040 C   0  0  0  0  0  3  0  0  0  0  0  0
  189.5720  177.0060  145.0270 C   0  0  0  0  0  0  0  0  0  0  0  0
  190.4170  176.7430  146.1100 C   0  0  0  0  0  3  0  0  0  0  0  0
  187.1840  177.6790  141.7130 N   0  0  0  0  0  0  0  0  0  0  0  0
  185.4270  178.6620  142.9870 C   0  0  0  0  0  0  0  0  0  0  0  0
  184.0680  179.2470  142.9420 C   0  0  0  0  0  3  0  0  0  0  0  0
  189.7080  176.4200  141.3530 C   0  0  0  0  0  2  0  0  0  0  0  0
  191.8830  177.5640  140.8570 C   0  0  0  0  0  1  0  0  0  0  0  0
  190.3820  177.5720  140.6180 C   0  0  1  0  0  3  0  0  0  0  0  0
  190.8250  176.7960  138.4060 O   0  0  0  0  0  0  0  0  0  0  0  0
  190.0880  177.4970  139.1520 C   0  0  0  0  0  0  0  0  0  0  0  0
  189.0570  179.4750  138.3730 O   0  0  0  0  0  0  0  0  0  0  0  0
  188.9310  178.2420  138.5980 C   0  0  0  0  0  0  0  0  0  0  0  0
  186.7250  178.1830  137.6110 C   0  0  0  0  0  3  0  0  0  0  0  0
  187.6670  177.6270  138.3030 N   0  0  0  0  0  0  0  0  0  0  0  0
  185.4460  177.4600  137.3610 C   0  0  0  0  0  2  0  0  0  0  0  0
  184.4190  177.8340  138.4100 C   0  0  0  0  0  1  0  0  0  0  0  0
  1  9  1  0  0  0  0
  2  3  1  0  0  0  0
  2  5  1  0  0  0  0
  3  7  1  0  0  0  0
  5 14  1  0  0  0  0
  6  1  1  0  0  0  0
  7  4  1  0  0  0  0
  8 13  1  0  0  0  0
  8 12  2  0  0  0  0
 10 19  1  0  0  0  0
 11  4  2  0  0  0  0
 12 16  1  0  0  0  0
 13  2  2  0  0  0  0
 14  1  2  0  0  0  0
 15 11  1  0  0  0  0
 16  5  2  0  0  0  0
 16 17  1  0  0  0  0
 17  6  2  0  0  0  0
 18 10  2  0  0  0  0
 18 13  1  0  0  0  0
 19  3  2  0  0  0  0
 20 19  1  0  0  0  0
 20 15  2  0  0  0  0
 21  8  1  0  0  0  0
 23 22  1  6  0  0  0
 23 21  1  0  0  0  0
 24 25  2  0  0  0  0
 25 23  1  0  0  0  0
 26 27  2  0  0  0  0
 27 25  1  0  0  0  0
 28 29  2  0  0  0  0
 29 27  1  0  0  0  0
 30 28  1  0  0  0  0
 30 31  1  0  0  0  0
M  END
>  <MODEL>
3

>  <REMARK>
 VINA RESULT:      -9.2      2.278      4.555
  Name = 
  6 active torsions:
  status: ('A' for Active; 'I' for Inactive)
    1  A    between atoms: C_1  and  C_11
    2  A    between atoms: C_9  and  C_22
    3  A    between atoms: C_9  and  C_23
    4  A    between atoms: C_15  and  C_23
    5  A    between atoms: C_19  and  C_22
    6  A    between atoms: C_19  and  N_24
                            x       y       z     vdW  Elec       q    Type
                         _______ _______ _______ _____ _____    ______ ____

>  <TORSDO>
F 6

$$$$
=
 OpenBabel11052412563D

 31 34  0  0  1  0  0  0  0  0999 V2000
  186.7760  178.0130  146.9970 C   0  0  0  0  0  0  0  0  0  0  0  0
  187.3760  177.9580  143.2790 C   0  0  0  0  0  0  0  0  0  0  0  0
  188.7380  177.5660  143.0810 C   0  0  0  0  0  0  0  0  0  0  0  0
  190.7760  177.9540  144.4290 C   0  0  0  0  0  3  0  0  0  0  0  0
  186.7480  178.0870  144.5560 C   0  0  0  0  0  0  0  0  0  0  0  0
  185.4310  178.3780  147.0370 C   0  0  0  0  0  3  0  0  0  0  0  0
  189.5950  177.0720  144.2070 C   0  0  0  0  0  2  0  0  0  0  0  0
  185.2480  178.6050  142.2540 C   0  0  0  0  0  0  0  0  0  0  0  0
  187.6530  177.7310  148.4850 Cl  0  0  0  0  0  0  0  0  0  0  0  0
  188.4370  177.7960  140.6920 C   0  0  0  0  0  3  0  0  0  0  0  0
  191.7520  178.0770  143.5340 C   0  0  0  0  0  3  0  0  0  0  0  0
  184.6850  178.7090  143.4820 N   0  0  0  0  0  0  0  0  0  0  0  0
  186.5960  178.2360  142.1250 C   0  0  0  0  0  0  0  0  0  0  0  0
  187.4240  177.8710  145.7690 C   0  0  0  0  0  3  0  0  0  0  0  0
  191.7510  177.4390  142.2050 C   0  0  0  0  0  3  0  0  0  0  0  0
  185.3820  178.4670  144.6170 C   0  0  0  0  0  0  0  0  0  0  0  0
  184.7370  178.6050  145.8500 C   0  0  0  0  0  3  0  0  0  0  0  0
  187.1430  178.1370  140.8860 N   0  0  0  0  0  0  0  0  0  0  0  0
  189.2680  177.5230  141.7710 C   0  0  0  0  0  0  0  0  0  0  0  0
  190.6740  177.1920  141.4500 C   0  0  0  0  0  3  0  0  0  0  0  0
  184.4120  178.9110  141.0500 C   0  0  0  0  0  2  0  0  0  0  0  0
  181.9080  178.8350  141.1300 C   0  0  0  0  0  1  0  0  0  0  0  0
  183.1810  178.0150  141.0020 C   0  0  1  0  0  3  0  0  0  0  0  0
  182.7110  176.0440  139.7440 O   0  0  0  0  0  0  0  0  0  0  0  0
  183.1630  177.2220  139.7330 C   0  0  0  0  0  0  0  0  0  0  0  0
  183.0030  178.7560  137.9440 O   0  0  0  0  0  0  0  0  0  0  0  0
  183.6700  177.8320  138.4800 C   0  0  0  0  0  0  0  0  0  0  0  0
  185.9320  178.1750  137.6980 C   0  0  0  0  0  3  0  0  0  0  0  0
  184.8900  177.4210  137.8420 N   0  0  0  0  0  0  0  0  0  0  0  0
  187.1510  177.6550  137.0180 C   0  0  0  0  0  2  0  0  0  0  0  0
  188.2160  178.7320  136.9540 C   0  0  0  0  0  1  0  0  0  0  0  0
  1  6  1  0  0  0  0
  1  9  1  0  0  0  0
  2  5  1  0  0  0  0
  3  2  1  0  0  0  0
  3  7  1  0  0  0  0
  5 16  2  0  0  0  0
  5 14  1  0  0  0  0
  7  4  1  0  0  0  0
  8 12  2  0  0  0  0
 10 18  2  0  0  0  0
 10 19  1  0  0  0  0
 11  4  2  0  0  0  0
 12 16  1  0  0  0  0
 13  8  1  0  0  0  0
 13  2  2  0  0  0  0
 14  1  2  0  0  0  0
 15 11  1  0  0  0  0
 16 17  1  0  0  0  0
 17  6  2  0  0  0  0
 18 13  1  0  0  0  0
 19  3  2  0  0  0  0
 20 19  1  0  0  0  0
 20 15  2  0  0  0  0
 21  8  1  0  0  0  0
 23 21  1  0  0  0  0
 23 22  1  6  0  0  0
 25 24  2  0  0  0  0
 25 23  1  0  0  0  0
 26 27  2  0  0  0  0
 27 25  1  0  0  0  0
 28 29  2  0  0  0  0
 29 27  1  0  0  0  0
 30 28  1  0  0  0  0
 31 30  1  0  0  0  0
M  END
>  <MODEL>
4

>  <REMARK>
 VINA RESULT:      -9.2      3.060      4.957
  Name = 
  6 active torsions:
  status: ('A' for Active; 'I' for Inactive)
    1  A    between atoms: C_1  and  C_11
    2  A    between atoms: C_9  and  C_22
    3  A    between atoms: C_9  and  C_23
    4  A    between atoms: C_15  and  C_23
    5  A    between atoms: C_19  and  C_22
    6  A    between atoms: C_19  and  N_24
                            x       y       z     vdW  Elec       q    Type
                         _______ _______ _______ _____ _____    ______ ____

>  <TORSDO>
F 6

$$$$
=
 OpenBabel11052412563D

 31 34  0  0  1  0  0  0  0  0999 V2000
  185.5330  178.4090  145.7140 C   0  0  0  0  0  0  0  0  0  0  0  0
  186.8420  178.2560  142.1850 C   0  0  0  0  0  0  0  0  0  0  0  0
  188.1970  177.8010  142.2600 C   0  0  0  0  0  0  0  0  0  0  0  0
  189.9490  178.1260  143.9760 C   0  0  0  0  0  3  0  0  0  0  0  0
  185.9840  178.4370  143.3130 C   0  0  0  0  0  0  0  0  0  0  0  0
  184.2250  178.8330  145.4870 C   0  0  0  0  0  3  0  0  0  0  0  0
  188.7940  177.2920  143.5380 C   0  0  0  0  0  2  0  0  0  0  0  0
  184.9860  178.9750  140.7570 C   0  0  0  0  0  0  0  0  0  0  0  0
  186.0900  178.1180  147.3470 Cl  0  0  0  0  0  0  0  0  0  0  0  0
  188.3770  177.9980  139.8560 C   0  0  0  0  0  3  0  0  0  0  0  0
  191.0860  178.1890  143.2880 C   0  0  0  0  0  3  0  0  0  0  0  0
  184.2010  179.1270  141.8510 N   0  0  0  0  0  0  0  0  0  0  0  0
  186.3150  178.5450  140.8970 C   0  0  0  0  0  0  0  0  0  0  0  0
  186.4010  178.2150  144.6370 C   0  0  0  0  0  3  0  0  0  0  0  0
  191.3140  177.5260  141.9910 C   0  0  0  0  0  3  0  0  0  0  0  0
  184.6520  178.8770  143.1030 C   0  0  0  0  0  0  0  0  0  0  0  0
  183.7860  179.0670  144.1840 C   0  0  0  0  0  3  0  0  0  0  0  0
  187.0880  178.3990  139.7900 N   0  0  0  0  0  0  0  0  0  0  0  0
  188.9690  177.7100  141.0800 C   0  0  0  0  0  0  0  0  0  0  0  0
  190.3930  177.3110  141.0430 C   0  0  0  0  0  3  0  0  0  0  0  0
  184.4150  179.2930  139.4110 C   0  0  0  0  0  2  0  0  0  0  0  0
  182.4610  180.6280  138.5840 C   0  0  0  0  0  1  0  0  0  0  0  0
  182.9080  179.4960  139.4940 C   0  0  1  0  0  3  0  0  0  0  0  0
  182.3510  177.7280  137.9910 O   0  0  0  0  0  0  0  0  0  0  0  0
  182.1920  178.2300  139.1380 C   0  0  0  0  0  0  0  0  0  0  0  0
  180.9100  176.4060  139.9190 O   0  0  0  0  0  0  0  0  0  0  0  0
  181.3130  177.5790  140.1400 C   0  0  0  0  0  0  0  0  0  0  0  0
  179.6620  178.3630  141.7220 C   0  0  0  0  0  3  0  0  0  0  0  0
  180.8950  178.2200  141.3550 N   0  0  0  0  0  0  0  0  0  0  0  0
  179.3310  179.0460  143.0040 C   0  0  0  0  0  2  0  0  0  0  0  0
  179.7950  178.2090  144.1790 C   0  0  0  0  0  1  0  0  0  0  0  0
  1  9  1  0  0  0  0
  2  3  1  0  0  0  0
  2  5  1  0  0  0  0
  3  7  1  0  0  0  0
  5 14  1  0  0  0  0
  6  1  1  0  0  0  0
  7  4  1  0  0  0  0
  8 13  1  0  0  0  0
  8 12  2  0  0  0  0
 10 19  1  0  0  0  0
 11  4  2  0  0  0  0
 12 16  1  0  0  0  0
 13  2  2  0  0  0  0
 14  1  2  0  0  0  0
 15 11  1  0  0  0  0
 16  5  2  0  0  0  0
 16 17  1  0  0  0  0
 17  6  2  0  0  0  0
 18 10  2  0  0  0  0
 18 13  1  0  0  0  0
 19  3  2  0  0  0  0
 20 19  1  0  0  0  0
 20 15  2  0  0  0  0
 21 23  1  0  0  0  0
 21  8  1  0  0  0  0
 23 22  1  6  0  0  0
 24 25  2  0  0  0  0
 25 23  1  0  0  0  0
 25 27  1  0  0  0  0
 26 27  2  0  0  0  0
 27 29  1  0  0  0  0
 28 30  1  0  0  0  0
 29 28  2  0  0  0  0
 30 31  1  0  0  0  0
M  END
>  <MODEL>
5

>  <REMARK>
 VINA RESULT:      -8.8      3.416      5.820
  Name = 
  6 active torsions:
  status: ('A' for Active; 'I' for Inactive)
    1  A    between atoms: C_1  and  C_11
    2  A    between atoms: C_9  and  C_22
    3  A    between atoms: C_9  and  C_23
    4  A    between atoms: C_15  and  C_23
    5  A    between atoms: C_19  and  C_22
    6  A    between atoms: C_19  and  N_24
                            x       y       z     vdW  Elec       q    Type
                         _______ _______ _______ _____ _____    ______ ____

>  <TORSDO>
F 6

$$$$
=
 OpenBabel11052412563D

 31 34  0  0  1  0  0  0  0  0999 V2000
  183.7040  178.6350  144.2300 C   0  0  0  0  0  0  0  0  0  0  0  0
  186.4570  178.3390  141.6760 C   0  0  0  0  0  0  0  0  0  0  0  0
  185.8440  178.4380  140.3870 C   0  0  0  0  0  0  0  0  0  0  0  0
  183.6200  177.7340  139.5630 C   0  0  0  0  0  3  0  0  0  0  0  0
  185.7520  178.4180  142.9170 C   0  0  0  0  0  0  0  0  0  0  0  0
  184.4370  178.5490  145.4120 C   0  0  0  0  0  3  0  0  0  0  0  0
  184.4040  178.8190  140.2180 C   0  0  0  0  0  2  0  0  0  0  0  0
  188.5260  178.0700  142.9590 C   0  0  0  0  0  0  0  0  0  0  0  0
  181.9650  178.8260  144.2880 Cl  0  0  0  0  0  0  0  0  0  0  0  0
  188.0090  178.1270  139.3540 C   0  0  0  0  0  3  0  0  0  0  0  0
  183.8310  177.3620  138.3030 C   0  0  0  0  0  3  0  0  0  0  0  0
  187.8240  178.1570  144.1150 N   0  0  0  0  0  0  0  0  0  0  0  0
  187.8650  178.1530  141.7240 C   0  0  0  0  0  0  0  0  0  0  0  0
  184.3570  178.5680  142.9980 C   0  0  0  0  0  3  0  0  0  0  0  0
  184.8960  177.9050  137.4410 C   0  0  0  0  0  3  0  0  0  0  0  0
  186.4800  178.3240  144.1310 C   0  0  0  0  0  0  0  0  0  0  0  0
  185.8220  178.3930  145.3620 C   0  0  0  0  0  3  0  0  0  0  0  0
  188.5850  178.0640  140.5760 N   0  0  0  0  0  0  0  0  0  0  0  0
  186.6360  178.2930  139.2250 C   0  0  0  0  0  0  0  0  0  0  0  0
  186.1050  178.3160  137.8450 C   0  0  0  0  0  3  0  0  0  0  0  0
  190.0070  177.8650  143.0300 C   0  0  0  0  0  2  0  0  0  0  0  0
  190.9280  175.5530  143.3330 C   0  0  0  0  0  1  0  0  0  0  0  0
  190.3570  176.7750  144.0350 C   0  0  1  0  0  3  0  0  0  0  0  0
  192.1270  178.2160  144.7280 O   0  0  0  0  0  0  0  0  0  0  0  0
  191.3280  177.2930  145.0490 C   0  0  0  0  0  0  0  0  0  0  0  0
  192.2500  175.9180  146.7340 O   0  0  0  0  0  0  0  0  0  0  0  0
  191.3340  176.7220  146.4180 C   0  0  0  0  0  0  0  0  0  0  0  0
  189.0850  176.7480  147.3050 C   0  0  0  0  0  3  0  0  0  0  0  0
  190.3420  177.0400  147.4070 N   0  0  0  0  0  0  0  0  0  0  0  0
  188.1340  177.1230  148.3880 C   0  0  0  0  0  2  0  0  0  0  0  0
  187.8950  178.6200  148.3810 C   0  0  0  0  0  1  0  0  0  0  0  0
  1  9  1  0  0  0  0
  1  6  1  0  0  0  0
  2 13  2  0  0  0  0
  2  5  1  0  0  0  0
  3  2  1  0  0  0  0
  4  7  1  0  0  0  0
  5 14  1  0  0  0  0
  5 16  2  0  0  0  0
  7  3  1  0  0  0  0
  8 21  1  0  0  0  0
  8 12  2  0  0  0  0
 10 18  2  0  0  0  0
 11  4  2  0  0  0  0
 12 16  1  0  0  0  0
 13  8  1  0  0  0  0
 14  1  2  0  0  0  0
 15 20  2  0  0  0  0
 15 11  1  0  0  0  0
 16 17  1  0  0  0  0
 17  6  2  0  0  0  0
 18 13  1  0  0  0  0
 19 10  1  0  0  0  0
 19  3  2  0  0  0  0
 20 19  1  0  0  0  0
 21 23  1  0  0  0  0
 23 22  1  6  0  0  0
 23 25  1  0  0  0  0
 24 25  2  0  0  0  0
 25 27  1  0  0  0  0
 27 26  2  0  0  0  0
 27 29  1  0  0  0  0
 28 29  2  0  0  0  0
 28 30  1  0  0  0  0
 31 30  1  0  0  0  0
M  END
>  <MODEL>
6

>  <REMARK>
 VINA RESULT:      -8.8      2.852      6.925
  Name = 
  6 active torsions:
  status: ('A' for Active; 'I' for Inactive)
    1  A    between atoms: C_1  and  C_11
    2  A    between atoms: C_9  and  C_22
    3  A    between atoms: C_9  and  C_23
    4  A    between atoms: C_15  and  C_23
    5  A    between atoms: C_19  and  C_22
    6  A    between atoms: C_19  and  N_24
                            x       y       z     vdW  Elec       q    Type
                         _______ _______ _______ _____ _____    ______ ____

>  <TORSDO>
F 6

$$$$
=
 OpenBabel11052412563D

 31 34  0  0  1  0  0  0  0  0999 V2000
  190.7130  176.8990  145.9410 C   0  0  0  0  0  0  0  0  0  0  0  0
  187.9430  177.7610  143.5390 C   0  0  0  0  0  0  0  0  0  0  0  0
  186.8680  178.3010  144.3140 C   0  0  0  0  0  0  0  0  0  0  0  0
  186.0990  177.8230  146.6170 C   0  0  0  0  0  3  0  0  0  0  0  0
  189.1910  177.3210  144.0780 C   0  0  0  0  0  0  0  0  0  0  0  0
  191.6800  176.4190  145.0600 C   0  0  0  0  0  3  0  0  0  0  0  0
  187.0250  178.6270  145.7700 C   0  0  0  0  0  2  0  0  0  0  0  0
  188.7790  177.1560  141.3170 C   0  0  0  0  0  0  0  0  0  0  0  0
  191.0390  176.9470  147.6600 Cl  0  0  0  0  0  0  0  0  0  0  0  0
  185.5550  178.5370  142.2980 C   0  0  0  0  0  3  0  0  0  0  0  0
  184.7770  177.9680  146.5660 C   0  0  0  0  0  3  0  0  0  0  0  0
  189.9520  176.7570  141.8650 N   0  0  0  0  0  0  0  0  0  0  0  0
  187.7540  177.6580  142.1340 C   0  0  0  0  0  0  0  0  0  0  0  0
  189.4820  177.3430  145.4530 C   0  0  0  0  0  3  0  0  0  0  0  0
  184.0720  178.8620  145.6290 C   0  0  0  0  0  3  0  0  0  0  0  0
  190.1850  176.8210  143.1970 C   0  0  0  0  0  0  0  0  0  0  0  0
  191.4160  176.3800  143.6910 C   0  0  0  0  0  3  0  0  0  0  0  0
  186.5850  178.0540  141.5670 N   0  0  0  0  0  0  0  0  0  0  0  0
  185.6570  178.6540  143.6780 C   0  0  0  0  0  0  0  0  0  0  0  0
  184.4610  179.1640  144.3840 C   0  0  0  0  0  3  0  0  0  0  0  0
  188.5960  177.0320  139.8360 C   0  0  0  0  0  2  0  0  0  0  0  0
  190.6770  177.4210  138.4930 C   0  0  0  0  0  1  0  0  0  0  0  0
  189.4380  178.0630  139.0970 C   0  0  1  0  0  3  0  0  0  0  0  0
  189.0560  179.7870  137.4930 O   0  0  0  0  0  0  0  0  0  0  0  0
  188.6260  178.7290  138.0300 C   0  0  0  0  0  0  0  0  0  0  0  0
  187.3280  177.2820  136.6880 O   0  0  0  0  0  0  0  0  0  0  0  0
  187.3320  178.1350  137.6140 C   0  0  0  0  0  0  0  0  0  0  0  0
  184.9630  177.8570  138.0090 C   0  0  0  0  0  3  0  0  0  0  0  0
  186.0760  178.4840  138.2170 N   0  0  0  0  0  0  0  0  0  0  0  0
  183.7100  178.2990  138.6820 C   0  0  0  0  0  2  0  0  0  0  0  0
  183.8210  179.7530  139.0940 C   0  0  0  0  0  1  0  0  0  0  0  0
  1  9  1  0  0  0  0
  2  5  1  0  0  0  0
  2  3  1  0  0  0  0
  3  7  1  0  0  0  0
  5 14  2  0  0  0  0
  6  1  2  0  0  0  0
  7  4  1  0  0  0  0
  8 12  2  0  0  0  0
  8 13  1  0  0  0  0
 10 19  1  0  0  0  0
 11  4  2  0  0  0  0
 12 16  1  0  0  0  0
 13  2  2  0  0  0  0
 14  1  1  0  0  0  0
 15 11  1  0  0  0  0
 16 17  2  0  0  0  0
 16  5  1  0  0  0  0
 17  6  1  0  0  0  0
 18 13  1  0  0  0  0
 18 10  2  0  0  0  0
 19  3  2  0  0  0  0
 19 20  1  0  0  0  0
 20 15  2  0  0  0  0
 21  8  1  0  0  0  0
 23 22  1  6  0  0  0
 23 21  1  0  0  0  0
 24 25  2  0  0  0  0
 25 23  1  0  0  0  0
 26 27  2  0  0  0  0
 27 25  1  0  0  0  0
 27 29  1  0  0  0  0
 28 29  2  0  0  0  0
 28 30  1  0  0  0  0
 30 31  1  0  0  0  0
M  END
>  <MODEL>
7

>  <REMARK>
 VINA RESULT:      -8.8      2.729      4.610
  Name = 
  6 active torsions:
  status: ('A' for Active; 'I' for Inactive)
    1  A    between atoms: C_1  and  C_11
    2  A    between atoms: C_9  and  C_22
    3  A    between atoms: C_9  and  C_23
    4  A    between atoms: C_15  and  C_23
    5  A    between atoms: C_19  and  C_22
    6  A    between atoms: C_19  and  N_24
                            x       y       z     vdW  Elec       q    Type
                         _______ _______ _______ _____ _____    ______ ____

>  <TORSDO>
F 6

$$$$
=
 OpenBabel11052412563D

 31 34  0  0  1  0  0  0  0  0999 V2000
  186.9760  178.0110  147.1600 C   0  0  0  0  0  0  0  0  0  0  0  0
  187.3620  178.0040  143.4130 C   0  0  0  0  0  0  0  0  0  0  0  0
  188.7060  177.6010  143.1310 C   0  0  0  0  0  0  0  0  0  0  0  0
  190.8220  177.9470  144.3660 C   0  0  0  0  0  3  0  0  0  0  0  0
  186.8100  178.1210  144.7250 C   0  0  0  0  0  0  0  0  0  0  0  0
  185.6410  178.3890  147.2820 C   0  0  0  0  0  3  0  0  0  0  0  0
  189.6210  177.0810  144.2000 C   0  0  0  0  0  2  0  0  0  0  0  0
  185.1870  178.6880  142.5210 C   0  0  0  0  0  0  0  0  0  0  0  0
  187.9340  177.6970  148.5910 Cl  0  0  0  0  0  0  0  0  0  0  0  0
  188.2720  177.8690  140.7670 C   0  0  0  0  0  3  0  0  0  0  0  0
  191.7470  178.0740  143.4180 C   0  0  0  0  0  3  0  0  0  0  0  0
  184.6960  178.7800  143.7800 N   0  0  0  0  0  0  0  0  0  0  0  0
  186.5200  178.3070  142.3090 C   0  0  0  0  0  0  0  0  0  0  0  0
  187.5520  177.8800  145.8950 C   0  0  0  0  0  3  0  0  0  0  0  0
  191.6630  177.4550  142.0830 C   0  0  0  0  0  3  0  0  0  0  0  0
  185.4540  178.5140  144.8710 C   0  0  0  0  0  0  0  0  0  0  0  0
  184.8820  178.6410  146.1400 C   0  0  0  0  0  3  0  0  0  0  0  0
  186.9950  178.2210  141.0390 N   0  0  0  0  0  0  0  0  0  0  0  0
  189.1600  177.5720  141.7930 C   0  0  0  0  0  0  0  0  0  0  0  0
  190.5410  177.2300  141.3870 C   0  0  0  0  0  3  0  0  0  0  0  0
  184.2860  179.0200  141.3710 C   0  0  0  0  0  2  0  0  0  0  0  0
  181.8300  178.5960  141.6400 C   0  0  0  0  0  1  0  0  0  0  0  0
  183.1680  177.9940  141.2440 C   0  0  1  0  0  3  0  0  0  0  0  0
  182.8260  176.2480  139.6540 O   0  0  0  0  0  0  0  0  0  0  0  0
  183.1060  177.4630  139.8450 C   0  0  0  0  0  0  0  0  0  0  0  0
  184.3970  178.1890  138.0050 O   0  0  0  0  0  0  0  0  0  0  0  0
  183.3660  178.3740  138.7030 C   0  0  0  0  0  0  0  0  0  0  0  0
  181.2310  179.3410  138.1110 C   0  0  0  0  0  3  0  0  0  0  0  0
  182.4970  179.4620  138.3510 N   0  0  0  0  0  0  0  0  0  0  0  0
  180.4140  180.5340  137.7510 C   0  0  0  0  0  2  0  0  0  0  0  0
  181.1610  181.8060  138.1020 C   0  0  0  0  0  1  0  0  0  0  0  0
  1  6  1  0  0  0  0
  1  9  1  0  0  0  0
  2  5  1  0  0  0  0
  3  2  1  0  0  0  0
  3  7  1  0  0  0  0
  5 16  2  0  0  0  0
  5 14  1  0  0  0  0
  7  4  1  0  0  0  0
  8 12  2  0  0  0  0
 10 18  2  0  0  0  0
 10 19  1  0  0  0  0
 11  4  2  0  0  0  0
 12 16  1  0  0  0  0
 13  8  1  0  0  0  0
 13  2  2  0  0  0  0
 14  1  2  0  0  0  0
 15 11  1  0  0  0  0
 16 17  1  0  0  0  0
 17  6  2  0  0  0  0
 18 13  1  0  0  0  0
 19  3  2  0  0  0  0
 20 19  1  0  0  0  0
 20 15  2  0  0  0  0
 21  8  1  0  0  0  0
 23 21  1  0  0  0  0
 23 22  1  6  0  0  0
 24 25  2  0  0  0  0
 25 23  1  0  0  0  0
 26 27  2  0  0  0  0
 27 25  1  0  0  0  0
 28 29  2  0  0  0  0
 29 27  1  0  0  0  0
 30 31  1  0  0  0  0
 30 28  1  0  0  0  0
M  END
>  <MODEL>
8

>  <REMARK>
 VINA RESULT:      -8.8      3.210      5.561
  Name = 
  6 active torsions:
  status: ('A' for Active; 'I' for Inactive)
    1  A    between atoms: C_1  and  C_11
    2  A    between atoms: C_9  and  C_22
    3  A    between atoms: C_9  and  C_23
    4  A    between atoms: C_15  and  C_23
    5  A    between atoms: C_19  and  C_22
    6  A    between atoms: C_19  and  N_24
                            x       y       z     vdW  Elec       q    Type
                         _______ _______ _______ _____ _____    ______ ____

>  <TORSDO>
F 6

$$$$
=
 OpenBabel11052412563D

 31 34  0  0  1  0  0  0  0  0999 V2000
  185.0900  178.5170  145.6620 C   0  0  0  0  0  0  0  0  0  0  0  0
  186.7210  178.3220  142.2720 C   0  0  0  0  0  0  0  0  0  0  0  0
  188.0660  177.8790  142.4790 C   0  0  0  0  0  0  0  0  0  0  0  0
  189.6500  178.2450  144.3440 C   0  0  0  0  0  3  0  0  0  0  0  0
  185.7610  178.5120  143.3130 C   0  0  0  0  0  0  0  0  0  0  0  0
  183.8060  178.9260  145.3080 C   0  0  0  0  0  3  0  0  0  0  0  0
  188.5470  177.3950  143.8140 C   0  0  0  0  0  2  0  0  0  0  0  0
  185.0010  179.0030  140.6680 C   0  0  0  0  0  0  0  0  0  0  0  0
  185.4960  178.2550  147.3440 Cl  0  0  0  0  0  0  0  0  0  0  0  0
  188.4670  178.0410  140.0990 C   0  0  0  0  0  3  0  0  0  0  0  0
  190.8450  178.3080  143.7630 C   0  0  0  0  0  3  0  0  0  0  0  0
  184.1160  179.1650  141.6810 N   0  0  0  0  0  0  0  0  0  0  0  0
  186.3130  178.5860  140.9370 C   0  0  0  0  0  0  0  0  0  0  0  0
  186.0560  178.3140  144.6730 C   0  0  0  0  0  3  0  0  0  0  0  0
  191.1970  177.6270  142.5040 C   0  0  0  0  0  3  0  0  0  0  0  0
  184.4510  178.9370  142.9740 C   0  0  0  0  0  0  0  0  0  0  0  0
  183.4880  179.1360  143.9670 C   0  0  0  0  0  3  0  0  0  0  0  0
  187.1860  178.4300  139.9080 N   0  0  0  0  0  0  0  0  0  0  0  0
  188.9450  177.7770  141.3770 C   0  0  0  0  0  0  0  0  0  0  0  0
  190.3690  177.3900  141.4770 C   0  0  0  0  0  3  0  0  0  0  0  0
  184.5540  179.2960  139.2690 C   0  0  0  0  0  2  0  0  0  0  0  0
  182.4140  180.4230  138.6090 C   0  0  0  0  0  1  0  0  0  0  0  0
  183.0450  179.1440  139.1380 C   0  0  1  0  0  3  0  0  0  0  0  0
  182.1490  178.2090  137.1340 O   0  0  0  0  0  0  0  0  0  0  0  0
  182.7130  177.9920  138.2410 C   0  0  0  0  0  0  0  0  0  0  0  0
  182.6740  176.2130  139.7950 O   0  0  0  0  0  0  0  0  0  0  0  0
  183.0570  176.6120  138.6640 C   0  0  0  0  0  0  0  0  0  0  0  0
  183.7850  174.4150  137.9670 C   0  0  0  0  0  3  0  0  0  0  0  0
  183.8080  175.7030  137.8440 N   0  0  0  0  0  0  0  0  0  0  0  0
  184.6040  173.5560  137.0670 C   0  0  0  0  0  2  0  0  0  0  0  0
  183.9390  172.2070  136.8810 C   0  0  0  0  0  1  0  0  0  0  0  0
  1  9  1  0  0  0  0
  2  3  1  0  0  0  0
  2  5  1  0  0  0  0
  3  7  1  0  0  0  0
  5 14  1  0  0  0  0
  6  1  1  0  0  0  0
  7  4  1  0  0  0  0
  8 13  1  0  0  0  0
  8 12  2  0  0  0  0
 10 19  1  0  0  0  0
 11  4  2  0  0  0  0
 12 16  1  0  0  0  0
 13  2  2  0  0  0  0
 14  1  2  0  0  0  0
 15 11  1  0  0  0  0
 16  5  2  0  0  0  0
 16 17  1  0  0  0  0
 17  6  2  0  0  0  0
 18 10  2  0  0  0  0
 18 13  1  0  0  0  0
 19 20  1  0  0  0  0
 19  3  2  0  0  0  0
 20 15  2  0  0  0  0
 21  8  1  0  0  0  0
 23 22  1  6  0  0  0
 23 21  1  0  0  0  0
 24 25  2  0  0  0  0
 25 27  1  0  0  0  0
 25 23  1  0  0  0  0
 27 26  2  0  0  0  0
 29 28  2  0  0  0  0
 29 27  1  0  0  0  0
 30 28  1  0  0  0  0
 31 30  1  0  0  0  0
M  END
>  <MODEL>
9

>  <REMARK>
 VINA RESULT:      -8.8      2.913      4.440
  Name = 
  6 active torsions:
  status: ('A' for Active; 'I' for Inactive)
    1  A    between atoms: C_1  and  C_11
    2  A    between atoms: C_9  and  C_22
    3  A    between atoms: C_9  and  C_23
    4  A    between atoms: C_15  and  C_23
    5  A    between atoms: C_19  and  C_22
    6  A    between atoms: C_19  and  N_24
                            x       y       z     vdW  Elec       q    Type
                         _______ _______ _______ _____ _____    ______ ____

>  <TORSDO>
F 6

$$$$
